
  -OEChem-04052300123D

 86 95  0     1  0  0  0  0  0999 V2000
  -27.6185  -37.1016   26.7577 C   0  0  0  0  0  0  0  0  0  0  0  0
  -28.4576  -36.2054   26.1035 C   0  0  0  0  0  0  0  0  0  0  0  0
  -23.2179  -10.2714   21.5170 C   0  0  0  0  0  0  0  0  0  0  0  0
  -24.8225   -8.5641   22.1063 C   0  0  0  0  0  0  0  0  0  0  0  0
  -26.2765  -36.7801   26.9568 C   0  0  0  0  0  0  0  0  0  0  0  0
  -27.9554  -34.9866   25.6488 C   0  0  0  0  0  0  0  0  0  0  0  0
  -28.7806  -30.2355   20.3514 C   0  0  0  0  0  0  0  0  0  0  0  0
  -28.9012  -20.5583   19.5913 C   0  0  0  0  0  0  0  0  0  0  0  0
  -29.0689  -19.1761   19.5071 C   0  0  0  0  0  0  0  0  0  0  0  0
  -22.2459   -9.2904   21.3214 C   0  0  0  0  0  0  0  0  0  0  0  0
  -23.8505   -7.5830   21.9108 C   0  0  0  0  0  0  0  0  0  0  0  0
  -28.9959  -28.8727   20.1507 C   0  0  0  0  0  0  0  0  0  0  0  0
  -21.2131   -6.3195   23.6044 C   0  0  0  0  0  0  0  0  0  0  0  0
  -21.1058   -5.3149   24.5661 C   0  0  0  0  0  0  0  0  0  0  0  0
  -26.6425  -28.4584   20.4805 C   0  0  0  0  0  0  0  0  0  0  0  0
  -28.0283  -20.3158   21.8310 C   0  0  0  0  0  0  0  0  0  0  0  0
  -21.5862   -3.6511   22.8814 C   0  0  0  0  0  0  0  0  0  0  0  0
  -24.5063   -9.9083   21.9094 C   0  0  0  0  0  0  0  0  0  0  0  0
  -25.8002  -11.6055   23.3068 C   0  0  0  0  0  0  0  0  0  0  0  0
  -25.7553  -35.5609   26.4958 C   0  0  0  0  0  0  0  0  0  0  0  0
  -27.4942  -30.7194   20.6295 C   0  0  0  0  0  0  0  0  0  0  0  0
  -26.6055  -34.6479   25.8431 C   0  0  0  0  0  0  0  0  0  0  0  0
  -26.4131  -29.8281   20.6819 C   0  0  0  0  0  0  0  0  0  0  0  0
  -28.3810  -21.1282   20.7534 C   0  0  0  0  0  0  0  0  0  0  0  0
  -28.7162  -18.3638   20.5847 C   0  0  0  0  0  0  0  0  0  0  0  0
  -22.5621   -7.9462   21.5184 C   0  0  0  0  0  0  0  0  0  0  0  0
  -27.9273  -27.9836   20.2181 C   0  0  0  0  0  0  0  0  0  0  0  0
  -21.5069   -5.9900   22.2812 C   0  0  0  0  0  0  0  0  0  0  0  0
  -21.2924   -3.9807   24.2046 C   0  0  0  0  0  0  0  0  0  0  0  0
  -28.1959  -18.9336   21.7468 C   0  0  0  0  0  0  0  0  0  0  0  0
  -21.6935   -4.6558   21.9197 C   0  0  0  0  0  0  0  0  0  0  0  0
  -25.5110  -10.9212   22.1111 C   0  0  0  0  0  0  0  0  0  0  0  0
  -26.8272  -12.4555   22.9762 C   0  0  0  0  0  0  0  0  0  0  0  0
  -27.9748  -24.4630   20.9567 C   0  0  0  0  0  0  0  0  0  0  0  0
  -27.7424  -23.3092   21.8189 C   0  0  0  0  0  0  0  0  0  0  0  0
  -28.4638  -23.5100   19.9660 C   0  0  0  0  0  0  0  0  0  0  0  0
  -27.8125  -25.7961   21.0380 C   0  0  0  0  0  0  0  0  0  1  0  0
  -25.1947  -11.4837   24.6008 C   0  0  0  0  0  0  0  0  0  0  0  0
  -26.1510  -32.2444   23.0736 C   0  0  0  0  0  0  0  0  0  0  0  0
  -23.5987  -32.3877   21.0767 C   0  0  0  0  0  0  0  0  0  0  0  0
  -21.9366  -31.0752   18.4006 C   0  0  0  0  0  0  0  0  0  0  0  0
  -28.7980  -16.2602   19.2568 C   0  0  0  0  0  0  0  0  0  0  0  0
  -24.3092  -35.2372   26.7761 C   0  0  0  0  0  0  0  0  0  0  0  0
  -27.2742  -32.1955   20.8171 C   0  0  0  0  0  0  0  0  0  0  0  0
  -25.0093  -30.2993   20.9572 C   0  0  0  0  0  0  0  0  0  0  0  0
  -23.7680  -34.0860   25.9323 C   0  0  0  0  0  0  0  0  0  0  0  0
  -29.7109  -12.7102   18.8394 C   0  0  0  0  0  0  0  0  0  0  0  0
  -24.7492  -32.9180   25.9308 C   0  0  0  0  0  0  0  0  0  0  0  0
  -28.6770  -11.9890   19.7025 C   0  0  0  0  0  0  0  0  0  0  0  0
  -29.1637  -14.0167   18.2722 C   0  0  0  0  0  0  0  0  0  0  0  0
  -27.5908  -14.2215   20.1733 C   0  0  0  0  0  0  0  0  0  0  0  0
  -26.0922  -33.3265   25.3134 C   0  0  1  0  0  0  0  0  0  0  0  0
  -26.0063  -32.5155   21.6028 C   0  0  1  0  0  0  0  0  0  0  0  0
  -28.1266  -12.9227   20.7945 C   0  0  1  0  0  0  0  0  0  0  0  0
  -19.8591  -31.3841   17.0273 C   0  0  0  0  0  0  0  0  0  0  0  0
  -21.9389  -31.1376   23.3110 C   0  0  0  0  0  0  0  0  0  0  0  0
  -20.1802  -30.6037   21.6109 C   0  0  0  0  0  0  0  0  0  0  0  0
  -20.7930  -32.9787   22.0653 C   0  0  0  0  0  0  0  0  0  0  0  0
  -29.4061  -16.2157   21.6647 C   0  0  0  0  0  0  0  0  0  0  0  0
  -23.4994  -31.5699   15.9365 C   0  0  0  0  0  0  0  0  0  0  0  0
  -22.4080  -31.5025   20.7985 C   0  0  1  0  0  0  0  0  0  0  0  0
  -21.3335  -31.7286   17.1703 C   0  0  2  0  0  0  0  0  0  0  0  0
  -21.3567  -31.5461   21.9431 C   0  0  0  0  0  0  0  0  0  0  0  0
  -26.2911  -11.3035   21.0965 N   0  0  0  0  0  0  0  0  0  0  0  0
  -27.0806  -12.2373   21.6540 N   0  0  0  0  0  0  0  0  0  0  0  0
  -28.2151  -22.4903   20.8364 N   0  0  0  0  0  0  0  0  0  0  0  0
  -24.8463  -31.7511   21.1399 N   0  0  0  0  0  0  0  0  0  0  0  0
  -28.6055  -14.8658   19.3253 N   0  0  0  0  0  0  0  0  0  0  0  0
  -27.5292  -13.3607   23.6905 N   0  0  0  0  0  0  0  0  0  0  0  0
  -24.1520  -10.5619   24.7664 N   0  0  0  0  0  0  0  0  0  0  0  0
  -25.9946  -33.3629   23.8699 N   0  0  0  0  0  0  0  0  0  0  0  0
  -21.8912  -31.9107   19.4967 N   0  0  0  0  0  0  0  0  0  0  0  0
  -28.8904  -16.9333   20.4942 N   0  0  0  0  0  0  0  0  0  0  0  0
  -22.0436  -31.2738   15.9415 N   0  3  0  0  0  0  0  0  0  0  0  0
  -27.3108  -23.1385   22.9398 O   0  0  0  0  0  0  0  0  0  0  0  0
  -28.9072  -23.5829   18.8391 O   0  0  0  0  0  0  0  0  0  0  0  0
  -25.5563  -12.1836   25.5770 O   0  0  0  0  0  0  0  0  0  0  0  0
  -26.3857  -31.1047   23.4577 O   0  0  0  0  0  0  0  0  0  0  0  0
  -23.4291  -33.6005   21.2253 O   0  0  0  0  0  0  0  0  0  0  0  0
  -22.3983  -29.9362   18.3913 O   0  0  0  0  0  0  0  0  0  0  0  0
  -28.9085  -16.8513   18.1760 O   0  0  0  0  0  0  0  0  0  0  0  0
  -21.6138   -6.9886   21.3278 O   0  0  0  0  0  0  0  0  0  0  0  0
  -28.1348  -26.6529   20.0232 O   0  0  0  0  0  0  0  0  0  1  0  0
  -21.1909   -3.0161   25.1284 F   0  0  0  0  0  0  0  0  0  0  0  0
  -27.8520  -18.1625   22.7883 F   0  0  0  0  0  0  0  0  0  0  0  0
  -21.9771   -4.3331   20.6504 F   0  0  0  0  0  0  0  0  0  0  0  0
  1  2  1  0  0  0  0
  1  5  2  0  0  0  0
  2  6  2  0  0  0  0
  3 10  2  0  0  0  0
  3 18  1  0  0  0  0
  4 11  1  0  0  0  0
  4 18  2  0  0  0  0
  5 20  1  0  0  0  0
  6 22  1  0  0  0  0
  7 12  2  0  0  0  0
  7 21  1  0  0  0  0
  8  9  2  0  0  0  0
  8 24  1  0  0  0  0
  9 25  1  0  0  0  0
 10 26  1  0  0  0  0
 11 26  2  0  0  0  0
 12 27  1  0  0  0  0
 13 14  2  0  0  0  0
 13 28  1  0  0  0  0
 14 29  1  0  0  0  0
 15 23  1  0  0  0  0
 15 27  2  0  0  0  0
 16 24  2  0  0  0  0
 16 30  1  0  0  0  0
 17 29  2  0  0  0  0
 17 31  1  0  0  0  0
 18 32  1  0  0  0  0
 19 32  1  0  0  0  0
 19 33  2  0  0  0  0
 19 38  1  0  0  0  0
 20 22  2  0  0  0  0
 20 43  1  0  0  0  0
 21 23  2  0  0  0  0
 21 44  1  0  0  0  0
 22 52  1  0  0  0  0
 23 45  1  0  0  0  0
 24 66  1  0  0  0  0
 25 30  2  0  0  0  0
 25 73  1  0  0  0  0
 26 82  1  0  0  0  0
 27 83  1  0  0  0  0
 28 31  2  0  0  0  0
 28 82  1  0  0  0  0
 29 84  1  0  0  0  0
 30 85  1  0  0  0  0
 31 86  1  0  0  0  0
 32 64  2  0  0  0  0
 33 65  1  0  0  0  0
 33 69  1  0  0  0  0
 34 35  1  0  0  0  0
 34 36  1  0  0  0  0
 34 37  2  0  0  0  0
 35 66  1  0  0  0  0
 35 75  2  0  0  0  0
 36 66  1  0  0  0  0
 36 76  2  0  0  0  0
 37 83  1  0  0  0  0
 38 70  1  0  0  0  0
 38 77  2  0  0  0  0
 39 53  1  0  0  0  0
 39 71  1  0  0  0  0
 39 78  2  0  0  0  0
 40 61  1  0  0  0  0
 40 67  1  0  0  0  0
 40 79  2  0  0  0  0
 41 62  1  0  0  0  0
 41 72  1  0  0  0  0
 41 80  2  0  0  0  0
 42 68  1  0  0  0  0
 42 73  1  0  0  0  0
 42 81  2  0  0  0  0
 43 46  1  0  0  0  0
 44 53  1  0  0  0  0
 45 67  1  0  0  0  0
 46 48  1  0  0  0  0
 47 49  1  0  0  0  0
 47 50  1  0  0  0  0
 48 52  1  0  0  0  0
 49 54  1  0  0  0  0
 50 68  1  0  0  0  0
 51 54  1  0  0  0  0
 51 68  1  0  0  0  0
 52 71  1  0  0  0  0
 53 67  1  0  0  0  0
 54 65  1  0  0  0  0
 55 62  1  0  0  0  0
 56 63  1  0  0  0  0
 57 63  1  0  0  0  0
 58 63  1  0  0  0  0
 59 73  1  0  0  0  0
 60 74  1  0  0  0  0
 61 63  1  0  0  0  0
 61 72  1  0  0  0  0
 62 74  1  0  0  0  0
 64 65  1  0  0  0  0
M  CHG  1  74   1
M  ISO  4  37 101  42 100  73 100  83 101
M  END
> <Batch ID>
0084

> <Smiles>
CNC(C)C(=O)NC(C(=O)N1Cc2cc([101O:1][101CH:1]=C3C(=O)N(c4ccc([100N:0](C)[100C:0](=O)N5CCCC(n6nc(-c7ccc(Oc8ccc(F)cc8F)cc7)c(C(N)=O)c6N)C5)c(F)c4)C3=O)ccc2CC1C(=O)NC1CCCc2ccccc21)C(C)(C)C

> <Shape>
0.304

> <Color>
0.114

> <Negative vol penalty>
0.000

$$$$

  -OEChem-04052300123D

 82 90  0     1  0  0  0  0  0999 V2000
  -23.0228  -11.8314   17.6593 C   0  0  0  0  0  0  0  0  0  0  0  0
  -22.3833  -12.9541   18.1752 C   0  0  0  0  0  0  0  0  0  0  0  0
  -18.0447  -28.4250   23.0576 C   0  0  0  0  0  0  0  0  0  0  0  0
  -30.2256  -28.5184   18.8304 C   0  0  0  0  0  0  0  0  0  0  0  0
  -29.9868  -27.3324   20.9216 C   0  0  0  0  0  0  0  0  0  0  0  0
  -17.8697  -27.0533   22.8751 C   0  0  0  0  0  0  0  0  0  0  0  0
  -24.1976  -11.3670   18.2493 C   0  0  0  0  0  0  0  0  0  0  0  0
  -22.9177  -13.6124   19.2822 C   0  0  0  0  0  0  0  0  0  0  0  0
  -22.9331  -18.6461   18.7285 C   0  0  0  0  0  0  0  0  0  0  0  0
  -19.2978  -29.0019   22.8509 C   0  0  0  0  0  0  0  0  0  0  0  0
  -31.6135  -28.4358   18.9420 C   0  0  0  0  0  0  0  0  0  0  0  0
  -31.3747  -27.2497   21.0333 C   0  0  0  0  0  0  0  0  0  0  0  0
  -21.7241  -19.3120   18.9253 C   0  0  0  0  0  0  0  0  0  0  0  0
  -34.8507  -26.4096   21.6892 C   0  0  0  0  0  0  0  0  0  0  0  0
  -35.3999  -25.1842   22.0664 C   0  0  0  0  0  0  0  0  0  0  0  0
  -20.2010  -26.8352   22.2794 C   0  0  0  0  0  0  0  0  0  0  0  0
  -22.4306  -19.9250   21.1488 C   0  0  0  0  0  0  0  0  0  0  0  0
  -34.4205  -24.1453   20.1174 C   0  0  0  0  0  0  0  0  0  0  0  0
  -29.4122  -27.9667   19.8202 C   0  0  0  0  0  0  0  0  0  0  0  0
  -18.9479  -26.2583   22.4860 C   0  0  0  0  0  0  0  0  0  0  0  0
  -27.1187  -27.1275   19.0833 C   0  0  0  0  0  0  0  0  0  0  0  0
  -24.7519  -12.0257   19.3582 C   0  0  0  0  0  0  0  0  0  0  0  0
  -23.8971  -18.6053   19.7462 C   0  0  0  0  0  0  0  0  0  0  0  0
  -24.1003  -13.1556   19.8885 C   0  0  0  0  0  0  0  0  0  0  0  0
  -23.6520  -19.2602   20.9616 C   0  0  0  0  0  0  0  0  0  0  0  0
  -20.3760  -28.2069   22.4618 C   0  0  0  0  0  0  0  0  0  0  0  0
  -32.1881  -27.8014   20.0435 C   0  0  0  0  0  0  0  0  0  0  0  0
  -21.4715  -19.9491   20.1366 C   0  0  0  0  0  0  0  0  0  0  0  0
  -34.0863  -26.5029   20.5261 C   0  0  0  0  0  0  0  0  0  0  0  0
  -35.1848  -24.0521   21.2805 C   0  0  0  0  0  0  0  0  0  0  0  0
  -33.8713  -25.3708   19.7402 C   0  0  0  0  0  0  0  0  0  0  0  0
  -27.9785  -28.0522   19.7058 C   0  0  0  0  0  0  0  0  0  0  0  0
  -25.8641  -27.6627   19.2445 C   0  0  0  0  0  0  0  0  0  0  0  0
  -18.7615  -24.8091   22.2930 C   0  0  0  0  0  0  0  0  0  0  0  0
  -19.5810  -24.0238   21.5735 C   0  0  0  0  0  0  0  0  0  0  0  0
  -20.3326  -21.9375   20.6058 C   0  0  0  0  0  0  0  0  0  1  0  0
  -27.4266  -25.8948   18.4189 C   0  0  0  0  0  0  0  0  0  0  0  0
  -19.4249  -22.5879   21.3533 C   0  0  0  0  0  0  0  0  0  0  0  0
  -25.2660  -16.2959   21.4480 C   0  0  0  0  0  0  0  0  0  0  0  0
  -27.0790  -18.7372   22.5774 C   0  0  0  0  0  0  0  0  0  0  0  0
  -27.3904  -22.0850   23.1621 C   0  0  0  0  0  0  0  0  0  0  0  0
  -21.9917  -30.1383   22.3876 C   0  0  0  0  0  0  0  0  0  0  0  0
  -25.9979  -11.4586   19.9912 C   0  0  0  0  0  0  0  0  0  0  0  0
  -25.2071  -17.9055   19.5085 C   0  0  0  0  0  0  0  0  0  0  0  0
  -24.6624  -19.2632   22.0785 C   0  0  0  0  0  0  0  0  0  0  0  0
  -26.7019  -12.4343   20.9307 C   0  0  0  0  0  0  0  0  0  0  0  0
  -24.4170  -32.2409   20.8469 C   0  0  0  0  0  0  0  0  0  0  0  0
  -25.6942  -13.0981   21.8638 C   0  0  0  0  0  0  0  0  0  0  0  0
  -25.4891  -31.2626   20.3615 C   0  0  0  0  0  0  0  0  0  0  0  0
  -23.8196  -31.8095   22.1850 C   0  0  0  0  0  0  0  0  0  0  0  0
  -24.3842  -29.4536   21.7377 C   0  0  0  0  0  0  0  0  0  0  0  0
  -24.6625  -13.9114   21.0728 C   0  0  1  0  0  0  0  0  0  0  0  0
  -25.9059  -17.4909   20.7997 C   0  0  1  0  0  0  0  0  0  0  0  0
  -24.9694  -29.8115   20.3618 C   0  0  2  0  0  0  0  0  0  0  0  0
  -18.2502  -21.8788   21.9726 C   0  0  0  0  0  0  0  0  0  0  0  0
  -28.4911  -24.2404   23.8257 C   0  0  0  0  0  0  0  0  0  0  0  0
  -26.3034  -17.8462   25.3906 C   0  0  0  0  0  0  0  0  0  0  0  0
  -27.0931  -20.0664   26.2363 C   0  0  0  0  0  0  0  0  0  0  0  0
  -28.7001  -18.5115   25.1307 C   0  0  0  0  0  0  0  0  0  0  0  0
  -28.4434  -22.5228   20.4311 C   0  0  0  0  0  0  0  0  0  0  0  0
  -26.9686  -19.7070   23.7290 C   0  0  1  0  0  0  0  0  0  0  0  0
  -28.5183  -23.0580   22.8696 C   0  0  2  0  0  0  0  0  0  0  0  0
  -27.2462  -19.0313   25.1015 C   0  0  0  0  0  0  0  0  0  0  0  0
  -27.3253  -29.0959   20.2236 N   0  0  0  0  0  0  0  0  0  0  0  0
  -26.0418  -28.8302   19.9269 N   0  0  0  0  0  0  0  0  0  0  0  0
  -25.9256  -18.5600   21.8002 N   0  0  0  0  0  0  0  0  0  0  0  0
  -23.3445  -30.4262   22.1088 N   0  0  0  0  0  0  0  0  0  0  0  0
  -24.6373  -27.2439   18.8677 N   0  0  0  0  0  0  0  0  0  0  0  0
  -28.7673  -25.4933   18.3434 N   0  0  0  0  0  0  0  0  0  0  0  0
  -21.6484  -28.7937   22.2511 N   0  0  0  0  0  0  0  0  0  0  0  0
  -25.2320  -15.1714   20.6456 N   0  0  0  0  0  0  0  0  0  0  0  0
  -27.8642  -20.8154   23.4166 N   0  0  0  0  0  0  0  0  0  0  0  0
  -28.4067  -23.5770   21.4771 N   0  3  0  0  0  0  0  0  0  0  0  0
  -26.5408  -25.1791   17.8930 O   0  0  0  0  0  0  0  0  0  0  0  0
  -24.8363  -16.3869   22.5920 O   0  0  0  0  0  0  0  0  0  0  0  0
  -28.1513  -18.1636   22.3705 O   0  0  0  0  0  0  0  0  0  0  0  0
  -26.2076  -22.4188   23.1681 O   0  0  0  0  0  0  0  0  0  0  0  0
  -21.1900  -31.0238   22.6962 O   0  0  0  0  0  0  0  0  0  0  0  0
  -33.5424  -27.7204   20.1526 O   0  0  0  0  0  0  0  0  0  0  0  0
  -20.2920  -20.5992   20.3315 O   0  0  0  0  0  0  0  0  0  1  0  0
  -35.7136  -22.8757   21.6420 F   0  0  0  0  0  0  0  0  0  0  0  0
  -33.1388  -25.4545   18.6211 F   0  0  0  0  0  0  0  0  0  0  0  0
  1  2  1  0  0  0  0
  1  7  2  0  0  0  0
  2  8  2  0  0  0  0
  3  6  2  0  0  0  0
  3 10  1  0  0  0  0
  4 11  2  0  0  0  0
  4 19  1  0  0  0  0
  5 12  1  0  0  0  0
  5 19  2  0  0  0  0
  6 20  1  0  0  0  0
  7 22  1  0  0  0  0
  8 24  1  0  0  0  0
  9 13  2  0  0  0  0
  9 23  1  0  0  0  0
 10 26  2  0  0  0  0
 11 27  1  0  0  0  0
 12 27  2  0  0  0  0
 13 28  1  0  0  0  0
 14 15  2  0  0  0  0
 14 29  1  0  0  0  0
 15 30  1  0  0  0  0
 16 20  2  0  0  0  0
 16 26  1  0  0  0  0
 17 25  1  0  0  0  0
 17 28  2  0  0  0  0
 18 30  2  0  0  0  0
 18 31  1  0  0  0  0
 19 32  1  0  0  0  0
 20 34  1  0  0  0  0
 21 32  1  0  0  0  0
 21 33  2  0  0  0  0
 21 37  1  0  0  0  0
 22 24  2  0  0  0  0
 22 43  1  0  0  0  0
 23 25  2  0  0  0  0
 23 44  1  0  0  0  0
 24 52  1  0  0  0  0
 25 45  1  0  0  0  0
 26 70  1  0  0  0  0
 27 79  1  0  0  0  0
 28 80  1  0  0  0  0
 29 31  2  0  0  0  0
 29 79  1  0  0  0  0
 30 81  1  0  0  0  0
 31 82  1  0  0  0  0
 32 64  2  0  0  0  0
 33 65  1  0  0  0  0
 33 68  1  0  0  0  0
 34 35  2  0  0  0  0
 35 38  1  0  0  0  0
 36 38  2  0  0  0  0
 36 80  1  0  0  0  0
 37 69  1  0  0  0  0
 37 74  2  0  0  0  0
 38 55  1  0  0  0  0
 39 53  1  0  0  0  0
 39 71  1  0  0  0  0
 39 75  2  0  0  0  0
 40 61  1  0  0  0  0
 40 66  1  0  0  0  0
 40 76  2  0  0  0  0
 41 62  1  0  0  0  0
 41 72  1  0  0  0  0
 41 77  2  0  0  0  0
 42 67  1  0  0  0  0
 42 70  1  0  0  0  0
 42 78  2  0  0  0  0
 43 46  1  0  0  0  0
 44 53  1  0  0  0  0
 45 66  1  0  0  0  0
 46 48  1  0  0  0  0
 47 49  1  0  0  0  0
 47 50  1  0  0  0  0
 48 52  1  0  0  0  0
 49 54  1  0  0  0  0
 50 67  1  0  0  0  0
 51 54  1  0  0  0  0
 51 67  1  0  0  0  0
 52 71  1  0  0  0  0
 53 66  1  0  0  0  0
 54 65  1  0  0  0  0
 56 62  1  0  0  0  0
 57 63  1  0  0  0  0
 58 63  1  0  0  0  0
 59 63  1  0  0  0  0
 60 73  1  0  0  0  0
 61 63  1  0  0  0  0
 61 72  1  0  0  0  0
 62 73  1  0  0  0  0
 64 65  1  0  0  0  0
M  CHG  1  73   1
M  ISO  4  36 101  42 100  70 100  80 101
M  END
> <Batch ID>
0084

> <Smiles>
CNC(C)C(=O)NC(C(=O)N1Cc2cc([101O:1][101CH:1]=C(C)C=Cc3cccc([100NH:0][100C:0](=O)N4CCCC(n5nc(-c6ccc(Oc7ccc(F)cc7F)cc6)c(C(N)=O)c5N)C4)c3)ccc2CC1C(=O)NC1CCCc2ccccc21)C(C)(C)C

> <Shape>
0.190

> <Color>
0.088

> <Negative vol penalty>
0.000

$$$$

  -OEChem-04052300123D

 85 94  0     1  0  0  0  0  0999 V2000
  -28.6536  -36.8737   26.7169 C   0  0  0  0  0  0  0  0  0  0  0  0
  -29.4238  -35.9095   26.0747 C   0  0  0  0  0  0  0  0  0  0  0  0
  -23.3810  -10.2999   21.5300 C   0  0  0  0  0  0  0  0  0  0  0  0
  -24.9038   -8.5345   22.1637 C   0  0  0  0  0  0  0  0  0  0  0  0
  -27.2861  -36.6675   26.8941 C   0  0  0  0  0  0  0  0  0  0  0  0
  -28.8272  -34.7379   25.6103 C   0  0  0  0  0  0  0  0  0  0  0  0
  -29.3301  -29.9345   20.3196 C   0  0  0  0  0  0  0  0  0  0  0  0
  -29.1960  -20.1916   21.9752 C   0  0  0  0  0  0  0  0  0  0  0  0
  -28.8887  -20.2956   19.5811 C   0  0  0  0  0  0  0  0  0  0  0  0
  -29.3111  -18.8036   21.9002 C   0  0  0  0  0  0  0  0  0  0  0  0
  -29.0038  -18.9075   19.5060 C   0  0  0  0  0  0  0  0  0  0  0  0
  -22.3751   -9.3568   21.3197 C   0  0  0  0  0  0  0  0  0  0  0  0
  -23.8978   -7.5914   21.9535 C   0  0  0  0  0  0  0  0  0  0  0  0
  -29.4319  -28.5584   20.1203 C   0  0  0  0  0  0  0  0  0  0  0  0
  -21.1773   -6.4451   23.5982 C   0  0  0  0  0  0  0  0  0  0  0  0
  -21.0100   -5.4522   24.5635 C   0  0  0  0  0  0  0  0  0  0  0  0
  -27.0468  -28.3457   20.4121 C   0  0  0  0  0  0  0  0  0  0  0  0
  -21.4592   -3.7590   22.8996 C   0  0  0  0  0  0  0  0  0  0  0  0
  -24.6454   -9.8888   21.9519 C   0  0  0  0  0  0  0  0  0  0  0  0
  -25.9761  -11.5431   23.3662 C   0  0  0  0  0  0  0  0  0  0  0  0
  -26.6706  -35.4970   26.4230 C   0  0  0  0  0  0  0  0  0  0  0  0
  -28.0851  -30.5260   20.5779 C   0  0  0  0  0  0  0  0  0  0  0  0
  -27.4504  -34.5151   25.7826 C   0  0  0  0  0  0  0  0  0  0  0  0
  -26.9315  -29.7298   20.6117 C   0  0  0  0  0  0  0  0  0  0  0  0
  -28.9848  -20.9377   20.8157 C   0  0  0  0  0  0  0  0  0  0  0  0
  -29.2150  -18.1615   20.6656 C   0  0  0  0  0  0  0  0  0  0  0  0
  -22.6335   -8.0026   21.5315 C   0  0  0  0  0  0  0  0  0  0  0  0
  -28.2906  -27.7633   20.1694 C   0  0  0  0  0  0  0  0  0  0  0  0
  -21.4855   -6.0950   22.2836 C   0  0  0  0  0  0  0  0  0  0  0  0
  -21.1510   -4.1092   24.2142 C   0  0  0  0  0  0  0  0  0  0  0  0
  -21.6265   -4.7520   21.9343 C   0  0  0  0  0  0  0  0  0  0  0  0
  -25.6851  -10.8625   22.1687 C   0  0  0  0  0  0  0  0  0  0  0  0
  -27.0428  -12.3494   23.0524 C   0  0  0  0  0  0  0  0  0  0  0  0
  -28.7061  -24.2869   20.9964 C   0  0  0  0  0  0  0  0  0  0  0  0
  -28.9211  -23.1860   21.9295 C   0  0  0  0  0  0  0  0  0  0  0  0
  -28.6670  -23.2717   19.9491 C   0  0  0  0  0  0  0  0  0  0  0  0
  -28.5947  -25.6257   21.0686 C   0  0  0  0  0  0  0  0  0  1  0  0
  -25.3392  -11.4543   24.6476 C   0  0  0  0  0  0  0  0  0  0  0  0
  -26.8376  -32.1594   23.0026 C   0  0  0  0  0  0  0  0  0  0  0  0
  -24.3390  -32.5195   20.9656 C   0  0  0  0  0  0  0  0  0  0  0  0
  -22.6144  -31.3535   18.2614 C   0  0  0  0  0  0  0  0  0  0  0  0
  -29.2411  -16.0472   19.3525 C   0  0  0  0  0  0  0  0  0  0  0  0
  -25.1979  -35.2975   26.6798 C   0  0  0  0  0  0  0  0  0  0  0  0
  -27.9885  -32.0155   20.7642 C   0  0  0  0  0  0  0  0  0  0  0  0
  -25.5686  -30.3187   20.8654 C   0  0  0  0  0  0  0  0  0  0  0  0
  -24.5744  -34.1965   25.8257 C   0  0  0  0  0  0  0  0  0  0  0  0
  -30.0207  -12.4610   18.9763 C   0  0  0  0  0  0  0  0  0  0  0  0
  -25.4527  -32.9494   25.8381 C   0  0  0  0  0  0  0  0  0  0  0  0
  -28.9410  -11.7874   19.8216 C   0  0  0  0  0  0  0  0  0  0  0  0
  -29.5379  -13.7841   18.3896 C   0  0  0  0  0  0  0  0  0  0  0  0
  -27.9348  -14.0643   20.2556 C   0  0  0  0  0  0  0  0  0  0  0  0
  -26.8351  -33.2423   25.2428 C   0  0  1  0  0  0  0  0  0  0  0  0
  -26.7400  -32.4420   21.5301 C   0  0  1  0  0  0  0  0  0  0  0  0
  -28.4053  -12.7496   20.8959 C   0  0  1  0  0  0  0  0  0  0  0  0
  -20.5929  -31.8380   16.8556 C   0  0  0  0  0  0  0  0  0  0  0  0
  -22.5434  -31.4147   23.1712 C   0  0  0  0  0  0  0  0  0  0  0  0
  -20.7731  -31.0325   21.4426 C   0  0  0  0  0  0  0  0  0  0  0  0
  -21.5783  -33.3468   21.9102 C   0  0  0  0  0  0  0  0  0  0  0  0
  -29.7961  -15.9953   21.7731 C   0  0  0  0  0  0  0  0  0  0  0  0
  -24.2527  -31.7138   15.8231 C   0  0  0  0  0  0  0  0  0  0  0  0
  -23.0819  -31.7387   20.6670 C   0  0  1  0  0  0  0  0  0  0  0  0
  -22.0887  -32.0559   17.0225 C   0  0  2  0  0  0  0  0  0  0  0  0
  -22.0199  -31.8715   21.7949 C   0  0  0  0  0  0  0  0  0  0  0  0
  -26.5010  -11.2065   21.1687 N   0  0  0  0  0  0  0  0  0  0  0  0
  -27.3151  -12.1122   21.7371 N   0  0  0  0  0  0  0  0  0  0  0  0
  -28.8710  -22.3057   20.8895 N   0  0  0  0  0  0  0  0  0  0  0  0
  -25.5268  -31.7791   21.0476 N   0  0  0  0  0  0  0  0  0  0  0  0
  -28.9919  -14.6620   19.4255 N   0  0  0  0  0  0  0  0  0  0  0  0
  -27.7650  -13.2311   23.7758 N   0  0  0  0  0  0  0  0  0  0  0  0
  -24.2574  -10.5758   24.7967 N   0  0  0  0  0  0  0  0  0  0  0  0
  -26.7641  -33.2870   23.7980 N   0  0  0  0  0  0  0  0  0  0  0  0
  -22.6226  -32.1896   19.3578 N   0  0  0  0  0  0  0  0  0  0  0  0
  -29.3341  -16.7247   20.5876 N   0  0  0  0  0  0  0  0  0  0  0  0
  -22.7771  -31.5426   15.8046 N   0  3  0  0  0  0  0  0  0  0  0  0
  -29.0793  -23.0849   23.1280 O   0  0  0  0  0  0  0  0  0  0  0  0
  -28.5169  -23.2746   18.7453 O   0  0  0  0  0  0  0  0  0  0  0  0
  -25.7077  -12.1461   25.6270 O   0  0  0  0  0  0  0  0  0  0  0  0
  -26.9684  -31.0038   23.3887 O   0  0  0  0  0  0  0  0  0  0  0  0
  -24.2707  -33.7423   21.1132 O   0  0  0  0  0  0  0  0  0  0  0  0
  -22.9776  -30.1793   18.2577 O   0  0  0  0  0  0  0  0  0  0  0  0
  -29.3977  -16.6259   18.2708 O   0  0  0  0  0  0  0  0  0  0  0  0
  -21.6521   -7.0820   21.3267 O   0  0  0  0  0  0  0  0  0  0  0  0
  -28.3873  -26.4198   19.9759 O   0  0  0  0  0  0  0  0  0  1  0  0
  -20.9918   -3.1558   25.1416 F   0  0  0  0  0  0  0  0  0  0  0  0
  -21.9237   -4.4095   20.6733 F   0  0  0  0  0  0  0  0  0  0  0  0
  1  2  1  0  0  0  0
  1  5  2  0  0  0  0
  2  6  2  0  0  0  0
  3 12  2  0  0  0  0
  3 19  1  0  0  0  0
  4 13  1  0  0  0  0
  4 19  2  0  0  0  0
  5 21  1  0  0  0  0
  6 23  1  0  0  0  0
  7 14  2  0  0  0  0
  7 22  1  0  0  0  0
  8 10  2  0  0  0  0
  8 25  1  0  0  0  0
  9 11  1  0  0  0  0
  9 25  2  0  0  0  0
 10 26  1  0  0  0  0
 11 26  2  0  0  0  0
 12 27  1  0  0  0  0
 13 27  2  0  0  0  0
 14 28  1  0  0  0  0
 15 16  2  0  0  0  0
 15 29  1  0  0  0  0
 16 30  1  0  0  0  0
 17 24  1  0  0  0  0
 17 28  2  0  0  0  0
 18 30  2  0  0  0  0
 18 31  1  0  0  0  0
 19 32  1  0  0  0  0
 20 32  1  0  0  0  0
 20 33  2  0  0  0  0
 20 38  1  0  0  0  0
 21 23  2  0  0  0  0
 21 43  1  0  0  0  0
 22 24  2  0  0  0  0
 22 44  1  0  0  0  0
 23 52  1  0  0  0  0
 24 45  1  0  0  0  0
 25 66  1  0  0  0  0
 26 73  1  0  0  0  0
 27 82  1  0  0  0  0
 28 83  1  0  0  0  0
 29 31  2  0  0  0  0
 29 82  1  0  0  0  0
 30 84  1  0  0  0  0
 31 85  1  0  0  0  0
 32 64  2  0  0  0  0
 33 65  1  0  0  0  0
 33 69  1  0  0  0  0
 34 35  1  0  0  0  0
 34 36  1  0  0  0  0
 34 37  2  0  0  0  0
 35 66  1  0  0  0  0
 35 75  2  0  0  0  0
 36 66  1  0  0  0  0
 36 76  2  0  0  0  0
 37 83  1  0  0  0  0
 38 70  1  0  0  0  0
 38 77  2  0  0  0  0
 39 53  1  0  0  0  0
 39 71  1  0  0  0  0
 39 78  2  0  0  0  0
 40 61  1  0  0  0  0
 40 67  1  0  0  0  0
 40 79  2  0  0  0  0
 41 62  1  0  0  0  0
 41 72  1  0  0  0  0
 41 80  2  0  0  0  0
 42 68  1  0  0  0  0
 42 73  1  0  0  0  0
 42 81  2  0  0  0  0
 43 46  1  0  0  0  0
 44 53  1  0  0  0  0
 45 67  1  0  0  0  0
 46 48  1  0  0  0  0
 47 49  1  0  0  0  0
 47 50  1  0  0  0  0
 48 52  1  0  0  0  0
 49 54  1  0  0  0  0
 50 68  1  0  0  0  0
 51 54  1  0  0  0  0
 51 68  1  0  0  0  0
 52 71  1  0  0  0  0
 53 67  1  0  0  0  0
 54 65  1  0  0  0  0
 55 62  1  0  0  0  0
 56 63  1  0  0  0  0
 57 63  1  0  0  0  0
 58 63  1  0  0  0  0
 59 73  1  0  0  0  0
 60 74  1  0  0  0  0
 61 63  1  0  0  0  0
 61 72  1  0  0  0  0
 62 74  1  0  0  0  0
 64 65  1  0  0  0  0
M  CHG  1  74   1
M  ISO  4  37 101  42 100  73 100  83 101
M  END
> <Batch ID>
0084

> <Smiles>
CNC(C)C(=O)NC(C(=O)N1Cc2cc([101O:1][101CH:1]=C3C(=O)N(c4ccc([100N:0](C)[100C:0](=O)N5CCCC(n6nc(-c7ccc(Oc8ccc(F)cc8F)cc7)c(C(N)=O)c6N)C5)cc4)C3=O)ccc2CC1C(=O)NC1CCCc2ccccc21)C(C)(C)C

> <Shape>
0.308

> <Color>
0.104

> <Negative vol penalty>
0.000

$$$$

  -OEChem-04052300123D

 84 93  0     1  0  0  0  0  0999 V2000
  -27.3783  -37.7506   23.8460 C   0  0  0  0  0  0  0  0  0  0  0  0
  -27.9648  -36.8071   23.0086 C   0  0  0  0  0  0  0  0  0  0  0  0
  -24.1859   -9.2995   22.2135 C   0  0  0  0  0  0  0  0  0  0  0  0
  -22.9231  -11.2834   21.6598 C   0  0  0  0  0  0  0  0  0  0  0  0
  -26.4957  -37.3416   24.8447 C   0  0  0  0  0  0  0  0  0  0  0  0
  -27.6698  -35.4538   23.1702 C   0  0  0  0  0  0  0  0  0  0  0  0
  -26.9110  -29.4153   19.3918 C   0  0  0  0  0  0  0  0  0  0  0  0
  -26.2998  -19.4060   19.1256 C   0  0  0  0  0  0  0  0  0  0  0  0
  -26.5644  -18.0444   18.9786 C   0  0  0  0  0  0  0  0  0  0  0  0
  -23.3208   -9.0459   23.2778 C   0  0  0  0  0  0  0  0  0  0  0  0
  -22.0579  -11.0298   22.7241 C   0  0  0  0  0  0  0  0  0  0  0  0
  -27.3662  -28.0978   19.3639 C   0  0  0  0  0  0  0  0  0  0  0  0
  -20.2302   -7.7480   23.7209 C   0  0  0  0  0  0  0  0  0  0  0  0
  -19.7721   -6.4410   23.8866 C   0  0  0  0  0  0  0  0  0  0  0  0
  -25.7657  -27.5151   21.0721 C   0  0  0  0  0  0  0  0  0  0  0  0
  -28.8456  -18.4116   19.6847 C   0  0  0  0  0  0  0  0  0  0  0  0
  -20.7712   -6.3696   26.0852 C   0  0  0  0  0  0  0  0  0  0  0  0
  -23.9871  -10.4183   21.4045 C   0  0  0  0  0  0  0  0  0  0  0  0
  -24.7521  -10.2291   18.9782 C   0  0  0  0  0  0  0  0  0  0  0  0
  -26.1822  -35.9836   25.0125 C   0  0  0  0  0  0  0  0  0  0  0  0
  -25.8855  -29.7956   20.2693 C   0  0  0  0  0  0  0  0  0  0  0  0
  -26.7831  -35.0262   24.1730 C   0  0  0  0  0  0  0  0  0  0  0  0
  -25.2975  -28.8374   21.1073 C   0  0  0  0  0  0  0  0  0  0  0  0
  -27.3081  -20.2704   19.5521 C   0  0  0  0  0  0  0  0  0  0  0  0
  -27.8373  -17.5472   19.2582 C   0  0  0  0  0  0  0  0  0  0  0  0
  -22.2568   -9.9110   23.5331 C   0  0  0  0  0  0  0  0  0  0  0  0
  -26.7956  -27.1481   20.2062 C   0  0  0  0  0  0  0  0  0  0  0  0
  -20.9588   -8.3658   24.7373 C   0  0  0  0  0  0  0  0  0  0  0  0
  -20.0426   -5.7518   25.0688 C   0  0  0  0  0  0  0  0  0  0  0  0
  -28.5810  -19.7732   19.8317 C   0  0  0  0  0  0  0  0  0  0  0  0
  -21.2293   -7.6766   25.9194 C   0  0  0  0  0  0  0  0  0  0  0  0
  -24.8808  -10.6812   20.3052 C   0  0  0  0  0  0  0  0  0  0  0  0
  -25.8475  -10.7468   18.3314 C   0  0  0  0  0  0  0  0  0  0  0  0
  -26.6694  -23.5750   19.8071 C   0  0  0  0  0  0  0  0  0  0  0  0
  -25.9252  -22.3530   19.4998 C   0  0  0  0  0  0  0  0  0  0  0  0
  -26.3437  -24.8791   19.8622 C   0  0  0  0  0  0  0  0  0  1  0  0
  -23.7334   -9.4141   18.3835 C   0  0  0  0  0  0  0  0  0  0  0  0
  -25.6518  -31.8329   22.6980 C   0  0  0  0  0  0  0  0  0  0  0  0
  -22.5157  -31.0131   22.5759 C   0  0  0  0  0  0  0  0  0  0  0  0
  -20.1531  -28.7222   21.6721 C   0  0  0  0  0  0  0  0  0  0  0  0
  -29.3136  -15.5077   19.3439 C   0  0  0  0  0  0  0  0  0  0  0  0
  -25.2589  -35.5851   26.1365 C   0  0  0  0  0  0  0  0  0  0  0  0
  -25.3875  -31.2149   20.2681 C   0  0  0  0  0  0  0  0  0  0  0  0
  -24.1798  -29.1901   22.0533 C   0  0  0  0  0  0  0  0  0  0  0  0
  -27.9078  -22.7348   20.0196 C   0  0  0  0  0  0  0  0  0  0  0  0
  -24.7098  -34.1674   26.0001 C   0  0  0  0  0  0  0  0  0  0  0  0
  -30.3676  -12.1136   19.1285 C   0  0  0  0  0  0  0  0  0  0  0  0
  -25.8291  -33.1929   25.6477 C   0  0  0  0  0  0  0  0  0  0  0  0
  -29.0676  -11.3201   19.2790 C   0  0  0  0  0  0  0  0  0  0  0  0
  -30.3753  -13.3618   20.0093 C   0  0  0  0  0  0  0  0  0  0  0  0
  -27.9134  -13.4510   19.9957 C   0  0  0  0  0  0  0  0  0  0  0  0
  -26.4690  -33.5514   24.3010 C   0  0  1  0  0  0  0  0  0  0  0  0
  -24.6890  -31.6041   21.5674 C   0  0  1  0  0  0  0  0  0  0  0  0
  -27.8320  -12.2195   19.0791 C   0  0  2  0  0  0  0  0  0  0  0  0
  -17.6776  -28.3154   21.7361 C   0  0  0  0  0  0  0  0  0  0  0  0
  -22.7064  -30.3347   25.5446 C   0  0  0  0  0  0  0  0  0  0  0  0
  -20.5556  -29.0725   25.3230 C   0  0  0  0  0  0  0  0  0  0  0  0
  -20.6109  -31.5266   24.8793 C   0  0  0  0  0  0  0  0  0  0  0  0
  -19.9788  -28.6052   18.7200 C   0  0  0  0  0  0  0  0  0  0  0  0
  -21.6650  -29.9422   23.2149 C   0  0  1  0  0  0  0  0  0  0  0  0
  -18.8391  -28.8709   20.9266 C   0  0  2  0  0  0  0  0  0  0  0  0
  -21.4068  -30.2125   24.7241 C   0  0  0  0  0  0  0  0  0  0  0  0
  -25.9720  -11.4284   20.4918 N   0  0  0  0  0  0  0  0  0  0  0  0
  -26.5390  -11.4499   19.2736 N   0  0  0  0  0  0  0  0  0  0  0  0
  -27.0443  -21.6128   19.6962 N   0  0  0  0  0  0  0  0  0  0  0  0
  -23.7320  -30.5922   22.0197 N   0  0  0  0  0  0  0  0  0  0  0  0
  -29.1773  -14.1672   19.7625 N   0  0  0  0  0  0  0  0  0  0  0  0
  -26.2771  -10.6647   17.0542 N   0  0  0  0  0  0  0  0  0  0  0  0
  -22.6788   -8.9674   19.1913 N   0  0  0  0  0  0  0  0  0  0  0  0
  -28.1059  -16.1640   19.1087 N   0  0  0  0  0  0  0  0  0  0  0  0
  -25.6250  -33.1165   23.2088 N   0  0  0  0  0  0  0  0  0  0  0  0
  -20.4527  -29.8487   22.4087 N   0  0  0  0  0  0  0  0  0  0  0  0
  -18.8959  -28.1444   19.6267 N   0  3  0  0  0  0  0  0  0  0  0  0
  -24.7813  -22.0992   19.1844 O   0  0  0  0  0  0  0  0  0  0  0  0
  -23.7663   -9.0780   17.1754 O   0  0  0  0  0  0  0  0  0  0  0  0
  -26.3652  -30.9125   23.0797 O   0  0  0  0  0  0  0  0  0  0  0  0
  -22.1125  -32.1788   22.5641 O   0  0  0  0  0  0  0  0  0  0  0  0
  -20.8427  -27.7068   21.6104 O   0  0  0  0  0  0  0  0  0  0  0  0
  -30.4206  -16.0264   19.1781 O   0  0  0  0  0  0  0  0  0  0  0  0
  -21.4123   -9.6637   24.5715 O   0  0  0  0  0  0  0  0  0  0  0  0
  -27.2384  -25.8616   20.1816 O   0  0  0  0  0  0  0  0  0  1  0  0
  -19.6013   -4.4972   25.2284 F   0  0  0  0  0  0  0  0  0  0  0  0
  -29.5580  -20.5949   20.2417 F   0  0  0  0  0  0  0  0  0  0  0  0
  -21.9278   -8.2654   26.8999 F   0  0  0  0  0  0  0  0  0  0  0  0
  1  2  1  0  0  0  0
  1  5  2  0  0  0  0
  2  6  2  0  0  0  0
  3 10  2  0  0  0  0
  3 18  1  0  0  0  0
  4 11  1  0  0  0  0
  4 18  2  0  0  0  0
  5 20  1  0  0  0  0
  6 22  1  0  0  0  0
  7 12  2  0  0  0  0
  7 21  1  0  0  0  0
  8  9  2  0  0  0  0
  8 24  1  0  0  0  0
  9 25  1  0  0  0  0
 10 26  1  0  0  0  0
 11 26  2  0  0  0  0
 12 27  1  0  0  0  0
 13 14  2  0  0  0  0
 13 28  1  0  0  0  0
 14 29  1  0  0  0  0
 15 23  1  0  0  0  0
 15 27  2  0  0  0  0
 16 25  2  0  0  0  0
 16 30  1  0  0  0  0
 17 29  2  0  0  0  0
 17 31  1  0  0  0  0
 18 32  1  0  0  0  0
 19 32  1  0  0  0  0
 19 33  2  0  0  0  0
 19 37  1  0  0  0  0
 20 22  2  0  0  0  0
 20 42  1  0  0  0  0
 21 23  2  0  0  0  0
 21 43  1  0  0  0  0
 22 52  1  0  0  0  0
 23 44  1  0  0  0  0
 24 30  2  0  0  0  0
 24 65  1  0  0  0  0
 25 70  1  0  0  0  0
 26 80  1  0  0  0  0
 27 81  1  0  0  0  0
 28 31  2  0  0  0  0
 28 80  1  0  0  0  0
 29 82  1  0  0  0  0
 30 83  1  0  0  0  0
 31 84  1  0  0  0  0
 32 63  2  0  0  0  0
 33 64  1  0  0  0  0
 33 68  1  0  0  0  0
 34 35  1  0  0  0  0
 34 36  2  0  0  0  0
 34 45  1  0  0  0  0
 35 65  1  0  0  0  0
 35 74  2  0  0  0  0
 36 81  1  0  0  0  0
 37 69  1  0  0  0  0
 37 75  2  0  0  0  0
 38 53  1  0  0  0  0
 38 71  1  0  0  0  0
 38 76  2  0  0  0  0
 39 60  1  0  0  0  0
 39 66  1  0  0  0  0
 39 77  2  0  0  0  0
 40 61  1  0  0  0  0
 40 72  1  0  0  0  0
 40 78  2  0  0  0  0
 41 67  1  0  0  0  0
 41 70  1  0  0  0  0
 41 79  2  0  0  0  0
 42 46  1  0  0  0  0
 43 53  1  0  0  0  0
 44 66  1  0  0  0  0
 45 65  1  0  0  0  0
 46 48  1  0  0  0  0
 47 49  1  0  0  0  0
 47 50  1  0  0  0  0
 48 52  1  0  0  0  0
 49 54  1  0  0  0  0
 50 67  1  0  0  0  0
 51 54  1  0  0  0  0
 51 67  1  0  0  0  0
 52 71  1  0  0  0  0
 53 66  1  0  0  0  0
 54 64  1  0  0  0  0
 55 61  1  0  0  0  0
 56 62  1  0  0  0  0
 57 62  1  0  0  0  0
 58 62  1  0  0  0  0
 59 73  1  0  0  0  0
 60 62  1  0  0  0  0
 60 72  1  0  0  0  0
 61 73  1  0  0  0  0
 63 64  1  0  0  0  0
M  CHG  1  73   1
M  ISO  4  36 101  41 100  70 100  81 101
M  END
> <Batch ID>
0084

> <Smiles>
CNC(C)C(=O)NC(C(=O)N1Cc2cc([101O:1][101CH:1]=C3CN(c4ccc([100NH:0][100C:0](=O)N5CCCC(n6nc(-c7ccc(Oc8ccc(F)cc8F)cc7)c(C(N)=O)c6N)C5)cc4F)C3=O)ccc2CC1C(=O)NC1CCCc2ccccc21)C(C)(C)C

> <Shape>
0.297

> <Color>
0.088

> <Negative vol penalty>
0.000

$$$$

  -OEChem-04052300123D

 85 94  0     1  0  0  0  0  0999 V2000
  -27.5888  -36.7401   27.0602 C   0  0  0  0  0  0  0  0  0  0  0  0
  -28.3775  -35.8655   26.3197 C   0  0  0  0  0  0  0  0  0  0  0  0
  -23.2683  -10.3768   21.4638 C   0  0  0  0  0  0  0  0  0  0  0  0
  -24.8474   -8.6658   22.1086 C   0  0  0  0  0  0  0  0  0  0  0  0
  -26.2526  -36.4304   27.3104 C   0  0  0  0  0  0  0  0  0  0  0  0
  -27.8306  -34.6799   25.8298 C   0  0  0  0  0  0  0  0  0  0  0  0
  -28.3025  -30.1957   20.2634 C   0  0  0  0  0  0  0  0  0  0  0  0
  -28.8089  -20.4321   21.6684 C   0  0  0  0  0  0  0  0  0  0  0  0
  -28.9618  -19.0467   21.6150 C   0  0  0  0  0  0  0  0  0  0  0  0
  -22.2868   -9.4026   21.2822 C   0  0  0  0  0  0  0  0  0  0  0  0
  -23.8658   -7.6915   21.9271 C   0  0  0  0  0  0  0  0  0  0  0  0
  -28.4822  -28.8418   19.9832 C   0  0  0  0  0  0  0  0  0  0  0  0
  -21.1983   -6.4989   23.6249 C   0  0  0  0  0  0  0  0  0  0  0  0
  -21.0705   -5.5187   24.6089 C   0  0  0  0  0  0  0  0  0  0  0  0
  -26.1408  -28.4489   20.4104 C   0  0  0  0  0  0  0  0  0  0  0  0
  -28.6230  -19.1014   19.2235 C   0  0  0  0  0  0  0  0  0  0  0  0
  -21.5470   -3.8099   22.9688 C   0  0  0  0  0  0  0  0  0  0  0  0
  -24.5487  -10.0084   21.8769 C   0  0  0  0  0  0  0  0  0  0  0  0
  -25.8493  -11.7235   23.2460 C   0  0  0  0  0  0  0  0  0  0  0  0
  -25.6865  -35.2450   26.8152 C   0  0  0  0  0  0  0  0  0  0  0  0
  -27.0408  -30.6853   20.6304 C   0  0  0  0  0  0  0  0  0  0  0  0
  -26.4860  -34.3534   26.0748 C   0  0  0  0  0  0  0  0  0  0  0  0
  -25.9472  -29.8098   20.6923 C   0  0  0  0  0  0  0  0  0  0  0  0
  -28.5629  -21.1522   20.4993 C   0  0  0  0  0  0  0  0  0  0  0  0
  -28.8689  -18.3813   20.3926 C   0  0  0  0  0  0  0  0  0  0  0  0
  -22.5855   -8.0599   21.5139 C   0  0  0  0  0  0  0  0  0  0  0  0
  -27.4019  -27.9677   20.0595 C   0  0  0  0  0  0  0  0  0  0  0  0
  -21.5005   -6.1346   22.3127 C   0  0  0  0  0  0  0  0  0  0  0  0
  -21.2448   -4.1742   24.2809 C   0  0  0  0  0  0  0  0  0  0  0  0
  -28.4700  -20.4868   19.2769 C   0  0  0  0  0  0  0  0  0  0  0  0
  -21.6749   -4.7901   21.9847 C   0  0  0  0  0  0  0  0  0  0  0  0
  -25.5632  -11.0143   22.0641 C   0  0  0  0  0  0  0  0  0  0  0  0
  -26.8892  -12.5535   22.9052 C   0  0  0  0  0  0  0  0  0  0  0  0
  -28.1005  -24.4914   20.6677 C   0  0  0  0  0  0  0  0  0  0  0  0
  -28.4526  -23.4037   21.5812 C   0  0  0  0  0  0  0  0  0  0  0  0
  -27.9055  -25.8139   20.8198 C   0  0  0  0  0  0  0  0  0  1  0  0
  -25.2305  -11.6394   24.5366 C   0  0  0  0  0  0  0  0  0  0  0  0
  -25.8496  -32.1036   23.2137 C   0  0  0  0  0  0  0  0  0  0  0  0
  -23.2042  -32.3906   21.3585 C   0  0  0  0  0  0  0  0  0  0  0  0
  -21.3868  -31.2447   18.7069 C   0  0  0  0  0  0  0  0  0  0  0  0
  -28.9386  -16.2460   19.1157 C   0  0  0  0  0  0  0  0  0  0  0  0
  -24.2504  -34.9306   27.1517 C   0  0  0  0  0  0  0  0  0  0  0  0
  -26.8579  -32.1530   20.9035 C   0  0  0  0  0  0  0  0  0  0  0  0
  -24.5679  -30.2888   21.0619 C   0  0  0  0  0  0  0  0  0  0  0  0
  -28.0577  -23.4905   19.5359 C   0  0  0  0  0  0  0  0  0  0  0  0
  -23.6466  -33.8332   26.2791 C   0  0  0  0  0  0  0  0  0  0  0  0
  -29.8138  -12.6768   18.7912 C   0  0  0  0  0  0  0  0  0  0  0  0
  -24.6045  -32.6513   26.1687 C   0  0  0  0  0  0  0  0  0  0  0  0
  -28.7636  -11.9883   19.6612 C   0  0  0  0  0  0  0  0  0  0  0  0
  -29.2871  -13.9756   18.1880 C   0  0  0  0  0  0  0  0  0  0  0  0
  -27.6992  -14.2436   20.0687 C   0  0  0  0  0  0  0  0  0  0  0  0
  -25.9224  -33.0695   25.5055 C   0  0  1  0  0  0  0  0  0  0  0  0
  -25.6369  -32.4524   21.7677 C   0  0  1  0  0  0  0  0  0  0  0  0
  -28.2141  -12.9539   20.7255 C   0  0  1  0  0  0  0  0  0  0  0  0
  -19.2496  -31.6573   17.4580 C   0  0  0  0  0  0  0  0  0  0  0  0
  -21.6346  -31.0537   23.6077 C   0  0  0  0  0  0  0  0  0  0  0  0
  -19.7838  -30.6365   21.9740 C   0  0  0  0  0  0  0  0  0  0  0  0
  -20.4627  -32.9748   22.5166 C   0  0  0  0  0  0  0  0  0  0  0  0
  -29.5237  -16.2518   21.5297 C   0  0  0  0  0  0  0  0  0  0  0  0
  -22.8339  -31.8406   16.1950 C   0  0  0  0  0  0  0  0  0  0  0  0
  -21.9848  -31.5401   21.0964 C   0  0  1  0  0  0  0  0  0  0  0  0
  -20.7354  -31.9702   17.5434 C   0  0  2  0  0  0  0  0  0  0  0  0
  -20.9927  -31.5416   22.2936 C   0  0  0  0  0  0  0  0  0  0  0  0
  -26.3571  -11.3634   21.0483 N   0  0  0  0  0  0  0  0  0  0  0  0
  -27.1522  -12.3011   21.5910 N   0  0  0  0  0  0  0  0  0  0  0  0
  -28.4124  -22.5184   20.5548 N   0  0  0  0  0  0  0  0  0  0  0  0
  -24.4413  -31.7316   21.3260 N   0  0  0  0  0  0  0  0  0  0  0  0
  -28.7292  -14.8559   19.2154 N   0  0  0  0  0  0  0  0  0  0  0  0
  -27.5950  -13.4674   23.6045 N   0  0  0  0  0  0  0  0  0  0  0  0
  -24.1756  -10.7338   24.7141 N   0  0  0  0  0  0  0  0  0  0  0  0
  -25.7538  -33.1818   24.0725 N   0  0  0  0  0  0  0  0  0  0  0  0
  -21.4116  -32.0231   19.8448 N   0  0  0  0  0  0  0  0  0  0  0  0
  -29.0273  -16.9472   20.3377 N   0  0  0  0  0  0  0  0  0  0  0  0
  -21.3750  -31.5681   16.2588 N   0  3  0  0  0  0  0  0  0  0  0  0
  -28.6762  -23.3182   22.7708 O   0  0  0  0  0  0  0  0  0  0  0  0
  -25.5911  -12.3581   25.4994 O   0  0  0  0  0  0  0  0  0  0  0  0
  -26.0818  -30.9419   23.5271 O   0  0  0  0  0  0  0  0  0  0  0  0
  -23.0647  -33.5967   21.5767 O   0  0  0  0  0  0  0  0  0  0  0  0
  -21.8261  -30.1004   18.6165 O   0  0  0  0  0  0  0  0  0  0  0  0
  -29.0659  -16.8099   18.0223 O   0  0  0  0  0  0  0  0  0  0  0  0
  -21.6279   -7.1090   21.3370 O   0  0  0  0  0  0  0  0  0  0  0  0
  -27.5746  -26.6456   19.7872 O   0  0  0  0  0  0  0  0  0  1  0  0
  -21.1235   -3.2331   25.2264 F   0  0  0  0  0  0  0  0  0  0  0  0
  -28.2333  -21.1686   18.1468 F   0  0  0  0  0  0  0  0  0  0  0  0
  -21.9664   -4.4342   20.7261 F   0  0  0  0  0  0  0  0  0  0  0  0
  1  2  1  0  0  0  0
  1  5  2  0  0  0  0
  2  6  2  0  0  0  0
  3 10  2  0  0  0  0
  3 18  1  0  0  0  0
  4 11  1  0  0  0  0
  4 18  2  0  0  0  0
  5 20  1  0  0  0  0
  6 22  1  0  0  0  0
  7 12  2  0  0  0  0
  7 21  1  0  0  0  0
  8  9  2  0  0  0  0
  8 24  1  0  0  0  0
  9 25  1  0  0  0  0
 10 26  1  0  0  0  0
 11 26  2  0  0  0  0
 12 27  1  0  0  0  0
 13 14  2  0  0  0  0
 13 28  1  0  0  0  0
 14 29  1  0  0  0  0
 15 23  1  0  0  0  0
 15 27  2  0  0  0  0
 16 25  2  0  0  0  0
 16 30  1  0  0  0  0
 17 29  2  0  0  0  0
 17 31  1  0  0  0  0
 18 32  1  0  0  0  0
 19 32  1  0  0  0  0
 19 33  2  0  0  0  0
 19 37  1  0  0  0  0
 20 22  2  0  0  0  0
 20 42  1  0  0  0  0
 21 23  2  0  0  0  0
 21 43  1  0  0  0  0
 22 52  1  0  0  0  0
 23 44  1  0  0  0  0
 24 30  2  0  0  0  0
 24 66  1  0  0  0  0
 25 73  1  0  0  0  0
 26 81  1  0  0  0  0
 27 82  1  0  0  0  0
 28 31  2  0  0  0  0
 28 81  1  0  0  0  0
 29 83  1  0  0  0  0
 30 84  1  0  0  0  0
 31 85  1  0  0  0  0
 32 64  2  0  0  0  0
 33 65  1  0  0  0  0
 33 69  1  0  0  0  0
 34 35  1  0  0  0  0
 34 36  2  0  0  0  0
 34 45  1  0  0  0  0
 35 66  1  0  0  0  0
 35 75  2  0  0  0  0
 36 82  1  0  0  0  0
 37 70  1  0  0  0  0
 37 76  2  0  0  0  0
 38 53  1  0  0  0  0
 38 71  1  0  0  0  0
 38 77  2  0  0  0  0
 39 61  1  0  0  0  0
 39 67  1  0  0  0  0
 39 78  2  0  0  0  0
 40 62  1  0  0  0  0
 40 72  1  0  0  0  0
 40 79  2  0  0  0  0
 41 68  1  0  0  0  0
 41 73  1  0  0  0  0
 41 80  2  0  0  0  0
 42 46  1  0  0  0  0
 43 53  1  0  0  0  0
 44 67  1  0  0  0  0
 45 66  1  0  0  0  0
 46 48  1  0  0  0  0
 47 49  1  0  0  0  0
 47 50  1  0  0  0  0
 48 52  1  0  0  0  0
 49 54  1  0  0  0  0
 50 68  1  0  0  0  0
 51 54  1  0  0  0  0
 51 68  1  0  0  0  0
 52 71  1  0  0  0  0
 53 67  1  0  0  0  0
 54 65  1  0  0  0  0
 55 62  1  0  0  0  0
 56 63  1  0  0  0  0
 57 63  1  0  0  0  0
 58 63  1  0  0  0  0
 59 73  1  0  0  0  0
 60 74  1  0  0  0  0
 61 63  1  0  0  0  0
 61 72  1  0  0  0  0
 62 74  1  0  0  0  0
 64 65  1  0  0  0  0
M  CHG  1  74   1
M  ISO  4  36 101  41 100  73 100  82 101
M  END
> <Batch ID>
0084

> <Smiles>
CNC(C)C(=O)NC(C(=O)N1Cc2cc([101O:1][101CH:1]=C3CN(c4ccc([100N:0](C)[100C:0](=O)N5CCCC(n6nc(-c7ccc(Oc8ccc(F)cc8F)cc7)c(C(N)=O)c6N)C5)cc4F)C3=O)ccc2CC1C(=O)NC1CCCc2ccccc21)C(C)(C)C

> <Shape>
0.306

> <Color>
0.097

> <Negative vol penalty>
0.000

$$$$

  -OEChem-04052300123D

 84 93  0     1  0  0  0  0  0999 V2000
  -27.3783  -37.7506   23.8460 C   0  0  0  0  0  0  0  0  0  0  0  0
  -27.9648  -36.8071   23.0086 C   0  0  0  0  0  0  0  0  0  0  0  0
  -24.1859   -9.2995   22.2135 C   0  0  0  0  0  0  0  0  0  0  0  0
  -22.9231  -11.2834   21.6598 C   0  0  0  0  0  0  0  0  0  0  0  0
  -26.4957  -37.3416   24.8447 C   0  0  0  0  0  0  0  0  0  0  0  0
  -27.6698  -35.4538   23.1702 C   0  0  0  0  0  0  0  0  0  0  0  0
  -26.9110  -29.4153   19.3918 C   0  0  0  0  0  0  0  0  0  0  0  0
  -26.2998  -19.4060   19.1256 C   0  0  0  0  0  0  0  0  0  0  0  0
  -26.5644  -18.0444   18.9786 C   0  0  0  0  0  0  0  0  0  0  0  0
  -23.3208   -9.0459   23.2778 C   0  0  0  0  0  0  0  0  0  0  0  0
  -22.0579  -11.0298   22.7241 C   0  0  0  0  0  0  0  0  0  0  0  0
  -27.3662  -28.0978   19.3639 C   0  0  0  0  0  0  0  0  0  0  0  0
  -20.2302   -7.7480   23.7209 C   0  0  0  0  0  0  0  0  0  0  0  0
  -19.7721   -6.4410   23.8866 C   0  0  0  0  0  0  0  0  0  0  0  0
  -25.7657  -27.5151   21.0721 C   0  0  0  0  0  0  0  0  0  0  0  0
  -28.8456  -18.4116   19.6847 C   0  0  0  0  0  0  0  0  0  0  0  0
  -20.7712   -6.3696   26.0852 C   0  0  0  0  0  0  0  0  0  0  0  0
  -23.9871  -10.4183   21.4045 C   0  0  0  0  0  0  0  0  0  0  0  0
  -24.7521  -10.2291   18.9782 C   0  0  0  0  0  0  0  0  0  0  0  0
  -26.1822  -35.9836   25.0125 C   0  0  0  0  0  0  0  0  0  0  0  0
  -25.8855  -29.7956   20.2693 C   0  0  0  0  0  0  0  0  0  0  0  0
  -26.7831  -35.0262   24.1730 C   0  0  0  0  0  0  0  0  0  0  0  0
  -25.2975  -28.8374   21.1073 C   0  0  0  0  0  0  0  0  0  0  0  0
  -27.3081  -20.2704   19.5521 C   0  0  0  0  0  0  0  0  0  0  0  0
  -27.8373  -17.5472   19.2582 C   0  0  0  0  0  0  0  0  0  0  0  0
  -22.2568   -9.9110   23.5331 C   0  0  0  0  0  0  0  0  0  0  0  0
  -26.7956  -27.1481   20.2062 C   0  0  0  0  0  0  0  0  0  0  0  0
  -20.9588   -8.3658   24.7373 C   0  0  0  0  0  0  0  0  0  0  0  0
  -20.0426   -5.7518   25.0688 C   0  0  0  0  0  0  0  0  0  0  0  0
  -28.5810  -19.7732   19.8317 C   0  0  0  0  0  0  0  0  0  0  0  0
  -21.2293   -7.6766   25.9194 C   0  0  0  0  0  0  0  0  0  0  0  0
  -24.8808  -10.6812   20.3052 C   0  0  0  0  0  0  0  0  0  0  0  0
  -25.8475  -10.7468   18.3314 C   0  0  0  0  0  0  0  0  0  0  0  0
  -26.6694  -23.5750   19.8071 C   0  0  0  0  0  0  0  0  0  0  0  0
  -25.9252  -22.3530   19.4998 C   0  0  0  0  0  0  0  0  0  0  0  0
  -26.3437  -24.8791   19.8622 C   0  0  0  0  0  0  0  0  0  1  0  0
  -23.7334   -9.4141   18.3835 C   0  0  0  0  0  0  0  0  0  0  0  0
  -25.6518  -31.8329   22.6980 C   0  0  0  0  0  0  0  0  0  0  0  0
  -22.5157  -31.0131   22.5759 C   0  0  0  0  0  0  0  0  0  0  0  0
  -20.1531  -28.7222   21.6721 C   0  0  0  0  0  0  0  0  0  0  0  0
  -29.3136  -15.5077   19.3439 C   0  0  0  0  0  0  0  0  0  0  0  0
  -25.2589  -35.5851   26.1365 C   0  0  0  0  0  0  0  0  0  0  0  0
  -25.3875  -31.2149   20.2681 C   0  0  0  0  0  0  0  0  0  0  0  0
  -24.1798  -29.1901   22.0533 C   0  0  0  0  0  0  0  0  0  0  0  0
  -27.9078  -22.7348   20.0196 C   0  0  0  0  0  0  0  0  0  0  0  0
  -24.7098  -34.1674   26.0001 C   0  0  0  0  0  0  0  0  0  0  0  0
  -30.3676  -12.1136   19.1285 C   0  0  0  0  0  0  0  0  0  0  0  0
  -25.8291  -33.1929   25.6477 C   0  0  0  0  0  0  0  0  0  0  0  0
  -29.0676  -11.3201   19.2790 C   0  0  0  0  0  0  0  0  0  0  0  0
  -30.3753  -13.3618   20.0093 C   0  0  0  0  0  0  0  0  0  0  0  0
  -27.9134  -13.4510   19.9957 C   0  0  0  0  0  0  0  0  0  0  0  0
  -26.4690  -33.5514   24.3010 C   0  0  1  0  0  0  0  0  0  0  0  0
  -24.6890  -31.6041   21.5674 C   0  0  1  0  0  0  0  0  0  0  0  0
  -27.8320  -12.2195   19.0791 C   0  0  2  0  0  0  0  0  0  0  0  0
  -17.6776  -28.3154   21.7361 C   0  0  0  0  0  0  0  0  0  0  0  0
  -22.7064  -30.3347   25.5446 C   0  0  0  0  0  0  0  0  0  0  0  0
  -20.5556  -29.0725   25.3230 C   0  0  0  0  0  0  0  0  0  0  0  0
  -20.6109  -31.5266   24.8793 C   0  0  0  0  0  0  0  0  0  0  0  0
  -19.9788  -28.6052   18.7200 C   0  0  0  0  0  0  0  0  0  0  0  0
  -21.6650  -29.9422   23.2149 C   0  0  1  0  0  0  0  0  0  0  0  0
  -18.8391  -28.8709   20.9266 C   0  0  2  0  0  0  0  0  0  0  0  0
  -21.4068  -30.2125   24.7241 C   0  0  0  0  0  0  0  0  0  0  0  0
  -25.9720  -11.4284   20.4918 N   0  0  0  0  0  0  0  0  0  0  0  0
  -26.5390  -11.4499   19.2736 N   0  0  0  0  0  0  0  0  0  0  0  0
  -27.0443  -21.6128   19.6962 N   0  0  0  0  0  0  0  0  0  0  0  0
  -23.7320  -30.5922   22.0197 N   0  0  0  0  0  0  0  0  0  0  0  0
  -29.1773  -14.1672   19.7625 N   0  0  0  0  0  0  0  0  0  0  0  0
  -26.2771  -10.6647   17.0542 N   0  0  0  0  0  0  0  0  0  0  0  0
  -22.6788   -8.9674   19.1913 N   0  0  0  0  0  0  0  0  0  0  0  0
  -28.1059  -16.1640   19.1087 N   0  0  0  0  0  0  0  0  0  0  0  0
  -25.6250  -33.1165   23.2088 N   0  0  0  0  0  0  0  0  0  0  0  0
  -20.4527  -29.8487   22.4087 N   0  0  0  0  0  0  0  0  0  0  0  0
  -18.8959  -28.1444   19.6267 N   0  3  0  0  0  0  0  0  0  0  0  0
  -24.7813  -22.0992   19.1844 O   0  0  0  0  0  0  0  0  0  0  0  0
  -23.7663   -9.0780   17.1754 O   0  0  0  0  0  0  0  0  0  0  0  0
  -26.3652  -30.9125   23.0797 O   0  0  0  0  0  0  0  0  0  0  0  0
  -22.1125  -32.1788   22.5641 O   0  0  0  0  0  0  0  0  0  0  0  0
  -20.8427  -27.7068   21.6104 O   0  0  0  0  0  0  0  0  0  0  0  0
  -30.4206  -16.0264   19.1781 O   0  0  0  0  0  0  0  0  0  0  0  0
  -21.4123   -9.6637   24.5715 O   0  0  0  0  0  0  0  0  0  0  0  0
  -27.2384  -25.8616   20.1816 O   0  0  0  0  0  0  0  0  0  1  0  0
  -19.6013   -4.4972   25.2284 F   0  0  0  0  0  0  0  0  0  0  0  0
  -29.5580  -20.5949   20.2417 F   0  0  0  0  0  0  0  0  0  0  0  0
  -21.9278   -8.2654   26.8999 F   0  0  0  0  0  0  0  0  0  0  0  0
  1  2  1  0  0  0  0
  1  5  2  0  0  0  0
  2  6  2  0  0  0  0
  3 10  2  0  0  0  0
  3 18  1  0  0  0  0
  4 11  1  0  0  0  0
  4 18  2  0  0  0  0
  5 20  1  0  0  0  0
  6 22  1  0  0  0  0
  7 12  2  0  0  0  0
  7 21  1  0  0  0  0
  8  9  2  0  0  0  0
  8 24  1  0  0  0  0
  9 25  1  0  0  0  0
 10 26  1  0  0  0  0
 11 26  2  0  0  0  0
 12 27  1  0  0  0  0
 13 14  2  0  0  0  0
 13 28  1  0  0  0  0
 14 29  1  0  0  0  0
 15 23  1  0  0  0  0
 15 27  2  0  0  0  0
 16 25  2  0  0  0  0
 16 30  1  0  0  0  0
 17 29  2  0  0  0  0
 17 31  1  0  0  0  0
 18 32  1  0  0  0  0
 19 32  1  0  0  0  0
 19 33  2  0  0  0  0
 19 37  1  0  0  0  0
 20 22  2  0  0  0  0
 20 42  1  0  0  0  0
 21 23  2  0  0  0  0
 21 43  1  0  0  0  0
 22 52  1  0  0  0  0
 23 44  1  0  0  0  0
 24 30  2  0  0  0  0
 24 65  1  0  0  0  0
 25 70  1  0  0  0  0
 26 80  1  0  0  0  0
 27 81  1  0  0  0  0
 28 31  2  0  0  0  0
 28 80  1  0  0  0  0
 29 82  1  0  0  0  0
 30 83  1  0  0  0  0
 31 84  1  0  0  0  0
 32 63  2  0  0  0  0
 33 64  1  0  0  0  0
 33 68  1  0  0  0  0
 34 35  1  0  0  0  0
 34 36  2  0  0  0  0
 34 45  1  0  0  0  0
 35 65  1  0  0  0  0
 35 74  2  0  0  0  0
 36 81  1  0  0  0  0
 37 69  1  0  0  0  0
 37 75  2  0  0  0  0
 38 53  1  0  0  0  0
 38 71  1  0  0  0  0
 38 76  2  0  0  0  0
 39 60  1  0  0  0  0
 39 66  1  0  0  0  0
 39 77  2  0  0  0  0
 40 61  1  0  0  0  0
 40 72  1  0  0  0  0
 40 78  2  0  0  0  0
 41 67  1  0  0  0  0
 41 70  1  0  0  0  0
 41 79  2  0  0  0  0
 42 46  1  0  0  0  0
 43 53  1  0  0  0  0
 44 66  1  0  0  0  0
 45 65  1  0  0  0  0
 46 48  1  0  0  0  0
 47 49  1  0  0  0  0
 47 50  1  0  0  0  0
 48 52  1  0  0  0  0
 49 54  1  0  0  0  0
 50 67  1  0  0  0  0
 51 54  1  0  0  0  0
 51 67  1  0  0  0  0
 52 71  1  0  0  0  0
 53 66  1  0  0  0  0
 54 64  1  0  0  0  0
 55 61  1  0  0  0  0
 56 62  1  0  0  0  0
 57 62  1  0  0  0  0
 58 62  1  0  0  0  0
 59 73  1  0  0  0  0
 60 62  1  0  0  0  0
 60 72  1  0  0  0  0
 61 73  1  0  0  0  0
 63 64  1  0  0  0  0
M  CHG  1  73   1
M  ISO  4  36 101  41 100  70 100  81 101
M  END
> <Batch ID>
0084

> <Smiles>
CNC(C)C(=O)NC(C(=O)N1Cc2cc([101O:1][101CH:1]=C3CN(c4ccc([100NH:0][100C:0](=O)N5CCCC(n6nc(-c7ccc(Oc8ccc(F)cc8F)cc7)c(C(N)=O)c6N)C5)cc4F)C3=O)ccc2CC1C(=O)NC1CCCc2ccccc21)C(C)(C)C

> <Shape>
0.297

> <Color>
0.088

> <Negative vol penalty>
0.000

$$$$

  -OEChem-04052300123D

 85 94  0     1  0  0  0  0  0999 V2000
  -16.6157  -28.6044   23.4076 C   0  0  0  0  0  0  0  0  0  0  0  0
  -17.2270  -28.8921   22.1915 C   0  0  0  0  0  0  0  0  0  0  0  0
  -27.2164  -14.7090   20.7516 C   0  0  0  0  0  0  0  0  0  0  0  0
  -26.8233  -16.6929   19.4300 C   0  0  0  0  0  0  0  0  0  0  0  0
  -17.2044  -29.0253   24.5993 C   0  0  0  0  0  0  0  0  0  0  0  0
  -18.4270  -29.6021   22.1663 C   0  0  0  0  0  0  0  0  0  0  0  0
  -25.3034  -27.6910   18.9901 C   0  0  0  0  0  0  0  0  0  0  0  0
  -31.4090  -26.2581   20.1903 C   0  0  0  0  0  0  0  0  0  0  0  0
  -31.0687  -25.1494   20.9652 C   0  0  0  0  0  0  0  0  0  0  0  0
  -26.0342  -14.1508   20.2653 C   0  0  0  0  0  0  0  0  0  0  0  0
  -25.6412  -16.1347   18.9436 C   0  0  0  0  0  0  0  0  0  0  0  0
  -26.6116  -27.3953   18.6061 C   0  0  0  0  0  0  0  0  0  0  0  0
  -24.7367  -13.8604   16.6134 C   0  0  0  0  0  0  0  0  0  0  0  0
  -24.4885  -13.9629   15.2447 C   0  0  0  0  0  0  0  0  0  0  0  0
  -27.4606  -28.8662   20.3277 C   0  0  0  0  0  0  0  0  0  0  0  0
  -30.9951  -24.9814   18.1815 C   0  0  0  0  0  0  0  0  0  0  0  0
  -22.4569  -15.1869   15.7047 C   0  0  0  0  0  0  0  0  0  0  0  0
  -27.6109  -15.9801   20.3340 C   0  0  0  0  0  0  0  0  0  0  0  0
  -30.1347  -16.0421   20.7006 C   0  0  0  0  0  0  0  0  0  0  0  0
  -18.4171  -29.7324   24.5893 C   0  0  0  0  0  0  0  0  0  0  0  0
  -25.0688  -28.5645   20.0556 C   0  0  0  0  0  0  0  0  0  0  0  0
  -19.0317  -30.0340   23.3590 C   0  0  0  0  0  0  0  0  0  0  0  0
  -26.1526  -29.1564   20.7248 C   0  0  0  0  0  0  0  0  0  0  0  0
  -30.6548  -23.8725   18.9563 C   0  0  0  0  0  0  0  0  0  0  0  0
  -31.3721  -26.1742   18.7985 C   0  0  0  0  0  0  0  0  0  0  0  0
  -30.6916  -23.9566   20.3482 C   0  0  0  0  0  0  0  0  0  0  0  0
  -25.2466  -14.8636   19.3613 C   0  0  0  0  0  0  0  0  0  0  0  0
  -27.6875  -27.9817   19.2732 C   0  0  0  0  0  0  0  0  0  0  0  0
  -23.8449  -14.4211   17.5278 C   0  0  0  0  0  0  0  0  0  0  0  0
  -23.3486  -14.6262   14.7903 C   0  0  0  0  0  0  0  0  0  0  0  0
  -22.7051  -15.0843   17.0735 C   0  0  0  0  0  0  0  0  0  0  0  0
  -28.8317  -16.5575   20.8364 C   0  0  0  0  0  0  0  0  0  0  0  0
  -30.9336  -16.9539   21.3463 C   0  0  0  0  0  0  0  0  0  0  0  0
  -31.0368  -28.5336   18.0742 C   0  0  0  0  0  0  0  0  0  0  0  0
  -29.7610  -28.7091   18.4705 C   0  0  0  0  0  0  0  0  0  1  0  0
  -30.5829  -14.8462   20.0489 C   0  0  0  0  0  0  0  0  0  0  0  0
  -22.5429  -30.2810   22.2348 C   0  0  0  0  0  0  0  0  0  0  0  0
  -24.8431  -29.3983   24.0623 C   0  0  0  0  0  0  0  0  0  0  0  0
  -27.3715  -27.8918   25.7873 C   0  0  0  0  0  0  0  0  0  0  0  0
  -30.3364  -22.7771   22.5457 C   0  0  0  0  0  0  0  0  0  0  0  0
  -18.9911  -30.2077   25.9004 C   0  0  0  0  0  0  0  0  0  0  0  0
  -23.6755  -28.9594   20.4636 C   0  0  0  0  0  0  0  0  0  0  0  0
  -25.8520  -30.1169   21.8428 C   0  0  0  0  0  0  0  0  0  0  0  0
  -31.8075  -29.7601   17.6262 C   0  0  0  0  0  0  0  0  0  0  0  0
  -20.4553  -30.6294   25.8072 C   0  0  0  0  0  0  0  0  0  0  0  0
  -32.6672  -29.4911   16.3981 C   0  0  0  0  0  0  0  0  0  0  0  0
  -33.5655  -28.2914   16.6518 C   0  0  0  0  0  0  0  0  0  0  0  0
  -30.8392  -20.1578   24.9045 C   0  0  0  0  0  0  0  0  0  0  0  0
  -20.6768  -31.5239   24.5917 C   0  0  0  0  0  0  0  0  0  0  0  0
  -30.5059  -18.8899   24.1148 C   0  0  0  0  0  0  0  0  0  0  0  0
  -32.7427  -27.0484   16.9765 C   0  0  0  0  0  0  0  0  0  0  0  0
  -29.9286  -21.3221   24.5185 C   0  0  0  0  0  0  0  0  0  0  0  0
  -29.5363  -20.3460   22.2908 C   0  0  0  0  0  0  0  0  0  0  0  0
  -20.3465  -30.7803   23.2919 C   0  0  1  0  0  0  0  0  0  0  0  0
  -23.5306  -29.1806   21.9799 C   0  0  1  0  0  0  0  0  0  0  0  0
  -30.4697  -19.1636   22.5985 C   0  0  2  0  0  0  0  0  0  0  0  0
  -30.2532  -22.6080   18.2687 C   0  0  0  0  0  0  0  0  0  0  0  0
  -28.2554  -27.5803   28.1152 C   0  0  0  0  0  0  0  0  0  0  0  0
  -25.9380  -32.2450   24.0235 C   0  0  0  0  0  0  0  0  0  0  0  0
  -27.5409  -31.5774   25.8271 C   0  0  0  0  0  0  0  0  0  0  0  0
  -25.0839  -31.4856   26.2480 C   0  0  0  0  0  0  0  0  0  0  0  0
  -27.0442  -24.9539   25.6431 C   0  0  0  0  0  0  0  0  0  0  0  0
  -26.1455  -29.7690   24.7254 C   0  0  1  0  0  0  0  0  0  0  0  0
  -27.3626  -27.0110   27.0236 C   0  0  2  0  0  0  0  0  0  0  0  0
  -26.1765  -31.2552   25.1813 C   0  0  0  0  0  0  0  0  0  0  0  0
  -28.8002  -17.7073   21.5153 N   0  0  0  0  0  0  0  0  0  0  0  0
  -30.0932  -17.9220   21.8119 N   0  0  0  0  0  0  0  0  0  0  0  0
  -31.7191  -27.3069   18.0073 N   0  0  0  0  0  0  0  0  0  0  0  0
  -24.7611  -29.5904   22.6778 N   0  0  0  0  0  0  0  0  0  0  0  0
  -29.9481  -21.5253   23.0682 N   0  0  0  0  0  0  0  0  0  0  0  0
  -32.2659  -17.0138   21.5557 N   0  0  0  0  0  0  0  0  0  0  0  0
  -29.6295  -14.0224   19.4351 N   0  0  0  0  0  0  0  0  0  0  0  0
  -30.3480  -22.8420   21.1528 N   0  0  0  0  0  0  0  0  0  0  0  0
  -21.4226  -29.8799   22.9373 N   0  0  0  0  0  0  0  0  0  0  0  0
  -26.3415  -28.8084   25.8058 N   0  0  0  0  0  0  0  0  0  0  0  0
  -27.8458  -25.6418   26.6877 N   0  3  0  0  0  0  0  0  0  0  0  0
  -31.7910  -14.5095   20.0262 O   0  0  0  0  0  0  0  0  0  0  0  0
  -22.7793  -31.4118   21.8259 O   0  0  0  0  0  0  0  0  0  0  0  0
  -23.9200  -28.9555   24.7516 O   0  0  0  0  0  0  0  0  0  0  0  0
  -28.2105  -27.7805   24.8961 O   0  0  0  0  0  0  0  0  0  0  0  0
  -30.6629  -23.7136   23.2795 O   0  0  0  0  0  0  0  0  0  0  0  0
  -24.0931  -14.3192   18.8864 O   0  0  0  0  0  0  0  0  0  0  0  0
  -28.9621  -27.6852   18.8961 O   0  0  0  0  0  0  0  0  0  1  0  0
  -23.1112  -14.7258   13.4758 F   0  0  0  0  0  0  0  0  0  0  0  0
  -21.8453  -15.6260   17.9471 F   0  0  0  0  0  0  0  0  0  0  0  0
  1  2  1  0  0  0  0
  1  5  2  0  0  0  0
  2  6  2  0  0  0  0
  3 10  2  0  0  0  0
  3 18  1  0  0  0  0
  4 11  1  0  0  0  0
  4 18  2  0  0  0  0
  5 20  1  0  0  0  0
  6 22  1  0  0  0  0
  7 12  2  0  0  0  0
  7 21  1  0  0  0  0
  8  9  2  0  0  0  0
  8 25  1  0  0  0  0
  9 26  1  0  0  0  0
 10 27  1  0  0  0  0
 11 27  2  0  0  0  0
 12 28  1  0  0  0  0
 13 14  2  0  0  0  0
 13 29  1  0  0  0  0
 14 30  1  0  0  0  0
 15 23  1  0  0  0  0
 15 28  2  0  0  0  0
 16 24  1  0  0  0  0
 16 25  2  0  0  0  0
 17 30  2  0  0  0  0
 17 31  1  0  0  0  0
 18 32  1  0  0  0  0
 19 32  1  0  0  0  0
 19 33  2  0  0  0  0
 19 36  1  0  0  0  0
 20 22  2  0  0  0  0
 20 41  1  0  0  0  0
 21 23  2  0  0  0  0
 21 42  1  0  0  0  0
 22 54  1  0  0  0  0
 23 43  1  0  0  0  0
 24 26  2  0  0  0  0
 24 57  1  0  0  0  0
 25 68  1  0  0  0  0
 26 73  1  0  0  0  0
 27 82  1  0  0  0  0
 28 83  1  0  0  0  0
 29 31  2  0  0  0  0
 29 82  1  0  0  0  0
 30 84  1  0  0  0  0
 31 85  1  0  0  0  0
 32 66  2  0  0  0  0
 33 67  1  0  0  0  0
 33 71  1  0  0  0  0
 34 35  2  0  0  0  0
 34 44  1  0  0  0  0
 34 68  1  0  0  0  0
 35 83  1  0  0  0  0
 36 72  1  0  0  0  0
 36 77  2  0  0  0  0
 37 55  1  0  0  0  0
 37 74  1  0  0  0  0
 37 78  2  0  0  0  0
 38 63  1  0  0  0  0
 38 69  1  0  0  0  0
 38 79  2  0  0  0  0
 39 64  1  0  0  0  0
 39 75  1  0  0  0  0
 39 80  2  0  0  0  0
 40 70  1  0  0  0  0
 40 73  1  0  0  0  0
 40 81  2  0  0  0  0
 41 45  1  0  0  0  0
 42 55  1  0  0  0  0
 43 69  1  0  0  0  0
 44 46  1  0  0  0  0
 45 49  1  0  0  0  0
 46 47  1  0  0  0  0
 47 51  1  0  0  0  0
 48 50  1  0  0  0  0
 48 52  1  0  0  0  0
 49 54  1  0  0  0  0
 50 56  1  0  0  0  0
 51 68  1  0  0  0  0
 52 70  1  0  0  0  0
 53 56  1  0  0  0  0
 53 70  1  0  0  0  0
 54 74  1  0  0  0  0
 55 69  1  0  0  0  0
 56 67  1  0  0  0  0
 58 64  1  0  0  0  0
 59 65  1  0  0  0  0
 60 65  1  0  0  0  0
 61 65  1  0  0  0  0
 62 76  1  0  0  0  0
 63 65  1  0  0  0  0
 63 75  1  0  0  0  0
 64 76  1  0  0  0  0
 66 67  1  0  0  0  0
M  CHG  1  76   1
M  ISO  4  35 101  40 100  73 100  83 101
M  END
> <Batch ID>
0084

> <Smiles>
CNC(C)C(=O)NC(C(=O)N1Cc2cc([101O:1][101CH:1]=C3CCCCN3c3ccc([100NH:0][100C:0](=O)N4CCCC(n5nc(-c6ccc(Oc7ccc(F)cc7F)cc6)c(C(N)=O)c5N)C4)c(C)c3)ccc2CC1C(=O)NC1CCCc2ccccc21)C(C)(C)C

> <Shape>
0.253

> <Color>
0.093

> <Negative vol penalty>
0.000

$$$$

  -OEChem-04052300123D

 81 89  0     1  0  0  0  0  0999 V2000
  -24.1458  -38.1102   21.1380 C   0  0  0  0  0  0  0  0  0  0  0  0
  -25.0860  -37.1302   20.8360 C   0  0  0  0  0  0  0  0  0  0  0  0
  -23.6642  -14.1930   21.3536 C   0  0  0  0  0  0  0  0  0  0  0  0
  -26.0559  -14.3266   21.0394 C   0  0  0  0  0  0  0  0  0  0  0  0
  -23.1679  -37.8633   22.1007 C   0  0  0  0  0  0  0  0  0  0  0  0
  -25.0495  -35.9032   21.4973 C   0  0  0  0  0  0  0  0  0  0  0  0
  -26.4794  -30.4222   19.1691 C   0  0  0  0  0  0  0  0  0  0  0  0
  -23.6663  -12.9035   20.8219 C   0  0  0  0  0  0  0  0  0  0  0  0
  -26.0581  -13.0370   20.5077 C   0  0  0  0  0  0  0  0  0  0  0  0
  -27.6350  -29.6455   19.2402 C   0  0  0  0  0  0  0  0  0  0  0  0
  -23.0935   -9.4391   19.8812 C   0  0  0  0  0  0  0  0  0  0  0  0
  -22.3522   -8.4623   20.5460 C   0  0  0  0  0  0  0  0  0  0  0  0
  -30.8999  -23.6708   20.0698 C   0  0  0  0  0  0  0  0  0  0  0  0
  -28.5080  -23.6700   19.7301 C   0  0  0  0  0  0  0  0  0  0  0  0
  -26.6855  -28.4124   21.0833 C   0  0  0  0  0  0  0  0  0  0  0  0
  -29.7383  -21.5917   19.6639 C   0  0  0  0  0  0  0  0  0  0  0  0
  -23.6861   -8.8014   22.5316 C   0  0  0  0  0  0  0  0  0  0  0  0
  -24.8590  -14.9046   21.4623 C   0  0  0  0  0  0  0  0  0  0  0  0
  -29.6926  -24.3633   19.9786 C   0  0  0  0  0  0  0  0  0  0  0  0
  -25.0148  -16.6002   23.3618 C   0  0  0  0  0  0  0  0  0  0  0  0
  -23.1135  -36.6291   22.7672 C   0  0  0  0  0  0  0  0  0  0  0  0
  -25.4209  -30.2068   20.0632 C   0  0  0  0  0  0  0  0  0  0  0  0
  -24.0708  -35.6400   22.4708 C   0  0  0  0  0  0  0  0  0  0  0  0
  -25.5166  -29.1861   21.0199 C   0  0  0  0  0  0  0  0  0  0  0  0
  -30.9228  -22.2850   19.9124 C   0  0  0  0  0  0  0  0  0  0  0  0
  -28.5308  -22.2841   19.5727 C   0  0  0  0  0  0  0  0  0  0  0  0
  -24.8632  -12.3254   20.3990 C   0  0  0  0  0  0  0  0  0  0  0  0
  -27.7394  -28.6423   20.1993 C   0  0  0  0  0  0  0  0  0  0  0  0
  -24.1312  -10.0970   20.5415 C   0  0  0  0  0  0  0  0  0  0  0  0
  -22.6485   -8.1435   21.8712 C   0  0  0  0  0  0  0  0  0  0  0  0
  -24.4275   -9.7781   21.8667 C   0  0  0  0  0  0  0  0  0  0  0  0
  -24.8574  -16.2369   22.0109 C   0  0  0  0  0  0  0  0  0  0  0  0
  -24.9388  -17.9716   23.3597 C   0  0  0  0  0  0  0  0  0  0  0  0
  -29.6686  -25.8246   20.1461 C   0  0  0  0  0  0  0  0  0  0  0  0
  -25.2121  -15.7721   24.5155 C   0  0  0  0  0  0  0  0  0  0  0  0
  -23.9820  -31.9502   22.2980 C   0  0  0  0  0  0  0  0  0  0  0  0
  -21.9687  -29.4102   22.4310 C   0  0  0  0  0  0  0  0  0  0  0  0
  -21.4665  -26.0795   21.8824 C   0  0  0  0  0  0  0  0  0  0  0  0
  -26.0453  -22.1149   19.1987 C   0  0  0  0  0  0  0  0  0  0  0  0
  -22.0670  -36.4257   23.8340 C   0  0  0  0  0  0  0  0  0  0  0  0
  -24.1703  -31.0356   19.9561 C   0  0  0  0  0  0  0  0  0  0  0  0
  -24.4001  -28.9011   21.9898 C   0  0  0  0  0  0  0  0  0  0  0  0
  -21.8678  -34.9625   24.2209 C   0  0  0  0  0  0  0  0  0  0  0  0
  -22.9802  -21.6098   20.9386 C   0  0  0  0  0  0  0  0  0  0  0  0
  -23.2145  -34.2791   24.4356 C   0  0  0  0  0  0  0  0  0  0  0  0
  -23.1306  -20.2102   21.5390 C   0  0  0  0  0  0  0  0  0  0  0  0
  -23.6204  -21.7051   19.5548 C   0  0  0  0  0  0  0  0  0  0  0  0
  -25.1701  -19.8653   20.0869 C   0  0  0  0  0  0  0  0  0  0  0  0
  -24.0487  -34.2873   23.1489 C   0  0  1  0  0  0  0  0  0  0  0  0
  -23.3629  -31.0690   21.2502 C   0  0  1  0  0  0  0  0  0  0  0  0
  -24.5975  -19.7383   21.5081 C   0  0  2  0  0  0  0  0  0  0  0  0
  -19.7311  -24.2830   22.1241 C   0  0  0  0  0  0  0  0  0  0  0  0
  -22.4939  -29.3105   25.4350 C   0  0  0  0  0  0  0  0  0  0  0  0
  -21.5352  -26.9978   25.4553 C   0  0  0  0  0  0  0  0  0  0  0  0
  -20.1105  -28.9307   24.7794 C   0  0  0  0  0  0  0  0  0  0  0  0
  -21.4320  -25.5595   18.9691 C   0  0  0  0  0  0  0  0  0  0  0  0
  -21.9244  -28.1211   23.2153 C   0  0  1  0  0  0  0  0  0  0  0  0
  -20.3354  -25.3301   21.2015 C   0  0  2  0  0  0  0  0  0  0  0  0
  -21.5380  -28.3464   24.7044 C   0  0  0  0  0  0  0  0  0  0  0  0
  -24.6936  -17.2924   21.2088 N   0  0  0  0  0  0  0  0  0  0  0  0
  -28.5804  -26.5213   20.0723 N   0  0  0  0  0  0  0  0  0  1  0  0
  -24.7476  -18.3323   22.0583 N   0  0  0  0  0  0  0  0  0  0  0  0
  -23.2004  -29.7428   21.8493 N   0  0  0  0  0  0  0  0  0  0  0  0
  -25.0102  -21.2457   19.6034 N   0  0  0  0  0  0  0  0  0  0  0  0
  -32.1435  -21.5846   20.0041 N   0  0  0  0  0  0  0  0  0  0  0  0
  -25.0174  -18.8921   24.3440 N   0  0  0  0  0  0  0  0  0  0  0  0
  -25.2658  -14.3827   24.3393 N   0  0  0  0  0  0  0  0  0  0  0  0
  -27.3275  -21.5801   19.3195 N   0  0  0  0  0  0  0  0  0  0  0  0
  -23.5771  -33.2698   22.2342 N   0  0  0  0  0  0  0  0  0  0  0  0
  -21.0208  -27.2336   22.4912 N   0  0  0  0  0  0  0  0  0  0  0  0
  -20.8325  -24.6451   19.9749 N   0  3  0  0  0  0  0  0  0  0  0  0
  -25.3208  -16.2491   25.6705 O   0  0  0  0  0  0  0  0  0  0  0  0
  -24.7678  -31.4682   23.1054 O   0  0  0  0  0  0  0  0  0  0  0  0
  -20.9464  -30.0933   22.3319 O   0  0  0  0  0  0  0  0  0  0  0  0
  -22.6285  -25.6791   21.8780 O   0  0  0  0  0  0  0  0  0  0  0  0
  -25.8134  -23.2597   18.8017 O   0  0  0  0  0  0  0  0  0  0  0  0
  -24.8657  -11.0670   19.8804 O   0  0  0  0  0  0  0  0  0  0  0  0
  -28.8664  -27.8831   20.2712 O   0  0  0  0  0  0  0  0  0  1  0  0
  -21.9355   -7.2066   22.5099 F   0  0  0  0  0  0  0  0  0  0  0  0
  -25.4225  -10.4076   22.5068 F   0  0  0  0  0  0  0  0  0  0  0  0
  -30.8367  -26.4415   20.3846 F   0  0  0  0  0  0  0  0  0  0  0  0
  1  2  1  0  0  0  0
  1  5  2  0  0  0  0
  2  6  2  0  0  0  0
  3  8  2  0  0  0  0
  3 18  1  0  0  0  0
  4  9  1  0  0  0  0
  4 18  2  0  0  0  0
  5 21  1  0  0  0  0
  6 23  1  0  0  0  0
  7 10  2  0  0  0  0
  7 22  1  0  0  0  0
  8 27  1  0  0  0  0
  9 27  2  0  0  0  0
 10 28  1  0  0  0  0
 11 12  2  0  0  0  0
 11 29  1  0  0  0  0
 12 30  1  0  0  0  0
 13 19  1  0  0  0  0
 13 25  2  0  0  0  0
 14 19  2  0  0  0  0
 14 26  1  0  0  0  0
 15 24  1  0  0  0  0
 15 28  2  0  0  0  0
 16 25  1  0  0  0  0
 16 26  2  0  0  0  0
 17 30  2  0  0  0  0
 17 31  1  0  0  0  0
 18 32  1  0  0  0  0
 19 34  1  0  0  0  0
 20 32  1  0  0  0  0
 20 33  2  0  0  0  0
 20 35  1  0  0  0  0
 21 23  2  0  0  0  0
 21 40  1  0  0  0  0
 22 24  2  0  0  0  0
 22 41  1  0  0  0  0
 23 49  1  0  0  0  0
 24 42  1  0  0  0  0
 25 65  1  0  0  0  0
 26 68  1  0  0  0  0
 27 77  1  0  0  0  0
 28 78  1  0  0  0  0
 29 31  2  0  0  0  0
 29 77  1  0  0  0  0
 30 79  1  0  0  0  0
 31 80  1  0  0  0  0
 32 60  2  0  0  0  0
 33 62  1  0  0  0  0
 33 66  1  0  0  0  0
 34 61  2  0  0  0  0
 34 81  1  0  0  0  0
 35 67  1  0  0  0  0
 35 72  2  0  0  0  0
 36 50  1  0  0  0  0
 36 69  1  0  0  0  0
 36 73  2  0  0  0  0
 37 57  1  0  0  0  0
 37 63  1  0  0  0  0
 37 74  2  0  0  0  0
 38 58  1  0  0  0  0
 38 70  1  0  0  0  0
 38 75  2  0  0  0  0
 39 64  1  0  0  0  0
 39 68  1  0  0  0  0
 39 76  2  0  0  0  0
 40 43  1  0  0  0  0
 41 50  1  0  0  0  0
 42 63  1  0  0  0  0
 43 45  1  0  0  0  0
 44 46  1  0  0  0  0
 44 47  1  0  0  0  0
 45 49  1  0  0  0  0
 46 51  1  0  0  0  0
 47 64  1  0  0  0  0
 48 51  1  0  0  0  0
 48 64  1  0  0  0  0
 49 69  1  0  0  0  0
 50 63  1  0  0  0  0
 51 62  1  0  0  0  0
 52 58  1  0  0  0  0
 53 59  1  0  0  0  0
 54 59  1  0  0  0  0
 55 59  1  0  0  0  0
 56 71  1  0  0  0  0
 57 59  1  0  0  0  0
 57 70  1  0  0  0  0
 58 71  1  0  0  0  0
 60 62  1  0  0  0  0
 61 78  1  0  0  0  0
M  CHG  1  71   1
M  ISO  4  39 100  61 101  68 100  78 101
M  END
> <Batch ID>
0084

> <Smiles>
CNC(C)C(=O)NC(C(=O)N1Cc2cc([101O:1][101N:1]=C(F)c3cc(N)cc([100NH:0][100C:0](=O)N4CCCC(n5nc(-c6ccc(Oc7ccc(F)cc7F)cc6)c(C(N)=O)c5N)C4)c3)ccc2CC1C(=O)NC1CCCc2ccccc21)C(C)(C)C

> <Shape>
0.252

> <Color>
0.066

> <Negative vol penalty>
0.000

$$$$

  -OEChem-04052300123D

 86 95  0     1  0  0  0  0  0999 V2000
  -17.3478  -26.7930   21.3840 C   0  0  0  0  0  0  0  0  0  0  0  0
  -18.4859  -26.1517   21.8623 C   0  0  0  0  0  0  0  0  0  0  0  0
  -23.6968   -9.6106   20.0164 C   0  0  0  0  0  0  0  0  0  0  0  0
  -24.2061   -9.9040   22.3598 C   0  0  0  0  0  0  0  0  0  0  0  0
  -17.4580  -28.0395   20.7692 C   0  0  0  0  0  0  0  0  0  0  0  0
  -19.7351  -26.7560   21.7251 C   0  0  0  0  0  0  0  0  0  0  0  0
  -24.4278  -26.4416   25.6475 C   0  0  0  0  0  0  0  0  0  0  0  0
  -28.5672  -20.1858   23.1914 C   0  0  0  0  0  0  0  0  0  0  0  0
  -28.3757  -18.8627   22.7936 C   0  0  0  0  0  0  0  0  0  0  0  0
  -23.1800   -8.3437   20.2873 C   0  0  0  0  0  0  0  0  0  0  0  0
  -23.6893   -8.6370   22.6308 C   0  0  0  0  0  0  0  0  0  0  0  0
  -25.5782  -25.6544   25.6725 C   0  0  0  0  0  0  0  0  0  0  0  0
  -20.6451   -7.2195   23.0103 C   0  0  0  0  0  0  0  0  0  0  0  0
  -19.7985   -7.0884   24.1111 C   0  0  0  0  0  0  0  0  0  0  0  0
  -26.8144  -27.4383   24.6195 C   0  0  0  0  0  0  0  0  0  0  0  0
  -30.5874  -18.8349   21.8215 C   0  0  0  0  0  0  0  0  0  0  0  0
  -21.3256   -5.4963   25.0960 C   0  0  0  0  0  0  0  0  0  0  0  0
  -24.2099  -10.3908   21.0527 C   0  0  0  0  0  0  0  0  0  0  0  0
  -24.0449  -12.9210   20.7727 C   0  0  0  0  0  0  0  0  0  0  0  0
  -18.7079  -28.6638   20.6330 C   0  0  0  0  0  0  0  0  0  0  0  0
  -24.4595  -27.7311   25.0974 C   0  0  0  0  0  0  0  0  0  0  0  0
  -19.8622  -28.0114   21.1067 C   0  0  0  0  0  0  0  0  0  0  0  0
  -25.6636  -28.2407   24.5910 C   0  0  0  0  0  0  0  0  0  0  0  0
  -29.7688  -20.8335   22.9043 C   0  0  0  0  0  0  0  0  0  0  0  0
  -29.3858  -18.1873   22.1086 C   0  0  0  0  0  0  0  0  0  0  0  0
  -23.1762   -7.8569   21.5945 C   0  0  0  0  0  0  0  0  0  0  0  0
  -26.7711  -26.1517   25.1558 C   0  0  0  0  0  0  0  0  0  0  0  0
  -21.8319   -6.4889   22.9524 C   0  0  0  0  0  0  0  0  0  0  0  0
  -20.1387   -6.2268   25.1539 C   0  0  0  0  0  0  0  0  0  0  0  0
  -30.7789  -20.1581   22.2194 C   0  0  0  0  0  0  0  0  0  0  0  0
  -22.1722   -5.6273   23.9952 C   0  0  0  0  0  0  0  0  0  0  0  0
  -24.7444  -11.6994   20.7734 C   0  0  0  0  0  0  0  0  0  0  0  0
  -24.9938  -13.8599   20.4498 C   0  0  0  0  0  0  0  0  0  0  0  0
  -30.9097  -24.1200   23.9817 C   0  0  0  0  0  0  0  0  0  0  0  0
  -29.6013  -24.3436   23.8780 C   0  0  0  0  0  0  0  0  0  0  0  0
  -31.1729  -22.7180   23.6275 C   0  0  0  0  0  0  0  0  0  0  0  0
  -28.9547  -23.0944   23.4312 C   0  0  0  0  0  0  0  0  0  0  0  0
  -22.6609  -13.1836   21.0402 C   0  0  0  0  0  0  0  0  0  0  0  0
  -23.0100  -29.1660   22.6595 C   0  0  0  0  0  0  0  0  0  0  0  0
  -24.4887  -31.8018   23.8379 C   0  0  0  0  0  0  0  0  0  0  0  0
  -27.0537  -33.1090   25.6706 C   0  0  0  0  0  0  0  0  0  0  0  0
  -30.0906  -16.0289   21.0172 C   0  0  0  0  0  0  0  0  0  0  0  0
  -18.7830  -29.9902   19.9189 C   0  0  0  0  0  0  0  0  0  0  0  0
  -23.2162  -28.5776   25.1023 C   0  0  0  0  0  0  0  0  0  0  0  0
  -25.7552  -29.6264   24.0079 C   0  0  0  0  0  0  0  0  0  0  0  0
  -20.0973  -30.7319   20.1483 C   0  0  0  0  0  0  0  0  0  0  0  0
  -29.7296  -13.3073   18.7501 C   0  0  0  0  0  0  0  0  0  0  0  0
  -21.2814  -29.7862   19.9744 C   0  0  0  0  0  0  0  0  0  0  0  0
  -28.3429  -12.7469   19.0743 C   0  0  0  0  0  0  0  0  0  0  0  0
  -30.4546  -13.7885   20.0057 C   0  0  0  0  0  0  0  0  0  0  0  0
  -28.3121  -14.1761   21.1583 C   0  0  0  0  0  0  0  0  0  0  0  0
  -21.2318  -28.6460   20.9986 C   0  0  1  0  0  0  0  0  0  0  0  0
  -23.2418  -29.6830   24.0511 C   0  0  1  0  0  0  0  0  0  0  0  0
  -27.5173  -13.7385   19.9172 C   0  0  2  0  0  0  0  0  0  0  0  0
  -28.0205  -35.2989   26.4238 C   0  0  0  0  0  0  0  0  0  0  0  0
  -25.6375  -32.2516   21.0473 C   0  0  0  0  0  0  0  0  0  0  0  0
  -27.2956  -33.8305   22.0603 C   0  0  0  0  0  0  0  0  0  0  0  0
  -24.8552  -34.3282   22.2006 C   0  0  0  0  0  0  0  0  0  0  0  0
  -26.6645  -32.4315   28.5252 C   0  0  0  0  0  0  0  0  0  0  0  0
  -28.8465  -25.5965   24.1358 C   0  0  0  0  0  0  0  0  0  1  0  0
  -25.8242  -32.4688   23.6132 C   0  0  1  0  0  0  0  0  0  0  0  0
  -27.0754  -34.1581   26.7676 C   0  0  2  0  0  0  0  0  0  0  0  0
  -25.9013  -33.1929   22.2395 C   0  0  0  0  0  0  0  0  0  0  0  0
  -26.0380  -11.8458   20.4745 N   0  0  0  0  0  0  0  0  0  0  0  0
  -26.1587  -13.1704   20.2828 N   0  0  0  0  0  0  0  0  0  0  0  0
  -29.9569  -22.1524   23.3021 N   0  0  0  0  0  0  0  0  0  0  0  0
  -24.5110  -30.4130   24.0296 N   0  0  0  0  0  0  0  0  0  0  0  0
  -29.6139  -14.7278   20.7513 N   0  0  0  0  0  0  0  0  0  0  0  0
  -24.9372  -15.1998   20.2951 N   0  0  0  0  0  0  0  0  0  0  0  0
  -21.8250  -12.1039   21.3562 N   0  0  0  0  0  0  0  0  0  0  0  0
  -29.1911  -16.8432   21.7045 N   0  0  0  0  0  0  0  0  0  0  0  0
  -21.6784  -29.1107   22.2944 N   0  0  0  0  0  0  0  0  0  0  0  0
  -26.0431  -33.3413   24.7618 N   0  0  0  0  0  0  0  0  0  0  0  0
  -27.5189  -33.5522   28.0550 N   0  3  0  0  0  0  0  0  0  0  0  0
  -32.2839  -22.2134   23.6388 O   0  0  0  0  0  0  0  0  0  0  0  0
  -27.7565  -22.9737   23.2321 O   0  0  0  0  0  0  0  0  0  0  0  0
  -22.1764  -14.3392   20.9840 O   0  0  0  0  0  0  0  0  0  0  0  0
  -23.9684  -28.8428   21.9676 O   0  0  0  0  0  0  0  0  0  0  0  0
  -23.4641  -32.4887   23.8503 O   0  0  0  0  0  0  0  0  0  0  0  0
  -27.8555  -32.1788   25.6225 O   0  0  0  0  0  0  0  0  0  0  0  0
  -31.2033  -16.4026   20.6376 O   0  0  0  0  0  0  0  0  0  0  0  0
  -22.6718   -6.6208   21.8592 O   0  0  0  0  0  0  0  0  0  0  0  0
  -27.8953  -25.3852   25.1784 O   0  0  0  0  0  0  0  0  0  1  0  0
  -19.3264   -6.1022   26.2116 F   0  0  0  0  0  0  0  0  0  0  0  0
  -31.9377  -20.7709   21.9374 F   0  0  0  0  0  0  0  0  0  0  0  0
  -23.3116   -4.9237   23.9457 F   0  0  0  0  0  0  0  0  0  0  0  0
  1  2  1  0  0  0  0
  1  5  2  0  0  0  0
  2  6  2  0  0  0  0
  3 10  2  0  0  0  0
  3 18  1  0  0  0  0
  4 11  1  0  0  0  0
  4 18  2  0  0  0  0
  5 20  1  0  0  0  0
  6 22  1  0  0  0  0
  7 12  2  0  0  0  0
  7 21  1  0  0  0  0
  8  9  2  0  0  0  0
  8 24  1  0  0  0  0
  9 25  1  0  0  0  0
 10 26  1  0  0  0  0
 11 26  2  0  0  0  0
 12 27  1  0  0  0  0
 13 14  2  0  0  0  0
 13 28  1  0  0  0  0
 14 29  1  0  0  0  0
 15 23  1  0  0  0  0
 15 27  2  0  0  0  0
 16 25  2  0  0  0  0
 16 30  1  0  0  0  0
 17 29  2  0  0  0  0
 17 31  1  0  0  0  0
 18 32  1  0  0  0  0
 19 32  1  0  0  0  0
 19 33  2  0  0  0  0
 19 38  1  0  0  0  0
 20 22  2  0  0  0  0
 20 43  1  0  0  0  0
 21 23  2  0  0  0  0
 21 44  1  0  0  0  0
 22 52  1  0  0  0  0
 23 45  1  0  0  0  0
 24 30  2  0  0  0  0
 24 66  1  0  0  0  0
 25 71  1  0  0  0  0
 26 82  1  0  0  0  0
 27 83  1  0  0  0  0
 28 31  2  0  0  0  0
 28 82  1  0  0  0  0
 29 84  1  0  0  0  0
 30 85  1  0  0  0  0
 31 86  1  0  0  0  0
 32 64  2  0  0  0  0
 33 65  1  0  0  0  0
 33 69  1  0  0  0  0
 34 35  2  0  0  0  0
 34 36  1  0  0  0  0
 35 37  1  0  0  0  0
 35 60  1  0  0  0  0
 36 66  1  0  0  0  0
 36 75  2  0  0  0  0
 37 66  1  0  0  0  0
 37 76  2  0  0  0  0
 38 70  1  0  0  0  0
 38 77  2  0  0  0  0
 39 53  1  0  0  0  0
 39 72  1  0  0  0  0
 39 78  2  0  0  0  0
 40 61  1  0  0  0  0
 40 67  1  0  0  0  0
 40 79  2  0  0  0  0
 41 62  1  0  0  0  0
 41 73  1  0  0  0  0
 41 80  2  0  0  0  0
 42 68  1  0  0  0  0
 42 71  1  0  0  0  0
 42 81  2  0  0  0  0
 43 46  1  0  0  0  0
 44 53  1  0  0  0  0
 45 67  1  0  0  0  0
 46 48  1  0  0  0  0
 47 49  1  0  0  0  0
 47 50  1  0  0  0  0
 48 52  1  0  0  0  0
 49 54  1  0  0  0  0
 50 68  1  0  0  0  0
 51 54  1  0  0  0  0
 51 68  1  0  0  0  0
 52 72  1  0  0  0  0
 53 67  1  0  0  0  0
 54 65  1  0  0  0  0
 55 62  1  0  0  0  0
 56 63  1  0  0  0  0
 57 63  1  0  0  0  0
 58 63  1  0  0  0  0
 59 74  1  0  0  0  0
 60 83  1  0  0  0  0
 61 63  1  0  0  0  0
 61 73  1  0  0  0  0
 62 74  1  0  0  0  0
 64 65  1  0  0  0  0
M  CHG  1  74   1
M  ISO  4  42 100  60 101  71 100  83 101
M  END
> <Batch ID>
0084

> <Smiles>
CNC(C)C(=O)NC(C(=O)N1Cc2cc([101O:1][101CH2:1]C3=CC(=O)N(c4ccc([100NH:0][100C:0](=O)N5CCCC(n6nc(-c7ccc(Oc8ccc(F)cc8F)cc7)c(C(N)=O)c6N)C5)cc4F)C3=O)ccc2CC1C(=O)NC1CCCc2ccccc21)C(C)(C)C

> <Shape>
0.295

> <Color>
0.180

> <Negative vol penalty>
0.000

$$$$

  -OEChem-04052300123D

 82 91  0     1  0  0  0  0  0999 V2000
  -28.0846  -32.9548   27.0469 C   0  0  0  0  0  0  0  0  0  0  0  0
  -28.2453  -31.8922   26.1636 C   0  0  0  0  0  0  0  0  0  0  0  0
  -26.0758  -14.9200   21.1228 C   0  0  0  0  0  0  0  0  0  0  0  0
  -25.9073  -13.8717   18.9527 C   0  0  0  0  0  0  0  0  0  0  0  0
  -26.8077  -33.3205   27.4707 C   0  0  0  0  0  0  0  0  0  0  0  0
  -27.1292  -31.1938   25.7043 C   0  0  0  0  0  0  0  0  0  0  0  0
  -27.2977  -30.3243   20.7183 C   0  0  0  0  0  0  0  0  0  0  0  0
  -24.7022  -14.7612   21.3062 C   0  0  0  0  0  0  0  0  0  0  0  0
  -24.5337  -13.7128   19.1360 C   0  0  0  0  0  0  0  0  0  0  0  0
  -28.1186  -29.2860   20.2804 C   0  0  0  0  0  0  0  0  0  0  0  0
  -21.0407  -12.7056   19.1851 C   0  0  0  0  0  0  0  0  0  0  0  0
  -20.4794  -11.4731   18.8513 C   0  0  0  0  0  0  0  0  0  0  0  0
  -26.1901  -27.8491   20.0916 C   0  0  0  0  0  0  0  0  0  0  0  0
  -21.9066  -10.3850   20.4688 C   0  0  0  0  0  0  0  0  0  0  0  0
  -30.8129  -19.6290   18.9147 C   0  0  0  0  0  0  0  0  0  0  0  0
  -26.6784  -14.4753   19.9460 C   0  0  0  0  0  0  0  0  0  0  0  0
  -29.1288  -14.1117   20.5551 C   0  0  0  0  0  0  0  0  0  0  0  0
  -25.6746  -32.6324   27.0089 C   0  0  0  0  0  0  0  0  0  0  0  0
  -25.9160  -30.1293   20.8567 C   0  0  0  0  0  0  0  0  0  0  0  0
  -25.8360  -31.5498   26.1234 C   0  0  0  0  0  0  0  0  0  0  0  0
  -25.3536  -28.8874   20.5289 C   0  0  0  0  0  0  0  0  0  0  0  0
  -23.9312  -14.1576   20.3128 C   0  0  0  0  0  0  0  0  0  0  0  0
  -27.5652  -28.0473   19.9698 C   0  0  0  0  0  0  0  0  0  0  0  0
  -22.0351  -12.7778   20.1607 C   0  0  0  0  0  0  0  0  0  0  0  0
  -20.9123  -10.3128   19.4931 C   0  0  0  0  0  0  0  0  0  0  0  0
  -22.4680  -11.6175   20.8025 C   0  0  0  0  0  0  0  0  0  0  0  0
  -30.4656  -20.7103   19.7750 C   0  0  0  0  0  0  0  0  0  0  0  0
  -28.0971  -14.6396   19.7558 C   0  0  0  0  0  0  0  0  0  0  0  0
  -31.0846  -20.0542   17.6329 C   0  0  0  0  0  0  0  0  0  0  0  0
  -30.2849  -14.5508   19.9576 C   0  0  0  0  0  0  0  0  0  0  0  0
  -30.4854  -21.9209   19.1180 C   0  0  0  0  0  0  0  0  0  0  0  0
  -29.1485  -24.8169   19.9568 C   0  0  0  0  0  0  0  0  0  0  0  0
  -29.3622  -23.4998   20.5577 C   0  0  0  0  0  0  0  0  0  0  0  0
  -28.3963  -25.8835   20.2831 C   0  0  0  0  0  0  0  0  0  1  0  0
  -29.0491  -13.2971   21.7323 C   0  0  0  0  0  0  0  0  0  0  0  0
  -31.4759  -19.2587   16.4621 C   0  0  0  0  0  0  0  0  0  0  0  0
  -23.8674  -30.2385   23.2847 C   0  0  0  0  0  0  0  0  0  0  0  0
  -21.6669  -29.8196   20.9385 C   0  0  0  0  0  0  0  0  0  0  0  0
  -20.9618  -28.6925   17.7954 C   0  0  0  0  0  0  0  0  0  0  0  0
  -24.3182  -33.0341   27.5319 C   0  0  0  0  0  0  0  0  0  0  0  0
  -25.0407  -31.2675   21.3047 C   0  0  0  0  0  0  0  0  0  0  0  0
  -23.8733  -28.6328   20.6412 C   0  0  0  0  0  0  0  0  0  0  0  0
  -30.1089  -24.4387   18.8526 C   0  0  0  0  0  0  0  0  0  0  0  0
  -23.1590  -32.4820   26.7062 C   0  0  0  0  0  0  0  0  0  0  0  0
  -32.0614  -15.8212   15.6988 C   0  0  0  0  0  0  0  0  0  0  0  0
  -23.3735  -31.0014   26.4082 C   0  0  0  0  0  0  0  0  0  0  0  0
  -31.1931  -15.0768   16.7146 C   0  0  0  0  0  0  0  0  0  0  0  0
  -31.3995  -17.1156   15.2328 C   0  0  0  0  0  0  0  0  0  0  0  0
  -30.1281  -17.2834   17.3447 C   0  0  0  0  0  0  0  0  0  0  0  0
  -24.6478  -30.7836   25.5835 C   0  0  1  0  0  0  0  0  0  0  0  0
  -23.7153  -30.8033   21.9007 C   0  0  1  0  0  0  0  0  0  0  0  0
  -30.7819  -15.9982   17.8784 C   0  0  1  0  0  0  0  0  0  0  0  0
  -19.0668  -28.4513   16.1681 C   0  0  0  0  0  0  0  0  0  0  0  0
  -20.6047  -27.4437   22.5313 C   0  0  0  0  0  0  0  0  0  0  0  0
  -19.3961  -26.6922   20.4715 C   0  0  0  0  0  0  0  0  0  0  0  0
  -18.8375  -28.8898   21.5114 C   0  0  0  0  0  0  0  0  0  0  0  0
  -22.2945  -30.4331   15.8072 C   0  0  0  0  0  0  0  0  0  0  0  0
  -21.0264  -28.6247   20.2744 C   0  0  1  0  0  0  0  0  0  0  0  0
  -20.2129  -29.3323   16.6403 C   0  0  2  0  0  0  0  0  0  0  0  0
  -19.9944  -27.9165   21.1968 C   0  0  0  0  0  0  0  0  0  0  0  0
  -28.5573  -15.3592   18.7290 N   0  0  0  0  0  0  0  0  0  0  0  0
  -29.8909  -15.2867   18.8790 N   0  0  0  0  0  0  0  0  0  0  0  0
  -30.2232  -23.1763   19.5613 N   0  0  0  0  0  0  0  0  0  0  0  0
  -31.0169  -17.9420   16.3770 N   0  0  0  0  0  0  0  0  0  0  0  0
  -23.0601  -29.7752   21.0896 N   0  0  0  0  0  0  0  0  0  0  0  0
  -31.5900  -14.3755   20.2550 N   0  0  0  0  0  0  0  0  0  0  0  0
  -29.0355  -11.9038   21.5810 N   0  0  0  0  0  0  0  0  0  0  0  0
  -24.4155  -31.1213   24.1955 N   0  0  0  0  0  0  0  0  0  0  0  0
  -20.4700  -29.1071   19.0150 N   0  0  0  0  0  0  0  0  0  0  0  0
  -21.1329  -29.5627   15.4907 N   0  3  0  0  0  0  0  0  0  0  0  0
  -28.8907  -22.9058   21.5054 O   0  0  0  0  0  0  0  0  0  0  0  0
  -28.9752  -13.7904   22.8832 O   0  0  0  0  0  0  0  0  0  0  0  0
  -32.1990  -19.8202   15.6406 O   0  0  0  0  0  0  0  0  0  0  0  0
  -23.5123  -29.0874   23.5099 O   0  0  0  0  0  0  0  0  0  0  0  0
  -20.9579  -30.7609   21.3032 O   0  0  0  0  0  0  0  0  0  0  0  0
  -21.8877  -27.9010   17.6321 O   0  0  0  0  0  0  0  0  0  0  0  0
  -22.5908  -14.0023   20.4915 O   0  0  0  0  0  0  0  0  0  0  0  0
  -28.3643  -27.0318   19.5428 O   0  0  0  0  0  0  0  0  0  1  0  0
  -20.3720   -9.1295   19.1736 F   0  0  0  0  0  0  0  0  0  0  0  0
  -23.4221  -11.6807   21.7414 F   0  0  0  0  0  0  0  0  0  0  0  0
  -30.1583  -20.5622   21.0650 F   0  0  0  0  0  0  0  0  0  0  0  0
  -30.9209  -21.7509   17.4707 S   0  0  0  0  0  0  0  0  0  0  0  0
  1  2  1  0  0  0  0
  1  5  2  0  0  0  0
  2  6  2  0  0  0  0
  3  8  2  0  0  0  0
  3 16  1  0  0  0  0
  4  9  1  0  0  0  0
  4 16  2  0  0  0  0
  5 18  1  0  0  0  0
  6 20  1  0  0  0  0
  7 10  2  0  0  0  0
  7 19  1  0  0  0  0
  8 22  1  0  0  0  0
  9 22  2  0  0  0  0
 10 23  1  0  0  0  0
 11 12  2  0  0  0  0
 11 24  1  0  0  0  0
 12 25  1  0  0  0  0
 13 21  1  0  0  0  0
 13 23  2  0  0  0  0
 14 25  2  0  0  0  0
 14 26  1  0  0  0  0
 15 27  1  0  0  0  0
 15 29  2  0  0  0  0
 16 28  1  0  0  0  0
 17 28  1  0  0  0  0
 17 30  2  0  0  0  0
 17 35  1  0  0  0  0
 18 20  2  0  0  0  0
 18 40  1  0  0  0  0
 19 21  2  0  0  0  0
 19 41  1  0  0  0  0
 20 50  1  0  0  0  0
 21 42  1  0  0  0  0
 22 77  1  0  0  0  0
 23 78  1  0  0  0  0
 24 26  2  0  0  0  0
 24 77  1  0  0  0  0
 25 79  1  0  0  0  0
 26 80  1  0  0  0  0
 27 31  2  0  0  0  0
 27 81  1  0  0  0  0
 28 61  2  0  0  0  0
 29 36  1  0  0  0  0
 29 82  1  0  0  0  0
 30 62  1  0  0  0  0
 30 66  1  0  0  0  0
 31 63  1  0  0  0  0
 31 82  1  0  0  0  0
 32 33  1  0  0  0  0
 32 34  2  0  0  0  0
 32 43  1  0  0  0  0
 33 63  1  0  0  0  0
 33 71  2  0  0  0  0
 34 78  1  0  0  0  0
 35 67  1  0  0  0  0
 35 72  2  0  0  0  0
 36 64  1  0  0  0  0
 36 73  2  0  0  0  0
 37 51  1  0  0  0  0
 37 68  1  0  0  0  0
 37 74  2  0  0  0  0
 38 58  1  0  0  0  0
 38 65  1  0  0  0  0
 38 75  2  0  0  0  0
 39 59  1  0  0  0  0
 39 69  1  0  0  0  0
 39 76  2  0  0  0  0
 40 44  1  0  0  0  0
 41 51  1  0  0  0  0
 42 65  1  0  0  0  0
 43 63  1  0  0  0  0
 44 46  1  0  0  0  0
 45 47  1  0  0  0  0
 45 48  1  0  0  0  0
 46 50  1  0  0  0  0
 47 52  1  0  0  0  0
 48 64  1  0  0  0  0
 49 52  1  0  0  0  0
 49 64  1  0  0  0  0
 50 68  1  0  0  0  0
 51 65  1  0  0  0  0
 52 62  1  0  0  0  0
 53 59  1  0  0  0  0
 54 60  1  0  0  0  0
 55 60  1  0  0  0  0
 56 60  1  0  0  0  0
 57 70  1  0  0  0  0
 58 60  1  0  0  0  0
 58 69  1  0  0  0  0
 59 70  1  0  0  0  0
 61 62  1  0  0  0  0
M  CHG  1  70   1
M  ISO  4  29 100  34 101  36 100  78 101
M  END
> <Batch ID>
0084

> <Smiles>
CNC(C)C(=O)NC(C(=O)N1Cc2cc([101O:1][101CH:1]=C3CN(c4s[100c:0]([100C:0](=O)N5CCCC(n6nc(-c7ccc(Oc8ccc(F)cc8F)cc7)c(C(N)=O)c6N)C5)cc4F)C3=O)ccc2CC1C(=O)NC1CCCc2ccccc21)C(C)(C)C

> <Shape>
0.280

> <Color>
0.087

> <Negative vol penalty>
0.000

$$$$

  -OEChem-04052300123D

 84 92  0     1  0  0  0  0  0999 V2000
  -28.9074  -37.0217   20.0563 C   0  0  0  0  0  0  0  0  0  0  0  0
  -29.2035  -35.6665   19.9502 C   0  0  0  0  0  0  0  0  0  0  0  0
  -23.4344  -10.4565   22.2260 C   0  0  0  0  0  0  0  0  0  0  0  0
  -22.7665  -12.5097   21.1419 C   0  0  0  0  0  0  0  0  0  0  0  0
  -28.2793  -19.1611   18.1176 C   0  0  0  0  0  0  0  0  0  0  0  0
  -30.4426  -19.1954   19.1928 C   0  0  0  0  0  0  0  0  0  0  0  0
  -27.9352  -37.4531   20.9577 C   0  0  0  0  0  0  0  0  0  0  0  0
  -28.5283  -34.7420   20.7463 C   0  0  0  0  0  0  0  0  0  0  0  0
  -26.9203  -29.0370   19.2058 C   0  0  0  0  0  0  0  0  0  0  0  0
  -28.2438  -17.7715   18.2333 C   0  0  0  0  0  0  0  0  0  0  0  0
  -30.4071  -17.8058   19.3086 C   0  0  0  0  0  0  0  0  0  0  0  0
  -22.3771  -10.5879   23.1263 C   0  0  0  0  0  0  0  0  0  0  0  0
  -21.7091  -12.6411   22.0421 C   0  0  0  0  0  0  0  0  0  0  0  0
  -27.5027  -27.7966   19.4626 C   0  0  0  0  0  0  0  0  0  0  0  0
  -18.6211  -11.3342   22.4627 C   0  0  0  0  0  0  0  0  0  0  0  0
  -17.3730  -11.6837   21.9475 C   0  0  0  0  0  0  0  0  0  0  0  0
  -26.0340  -27.5054   21.3540 C   0  0  0  0  0  0  0  0  0  0  0  0
  -17.3683  -13.6779   23.3115 C   0  0  0  0  0  0  0  0  0  0  0  0
  -23.6291  -11.4174   21.2338 C   0  0  0  0  0  0  0  0  0  0  0  0
  -29.3787  -19.8730   18.5973 C   0  0  0  0  0  0  0  0  0  0  0  0
  -24.7035  -10.6209   19.0615 C   0  0  0  0  0  0  0  0  0  0  0  0
  -27.2409  -36.5325   21.7584 C   0  0  0  0  0  0  0  0  0  0  0  0
  -25.8961  -29.5266   20.0290 C   0  0  0  0  0  0  0  0  0  0  0  0
  -27.5468  -35.1617   21.6602 C   0  0  0  0  0  0  0  0  0  0  0  0
  -25.4385  -28.7512   21.1039 C   0  0  0  0  0  0  0  0  0  0  0  0
  -29.3076  -17.0939   18.8288 C   0  0  0  0  0  0  0  0  0  0  0  0
  -21.5144  -11.6801   23.0343 C   0  0  0  0  0  0  0  0  0  0  0  0
  -27.0615  -27.0319   20.5386 C   0  0  0  0  0  0  0  0  0  0  0  0
  -19.2429  -12.1565   23.4024 C   0  0  0  0  0  0  0  0  0  0  0  0
  -16.7466  -12.8555   22.3719 C   0  0  0  0  0  0  0  0  0  0  0  0
  -18.6165  -13.3283   23.8268 C   0  0  0  0  0  0  0  0  0  0  0  0
  -24.7215  -11.2826   20.3040 C   0  0  0  0  0  0  0  0  0  0  0  0
  -25.9768  -10.7770   18.5709 C   0  0  0  0  0  0  0  0  0  0  0  0
  -29.4166  -21.3531   18.4739 C   0  0  0  0  0  0  0  0  0  0  0  0
  -23.6315   -9.9272   18.4092 C   0  0  0  0  0  0  0  0  0  0  0  0
  -25.5538  -32.0609   21.9168 C   0  0  0  0  0  0  0  0  0  0  0  0
  -29.1908  -24.0309   20.3192 C   0  0  0  0  0  0  0  0  0  0  0  0
  -22.5122  -30.9652   22.1824 C   0  0  0  0  0  0  0  0  0  0  0  0
  -20.3561  -28.3268   21.9909 C   0  0  0  0  0  0  0  0  0  0  0  0
  -30.2417  -14.8555   19.5097 C   0  0  0  0  0  0  0  0  0  0  0  0
  -26.2317  -37.0509   22.7521 C   0  0  0  0  0  0  0  0  0  0  0  0
  -25.2599  -30.8547   19.7226 C   0  0  0  0  0  0  0  0  0  0  0  0
  -24.3280  -29.2226   22.0057 C   0  0  0  0  0  0  0  0  0  0  0  0
  -25.2973  -35.9708   23.2910 C   0  0  0  0  0  0  0  0  0  0  0  0
  -30.5058  -11.3419   20.0213 C   0  0  0  0  0  0  0  0  0  0  0  0
  -26.0901  -34.7318   23.6947 C   0  0  0  0  0  0  0  0  0  0  0  0
  -29.0510  -10.8668   20.0327 C   0  0  0  0  0  0  0  0  0  0  0  0
  -30.6615  -12.7079   20.6872 C   0  0  0  0  0  0  0  0  0  0  0  0
  -28.3204  -13.2818   20.1785 C   0  0  0  0  0  0  0  0  0  0  0  0
  -26.8185  -34.1259   22.4889 C   0  0  1  0  0  0  0  0  0  0  0  0
  -24.5761  -31.4831   20.9329 C   0  0  1  0  0  0  0  0  0  0  0  0
  -28.1034  -11.9395   19.4609 C   0  0  2  0  0  0  0  0  0  0  0  0
  -17.9375  -27.7329   22.2992 C   0  0  0  0  0  0  0  0  0  0  0  0
  -22.8819  -31.0419   25.2102 C   0  0  0  0  0  0  0  0  0  0  0  0
  -20.8602  -29.5807   25.4241 C   0  0  0  0  0  0  0  0  0  0  0  0
  -20.6546  -31.8507   24.4104 C   0  0  0  0  0  0  0  0  0  0  0  0
  -20.0823  -27.4868   19.1663 C   0  0  0  0  0  0  0  0  0  0  0  0
  -30.2911  -23.4595   19.4506 C   0  0  0  0  0  0  0  0  0  0  0  0
  -28.6710  -25.3959   19.9148 C   0  0  0  0  0  0  0  0  0  1  0  0
  -21.7969  -30.0099   23.1069 C   0  0  1  0  0  0  0  0  0  0  0  0
  -19.0064  -28.1761   21.3125 C   0  0  2  0  0  0  0  0  0  0  0  0
  -21.5706  -30.6125   24.5223 C   0  0  0  0  0  0  0  0  0  0  0  0
  -25.9119  -11.8190   20.5853 N   0  0  0  0  0  0  0  0  0  0  0  0
  -26.6538  -11.4945   19.5127 N   0  0  0  0  0  0  0  0  0  0  0  0
  -23.7422  -30.5306   21.6688 N   0  0  0  0  0  0  0  0  0  0  0  0
  -29.7358  -13.6739   20.0915 N   0  0  0  0  0  0  0  0  0  0  0  0
  -26.5722  -10.3692   17.4300 N   0  0  0  0  0  0  0  0  0  0  0  0
  -22.3884   -9.8619   19.0530 N   0  0  0  0  0  0  0  0  0  0  0  0
  -29.2705  -15.6822   18.9460 N   0  0  0  0  0  0  0  0  0  0  0  0
  -30.1766  -22.0318   19.4232 N   0  0  0  0  0  0  0  0  0  0  0  0
  -25.8947  -33.3761   21.6649 N   0  0  0  0  0  0  0  0  0  0  0  0
  -20.5701  -29.6194   22.4207 N   0  0  0  0  0  0  0  0  0  0  0  0
  -19.0858  -27.1654   20.2201 N   0  3  0  0  0  0  0  0  0  0  0  0
  -28.7770  -21.8970   17.5775 O   0  0  0  0  0  0  0  0  0  0  0  0
  -23.7766   -9.3674   17.2961 O   0  0  0  0  0  0  0  0  0  0  0  0
  -25.9670  -31.3655   22.8373 O   0  0  0  0  0  0  0  0  0  0  0  0
  -28.7776  -23.4511   21.3232 O   0  0  0  0  0  0  0  0  0  0  0  0
  -21.9951  -32.0540   21.9199 O   0  0  0  0  0  0  0  0  0  0  0  0
  -21.1403  -27.3907   22.1292 O   0  0  0  0  0  0  0  0  0  0  0  0
  -31.4504  -15.1019   19.4873 O   0  0  0  0  0  0  0  0  0  0  0  0
  -20.4825  -11.8085   23.9124 O   0  0  0  0  0  0  0  0  0  0  0  0
  -27.6287  -25.8211   20.7919 O   0  0  0  0  0  0  0  0  0  1  0  0
  -15.5486  -13.1918   21.8758 F   0  0  0  0  0  0  0  0  0  0  0  0
  -19.2094  -14.1229   24.7284 F   0  0  0  0  0  0  0  0  0  0  0  0
  1  2  1  0  0  0  0
  1  7  2  0  0  0  0
  2  8  2  0  0  0  0
  3 12  2  0  0  0  0
  3 19  1  0  0  0  0
  4 13  1  0  0  0  0
  4 19  2  0  0  0  0
  5 10  2  0  0  0  0
  5 20  1  0  0  0  0
  6 11  1  0  0  0  0
  6 20  2  0  0  0  0
  7 22  1  0  0  0  0
  8 24  1  0  0  0  0
  9 14  2  0  0  0  0
  9 23  1  0  0  0  0
 10 26  1  0  0  0  0
 11 26  2  0  0  0  0
 12 27  1  0  0  0  0
 13 27  2  0  0  0  0
 14 28  1  0  0  0  0
 15 16  2  0  0  0  0
 15 29  1  0  0  0  0
 16 30  1  0  0  0  0
 17 25  1  0  0  0  0
 17 28  2  0  0  0  0
 18 30  2  0  0  0  0
 18 31  1  0  0  0  0
 19 32  1  0  0  0  0
 20 34  1  0  0  0  0
 21 32  1  0  0  0  0
 21 33  2  0  0  0  0
 21 35  1  0  0  0  0
 22 24  2  0  0  0  0
 22 41  1  0  0  0  0
 23 25  2  0  0  0  0
 23 42  1  0  0  0  0
 24 50  1  0  0  0  0
 25 43  1  0  0  0  0
 26 69  1  0  0  0  0
 27 81  1  0  0  0  0
 28 82  1  0  0  0  0
 29 31  2  0  0  0  0
 29 81  1  0  0  0  0
 30 83  1  0  0  0  0
 31 84  1  0  0  0  0
 32 63  2  0  0  0  0
 33 64  1  0  0  0  0
 33 67  1  0  0  0  0
 34 70  1  0  0  0  0
 34 74  2  0  0  0  0
 35 68  1  0  0  0  0
 35 75  2  0  0  0  0
 36 51  1  0  0  0  0
 36 71  1  0  0  0  0
 36 76  2  0  0  0  0
 37 58  1  0  0  0  0
 37 59  1  0  0  0  0
 37 77  2  0  0  0  0
 38 60  1  0  0  0  0
 38 65  1  0  0  0  0
 38 78  2  0  0  0  0
 39 61  1  0  0  0  0
 39 72  1  0  0  0  0
 39 79  2  0  0  0  0
 40 66  1  0  0  0  0
 40 69  1  0  0  0  0
 40 80  2  0  0  0  0
 41 44  1  0  0  0  0
 42 51  1  0  0  0  0
 43 65  1  0  0  0  0
 44 46  1  0  0  0  0
 45 47  1  0  0  0  0
 45 48  1  0  0  0  0
 46 50  1  0  0  0  0
 47 52  1  0  0  0  0
 48 66  1  0  0  0  0
 49 52  1  0  0  0  0
 49 66  1  0  0  0  0
 50 71  1  0  0  0  0
 51 65  1  0  0  0  0
 52 64  1  0  0  0  0
 53 61  1  0  0  0  0
 54 62  1  0  0  0  0
 55 62  1  0  0  0  0
 56 62  1  0  0  0  0
 57 73  1  0  0  0  0
 58 70  1  0  0  0  0
 59 82  1  0  0  0  0
 60 62  1  0  0  0  0
 60 72  1  0  0  0  0
 61 73  1  0  0  0  0
 63 64  1  0  0  0  0
M  CHG  1  73   1
M  ISO  4  40 100  59 101  69 100  82 101
M  END
> <Batch ID>
0084

> <Smiles>
CNC(C)C(=O)NC(C(=O)N1Cc2cc([101O:1][101CH2:1]C(=O)CNC(=O)c3ccc([100NH:0][100C:0](=O)N4CCCC(n5nc(-c6ccc(Oc7ccc(F)cc7F)cc6)c(C(N)=O)c5N)C4)cc3)ccc2CC1C(=O)NC1CCCc2ccccc21)C(C)(C)C

> <Shape>
0.281

> <Color>
0.087

> <Negative vol penalty>
0.000

$$$$

  -OEChem-04052300123D

 83 92  0     1  0  0  0  0  0999 V2000
  -29.1262  -37.2164   21.8410 C   0  0  0  0  0  0  0  0  0  0  0  0
  -29.3913  -35.9287   21.3859 C   0  0  0  0  0  0  0  0  0  0  0  0
  -24.4366   -8.5349   20.1461 C   0  0  0  0  0  0  0  0  0  0  0  0
  -23.0814  -10.3931   20.8860 C   0  0  0  0  0  0  0  0  0  0  0  0
  -28.2065  -37.4153   22.8699 C   0  0  0  0  0  0  0  0  0  0  0  0
  -28.7376  -34.8391   21.9603 C   0  0  0  0  0  0  0  0  0  0  0  0
  -26.9504  -29.7093   19.1323 C   0  0  0  0  0  0  0  0  0  0  0  0
  -29.1660  -20.3563   19.9135 C   0  0  0  0  0  0  0  0  0  0  0  0
  -29.3013  -18.9922   20.1712 C   0  0  0  0  0  0  0  0  0  0  0  0
  -23.5112   -7.6437   20.6893 C   0  0  0  0  0  0  0  0  0  0  0  0
  -22.1560   -9.5020   21.4292 C   0  0  0  0  0  0  0  0  0  0  0  0
  -27.5209  -28.4404   19.0422 C   0  0  0  0  0  0  0  0  0  0  0  0
  -19.6444   -7.5347   20.3147 C   0  0  0  0  0  0  0  0  0  0  0  0
  -18.2925   -7.7800   20.0742 C   0  0  0  0  0  0  0  0  0  0  0  0
  -26.1391  -27.6958   20.8740 C   0  0  0  0  0  0  0  0  0  0  0  0
  -27.8330  -18.4965   18.3176 C   0  0  0  0  0  0  0  0  0  0  0  0
  -17.9018   -7.9576   22.4518 C   0  0  0  0  0  0  0  0  0  0  0  0
  -24.2217   -9.9096   20.2445 C   0  0  0  0  0  0  0  0  0  0  0  0
  -25.1862  -11.3571   18.3785 C   0  0  0  0  0  0  0  0  0  0  0  0
  -27.5340  -36.3285   23.4505 C   0  0  0  0  0  0  0  0  0  0  0  0
  -25.9762  -29.9845   20.1026 C   0  0  0  0  0  0  0  0  0  0  0  0
  -27.8090  -35.0236   22.9988 C   0  0  0  0  0  0  0  0  0  0  0  0
  -25.5560  -28.9683   20.9726 C   0  0  0  0  0  0  0  0  0  0  0  0
  -28.3642  -20.7906   18.8579 C   0  0  0  0  0  0  0  0  0  0  0  0
  -28.6348  -18.0622   19.3733 C   0  0  0  0  0  0  0  0  0  0  0  0
  -22.3709   -8.1272   21.3308 C   0  0  0  0  0  0  0  0  0  0  0  0
  -27.1174  -27.4342   19.9150 C   0  0  0  0  0  0  0  0  0  0  0  0
  -20.1250   -7.5008   21.6237 C   0  0  0  0  0  0  0  0  0  0  0  0
  -17.4212   -7.9914   21.1427 C   0  0  0  0  0  0  0  0  0  0  0  0
  -27.6978  -19.8606   18.0600 C   0  0  0  0  0  0  0  0  0  0  0  0
  -19.2537   -7.7123   22.6923 C   0  0  0  0  0  0  0  0  0  0  0  0
  -25.1776  -10.8307   19.6841 C   0  0  0  0  0  0  0  0  0  0  0  0
  -26.2889  -12.1754   18.3455 C   0  0  0  0  0  0  0  0  0  0  0  0
  -27.5386  -24.0243   18.8485 C   0  0  0  0  0  0  0  0  0  0  0  0
  -27.0773  -25.2776   19.0104 C   0  0  0  0  0  0  0  0  0  1  0  0
  -24.2787  -11.1271   17.2926 C   0  0  0  0  0  0  0  0  0  0  0  0
  -25.7724  -31.9696   22.5768 C   0  0  0  0  0  0  0  0  0  0  0  0
  -22.7269  -30.8616   22.7162 C   0  0  0  0  0  0  0  0  0  0  0  0
  -20.5147  -28.3682   21.9842 C   0  0  0  0  0  0  0  0  0  0  0  0
  -29.5286  -16.0781   20.6425 C   0  0  0  0  0  0  0  0  0  0  0  0
  -26.5835  -36.5889   24.5922 C   0  0  0  0  0  0  0  0  0  0  0  0
  -25.3512  -31.3510   20.1693 C   0  0  0  0  0  0  0  0  0  0  0  0
  -24.4990  -29.2067   22.0188 C   0  0  0  0  0  0  0  0  0  0  0  0
  -27.1042  -22.8326   18.0391 C   0  0  0  0  0  0  0  0  0  0  0  0
  -28.6995  -23.2438   19.4029 C   0  0  0  0  0  0  0  0  0  0  0  0
  -25.6557  -35.4144   24.8922 C   0  0  0  0  0  0  0  0  0  0  0  0
  -30.0957  -12.7073   21.6390 C   0  0  0  0  0  0  0  0  0  0  0  0
  -26.4435  -34.1089   24.9338 C   0  0  0  0  0  0  0  0  0  0  0  0
  -28.8674  -11.9619   21.1119 C   0  0  0  0  0  0  0  0  0  0  0  0
  -29.7387  -14.1059   22.1395 C   0  0  0  0  0  0  0  0  0  0  0  0
  -27.7768  -14.1949   20.6522 C   0  0  0  0  0  0  0  0  0  0  0  0
  -27.1017  -33.8184   23.5796 C   0  0  1  0  0  0  0  0  0  0  0  0
  -24.7381  -31.6618   21.5313 C   0  0  1  0  0  0  0  0  0  0  0  0
  -28.0973  -12.8056   20.0771 C   0  0  2  0  0  0  0  0  0  0  0  0
  -18.1028  -27.7314   22.2580 C   0  0  0  0  0  0  0  0  0  0  0  0
  -23.2423  -30.1779   25.6448 C   0  0  0  0  0  0  0  0  0  0  0  0
  -21.2060  -28.7224   25.5911 C   0  0  0  0  0  0  0  0  0  0  0  0
  -20.9950  -31.1748   25.1862 C   0  0  0  0  0  0  0  0  0  0  0  0
  -20.0903  -28.2614   19.0571 C   0  0  0  0  0  0  0  0  0  0  0  0
  -22.0387  -29.7103   23.4090 C   0  0  1  0  0  0  0  0  0  0  0  0
  -19.1315  -28.4000   21.3594 C   0  0  2  0  0  0  0  0  0  0  0  0
  -21.8919  -29.9421   24.9394 C   0  0  0  0  0  0  0  0  0  0  0  0
  -26.1941  -11.2769   20.4267 N   0  0  0  0  0  0  0  0  0  0  0  0
  -26.8519  -12.0923   19.5850 N   0  0  0  0  0  0  0  0  0  0  0  0
  -28.2302  -22.1508   18.6045 N   0  0  0  0  0  0  0  0  0  0  0  0
  -23.9225  -30.5611   22.0484 N   0  0  0  0  0  0  0  0  0  0  0  0
  -29.0150  -14.8481   21.1050 N   0  0  0  0  0  0  0  0  0  0  0  0
  -26.8221  -12.9506   17.3775 N   0  0  0  0  0  0  0  0  0  0  0  0
  -23.1989  -10.2572   17.4971 N   0  0  0  0  0  0  0  0  0  0  0  0
  -28.7723  -16.6765   19.6352 N   0  0  0  0  0  0  0  0  0  0  0  0
  -26.1256  -33.3039   22.6432 N   0  0  0  0  0  0  0  0  0  0  0  0
  -20.7734  -29.5112   22.7107 N   0  0  0  0  0  0  0  0  0  0  0  0
  -19.1394  -27.6935   20.0473 N   0  3  0  0  0  0  0  0  0  0  0  0
  -24.4304  -11.6638   16.1690 O   0  0  0  0  0  0  0  0  0  0  0  0
  -26.2160  -31.0638   23.2729 O   0  0  0  0  0  0  0  0  0  0  0  0
  -22.2184  -31.9846   22.7596 O   0  0  0  0  0  0  0  0  0  0  0  0
  -21.2868  -27.4222   21.8449 O   0  0  0  0  0  0  0  0  0  0  0  0
  -30.5776  -16.5515   21.0867 O   0  0  0  0  0  0  0  0  0  0  0  0
  -21.4676   -7.2579   21.8608 O   0  0  0  0  0  0  0  0  0  0  0  0
  -27.6731  -26.1949   19.8297 O   0  0  0  0  0  0  0  0  0  1  0  0
  -16.1233   -8.2285   20.9115 F   0  0  0  0  0  0  0  0  0  0  0  0
  -26.9236  -20.2674   17.0438 F   0  0  0  0  0  0  0  0  0  0  0  0
  -19.7098   -7.6821   23.9520 F   0  0  0  0  0  0  0  0  0  0  0  0
  1  2  1  0  0  0  0
  1  5  2  0  0  0  0
  2  6  2  0  0  0  0
  3 10  2  0  0  0  0
  3 18  1  0  0  0  0
  4 11  1  0  0  0  0
  4 18  2  0  0  0  0
  5 20  1  0  0  0  0
  6 22  1  0  0  0  0
  7 12  2  0  0  0  0
  7 21  1  0  0  0  0
  8  9  2  0  0  0  0
  8 24  1  0  0  0  0
  9 25  1  0  0  0  0
 10 26  1  0  0  0  0
 11 26  2  0  0  0  0
 12 27  1  0  0  0  0
 13 14  2  0  0  0  0
 13 28  1  0  0  0  0
 14 29  1  0  0  0  0
 15 23  1  0  0  0  0
 15 27  2  0  0  0  0
 16 25  2  0  0  0  0
 16 30  1  0  0  0  0
 17 29  2  0  0  0  0
 17 31  1  0  0  0  0
 18 32  1  0  0  0  0
 19 32  1  0  0  0  0
 19 33  2  0  0  0  0
 19 36  1  0  0  0  0
 20 22  2  0  0  0  0
 20 41  1  0  0  0  0
 21 23  2  0  0  0  0
 21 42  1  0  0  0  0
 22 52  1  0  0  0  0
 23 43  1  0  0  0  0
 24 30  2  0  0  0  0
 24 65  1  0  0  0  0
 25 70  1  0  0  0  0
 26 79  1  0  0  0  0
 27 80  1  0  0  0  0
 28 31  2  0  0  0  0
 28 79  1  0  0  0  0
 29 81  1  0  0  0  0
 30 82  1  0  0  0  0
 31 83  1  0  0  0  0
 32 63  2  0  0  0  0
 33 64  1  0  0  0  0
 33 68  1  0  0  0  0
 34 35  2  0  0  0  0
 34 44  1  0  0  0  0
 34 45  1  0  0  0  0
 35 80  1  0  0  0  0
 36 69  1  0  0  0  0
 36 74  2  0  0  0  0
 37 53  1  0  0  0  0
 37 71  1  0  0  0  0
 37 75  2  0  0  0  0
 38 60  1  0  0  0  0
 38 66  1  0  0  0  0
 38 76  2  0  0  0  0
 39 61  1  0  0  0  0
 39 72  1  0  0  0  0
 39 77  2  0  0  0  0
 40 67  1  0  0  0  0
 40 70  1  0  0  0  0
 40 78  2  0  0  0  0
 41 46  1  0  0  0  0
 42 53  1  0  0  0  0
 43 66  1  0  0  0  0
 44 65  1  0  0  0  0
 45 65  1  0  0  0  0
 46 48  1  0  0  0  0
 47 49  1  0  0  0  0
 47 50  1  0  0  0  0
 48 52  1  0  0  0  0
 49 54  1  0  0  0  0
 50 67  1  0  0  0  0
 51 54  1  0  0  0  0
 51 67  1  0  0  0  0
 52 71  1  0  0  0  0
 53 66  1  0  0  0  0
 54 64  1  0  0  0  0
 55 61  1  0  0  0  0
 56 62  1  0  0  0  0
 57 62  1  0  0  0  0
 58 62  1  0  0  0  0
 59 73  1  0  0  0  0
 60 62  1  0  0  0  0
 60 72  1  0  0  0  0
 61 73  1  0  0  0  0
 63 64  1  0  0  0  0
M  CHG  1  73   1
M  ISO  4  35 101  40 100  70 100  80 101
M  END
> <Batch ID>
0084

> <Smiles>
CNC(C)C(=O)NC(C(=O)N1Cc2cc([101O:1][101CH:1]=C3CN(c4ccc([100NH:0][100C:0](=O)N5CCCC(n6nc(-c7ccc(Oc8ccc(F)cc8F)cc7)c(C(N)=O)c6N)C5)cc4F)C3)ccc2CC1C(=O)NC1CCCc2ccccc21)C(C)(C)C

> <Shape>
0.291

> <Color>
0.102

> <Negative vol penalty>
0.000

$$$$

  -OEChem-04052300123D

 83 92  0     1  0  0  0  0  0999 V2000
  -27.3675  -37.7450   23.8656 C   0  0  0  0  0  0  0  0  0  0  0  0
  -27.9570  -36.8019   23.0298 C   0  0  0  0  0  0  0  0  0  0  0  0
  -24.1813   -9.2922   22.1889 C   0  0  0  0  0  0  0  0  0  0  0  0
  -22.9180  -11.2744   21.6302 C   0  0  0  0  0  0  0  0  0  0  0  0
  -26.4797  -37.3357   24.8597 C   0  0  0  0  0  0  0  0  0  0  0  0
  -27.6598  -35.4488   23.1884 C   0  0  0  0  0  0  0  0  0  0  0  0
  -26.9126  -29.4156   19.3992 C   0  0  0  0  0  0  0  0  0  0  0  0
  -26.2945  -19.4048   19.1182 C   0  0  0  0  0  0  0  0  0  0  0  0
  -28.5717  -19.7743   19.8357 C   0  0  0  0  0  0  0  0  0  0  0  0
  -26.5615  -18.0437   18.9714 C   0  0  0  0  0  0  0  0  0  0  0  0
  -28.8387  -18.4131   19.6889 C   0  0  0  0  0  0  0  0  0  0  0  0
  -23.3114   -9.0365   23.2488 C   0  0  0  0  0  0  0  0  0  0  0  0
  -22.0480  -11.0187   22.6901 C   0  0  0  0  0  0  0  0  0  0  0  0
  -27.3666  -28.0976   19.3719 C   0  0  0  0  0  0  0  0  0  0  0  0
  -20.2207   -7.7332   23.6758 C   0  0  0  0  0  0  0  0  0  0  0  0
  -19.7640   -6.4253   23.8385 C   0  0  0  0  0  0  0  0  0  0  0  0
  -25.7575  -27.5145   21.0718 C   0  0  0  0  0  0  0  0  0  0  0  0
  -20.7524   -6.3542   26.0419 C   0  0  0  0  0  0  0  0  0  0  0  0
  -23.9846  -10.4112   21.3796 C   0  0  0  0  0  0  0  0  0  0  0  0
  -24.7619  -10.2248   18.9571 C   0  0  0  0  0  0  0  0  0  0  0  0
  -26.1641  -35.9778   25.0243 C   0  0  0  0  0  0  0  0  0  0  0  0
  -25.8833  -29.7959   20.2723 C   0  0  0  0  0  0  0  0  0  0  0  0
  -26.7680  -35.0208   24.1865 C   0  0  0  0  0  0  0  0  0  0  0  0
  -25.2905  -28.8373   21.1065 C   0  0  0  0  0  0  0  0  0  0  0  0
  -27.2996  -20.2701   19.5503 C   0  0  0  0  0  0  0  0  0  0  0  0
  -27.8336  -17.5478   19.2568 C   0  0  0  0  0  0  0  0  0  0  0  0
  -22.2447   -9.8997   23.4994 C   0  0  0  0  0  0  0  0  0  0  0  0
  -26.7910  -27.1475   20.2103 C   0  0  0  0  0  0  0  0  0  0  0  0
  -20.9434   -8.3516   24.6961 C   0  0  0  0  0  0  0  0  0  0  0  0
  -20.0298   -5.7359   25.0215 C   0  0  0  0  0  0  0  0  0  0  0  0
  -21.2091   -7.6621   25.8792 C   0  0  0  0  0  0  0  0  0  0  0  0
  -24.8833  -10.6762   20.2849 C   0  0  0  0  0  0  0  0  0  0  0  0
  -25.8596  -10.7447   18.3159 C   0  0  0  0  0  0  0  0  0  0  0  0
  -26.6631  -23.5750   19.8063 C   0  0  0  0  0  0  0  0  0  0  0  0
  -25.9191  -22.3542   19.4940 C   0  0  0  0  0  0  0  0  0  0  0  0
  -26.3384  -24.8794   19.8614 C   0  0  0  0  0  0  0  0  0  1  0  0
  -23.7475   -9.4085   18.3568 C   0  0  0  0  0  0  0  0  0  0  0  0
  -25.6404  -31.8305   22.7024 C   0  0  0  0  0  0  0  0  0  0  0  0
  -22.5040  -31.0140   22.5646 C   0  0  0  0  0  0  0  0  0  0  0  0
  -20.1433  -28.7267   21.6470 C   0  0  0  0  0  0  0  0  0  0  0  0
  -29.3128  -15.5107   19.3485 C   0  0  0  0  0  0  0  0  0  0  0  0
  -25.2352  -35.5790   26.1436 C   0  0  0  0  0  0  0  0  0  0  0  0
  -25.3867  -31.2157   20.2705 C   0  0  0  0  0  0  0  0  0  0  0  0
  -24.1687  -29.1900   22.0476 C   0  0  0  0  0  0  0  0  0  0  0  0
  -27.8996  -22.7333   20.0236 C   0  0  0  0  0  0  0  0  0  0  0  0
  -24.6852  -34.1619   26.0029 C   0  0  0  0  0  0  0  0  0  0  0  0
  -30.3734  -12.1185   19.1363 C   0  0  0  0  0  0  0  0  0  0  0  0
  -25.8053  -33.1867   25.6545 C   0  0  0  0  0  0  0  0  0  0  0  0
  -29.0741  -11.3227   19.2798 C   0  0  0  0  0  0  0  0  0  0  0  0
  -30.3747  -13.3661   20.0178 C   0  0  0  0  0  0  0  0  0  0  0  0
  -27.9128  -13.4513   19.9922 C   0  0  0  0  0  0  0  0  0  0  0  0
  -26.4518  -33.5462   24.3113 C   0  0  1  0  0  0  0  0  0  0  0  0
  -24.6826  -31.6040   21.5670 C   0  0  1  0  0  0  0  0  0  0  0  0
  -27.8380  -12.2202   19.0743 C   0  0  2  0  0  0  0  0  0  0  0  0
  -17.6672  -28.3223   21.6989 C   0  0  0  0  0  0  0  0  0  0  0  0
  -22.6801  -30.3319   25.5334 C   0  0  0  0  0  0  0  0  0  0  0  0
  -20.5291  -29.0722   25.3002 C   0  0  0  0  0  0  0  0  0  0  0  0
  -20.5889  -31.5268   24.8597 C   0  0  0  0  0  0  0  0  0  0  0  0
  -19.9827  -28.6134   18.6940 C   0  0  0  0  0  0  0  0  0  0  0  0
  -21.6492  -29.9432   23.1984 C   0  0  1  0  0  0  0  0  0  0  0  0
  -18.8330  -28.8776   20.8956 C   0  0  2  0  0  0  0  0  0  0  0  0
  -21.3843  -30.2120   24.7067 C   0  0  0  0  0  0  0  0  0  0  0  0
  -25.9723  -11.4252   20.4774 N   0  0  0  0  0  0  0  0  0  0  0  0
  -26.5453  -11.4483   19.2620 N   0  0  0  0  0  0  0  0  0  0  0  0
  -27.0365  -21.6126   19.6947 N   0  0  0  0  0  0  0  0  0  0  0  0
  -23.7225  -30.5926   22.0136 N   0  0  0  0  0  0  0  0  0  0  0  0
  -29.1767  -14.1697   19.7656 N   0  0  0  0  0  0  0  0  0  0  0  0
  -26.2957  -10.6641   17.0409 N   0  0  0  0  0  0  0  0  0  0  0  0
  -22.6896   -8.9596   19.1591 N   0  0  0  0  0  0  0  0  0  0  0  0
  -28.1052  -16.1651   19.1078 N   0  0  0  0  0  0  0  0  0  0  0  0
  -25.6125  -33.1135   23.2146 N   0  0  0  0  0  0  0  0  0  0  0  0
  -20.4406  -29.8519   22.3864 N   0  0  0  0  0  0  0  0  0  0  0  0
  -18.8952  -28.1526   19.5950 N   0  3  0  0  0  0  0  0  0  0  0  0
  -24.7764  -22.1020   19.1729 O   0  0  0  0  0  0  0  0  0  0  0  0
  -23.7869   -9.0732   17.1487 O   0  0  0  0  0  0  0  0  0  0  0  0
  -26.3510  -30.9089   23.0863 O   0  0  0  0  0  0  0  0  0  0  0  0
  -22.1021  -32.1802   22.5523 O   0  0  0  0  0  0  0  0  0  0  0  0
  -20.8322  -27.7106   21.5873 O   0  0  0  0  0  0  0  0  0  0  0  0
  -30.4198  -16.0313   19.1885 O   0  0  0  0  0  0  0  0  0  0  0  0
  -21.3955   -9.6504   24.5334 O   0  0  0  0  0  0  0  0  0  0  0  0
  -27.2327  -25.8606   20.1862 O   0  0  0  0  0  0  0  0  0  1  0  0
  -19.5898   -4.4805   25.1782 F   0  0  0  0  0  0  0  0  0  0  0  0
  -21.9018   -8.2514   26.8635 F   0  0  0  0  0  0  0  0  0  0  0  0
  1  2  1  0  0  0  0
  1  5  2  0  0  0  0
  2  6  2  0  0  0  0
  3 12  2  0  0  0  0
  3 19  1  0  0  0  0
  4 13  1  0  0  0  0
  4 19  2  0  0  0  0
  5 21  1  0  0  0  0
  6 23  1  0  0  0  0
  7 14  2  0  0  0  0
  7 22  1  0  0  0  0
  8 10  2  0  0  0  0
  8 25  1  0  0  0  0
  9 11  1  0  0  0  0
  9 25  2  0  0  0  0
 10 26  1  0  0  0  0
 11 26  2  0  0  0  0
 12 27  1  0  0  0  0
 13 27  2  0  0  0  0
 14 28  1  0  0  0  0
 15 16  2  0  0  0  0
 15 29  1  0  0  0  0
 16 30  1  0  0  0  0
 17 24  1  0  0  0  0
 17 28  2  0  0  0  0
 18 30  2  0  0  0  0
 18 31  1  0  0  0  0
 19 32  1  0  0  0  0
 20 32  1  0  0  0  0
 20 33  2  0  0  0  0
 20 37  1  0  0  0  0
 21 23  2  0  0  0  0
 21 42  1  0  0  0  0
 22 24  2  0  0  0  0
 22 43  1  0  0  0  0
 23 52  1  0  0  0  0
 24 44  1  0  0  0  0
 25 65  1  0  0  0  0
 26 70  1  0  0  0  0
 27 80  1  0  0  0  0
 28 81  1  0  0  0  0
 29 31  2  0  0  0  0
 29 80  1  0  0  0  0
 30 82  1  0  0  0  0
 31 83  1  0  0  0  0
 32 63  2  0  0  0  0
 33 64  1  0  0  0  0
 33 68  1  0  0  0  0
 34 35  1  0  0  0  0
 34 36  2  0  0  0  0
 34 45  1  0  0  0  0
 35 65  1  0  0  0  0
 35 74  2  0  0  0  0
 36 81  1  0  0  0  0
 37 69  1  0  0  0  0
 37 75  2  0  0  0  0
 38 53  1  0  0  0  0
 38 71  1  0  0  0  0
 38 76  2  0  0  0  0
 39 60  1  0  0  0  0
 39 66  1  0  0  0  0
 39 77  2  0  0  0  0
 40 61  1  0  0  0  0
 40 72  1  0  0  0  0
 40 78  2  0  0  0  0
 41 67  1  0  0  0  0
 41 70  1  0  0  0  0
 41 79  2  0  0  0  0
 42 46  1  0  0  0  0
 43 53  1  0  0  0  0
 44 66  1  0  0  0  0
 45 65  1  0  0  0  0
 46 48  1  0  0  0  0
 47 49  1  0  0  0  0
 47 50  1  0  0  0  0
 48 52  1  0  0  0  0
 49 54  1  0  0  0  0
 50 67  1  0  0  0  0
 51 54  1  0  0  0  0
 51 67  1  0  0  0  0
 52 71  1  0  0  0  0
 53 66  1  0  0  0  0
 54 64  1  0  0  0  0
 55 61  1  0  0  0  0
 56 62  1  0  0  0  0
 57 62  1  0  0  0  0
 58 62  1  0  0  0  0
 59 73  1  0  0  0  0
 60 62  1  0  0  0  0
 60 72  1  0  0  0  0
 61 73  1  0  0  0  0
 63 64  1  0  0  0  0
M  CHG  1  73   1
M  ISO  4  36 101  41 100  70 100  81 101
M  END
> <Batch ID>
0084

> <Smiles>
CNC(C)C(=O)NC(C(=O)N1Cc2cc([101O:1][101CH:1]=C3CN(c4ccc([100NH:0][100C:0](=O)N5CCCC(n6nc(-c7ccc(Oc8ccc(F)cc8F)cc7)c(C(N)=O)c6N)C5)cc4)C3=O)ccc2CC1C(=O)NC1CCCc2ccccc21)C(C)(C)C

> <Shape>
0.292

> <Color>
0.088

> <Negative vol penalty>
0.000

$$$$

  -OEChem-04052300123D

 84 93  0     1  0  0  0  0  0999 V2000
  -16.6402  -28.9256   24.2157 C   0  0  0  0  0  0  0  0  0  0  0  0
  -17.5335  -27.8592   24.2070 C   0  0  0  0  0  0  0  0  0  0  0  0
  -32.5357  -18.4685   21.6484 C   0  0  0  0  0  0  0  0  0  0  0  0
  -23.0566   -9.9662   21.5324 C   0  0  0  0  0  0  0  0  0  0  0  0
  -23.7558  -10.9675   23.6171 C   0  0  0  0  0  0  0  0  0  0  0  0
  -16.8949  -30.0533   23.4364 C   0  0  0  0  0  0  0  0  0  0  0  0
  -18.6816  -27.9194   23.4179 C   0  0  0  0  0  0  0  0  0  0  0  0
  -24.1774  -25.5559   24.7281 C   0  0  0  0  0  0  0  0  0  0  0  0
  -31.7206  -19.5643   21.9320 C   0  0  0  0  0  0  0  0  0  0  0  0
  -31.9693  -17.2759   21.1983 C   0  0  0  0  0  0  0  0  0  0  0  0
  -22.3069   -9.0239   22.2364 C   0  0  0  0  0  0  0  0  0  0  0  0
  -23.0060  -10.0252   24.3211 C   0  0  0  0  0  0  0  0  0  0  0  0
  -24.8069  -24.3740   24.3399 C   0  0  0  0  0  0  0  0  0  0  0  0
  -22.8729   -6.1599   23.9397 C   0  0  0  0  0  0  0  0  0  0  0  0
  -22.9649   -4.8276   23.5370 C   0  0  0  0  0  0  0  0  0  0  0  0
  -25.9416  -25.5651   22.5755 C   0  0  0  0  0  0  0  0  0  0  0  0
  -20.5904   -4.7981   23.0920 C   0  0  0  0  0  0  0  0  0  0  0  0
  -23.7811  -10.9380   22.2228 C   0  0  0  0  0  0  0  0  0  0  0  0
  -24.1249  -13.1701   21.0365 C   0  0  0  0  0  0  0  0  0  0  0  0
  -18.0516  -30.1313   22.6448 C   0  0  0  0  0  0  0  0  0  0  0  0
  -24.4173  -26.7510   24.0349 C   0  0  0  0  0  0  0  0  0  0  0  0
  -18.9514  -29.0486   22.6261 C   0  0  0  0  0  0  0  0  0  0  0  0
  -25.3158  -26.7612   22.9585 C   0  0  0  0  0  0  0  0  0  0  0  0
  -30.3391  -19.4675   21.7656 C   0  0  0  0  0  0  0  0  0  0  0  0
  -30.5878  -17.1791   21.0319 C   0  0  0  0  0  0  0  0  0  0  0  0
  -22.2816   -9.0534   23.6307 C   0  0  0  0  0  0  0  0  0  0  0  0
  -25.6869  -24.3779   23.2617 C   0  0  0  0  0  0  0  0  0  0  0  0
  -21.6396   -6.8113   23.9186 C   0  0  0  0  0  0  0  0  0  0  0  0
  -21.8237   -4.1467   23.1131 C   0  0  0  0  0  0  0  0  0  0  0  0
  -20.4984   -6.1304   23.4947 C   0  0  0  0  0  0  0  0  0  0  0  0
  -29.7726  -18.2749   21.3155 C   0  0  0  0  0  0  0  0  0  0  0  0
  -24.5562  -11.9113   21.4962 C   0  0  0  0  0  0  0  0  0  0  0  0
  -25.2259  -13.7033   20.4121 C   0  0  0  0  0  0  0  0  0  0  0  0
  -28.3814  -22.1027   22.5505 C   0  0  0  0  0  0  0  0  0  0  0  0
  -29.8123  -21.8028   22.4873 C   0  0  0  0  0  0  0  0  0  0  0  0
  -27.6681  -23.1867   22.9055 C   0  0  0  0  0  0  0  0  0  1  0  0
  -22.8436  -13.8009   21.1627 C   0  0  0  0  0  0  0  0  0  0  0  0
  -22.6255  -28.7672   22.3532 C   0  0  0  0  0  0  0  0  0  0  0  0
  -25.3493  -30.5280   22.2961 C   0  0  0  0  0  0  0  0  0  0  0  0
  -28.7542  -30.6053   22.5132 C   0  0  0  0  0  0  0  0  0  0  0  0
  -30.6851  -14.7866   20.2492 C   0  0  0  0  0  0  0  0  0  0  0  0
  -18.2602  -31.3511   21.7826 C   0  0  0  0  0  0  0  0  0  0  0  0
  -23.7508  -28.0228   24.4829 C   0  0  0  0  0  0  0  0  0  0  0  0
  -25.6231  -28.0220   22.1940 C   0  0  0  0  0  0  0  0  0  0  0  0
  -28.0940  -20.7020   22.0604 C   0  0  0  0  0  0  0  0  0  0  0  0
  -19.6885  -31.4924   21.2627 C   0  0  0  0  0  0  0  0  0  0  0  0
  -29.6346  -11.5761   19.1237 C   0  0  0  0  0  0  0  0  0  0  0  0
  -20.1894  -30.1620   20.7095 C   0  0  0  0  0  0  0  0  0  0  0  0
  -28.1843  -11.4807   19.6028 C   0  0  0  0  0  0  0  0  0  0  0  0
  -30.5176  -12.3101   20.1314 C   0  0  0  0  0  0  0  0  0  0  0  0
  -28.5746  -13.5355   21.0213 C   0  0  0  0  0  0  0  0  0  0  0  0
  -20.2203  -29.0867   21.8024 C   0  0  1  0  0  0  0  0  0  0  0  0
  -23.6749  -29.0772   23.3830 C   0  0  1  0  0  0  0  0  0  0  0  0
  -27.6332  -12.8613   20.0099 C   0  0  2  0  0  0  0  0  0  0  0  0
  -30.7007  -32.1844   22.3891 C   0  0  0  0  0  0  0  0  0  0  0  0
  -25.0770  -30.6210   19.2585 C   0  0  0  0  0  0  0  0  0  0  0  0
  -27.4686  -31.3513   19.1362 C   0  0  0  0  0  0  0  0  0  0  0  0
  -25.7898  -32.7760   20.3085 C   0  0  0  0  0  0  0  0  0  0  0  0
  -29.5741  -29.9968   25.2911 C   0  0  0  0  0  0  0  0  0  0  0  0
  -26.5468  -30.6154   21.3811 C   0  0  1  0  0  0  0  0  0  0  0  0
  -29.6932  -31.5012   23.3007 C   0  0  2  0  0  0  0  0  0  0  0  0
  -26.2135  -31.3166   20.0340 C   0  0  0  0  0  0  0  0  0  0  0  0
  -25.8317  -11.6598   21.1898 N   0  0  0  0  0  0  0  0  0  0  0  0
  -26.2113  -12.7679   20.5308 N   0  0  0  0  0  0  0  0  0  0  0  0
  -29.5382  -20.5502   22.0460 N   0  0  0  0  0  0  0  0  0  0  0  0
  -24.9417  -29.2386   22.6664 N   0  0  0  0  0  0  0  0  0  0  0  0
  -29.9353  -13.6113   20.4666 N   0  0  0  0  0  0  0  0  0  0  0  0
  -25.4376  -14.8764   19.7785 N   0  0  0  0  0  0  0  0  0  0  0  0
  -21.8235  -13.1133   21.8342 N   0  0  0  0  0  0  0  0  0  0  0  0
  -30.0160  -15.9659   20.5746 N   0  0  0  0  0  0  0  0  0  0  0  0
  -21.3739  -29.2679   22.6572 N   0  0  0  0  0  0  0  0  0  0  0  0
  -27.6011  -31.2682   22.1497 N   0  0  0  0  0  0  0  0  0  0  0  0
  -30.4411  -30.7043   24.3140 N   0  3  0  0  0  0  0  0  0  0  0  0
  -30.8307  -22.4132   22.7381 O   0  0  0  0  0  0  0  0  0  0  0  0
  -22.6053  -14.9338   20.6796 O   0  0  0  0  0  0  0  0  0  0  0  0
  -22.9292  -28.1230   21.3561 O   0  0  0  0  0  0  0  0  0  0  0  0
  -24.8002  -31.5658   22.6743 O   0  0  0  0  0  0  0  0  0  0  0  0
  -29.0190  -29.4357   22.2440 O   0  0  0  0  0  0  0  0  0  0  0  0
  -31.8261  -14.7511   19.7813 O   0  0  0  0  0  0  0  0  0  0  0  0
  -21.5500   -8.1342   24.3180 O   0  0  0  0  0  0  0  0  0  0  0  0
  -26.3022  -23.2256   22.8803 O   0  0  0  0  0  0  0  0  0  1  0  0
  -21.9125   -2.8678   22.7250 F   0  0  0  0  0  0  0  0  0  0  0  0
  -19.3110   -6.7512   23.4712 F   0  0  0  0  0  0  0  0  0  0  0  0
  -28.4434  -18.1816   21.1564 F   0  0  0  0  0  0  0  0  0  0  0  0
  1  2  1  0  0  0  0
  1  6  2  0  0  0  0
  2  7  2  0  0  0  0
  3  9  2  0  0  0  0
  3 10  1  0  0  0  0
  4 11  2  0  0  0  0
  4 18  1  0  0  0  0
  5 12  1  0  0  0  0
  5 18  2  0  0  0  0
  6 20  1  0  0  0  0
  7 22  1  0  0  0  0
  8 13  2  0  0  0  0
  8 21  1  0  0  0  0
  9 24  1  0  0  0  0
 10 25  2  0  0  0  0
 11 26  1  0  0  0  0
 12 26  2  0  0  0  0
 13 27  1  0  0  0  0
 14 15  2  0  0  0  0
 14 28  1  0  0  0  0
 15 29  1  0  0  0  0
 16 23  1  0  0  0  0
 16 27  2  0  0  0  0
 17 29  2  0  0  0  0
 17 30  1  0  0  0  0
 18 32  1  0  0  0  0
 19 32  1  0  0  0  0
 19 33  2  0  0  0  0
 19 37  1  0  0  0  0
 20 22  2  0  0  0  0
 20 42  1  0  0  0  0
 21 23  2  0  0  0  0
 21 43  1  0  0  0  0
 22 52  1  0  0  0  0
 23 44  1  0  0  0  0
 24 31  2  0  0  0  0
 24 65  1  0  0  0  0
 25 31  1  0  0  0  0
 25 70  1  0  0  0  0
 26 80  1  0  0  0  0
 27 81  1  0  0  0  0
 28 30  2  0  0  0  0
 28 80  1  0  0  0  0
 29 82  1  0  0  0  0
 30 83  1  0  0  0  0
 31 84  1  0  0  0  0
 32 63  2  0  0  0  0
 33 64  1  0  0  0  0
 33 68  1  0  0  0  0
 34 35  1  0  0  0  0
 34 36  2  0  0  0  0
 34 45  1  0  0  0  0
 35 65  1  0  0  0  0
 35 74  2  0  0  0  0
 36 81  1  0  0  0  0
 37 69  1  0  0  0  0
 37 75  2  0  0  0  0
 38 53  1  0  0  0  0
 38 71  1  0  0  0  0
 38 76  2  0  0  0  0
 39 60  1  0  0  0  0
 39 66  1  0  0  0  0
 39 77  2  0  0  0  0
 40 61  1  0  0  0  0
 40 72  1  0  0  0  0
 40 78  2  0  0  0  0
 41 67  1  0  0  0  0
 41 70  1  0  0  0  0
 41 79  2  0  0  0  0
 42 46  1  0  0  0  0
 43 53  1  0  0  0  0
 44 66  1  0  0  0  0
 45 65  1  0  0  0  0
 46 48  1  0  0  0  0
 47 49  1  0  0  0  0
 47 50  1  0  0  0  0
 48 52  1  0  0  0  0
 49 54  1  0  0  0  0
 50 67  1  0  0  0  0
 51 54  1  0  0  0  0
 51 67  1  0  0  0  0
 52 71  1  0  0  0  0
 53 66  1  0  0  0  0
 54 64  1  0  0  0  0
 55 61  1  0  0  0  0
 56 62  1  0  0  0  0
 57 62  1  0  0  0  0
 58 62  1  0  0  0  0
 59 73  1  0  0  0  0
 60 62  1  0  0  0  0
 60 72  1  0  0  0  0
 61 73  1  0  0  0  0
 63 64  1  0  0  0  0
M  CHG  1  73   1
M  ISO  4  36 101  41 100  70 100  81 101
M  END
> <Batch ID>
0084

> <Smiles>
CNC(C)C(=O)NC(C(=O)N1Cc2cc([101O:1][101CH:1]=C3CN(c4cccc([100NH:0][100C:0](=O)N5CCCC(n6nc(-c7ccc(Oc8ccc(F)cc8F)cc7)c(C(N)=O)c6N)C5)c4F)C3=O)ccc2CC1C(=O)NC1CCCc2ccccc21)C(C)(C)C

> <Shape>
0.281

> <Color>
0.190

> <Negative vol penalty>
0.000

$$$$

  -OEChem-04052300123D

 85 93  0     1  0  0  0  0  0999 V2000
  -17.6235  -25.6616   21.7059 C   0  0  0  0  0  0  0  0  0  0  0  0
  -18.9340  -25.5246   21.2595 C   0  0  0  0  0  0  0  0  0  0  0  0
  -23.4431  -10.3378   22.1665 C   0  0  0  0  0  0  0  0  0  0  0  0
  -22.8001  -12.5633   21.4806 C   0  0  0  0  0  0  0  0  0  0  0  0
  -30.6251  -19.2379   20.1935 C   0  0  0  0  0  0  0  0  0  0  0  0
  -28.4057  -19.4552   19.2640 C   0  0  0  0  0  0  0  0  0  0  0  0
  -17.1144  -26.9277   21.9914 C   0  0  0  0  0  0  0  0  0  0  0  0
  -19.7358  -26.6538   21.0973 C   0  0  0  0  0  0  0  0  0  0  0  0
  -24.3952  -26.0140   22.9750 C   0  0  0  0  0  0  0  0  0  0  0  0
  -30.5372  -17.8505   20.0791 C   0  0  0  0  0  0  0  0  0  0  0  0
  -28.3178  -18.0679   19.1495 C   0  0  0  0  0  0  0  0  0  0  0  0
  -22.4441  -10.3491   23.1399 C   0  0  0  0  0  0  0  0  0  0  0  0
  -21.8010  -12.5746   22.4540 C   0  0  0  0  0  0  0  0  0  0  0  0
  -25.2945  -25.2742   22.2084 C   0  0  0  0  0  0  0  0  0  0  0  0
  -19.0943   -9.9097   23.2764 C   0  0  0  0  0  0  0  0  0  0  0  0
  -18.2977   -8.7715   23.4009 C   0  0  0  0  0  0  0  0  0  0  0  0
  -26.2950  -27.3217   21.4172 C   0  0  0  0  0  0  0  0  0  0  0  0
  -19.0286   -8.5102   25.6889 C   0  0  0  0  0  0  0  0  0  0  0  0
  -23.6212  -11.4449   21.3369 C   0  0  0  0  0  0  0  0  0  0  0  0
  -29.5594  -20.0402   19.7860 C   0  0  0  0  0  0  0  0  0  0  0  0
  -24.5388  -10.9909   19.0004 C   0  0  0  0  0  0  0  0  0  0  0  0
  -17.9134  -28.0722   21.8420 C   0  0  0  0  0  0  0  0  0  0  0  0
  -24.4320  -27.4157   22.9600 C   0  0  0  0  0  0  0  0  0  0  0  0
  -19.2364  -27.9366   21.3799 C   0  0  0  0  0  0  0  0  0  0  0  0
  -25.3967  -28.0769   22.1865 C   0  0  0  0  0  0  0  0  0  0  0  0
  -29.3835  -17.2655   19.5571 C   0  0  0  0  0  0  0  0  0  0  0  0
  -21.6230  -11.4675   23.2836 C   0  0  0  0  0  0  0  0  0  0  0  0
  -26.2428  -25.9281   21.4271 C   0  0  0  0  0  0  0  0  0  0  0  0
  -19.8582  -10.3481   24.3581 C   0  0  0  0  0  0  0  0  0  0  0  0
  -18.2648   -8.0718   24.6072 C   0  0  0  0  0  0  0  0  0  0  0  0
  -19.8253   -9.6484   25.5643 C   0  0  0  0  0  0  0  0  0  0  0  0
  -24.6533  -11.4341   20.3316 C   0  0  0  0  0  0  0  0  0  0  0  0
  -25.7880  -11.1876   18.4643 C   0  0  0  0  0  0  0  0  0  0  0  0
  -26.7627  -24.8862   19.3986 C   0  0  0  0  0  0  0  0  0  1  0  0
  -29.6530  -21.5179   19.9080 C   0  0  0  0  0  0  0  0  0  0  0  0
  -23.4046  -10.4500   18.3100 C   0  0  0  0  0  0  0  0  0  0  0  0
  -27.5278  -24.1826   18.5475 C   0  0  0  0  0  0  0  0  0  0  0  0
  -22.4011  -29.7038   22.0976 C   0  0  0  0  0  0  0  0  0  0  0  0
  -24.6784  -31.6530   23.3372 C   0  0  0  0  0  0  0  0  0  0  0  0
  -27.9559  -32.1172   24.1674 C   0  0  0  0  0  0  0  0  0  0  0  0
  -30.2620  -14.9168   19.7989 C   0  0  0  0  0  0  0  0  0  0  0  0
  -17.3041  -29.4240   22.1179 C   0  0  0  0  0  0  0  0  0  0  0  0
  -23.4722  -28.1987   23.8133 C   0  0  0  0  0  0  0  0  0  0  0  0
  -25.4911  -29.5797   22.1513 C   0  0  0  0  0  0  0  0  0  0  0  0
  -18.3371  -30.5365   22.2780 C   0  0  0  0  0  0  0  0  0  0  0  0
  -30.4103  -11.3607   19.7046 C   0  0  0  0  0  0  0  0  0  0  0  0
  -19.3782  -30.4624   21.1656 C   0  0  0  0  0  0  0  0  0  0  0  0
  -28.9403  -10.9358   19.7274 C   0  0  0  0  0  0  0  0  0  0  0  0
  -30.6588  -12.5903   20.5765 C   0  0  0  0  0  0  0  0  0  0  0  0
  -28.3183  -13.3136   20.3159 C   0  0  0  0  0  0  0  0  0  0  0  0
  -20.1451  -29.1355   21.2152 C   0  0  1  0  0  0  0  0  0  0  0  0
  -23.2670  -29.6288   23.3233 C   0  0  1  0  0  0  0  0  0  0  0  0
  -28.0068  -12.1180   19.4009 C   0  0  2  0  0  0  0  0  0  0  0  0
  -27.0770  -23.8580   17.1472 C   0  0  0  0  0  0  0  0  0  0  0  0
  -30.0315  -24.2237   18.1180 C   0  0  0  0  0  0  0  0  0  0  0  0
  -29.5217  -33.8272   25.1273 C   0  0  0  0  0  0  0  0  0  0  0  0
  -24.6550  -33.1601   20.6843 C   0  0  0  0  0  0  0  0  0  0  0  0
  -26.8358  -34.2023   21.3370 C   0  0  0  0  0  0  0  0  0  0  0  0
  -24.7960  -34.6182   22.7113 C   0  0  0  0  0  0  0  0  0  0  0  0
  -28.6450  -30.3714   26.4557 C   0  0  0  0  0  0  0  0  0  0  0  0
  -28.8942  -23.6928   18.9860 C   0  0  2  0  0  0  0  0  0  0  0  0
  -25.9036  -32.3470   22.7928 C   0  0  1  0  0  0  0  0  0  0  0  0
  -28.6096  -32.6486   25.4302 C   0  0  2  0  0  0  0  0  0  0  0  0
  -25.5448  -33.5536   21.8803 C   0  0  0  0  0  0  0  0  0  0  0  0
  -25.8786  -11.8786   20.6235 N   0  0  0  0  0  0  0  0  0  0  0  0
  -26.5454  -11.7157   19.4681 N   0  0  0  0  0  0  0  0  0  0  0  0
  -24.5265  -30.3011   22.9980 N   0  0  0  0  0  0  0  0  0  0  0  0
  -29.7415  -13.6706   20.2074 N   0  0  0  0  0  0  0  0  0  0  0  0
  -26.3014  -10.9585   17.2370 N   0  0  0  0  0  0  0  0  0  0  0  0
  -22.1977  -10.3162   19.0099 N   0  0  0  0  0  0  0  0  0  0  0  0
  -29.2953  -15.8561   19.4412 N   0  0  0  0  0  0  0  0  0  0  0  0
  -28.8910  -22.2498   19.0095 N   0  0  0  0  0  0  0  0  0  0  0  0
  -21.1396  -29.1655   22.2662 N   0  0  0  0  0  0  0  0  0  0  0  0
  -26.7231  -32.6948   23.9486 N   0  0  0  0  0  0  0  0  0  0  0  0
  -29.4209  -31.5818   26.0819 N   0  3  0  0  0  0  0  0  0  0  0  0
  -30.3936  -22.0040   20.7587 O   0  0  0  0  0  0  0  0  0  0  0  0
  -23.4641  -10.0805   17.1127 O   0  0  0  0  0  0  0  0  0  0  0  0
  -22.8441  -30.2136   21.0751 O   0  0  0  0  0  0  0  0  0  0  0  0
  -23.8890  -32.2851   24.0436 O   0  0  0  0  0  0  0  0  0  0  0  0
  -28.4875  -31.2768   23.4452 O   0  0  0  0  0  0  0  0  0  0  0  0
  -31.4765  -15.1259   19.7427 O   0  0  0  0  0  0  0  0  0  0  0  0
  -20.6479  -11.4787   24.2331 O   0  0  0  0  0  0  0  0  0  0  0  0
  -27.1214  -25.2085   20.6773 O   0  0  0  0  0  0  0  0  0  1  0  0
  -17.4986   -6.9797   24.7271 F   0  0  0  0  0  0  0  0  0  0  0  0
  -20.5560  -10.0655   26.6073 F   0  0  0  0  0  0  0  0  0  0  0  0
  1  2  1  0  0  0  0
  1  7  2  0  0  0  0
  2  8  2  0  0  0  0
  3 12  2  0  0  0  0
  3 19  1  0  0  0  0
  4 13  1  0  0  0  0
  4 19  2  0  0  0  0
  5 10  2  0  0  0  0
  5 20  1  0  0  0  0
  6 11  1  0  0  0  0
  6 20  2  0  0  0  0
  7 22  1  0  0  0  0
  8 24  1  0  0  0  0
  9 14  2  0  0  0  0
  9 23  1  0  0  0  0
 10 26  1  0  0  0  0
 11 26  2  0  0  0  0
 12 27  1  0  0  0  0
 13 27  2  0  0  0  0
 14 28  1  0  0  0  0
 15 16  2  0  0  0  0
 15 29  1  0  0  0  0
 16 30  1  0  0  0  0
 17 25  1  0  0  0  0
 17 28  2  0  0  0  0
 18 30  2  0  0  0  0
 18 31  1  0  0  0  0
 19 32  1  0  0  0  0
 20 35  1  0  0  0  0
 21 32  1  0  0  0  0
 21 33  2  0  0  0  0
 21 36  1  0  0  0  0
 22 24  2  0  0  0  0
 22 42  1  0  0  0  0
 23 25  2  0  0  0  0
 23 43  1  0  0  0  0
 24 51  1  0  0  0  0
 25 44  1  0  0  0  0
 26 71  1  0  0  0  0
 27 82  1  0  0  0  0
 28 83  1  0  0  0  0
 29 31  2  0  0  0  0
 29 82  1  0  0  0  0
 30 84  1  0  0  0  0
 31 85  1  0  0  0  0
 32 65  2  0  0  0  0
 33 66  1  0  0  0  0
 33 69  1  0  0  0  0
 34 37  2  0  0  0  0
 34 83  1  0  0  0  0
 35 72  1  0  0  0  0
 35 76  2  0  0  0  0
 36 70  1  0  0  0  0
 36 77  2  0  0  0  0
 37 54  1  0  0  0  0
 37 61  1  0  0  0  0
 38 52  1  0  0  0  0
 38 73  1  0  0  0  0
 38 78  2  0  0  0  0
 39 62  1  0  0  0  0
 39 67  1  0  0  0  0
 39 79  2  0  0  0  0
 40 63  1  0  0  0  0
 40 74  1  0  0  0  0
 40 80  2  0  0  0  0
 41 68  1  0  0  0  0
 41 71  1  0  0  0  0
 41 81  2  0  0  0  0
 42 45  1  0  0  0  0
 43 52  1  0  0  0  0
 44 67  1  0  0  0  0
 45 47  1  0  0  0  0
 46 48  1  0  0  0  0
 46 49  1  0  0  0  0
 47 51  1  0  0  0  0
 48 53  1  0  0  0  0
 49 68  1  0  0  0  0
 50 53  1  0  0  0  0
 50 68  1  0  0  0  0
 51 73  1  0  0  0  0
 52 67  1  0  0  0  0
 53 66  1  0  0  0  0
 55 61  1  0  0  0  0
 56 63  1  0  0  0  0
 57 64  1  0  0  0  0
 58 64  1  0  0  0  0
 59 64  1  0  0  0  0
 60 75  1  0  0  0  0
 61 72  1  0  0  0  0
 62 64  1  0  0  0  0
 62 74  1  0  0  0  0
 63 75  1  0  0  0  0
 65 66  1  0  0  0  0
M  CHG  1  75   1
M  ISO  4  34 101  41 100  71 100  83 101
M  END
> <Batch ID>
0084

> <Smiles>
CNC(C)C(=O)NC(C(=O)N1Cc2cc([101O:1][101CH:1]=C(C)C(C)NC(=O)c3ccc([100NH:0][100C:0](=O)N4CCCC(n5nc(-c6ccc(Oc7ccc(F)cc7F)cc6)c(C(N)=O)c5N)C4)cc3)ccc2CC1C(=O)NC1CCCc2ccccc21)C(C)(C)C

> <Shape>
0.290

> <Color>
0.080

> <Negative vol penalty>
0.000

$$$$

  -OEChem-04052300123D

 90 99  0     1  0  0  0  0  0999 V2000
  -32.5882  -30.7569   23.4835 C   0  0  0  0  0  0  0  0  0  0  0  0
  -31.8232  -29.8109   22.8087 C   0  0  0  0  0  0  0  0  0  0  0  0
  -25.4569  -13.2456   18.7507 C   0  0  0  0  0  0  0  0  0  0  0  0
  -23.4969  -13.5364   20.1330 C   0  0  0  0  0  0  0  0  0  0  0  0
  -32.0514  -31.4337   24.5779 C   0  0  0  0  0  0  0  0  0  0  0  0
  -30.5213  -29.5404   23.2287 C   0  0  0  0  0  0  0  0  0  0  0  0
  -27.2513  -29.2751   19.3710 C   0  0  0  0  0  0  0  0  0  0  0  0
  -29.7265  -19.3161   18.4499 C   0  0  0  0  0  0  0  0  0  0  0  0
  -30.0365  -18.4607   19.5072 C   0  0  0  0  0  0  0  0  0  0  0  0
  -25.1538  -11.8918   18.6056 C   0  0  0  0  0  0  0  0  0  0  0  0
  -23.1937  -12.1826   19.9879 C   0  0  0  0  0  0  0  0  0  0  0  0
  -27.2457  -28.1000   18.6207 C   0  0  0  0  0  0  0  0  0  0  0  0
  -24.2316   -9.2430   21.2964 C   0  0  0  0  0  0  0  0  0  0  0  0
  -23.8580   -8.5364   22.4395 C   0  0  0  0  0  0  0  0  0  0  0  0
  -30.1210  -21.2244   19.8781 C   0  0  0  0  0  0  0  0  0  0  0  0
  -25.3042  -27.3412   19.8349 C   0  0  0  0  0  0  0  0  0  0  0  0
  -21.7274   -8.0202   21.4240 C   0  0  0  0  0  0  0  0  0  0  0  0
  -24.6285  -14.0679   19.5145 C   0  0  0  0  0  0  0  0  0  0  0  0
  -30.4309  -20.3690   20.9354 C   0  0  0  0  0  0  0  0  0  0  0  0
  -24.5173  -16.5259   18.8412 C   0  0  0  0  0  0  0  0  0  0  0  0
  -30.7390  -31.1784   25.0055 C   0  0  0  0  0  0  0  0  0  0  0  0
  -26.2883  -29.4876   20.3680 C   0  0  0  0  0  0  0  0  0  0  0  0
  -29.9670  -30.2136   24.3306 C   0  0  0  0  0  0  0  0  0  0  0  0
  -25.2983  -28.5209   20.5947 C   0  0  0  0  0  0  0  0  0  0  0  0
  -29.7689  -20.6979   18.6353 C   0  0  0  0  0  0  0  0  0  0  0  0
  -30.3886  -18.9871   20.7500 C   0  0  0  0  0  0  0  0  0  0  0  0
  -24.0222  -11.3603   19.2242 C   0  0  0  0  0  0  0  0  0  0  0  0
  -26.2738  -27.1316   18.8546 C   0  0  0  0  0  0  0  0  0  0  0  0
  -23.3532   -9.3383   20.2171 C   0  0  0  0  0  0  0  0  0  0  0  0
  -22.6059   -7.9250   22.5033 C   0  0  0  0  0  0  0  0  0  0  0  0
  -22.1011   -8.7269   20.2809 C   0  0  0  0  0  0  0  0  0  0  0  0
  -24.9414  -15.4662   19.6652 C   0  0  0  0  0  0  0  0  0  0  0  0
  -25.0796  -17.6452   19.4045 C   0  0  0  0  0  0  0  0  0  0  0  0
  -25.8672  -22.5542   17.5461 C   0  0  0  0  0  0  0  0  0  0  0  0
  -26.4006  -23.6033   18.1855 C   0  0  0  0  0  0  0  0  0  0  0  0
  -26.9647  -21.6305   17.1866 C   0  0  0  0  0  0  0  0  0  0  0  0
  -27.8636  -23.3986   18.2636 C   0  0  0  0  0  0  0  0  0  0  0  0
  -29.9836  -21.7219   22.9317 C   0  0  0  0  0  0  0  0  0  0  0  0
  -30.7954  -20.9557   22.2197 C   0  0  0  0  0  0  0  0  0  0  0  0
  -23.6889  -16.5007   17.6712 C   0  0  0  0  0  0  0  0  0  0  0  0
  -26.3755  -29.9086   23.5174 C   0  0  0  0  0  0  0  0  0  0  0  0
  -23.2008  -30.4574   23.1401 C   0  0  0  0  0  0  0  0  0  0  0  0
  -20.3803  -29.9854   21.2777 C   0  0  0  0  0  0  0  0  0  0  0  0
  -29.9906  -18.0392   23.0378 C   0  0  0  0  0  0  0  0  0  0  0  0
  -30.2185  -31.9010   26.2228 C   0  0  0  0  0  0  0  0  0  0  0  0
  -26.2920  -30.7723   21.1504 C   0  0  0  0  0  0  0  0  0  0  0  0
  -24.2301  -28.7097   21.6396 C   0  0  0  0  0  0  0  0  0  0  0  0
  -28.7013  -31.8265   26.3730 C   0  0  0  0  0  0  0  0  0  0  0  0
  -26.5949  -19.4051   23.5824 C   0  0  0  0  0  0  0  0  0  0  0  0
  -28.2129  -30.3976   26.1569 C   0  0  0  0  0  0  0  0  0  0  0  0
  -25.7387  -18.5768   22.6262 C   0  0  0  0  0  0  0  0  0  0  0  0
  -27.8181  -18.6302   24.0631 C   0  0  0  0  0  0  0  0  0  0  0  0
  -27.8054  -17.2703   21.9914 C   0  0  0  0  0  0  0  0  0  0  0  0
  -28.5422  -29.9103   24.7407 C   0  0  1  0  0  0  0  0  0  0  0  0
  -25.5732  -30.6574   22.4911 C   0  0  1  0  0  0  0  0  0  0  0  0
  -26.5884  -18.0430   21.4613 C   0  0  1  0  0  0  0  0  0  0  0  0
  -24.4572  -22.2514   17.1996 C   0  0  0  0  0  0  0  0  0  0  0  0
  -17.9294  -30.5233   21.2434 C   0  0  0  0  0  0  0  0  0  0  0  0
  -22.7072  -28.3332   25.2741 C   0  0  0  0  0  0  0  0  0  0  0  0
  -20.3202  -28.2354   24.5254 C   0  0  0  0  0  0  0  0  0  0  0  0
  -21.2472  -30.3553   25.4577 C   0  0  0  0  0  0  0  0  0  0  0  0
  -31.9669  -17.3469   21.7546 C   0  0  0  0  0  0  0  0  0  0  0  0
  -20.6246  -31.4757   18.7324 C   0  0  0  0  0  0  0  0  0  0  0  0
  -29.4347  -21.6173   17.4964 C   0  0  0  0  0  0  0  0  0  0  0  0
  -25.7569  -24.8121   18.7604 C   0  0  0  0  0  0  0  0  0  1  0  0
  -21.9587  -29.5996   23.1523 C   0  0  1  0  0  0  0  0  0  0  0  0
  -19.3170  -30.9560   20.7962 C   0  0  2  0  0  0  0  0  0  0  0  0
  -21.5795  -29.1262   24.5839 C   0  0  0  0  0  0  0  0  0  0  0  0
  -25.7138  -15.8757   20.6750 N   0  0  0  0  0  0  0  0  0  0  0  0
  -25.7795  -17.2051   20.4893 N   0  0  0  0  0  0  0  0  0  0  0  0
  -28.1184  -22.2067   17.6431 N   0  0  0  0  0  0  0  0  0  0  0  0
  -24.2797  -29.9797   22.3827 N   0  0  0  0  0  0  0  0  0  0  0  0
  -28.5842  -18.0772   22.9451 N   0  0  0  0  0  0  0  0  0  0  0  0
  -25.0388  -18.9532   19.0728 N   0  0  0  0  0  0  0  0  0  0  0  0
  -23.1947  -15.2660   17.2289 N   0  0  0  0  0  0  0  0  0  0  0  0
  -27.6101  -30.4687   23.7846 N   0  0  0  0  0  0  0  0  0  0  0  0
  -20.9195  -30.3763   22.4850 N   0  0  0  0  0  0  0  0  0  0  0  0
  -30.7031  -18.0771   21.8241 N   0  0  0  0  0  0  0  0  0  0  0  0
  -19.3267  -31.0386   19.3082 N   0  3  0  0  0  0  0  0  0  0  0  0
  -26.8116  -20.5721   16.5994 O   0  0  0  0  0  0  0  0  0  0  0  0
  -28.6403  -24.1751   18.7946 O   0  0  0  0  0  0  0  0  0  0  0  0
  -23.4091  -17.5402   17.0273 O   0  0  0  0  0  0  0  0  0  0  0  0
  -25.9083  -28.8983   24.0301 O   0  0  0  0  0  0  0  0  0  0  0  0
  -23.2109  -31.5161   23.7732 O   0  0  0  0  0  0  0  0  0  0  0  0
  -20.6978  -28.9789   20.6478 O   0  0  0  0  0  0  0  0  0  0  0  0
  -30.5719  -17.9232   24.1237 O   0  0  0  0  0  0  0  0  0  0  0  0
  -23.7259  -10.0395   19.0826 O   0  0  0  0  0  0  0  0  0  0  0  0
  -26.2664  -25.9834   18.1242 O   0  0  0  0  0  0  0  0  0  1  0  0
  -22.2478   -7.2452   23.6005 F   0  0  0  0  0  0  0  0  0  0  0  0
  -21.2533   -8.8139   19.2467 F   0  0  0  0  0  0  0  0  0  0  0  0
  1  2  1  0  0  0  0
  1  5  2  0  0  0  0
  2  6  2  0  0  0  0
  3 10  2  0  0  0  0
  3 18  1  0  0  0  0
  4 11  1  0  0  0  0
  4 18  2  0  0  0  0
  5 21  1  0  0  0  0
  6 23  1  0  0  0  0
  7 12  2  0  0  0  0
  7 22  1  0  0  0  0
  8  9  2  0  0  0  0
  8 25  1  0  0  0  0
  9 26  1  0  0  0  0
 10 27  1  0  0  0  0
 11 27  2  0  0  0  0
 12 28  1  0  0  0  0
 13 14  2  0  0  0  0
 13 29  1  0  0  0  0
 14 30  1  0  0  0  0
 15 19  1  0  0  0  0
 15 25  2  0  0  0  0
 16 24  1  0  0  0  0
 16 28  2  0  0  0  0
 17 30  2  0  0  0  0
 17 31  1  0  0  0  0
 18 32  1  0  0  0  0
 19 26  2  0  0  0  0
 19 39  1  0  0  0  0
 20 32  1  0  0  0  0
 20 33  2  0  0  0  0
 20 40  1  0  0  0  0
 21 23  2  0  0  0  0
 21 45  1  0  0  0  0
 22 24  2  0  0  0  0
 22 46  1  0  0  0  0
 23 54  1  0  0  0  0
 24 47  1  0  0  0  0
 25 64  1  0  0  0  0
 26 78  1  0  0  0  0
 27 87  1  0  0  0  0
 28 88  1  0  0  0  0
 29 31  2  0  0  0  0
 29 87  1  0  0  0  0
 30 89  1  0  0  0  0
 31 90  1  0  0  0  0
 32 69  2  0  0  0  0
 33 70  1  0  0  0  0
 33 74  1  0  0  0  0
 34 35  2  0  0  0  0
 34 36  1  0  0  0  0
 34 57  1  0  0  0  0
 35 37  1  0  0  0  0
 35 65  1  0  0  0  0
 36 71  1  0  0  0  0
 36 80  2  0  0  0  0
 37 71  1  0  0  0  0
 37 81  2  0  0  0  0
 38 39  2  0  0  0  0
 40 75  1  0  0  0  0
 40 82  2  0  0  0  0
 41 55  1  0  0  0  0
 41 76  1  0  0  0  0
 41 83  2  0  0  0  0
 42 66  1  0  0  0  0
 42 72  1  0  0  0  0
 42 84  2  0  0  0  0
 43 67  1  0  0  0  0
 43 77  1  0  0  0  0
 43 85  2  0  0  0  0
 44 73  1  0  0  0  0
 44 78  1  0  0  0  0
 44 86  2  0  0  0  0
 45 48  1  0  0  0  0
 46 55  1  0  0  0  0
 47 72  1  0  0  0  0
 48 50  1  0  0  0  0
 49 51  1  0  0  0  0
 49 52  1  0  0  0  0
 50 54  1  0  0  0  0
 51 56  1  0  0  0  0
 52 73  1  0  0  0  0
 53 56  1  0  0  0  0
 53 73  1  0  0  0  0
 54 76  1  0  0  0  0
 55 72  1  0  0  0  0
 56 70  1  0  0  0  0
 58 67  1  0  0  0  0
 59 68  1  0  0  0  0
 60 68  1  0  0  0  0
 61 68  1  0  0  0  0
 62 78  1  0  0  0  0
 63 79  1  0  0  0  0
 64 71  1  0  0  0  0
 65 88  1  0  0  0  0
 66 68  1  0  0  0  0
 66 77  1  0  0  0  0
 67 79  1  0  0  0  0
 69 70  1  0  0  0  0
M  CHG  1  79   1
M  ISO  4  44 100  65 101  78 100  88 101
M  END
> <Batch ID>
0084

> <Smiles>
C=Cc1cc(CN2C(=O)C(C)=C([101CH2:1][101O:1]c3ccc4c(c3)CN(C(=O)C(NC(=O)C(C)NC)C(C)(C)C)C(C(=O)NC3CCCc5ccccc53)C4)C2=O)ccc1[100N:0](C)[100C:0](=O)N1CCCC(n2nc(-c3ccc(Oc4ccc(F)cc4F)cc3)c(C(N)=O)c2N)C1

> <Shape>
0.220

> <Color>
0.067

> <Negative vol penalty>
0.000

$$$$

  -OEChem-04052300123D

 83 92  0     1  0  0  0  0  0999 V2000
  -26.2820  -32.8251   27.8010 C   0  0  0  0  0  0  0  0  0  0  0  0
  -26.5836  -31.7779   26.9364 C   0  0  0  0  0  0  0  0  0  0  0  0
  -24.3224   -9.0496   22.0963 C   0  0  0  0  0  0  0  0  0  0  0  0
  -23.7791   -8.8390   19.7516 C   0  0  0  0  0  0  0  0  0  0  0  0
  -25.0400  -33.4542   27.7256 C   0  0  0  0  0  0  0  0  0  0  0  0
  -25.6430  -31.3583   25.9964 C   0  0  0  0  0  0  0  0  0  0  0  0
  -27.6724  -30.6095   21.4176 C   0  0  0  0  0  0  0  0  0  0  0  0
  -23.2512   -8.2167   22.4193 C   0  0  0  0  0  0  0  0  0  0  0  0
  -22.7079   -8.0061   20.0746 C   0  0  0  0  0  0  0  0  0  0  0  0
  -28.3843  -29.4268   21.2224 C   0  0  0  0  0  0  0  0  0  0  0  0
  -22.5819   -4.9024   22.4104 C   0  0  0  0  0  0  0  0  0  0  0  0
  -22.8047   -3.8937   23.3477 C   0  0  0  0  0  0  0  0  0  0  0  0
  -29.4619  -20.6474   20.8477 C   0  0  0  0  0  0  0  0  0  0  0  0
  -26.4666  -28.4609   20.1229 C   0  0  0  0  0  0  0  0  0  0  0  0
  -21.1021   -4.8435   24.7746 C   0  0  0  0  0  0  0  0  0  0  0  0
  -31.6942  -20.0791   20.5378 C   0  0  0  0  0  0  0  0  0  0  0  0
  -24.5864   -9.3608   20.7624 C   0  0  0  0  0  0  0  0  0  0  0  0
  -30.4264  -19.6005   20.7850 C   0  0  0  0  0  0  0  0  0  0  0  0
  -27.0184   -9.8348   20.1554 C   0  0  0  0  0  0  0  0  0  0  0  0
  -24.0872  -33.0484   26.7779 C   0  0  0  0  0  0  0  0  0  0  0  0
  -26.3463  -30.7232   20.9759 C   0  0  0  0  0  0  0  0  0  0  0  0
  -24.3865  -31.9816   25.9092 C   0  0  0  0  0  0  0  0  0  0  0  0
  -25.7409  -29.6470   20.3115 C   0  0  0  0  0  0  0  0  0  0  0  0
  -22.4439   -7.6949   21.4085 C   0  0  0  0  0  0  0  0  0  0  0  0
  -27.7805  -28.3513   20.5775 C   0  0  0  0  0  0  0  0  0  0  0  0
  -21.6192   -5.8817   22.6552 C   0  0  0  0  0  0  0  0  0  0  0  0
  -22.0648   -3.8642   24.5297 C   0  0  0  0  0  0  0  0  0  0  0  0
  -20.8793   -5.8522   23.8373 C   0  0  0  0  0  0  0  0  0  0  0  0
  -25.6925  -10.2215   20.4281 C   0  0  0  0  0  0  0  0  0  0  0  0
  -27.6736  -11.0139   19.8968 C   0  0  0  0  0  0  0  0  0  0  0  0
  -30.0295  -21.8865   20.6462 C   0  0  0  0  0  0  0  0  0  0  0  0
  -28.5767  -24.8511   20.8170 C   0  0  0  0  0  0  0  0  0  0  0  0
  -28.3209  -23.5069   21.2625 C   0  0  0  0  0  0  0  0  0  0  0  0
  -27.3633  -22.9597   22.0184 C   0  0  0  0  0  0  0  0  0  0  0  0
  -30.1452  -18.2238   20.9525 C   0  0  0  0  0  0  0  0  0  0  0  0
  -27.9772  -26.0491   20.9409 C   0  0  0  0  0  0  0  0  0  1  0  0
  -28.9182  -17.6590   21.2004 C   0  0  0  0  0  0  0  0  0  0  0  0
  -27.6052   -8.5268   20.1374 C   0  0  0  0  0  0  0  0  0  0  0  0
  -28.7848  -16.1951   21.3413 C   0  0  0  0  0  0  0  0  0  0  0  0
  -23.5447  -31.2193   22.3931 C   0  0  0  0  0  0  0  0  0  0  0  0
  -22.4654  -31.3648   19.3375 C   0  0  0  0  0  0  0  0  0  0  0  0
  -22.9102  -30.5091   16.0639 C   0  0  0  0  0  0  0  0  0  0  0  0
  -22.7406  -33.7274   26.7657 C   0  0  0  0  0  0  0  0  0  0  0  0
  -25.6008  -32.0150   21.1704 C   0  0  0  0  0  0  0  0  0  0  0  0
  -24.3264  -29.7253   19.8001 C   0  0  0  0  0  0  0  0  0  0  0  0
  -29.8099  -24.3464   20.1548 C   0  0  0  0  0  0  0  0  0  0  0  0
  -21.9401  -33.4699   25.4917 C   0  0  0  0  0  0  0  0  0  0  0  0
  -25.9107  -15.6756   19.1273 C   0  0  0  0  0  0  0  0  0  0  0  0
  -21.9691  -31.9875   25.1334 C   0  0  0  0  0  0  0  0  0  0  0  0
  -25.6823  -14.1752   19.2899 C   0  0  0  0  0  0  0  0  0  0  0  0
  -26.4076  -16.3216   20.4197 C   0  0  0  0  0  0  0  0  0  0  0  0
  -27.3967  -14.1684   21.1448 C   0  0  0  0  0  0  0  0  0  0  0  0
  -23.4017  -31.5141   24.8595 C   0  0  1  0  0  0  0  0  0  0  0  0
  -24.0856  -31.8413   21.1368 C   0  0  1  0  0  0  0  0  0  0  0  0
  -26.9415  -13.4897   19.8434 C   0  0  1  0  0  0  0  0  0  0  0  0
  -21.8424  -30.7403   13.8048 C   0  0  0  0  0  0  0  0  0  0  0  0
  -20.4084  -29.2424   20.0953 C   0  0  0  0  0  0  0  0  0  0  0  0
  -20.0320  -28.8353   17.6538 C   0  0  0  0  0  0  0  0  0  0  0  0
  -19.5294  -31.0728   18.6355 C   0  0  0  0  0  0  0  0  0  0  0  0
  -25.2485  -31.9631   14.9790 C   0  0  0  0  0  0  0  0  0  0  0  0
  -21.9374  -30.3610   18.3412 C   0  0  1  0  0  0  0  0  0  0  0  0
  -22.8396  -31.3308   14.7894 C   0  0  2  0  0  0  0  0  0  0  0  0
  -20.5028  -29.8754   18.6927 C   0  0  0  0  0  0  0  0  0  0  0  0
  -25.5144  -11.5429   20.3502 N   0  0  0  0  0  0  0  0  0  0  0  0
  -26.7369  -11.9969   20.0257 N   0  0  0  0  0  0  0  0  0  0  0  0
  -29.3922  -23.0623   20.6434 N   0  0  0  0  0  0  0  0  0  0  0  0
  -27.5771  -15.6127   20.9608 N   0  0  0  0  0  0  0  0  0  0  0  0
  -23.6368  -31.0074   20.0200 N   0  0  0  0  0  0  0  0  0  0  0  0
  -28.9539  -11.2954   19.5742 N   0  0  0  0  0  0  0  0  0  0  0  0
  -26.7893   -7.4244   20.4262 N   0  0  0  0  0  0  0  0  0  0  0  0
  -23.8291  -31.9327   23.5418 N   0  0  0  0  0  0  0  0  0  0  0  0
  -22.0510  -30.9894   17.0295 N   0  0  0  0  0  0  0  0  0  0  0  0
  -24.1758  -31.3820   14.1314 N   0  3  0  0  0  0  0  0  0  0  0  0
  -28.8208   -8.3425   19.8891 O   0  0  0  0  0  0  0  0  0  0  0  0
  -29.7506  -15.5769   21.7926 O   0  0  0  0  0  0  0  0  0  0  0  0
  -22.9146  -30.1704   22.3250 O   0  0  0  0  0  0  0  0  0  0  0  0
  -21.8646  -32.4300   19.4990 O   0  0  0  0  0  0  0  0  0  0  0  0
  -23.6506  -29.5361   16.1890 O   0  0  0  0  0  0  0  0  0  0  0  0
  -21.3987   -6.8820   21.7233 O   0  0  0  0  0  0  0  0  0  0  0  0
  -28.4730  -27.1955   20.3863 O   0  0  0  0  0  0  0  0  0  1  0  0
  -22.2778   -2.8947   25.4290 F   0  0  0  0  0  0  0  0  0  0  0  0
  -19.9523   -6.7897   24.0775 F   0  0  0  0  0  0  0  0  0  0  0  0
  -31.7184  -21.7843   20.3825 S   0  0  0  0  0  0  0  0  0  0  0  0
  1  2  1  0  0  0  0
  1  5  2  0  0  0  0
  2  6  2  0  0  0  0
  3  8  2  0  0  0  0
  3 17  1  0  0  0  0
  4  9  1  0  0  0  0
  4 17  2  0  0  0  0
  5 20  1  0  0  0  0
  6 22  1  0  0  0  0
  7 10  2  0  0  0  0
  7 21  1  0  0  0  0
  8 24  1  0  0  0  0
  9 24  2  0  0  0  0
 10 25  1  0  0  0  0
 11 12  2  0  0  0  0
 11 26  1  0  0  0  0
 12 27  1  0  0  0  0
 13 18  1  0  0  0  0
 13 31  2  0  0  0  0
 14 23  1  0  0  0  0
 14 25  2  0  0  0  0
 15 27  2  0  0  0  0
 15 28  1  0  0  0  0
 16 18  2  0  0  0  0
 16 83  1  0  0  0  0
 17 29  1  0  0  0  0
 18 35  1  0  0  0  0
 19 29  1  0  0  0  0
 19 30  2  0  0  0  0
 19 38  1  0  0  0  0
 20 22  2  0  0  0  0
 20 43  1  0  0  0  0
 21 23  2  0  0  0  0
 21 44  1  0  0  0  0
 22 53  1  0  0  0  0
 23 45  1  0  0  0  0
 24 79  1  0  0  0  0
 25 80  1  0  0  0  0
 26 28  2  0  0  0  0
 26 79  1  0  0  0  0
 27 81  1  0  0  0  0
 28 82  1  0  0  0  0
 29 64  2  0  0  0  0
 30 65  1  0  0  0  0
 30 69  1  0  0  0  0
 31 66  1  0  0  0  0
 31 83  1  0  0  0  0
 32 33  1  0  0  0  0
 32 36  2  0  0  0  0
 32 46  1  0  0  0  0
 33 34  2  0  0  0  0
 33 66  1  0  0  0  0
 35 37  2  0  0  0  0
 36 80  1  0  0  0  0
 37 39  1  0  0  0  0
 38 70  1  0  0  0  0
 38 74  2  0  0  0  0
 39 67  1  0  0  0  0
 39 75  2  0  0  0  0
 40 54  1  0  0  0  0
 40 71  1  0  0  0  0
 40 76  2  0  0  0  0
 41 61  1  0  0  0  0
 41 68  1  0  0  0  0
 41 77  2  0  0  0  0
 42 62  1  0  0  0  0
 42 72  1  0  0  0  0
 42 78  2  0  0  0  0
 43 47  1  0  0  0  0
 44 54  1  0  0  0  0
 45 68  1  0  0  0  0
 46 66  1  0  0  0  0
 47 49  1  0  0  0  0
 48 50  1  0  0  0  0
 48 51  1  0  0  0  0
 49 53  1  0  0  0  0
 50 55  1  0  0  0  0
 51 67  1  0  0  0  0
 52 55  1  0  0  0  0
 52 67  1  0  0  0  0
 53 71  1  0  0  0  0
 54 68  1  0  0  0  0
 55 65  1  0  0  0  0
 56 62  1  0  0  0  0
 57 63  1  0  0  0  0
 58 63  1  0  0  0  0
 59 63  1  0  0  0  0
 60 73  1  0  0  0  0
 61 63  1  0  0  0  0
 61 72  1  0  0  0  0
 62 73  1  0  0  0  0
 64 65  1  0  0  0  0
M  CHG  1  73   1
M  ISO  4  36 101  37 100  39 100  80 101
M  END
> <Batch ID>
0084

> <Smiles>
C=C1C(=[101CH:1][101O:1]c2ccc3c(c2)CN(C(=O)C(NC(=O)C(C)NC)C(C)(C)C)C(C(=O)NC2CCCc4ccccc42)C3)CN1c1cc(C=[100CH:0][100C:0](=O)N2CCCC(n3nc(-c4ccc(Oc5ccc(F)cc5F)cc4)c(C(N)=O)c3N)C2)cs1

> <Shape>
0.274

> <Color>
0.087

> <Negative vol penalty>
0.000

$$$$

  -OEChem-04052300123D

 84 93  0     1  0  0  0  0  0999 V2000
  -31.9667  -36.5933   17.3638 C   0  0  0  0  0  0  0  0  0  0  0  0
  -31.7918  -35.2248   17.1853 C   0  0  0  0  0  0  0  0  0  0  0  0
  -24.4348   -8.2687   21.3129 C   0  0  0  0  0  0  0  0  0  0  0  0
  -24.0937  -10.0301   22.9310 C   0  0  0  0  0  0  0  0  0  0  0  0
  -31.6957  -37.1739   18.6021 C   0  0  0  0  0  0  0  0  0  0  0  0
  -31.3468  -34.4358   18.2455 C   0  0  0  0  0  0  0  0  0  0  0  0
  -27.7032  -29.5253   17.9038 C   0  0  0  0  0  0  0  0  0  0  0  0
  -26.5013  -19.7385   18.5856 C   0  0  0  0  0  0  0  0  0  0  0  0
  -28.8679  -19.9819   19.0064 C   0  0  0  0  0  0  0  0  0  0  0  0
  -26.6477  -18.3516   18.5641 C   0  0  0  0  0  0  0  0  0  0  0  0
  -29.0143  -18.5949   18.9849 C   0  0  0  0  0  0  0  0  0  0  0  0
  -24.0291   -7.3241   22.2555 C   0  0  0  0  0  0  0  0  0  0  0  0
  -23.6879   -9.0854   23.8737 C   0  0  0  0  0  0  0  0  0  0  0  0
  -27.9708  -28.1570   17.9015 C   0  0  0  0  0  0  0  0  0  0  0  0
  -21.1195   -6.1867   23.5491 C   0  0  0  0  0  0  0  0  0  0  0  0
  -20.2261   -5.1991   23.1341 C   0  0  0  0  0  0  0  0  0  0  0  0
  -27.5515  -28.0771   20.2757 C   0  0  0  0  0  0  0  0  0  0  0  0
  -21.8415   -3.4967   23.7081 C   0  0  0  0  0  0  0  0  0  0  0  0
  -24.4672   -9.6217   21.6506 C   0  0  0  0  0  0  0  0  0  0  0  0
  -24.0727  -11.2857   19.7577 C   0  0  0  0  0  0  0  0  0  0  0  0
  -31.2379  -36.3932   19.6752 C   0  0  0  0  0  0  0  0  0  0  0  0
  -27.3677  -30.1829   19.0961 C   0  0  0  0  0  0  0  0  0  0  0  0
  -31.0707  -35.0063   19.4997 C   0  0  0  0  0  0  0  0  0  0  0  0
  -27.2775  -29.4533   20.2901 C   0  0  0  0  0  0  0  0  0  0  0  0
  -27.6114  -20.5537   18.8067 C   0  0  0  0  0  0  0  0  0  0  0  0
  -27.9042  -17.7797   18.7638 C   0  0  0  0  0  0  0  0  0  0  0  0
  -23.6556   -7.7324   23.5359 C   0  0  0  0  0  0  0  0  0  0  0  0
  -27.8978  -27.4333   19.0881 C   0  0  0  0  0  0  0  0  0  0  0  0
  -22.3739   -5.8293   24.0435 C   0  0  0  0  0  0  0  0  0  0  0  0
  -20.5871   -3.8541   23.2136 C   0  0  0  0  0  0  0  0  0  0  0  0
  -22.7349   -4.4843   24.1231 C   0  0  0  0  0  0  0  0  0  0  0  0
  -24.8868  -10.5980   20.6775 C   0  0  0  0  0  0  0  0  0  0  0  0
  -24.9426  -12.0918   19.0649 C   0  0  0  0  0  0  0  0  0  0  0  0
  -27.2587  -23.9004   18.8578 C   0  0  0  0  0  0  0  0  0  0  0  0
  -26.3914  -22.7428   18.6676 C   0  0  0  0  0  0  0  0  0  0  0  0
  -28.3490  -22.9437   19.0157 C   0  0  0  0  0  0  0  0  0  0  0  0
  -27.1178  -25.2382   18.8782 C   0  0  0  0  0  0  0  0  0  1  0  0
  -22.6567  -11.2033   19.5482 C   0  0  0  0  0  0  0  0  0  0  0  0
  -28.6682  -32.5232   20.8094 C   0  0  0  0  0  0  0  0  0  0  0  0
  -25.9432  -32.2387   22.5460 C   0  0  0  0  0  0  0  0  0  0  0  0
  -23.3201  -30.2857   23.5217 C   0  0  0  0  0  0  0  0  0  0  0  0
  -29.2290  -15.6428   18.9223 C   0  0  0  0  0  0  0  0  0  0  0  0
  -31.0033  -37.0581   21.0085 C   0  0  0  0  0  0  0  0  0  0  0  0
  -27.0558  -31.6542   19.0770 C   0  0  0  0  0  0  0  0  0  0  0  0
  -26.9018  -30.1083   21.5932 C   0  0  0  0  0  0  0  0  0  0  0  0
  -30.1771  -36.2122   21.9739 C   0  0  0  0  0  0  0  0  0  0  0  0
  -30.0031  -12.1680   18.9775 C   0  0  0  0  0  0  0  0  0  0  0  0
  -30.6907  -34.7761   21.9994 C   0  0  0  0  0  0  0  0  0  0  0  0
  -28.6741  -11.5063   19.3490 C   0  0  0  0  0  0  0  0  0  0  0  0
  -30.2000  -13.4948   19.7085 C   0  0  0  0  0  0  0  0  0  0  0  0
  -27.7650  -13.7891   19.9402 C   0  0  0  0  0  0  0  0  0  0  0  0
  -30.5659  -34.1211   20.6185 C   0  0  1  0  0  0  0  0  0  0  0  0
  -27.2263  -32.3188   20.4396 C   0  0  1  0  0  0  0  0  0  0  0  0
  -27.4924  -12.4812   19.1794 C   0  0  2  0  0  0  0  0  0  0  0  0
  -21.2754  -30.3164   24.9763 C   0  0  0  0  0  0  0  0  0  0  0  0
  -27.7012  -31.9222   25.0198 C   0  0  0  0  0  0  0  0  0  0  0  0
  -25.7058  -31.0255   26.2374 C   0  0  0  0  0  0  0  0  0  0  0  0
  -25.6805  -33.3577   25.3527 C   0  0  0  0  0  0  0  0  0  0  0  0
  -21.5282  -29.8244   21.2120 C   0  0  0  0  0  0  0  0  0  0  0  0
  -25.5167  -31.4181   23.7392 C   0  0  1  0  0  0  0  0  0  0  0  0
  -21.8280  -30.5589   23.5804 C   0  0  2  0  0  0  0  0  0  0  0  0
  -26.1600  -31.9186   25.0632 C   0  0  0  0  0  0  0  0  0  0  0  0
  -26.1750  -10.9374   20.5803 N   0  0  0  0  0  0  0  0  0  0  0  0
  -26.1769  -11.8472   19.5912 N   0  0  0  0  0  0  0  0  0  0  0  0
  -27.4674  -21.9207   18.8276 N   0  0  0  0  0  0  0  0  0  0  0  0
  -26.6122  -31.5501   21.5242 N   0  0  0  0  0  0  0  0  0  0  0  0
  -29.0435  -14.3686   19.4991 N   0  0  0  0  0  0  0  0  0  0  0  0
  -24.7646  -12.9788   18.0630 N   0  0  0  0  0  0  0  0  0  0  0  0
  -21.9132  -10.3241   20.3473 N   0  0  0  0  0  0  0  0  0  0  0  0
  -28.0533  -16.3708   18.7420 N   0  0  0  0  0  0  0  0  0  0  0  0
  -29.1971  -33.7219   20.3703 N   0  0  0  0  0  0  0  0  0  0  0  0
  -24.0578  -31.4296   23.7421 N   0  0  0  0  0  0  0  0  0  0  0  0
  -21.1015  -29.6734   22.6269 N   0  3  0  0  0  0  0  0  0  0  0  0
  -25.2091  -22.5718   18.4556 O   0  0  0  0  0  0  0  0  0  0  0  0
  -29.5415  -23.0166   19.2260 O   0  0  0  0  0  0  0  0  0  0  0  0
  -22.0706  -11.8769   18.6672 O   0  0  0  0  0  0  0  0  0  0  0  0
  -29.2569  -31.6581   21.4472 O   0  0  0  0  0  0  0  0  0  0  0  0
  -25.6858  -33.4448   22.5184 O   0  0  0  0  0  0  0  0  0  0  0  0
  -23.7848  -29.1685   23.3061 O   0  0  0  0  0  0  0  0  0  0  0  0
  -30.3451  -16.0468   18.5861 O   0  0  0  0  0  0  0  0  0  0  0  0
  -23.2594   -6.8109   24.4559 O   0  0  0  0  0  0  0  0  0  0  0  0
  -28.1592  -26.0978   19.0887 O   0  0  0  0  0  0  0  0  0  1  0  0
  -19.7286   -2.9058   22.8165 F   0  0  0  0  0  0  0  0  0  0  0  0
  -23.9381   -4.1348   24.5983 F   0  0  0  0  0  0  0  0  0  0  0  0
  1  2  1  0  0  0  0
  1  5  2  0  0  0  0
  2  6  2  0  0  0  0
  3 12  2  0  0  0  0
  3 19  1  0  0  0  0
  4 13  1  0  0  0  0
  4 19  2  0  0  0  0
  5 21  1  0  0  0  0
  6 23  1  0  0  0  0
  7 14  2  0  0  0  0
  7 22  1  0  0  0  0
  8 10  2  0  0  0  0
  8 25  1  0  0  0  0
  9 11  1  0  0  0  0
  9 25  2  0  0  0  0
 10 26  1  0  0  0  0
 11 26  2  0  0  0  0
 12 27  1  0  0  0  0
 13 27  2  0  0  0  0
 14 28  1  0  0  0  0
 15 16  2  0  0  0  0
 15 29  1  0  0  0  0
 16 30  1  0  0  0  0
 17 24  1  0  0  0  0
 17 28  2  0  0  0  0
 18 30  2  0  0  0  0
 18 31  1  0  0  0  0
 19 32  1  0  0  0  0
 20 32  1  0  0  0  0
 20 33  2  0  0  0  0
 20 38  1  0  0  0  0
 21 23  2  0  0  0  0
 21 43  1  0  0  0  0
 22 24  2  0  0  0  0
 22 44  1  0  0  0  0
 23 52  1  0  0  0  0
 24 45  1  0  0  0  0
 25 65  1  0  0  0  0
 26 70  1  0  0  0  0
 27 81  1  0  0  0  0
 28 82  1  0  0  0  0
 29 31  2  0  0  0  0
 29 81  1  0  0  0  0
 30 83  1  0  0  0  0
 31 84  1  0  0  0  0
 32 63  2  0  0  0  0
 33 64  1  0  0  0  0
 33 68  1  0  0  0  0
 34 35  1  0  0  0  0
 34 36  1  0  0  0  0
 34 37  2  0  0  0  0
 35 65  1  0  0  0  0
 35 74  2  0  0  0  0
 36 65  1  0  0  0  0
 36 75  2  0  0  0  0
 37 82  1  0  0  0  0
 38 69  1  0  0  0  0
 38 76  2  0  0  0  0
 39 53  1  0  0  0  0
 39 71  1  0  0  0  0
 39 77  2  0  0  0  0
 40 60  1  0  0  0  0
 40 66  1  0  0  0  0
 40 78  2  0  0  0  0
 41 61  1  0  0  0  0
 41 72  1  0  0  0  0
 41 79  2  0  0  0  0
 42 67  1  0  0  0  0
 42 70  1  0  0  0  0
 42 80  2  0  0  0  0
 43 46  1  0  0  0  0
 44 53  1  0  0  0  0
 45 66  1  0  0  0  0
 46 48  1  0  0  0  0
 47 49  1  0  0  0  0
 47 50  1  0  0  0  0
 48 52  1  0  0  0  0
 49 54  1  0  0  0  0
 50 67  1  0  0  0  0
 51 54  1  0  0  0  0
 51 67  1  0  0  0  0
 52 71  1  0  0  0  0
 53 66  1  0  0  0  0
 54 64  1  0  0  0  0
 55 61  1  0  0  0  0
 56 62  1  0  0  0  0
 57 62  1  0  0  0  0
 58 62  1  0  0  0  0
 59 73  1  0  0  0  0
 60 62  1  0  0  0  0
 60 72  1  0  0  0  0
 61 73  1  0  0  0  0
 63 64  1  0  0  0  0
M  CHG  1  73   1
M  ISO  4  37 101  42 100  70 100  82 101
M  END
> <Batch ID>
0084

> <Smiles>
CNC(C)C(=O)NC(C(=O)N1Cc2cc([101O:1][101CH:1]=C3C(=O)N(c4ccc([100NH:0][100C:0](=O)N5CCCC(n6nc(-c7ccc(Oc8ccc(F)cc8F)cc7)c(C(N)=O)c6N)C5)cc4)C3=O)ccc2CC1C(=O)NC1CCCc2ccccc21)C(C)(C)C

> <Shape>
0.262

> <Color>
0.109

> <Negative vol penalty>
0.000

$$$$

  -OEChem-04052300123D

 83 91  0     1  0  0  0  0  0999 V2000
  -32.3973  -29.8238   24.0844 C   0  0  0  0  0  0  0  0  0  0  0  0
  -32.0246  -28.5103   24.3513 C   0  0  0  0  0  0  0  0  0  0  0  0
  -23.2767   -9.7939   19.9810 C   0  0  0  0  0  0  0  0  0  0  0  0
  -23.6886  -10.0503   22.3478 C   0  0  0  0  0  0  0  0  0  0  0  0
  -32.5593  -15.6587   24.5737 C   0  0  0  0  0  0  0  0  0  0  0  0
  -32.3577  -30.3064   22.7769 C   0  0  0  0  0  0  0  0  0  0  0  0
  -31.6110  -27.6789   23.3111 C   0  0  0  0  0  0  0  0  0  0  0  0
  -33.6840  -23.0658   23.5694 C   0  0  0  0  0  0  0  0  0  0  0  0
  -32.0905  -14.8453   23.5421 C   0  0  0  0  0  0  0  0  0  0  0  0
  -22.5569   -8.6260   20.2327 C   0  0  0  0  0  0  0  0  0  0  0  0
  -22.9687   -8.8824   22.5995 C   0  0  0  0  0  0  0  0  0  0  0  0
  -33.1378  -22.1730   24.4904 C   0  0  0  0  0  0  0  0  0  0  0  0
  -21.5456   -5.7745   23.8348 C   0  0  0  0  0  0  0  0  0  0  0  0
  -22.0921   -4.8569   24.7320 C   0  0  0  0  0  0  0  0  0  0  0  0
  -30.9913  -14.6302   26.0971 C   0  0  0  0  0  0  0  0  0  0  0  0
  -31.8961  -21.1111   22.7157 C   0  0  0  0  0  0  0  0  0  0  0  0
  -24.0352   -4.6281   23.3145 C   0  0  0  0  0  0  0  0  0  0  0  0
  -23.8426  -10.5061   21.0385 C   0  0  0  0  0  0  0  0  0  0  0  0
  -32.0097  -15.5511   25.8512 C   0  0  0  0  0  0  0  0  0  0  0  0
  -24.0840  -13.0262   20.7244 C   0  0  0  0  0  0  0  0  0  0  0  0
  -31.9527  -29.4776   21.7187 C   0  0  0  0  0  0  0  0  0  0  0  0
  -33.3314  -22.9948   22.2140 C   0  0  0  0  0  0  0  0  0  0  0  0
  -31.5647  -28.1513   21.9884 C   0  0  0  0  0  0  0  0  0  0  0  0
  -32.4412  -22.0026   21.7790 C   0  0  0  0  0  0  0  0  0  0  0  0
  -31.0721  -13.9244   23.7879 C   0  0  0  0  0  0  0  0  0  0  0  0
  -22.4029   -8.1702   21.5420 C   0  0  0  0  0  0  0  0  0  0  0  0
  -32.2415  -21.1973   24.0641 C   0  0  0  0  0  0  0  0  0  0  0  0
  -22.2439   -6.1189   22.6774 C   0  0  0  0  0  0  0  0  0  0  0  0
  -23.3368   -4.2837   24.4718 C   0  0  0  0  0  0  0  0  0  0  0  0
  -30.5225  -13.8168   25.0655 C   0  0  0  0  0  0  0  0  0  0  0  0
  -23.4887   -5.5457   22.4173 C   0  0  0  0  0  0  0  0  0  0  0  0
  -24.5867  -11.7124   20.7790 C   0  0  0  0  0  0  0  0  0  0  0  0
  -25.1828  -13.8031   20.4499 C   0  0  0  0  0  0  0  0  0  0  0  0
  -32.1110  -18.6118   26.5300 C   0  0  0  0  0  0  0  0  0  0  0  0
  -32.5125  -16.4238   26.9578 C   0  0  0  0  0  0  0  0  0  0  0  0
  -22.7436  -13.5017   20.9057 C   0  0  0  0  0  0  0  0  0  0  0  0
  -31.8995  -24.9561   20.1631 C   0  0  0  0  0  0  0  0  0  0  0  0
  -32.6781  -22.6515   18.0172 C   0  0  0  0  0  0  0  0  0  0  0  0
  -33.4393  -19.3768   17.4308 C   0  0  0  0  0  0  0  0  0  0  0  0
  -31.0357  -13.0825   21.4139 C   0  0  0  0  0  0  0  0  0  0  0  0
  -31.8809  -30.0581   20.3286 C   0  0  0  0  0  0  0  0  0  0  0  0
  -33.9499  -23.9483   21.2288 C   0  0  0  0  0  0  0  0  0  0  0  0
  -32.0457  -21.8713   20.3317 C   0  0  0  0  0  0  0  0  0  0  0  0
  -31.7887  -29.0010   19.2311 C   0  0  0  0  0  0  0  0  0  0  0  0
  -29.4456  -13.6256   18.2748 C   0  0  0  0  0  0  0  0  0  0  0  0
  -30.7491  -27.9451   19.5930 C   0  0  0  0  0  0  0  0  0  0  0  0
  -27.9725  -13.3221   18.5573 C   0  0  0  0  0  0  0  0  0  0  0  0
  -30.3755  -12.6938   19.0500 C   0  0  0  0  0  0  0  0  0  0  0  0
  -28.6585  -12.3329   20.7794 C   0  0  0  0  0  0  0  0  0  0  0  0
  -31.1340  -27.2114   20.8833 C   0  0  1  0  0  0  0  0  0  0  0  0
  -33.1246  -24.1112   19.9561 C   0  0  1  0  0  0  0  0  0  0  0  0
  -27.6843  -13.2882   20.0710 C   0  0  2  0  0  0  0  0  0  0  0  0
  -33.9897  -17.7849   15.5706 C   0  0  0  0  0  0  0  0  0  0  0  0
  -29.7397  -22.5976   17.1972 C   0  0  0  0  0  0  0  0  0  0  0  0
  -30.1661  -20.4024   16.0714 C   0  0  0  0  0  0  0  0  0  0  0  0
  -31.3565  -22.4525   15.2948 C   0  0  0  0  0  0  0  0  0  0  0  0
  -36.0956  -18.7655   18.5839 C   0  0  0  0  0  0  0  0  0  0  0  0
  -32.5026  -19.9919   26.0975 C   0  0  0  0  0  0  0  0  0  1  0  0
  -32.0077  -21.4017   17.5001 C   0  0  1  0  0  0  0  0  0  0  0  0
  -34.5495  -18.7299   16.6225 C   0  0  2  0  0  0  0  0  0  0  0  0
  -30.8232  -21.7170   16.5435 C   0  0  0  0  0  0  0  0  0  0  0  0
  -25.9025  -11.6541   20.5569 N   0  0  0  0  0  0  0  0  0  0  0  0
  -32.9853  -17.6591   26.5615 N   0  0  0  0  0  0  0  0  0  0  0  0
  -26.2358  -12.9410   20.3599 N   0  0  0  0  0  0  0  0  0  0  0  0
  -32.6726  -22.8309   19.4078 N   0  0  0  0  0  0  0  0  0  0  0  0
  -30.0463  -12.7167   20.4768 N   0  0  0  0  0  0  0  0  0  0  0  0
  -25.3413  -15.1328   20.2790 N   0  0  0  0  0  0  0  0  0  0  0  0
  -21.7351  -12.5684   21.1815 N   0  0  0  0  0  0  0  0  0  0  0  0
  -30.5977  -13.1000   22.7377 N   0  0  0  0  0  0  0  0  0  0  0  0
  -32.1669  -26.2327   20.6194 N   0  0  0  0  0  0  0  0  0  0  0  0
  -33.0618  -20.5918   16.8991 N   0  0  0  0  0  0  0  0  0  0  0  0
  -35.4564  -17.9548   17.5156 N   0  3  0  0  0  0  0  0  0  0  0  0
  -22.4461  -14.7165   20.8092 O   0  0  0  0  0  0  0  0  0  0  0  0
  -30.7935  -24.4852   19.9249 O   0  0  0  0  0  0  0  0  0  0  0  0
  -33.1942  -23.4361   17.2173 O   0  0  0  0  0  0  0  0  0  0  0  0
  -32.9529  -18.8548   18.4315 O   0  0  0  0  0  0  0  0  0  0  0  0
  -32.1794  -13.3861   21.0649 O   0  0  0  0  0  0  0  0  0  0  0  0
  -21.7004   -7.0307   21.7880 O   0  0  0  0  0  0  0  0  0  0  0  0
  -31.7064  -20.3250   24.9611 O   0  0  0  0  0  0  0  0  0  1  0  0
  -23.8622   -3.4037   25.3343 F   0  0  0  0  0  0  0  0  0  0  0  0
  -29.5428  -12.9356   25.3135 F   0  0  0  0  0  0  0  0  0  0  0  0
  -24.1648   -5.8736   21.3077 F   0  0  0  0  0  0  0  0  0  0  0  0
  -32.5807  -15.8865   28.5611 S   0  0  0  0  0  0  0  0  0  0  0  0
  1  2  1  0  0  0  0
  1  6  2  0  0  0  0
  2  7  2  0  0  0  0
  3 10  2  0  0  0  0
  3 18  1  0  0  0  0
  4 11  1  0  0  0  0
  4 18  2  0  0  0  0
  5  9  2  0  0  0  0
  5 19  1  0  0  0  0
  6 21  1  0  0  0  0
  7 23  1  0  0  0  0
  8 12  2  0  0  0  0
  8 22  1  0  0  0  0
  9 25  1  0  0  0  0
 10 26  1  0  0  0  0
 11 26  2  0  0  0  0
 12 27  1  0  0  0  0
 13 14  2  0  0  0  0
 13 28  1  0  0  0  0
 14 29  1  0  0  0  0
 15 19  2  0  0  0  0
 15 30  1  0  0  0  0
 16 24  1  0  0  0  0
 16 27  2  0  0  0  0
 17 29  2  0  0  0  0
 17 31  1  0  0  0  0
 18 32  1  0  0  0  0
 19 35  1  0  0  0  0
 20 32  1  0  0  0  0
 20 33  2  0  0  0  0
 20 36  1  0  0  0  0
 21 23  2  0  0  0  0
 21 41  1  0  0  0  0
 22 24  2  0  0  0  0
 22 42  1  0  0  0  0
 23 50  1  0  0  0  0
 24 43  1  0  0  0  0
 25 30  2  0  0  0  0
 25 69  1  0  0  0  0
 26 78  1  0  0  0  0
 27 79  1  0  0  0  0
 28 31  2  0  0  0  0
 28 78  1  0  0  0  0
 29 80  1  0  0  0  0
 30 81  1  0  0  0  0
 31 82  1  0  0  0  0
 32 62  2  0  0  0  0
 33 64  1  0  0  0  0
 33 67  1  0  0  0  0
 34 58  1  0  0  0  0
 34 63  2  0  0  0  0
 35 63  1  0  0  0  0
 35 83  2  0  0  0  0
 36 68  1  0  0  0  0
 36 73  2  0  0  0  0
 37 51  1  0  0  0  0
 37 70  1  0  0  0  0
 37 74  2  0  0  0  0
 38 59  1  0  0  0  0
 38 65  1  0  0  0  0
 38 75  2  0  0  0  0
 39 60  1  0  0  0  0
 39 71  1  0  0  0  0
 39 76  2  0  0  0  0
 40 66  1  0  0  0  0
 40 69  1  0  0  0  0
 40 77  2  0  0  0  0
 41 44  1  0  0  0  0
 42 51  1  0  0  0  0
 43 65  1  0  0  0  0
 44 46  1  0  0  0  0
 45 47  1  0  0  0  0
 45 48  1  0  0  0  0
 46 50  1  0  0  0  0
 47 52  1  0  0  0  0
 48 66  1  0  0  0  0
 49 52  1  0  0  0  0
 49 66  1  0  0  0  0
 50 70  1  0  0  0  0
 51 65  1  0  0  0  0
 52 64  1  0  0  0  0
 53 60  1  0  0  0  0
 54 61  1  0  0  0  0
 55 61  1  0  0  0  0
 56 61  1  0  0  0  0
 57 72  1  0  0  0  0
 58 79  1  0  0  0  0
 59 61  1  0  0  0  0
 59 71  1  0  0  0  0
 60 72  1  0  0  0  0
 62 64  1  0  0  0  0
M  CHG  1  72   1
M  ISO  4  40 100  58 101  69 100  79 101
M  END
> <Batch ID>
0084

> <Smiles>
CNC(C)C(=O)NC(C(=O)N1Cc2cc([101O:1][101CH:1]=CNC(=S)c3ccc([100NH:0][100C:0](=O)N4CCCC(n5nc(-c6ccc(Oc7ccc(F)cc7F)cc6)c(C(N)=O)c5N)C4)c(F)c3)ccc2CC1C(=O)NC1CCCc2ccccc21)C(C)(C)C

> <Shape>
0.169

> <Color>
0.187

> <Negative vol penalty>
0.000

$$$$

  -OEChem-04052300123D

 84 92  0     1  0  0  0  0  0999 V2000
  -21.3450  -30.5733   14.4951 C   0  0  0  0  0  0  0  0  0  0  0  0
  -22.5418  -30.0852   15.0097 C   0  0  0  0  0  0  0  0  0  0  0  0
  -23.9661   -9.6591   21.9455 C   0  0  0  0  0  0  0  0  0  0  0  0
  -24.6504  -11.0868   23.7704 C   0  0  0  0  0  0  0  0  0  0  0  0
  -31.0727  -19.9716   19.6413 C   0  0  0  0  0  0  0  0  0  0  0  0
  -20.8005  -31.7535   14.9995 C   0  0  0  0  0  0  0  0  0  0  0  0
  -23.1954  -30.7777   16.0284 C   0  0  0  0  0  0  0  0  0  0  0  0
  -24.8375  -27.7179   19.7143 C   0  0  0  0  0  0  0  0  0  0  0  0
  -30.7594  -18.6300   19.4237 C   0  0  0  0  0  0  0  0  0  0  0  0
  -23.5545   -8.6887   22.8589 C   0  0  0  0  0  0  0  0  0  0  0  0
  -24.2388  -10.1164   24.6839 C   0  0  0  0  0  0  0  0  0  0  0  0
  -26.0032  -26.9937   19.4686 C   0  0  0  0  0  0  0  0  0  0  0  0
  -20.9003   -8.1362   24.8795 C   0  0  0  0  0  0  0  0  0  0  0  0
  -19.6638   -7.5273   24.6654 C   0  0  0  0  0  0  0  0  0  0  0  0
  -28.7309  -20.4647   19.9728 C   0  0  0  0  0  0  0  0  0  0  0  0
  -27.2653  -28.6027   20.7481 C   0  0  0  0  0  0  0  0  0  0  0  0
  -20.7510   -5.3757   24.5049 C   0  0  0  0  0  0  0  0  0  0  0  0
  -24.5141  -10.8582   22.4012 C   0  0  0  0  0  0  0  0  0  0  0  0
  -30.0584  -20.8890   19.9159 C   0  0  0  0  0  0  0  0  0  0  0  0
  -24.1675  -12.9107   20.9266 C   0  0  0  0  0  0  0  0  0  0  0  0
  -21.4427  -32.4557   16.0316 C   0  0  0  0  0  0  0  0  0  0  0  0
  -24.8787  -28.8978   20.4709 C   0  0  0  0  0  0  0  0  0  0  0  0
  -22.6596  -31.9692   16.5462 C   0  0  0  0  0  0  0  0  0  0  0  0
  -26.0983  -29.3386   21.0042 C   0  0  0  0  0  0  0  0  0  0  0  0
  -29.4319  -18.2056   19.4805 C   0  0  0  0  0  0  0  0  0  0  0  0
  -23.6908   -8.9173   24.2282 C   0  0  0  0  0  0  0  0  0  0  0  0
  -27.2178  -27.4376   19.9831 C   0  0  0  0  0  0  0  0  0  0  0  0
  -22.0622   -7.3649   24.9063 C   0  0  0  0  0  0  0  0  0  0  0  0
  -19.5891   -6.1471   24.4781 C   0  0  0  0  0  0  0  0  0  0  0  0
  -28.4176  -19.1230   19.7551 C   0  0  0  0  0  0  0  0  0  0  0  0
  -21.9876   -5.9846   24.7190 C   0  0  0  0  0  0  0  0  0  0  0  0
  -24.9401  -11.8608   21.4581 C   0  0  0  0  0  0  0  0  0  0  0  0
  -25.0252  -13.5764   20.0854 C   0  0  0  0  0  0  0  0  0  0  0  0
  -30.3921  -22.3175   20.1475 C   0  0  0  0  0  0  0  0  0  0  0  0
  -22.7971  -13.2538   21.1716 C   0  0  0  0  0  0  0  0  0  0  0  0
  -24.2044  -31.9517   19.9027 C   0  0  0  0  0  0  0  0  0  0  0  0
  -24.7736  -32.2646   23.0808 C   0  0  0  0  0  0  0  0  0  0  0  0
  -29.4895  -24.6115   20.0116 C   0  0  0  0  0  0  0  0  0  0  0  0
  -26.3024  -31.0573   25.8830 C   0  0  0  0  0  0  0  0  0  0  0  0
  -30.0051  -15.8054   18.9739 C   0  0  0  0  0  0  0  0  0  0  0  0
  -20.8401  -33.7521   16.5120 C   0  0  0  0  0  0  0  0  0  0  0  0
  -23.6082  -29.6531   20.7495 C   0  0  0  0  0  0  0  0  0  0  0  0
  -26.1931  -30.5881   21.8398 C   0  0  0  0  0  0  0  0  0  0  0  0
  -21.4024  -34.2265   17.8495 C   0  0  0  0  0  0  0  0  0  0  0  0
  -29.6273  -12.3120   18.3991 C   0  0  0  0  0  0  0  0  0  0  0  0
  -22.9247  -34.1296   17.8530 C   0  0  0  0  0  0  0  0  0  0  0  0
  -28.3106  -11.9695   19.0999 C   0  0  0  0  0  0  0  0  0  0  0  0
  -30.4232  -13.3637   19.1698 C   0  0  0  0  0  0  0  0  0  0  0  0
  -28.3647  -14.2461   20.1959 C   0  0  0  0  0  0  0  0  0  0  0  0
  -23.3856  -32.6787   17.6685 C   0  0  1  0  0  0  0  0  0  0  0  0
  -23.8487  -31.1180   21.1011 C   0  0  1  0  0  0  0  0  0  0  0  0
  -27.4978  -13.2385   19.4234 C   0  0  2  0  0  0  0  0  0  0  0  0
  -26.6142  -31.5492   28.3239 C   0  0  0  0  0  0  0  0  0  0  0  0
  -26.7648  -34.4678   22.3800 C   0  0  0  0  0  0  0  0  0  0  0  0
  -27.7095  -34.2522   24.6885 C   0  0  0  0  0  0  0  0  0  0  0  0
  -25.3351  -34.9496   24.3745 C   0  0  0  0  0  0  0  0  0  0  0  0
  -25.0225  -28.5103   26.6786 C   0  0  0  0  0  0  0  0  0  0  0  0
  -28.2252  -25.3220   19.5761 C   0  0  0  0  0  0  0  0  0  1  0  0
  -25.9917  -32.5497   23.9257 C   0  0  1  0  0  0  0  0  0  0  0  0
  -25.7818  -30.8106   27.2874 C   0  0  2  0  0  0  0  0  0  0  0  0
  -26.4491  -34.0323   23.8249 C   0  0  0  0  0  0  0  0  0  0  0  0
  -26.1922  -11.8555   20.9933 N   0  0  0  0  0  0  0  0  0  0  0  0
  -26.2130  -12.9104   20.1609 N   0  0  0  0  0  0  0  0  0  0  0  0
  -24.9241  -31.2953   22.0790 N   0  0  0  0  0  0  0  0  0  0  0  0
  -29.5906  -14.5386   19.4367 N   0  0  0  0  0  0  0  0  0  0  0  0
  -24.8716  -14.6606   19.2958 N   0  0  0  0  0  0  0  0  0  0  0  0
  -22.0600  -12.4641   22.0647 N   0  0  0  0  0  0  0  0  0  0  0  0
  -29.1169  -16.8421   19.2584 N   0  0  0  0  0  0  0  0  0  0  0  0
  -29.3857  -23.2305   19.8371 N   0  0  0  0  0  0  0  0  0  0  0  0
  -23.2465  -31.9428   18.9068 N   0  0  0  0  0  0  0  0  0  0  0  0
  -25.6600  -32.1175   25.2791 N   0  0  0  0  0  0  0  0  0  0  0  0
  -25.8190  -29.3551   27.6053 N   0  3  0  0  0  0  0  0  0  0  0  0
  -31.4918  -22.6071   20.6110 O   0  0  0  0  0  0  0  0  0  0  0  0
  -22.2379  -14.2217   20.6024 O   0  0  0  0  0  0  0  0  0  0  0  0
  -25.2685  -32.5592   19.8836 O   0  0  0  0  0  0  0  0  0  0  0  0
  -23.7252  -32.8742   23.3062 O   0  0  0  0  0  0  0  0  0  0  0  0
  -30.4669  -25.2070   20.4562 O   0  0  0  0  0  0  0  0  0  0  0  0
  -27.1927  -30.3799   25.3740 O   0  0  0  0  0  0  0  0  0  0  0  0
  -31.0564  -15.9548   18.3459 O   0  0  0  0  0  0  0  0  0  0  0  0
  -23.2890   -7.9707   25.1198 O   0  0  0  0  0  0  0  0  0  0  0  0
  -28.3573  -26.7330   19.7442 O   0  0  0  0  0  0  0  0  0  1  0  0
  -18.4014   -5.5624   24.2739 F   0  0  0  0  0  0  0  0  0  0  0  0
  -27.1378  -18.7268   19.8117 F   0  0  0  0  0  0  0  0  0  0  0  0
  -23.1002   -5.2382   24.7449 F   0  0  0  0  0  0  0  0  0  0  0  0
  1  2  1  0  0  0  0
  1  6  2  0  0  0  0
  2  7  2  0  0  0  0
  3 10  2  0  0  0  0
  3 18  1  0  0  0  0
  4 11  1  0  0  0  0
  4 18  2  0  0  0  0
  5  9  2  0  0  0  0
  5 19  1  0  0  0  0
  6 21  1  0  0  0  0
  7 23  1  0  0  0  0
  8 12  2  0  0  0  0
  8 22  1  0  0  0  0
  9 25  1  0  0  0  0
 10 26  1  0  0  0  0
 11 26  2  0  0  0  0
 12 27  1  0  0  0  0
 13 14  2  0  0  0  0
 13 28  1  0  0  0  0
 14 29  1  0  0  0  0
 15 19  2  0  0  0  0
 15 30  1  0  0  0  0
 16 24  1  0  0  0  0
 16 27  2  0  0  0  0
 17 29  2  0  0  0  0
 17 31  1  0  0  0  0
 18 32  1  0  0  0  0
 19 34  1  0  0  0  0
 20 32  1  0  0  0  0
 20 33  2  0  0  0  0
 20 35  1  0  0  0  0
 21 23  2  0  0  0  0
 21 41  1  0  0  0  0
 22 24  2  0  0  0  0
 22 42  1  0  0  0  0
 23 50  1  0  0  0  0
 24 43  1  0  0  0  0
 25 30  2  0  0  0  0
 25 68  1  0  0  0  0
 26 80  1  0  0  0  0
 27 81  1  0  0  0  0
 28 31  2  0  0  0  0
 28 80  1  0  0  0  0
 29 82  1  0  0  0  0
 30 83  1  0  0  0  0
 31 84  1  0  0  0  0
 32 62  2  0  0  0  0
 33 63  1  0  0  0  0
 33 66  1  0  0  0  0
 34 69  1  0  0  0  0
 34 73  2  0  0  0  0
 35 67  1  0  0  0  0
 35 74  2  0  0  0  0
 36 51  1  0  0  0  0
 36 70  1  0  0  0  0
 36 75  2  0  0  0  0
 37 59  1  0  0  0  0
 37 64  1  0  0  0  0
 37 76  2  0  0  0  0
 38 58  1  0  0  0  0
 38 69  1  0  0  0  0
 38 77  2  0  0  0  0
 39 60  1  0  0  0  0
 39 71  1  0  0  0  0
 39 78  2  0  0  0  0
 40 65  1  0  0  0  0
 40 68  1  0  0  0  0
 40 79  2  0  0  0  0
 41 44  1  0  0  0  0
 42 51  1  0  0  0  0
 43 64  1  0  0  0  0
 44 46  1  0  0  0  0
 45 47  1  0  0  0  0
 45 48  1  0  0  0  0
 46 50  1  0  0  0  0
 47 52  1  0  0  0  0
 48 65  1  0  0  0  0
 49 52  1  0  0  0  0
 49 65  1  0  0  0  0
 50 70  1  0  0  0  0
 51 64  1  0  0  0  0
 52 63  1  0  0  0  0
 53 60  1  0  0  0  0
 54 61  1  0  0  0  0
 55 61  1  0  0  0  0
 56 61  1  0  0  0  0
 57 72  1  0  0  0  0
 58 81  1  0  0  0  0
 59 61  1  0  0  0  0
 59 71  1  0  0  0  0
 60 72  1  0  0  0  0
 62 63  1  0  0  0  0
M  CHG  1  72   1
M  ISO  4  40 100  58 101  68 100  81 101
M  END
> <Batch ID>
0084

> <Smiles>
CNC(C)C(=O)NC(C(=O)N1Cc2cc([101O:1][101CH2:1]C(=O)NC(=O)c3ccc([100NH:0][100C:0](=O)N4CCCC(n5nc(-c6ccc(Oc7ccc(F)cc7F)cc6)c(C(N)=O)c5N)C4)c(F)c3)ccc2CC1C(=O)NC1CCCc2ccccc21)C(C)(C)C

> <Shape>
0.333

> <Color>
0.168

> <Negative vol penalty>
0.000

$$$$

  -OEChem-04052300123D

 86 95  0     1  0  0  0  0  0999 V2000
  -30.5962  -35.6772   22.5506 C   0  0  0  0  0  0  0  0  0  0  0  0
  -30.6659  -34.3658   22.0915 C   0  0  0  0  0  0  0  0  0  0  0  0
  -31.0546  -19.4914   20.4915 C   0  0  0  0  0  0  0  0  0  0  0  0
  -23.2535   -9.4303   20.7624 C   0  0  0  0  0  0  0  0  0  0  0  0
  -23.2793  -10.9889   22.6083 C   0  0  0  0  0  0  0  0  0  0  0  0
  -29.6225  -36.0380   23.4810 C   0  0  0  0  0  0  0  0  0  0  0  0
  -29.7625  -33.4141   22.5634 C   0  0  0  0  0  0  0  0  0  0  0  0
  -27.3747  -28.7294   19.4237 C   0  0  0  0  0  0  0  0  0  0  0  0
  -30.0413  -20.4337   20.3159 C   0  0  0  0  0  0  0  0  0  0  0  0
  -30.7960  -18.1391   20.2672 C   0  0  0  0  0  0  0  0  0  0  0  0
  -22.5072   -8.5351   21.5286 C   0  0  0  0  0  0  0  0  0  0  0  0
  -22.5329  -10.0937   23.3745 C   0  0  0  0  0  0  0  0  0  0  0  0
  -27.7062  -27.3767   19.3604 C   0  0  0  0  0  0  0  0  0  0  0  0
  -23.0727   -6.2955   23.9962 C   0  0  0  0  0  0  0  0  0  0  0  0
  -23.4557   -4.9544   23.9807 C   0  0  0  0  0  0  0  0  0  0  0  0
  -26.0183  -26.8919   21.0142 C   0  0  0  0  0  0  0  0  0  0  0  0
  -21.2870   -4.3452   23.1073 C   0  0  0  0  0  0  0  0  0  0  0  0
  -23.6396  -10.6572   21.3022 C   0  0  0  0  0  0  0  0  0  0  0  0
  -23.9186  -12.5933   19.6647 C   0  0  0  0  0  0  0  0  0  0  0  0
  -28.7006  -35.0926   23.9572 C   0  0  0  0  0  0  0  0  0  0  0  0
  -26.3682  -29.1757   20.2922 C   0  0  0  0  0  0  0  0  0  0  0  0
  -28.7764  -33.7624   23.5021 C   0  0  0  0  0  0  0  0  0  0  0  0
  -25.6741  -28.2504   21.0848 C   0  0  0  0  0  0  0  0  0  0  0  0
  -28.7694  -20.0238   19.9160 C   0  0  0  0  0  0  0  0  0  0  0  0
  -29.5241  -17.7292   19.8673 C   0  0  0  0  0  0  0  0  0  0  0  0
  -22.1469   -8.8667   22.8347 C   0  0  0  0  0  0  0  0  0  0  0  0
  -27.0299  -26.4581   20.1578 C   0  0  0  0  0  0  0  0  0  0  0  0
  -21.7968   -6.6615   23.5673 C   0  0  0  0  0  0  0  0  0  0  0  0
  -22.5628   -3.9792   23.5362 C   0  0  0  0  0  0  0  0  0  0  0  0
  -20.9040   -5.6864   23.1229 C   0  0  0  0  0  0  0  0  0  0  0  0
  -28.5108  -18.6715   19.6917 C   0  0  0  0  0  0  0  0  0  0  0  0
  -24.4111  -11.5822   20.5114 C   0  0  0  0  0  0  0  0  0  0  0  0
  -25.0442  -13.1874   19.1485 C   0  0  0  0  0  0  0  0  0  0  0  0
  -26.5810  -22.9393   19.6356 C   0  0  0  0  0  0  0  0  0  0  0  0
  -25.6580  -21.8975   19.2609 C   0  0  0  0  0  0  0  0  0  0  0  0
  -27.9144  -22.3492   19.9400 C   0  0  0  0  0  0  0  0  0  0  0  0
  -24.3713  -22.0131   18.9152 C   0  0  0  0  0  0  0  0  0  0  0  0
  -26.3778  -24.2535   19.7273 C   0  0  0  0  0  0  0  0  0  1  0  0
  -22.5646  -12.9626   19.3712 C   0  0  0  0  0  0  0  0  0  0  0  0
  -26.2670  -31.1471   22.7836 C   0  0  0  0  0  0  0  0  0  0  0  0
  -23.0721  -30.6286   22.5686 C   0  0  0  0  0  0  0  0  0  0  0  0
  -20.5292  -28.5990   21.5385 C   0  0  0  0  0  0  0  0  0  0  0  0
  -30.1608  -15.2938   19.7699 C   0  0  0  0  0  0  0  0  0  0  0  0
  -27.6958  -35.5188   24.9981 C   0  0  0  0  0  0  0  0  0  0  0  0
  -26.0043  -30.6347   20.3291 C   0  0  0  0  0  0  0  0  0  0  0  0
  -24.5718  -28.6757   22.0188 C   0  0  0  0  0  0  0  0  0  0  0  0
  -26.4088  -20.6018   19.3239 C   0  0  0  0  0  0  0  0  0  0  0  0
  -26.5390  -34.5371   25.1660 C   0  0  0  0  0  0  0  0  0  0  0  0
  -29.8995  -11.7691   19.3393 C   0  0  0  0  0  0  0  0  0  0  0  0
  -27.0614  -33.1067   25.2556 C   0  0  0  0  0  0  0  0  0  0  0  0
  -28.4078  -11.4894   19.5362 C   0  0  0  0  0  0  0  0  0  0  0  0
  -30.3977  -12.8716   20.2720 C   0  0  0  0  0  0  0  0  0  0  0  0
  -28.1383  -13.8427   20.4174 C   0  0  0  0  0  0  0  0  0  0  0  0
  -27.7985  -32.7072   23.9716 C   0  0  1  0  0  0  0  0  0  0  0  0
  -25.3142  -31.0457   21.6262 C   0  0  1  0  0  0  0  0  0  0  0  0
  -27.5760  -12.7844   19.4543 C   0  0  2  0  0  0  0  0  0  0  0  0
  -18.0259  -28.4237   21.5373 C   0  0  0  0  0  0  0  0  0  0  0  0
  -23.1282  -29.8407   25.5158 C   0  0  0  0  0  0  0  0  0  0  0  0
  -20.8754  -28.7930   25.2068 C   0  0  0  0  0  0  0  0  0  0  0  0
  -21.1688  -31.2441   24.8483 C   0  0  0  0  0  0  0  0  0  0  0  0
  -20.4152  -28.5934   18.5812 C   0  0  0  0  0  0  0  0  0  0  0  0
  -22.1106  -29.6221   23.1530 C   0  0  1  0  0  0  0  0  0  0  0  0
  -19.2528  -28.8937   20.7715 C   0  0  2  0  0  0  0  0  0  0  0  0
  -21.8428  -29.8669   24.6649 C   0  0  0  0  0  0  0  0  0  0  0  0
  -25.7457  -11.5336   20.5344 N   0  0  0  0  0  0  0  0  0  0  0  0
  -26.1013  -12.5217   19.6957 N   0  0  0  0  0  0  0  0  0  0  0  0
  -27.7611  -20.9664   19.7417 N   0  0  0  0  0  0  0  0  0  0  0  0
  -24.2570  -30.1139   22.0238 N   0  0  0  0  0  0  0  0  0  0  0  0
  -29.5648  -14.0686   20.1368 N   0  0  0  0  0  0  0  0  0  0  0  0
  -25.2230  -14.2090   18.2844 N   0  0  0  0  0  0  0  0  0  0  0  0
  -21.5285  -12.2481   19.9879 N   0  0  0  0  0  0  0  0  0  0  0  0
  -29.2652  -16.3547   19.6404 N   0  0  0  0  0  0  0  0  0  0  0  0
  -26.8523  -32.3911   22.9232 N   0  0  0  0  0  0  0  0  0  0  0  0
  -20.9144  -29.6683   22.3192 N   0  0  0  0  0  0  0  0  0  0  0  0
  -19.2729  -28.2071   19.4490 N   0  3  0  0  0  0  0  0  0  0  0  0
  -28.9086  -22.9653   20.2858 O   0  0  0  0  0  0  0  0  0  0  0  0
  -22.2818  -13.8877   18.5727 O   0  0  0  0  0  0  0  0  0  0  0  0
  -26.4559  -30.1696   23.4981 O   0  0  0  0  0  0  0  0  0  0  0  0
  -22.7792  -31.8267   22.5882 O   0  0  0  0  0  0  0  0  0  0  0  0
  -21.1229  -27.5260   21.4565 O   0  0  0  0  0  0  0  0  0  0  0  0
  -31.3725  -15.3882   19.5578 O   0  0  0  0  0  0  0  0  0  0  0  0
  -21.4184   -7.9935   23.5826 O   0  0  0  0  0  0  0  0  0  0  0  0
  -27.3520  -25.1372   20.0984 O   0  0  0  0  0  0  0  0  0  1  0  0
  -22.9313   -2.6915   23.5200 F   0  0  0  0  0  0  0  0  0  0  0  0
  -19.6773   -6.0321   22.7085 F   0  0  0  0  0  0  0  0  0  0  0  0
  -27.2868  -18.2773   19.3079 F   0  0  0  0  0  0  0  0  0  0  0  0
  1  2  1  0  0  0  0
  1  6  2  0  0  0  0
  2  7  2  0  0  0  0
  3  9  2  0  0  0  0
  3 10  1  0  0  0  0
  4 11  2  0  0  0  0
  4 18  1  0  0  0  0
  5 12  1  0  0  0  0
  5 18  2  0  0  0  0
  6 20  1  0  0  0  0
  7 22  1  0  0  0  0
  8 13  2  0  0  0  0
  8 21  1  0  0  0  0
  9 24  1  0  0  0  0
 10 25  2  0  0  0  0
 11 26  1  0  0  0  0
 12 26  2  0  0  0  0
 13 27  1  0  0  0  0
 14 15  2  0  0  0  0
 14 28  1  0  0  0  0
 15 29  1  0  0  0  0
 16 23  1  0  0  0  0
 16 27  2  0  0  0  0
 17 29  2  0  0  0  0
 17 30  1  0  0  0  0
 18 32  1  0  0  0  0
 19 32  1  0  0  0  0
 19 33  2  0  0  0  0
 19 39  1  0  0  0  0
 20 22  2  0  0  0  0
 20 44  1  0  0  0  0
 21 23  2  0  0  0  0
 21 45  1  0  0  0  0
 22 54  1  0  0  0  0
 23 46  1  0  0  0  0
 24 31  2  0  0  0  0
 24 67  1  0  0  0  0
 25 31  1  0  0  0  0
 25 72  1  0  0  0  0
 26 82  1  0  0  0  0
 27 83  1  0  0  0  0
 28 30  2  0  0  0  0
 28 82  1  0  0  0  0
 29 84  1  0  0  0  0
 30 85  1  0  0  0  0
 31 86  1  0  0  0  0
 32 65  2  0  0  0  0
 33 66  1  0  0  0  0
 33 70  1  0  0  0  0
 34 35  1  0  0  0  0
 34 36  1  0  0  0  0
 34 38  2  0  0  0  0
 35 37  2  0  0  0  0
 35 47  1  0  0  0  0
 36 67  1  0  0  0  0
 36 76  2  0  0  0  0
 38 83  1  0  0  0  0
 39 71  1  0  0  0  0
 39 77  2  0  0  0  0
 40 55  1  0  0  0  0
 40 73  1  0  0  0  0
 40 78  2  0  0  0  0
 41 62  1  0  0  0  0
 41 68  1  0  0  0  0
 41 79  2  0  0  0  0
 42 63  1  0  0  0  0
 42 74  1  0  0  0  0
 42 80  2  0  0  0  0
 43 69  1  0  0  0  0
 43 72  1  0  0  0  0
 43 81  2  0  0  0  0
 44 48  1  0  0  0  0
 45 55  1  0  0  0  0
 46 68  1  0  0  0  0
 47 67  1  0  0  0  0
 48 50  1  0  0  0  0
 49 51  1  0  0  0  0
 49 52  1  0  0  0  0
 50 54  1  0  0  0  0
 51 56  1  0  0  0  0
 52 69  1  0  0  0  0
 53 56  1  0  0  0  0
 53 69  1  0  0  0  0
 54 73  1  0  0  0  0
 55 68  1  0  0  0  0
 56 66  1  0  0  0  0
 57 63  1  0  0  0  0
 58 64  1  0  0  0  0
 59 64  1  0  0  0  0
 60 64  1  0  0  0  0
 61 75  1  0  0  0  0
 62 64  1  0  0  0  0
 62 74  1  0  0  0  0
 63 75  1  0  0  0  0
 65 66  1  0  0  0  0
M  CHG  1  75   1
M  ISO  4  38 101  43 100  72 100  83 101
M  END
> <Batch ID>
0084

> <Smiles>
C=C1CN(c2cccc([100NH:0][100C:0](=O)N3CCCC(n4nc(-c5ccc(Oc6ccc(F)cc6F)cc5)c(C(N)=O)c4N)C3)c2F)C(=O)C1=[101CH:1][101O:1]c1ccc2c(c1)CN(C(=O)C(NC(=O)C(C)NC)C(C)(C)C)C(C(=O)NC1CCCc3ccccc31)C2

> <Shape>
0.321

> <Color>
0.118

> <Negative vol penalty>
0.000

$$$$

  -OEChem-04052300123D

 83 91  0     1  0  0  0  0  0999 V2000
  -28.2036  -33.9910   25.1235 C   0  0  0  0  0  0  0  0  0  0  0  0
  -28.3157  -32.6490   24.7745 C   0  0  0  0  0  0  0  0  0  0  0  0
  -23.9291  -11.9275   23.7189 C   0  0  0  0  0  0  0  0  0  0  0  0
  -23.2166  -14.0765   22.8756 C   0  0  0  0  0  0  0  0  0  0  0  0
  -30.6868  -19.8546   18.6019 C   0  0  0  0  0  0  0  0  0  0  0  0
  -26.9434  -34.5659   25.2821 C   0  0  0  0  0  0  0  0  0  0  0  0
  -27.1675  -31.8808   24.5849 C   0  0  0  0  0  0  0  0  0  0  0  0
  -27.4267  -28.9912   20.4342 C   0  0  0  0  0  0  0  0  0  0  0  0
  -30.5148  -18.4768   18.7348 C   0  0  0  0  0  0  0  0  0  0  0  0
  -23.2230  -12.1567   24.8997 C   0  0  0  0  0  0  0  0  0  0  0  0
  -22.5104  -14.3058   24.0565 C   0  0  0  0  0  0  0  0  0  0  0  0
  -28.1850  -27.8243   20.5171 C   0  0  0  0  0  0  0  0  0  0  0  0
  -21.3127  -12.0206   27.9896 C   0  0  0  0  0  0  0  0  0  0  0  0
  -20.5355  -10.9776   28.4934 C   0  0  0  0  0  0  0  0  0  0  0  0
  -28.3119  -20.1165   18.2440 C   0  0  0  0  0  0  0  0  0  0  0  0
  -26.1663  -26.5422   20.8341 C   0  0  0  0  0  0  0  0  0  0  0  0
  -19.2355  -10.9629   26.4570 C   0  0  0  0  0  0  0  0  0  0  0  0
  -23.9260  -12.8874   22.7068 C   0  0  0  0  0  0  0  0  0  0  0  0
  -29.5853  -20.6745   18.3565 C   0  0  0  0  0  0  0  0  0  0  0  0
  -24.1771  -12.0336   20.3161 C   0  0  0  0  0  0  0  0  0  0  0  0
  -25.7791  -33.8068   25.0850 C   0  0  0  0  0  0  0  0  0  0  0  0
  -26.0310  -28.9437   20.5617 C   0  0  0  0  0  0  0  0  0  0  0  0
  -25.8905  -32.4457   24.7424 C   0  0  0  0  0  0  0  0  0  0  0  0
  -25.3924  -27.7097   20.7499 C   0  0  0  0  0  0  0  0  0  0  0  0
  -29.2414  -17.9188   18.6223 C   0  0  0  0  0  0  0  0  0  0  0  0
  -22.5136  -13.3458   25.0685 C   0  0  0  0  0  0  0  0  0  0  0  0
  -27.5551  -26.5998   20.7200 C   0  0  0  0  0  0  0  0  0  0  0  0
  -21.0513  -12.5348   26.7196 C   0  0  0  0  0  0  0  0  0  0  0  0
  -19.4969  -10.4487   27.7271 C   0  0  0  0  0  0  0  0  0  0  0  0
  -28.1399  -18.7387   18.3769 C   0  0  0  0  0  0  0  0  0  0  0  0
  -20.0127  -12.0059   25.9533 C   0  0  0  0  0  0  0  0  0  0  0  0
  -24.6557  -12.6515   21.4870 C   0  0  0  0  0  0  0  0  0  0  0  0
  -25.2478  -12.0520   19.4560 C   0  0  0  0  0  0  0  0  0  0  0  0
  -28.7537  -23.3604   19.8259 C   0  0  0  0  0  0  0  0  0  0  0  0
  -29.7690  -22.1452   18.2144 C   0  0  0  0  0  0  0  0  0  0  0  0
  -22.8807  -11.4915   20.0314 C   0  0  0  0  0  0  0  0  0  0  0  0
  -23.9219  -30.1672   22.6010 C   0  0  0  0  0  0  0  0  0  0  0  0
  -21.7701  -28.9159   20.5210 C   0  0  0  0  0  0  0  0  0  0  0  0
  -21.0836  -26.6115   18.0992 C   0  0  0  0  0  0  0  0  0  0  0  0
  -30.0590  -15.5664   19.0016 C   0  0  0  0  0  0  0  0  0  0  0  0
  -24.4392  -34.4601   25.3141 C   0  0  0  0  0  0  0  0  0  0  0  0
  -25.2251  -30.2082   20.4432 C   0  0  0  0  0  0  0  0  0  0  0  0
  -23.8951  -27.6022   20.8728 C   0  0  0  0  0  0  0  0  0  0  0  0
  -23.2697  -33.6728   24.7286 C   0  0  0  0  0  0  0  0  0  0  0  0
  -30.0367  -12.0326   19.4369 C   0  0  0  0  0  0  0  0  0  0  0  0
  -23.3878  -32.1950   25.0879 C   0  0  0  0  0  0  0  0  0  0  0  0
  -28.6089  -11.7334   19.8996 C   0  0  0  0  0  0  0  0  0  0  0  0
  -30.5544  -13.3503   20.0109 C   0  0  0  0  0  0  0  0  0  0  0  0
  -28.2584  -14.2126   20.2427 C   0  0  0  0  0  0  0  0  0  0  0  0
  -24.6682  -31.5860   24.5038 C   0  0  1  0  0  0  0  0  0  0  0  0
  -23.8526  -30.1059   21.1013 C   0  0  1  0  0  0  0  0  0  0  0  0
  -27.6699  -12.9273   19.6382 C   0  0  2  0  0  0  0  0  0  0  0  0
  -19.2269  -25.8073   16.6148 C   0  0  0  0  0  0  0  0  0  0  0  0
  -20.4942  -27.4862   22.8954 C   0  0  0  0  0  0  0  0  0  0  0  0
  -19.2991  -26.0028   21.2707 C   0  0  0  0  0  0  0  0  0  0  0  0
  -18.8658  -28.4594   21.2658 C   0  0  0  0  0  0  0  0  0  0  0  0
  -22.5963  -27.2857   15.6465 C   0  0  0  0  0  0  0  0  0  0  0  0
  -27.6740  -24.2521   20.3596 C   0  0  0  0  0  0  0  0  0  1  0  0
  -21.0673  -27.5873   20.3800 C   0  0  1  0  0  0  0  0  0  0  0  0
  -20.4176  -26.7449   16.7416 C   0  0  2  0  0  0  0  0  0  0  0  0
  -19.9600  -27.3858   21.4526 C   0  0  0  0  0  0  0  0  0  0  0  0
  -25.9311  -13.0344   21.3836 N   0  0  0  0  0  0  0  0  0  0  0  0
  -28.7389  -22.9725   18.5919 N   0  0  0  0  0  0  0  0  0  0  0  0
  -26.2631  -12.6560   20.1375 N   0  0  0  0  0  0  0  0  0  0  0  0
  -23.1514  -28.8674   20.7565 N   0  0  0  0  0  0  0  0  0  0  0  0
  -29.6157  -14.4364   19.7209 N   0  0  0  0  0  0  0  0  0  0  0  0
  -25.4104  -11.6102   18.1908 N   0  0  0  0  0  0  0  0  0  0  0  0
  -21.8965  -11.5551   21.0272 N   0  0  0  0  0  0  0  0  0  0  0  0
  -29.0701  -16.5187   18.7573 N   0  0  0  0  0  0  0  0  0  0  0  0
  -24.5030  -31.3213   23.0906 N   0  0  0  0  0  0  0  0  0  0  0  0
  -20.5853  -27.5245   19.0044 N   0  0  0  0  0  0  0  0  0  0  0  0
  -30.8359  -22.6628   17.7161 N   0  3  0  0  0  0  0  0  0  0  0  0
  -21.3864  -26.4238   15.6556 N   0  3  0  0  0  0  0  0  0  0  0  0
  -22.6081  -10.9516   18.9324 O   0  0  0  0  0  0  0  0  0  0  0  0
  -23.4795  -29.2369   23.2648 O   0  0  0  0  0  0  0  0  0  0  0  0
  -21.1187  -29.9585   20.4186 O   0  0  0  0  0  0  0  0  0  0  0  0
  -21.9557  -25.7780   18.3343 O   0  0  0  0  0  0  0  0  0  0  0  0
  -31.2232  -15.6682   18.6061 O   0  0  0  0  0  0  0  0  0  0  0  0
  -21.8243  -13.5697   26.2206 O   0  0  0  0  0  0  0  0  0  0  0  0
  -28.2930  -25.4594   20.8020 O   0  0  0  0  0  0  0  0  0  1  0  0
  -18.7517   -9.4461   28.2103 F   0  0  0  0  0  0  0  0  0  0  0  0
  -26.9111  -18.2135   18.2663 F   0  0  0  0  0  0  0  0  0  0  0  0
  -19.7575  -12.4949   24.7320 F   0  0  0  0  0  0  0  0  0  0  0  0
  1  2  1  0  0  0  0
  1  6  2  0  0  0  0
  2  7  2  0  0  0  0
  3 10  2  0  0  0  0
  3 18  1  0  0  0  0
  4 11  1  0  0  0  0
  4 18  2  0  0  0  0
  5  9  2  0  0  0  0
  5 19  1  0  0  0  0
  6 21  1  0  0  0  0
  7 23  1  0  0  0  0
  8 12  2  0  0  0  0
  8 22  1  0  0  0  0
  9 25  1  0  0  0  0
 10 26  1  0  0  0  0
 11 26  2  0  0  0  0
 12 27  1  0  0  0  0
 13 14  2  0  0  0  0
 13 28  1  0  0  0  0
 14 29  1  0  0  0  0
 15 19  2  0  0  0  0
 15 30  1  0  0  0  0
 16 24  1  0  0  0  0
 16 27  2  0  0  0  0
 17 29  2  0  0  0  0
 17 31  1  0  0  0  0
 18 32  1  0  0  0  0
 19 35  1  0  0  0  0
 20 32  1  0  0  0  0
 20 33  2  0  0  0  0
 20 36  1  0  0  0  0
 21 23  2  0  0  0  0
 21 41  1  0  0  0  0
 22 24  2  0  0  0  0
 22 42  1  0  0  0  0
 23 50  1  0  0  0  0
 24 43  1  0  0  0  0
 25 30  2  0  0  0  0
 25 69  1  0  0  0  0
 26 79  1  0  0  0  0
 27 80  1  0  0  0  0
 28 31  2  0  0  0  0
 28 79  1  0  0  0  0
 29 81  1  0  0  0  0
 30 82  1  0  0  0  0
 31 83  1  0  0  0  0
 32 62  2  0  0  0  0
 33 64  1  0  0  0  0
 33 67  1  0  0  0  0
 34 58  1  0  0  0  0
 34 63  2  0  0  0  0
 35 63  1  0  0  0  0
 35 72  2  0  0  0  0
 36 68  1  0  0  0  0
 36 74  2  0  0  0  0
 37 51  1  0  0  0  0
 37 70  1  0  0  0  0
 37 75  2  0  0  0  0
 38 59  1  0  0  0  0
 38 65  1  0  0  0  0
 38 76  2  0  0  0  0
 39 60  1  0  0  0  0
 39 71  1  0  0  0  0
 39 77  2  0  0  0  0
 40 66  1  0  0  0  0
 40 69  1  0  0  0  0
 40 78  2  0  0  0  0
 41 44  1  0  0  0  0
 42 51  1  0  0  0  0
 43 65  1  0  0  0  0
 44 46  1  0  0  0  0
 45 47  1  0  0  0  0
 45 48  1  0  0  0  0
 46 50  1  0  0  0  0
 47 52  1  0  0  0  0
 48 66  1  0  0  0  0
 49 52  1  0  0  0  0
 49 66  1  0  0  0  0
 50 70  1  0  0  0  0
 51 65  1  0  0  0  0
 52 64  1  0  0  0  0
 53 60  1  0  0  0  0
 54 61  1  0  0  0  0
 55 61  1  0  0  0  0
 56 61  1  0  0  0  0
 57 73  1  0  0  0  0
 58 80  1  0  0  0  0
 59 61  1  0  0  0  0
 59 71  1  0  0  0  0
 60 73  1  0  0  0  0
 62 64  1  0  0  0  0
M  CHG  2  72   1  73   1
M  ISO  4  40 100  58 101  69 100  80 101
M  END
> <Batch ID>
0084

> <Smiles>
CNC(C)C(=O)NC(C(=O)N1Cc2cc([101O:1][101CH:1]=CNC(=N)c3ccc([100NH:0][100C:0](=O)N4CCCC(n5nc(-c6ccc(Oc7ccc(F)cc7F)cc6)c(C(N)=O)c5N)C4)c(F)c3)ccc2CC1C(=O)NC1CCCc2ccccc21)C(C)(C)C

> <Shape>
0.274

> <Color>
0.084

> <Negative vol penalty>
0.000

$$$$

  -OEChem-04052300123D

 84 93  0     1  0  0  0  0  0999 V2000
  -27.3760  -37.7449   23.8602 C   0  0  0  0  0  0  0  0  0  0  0  0
  -27.9646  -36.8012   23.0246 C   0  0  0  0  0  0  0  0  0  0  0  0
  -24.1838   -9.2870   22.1900 C   0  0  0  0  0  0  0  0  0  0  0  0
  -22.9184  -11.2676   21.6306 C   0  0  0  0  0  0  0  0  0  0  0  0
  -26.4881  -37.3366   24.8546 C   0  0  0  0  0  0  0  0  0  0  0  0
  -27.6666  -35.4483   23.1837 C   0  0  0  0  0  0  0  0  0  0  0  0
  -26.9147  -29.4144   19.3965 C   0  0  0  0  0  0  0  0  0  0  0  0
  -28.5675  -19.7717   19.8358 C   0  0  0  0  0  0  0  0  0  0  0  0
  -28.8333  -18.4103   19.6890 C   0  0  0  0  0  0  0  0  0  0  0  0
  -23.3139   -9.0306   23.2498 C   0  0  0  0  0  0  0  0  0  0  0  0
  -22.0485  -11.0112   22.6904 C   0  0  0  0  0  0  0  0  0  0  0  0
  -27.3679  -28.0962   19.3695 C   0  0  0  0  0  0  0  0  0  0  0  0
  -20.2247   -7.7239   23.6765 C   0  0  0  0  0  0  0  0  0  0  0  0
  -19.7694   -6.4156   23.8394 C   0  0  0  0  0  0  0  0  0  0  0  0
  -25.7587  -27.5146   21.0700 C   0  0  0  0  0  0  0  0  0  0  0  0
  -26.2900  -19.4044   19.1180 C   0  0  0  0  0  0  0  0  0  0  0  0
  -20.7574   -6.3460   26.0430 C   0  0  0  0  0  0  0  0  0  0  0  0
  -23.9860  -10.4056   21.3804 C   0  0  0  0  0  0  0  0  0  0  0  0
  -24.7639  -10.2195   18.9581 C   0  0  0  0  0  0  0  0  0  0  0  0
  -26.1716  -35.9789   25.0197 C   0  0  0  0  0  0  0  0  0  0  0  0
  -25.8859  -29.7956   20.2697 C   0  0  0  0  0  0  0  0  0  0  0  0
  -26.7747  -35.0213   24.1821 C   0  0  0  0  0  0  0  0  0  0  0  0
  -25.2926  -28.8377   21.1043 C   0  0  0  0  0  0  0  0  0  0  0  0
  -27.2958  -20.2688   19.5503 C   0  0  0  0  0  0  0  0  0  0  0  0
  -27.8275  -17.5460   19.2567 C   0  0  0  0  0  0  0  0  0  0  0  0
  -22.2463   -9.8926   23.5000 C   0  0  0  0  0  0  0  0  0  0  0  0
  -26.7918  -27.1467   20.2083 C   0  0  0  0  0  0  0  0  0  0  0  0
  -20.9465   -8.3433   24.6969 C   0  0  0  0  0  0  0  0  0  0  0  0
  -20.0357   -5.7266   25.0226 C   0  0  0  0  0  0  0  0  0  0  0  0
  -26.5558  -18.0430   18.9712 C   0  0  0  0  0  0  0  0  0  0  0  0
  -21.2128   -7.6544   25.8801 C   0  0  0  0  0  0  0  0  0  0  0  0
  -24.8846  -10.6713   20.2859 C   0  0  0  0  0  0  0  0  0  0  0  0
  -25.8612  -10.7405   18.3170 C   0  0  0  0  0  0  0  0  0  0  0  0
  -26.6615  -23.5741   19.8055 C   0  0  0  0  0  0  0  0  0  0  0  0
  -25.9167  -22.3537   19.4937 C   0  0  0  0  0  0  0  0  0  0  0  0
  -26.3377  -24.8788   19.8603 C   0  0  0  0  0  0  0  0  0  1  0  0
  -23.7505   -9.4020   18.3578 C   0  0  0  0  0  0  0  0  0  0  0  0
  -25.6448  -31.8311   22.6991 C   0  0  0  0  0  0  0  0  0  0  0  0
  -22.5079  -31.0167   22.5622 C   0  0  0  0  0  0  0  0  0  0  0  0
  -20.1455  -28.7306   21.6459 C   0  0  0  0  0  0  0  0  0  0  0  0
  -29.3089  -15.5105   19.3492 C   0  0  0  0  0  0  0  0  0  0  0  0
  -25.2427  -35.5810   26.1393 C   0  0  0  0  0  0  0  0  0  0  0  0
  -25.3902  -31.2158   20.2676 C   0  0  0  0  0  0  0  0  0  0  0  0
  -24.1713  -29.1915   22.0455 C   0  0  0  0  0  0  0  0  0  0  0  0
  -27.8975  -22.7317   20.0228 C   0  0  0  0  0  0  0  0  0  0  0  0
  -24.6918  -34.1643   25.9992 C   0  0  0  0  0  0  0  0  0  0  0  0
  -30.3733  -12.1194   19.1378 C   0  0  0  0  0  0  0  0  0  0  0  0
  -25.8111  -33.1882   25.6509 C   0  0  0  0  0  0  0  0  0  0  0  0
  -29.0748  -11.3223   19.2813 C   0  0  0  0  0  0  0  0  0  0  0  0
  -30.3731  -13.3672   20.0192 C   0  0  0  0  0  0  0  0  0  0  0  0
  -27.9110  -13.4497   19.9930 C   0  0  0  0  0  0  0  0  0  0  0  0
  -26.4576  -33.5469   24.3074 C   0  0  1  0  0  0  0  0  0  0  0  0
  -24.6866  -31.6050   21.5640 C   0  0  1  0  0  0  0  0  0  0  0  0
  -27.8378  -12.2183   19.0754 C   0  0  2  0  0  0  0  0  0  0  0  0
  -17.6691  -28.3279   21.6984 C   0  0  0  0  0  0  0  0  0  0  0  0
  -22.6841  -30.3354   25.5312 C   0  0  0  0  0  0  0  0  0  0  0  0
  -20.5322  -29.0770   25.2988 C   0  0  0  0  0  0  0  0  0  0  0  0
  -20.5935  -31.5314   24.8576 C   0  0  0  0  0  0  0  0  0  0  0  0
  -19.9842  -28.6165   18.6929 C   0  0  0  0  0  0  0  0  0  0  0  0
  -21.6525  -29.9466   23.1965 C   0  0  1  0  0  0  0  0  0  0  0  0
  -18.8351  -28.8822   20.8946 C   0  0  2  0  0  0  0  0  0  0  0  0
  -21.3880  -30.2160   24.7048 C   0  0  0  0  0  0  0  0  0  0  0  0
  -25.9728  -11.4216   20.4784 N   0  0  0  0  0  0  0  0  0  0  0  0
  -26.5459  -11.4450   19.2630 N   0  0  0  0  0  0  0  0  0  0  0  0
  -27.0337  -21.6114   19.6944 N   0  0  0  0  0  0  0  0  0  0  0  0
  -23.7259  -30.5943   22.0111 N   0  0  0  0  0  0  0  0  0  0  0  0
  -29.1742  -14.1695   19.7665 N   0  0  0  0  0  0  0  0  0  0  0  0
  -26.2976  -10.6601   17.0420 N   0  0  0  0  0  0  0  0  0  0  0  0
  -22.6930   -8.9520   19.1600 N   0  0  0  0  0  0  0  0  0  0  0  0
  -28.1006  -16.1636   19.1081 N   0  0  0  0  0  0  0  0  0  0  0  0
  -25.6178  -33.1144   23.2110 N   0  0  0  0  0  0  0  0  0  0  0  0
  -20.4436  -29.8559   22.3848 N   0  0  0  0  0  0  0  0  0  0  0  0
  -18.8966  -28.1567   19.5943 N   0  3  0  0  0  0  0  0  0  0  0  0
  -24.7738  -22.1021   19.1729 O   0  0  0  0  0  0  0  0  0  0  0  0
  -23.7905   -9.0664   17.1497 O   0  0  0  0  0  0  0  0  0  0  0  0
  -26.3549  -30.9092   23.0832 O   0  0  0  0  0  0  0  0  0  0  0  0
  -22.1067  -32.1831   22.5497 O   0  0  0  0  0  0  0  0  0  0  0  0
  -20.8337  -27.7141   21.5863 O   0  0  0  0  0  0  0  0  0  0  0  0
  -30.4153  -16.0323   19.1893 O   0  0  0  0  0  0  0  0  0  0  0  0
  -21.3971   -9.6425   24.5339 O   0  0  0  0  0  0  0  0  0  0  0  0
  -27.2326  -25.8594   20.1845 O   0  0  0  0  0  0  0  0  0  1  0  0
  -19.5971   -4.4708   25.1795 F   0  0  0  0  0  0  0  0  0  0  0  0
  -25.5817  -17.2218   18.5536 F   0  0  0  0  0  0  0  0  0  0  0  0
  -21.9047   -8.2446   26.8644 F   0  0  0  0  0  0  0  0  0  0  0  0
  1  2  1  0  0  0  0
  1  5  2  0  0  0  0
  2  6  2  0  0  0  0
  3 10  2  0  0  0  0
  3 18  1  0  0  0  0
  4 11  1  0  0  0  0
  4 18  2  0  0  0  0
  5 20  1  0  0  0  0
  6 22  1  0  0  0  0
  7 12  2  0  0  0  0
  7 21  1  0  0  0  0
  8  9  2  0  0  0  0
  8 24  1  0  0  0  0
  9 25  1  0  0  0  0
 10 26  1  0  0  0  0
 11 26  2  0  0  0  0
 12 27  1  0  0  0  0
 13 14  2  0  0  0  0
 13 28  1  0  0  0  0
 14 29  1  0  0  0  0
 15 23  1  0  0  0  0
 15 27  2  0  0  0  0
 16 24  2  0  0  0  0
 16 30  1  0  0  0  0
 17 29  2  0  0  0  0
 17 31  1  0  0  0  0
 18 32  1  0  0  0  0
 19 32  1  0  0  0  0
 19 33  2  0  0  0  0
 19 37  1  0  0  0  0
 20 22  2  0  0  0  0
 20 42  1  0  0  0  0
 21 23  2  0  0  0  0
 21 43  1  0  0  0  0
 22 52  1  0  0  0  0
 23 44  1  0  0  0  0
 24 65  1  0  0  0  0
 25 30  2  0  0  0  0
 25 70  1  0  0  0  0
 26 80  1  0  0  0  0
 27 81  1  0  0  0  0
 28 31  2  0  0  0  0
 28 80  1  0  0  0  0
 29 82  1  0  0  0  0
 30 83  1  0  0  0  0
 31 84  1  0  0  0  0
 32 63  2  0  0  0  0
 33 64  1  0  0  0  0
 33 68  1  0  0  0  0
 34 35  1  0  0  0  0
 34 36  2  0  0  0  0
 34 45  1  0  0  0  0
 35 65  1  0  0  0  0
 35 74  2  0  0  0  0
 36 81  1  0  0  0  0
 37 69  1  0  0  0  0
 37 75  2  0  0  0  0
 38 53  1  0  0  0  0
 38 71  1  0  0  0  0
 38 76  2  0  0  0  0
 39 60  1  0  0  0  0
 39 66  1  0  0  0  0
 39 77  2  0  0  0  0
 40 61  1  0  0  0  0
 40 72  1  0  0  0  0
 40 78  2  0  0  0  0
 41 67  1  0  0  0  0
 41 70  1  0  0  0  0
 41 79  2  0  0  0  0
 42 46  1  0  0  0  0
 43 53  1  0  0  0  0
 44 66  1  0  0  0  0
 45 65  1  0  0  0  0
 46 48  1  0  0  0  0
 47 49  1  0  0  0  0
 47 50  1  0  0  0  0
 48 52  1  0  0  0  0
 49 54  1  0  0  0  0
 50 67  1  0  0  0  0
 51 54  1  0  0  0  0
 51 67  1  0  0  0  0
 52 71  1  0  0  0  0
 53 66  1  0  0  0  0
 54 64  1  0  0  0  0
 55 61  1  0  0  0  0
 56 62  1  0  0  0  0
 57 62  1  0  0  0  0
 58 62  1  0  0  0  0
 59 73  1  0  0  0  0
 60 62  1  0  0  0  0
 60 72  1  0  0  0  0
 61 73  1  0  0  0  0
 63 64  1  0  0  0  0
M  CHG  1  73   1
M  ISO  4  36 101  41 100  70 100  81 101
M  END
> <Batch ID>
0084

> <Smiles>
CNC(C)C(=O)NC(C(=O)N1Cc2cc([101O:1][101CH:1]=C3CN(c4ccc([100NH:0][100C:0](=O)N5CCCC(n6nc(-c7ccc(Oc8ccc(F)cc8F)cc7)c(C(N)=O)c6N)C5)c(F)c4)C3=O)ccc2CC1C(=O)NC1CCCc2ccccc21)C(C)(C)C

> <Shape>
0.291

> <Color>
0.088

> <Negative vol penalty>
0.000

$$$$

  -OEChem-04052300123D

 79 87  0     1  0  0  0  0  0999 V2000
  -34.1515  -19.4611   21.6801 C   0  0  0  0  0  0  0  0  0  0  0  0
  -43.9237  -22.2247   19.5314 C   0  0  0  0  0  0  0  0  0  0  0  0
  -42.5763  -21.9135   19.6830 C   0  0  0  0  0  0  0  0  0  0  0  0
  -23.0755   -9.8685   19.9401 C   0  0  0  0  0  0  0  0  0  0  0  0
  -23.8350   -9.8743   22.2337 C   0  0  0  0  0  0  0  0  0  0  0  0
  -44.5285  -22.1077   18.2806 C   0  0  0  0  0  0  0  0  0  0  0  0
  -41.8326  -21.4861   18.5837 C   0  0  0  0  0  0  0  0  0  0  0  0
  -38.8992  -17.4992   19.6538 C   0  0  0  0  0  0  0  0  0  0  0  0
  -22.3313   -8.7155   20.1895 C   0  0  0  0  0  0  0  0  0  0  0  0
  -23.0907   -8.7212   22.4830 C   0  0  0  0  0  0  0  0  0  0  0  0
  -37.7162  -17.7473   20.3485 C   0  0  0  0  0  0  0  0  0  0  0  0
  -21.1046   -5.9842   23.8181 C   0  0  0  0  0  0  0  0  0  0  0  0
  -20.3481   -5.9403   24.9891 C   0  0  0  0  0  0  0  0  0  0  0  0
  -31.7984  -17.5500   21.7119 C   0  0  0  0  0  0  0  0  0  0  0  0
  -36.4832  -17.6309   18.2784 C   0  0  0  0  0  0  0  0  0  0  0  0
  -19.1043   -7.8783   24.2581 C   0  0  0  0  0  0  0  0  0  0  0  0
  -30.7395  -19.1062   23.0754 C   0  0  0  0  0  0  0  0  0  0  0  0
  -23.8275  -10.4479   20.9622 C   0  0  0  0  0  0  0  0  0  0  0  0
  -31.8869  -18.8088   22.3736 C   0  0  0  0  0  0  0  0  0  0  0  0
  -24.1701  -12.9730   20.8433 C   0  0  0  0  0  0  0  0  0  0  0  0
  -43.7942  -21.6694   17.1673 C   0  0  0  0  0  0  0  0  0  0  0  0
  -38.8845  -17.3256   18.2624 C   0  0  0  0  0  0  0  0  0  0  0  0
  -42.4278  -21.3644   17.3165 C   0  0  0  0  0  0  0  0  0  0  0  0
  -37.6671  -17.3781   17.5687 C   0  0  0  0  0  0  0  0  0  0  0  0
  -22.3388   -8.1418   21.4609 C   0  0  0  0  0  0  0  0  0  0  0  0
  -36.5083  -17.8161   19.6605 C   0  0  0  0  0  0  0  0  0  0  0  0
  -20.8611   -6.9751   22.8671 C   0  0  0  0  0  0  0  0  0  0  0  0
  -19.3479   -6.8874   25.2092 C   0  0  0  0  0  0  0  0  0  0  0  0
  -19.8609   -7.9221   23.0871 C   0  0  0  0  0  0  0  0  0  0  0  0
  -24.5969  -11.6386   20.7051 C   0  0  0  0  0  0  0  0  0  0  0  0
  -25.2625  -13.7223   20.4806 C   0  0  0  0  0  0  0  0  0  0  0  0
  -30.5867  -16.9332   21.9334 C   0  0  0  0  0  0  0  0  0  0  0  0
  -33.0516  -19.7065   22.3309 C   0  0  0  0  0  0  0  0  0  0  0  0
  -35.2497  -19.2277   21.0368 C   0  0  0  0  0  0  0  0  0  1  0  0
  -22.8997  -13.4890   21.2622 C   0  0  0  0  0  0  0  0  0  0  0  0
  -40.1744  -18.8615   15.7965 C   0  0  0  0  0  0  0  0  0  0  0  0
  -38.9529  -16.3749   14.1092 C   0  0  0  0  0  0  0  0  0  0  0  0
  -36.6420  -13.8722   13.9005 C   0  0  0  0  0  0  0  0  0  0  0  0
  -30.7290  -14.7660   20.6569 C   0  0  0  0  0  0  0  0  0  0  0  0
  -44.4798  -21.6039   15.8256 C   0  0  0  0  0  0  0  0  0  0  0  0
  -40.1658  -17.0321   17.5312 C   0  0  0  0  0  0  0  0  0  0  0  0
  -37.5947  -17.1785   16.0776 C   0  0  0  0  0  0  0  0  0  0  0  0
  -43.7137  -20.7853   14.7895 C   0  0  0  0  0  0  0  0  0  0  0  0
  -29.6143  -12.3537   18.2872 C   0  0  0  0  0  0  0  0  0  0  0  0
  -42.2371  -21.1679   14.7925 C   0  0  0  0  0  0  0  0  0  0  0  0
  -28.1745  -12.0624   18.7164 C   0  0  0  0  0  0  0  0  0  0  0  0
  -30.5292  -12.5816   19.4891 C   0  0  0  0  0  0  0  0  0  0  0  0
  -28.6223  -13.3061   20.8704 C   0  0  0  0  0  0  0  0  0  0  0  0
  -41.5937  -20.8738   16.1530 C   0  0  1  0  0  0  0  0  0  0  0  0
  -40.1007  -17.3819   16.0477 C   0  0  1  0  0  0  0  0  0  0  0  0
  -27.6496  -13.1337   19.6923 C   0  0  2  0  0  0  0  0  0  0  0  0
  -35.8663  -12.0286   12.3850 C   0  0  0  0  0  0  0  0  0  0  0  0
  -37.5746  -18.4277   12.3213 C   0  0  0  0  0  0  0  0  0  0  0  0
  -36.1036  -16.5915   11.4655 C   0  0  0  0  0  0  0  0  0  0  0  0
  -38.5692  -16.4834   11.1026 C   0  0  0  0  0  0  0  0  0  0  0  0
  -37.2589  -11.7968   15.9182 C   0  0  0  0  0  0  0  0  0  0  0  0
  -37.6393  -16.0926   13.4209 C   0  0  1  0  0  0  0  0  0  0  0  0
  -36.7778  -12.4030   13.5434 C   0  0  2  0  0  0  0  0  0  0  0  0
  -37.4730  -16.9045   12.1054 C   0  0  0  0  0  0  0  0  0  0  0  0
  -25.8619  -11.5426   20.2871 N   0  0  0  0  0  0  0  0  0  0  0  0
  -26.2392  -12.8261   20.1593 N   0  0  0  0  0  0  0  0  0  0  0  0
  -38.8753  -16.9005   15.4067 N   0  0  0  0  0  0  0  0  0  0  0  0
  -29.9704  -13.6122   20.3669 N   0  0  0  0  0  0  0  0  0  0  0  0
  -25.4733  -15.0537   20.4082 N   0  0  0  0  0  0  0  0  0  0  0  0
  -21.8874  -12.5800   21.5989 N   0  0  0  0  0  0  0  0  0  0  0  0
  -30.0818  -15.6909   21.4756 N   0  0  0  0  0  0  0  0  0  0  0  0
  -41.3196  -19.4591   16.2872 N   0  0  0  0  0  0  0  0  0  0  0  0
  -37.5745  -14.6460   13.2425 N   0  0  0  0  0  0  0  0  0  0  0  0
  -36.4247  -11.5507   14.7137 N   0  3  0  0  0  0  0  0  0  0  0  0
  -22.6638  -14.7197   21.3200 O   0  0  0  0  0  0  0  0  0  0  0  0
  -39.2607  -19.4193   15.2001 O   0  0  0  0  0  0  0  0  0  0  0  0
  -40.0089  -16.1311   13.5201 O   0  0  0  0  0  0  0  0  0  0  0  0
  -35.7913  -14.2919   14.6819 O   0  0  0  0  0  0  0  0  0  0  0  0
  -31.8583  -14.9346   20.1895 O   0  0  0  0  0  0  0  0  0  0  0  0
  -21.6125   -7.0169   21.7046 O   0  0  0  0  0  0  0  0  0  0  0  0
  -35.3522  -18.0588   20.3361 O   0  0  0  0  0  0  0  0  0  1  0  0
  -18.6205   -6.8442   26.3330 F   0  0  0  0  0  0  0  0  0  0  0  0
  -19.6214   -8.8758   22.1766 F   0  0  0  0  0  0  0  0  0  0  0  0
  -29.5622  -17.8707   22.9352 S   0  0  0  0  0  0  0  0  0  0  0  0
  1 33  2  0  0  0  0
  1 34  2  0  0  0  0
  2  3  1  0  0  0  0
  2  6  2  0  0  0  0
  3  7  2  0  0  0  0
  4  9  2  0  0  0  0
  4 18  1  0  0  0  0
  5 10  1  0  0  0  0
  5 18  2  0  0  0  0
  6 21  1  0  0  0  0
  7 23  1  0  0  0  0
  8 11  2  0  0  0  0
  8 22  1  0  0  0  0
  9 25  1  0  0  0  0
 10 25  2  0  0  0  0
 11 26  1  0  0  0  0
 12 13  2  0  0  0  0
 12 27  1  0  0  0  0
 13 28  1  0  0  0  0
 14 19  1  0  0  0  0
 14 32  2  0  0  0  0
 15 24  1  0  0  0  0
 15 26  2  0  0  0  0
 16 28  2  0  0  0  0
 16 29  1  0  0  0  0
 17 19  2  0  0  0  0
 17 79  1  0  0  0  0
 18 30  1  0  0  0  0
 19 33  1  0  0  0  0
 20 30  1  0  0  0  0
 20 31  2  0  0  0  0
 20 35  1  0  0  0  0
 21 23  2  0  0  0  0
 21 40  1  0  0  0  0
 22 24  2  0  0  0  0
 22 41  1  0  0  0  0
 23 49  1  0  0  0  0
 24 42  1  0  0  0  0
 25 75  1  0  0  0  0
 26 76  1  0  0  0  0
 27 29  2  0  0  0  0
 27 75  1  0  0  0  0
 28 77  1  0  0  0  0
 29 78  1  0  0  0  0
 30 60  2  0  0  0  0
 31 61  1  0  0  0  0
 31 64  1  0  0  0  0
 32 66  1  0  0  0  0
 32 79  1  0  0  0  0
 34 76  1  0  0  0  0
 35 65  1  0  0  0  0
 35 70  2  0  0  0  0
 36 50  1  0  0  0  0
 36 67  1  0  0  0  0
 36 71  2  0  0  0  0
 37 57  1  0  0  0  0
 37 62  1  0  0  0  0
 37 72  2  0  0  0  0
 38 58  1  0  0  0  0
 38 68  1  0  0  0  0
 38 73  2  0  0  0  0
 39 63  1  0  0  0  0
 39 66  1  0  0  0  0
 39 74  2  0  0  0  0
 40 43  1  0  0  0  0
 41 50  1  0  0  0  0
 42 62  1  0  0  0  0
 43 45  1  0  0  0  0
 44 46  1  0  0  0  0
 44 47  1  0  0  0  0
 45 49  1  0  0  0  0
 46 51  1  0  0  0  0
 47 63  1  0  0  0  0
 48 51  1  0  0  0  0
 48 63  1  0  0  0  0
 49 67  1  0  0  0  0
 50 62  1  0  0  0  0
 51 61  1  0  0  0  0
 52 58  1  0  0  0  0
 53 59  1  0  0  0  0
 54 59  1  0  0  0  0
 55 59  1  0  0  0  0
 56 69  1  0  0  0  0
 57 59  1  0  0  0  0
 57 68  1  0  0  0  0
 58 69  1  0  0  0  0
 60 61  1  0  0  0  0
M  CHG  1  69   1
M  ISO  4  34 101  39 100  66 100  76 101
M  END
> <Batch ID>
0084

> <Smiles>
CNC(C)C(=O)NC(C(=O)N1Cc2cc([101O:1][101CH:1]=C=Cc3csc([100NH:0][100C:0](=O)N4CCCC(n5nc(-c6ccc(Oc7ccc(F)cc7F)cc6)c(C(N)=O)c5N)C4)c3)ccc2CC1C(=O)NC1CCCc2ccccc21)C(C)(C)C

> <Shape>
0.164

> <Color>
0.200

> <Negative vol penalty>
0.000

$$$$

  -OEChem-04052300123D

 87 96  0     1  0  0  0  0  0999 V2000
  -24.5893  -38.1624   18.0727 C   0  0  0  0  0  0  0  0  0  0  0  0
  -25.6560  -37.2694   18.0821 C   0  0  0  0  0  0  0  0  0  0  0  0
  -22.7671  -10.9813   19.4349 C   0  0  0  0  0  0  0  0  0  0  0  0
  -23.2880   -9.8298   21.4939 C   0  0  0  0  0  0  0  0  0  0  0  0
  -29.6847  -19.6550   19.8693 C   0  0  0  0  0  0  0  0  0  0  0  0
  -27.9545  -18.2920   18.8765 C   0  0  0  0  0  0  0  0  0  0  0  0
  -23.7563  -38.2633   19.1862 C   0  0  0  0  0  0  0  0  0  0  0  0
  -25.8910  -36.4774   19.2055 C   0  0  0  0  0  0  0  0  0  0  0  0
  -25.9247  -29.2894   18.7342 C   0  0  0  0  0  0  0  0  0  0  0  0
  -28.7750  -20.7018   20.0177 C   0  0  0  0  0  0  0  0  0  0  0  0
  -27.0447  -19.3389   19.0249 C   0  0  0  0  0  0  0  0  0  0  0  0
  -21.7606  -10.0527   19.1701 C   0  0  0  0  0  0  0  0  0  0  0  0
  -22.2815   -8.9011   21.2292 C   0  0  0  0  0  0  0  0  0  0  0  0
  -26.1561  -27.9145   18.6850 C   0  0  0  0  0  0  0  0  0  0  0  0
  -21.8620   -6.1688   19.2825 C   0  0  0  0  0  0  0  0  0  0  0  0
  -22.1578   -4.8195   19.4765 C   0  0  0  0  0  0  0  0  0  0  0  0
  -26.4963  -27.8753   21.0789 C   0  0  0  0  0  0  0  0  0  0  0  0
  -20.3865   -4.6663   21.1123 C   0  0  0  0  0  0  0  0  0  0  0  0
  -23.5309  -10.8699   20.5968 C   0  0  0  0  0  0  0  0  0  0  0  0
  -29.2745  -18.4501   19.2986 C   0  0  0  0  0  0  0  0  0  0  0  0
  -24.4468  -13.0387   21.5790 C   0  0  0  0  0  0  0  0  0  0  0  0
  -23.9754  -37.4652   20.3201 C   0  0  0  0  0  0  0  0  0  0  0  0
  -25.9631  -29.9606   19.9595 C   0  0  0  0  0  0  0  0  0  0  0  0
  -25.0609  -36.5687   20.3357 C   0  0  0  0  0  0  0  0  0  0  0  0
  -26.2530  -29.2502   21.1360 C   0  0  0  0  0  0  0  0  0  0  0  0
  -27.4550  -20.5438   19.5955 C   0  0  0  0  0  0  0  0  0  0  0  0
  -21.5178   -9.0126   20.0672 C   0  0  0  0  0  0  0  0  0  0  0  0
  -26.4414  -27.2093   19.8544 C   0  0  0  0  0  0  0  0  0  0  0  0
  -20.8285   -6.7669   20.0035 C   0  0  0  0  0  0  0  0  0  0  0  0
  -21.4201   -4.0683   20.3913 C   0  0  0  0  0  0  0  0  0  0  0  0
  -20.0907   -6.0156   20.9184 C   0  0  0  0  0  0  0  0  0  0  0  0
  -24.5711  -11.8286   20.8706 C   0  0  0  0  0  0  0  0  0  0  0  0
  -25.7100  -13.5778   21.5619 C   0  0  0  0  0  0  0  0  0  0  0  0
  -25.6863  -23.7039   19.9041 C   0  0  0  0  0  0  0  0  0  0  0  0
  -24.5681  -22.7619   20.0496 C   0  0  0  0  0  0  0  0  0  0  0  0
  -26.9394  -22.9467   19.7101 C   0  0  0  0  0  0  0  0  0  0  0  0
  -25.5882  -25.0328   19.9407 C   0  0  0  0  0  0  0  0  0  1  0  0
  -30.2434  -17.3352   19.1404 C   0  0  0  0  0  0  0  0  0  0  0  0
  -23.2928  -13.6232   22.1973 C   0  0  0  0  0  0  0  0  0  0  0  0
  -25.6013  -33.2153   21.7903 C   0  0  0  0  0  0  0  0  0  0  0  0
  -24.2796  -31.0624   23.5305 C   0  0  0  0  0  0  0  0  0  0  0  0
  -22.5632  -28.4750   24.9436 C   0  0  0  0  0  0  0  0  0  0  0  0
  -30.4216  -14.8743   18.9509 C   0  0  0  0  0  0  0  0  0  0  0  0
  -23.0765  -37.6435   21.5180 C   0  0  0  0  0  0  0  0  0  0  0  0
  -25.7809  -31.4512   20.0517 C   0  0  0  0  0  0  0  0  0  0  0  0
  -26.3181  -30.0198   22.4269 C   0  0  0  0  0  0  0  0  0  0  0  0
  -25.1045  -21.3644   19.9495 C   0  0  0  0  0  0  0  0  0  0  0  0
  -23.1694  -36.4998   22.5248 C   0  0  0  0  0  0  0  0  0  0  0  0
  -30.1367  -11.5612   20.1506 C   0  0  0  0  0  0  0  0  0  0  0  0
  -24.6279  -36.1497   22.8020 C   0  0  0  0  0  0  0  0  0  0  0  0
  -28.6542  -11.4342   20.5119 C   0  0  0  0  0  0  0  0  0  0  0  0
  -30.3435  -12.3972   18.8884 C   0  0  0  0  0  0  0  0  0  0  0  0
  -28.2210  -13.5864   19.2610 C   0  0  0  0  0  0  0  0  0  0  0  0
  -25.3335  -35.6748   21.5260 C   0  0  1  0  0  0  0  0  0  0  0  0
  -25.0575  -31.8924   21.3368 C   0  0  1  0  0  0  0  0  0  0  0  0
  -27.9647  -12.8124   20.5642 C   0  0  1  0  0  0  0  0  0  0  0  0
  -21.1423  -27.9067   26.9324 C   0  0  0  0  0  0  0  0  0  0  0  0
  -26.7739  -30.9789   25.2841 C   0  0  0  0  0  0  0  0  0  0  0  0
  -25.5062  -29.5428   26.8961 C   0  0  0  0  0  0  0  0  0  0  0  0
  -24.7292  -31.8648   26.4194 C   0  0  0  0  0  0  0  0  0  0  0  0
  -20.2458  -27.7854   23.2367 C   0  0  0  0  0  0  0  0  0  0  0  0
  -24.4381  -30.0743   24.6583 C   0  0  1  0  0  0  0  0  0  0  0  0
  -21.1491  -28.3818   25.4878 C   0  0  2  0  0  0  0  0  0  0  0  0
  -25.3648  -30.6073   25.7873 C   0  0  0  0  0  0  0  0  0  0  0  0
  -25.8149  -11.6114   20.4350 N   0  0  0  0  0  0  0  0  0  0  0  0
  -26.4838  -12.6924   20.8709 N   0  0  0  0  0  0  0  0  0  0  0  0
  -26.5472  -21.5899   19.7443 N   0  0  0  0  0  0  0  0  0  0  0  0
  -25.2135  -30.9896   22.4899 N   0  0  0  0  0  0  0  0  0  0  0  0
  -29.6684  -13.6894   19.0219 N   0  0  0  0  0  0  0  0  0  0  0  0
  -26.2231  -14.7181   22.0707 N   0  0  0  0  0  0  0  0  0  0  0  0
  -22.0736  -12.9362   22.1206 N   0  0  0  0  0  0  0  0  0  0  0  0
  -29.6913  -16.0540   19.1328 N   0  0  0  0  0  0  0  0  0  0  0  0
  -24.9688  -34.3068   21.2262 N   0  0  0  0  0  0  0  0  0  0  0  0
  -23.0887  -29.7400   25.1008 N   0  0  0  0  0  0  0  0  0  0  0  0
  -20.3432  -27.4272   24.6752 N   0  3  0  0  0  0  0  0  0  0  0  0
  -23.4000  -23.0646   20.2229 O   0  0  0  0  0  0  0  0  0  0  0  0
  -28.0496  -23.4256   19.5574 O   0  0  0  0  0  0  0  0  0  0  0  0
  -31.4342  -17.5946   18.9896 O   0  0  0  0  0  0  0  0  0  0  0  0
  -23.3378  -14.7301   22.7858 O   0  0  0  0  0  0  0  0  0  0  0  0
  -26.5258  -33.2450   22.5941 O   0  0  0  0  0  0  0  0  0  0  0  0
  -23.3570  -31.8813   23.5713 O   0  0  0  0  0  0  0  0  0  0  0  0
  -23.1449  -27.5200   24.4336 O   0  0  0  0  0  0  0  0  0  0  0  0
  -31.6445  -14.8803   18.7787 O   0  0  0  0  0  0  0  0  0  0  0  0
  -20.5356   -8.1063   19.8093 O   0  0  0  0  0  0  0  0  0  0  0  0
  -26.6619  -25.8665   19.7998 O   0  0  0  0  0  0  0  0  0  1  0  0
  -21.7032   -2.7722   20.5763 F   0  0  0  0  0  0  0  0  0  0  0  0
  -19.0959   -6.5844   21.6131 F   0  0  0  0  0  0  0  0  0  0  0  0
  1  2  1  0  0  0  0
  1  7  2  0  0  0  0
  2  8  2  0  0  0  0
  3 12  2  0  0  0  0
  3 19  1  0  0  0  0
  4 13  1  0  0  0  0
  4 19  2  0  0  0  0
  5 10  2  0  0  0  0
  5 20  1  0  0  0  0
  6 11  1  0  0  0  0
  6 20  2  0  0  0  0
  7 22  1  0  0  0  0
  8 24  1  0  0  0  0
  9 14  2  0  0  0  0
  9 23  1  0  0  0  0
 10 26  1  0  0  0  0
 11 26  2  0  0  0  0
 12 27  1  0  0  0  0
 13 27  2  0  0  0  0
 14 28  1  0  0  0  0
 15 16  2  0  0  0  0
 15 29  1  0  0  0  0
 16 30  1  0  0  0  0
 17 25  1  0  0  0  0
 17 28  2  0  0  0  0
 18 30  2  0  0  0  0
 18 31  1  0  0  0  0
 19 32  1  0  0  0  0
 20 38  1  0  0  0  0
 21 32  1  0  0  0  0
 21 33  2  0  0  0  0
 21 39  1  0  0  0  0
 22 24  2  0  0  0  0
 22 44  1  0  0  0  0
 23 25  2  0  0  0  0
 23 45  1  0  0  0  0
 24 54  1  0  0  0  0
 25 46  1  0  0  0  0
 26 67  1  0  0  0  0
 27 84  1  0  0  0  0
 28 85  1  0  0  0  0
 29 31  2  0  0  0  0
 29 84  1  0  0  0  0
 30 86  1  0  0  0  0
 31 87  1  0  0  0  0
 32 65  2  0  0  0  0
 33 66  1  0  0  0  0
 33 70  1  0  0  0  0
 34 35  1  0  0  0  0
 34 36  1  0  0  0  0
 34 37  2  0  0  0  0
 35 47  1  0  0  0  0
 35 76  2  0  0  0  0
 36 67  1  0  0  0  0
 36 77  2  0  0  0  0
 37 85  1  0  0  0  0
 38 72  1  0  0  0  0
 38 78  2  0  0  0  0
 39 71  1  0  0  0  0
 39 79  2  0  0  0  0
 40 55  1  0  0  0  0
 40 73  1  0  0  0  0
 40 80  2  0  0  0  0
 41 62  1  0  0  0  0
 41 68  1  0  0  0  0
 41 81  2  0  0  0  0
 42 63  1  0  0  0  0
 42 74  1  0  0  0  0
 42 82  2  0  0  0  0
 43 69  1  0  0  0  0
 43 72  1  0  0  0  0
 43 83  2  0  0  0  0
 44 48  1  0  0  0  0
 45 55  1  0  0  0  0
 46 68  1  0  0  0  0
 47 67  1  0  0  0  0
 48 50  1  0  0  0  0
 49 51  1  0  0  0  0
 49 52  1  0  0  0  0
 50 54  1  0  0  0  0
 51 56  1  0  0  0  0
 52 69  1  0  0  0  0
 53 56  1  0  0  0  0
 53 69  1  0  0  0  0
 54 73  1  0  0  0  0
 55 68  1  0  0  0  0
 56 66  1  0  0  0  0
 57 63  1  0  0  0  0
 58 64  1  0  0  0  0
 59 64  1  0  0  0  0
 60 64  1  0  0  0  0
 61 75  1  0  0  0  0
 62 64  1  0  0  0  0
 62 74  1  0  0  0  0
 63 75  1  0  0  0  0
 65 66  1  0  0  0  0
M  CHG  1  75   1
M  ISO  4  37 101  43 100  72 100  85 101
M  END
> <Batch ID>
0084

> <Smiles>
CNC(C)C(=O)NC(C(=O)N1Cc2cc([101O:1][101CH:1]=C3C(=O)CN(c4ccc(C(=O)[100NH:0][100C:0](=O)N5CCCC(n6nc(-c7ccc(Oc8ccc(F)cc8F)cc7)c(C(N)=O)c6N)C5)cc4)C3=O)ccc2CC1C(=O)NC1CCCc2ccccc21)C(C)(C)C

> <Shape>
0.287

> <Color>
0.130

> <Negative vol penalty>
0.000

$$$$

  -OEChem-04052300123D

 82 90  0     1  0  0  0  0  0999 V2000
  -21.4090  -12.9657   20.4135 C   0  0  0  0  0  0  0  0  0  0  0  0
  -21.4336  -14.3000   20.8063 C   0  0  0  0  0  0  0  0  0  0  0  0
  -17.7609  -26.8019   23.2817 C   0  0  0  0  0  0  0  0  0  0  0  0
  -25.3382  -27.5531   14.7604 C   0  0  0  0  0  0  0  0  0  0  0  0
  -27.5162  -26.8717   15.5537 C   0  0  0  0  0  0  0  0  0  0  0  0
  -18.6179  -27.8630   23.5733 C   0  0  0  0  0  0  0  0  0  0  0  0
  -22.6008  -12.2506   20.3033 C   0  0  0  0  0  0  0  0  0  0  0  0
  -22.6501  -14.9198   21.0902 C   0  0  0  0  0  0  0  0  0  0  0  0
  -23.0072  -19.5328   19.0317 C   0  0  0  0  0  0  0  0  0  0  0  0
  -18.1918  -25.7640   22.4553 C   0  0  0  0  0  0  0  0  0  0  0  0
  -25.8298  -27.6060   13.4561 C   0  0  0  0  0  0  0  0  0  0  0  0
  -28.0078  -26.9246   14.2494 C   0  0  0  0  0  0  0  0  0  0  0  0
  -22.3361  -20.5712   19.6760 C   0  0  0  0  0  0  0  0  0  0  0  0
  -26.5482  -25.4246   10.9745 C   0  0  0  0  0  0  0  0  0  0  0  0
  -25.7710  -24.8563    9.9653 C   0  0  0  0  0  0  0  0  0  0  0  0
  -20.3369  -26.8486   22.2120 C   0  0  0  0  0  0  0  0  0  0  0  0
  -24.4080  -21.2700   20.6950 C   0  0  0  0  0  0  0  0  0  0  0  0
  -25.6416  -26.9998    8.8581 C   0  0  0  0  0  0  0  0  0  0  0  0
  -26.1814  -27.1860   15.8092 C   0  0  0  0  0  0  0  0  0  0  0  0
  -19.9059  -27.8864   23.0384 C   0  0  0  0  0  0  0  0  0  0  0  0
  -25.0929  -26.0241   17.8023 C   0  0  0  0  0  0  0  0  0  0  0  0
  -23.8332  -12.8646   20.5766 C   0  0  0  0  0  0  0  0  0  0  0  0
  -24.3841  -19.3482   19.2232 C   0  0  0  0  0  0  0  0  0  0  0  0
  -23.8594  -14.2118   20.9848 C   0  0  0  0  0  0  0  0  0  0  0  0
  -25.0947  -20.2300   20.0500 C   0  0  0  0  0  0  0  0  0  0  0  0
  -19.4798  -25.7875   21.9204 C   0  0  0  0  0  0  0  0  0  0  0  0
  -27.1645  -27.2917   13.2006 C   0  0  0  0  0  0  0  0  0  0  0  0
  -23.0359  -21.4382   20.5100 C   0  0  0  0  0  0  0  0  0  0  0  0
  -26.8721  -26.7805   10.9256 C   0  0  0  0  0  0  0  0  0  0  0  0
  -25.3177  -25.6439    8.9071 C   0  0  0  0  0  0  0  0  0  0  0  0
  -26.4188  -27.5681    9.8674 C   0  0  0  0  0  0  0  0  0  0  0  0
  -25.6743  -27.1318   17.1568 C   0  0  0  0  0  0  0  0  0  0  0  0
  -24.7802  -26.4838   19.0583 C   0  0  0  0  0  0  0  0  0  0  0  0
  -20.4844  -23.7475   21.6858 C   0  0  0  0  0  0  0  0  0  0  0  0
  -20.8179  -29.0170   23.3497 C   0  0  0  0  0  0  0  0  0  0  0  0
  -24.8567  -24.6981   17.3107 C   0  0  0  0  0  0  0  0  0  0  0  0
  -26.1907  -17.0220   20.4184 C   0  0  0  0  0  0  0  0  0  0  0  0
  -28.6193  -18.9048   19.3795 C   0  0  0  0  0  0  0  0  0  0  0  0
  -29.7065  -22.0272   18.5339 C   0  0  0  0  0  0  0  0  0  0  0  0
  -22.7167  -30.3347   22.4656 C   0  0  0  0  0  0  0  0  0  0  0  0
  -25.0915  -12.0376   20.4893 C   0  0  0  0  0  0  0  0  0  0  0  0
  -25.0983  -18.2395   18.5000 C   0  0  0  0  0  0  0  0  0  0  0  0
  -26.5774  -20.0872   20.2729 C   0  0  0  0  0  0  0  0  0  0  0  0
  -26.3680  -12.8736   20.4458 C   0  0  0  0  0  0  0  0  0  0  0  0
  -26.0601  -30.7840   21.4086 C   0  0  0  0  0  0  0  0  0  0  0  0
  -26.3299  -13.9621   21.5137 C   0  0  0  0  0  0  0  0  0  0  0  0
  -26.2157  -29.7775   20.2654 C   0  0  0  0  0  0  0  0  0  0  0  0
  -24.6752  -31.4298   21.4115 C   0  0  0  0  0  0  0  0  0  0  0  0
  -23.7058  -29.4872   20.2518 C   0  0  0  0  0  0  0  0  0  0  0  0
  -25.1610  -14.9261   21.2774 C   0  0  1  0  0  0  0  0  0  0  0  0
  -26.4062  -17.8330   19.1721 C   0  0  1  0  0  0  0  0  0  0  0  0
  -25.0591  -28.7580   20.2479 C   0  0  1  0  0  0  0  0  0  0  0  0
  -31.7515  -23.2585   17.7597 C   0  0  0  0  0  0  0  0  0  0  0  0
  -29.7704  -18.7625   22.2017 C   0  0  0  0  0  0  0  0  0  0  0  0
  -31.2241  -20.7197   21.6324 C   0  0  0  0  0  0  0  0  0  0  0  0
  -31.4664  -18.5802   20.3729 C   0  0  0  0  0  0  0  0  0  0  0  0
  -28.3856  -22.8802   16.0266 C   0  0  0  0  0  0  0  0  0  0  0  0
  -20.9810  -22.5694   20.9024 C   0  0  0  0  0  0  0  0  0  1  0  0
  -29.4319  -20.0281   19.9769 C   0  0  1  0  0  0  0  0  0  0  0  0
  -30.4859  -22.5314   17.3327 C   0  0  2  0  0  0  0  0  0  0  0  0
  -30.4449  -19.5244   21.0435 C   0  0  0  0  0  0  0  0  0  0  0  0
  -25.7288  -28.2138   17.9380 N   0  0  0  0  0  0  0  0  0  0  0  0
  -19.9138  -24.7419   21.0880 N   0  0  0  0  0  0  0  0  0  0  0  0
  -25.1775  -27.7882   19.0874 N   0  0  0  0  0  0  0  0  0  0  0  0
  -27.2297  -18.9838   19.5486 N   0  0  0  0  0  0  0  0  0  0  0  0
  -23.6365  -30.3980   21.4044 N   0  0  0  0  0  0  0  0  0  0  0  0
  -24.2068  -25.8955   20.1295 N   0  0  0  0  0  0  0  0  0  0  0  0
  -25.2393  -24.3946   15.9970 N   0  0  0  0  0  0  0  0  0  0  0  0
  -21.7912  -29.2881   22.3877 N   0  0  0  0  0  0  0  0  0  0  0  0
  -25.4791  -15.8552   20.2144 N   0  0  0  0  0  0  0  0  0  0  0  0
  -30.0454  -20.7297   18.8545 N   0  0  0  0  0  0  0  0  0  0  0  0
  -29.6518  -23.4711   16.5313 N   0  3  0  0  0  0  0  0  0  0  0  0
  -20.6463  -29.6564   24.3840 O   0  0  0  0  0  0  0  0  0  0  0  0
  -24.3071  -23.8135   18.0100 O   0  0  0  0  0  0  0  0  0  0  0  0
  -26.6382  -17.4243   21.4860 O   0  0  0  0  0  0  0  0  0  0  0  0
  -29.1956  -17.9946   18.7787 O   0  0  0  0  0  0  0  0  0  0  0  0
  -28.8825  -22.7168   19.1304 O   0  0  0  0  0  0  0  0  0  0  0  0
  -22.7410  -31.1187   23.4196 O   0  0  0  0  0  0  0  0  0  0  0  0
  -27.6445  -27.3430   11.9280 O   0  0  0  0  0  0  0  0  0  0  0  0
  -22.3831  -22.4522   21.1406 O   0  0  0  0  0  0  0  0  0  1  0  0
  -24.5726  -25.0978    7.9372 F   0  0  0  0  0  0  0  0  0  0  0  0
  -26.7277  -28.8710    9.8144 F   0  0  0  0  0  0  0  0  0  0  0  0
  1  2  1  0  0  0  0
  1  7  2  0  0  0  0
  2  8  2  0  0  0  0
  3  6  1  0  0  0  0
  3 10  2  0  0  0  0
  4 11  2  0  0  0  0
  4 19  1  0  0  0  0
  5 12  1  0  0  0  0
  5 19  2  0  0  0  0
  6 20  2  0  0  0  0
  7 22  1  0  0  0  0
  8 24  1  0  0  0  0
  9 13  2  0  0  0  0
  9 23  1  0  0  0  0
 10 26  1  0  0  0  0
 11 27  1  0  0  0  0
 12 27  2  0  0  0  0
 13 28  1  0  0  0  0
 14 15  2  0  0  0  0
 14 29  1  0  0  0  0
 15 30  1  0  0  0  0
 16 20  1  0  0  0  0
 16 26  2  0  0  0  0
 17 25  1  0  0  0  0
 17 28  2  0  0  0  0
 18 30  2  0  0  0  0
 18 31  1  0  0  0  0
 19 32  1  0  0  0  0
 20 35  1  0  0  0  0
 21 32  1  0  0  0  0
 21 33  2  0  0  0  0
 21 36  1  0  0  0  0
 22 24  2  0  0  0  0
 22 41  1  0  0  0  0
 23 25  2  0  0  0  0
 23 42  1  0  0  0  0
 24 50  1  0  0  0  0
 25 43  1  0  0  0  0
 26 63  1  0  0  0  0
 27 79  1  0  0  0  0
 28 80  1  0  0  0  0
 29 31  2  0  0  0  0
 29 79  1  0  0  0  0
 30 81  1  0  0  0  0
 31 82  1  0  0  0  0
 32 62  2  0  0  0  0
 33 64  1  0  0  0  0
 33 67  1  0  0  0  0
 34 58  1  0  0  0  0
 34 63  2  0  0  0  0
 35 69  1  0  0  0  0
 35 73  2  0  0  0  0
 36 68  1  0  0  0  0
 36 74  2  0  0  0  0
 37 51  1  0  0  0  0
 37 70  1  0  0  0  0
 37 75  2  0  0  0  0
 38 59  1  0  0  0  0
 38 65  1  0  0  0  0
 38 76  2  0  0  0  0
 39 60  1  0  0  0  0
 39 71  1  0  0  0  0
 39 77  2  0  0  0  0
 40 66  1  0  0  0  0
 40 69  1  0  0  0  0
 40 78  2  0  0  0  0
 41 44  1  0  0  0  0
 42 51  1  0  0  0  0
 43 65  1  0  0  0  0
 44 46  1  0  0  0  0
 45 47  1  0  0  0  0
 45 48  1  0  0  0  0
 46 50  1  0  0  0  0
 47 52  1  0  0  0  0
 48 66  1  0  0  0  0
 49 52  1  0  0  0  0
 49 66  1  0  0  0  0
 50 70  1  0  0  0  0
 51 65  1  0  0  0  0
 52 64  1  0  0  0  0
 53 60  1  0  0  0  0
 54 61  1  0  0  0  0
 55 61  1  0  0  0  0
 56 61  1  0  0  0  0
 57 72  1  0  0  0  0
 58 80  1  0  0  0  0
 59 61  1  0  0  0  0
 59 71  1  0  0  0  0
 60 72  1  0  0  0  0
 62 64  1  0  0  0  0
M  CHG  1  72   1
M  ISO  4  40 100  58 101  69 100  80 101
M  END
> <Batch ID>
0084

> <Smiles>
CNC(C)C(=O)NC(C(=O)N1Cc2cc([101O:1][101CH:1]=CNc3cccc(C(=O)[100NH:0][100C:0](=O)N4CCCC(n5nc(-c6ccc(Oc7ccc(F)cc7F)cc6)c(C(N)=O)c5N)C4)c3)ccc2CC1C(=O)NC1CCCc2ccccc21)C(C)(C)C

> <Shape>
0.219

> <Color>
0.086

> <Negative vol penalty>
0.000

$$$$

  -OEChem-04052300123D

 85 94  0     1  0  0  0  0  0999 V2000
  -27.2374  -37.6215   21.1659 C   0  0  0  0  0  0  0  0  0  0  0  0
  -27.7981  -36.3905   20.8408 C   0  0  0  0  0  0  0  0  0  0  0  0
  -26.2982  -11.7086   21.0666 C   0  0  0  0  0  0  0  0  0  0  0  0
  -25.6113  -13.8356   20.1494 C   0  0  0  0  0  0  0  0  0  0  0  0
  -26.2326  -37.6958   22.1297 C   0  0  0  0  0  0  0  0  0  0  0  0
  -27.3552  -35.2332   21.4801 C   0  0  0  0  0  0  0  0  0  0  0  0
  -26.8813  -29.6339   19.0452 C   0  0  0  0  0  0  0  0  0  0  0  0
  -30.6942  -21.4208   19.4830 C   0  0  0  0  0  0  0  0  0  0  0  0
  -32.5421  -21.4912   21.0378 C   0  0  0  0  0  0  0  0  0  0  0  0
  -30.8232  -20.0349   19.3924 C   0  0  0  0  0  0  0  0  0  0  0  0
  -32.6711  -20.1052   20.9472 C   0  0  0  0  0  0  0  0  0  0  0  0
  -25.0607  -11.5810   21.6973 C   0  0  0  0  0  0  0  0  0  0  0  0
  -24.3738  -13.7080   20.7802 C   0  0  0  0  0  0  0  0  0  0  0  0
  -27.7126  -28.5157   19.0955 C   0  0  0  0  0  0  0  0  0  0  0  0
  -21.9086  -10.7041   20.8440 C   0  0  0  0  0  0  0  0  0  0  0  0
  -21.2634   -9.4701   20.7620 C   0  0  0  0  0  0  0  0  0  0  0  0
  -26.4062  -27.6341   20.9217 C   0  0  0  0  0  0  0  0  0  0  0  0
  -21.3028   -9.2894   23.1709 C   0  0  0  0  0  0  0  0  0  0  0  0
  -26.5735  -12.8360   20.2926 C   0  0  0  0  0  0  0  0  0  0  0  0
  -28.1988  -12.5247   18.3512 C   0  0  0  0  0  0  0  0  0  0  0  0
  -25.7704  -36.5375   22.7742 C   0  0  0  0  0  0  0  0  0  0  0  0
  -25.8110  -29.7659   19.9415 C   0  0  0  0  0  0  0  0  0  0  0  0
  -26.3442  -35.2922   22.4544 C   0  0  0  0  0  0  0  0  0  0  0  0
  -25.5612  -28.7536   20.8790 C   0  0  0  0  0  0  0  0  0  0  0  0
  -31.5537  -22.1490   20.3056 C   0  0  0  0  0  0  0  0  0  0  0  0
  -31.8116  -19.3771   20.1245 C   0  0  0  0  0  0  0  0  0  0  0  0
  -24.0984  -12.5806   21.5541 C   0  0  0  0  0  0  0  0  0  0  0  0
  -27.4769  -27.5170   20.0357 C   0  0  0  0  0  0  0  0  0  0  0  0
  -22.2509  -11.2307   22.0895 C   0  0  0  0  0  0  0  0  0  0  0  0
  -20.9605   -8.7628   21.9254 C   0  0  0  0  0  0  0  0  0  0  0  0
  -21.9480  -10.5234   23.2529 C   0  0  0  0  0  0  0  0  0  0  0  0
  -27.8519  -12.9687   19.6413 C   0  0  0  0  0  0  0  0  0  0  0  0
  -29.5154  -12.8880   18.2056 C   0  0  0  0  0  0  0  0  0  0  0  0
  -30.5007  -25.6261   20.4062 C   0  0  0  0  0  0  0  0  0  0  0  0
  -31.9384  -25.7795   20.6680 C   0  0  0  0  0  0  0  0  0  0  0  0
  -30.1865  -24.1931   20.2354 C   0  0  0  0  0  0  0  0  0  0  0  0
  -29.6169  -26.6214   20.3340 C   0  0  0  0  0  0  0  0  0  1  0  0
  -27.4022  -11.8448   17.3720 C   0  0  0  0  0  0  0  0  0  0  0  0
  -25.0331  -31.8459   22.2156 C   0  0  0  0  0  0  0  0  0  0  0  0
  -22.2894  -30.1183   22.3147 C   0  0  0  0  0  0  0  0  0  0  0  0
  -20.7080  -27.1553   21.7091 C   0  0  0  0  0  0  0  0  0  0  0  0
  -32.8697  -17.1625   20.6921 C   0  0  0  0  0  0  0  0  0  0  0  0
  -24.7153  -36.6737   23.8433 C   0  0  0  0  0  0  0  0  0  0  0  0
  -24.9074  -30.9654   19.8567 C   0  0  0  0  0  0  0  0  0  0  0  0
  -24.4131  -28.8379   21.8502 C   0  0  0  0  0  0  0  0  0  0  0  0
  -32.5721  -24.4197   20.6662 C   0  0  0  0  0  0  0  0  0  0  0  0
  -24.0406  -35.3530   24.2049 C   0  0  0  0  0  0  0  0  0  0  0  0
  -33.4924  -13.6575   20.7601 C   0  0  0  0  0  0  0  0  0  0  0  0
  -25.0831  -34.2566   24.3993 C   0  0  0  0  0  0  0  0  0  0  0  0
  -32.1499  -13.0429   20.3576 C   0  0  0  0  0  0  0  0  0  0  0  0
  -33.3093  -14.9023   21.6266 C   0  0  0  0  0  0  0  0  0  0  0  0
  -31.0819  -15.3137   20.6577 C   0  0  0  0  0  0  0  0  0  0  0  0
  -25.8731  -34.0113   23.1081 C   0  0  1  0  0  0  0  0  0  0  0  0
  -24.1566  -31.2409   21.1558 C   0  0  1  0  0  0  0  0  0  0  0  0
  -31.2141  -14.0947   19.7302 C   0  0  2  0  0  0  0  0  0  0  0  0
  -18.4737  -26.0341   21.9286 C   0  0  0  0  0  0  0  0  0  0  0  0
  -22.7501  -29.7927   25.3133 C   0  0  0  0  0  0  0  0  0  0  0  0
  -21.0766  -27.9306   25.2976 C   0  0  0  0  0  0  0  0  0  0  0  0
  -20.3764  -30.2398   24.6650 C   0  0  0  0  0  0  0  0  0  0  0  0
  -20.5037  -26.7317   18.7872 C   0  0  0  0  0  0  0  0  0  0  0  0
  -21.8184  -28.9027   23.0759 C   0  0  1  0  0  0  0  0  0  0  0  0
  -19.3923  -26.8379   21.0215 C   0  0  2  0  0  0  0  0  0  0  0  0
  -21.5282  -29.2155   24.5711 C   0  0  0  0  0  0  0  0  0  0  0  0
  -28.8662  -13.5681   20.2705 N   0  0  0  0  0  0  0  0  0  0  0  0
  -29.8635  -13.5032   19.3720 N   0  0  0  0  0  0  0  0  0  0  0  0
  -31.4253  -23.5331   20.3959 N   0  0  0  0  0  0  0  0  0  0  0  0
  -23.5618  -30.0332   21.7319 N   0  0  0  0  0  0  0  0  0  0  0  0
  -32.4145  -15.8555   20.9666 N   0  0  0  0  0  0  0  0  0  0  0  0
  -30.3976  -12.7379   17.1949 N   0  0  0  0  0  0  0  0  0  0  0  0
  -26.0686  -11.5481   17.6847 N   0  0  0  0  0  0  0  0  0  0  0  0
  -31.9429  -17.9692   20.0327 N   0  0  0  0  0  0  0  0  0  0  0  0
  -25.0902  -33.2261   22.1780 N   0  0  0  0  0  0  0  0  0  0  0  0
  -20.6713  -28.3802   22.3413 N   0  0  0  0  0  0  0  0  0  0  0  0
  -19.6338  -26.0499   19.7799 N   0  3  0  0  0  0  0  0  0  0  0  0
  -32.5194  -26.8347   20.8550 O   0  0  0  0  0  0  0  0  0  0  0  0
  -29.0856  -23.7233   20.0068 O   0  0  0  0  0  0  0  0  0  0  0  0
  -27.8642  -11.4956   16.2593 O   0  0  0  0  0  0  0  0  0  0  0  0
  -25.6133  -31.1149   23.0097 O   0  0  0  0  0  0  0  0  0  0  0  0
  -21.5526  -31.1043   22.2339 O   0  0  0  0  0  0  0  0  0  0  0  0
  -21.6705  -26.3914   21.6907 O   0  0  0  0  0  0  0  0  0  0  0  0
  -34.0082  -17.5298   20.9935 O   0  0  0  0  0  0  0  0  0  0  0  0
  -22.8907  -12.4562   22.1692 O   0  0  0  0  0  0  0  0  0  0  0  0
  -28.2871  -26.4249   20.0874 O   0  0  0  0  0  0  0  0  0  1  0  0
  -20.3396   -7.5786   21.8466 F   0  0  0  0  0  0  0  0  0  0  0  0
  -22.2733  -11.0248   24.4523 F   0  0  0  0  0  0  0  0  0  0  0  0
  1  2  1  0  0  0  0
  1  5  2  0  0  0  0
  2  6  2  0  0  0  0
  3 12  2  0  0  0  0
  3 19  1  0  0  0  0
  4 13  1  0  0  0  0
  4 19  2  0  0  0  0
  5 21  1  0  0  0  0
  6 23  1  0  0  0  0
  7 14  2  0  0  0  0
  7 22  1  0  0  0  0
  8 10  2  0  0  0  0
  8 25  1  0  0  0  0
  9 11  1  0  0  0  0
  9 25  2  0  0  0  0
 10 26  1  0  0  0  0
 11 26  2  0  0  0  0
 12 27  1  0  0  0  0
 13 27  2  0  0  0  0
 14 28  1  0  0  0  0
 15 16  2  0  0  0  0
 15 29  1  0  0  0  0
 16 30  1  0  0  0  0
 17 24  1  0  0  0  0
 17 28  2  0  0  0  0
 18 30  2  0  0  0  0
 18 31  1  0  0  0  0
 19 32  1  0  0  0  0
 20 32  1  0  0  0  0
 20 33  2  0  0  0  0
 20 38  1  0  0  0  0
 21 23  2  0  0  0  0
 21 43  1  0  0  0  0
 22 24  2  0  0  0  0
 22 44  1  0  0  0  0
 23 53  1  0  0  0  0
 24 45  1  0  0  0  0
 25 66  1  0  0  0  0
 26 71  1  0  0  0  0
 27 82  1  0  0  0  0
 28 83  1  0  0  0  0
 29 31  2  0  0  0  0
 29 82  1  0  0  0  0
 30 84  1  0  0  0  0
 31 85  1  0  0  0  0
 32 64  2  0  0  0  0
 33 65  1  0  0  0  0
 33 69  1  0  0  0  0
 34 35  1  0  0  0  0
 34 36  1  0  0  0  0
 34 37  2  0  0  0  0
 35 46  1  0  0  0  0
 35 75  2  0  0  0  0
 36 66  1  0  0  0  0
 36 76  2  0  0  0  0
 37 83  1  0  0  0  0
 38 70  1  0  0  0  0
 38 77  2  0  0  0  0
 39 54  1  0  0  0  0
 39 72  1  0  0  0  0
 39 78  2  0  0  0  0
 40 61  1  0  0  0  0
 40 67  1  0  0  0  0
 40 79  2  0  0  0  0
 41 62  1  0  0  0  0
 41 73  1  0  0  0  0
 41 80  2  0  0  0  0
 42 68  1  0  0  0  0
 42 71  1  0  0  0  0
 42 81  2  0  0  0  0
 43 47  1  0  0  0  0
 44 54  1  0  0  0  0
 45 67  1  0  0  0  0
 46 66  1  0  0  0  0
 47 49  1  0  0  0  0
 48 50  1  0  0  0  0
 48 51  1  0  0  0  0
 49 53  1  0  0  0  0
 50 55  1  0  0  0  0
 51 68  1  0  0  0  0
 52 55  1  0  0  0  0
 52 68  1  0  0  0  0
 53 72  1  0  0  0  0
 54 67  1  0  0  0  0
 55 65  1  0  0  0  0
 56 62  1  0  0  0  0
 57 63  1  0  0  0  0
 58 63  1  0  0  0  0
 59 63  1  0  0  0  0
 60 74  1  0  0  0  0
 61 63  1  0  0  0  0
 61 73  1  0  0  0  0
 62 74  1  0  0  0  0
 64 65  1  0  0  0  0
M  CHG  1  74   1
M  ISO  4  37 101  42 100  71 100  83 101
M  END
> <Batch ID>
0084

> <Smiles>
CNC(C)C(=O)NC(C(=O)N1Cc2cc([101O:1][101CH:1]=C3C(=O)CN(c4ccc([100NH:0][100C:0](=O)N5CCCC(n6nc(-c7ccc(Oc8ccc(F)cc8F)cc7)c(C(N)=O)c6N)C5)cc4)C3=O)ccc2CC1C(=O)NC1CCCc2ccccc21)C(C)(C)C

> <Shape>
0.325

> <Color>
0.086

> <Negative vol penalty>
0.000

$$$$

  -OEChem-04052300123D

 85 94  0     1  0  0  0  0  0999 V2000
  -28.0130  -35.6213   16.7192 C   0  0  0  0  0  0  0  0  0  0  0  0
  -27.8849  -34.3300   16.2176 C   0  0  0  0  0  0  0  0  0  0  0  0
  -23.0889   -9.9001   19.9505 C   0  0  0  0  0  0  0  0  0  0  0  0
  -23.6654  -10.0214   22.2936 C   0  0  0  0  0  0  0  0  0  0  0  0
  -28.3402  -35.8176   18.0603 C   0  0  0  0  0  0  0  0  0  0  0  0
  -28.0850  -33.2343   17.0565 C   0  0  0  0  0  0  0  0  0  0  0  0
  -30.4441  -19.2529   22.9741 C   0  0  0  0  0  0  0  0  0  0  0  0
  -25.8013  -26.5287   18.1223 C   0  0  0  0  0  0  0  0  0  0  0  0
  -29.6463  -20.3274   22.5671 C   0  0  0  0  0  0  0  0  0  0  0  0
  -22.3204   -8.7628   20.1984 C   0  0  0  0  0  0  0  0  0  0  0  0
  -22.8968   -8.8841   22.5415 C   0  0  0  0  0  0  0  0  0  0  0  0
  -26.2954  -25.2337   18.2729 C   0  0  0  0  0  0  0  0  0  0  0  0
  -23.2100   -5.5375   22.1767 C   0  0  0  0  0  0  0  0  0  0  0  0
  -23.7604   -4.5484   22.9918 C   0  0  0  0  0  0  0  0  0  0  0  0
  -28.5177  -18.9373   20.9167 C   0  0  0  0  0  0  0  0  0  0  0  0
  -26.7790  -25.6941   20.5909 C   0  0  0  0  0  0  0  0  0  0  0  0
  -21.9307   -4.8121   24.5473 C   0  0  0  0  0  0  0  0  0  0  0  0
  -23.7615  -10.5294   20.9981 C   0  0  0  0  0  0  0  0  0  0  0  0
  -29.3161  -17.8927   21.3417 C   0  0  0  0  0  0  0  0  0  0  0  0
  -24.1275  -13.0444   20.7787 C   0  0  0  0  0  0  0  0  0  0  0  0
  -30.2652  -18.0333   22.3487 C   0  0  0  0  0  0  0  0  0  0  0  0
  -28.5349  -34.7238   18.9183 C   0  0  0  0  0  0  0  0  0  0  0  0
  -25.8024  -27.4211   19.2040 C   0  0  0  0  0  0  0  0  0  0  0  0
  -28.4164  -33.4162   18.4099 C   0  0  0  0  0  0  0  0  0  0  0  0
  -26.2820  -26.9991   20.4522 C   0  0  0  0  0  0  0  0  0  0  0  0
  -28.6912  -20.1705   21.5464 C   0  0  0  0  0  0  0  0  0  0  0  0
  -22.2243   -8.2548   21.4939 C   0  0  0  0  0  0  0  0  0  0  0  0
  -26.7870  -24.8172   19.5065 C   0  0  0  0  0  0  0  0  0  0  0  0
  -22.0199   -6.1639   22.5469 C   0  0  0  0  0  0  0  0  0  0  0  0
  -23.1208   -4.1857   24.1771 C   0  0  0  0  0  0  0  0  0  0  0  0
  -21.3803   -5.8012   23.7322 C   0  0  0  0  0  0  0  0  0  0  0  0
  -24.5560  -11.7039   20.7425 C   0  0  0  0  0  0  0  0  0  0  0  0
  -25.2497  -13.7721   20.4658 C   0  0  0  0  0  0  0  0  0  0  0  0
  -29.3538  -16.5088   20.8632 C   0  0  0  0  0  0  0  0  0  0  0  0
  -22.8312  -13.5837   21.0692 C   0  0  0  0  0  0  0  0  0  0  0  0
  -26.9273  -21.2932   20.1784 C   0  0  0  0  0  0  0  0  0  0  0  0
  -26.2995  -22.6479   20.0411 C   0  0  0  0  0  0  0  0  0  1  0  0
  -27.1804  -30.2231   19.7989 C   0  0  0  0  0  0  0  0  0  0  0  0
  -25.3622  -30.1070   22.4828 C   0  0  0  0  0  0  0  0  0  0  0  0
  -23.6688  -28.2054   24.7550 C   0  0  0  0  0  0  0  0  0  0  0  0
  -30.7898  -14.5174   21.4838 C   0  0  0  0  0  0  0  0  0  0  0  0
  -28.9336  -34.9855   20.3491 C   0  0  0  0  0  0  0  0  0  0  0  0
  -25.2412  -28.8061   19.0322 C   0  0  0  0  0  0  0  0  0  0  0  0
  -30.9776  -16.7483   22.5710 C   0  0  0  0  0  0  0  0  0  0  0  0
  -26.2865  -27.9121   21.6500 C   0  0  0  0  0  0  0  0  0  0  0  0
  -28.7612  -33.7734   21.2609 C   0  0  0  0  0  0  0  0  0  0  0  0
  -29.7459  -12.3362   18.6828 C   0  0  0  0  0  0  0  0  0  0  0  0
  -29.3357  -32.5236   20.6017 C   0  0  0  0  0  0  0  0  0  0  0  0
  -28.2892  -12.0278   19.0229 C   0  0  0  0  0  0  0  0  0  0  0  0
  -30.5749  -12.6056   19.9347 C   0  0  0  0  0  0  0  0  0  0  0  0
  -28.5555  -13.3724   21.1455 C   0  0  0  0  0  0  0  0  0  0  0  0
  -28.6013  -32.2023   19.2944 C   0  0  1  0  0  0  0  0  0  0  0  0
  -25.7652  -29.7958   20.0682 C   0  0  1  0  0  0  0  0  0  0  0  0
  -27.6879  -13.1393   19.8994 C   0  0  2  0  0  0  0  0  0  0  0  0
  -22.3143  -28.3907   26.8594 C   0  0  0  0  0  0  0  0  0  0  0  0
  -27.9174  -30.5747   24.0834 C   0  0  0  0  0  0  0  0  0  0  0  0
  -26.6925  -29.8122   26.1294 C   0  0  0  0  0  0  0  0  0  0  0  0
  -25.9254  -31.8449   24.9037 C   0  0  0  0  0  0  0  0  0  0  0  0
  -21.2835  -27.0237   23.4616 C   0  0  0  0  0  0  0  0  0  0  0  0
  -25.5503  -29.5643   23.8789 C   0  0  1  0  0  0  0  0  0  0  0  0
  -22.2743  -28.3384   25.3400 C   0  0  2  0  0  0  0  0  0  0  0  0
  -26.5233  -30.4322   24.7260 C   0  0  0  0  0  0  0  0  0  0  0  0
  -25.8493  -11.5842   20.4310 N   0  0  0  0  0  0  0  0  0  0  0  0
  -26.2432  -12.8587   20.2686 N   0  0  0  0  0  0  0  0  0  0  0  0
  -30.2846  -15.8161   21.6773 N   0  0  0  0  0  0  0  0  0  0  0  0
  -25.7332  -29.2585   21.4300 N   0  0  0  0  0  0  0  0  0  0  0  0
  -29.9585  -13.6255   20.7842 N   0  0  0  0  0  0  0  0  0  0  0  0
  -25.4735  -15.0976   20.3428 N   0  0  0  0  0  0  0  0  0  0  0  0
  -21.7901  -12.6950   21.3706 N   0  0  0  0  0  0  0  0  0  0  0  0
  -27.9112  -21.2612   21.1590 N   0  0  0  0  0  0  0  0  0  0  0  0
  -27.3253  -31.5784   19.5717 N   0  0  0  0  0  0  0  0  0  0  0  0
  -24.2141  -29.4345   24.4498 N   0  0  0  0  0  0  0  0  0  0  0  0
  -21.4287  -27.1812   24.9317 N   0  3  0  0  0  0  0  0  0  0  0  0
  -28.6877  -16.1124   19.9236 O   0  0  0  0  0  0  0  0  0  0  0  0
  -22.5989  -14.8162   21.0457 O   0  0  0  0  0  0  0  0  0  0  0  0
  -26.4974  -20.4144   19.4503 O   0  0  0  0  0  0  0  0  0  0  0  0
  -25.1118  -22.8184   20.2364 O   0  0  0  0  0  0  0  0  0  0  0  0
  -28.0748  -29.3854   19.7988 O   0  0  0  0  0  0  0  0  0  0  0  0
  -24.8963  -31.2391   22.3317 O   0  0  0  0  0  0  0  0  0  0  0  0
  -24.2207  -27.1198   24.5890 O   0  0  0  0  0  0  0  0  0  0  0  0
  -31.9233  -14.2077   21.8680 O   0  0  0  0  0  0  0  0  0  0  0  0
  -21.4743   -7.1451   21.7363 O   0  0  0  0  0  0  0  0  0  0  0  0
  -27.2828  -23.5218   19.6598 O   0  0  0  0  0  0  0  0  0  1  0  0
  -23.6486   -3.2348   24.9589 F   0  0  0  0  0  0  0  0  0  0  0  0
  -20.2361   -6.3986   24.0926 F   0  0  0  0  0  0  0  0  0  0  0  0
  1  2  1  0  0  0  0
  1  5  2  0  0  0  0
  2  6  2  0  0  0  0
  3 10  2  0  0  0  0
  3 18  1  0  0  0  0
  4 11  1  0  0  0  0
  4 18  2  0  0  0  0
  5 22  1  0  0  0  0
  6 24  1  0  0  0  0
  7  9  2  0  0  0  0
  7 21  1  0  0  0  0
  8 12  2  0  0  0  0
  8 23  1  0  0  0  0
  9 26  1  0  0  0  0
 10 27  1  0  0  0  0
 11 27  2  0  0  0  0
 12 28  1  0  0  0  0
 13 14  2  0  0  0  0
 13 29  1  0  0  0  0
 14 30  1  0  0  0  0
 15 19  1  0  0  0  0
 15 26  2  0  0  0  0
 16 25  1  0  0  0  0
 16 28  2  0  0  0  0
 17 30  2  0  0  0  0
 17 31  1  0  0  0  0
 18 32  1  0  0  0  0
 19 21  2  0  0  0  0
 19 34  1  0  0  0  0
 20 32  1  0  0  0  0
 20 33  2  0  0  0  0
 20 35  1  0  0  0  0
 21 44  1  0  0  0  0
 22 24  2  0  0  0  0
 22 42  1  0  0  0  0
 23 25  2  0  0  0  0
 23 43  1  0  0  0  0
 24 52  1  0  0  0  0
 25 45  1  0  0  0  0
 26 70  1  0  0  0  0
 27 82  1  0  0  0  0
 28 83  1  0  0  0  0
 29 31  2  0  0  0  0
 29 82  1  0  0  0  0
 30 84  1  0  0  0  0
 31 85  1  0  0  0  0
 32 63  2  0  0  0  0
 33 64  1  0  0  0  0
 33 68  1  0  0  0  0
 34 65  1  0  0  0  0
 34 74  2  0  0  0  0
 35 69  1  0  0  0  0
 35 75  2  0  0  0  0
 36 37  1  0  0  0  0
 36 70  1  0  0  0  0
 36 76  2  0  0  0  0
 37 77  2  0  0  0  0
 37 83  1  0  0  0  0
 38 53  1  0  0  0  0
 38 71  1  0  0  0  0
 38 78  2  0  0  0  0
 39 60  1  0  0  0  0
 39 66  1  0  0  0  0
 39 79  2  0  0  0  0
 40 61  1  0  0  0  0
 40 72  1  0  0  0  0
 40 80  2  0  0  0  0
 41 65  1  0  0  0  0
 41 67  1  0  0  0  0
 41 81  2  0  0  0  0
 42 46  1  0  0  0  0
 43 53  1  0  0  0  0
 44 65  1  0  0  0  0
 45 66  1  0  0  0  0
 46 48  1  0  0  0  0
 47 49  1  0  0  0  0
 47 50  1  0  0  0  0
 48 52  1  0  0  0  0
 49 54  1  0  0  0  0
 50 67  1  0  0  0  0
 51 54  1  0  0  0  0
 51 67  1  0  0  0  0
 52 71  1  0  0  0  0
 53 66  1  0  0  0  0
 54 64  1  0  0  0  0
 55 61  1  0  0  0  0
 56 62  1  0  0  0  0
 57 62  1  0  0  0  0
 58 62  1  0  0  0  0
 59 73  1  0  0  0  0
 60 62  1  0  0  0  0
 60 72  1  0  0  0  0
 61 73  1  0  0  0  0
 63 64  1  0  0  0  0
M  CHG  1  73   1
M  ISO  4  37 101  41 100  65 100  83 101
M  END
> <Batch ID>
0084

> <Smiles>
CNC(C)C(=O)NC(C(=O)N1Cc2cc([101O:1][101C:1](=O)C(=O)Nc3ccc4c(c3)C(=O)[100N:0]([100C:0](=O)N3CCCC(n5nc(-c6ccc(Oc7ccc(F)cc7F)cc6)c(C(N)=O)c5N)C3)C4)ccc2CC1C(=O)NC1CCCc2ccccc21)C(C)(C)C

> <Shape>
0.320

> <Color>
0.207

> <Negative vol penalty>
0.000

$$$$

  -OEChem-04052300123D

 76 83  0     1  0  0  0  0  0999 V2000
  -29.8737  -25.6541   18.9499 C   0  0  0  0  0  0  0  0  0  0  0  0
  -25.9929  -35.5241   23.1277 C   0  0  0  0  0  0  0  0  0  0  0  0
  -26.5170  -34.2490   22.9410 C   0  0  0  0  0  0  0  0  0  0  0  0
  -26.6464  -14.6772   19.4576 C   0  0  0  0  0  0  0  0  0  0  0  0
  -25.3020  -14.7830   21.4622 C   0  0  0  0  0  0  0  0  0  0  0  0
  -24.6876  -35.6789   23.5925 C   0  0  0  0  0  0  0  0  0  0  0  0
  -25.7363  -33.1278   23.2201 C   0  0  0  0  0  0  0  0  0  0  0  0
  -26.0594  -29.5887   19.6125 C   0  0  0  0  0  0  0  0  0  0  0  0
  -26.5999  -13.2838   19.4999 C   0  0  0  0  0  0  0  0  0  0  0  0
  -25.2555  -13.3895   21.5045 C   0  0  0  0  0  0  0  0  0  0  0  0
  -27.1989  -28.7854   19.6088 C   0  0  0  0  0  0  0  0  0  0  0  0
  -23.5592  -10.9076   19.9608 C   0  0  0  0  0  0  0  0  0  0  0  0
  -22.3256  -10.3094   20.2175 C   0  0  0  0  0  0  0  0  0  0  0  0
  -25.9574  -27.0299   20.7026 C   0  0  0  0  0  0  0  0  0  0  0  0
  -23.2430   -9.2661   22.1942 C   0  0  0  0  0  0  0  0  0  0  0  0
  -25.9975  -15.4268   20.4388 C   0  0  0  0  0  0  0  0  0  0  0  0
  -25.1426  -17.7280   19.7450 C   0  0  0  0  0  0  0  0  0  0  0  0
  -23.8872  -34.5591   23.8682 C   0  0  0  0  0  0  0  0  0  0  0  0
  -24.8612  -29.1219   20.1720 C   0  0  0  0  0  0  0  0  0  0  0  0
  -24.4195  -33.2678   23.6903 C   0  0  0  0  0  0  0  0  0  0  0  0
  -24.8035  -27.8283   20.7098 C   0  0  0  0  0  0  0  0  0  0  0  0
  -25.9044  -12.6399   20.5234 C   0  0  0  0  0  0  0  0  0  0  0  0
  -27.1488  -27.5069   20.1565 C   0  0  0  0  0  0  0  0  0  0  0  0
  -24.6348  -10.6850   20.8207 C   0  0  0  0  0  0  0  0  0  0  0  0
  -22.1675   -9.4886   21.3342 C   0  0  0  0  0  0  0  0  0  0  0  0
  -24.4766   -9.8643   21.9374 C   0  0  0  0  0  0  0  0  0  0  0  0
  -26.0457  -16.8662   20.3959 C   0  0  0  0  0  0  0  0  0  0  0  0
  -25.6243  -18.9882   20.0026 C   0  0  0  0  0  0  0  0  0  0  0  0
  -28.8171  -26.4015   18.9544 C   0  0  0  0  0  0  0  0  0  1  0  0
  -23.9729  -17.4172   18.9764 C   0  0  0  0  0  0  0  0  0  0  0  0
  -23.0062  -30.0375   22.5854 C   0  0  0  0  0  0  0  0  0  0  0  0
  -21.0551  -27.7033   21.4598 C   0  0  0  0  0  0  0  0  0  0  0  0
  -20.7294  -24.7997   19.6963 C   0  0  0  0  0  0  0  0  0  0  0  0
  -31.3117  -24.5612   20.1612 C   0  0  0  0  0  0  0  0  0  0  0  0
  -29.8882  -22.4728   20.1189 C   0  0  0  0  0  0  0  0  0  0  0  0
  -22.4980  -34.7763   24.4137 C   0  0  0  0  0  0  0  0  0  0  0  0
  -23.6337  -29.9908   20.1440 C   0  0  0  0  0  0  0  0  0  0  0  0
  -23.5362  -27.2725   21.3044 C   0  0  0  0  0  0  0  0  0  0  0  0
  -21.6099  -33.5376   24.3292 C   0  0  0  0  0  0  0  0  0  0  0  0
  -29.1806  -20.5800   23.1991 C   0  0  0  0  0  0  0  0  0  0  0  0
  -22.3619  -32.3067   24.8254 C   0  0  0  0  0  0  0  0  0  0  0  0
  -28.2678  -19.4798   22.6660 C   0  0  0  0  0  0  0  0  0  0  0  0
  -30.2424  -20.9907   22.1798 C   0  0  0  0  0  0  0  0  0  0  0  0
  -28.7593  -20.2756   20.3221 C   0  0  0  0  0  0  0  0  0  0  0  0
  -23.5954  -32.0271   23.9583 C   0  0  1  0  0  0  0  0  0  0  0  0
  -22.6052  -29.6061   21.2031 C   0  0  1  0  0  0  0  0  0  0  0  0
  -27.6554  -19.8897   21.3179 C   0  0  1  0  0  0  0  0  0  0  0  0
  -19.0165  -23.1110   18.9809 C   0  0  0  0  0  0  0  0  0  0  0  0
  -21.0303  -26.5376   24.2794 C   0  0  0  0  0  0  0  0  0  0  0  0
  -20.1318  -24.4084   23.3162 C   0  0  0  0  0  0  0  0  0  0  0  0
  -18.8131  -26.5171   23.1226 C   0  0  0  0  0  0  0  0  0  0  0  0
  -21.2331  -25.3317   16.8289 C   0  0  0  0  0  0  0  0  0  0  0  0
  -20.8963  -26.2248   21.7201 C   0  0  1  0  0  0  0  0  0  0  0  0
  -19.7559  -24.3863   18.6073 C   0  0  2  0  0  0  0  0  0  0  0  0
  -20.2424  -25.9329   23.1002 C   0  0  0  0  0  0  0  0  0  0  0  0
  -27.0269  -17.5234   21.0199 N   0  0  0  0  0  0  0  0  0  0  0  0
  -30.8339  -24.9757   18.9351 N   0  0  0  0  0  0  0  0  0  0  0  0
  -26.7432  -18.8115   20.7622 N   0  0  0  0  0  0  0  0  0  0  0  0
  -22.3645  -28.1628   21.2592 N   0  0  0  0  0  0  0  0  0  0  0  0
  -29.6451  -21.3073   20.8730 N   0  0  0  0  0  0  0  0  0  0  0  0
  -25.1958  -20.2191   19.6511 N   0  0  0  0  0  0  0  0  0  0  0  0
  -23.6208  -16.0708   18.8105 N   0  0  0  0  0  0  0  0  0  0  0  0
  -23.2066  -31.3986   22.7140 N   0  0  0  0  0  0  0  0  0  0  0  0
  -20.1572  -25.6871   20.5830 N   0  0  0  0  0  0  0  0  0  0  0  0
  -30.8263  -23.3542   20.6846 N   0  0  0  0  0  0  0  0  0  0  0  0
  -20.4806  -24.1514   17.3265 N   0  3  0  0  0  0  0  0  0  0  0  0
  -23.2702  -18.3063   18.4386 O   0  0  0  0  0  0  0  0  0  0  0  0
  -23.1236  -29.1977   23.4701 O   0  0  0  0  0  0  0  0  0  0  0  0
  -20.0536  -28.4227   21.4283 O   0  0  0  0  0  0  0  0  0  0  0  0
  -21.8810  -24.3747   19.7567 O   0  0  0  0  0  0  0  0  0  0  0  0
  -29.3574  -22.6863   19.0251 O   0  0  0  0  0  0  0  0  0  0  0  0
  -25.8586  -11.2803   20.5648 O   0  0  0  0  0  0  0  0  0  0  0  0
  -28.2597  -26.7209   20.1548 O   0  0  0  0  0  0  0  0  0  1  0  0
  -20.9824   -8.9155   21.5815 F   0  0  0  0  0  0  0  0  0  0  0  0
  -25.5059   -9.6476   22.7677 F   0  0  0  0  0  0  0  0  0  0  0  0
  -32.4842  -25.3911   21.0567 S   0  0  0  0  0  0  0  0  0  0  0  0
  1 29  2  0  0  0  0
  1 57  2  0  0  0  0
  2  3  1  0  0  0  0
  2  6  2  0  0  0  0
  3  7  2  0  0  0  0
  4  9  2  0  0  0  0
  4 16  1  0  0  0  0
  5 10  1  0  0  0  0
  5 16  2  0  0  0  0
  6 18  1  0  0  0  0
  7 20  1  0  0  0  0
  8 11  2  0  0  0  0
  8 19  1  0  0  0  0
  9 22  1  0  0  0  0
 10 22  2  0  0  0  0
 11 23  1  0  0  0  0
 12 13  2  0  0  0  0
 12 24  1  0  0  0  0
 13 25  1  0  0  0  0
 14 21  1  0  0  0  0
 14 23  2  0  0  0  0
 15 25  2  0  0  0  0
 15 26  1  0  0  0  0
 16 27  1  0  0  0  0
 17 27  1  0  0  0  0
 17 28  2  0  0  0  0
 17 30  1  0  0  0  0
 18 20  2  0  0  0  0
 18 36  1  0  0  0  0
 19 21  2  0  0  0  0
 19 37  1  0  0  0  0
 20 45  1  0  0  0  0
 21 38  1  0  0  0  0
 22 72  1  0  0  0  0
 23 73  1  0  0  0  0
 24 26  2  0  0  0  0
 24 72  1  0  0  0  0
 25 74  1  0  0  0  0
 26 75  1  0  0  0  0
 27 56  2  0  0  0  0
 28 58  1  0  0  0  0
 28 61  1  0  0  0  0
 29 73  1  0  0  0  0
 30 62  1  0  0  0  0
 30 67  2  0  0  0  0
 31 46  1  0  0  0  0
 31 63  1  0  0  0  0
 31 68  2  0  0  0  0
 32 53  1  0  0  0  0
 32 59  1  0  0  0  0
 32 69  2  0  0  0  0
 33 54  1  0  0  0  0
 33 64  1  0  0  0  0
 33 70  2  0  0  0  0
 34 57  1  0  0  0  0
 34 65  1  0  0  0  0
 34 76  2  0  0  0  0
 35 60  1  0  0  0  0
 35 65  1  0  0  0  0
 35 71  2  0  0  0  0
 36 39  1  0  0  0  0
 37 46  1  0  0  0  0
 38 59  1  0  0  0  0
 39 41  1  0  0  0  0
 40 42  1  0  0  0  0
 40 43  1  0  0  0  0
 41 45  1  0  0  0  0
 42 47  1  0  0  0  0
 43 60  1  0  0  0  0
 44 47  1  0  0  0  0
 44 60  1  0  0  0  0
 45 63  1  0  0  0  0
 46 59  1  0  0  0  0
 47 58  1  0  0  0  0
 48 54  1  0  0  0  0
 49 55  1  0  0  0  0
 50 55  1  0  0  0  0
 51 55  1  0  0  0  0
 52 66  1  0  0  0  0
 53 55  1  0  0  0  0
 53 64  1  0  0  0  0
 54 66  1  0  0  0  0
 56 58  1  0  0  0  0
M  CHG  1  66   1
M  ISO  4  29 101  35 100  65 100  73 101
M  END
> <Batch ID>
0084

> <Smiles>
CNC(C)C(=O)NC(C(=O)N1Cc2cc([101O:1][101CH:1]=C=NC(=S)[100NH:0][100C:0](=O)N3CCCC(n4nc(-c5ccc(Oc6ccc(F)cc6F)cc5)c(C(N)=O)c4N)C3)ccc2CC1C(=O)NC1CCCc2ccccc21)C(C)(C)C

> <Shape>
0.282

> <Color>
0.113

> <Negative vol penalty>
0.000

$$$$

  -OEChem-04052300123D

 88 96  0     1  0  0  0  0  0999 V2000
  -26.8440  -17.7361   16.7359 C   0  0  0  0  0  0  0  0  0  0  0  0
  -27.3547  -18.5776   17.7189 C   0  0  0  0  0  0  0  0  0  0  0  0
  -23.1903   -9.7319   20.0197 C   0  0  0  0  0  0  0  0  0  0  0  0
  -23.8024   -9.9757   22.3441 C   0  0  0  0  0  0  0  0  0  0  0  0
  -31.0328  -19.3075   20.3269 C   0  0  0  0  0  0  0  0  0  0  0  0
  -29.2868  -19.5862   21.9734 C   0  0  0  0  0  0  0  0  0  0  0  0
  -26.2472  -18.2771   15.5979 C   0  0  0  0  0  0  0  0  0  0  0  0
  -27.2699  -19.9608   17.5639 C   0  0  0  0  0  0  0  0  0  0  0  0
  -25.7598  -22.3007   21.7935 C   0  0  0  0  0  0  0  0  0  0  0  0
  -30.9158  -17.9220   20.4373 C   0  0  0  0  0  0  0  0  0  0  0  0
  -29.1697  -18.2006   22.0838 C   0  0  0  0  0  0  0  0  0  0  0  0
  -22.4747   -8.5754   20.3294 C   0  0  0  0  0  0  0  0  0  0  0  0
  -23.0868   -8.8191   22.6538 C   0  0  0  0  0  0  0  0  0  0  0  0
  -26.7112  -22.4787   22.7971 C   0  0  0  0  0  0  0  0  0  0  0  0
  -19.4715   -7.7879   21.6685 C   0  0  0  0  0  0  0  0  0  0  0  0
  -18.2006   -7.6435   21.1122 C   0  0  0  0  0  0  0  0  0  0  0  0
  -27.0245  -24.7626   22.0866 C   0  0  0  0  0  0  0  0  0  0  0  0
  -18.9137   -5.6154   20.0096 C   0  0  0  0  0  0  0  0  0  0  0  0
  -23.8542  -10.4321   21.0270 C   0  0  0  0  0  0  0  0  0  0  0  0
  -30.2183  -20.1396   21.0950 C   0  0  0  0  0  0  0  0  0  0  0  0
  -24.1104  -12.9486   20.6966 C   0  0  0  0  0  0  0  0  0  0  0  0
  -26.1464  -19.6676   15.4334 C   0  0  0  0  0  0  0  0  0  0  0  0
  -25.4411  -23.3508   20.9206 C   0  0  0  0  0  0  0  0  0  0  0  0
  -26.6724  -20.5210   16.4220 C   0  0  0  0  0  0  0  0  0  0  0  0
  -26.0669  -24.5961   21.0744 C   0  0  0  0  0  0  0  0  0  0  0  0
  -29.9842  -17.3685   21.3157 C   0  0  0  0  0  0  0  0  0  0  0  0
  -22.4229   -8.1190   21.6464 C   0  0  0  0  0  0  0  0  0  0  0  0
  -27.3458  -23.7089   22.9419 C   0  0  0  0  0  0  0  0  0  0  0  0
  -20.4636   -6.8462   21.3953 C   0  0  0  0  0  0  0  0  0  0  0  0
  -17.9217   -6.5572   20.2828 C   0  0  0  0  0  0  0  0  0  0  0  0
  -20.1847   -5.7599   20.5659 C   0  0  0  0  0  0  0  0  0  0  0  0
  -24.5940  -11.6265   20.7077 C   0  0  0  0  0  0  0  0  0  0  0  0
  -25.1952  -13.7080   20.3321 C   0  0  0  0  0  0  0  0  0  0  0  0
  -29.3402  -24.7180   26.5229 C   0  0  0  0  0  0  0  0  0  0  0  0
  -30.3430  -21.6148   20.9775 C   0  0  0  0  0  0  0  0  0  0  0  0
  -22.7979  -13.4457   20.9896 C   0  0  0  0  0  0  0  0  0  0  0  0
  -30.0202  -25.4714   25.6441 C   0  0  0  0  0  0  0  0  0  0  0  0
  -30.3669  -24.9745   24.3176 C   0  0  0  0  0  0  0  0  0  0  0  0
  -29.5442  -24.2292   23.5475 C   0  0  0  0  0  0  0  0  0  1  0  0
  -29.9890  -23.7357   22.1955 C   0  0  0  0  0  0  0  0  0  0  0  0
  -25.6623  -23.8046   17.7823 C   0  0  0  0  0  0  0  0  0  0  0  0
  -24.0720  -26.5493   18.4603 C   0  0  0  0  0  0  0  0  0  0  0  0
  -23.2676  -28.9392   20.7598 C   0  0  0  0  0  0  0  0  0  0  0  0
  -30.5974  -14.9946   20.7371 C   0  0  0  0  0  0  0  0  0  0  0  0
  -25.5351  -20.2060   14.1641 C   0  0  0  0  0  0  0  0  0  0  0  0
  -24.3932  -23.1507   19.8602 C   0  0  0  0  0  0  0  0  0  0  0  0
  -25.7456  -25.7615   20.1761 C   0  0  0  0  0  0  0  0  0  0  0  0
  -25.1495  -21.6804   14.2515 C   0  0  0  0  0  0  0  0  0  0  0  0
  -29.7245  -12.3341   18.5378 C   0  0  0  0  0  0  0  0  0  0  0  0
  -26.2824  -22.4927   14.8709 C   0  0  0  0  0  0  0  0  0  0  0  0
  -28.2722  -12.0216   18.9053 C   0  0  0  0  0  0  0  0  0  0  0  0
  -30.5526  -12.7077   19.7660 C   0  0  0  0  0  0  0  0  0  0  0  0
  -28.5366  -13.4715   20.9583 C   0  0  0  0  0  0  0  0  0  0  0  0
  -26.5772  -22.0265   16.3017 C   0  0  1  0  0  0  0  0  0  0  0  0
  -24.5204  -24.1347   18.7013 C   0  0  1  0  0  0  0  0  0  0  0  0
  -27.6475  -13.1529   19.7453 C   0  0  2  0  0  0  0  0  0  0  0  0
  -30.4732  -26.8654   25.9687 C   0  0  0  0  0  0  0  0  0  0  0  0
  -21.9814  -31.0796   21.0090 C   0  0  0  0  0  0  0  0  0  0  0  0
  -26.2861  -28.0481   16.9902 C   0  0  0  0  0  0  0  0  0  0  0  0
  -25.4785  -30.1580   18.0691 C   0  0  0  0  0  0  0  0  0  0  0  0
  -23.9757  -28.8899   16.5341 C   0  0  0  0  0  0  0  0  0  0  0  0
  -21.4872  -27.7660   22.8123 C   0  0  0  0  0  0  0  0  0  0  0  0
  -24.4766  -27.9560   18.8295 C   0  0  1  0  0  0  0  0  0  0  0  0
  -21.9376  -29.5650   21.1391 C   0  0  2  0  0  0  0  0  0  0  0  0
  -25.0619  -28.7407   17.6216 C   0  0  0  0  0  0  0  0  0  0  0  0
  -25.8855  -11.5472   20.3764 N   0  0  0  0  0  0  0  0  0  0  0  0
  -26.2226  -12.8289   20.1537 N   0  0  0  0  0  0  0  0  0  0  0  0
  -24.7187  -25.5142   19.1504 N   0  0  0  0  0  0  0  0  0  0  0  0
  -29.9017  -13.7882   20.5101 N   0  0  0  0  0  0  0  0  0  0  0  0
  -25.3610  -15.0353   20.1500 N   0  0  0  0  0  0  0  0  0  0  0  0
  -21.8005  -12.5284   21.3477 N   0  0  0  0  0  0  0  0  0  0  0  0
  -29.8660  -15.9609   21.4270 N   0  0  0  0  0  0  0  0  0  0  0  0
  -29.9757  -22.3429   22.1086 N   0  0  0  0  0  0  0  0  0  0  0  0
  -25.5841  -22.5460   17.2172 N   0  0  0  0  0  0  0  0  0  0  0  0
  -23.2999  -28.5748   19.4304 N   0  0  0  0  0  0  0  0  0  0  0  0
  -21.5876  -29.2243   22.5471 N   0  3  0  0  0  0  0  0  0  0  0  0
  -30.7242  -22.0998   19.9158 O   0  0  0  0  0  0  0  0  0  0  0  0
  -22.5136  -14.6655   20.9196 O   0  0  0  0  0  0  0  0  0  0  0  0
  -30.3257  -24.4889   21.2873 O   0  0  0  0  0  0  0  0  0  0  0  0
  -26.5481  -24.6312   17.5983 O   0  0  0  0  0  0  0  0  0  0  0  0
  -23.2085  -26.3753   17.5966 O   0  0  0  0  0  0  0  0  0  0  0  0
  -24.1873  -28.7921   21.5617 O   0  0  0  0  0  0  0  0  0  0  0  0
  -31.7470  -15.1683   20.3244 O   0  0  0  0  0  0  0  0  0  0  0  0
  -31.6383  -25.3284   23.9000 O   0  0  0  0  0  0  0  0  0  0  0  0
  -21.7246   -6.9906   21.9491 O   0  0  0  0  0  0  0  0  0  0  0  0
  -28.2752  -23.8851   23.9201 O   0  0  0  0  0  0  0  0  0  1  0  0
  -16.7007   -6.4178   19.7498 F   0  0  0  0  0  0  0  0  0  0  0  0
  -21.1333   -4.8513   20.3008 F   0  0  0  0  0  0  0  0  0  0  0  0
  1  2  1  0  0  0  0
  1  7  2  0  0  0  0
  2  8  2  0  0  0  0
  3 12  2  0  0  0  0
  3 19  1  0  0  0  0
  4 13  1  0  0  0  0
  4 19  2  0  0  0  0
  5 10  2  0  0  0  0
  5 20  1  0  0  0  0
  6 11  1  0  0  0  0
  6 20  2  0  0  0  0
  7 22  1  0  0  0  0
  8 24  1  0  0  0  0
  9 14  2  0  0  0  0
  9 23  1  0  0  0  0
 10 26  1  0  0  0  0
 11 26  2  0  0  0  0
 12 27  1  0  0  0  0
 13 27  2  0  0  0  0
 14 28  1  0  0  0  0
 15 16  2  0  0  0  0
 15 29  1  0  0  0  0
 16 30  1  0  0  0  0
 17 25  1  0  0  0  0
 17 28  2  0  0  0  0
 18 30  2  0  0  0  0
 18 31  1  0  0  0  0
 19 32  1  0  0  0  0
 20 35  1  0  0  0  0
 21 32  1  0  0  0  0
 21 33  2  0  0  0  0
 21 36  1  0  0  0  0
 22 24  2  0  0  0  0
 22 45  1  0  0  0  0
 23 25  2  0  0  0  0
 23 46  1  0  0  0  0
 24 54  1  0  0  0  0
 25 47  1  0  0  0  0
 26 72  1  0  0  0  0
 27 85  1  0  0  0  0
 28 86  1  0  0  0  0
 29 31  2  0  0  0  0
 29 85  1  0  0  0  0
 30 87  1  0  0  0  0
 31 88  1  0  0  0  0
 32 66  2  0  0  0  0
 33 67  1  0  0  0  0
 33 70  1  0  0  0  0
 34 37  2  0  0  0  0
 35 73  1  0  0  0  0
 35 77  2  0  0  0  0
 36 71  1  0  0  0  0
 36 78  2  0  0  0  0
 37 38  1  0  0  0  0
 37 57  1  0  0  0  0
 38 39  2  0  0  0  0
 38 84  1  0  0  0  0
 39 40  1  0  0  0  0
 39 86  1  0  0  0  0
 40 73  1  0  0  0  0
 40 79  2  0  0  0  0
 41 55  1  0  0  0  0
 41 74  1  0  0  0  0
 41 80  2  0  0  0  0
 42 63  1  0  0  0  0
 42 68  1  0  0  0  0
 42 81  2  0  0  0  0
 43 64  1  0  0  0  0
 43 75  1  0  0  0  0
 43 82  2  0  0  0  0
 44 69  1  0  0  0  0
 44 72  1  0  0  0  0
 44 83  2  0  0  0  0
 45 48  1  0  0  0  0
 46 55  1  0  0  0  0
 47 68  1  0  0  0  0
 48 50  1  0  0  0  0
 49 51  1  0  0  0  0
 49 52  1  0  0  0  0
 50 54  1  0  0  0  0
 51 56  1  0  0  0  0
 52 69  1  0  0  0  0
 53 56  1  0  0  0  0
 53 69  1  0  0  0  0
 54 74  1  0  0  0  0
 55 68  1  0  0  0  0
 56 67  1  0  0  0  0
 58 64  1  0  0  0  0
 59 65  1  0  0  0  0
 60 65  1  0  0  0  0
 61 65  1  0  0  0  0
 62 76  1  0  0  0  0
 63 65  1  0  0  0  0
 63 75  1  0  0  0  0
 64 76  1  0  0  0  0
 66 67  1  0  0  0  0
M  CHG  1  76   1
M  ISO  4  39 101  44 100  72 100  86 101
M  END
> <Batch ID>
0084

> <Smiles>
C=C(C)C(=O)[101CH:1](C(=O)NC(=O)c1ccc([100NH:0][100C:0](=O)N2CCCC(n3nc(-c4ccc(Oc5ccc(F)cc5F)cc4)c(C(N)=O)c3N)C2)cc1)[101O:1]c1ccc2c(c1)CN(C(=O)C(NC(=O)C(C)NC)C(C)(C)C)C(C(=O)NC1CCCc3ccccc31)C2

> <Shape>
0.228

> <Color>
0.198

> <Negative vol penalty>
0.000

$$$$

  -OEChem-04052300123D

 84 93  0     1  0  0  0  0  0999 V2000
  -22.5026   -7.6298   20.6856 C   0  0  0  0  0  0  0  0  0  0  0  0
  -21.6190   -8.7007   20.5964 C   0  0  0  0  0  0  0  0  0  0  0  0
  -27.7457  -25.2430   20.9378 C   0  0  0  0  0  0  0  0  0  0  0  0
  -29.2594  -26.8382   19.9371 C   0  0  0  0  0  0  0  0  0  0  0  0
  -23.7250   -7.7886   21.3372 C   0  0  0  0  0  0  0  0  0  0  0  0
  -21.9569   -9.9307   21.1598 C   0  0  0  0  0  0  0  0  0  0  0  0
  -21.0598  -16.9664   20.1547 C   0  0  0  0  0  0  0  0  0  0  0  0
  -28.2907  -24.2305   20.1483 C   0  0  0  0  0  0  0  0  0  0  0  0
  -29.8044  -25.8257   19.1476 C   0  0  0  0  0  0  0  0  0  0  0  0
  -20.6375  -18.1067   20.8369 C   0  0  0  0  0  0  0  0  0  0  0  0
  -28.9862  -24.1542   16.3249 C   0  0  0  0  0  0  0  0  0  0  0  0
  -29.1961  -24.4282   14.9735 C   0  0  0  0  0  0  0  0  0  0  0  0
  -20.8835  -26.3820   22.9776 C   0  0  0  0  0  0  0  0  0  0  0  0
  -22.8103  -18.2865   21.8692 C   0  0  0  0  0  0  0  0  0  0  0  0
  -31.5584  -24.0068   15.2549 C   0  0  0  0  0  0  0  0  0  0  0  0
  -19.2877  -27.1797   24.4674 C   0  0  0  0  0  0  0  0  0  0  0  0
  -28.2300  -26.5469   20.8322 C   0  0  0  0  0  0  0  0  0  0  0  0
  -20.1292  -27.5045   23.4263 C   0  0  0  0  0  0  0  0  0  0  0  0
  -28.0912  -27.9946   22.9280 C   0  0  0  0  0  0  0  0  0  0  0  0
  -24.0821   -9.0239   21.9004 C   0  0  0  0  0  0  0  0  0  0  0  0
  -22.3593  -16.4706   20.3334 C   0  0  0  0  0  0  0  0  0  0  0  0
  -23.1846  -10.1058   21.8207 C   0  0  0  0  0  0  0  0  0  0  0  0
  -23.2475  -17.1413   21.1862 C   0  0  0  0  0  0  0  0  0  0  0  0
  -29.3201  -24.5218   19.2532 C   0  0  0  0  0  0  0  0  0  0  0  0
  -21.5118  -18.7652   21.6965 C   0  0  0  0  0  0  0  0  0  0  0  0
  -30.0625  -23.8065   17.1414 C   0  0  0  0  0  0  0  0  0  0  0  0
  -30.4822  -24.3545   14.4384 C   0  0  0  0  0  0  0  0  0  0  0  0
  -31.3485  -23.7328   16.6064 C   0  0  0  0  0  0  0  0  0  0  0  0
  -27.6670  -27.5934   21.6471 C   0  0  0  0  0  0  0  0  0  0  0  0
  -27.2392  -29.0171   23.2672 C   0  0  0  0  0  0  0  0  0  0  0  0
  -20.5898  -25.2420   23.6932 C   0  0  0  0  0  0  0  0  0  0  0  0
  -21.4633  -22.2043   22.7512 C   0  0  0  0  0  0  0  0  0  0  0  0
  -22.0093  -23.5611   22.6997 C   0  0  0  0  0  0  0  0  0  0  0  0
  -21.7798  -21.0447   22.1471 C   0  0  0  0  0  0  0  0  0  1  0  0
  -20.2108  -28.8777   22.8654 C   0  0  0  0  0  0  0  0  0  0  0  0
  -29.1599  -27.4884   23.7387 C   0  0  0  0  0  0  0  0  0  0  0  0
  -23.5928  -13.7584   21.4408 C   0  0  0  0  0  0  0  0  0  0  0  0
  -26.3857  -15.0811   20.4548 C   0  0  0  0  0  0  0  0  0  0  0  0
  -28.1500  -17.9059   19.7101 C   0  0  0  0  0  0  0  0  0  0  0  0
  -21.6983  -30.4393   21.6521 C   0  0  0  0  0  0  0  0  0  0  0  0
  -25.3941   -9.1341   22.6360 C   0  0  0  0  0  0  0  0  0  0  0  0
  -22.8081  -15.2549   19.5698 C   0  0  0  0  0  0  0  0  0  0  0  0
  -24.6594  -16.6613   21.3972 C   0  0  0  0  0  0  0  0  0  0  0  0
  -20.4276  -22.6880   23.7402 C   0  0  0  0  0  0  0  0  0  0  0  0
  -25.8367  -10.5746   22.8796 C   0  0  0  0  0  0  0  0  0  0  0  0
  -24.5666  -32.4753   21.2987 C   0  0  0  0  0  0  0  0  0  0  0  0
  -24.6746  -11.4074   23.4116 C   0  0  0  0  0  0  0  0  0  0  0  0
  -25.7293  -31.4957   21.4799 C   0  0  0  0  0  0  0  0  0  0  0  0
  -23.4065  -31.8432   20.5309 C   0  0  0  0  0  0  0  0  0  0  0  0
  -24.0879  -29.5890   21.2467 C   0  0  0  0  0  0  0  0  0  0  0  0
  -23.5257  -11.4626   22.3976 C   0  0  1  0  0  0  0  0  0  0  0  0
  -23.9889  -14.5421   20.2216 C   0  0  1  0  0  0  0  0  0  0  0  0
  -25.2524  -30.1556   22.0750 C   0  0  1  0  0  0  0  0  0  0  0  0
  -30.4218  -18.6714   18.9685 C   0  0  0  0  0  0  0  0  0  0  0  0
  -27.4667  -14.5877   23.2651 C   0  0  0  0  0  0  0  0  0  0  0  0
  -29.3251  -16.1861   22.7556 C   0  0  0  0  0  0  0  0  0  0  0  0
  -29.0839  -14.0910   21.4233 C   0  0  0  0  0  0  0  0  0  0  0  0
  -27.0624  -19.1189   17.2393 C   0  0  0  0  0  0  0  0  0  0  0  0
  -27.4284  -15.9718   21.0860 C   0  0  1  0  0  0  0  0  0  0  0  0
  -29.0264  -18.2625   18.5231 C   0  0  2  0  0  0  0  0  0  0  0  0
  -28.2989  -15.2173   22.1302 C   0  0  0  0  0  0  0  0  0  0  0  0
  -26.6263  -28.3030   21.2028 N   0  0  0  0  0  0  0  0  0  0  0  0
  -26.3894  -29.1604   22.2102 N   0  0  0  0  0  0  0  0  0  0  0  0
  -21.0751  -23.9791   23.5894 N   0  0  0  0  0  0  0  0  0  0  0  0
  -25.0490  -15.4648   20.6329 N   0  0  0  0  0  0  0  0  0  0  0  0
  -23.0084  -30.5842   21.1632 N   0  0  0  0  0  0  0  0  0  0  0  0
  -27.1416  -29.7987   24.3636 N   0  0  0  0  0  0  0  0  0  0  0  0
  -29.9374  -26.4353   23.2379 N   0  0  0  0  0  0  0  0  0  0  0  0
  -21.4294  -29.2163   22.2766 N   0  0  0  0  0  0  0  0  0  0  0  0
  -23.8306  -12.4010   21.3389 N   0  0  0  0  0  0  0  0  0  0  0  0
  -28.1874  -16.5553   19.9851 N   0  0  0  0  0  0  0  0  0  0  0  0
  -28.4274  -19.3924   17.7578 N   0  3  0  0  0  0  0  0  0  0  0  0
  -22.8796  -24.1085   22.0546 O   0  0  0  0  0  0  0  0  0  0  0  0
  -19.2209  -29.6028   22.9129 O   0  0  0  0  0  0  0  0  0  0  0  0
  -29.4074  -27.9451   24.8805 O   0  0  0  0  0  0  0  0  0  0  0  0
  -23.1086  -14.3422   22.4033 O   0  0  0  0  0  0  0  0  0  0  0  0
  -26.7444  -14.0856   19.8209 O   0  0  0  0  0  0  0  0  0  0  0  0
  -27.5003  -18.7424   20.3336 O   0  0  0  0  0  0  0  0  0  0  0  0
  -20.8521  -31.3354   21.5738 O   0  0  0  0  0  0  0  0  0  0  0  0
  -29.8524  -23.5340   18.4828 O   0  0  0  0  0  0  0  0  0  0  0  0
  -21.1019  -19.8780   22.3640 O   0  0  0  0  0  0  0  0  0  1  0  0
  -30.6833  -24.6161   13.1403 F   0  0  0  0  0  0  0  0  0  0  0  0
  -32.3862  -23.3983   17.3856 F   0  0  0  0  0  0  0  0  0  0  0  0
  -19.4089  -25.5273   24.9000 S   0  0  0  0  0  0  0  0  0  0  0  0
  1  2  1  0  0  0  0
  1  5  2  0  0  0  0
  2  6  2  0  0  0  0
  3  8  2  0  0  0  0
  3 17  1  0  0  0  0
  4  9  1  0  0  0  0
  4 17  2  0  0  0  0
  5 20  1  0  0  0  0
  6 22  1  0  0  0  0
  7 10  2  0  0  0  0
  7 21  1  0  0  0  0
  8 24  1  0  0  0  0
  9 24  2  0  0  0  0
 10 25  1  0  0  0  0
 11 12  2  0  0  0  0
 11 26  1  0  0  0  0
 12 27  1  0  0  0  0
 13 18  1  0  0  0  0
 13 31  2  0  0  0  0
 14 23  1  0  0  0  0
 14 25  2  0  0  0  0
 15 27  2  0  0  0  0
 15 28  1  0  0  0  0
 16 18  2  0  0  0  0
 16 84  1  0  0  0  0
 17 29  1  0  0  0  0
 18 35  1  0  0  0  0
 19 29  1  0  0  0  0
 19 30  2  0  0  0  0
 19 36  1  0  0  0  0
 20 22  2  0  0  0  0
 20 41  1  0  0  0  0
 21 23  2  0  0  0  0
 21 42  1  0  0  0  0
 22 51  1  0  0  0  0
 23 43  1  0  0  0  0
 24 80  1  0  0  0  0
 25 81  1  0  0  0  0
 26 28  2  0  0  0  0
 26 80  1  0  0  0  0
 27 82  1  0  0  0  0
 28 83  1  0  0  0  0
 29 62  2  0  0  0  0
 30 63  1  0  0  0  0
 30 67  1  0  0  0  0
 31 64  1  0  0  0  0
 31 84  1  0  0  0  0
 32 33  1  0  0  0  0
 32 34  2  0  0  0  0
 32 44  1  0  0  0  0
 33 64  1  0  0  0  0
 33 73  2  0  0  0  0
 34 81  1  0  0  0  0
 35 69  1  0  0  0  0
 35 74  2  0  0  0  0
 36 68  1  0  0  0  0
 36 75  2  0  0  0  0
 37 52  1  0  0  0  0
 37 70  1  0  0  0  0
 37 76  2  0  0  0  0
 38 59  1  0  0  0  0
 38 65  1  0  0  0  0
 38 77  2  0  0  0  0
 39 60  1  0  0  0  0
 39 71  1  0  0  0  0
 39 78  2  0  0  0  0
 40 66  1  0  0  0  0
 40 69  1  0  0  0  0
 40 79  2  0  0  0  0
 41 45  1  0  0  0  0
 42 52  1  0  0  0  0
 43 65  1  0  0  0  0
 44 64  1  0  0  0  0
 45 47  1  0  0  0  0
 46 48  1  0  0  0  0
 46 49  1  0  0  0  0
 47 51  1  0  0  0  0
 48 53  1  0  0  0  0
 49 66  1  0  0  0  0
 50 53  1  0  0  0  0
 50 66  1  0  0  0  0
 51 70  1  0  0  0  0
 52 65  1  0  0  0  0
 53 63  1  0  0  0  0
 54 60  1  0  0  0  0
 55 61  1  0  0  0  0
 56 61  1  0  0  0  0
 57 61  1  0  0  0  0
 58 72  1  0  0  0  0
 59 61  1  0  0  0  0
 59 71  1  0  0  0  0
 60 72  1  0  0  0  0
 62 63  1  0  0  0  0
M  CHG  1  72   1
M  ISO  4  34 101  40 100  69 100  81 101
M  END
> <Batch ID>
0084

> <Smiles>
CNC(C)C(=O)NC(C(=O)N1Cc2cc([101O:1][101CH:1]=C3CN(c4cc(C(=O)[100NH:0][100C:0](=O)N5CCCC(n6nc(-c7ccc(Oc8ccc(F)cc8F)cc7)c(C(N)=O)c6N)C5)cs4)C3=O)ccc2CC1C(=O)NC1CCCc2ccccc21)C(C)(C)C

> <Shape>
0.257

> <Color>
0.047

> <Negative vol penalty>
0.000

$$$$

  -OEChem-04052300123D

 86 95  0     1  0  0  0  0  0999 V2000
  -27.1077  -35.7408   21.0539 C   0  0  0  0  0  0  0  0  0  0  0  0
  -27.4823  -34.4053   21.1609 C   0  0  0  0  0  0  0  0  0  0  0  0
  -23.0892  -10.5611   21.2029 C   0  0  0  0  0  0  0  0  0  0  0  0
  -24.7741   -8.8956   21.6766 C   0  0  0  0  0  0  0  0  0  0  0  0
  -25.8823  -36.1631   21.5676 C   0  0  0  0  0  0  0  0  0  0  0  0
  -26.6322  -33.4915   21.7828 C   0  0  0  0  0  0  0  0  0  0  0  0
  -26.2140  -29.1569   19.1980 C   0  0  0  0  0  0  0  0  0  0  0  0
  -28.0127  -20.6945   18.4781 C   0  0  0  0  0  0  0  0  0  0  0  0
  -22.1085   -9.5692   21.2036 C   0  0  0  0  0  0  0  0  0  0  0  0
  -23.7934   -7.9037   21.6773 C   0  0  0  0  0  0  0  0  0  0  0  0
  -27.2632  -28.2455   19.3093 C   0  0  0  0  0  0  0  0  0  0  0  0
  -27.6232  -19.3552   18.4652 C   0  0  0  0  0  0  0  0  0  0  0  0
  -21.4208   -6.7507   23.7896 C   0  0  0  0  0  0  0  0  0  0  0  0
  -21.4537   -5.8098   24.8188 C   0  0  0  0  0  0  0  0  0  0  0  0
  -25.9852  -26.9797   20.9168 C   0  0  0  0  0  0  0  0  0  0  0  0
  -29.9850  -20.1087   19.7445 C   0  0  0  0  0  0  0  0  0  0  0  0
  -21.7168   -4.0414   23.1937 C   0  0  0  0  0  0  0  0  0  0  0  0
  -24.4220  -10.2243   21.4394 C   0  0  0  0  0  0  0  0  0  0  0  0
  -25.8777  -12.0081   22.5378 C   0  0  0  0  0  0  0  0  0  0  0  0
  -25.0124  -35.2522   22.1874 C   0  0  0  0  0  0  0  0  0  0  0  0
  -25.0449  -28.9923   19.9548 C   0  0  0  0  0  0  0  0  0  0  0  0
  -25.3945  -33.9023   22.3064 C   0  0  0  0  0  0  0  0  0  0  0  0
  -24.9216  -27.8890   20.8114 C   0  0  0  0  0  0  0  0  0  0  0  0
  -29.1937  -21.0712   19.1177 C   0  0  0  0  0  0  0  0  0  0  0  0
  -22.4606   -8.2405   21.4409 C   0  0  0  0  0  0  0  0  0  0  0  0
  -27.1500  -27.1583   20.1709 C   0  0  0  0  0  0  0  0  0  0  0  0
  -21.5359   -6.3370   22.4625 C   0  0  0  0  0  0  0  0  0  0  0  0
  -28.4145  -18.3926   19.0920 C   0  0  0  0  0  0  0  0  0  0  0  0
  -21.6017   -4.4552   24.5209 C   0  0  0  0  0  0  0  0  0  0  0  0
  -29.5955  -18.7694   19.7317 C   0  0  0  0  0  0  0  0  0  0  0  0
  -21.6839   -4.9824   22.1645 C   0  0  0  0  0  0  0  0  0  0  0  0
  -25.4356  -11.2484   21.4382 C   0  0  0  0  0  0  0  0  0  0  0  0
  -26.8429  -12.8354   22.0177 C   0  0  0  0  0  0  0  0  0  0  0  0
  -30.8348  -24.3221   19.1645 C   0  0  0  0  0  0  0  0  0  0  0  0
  -29.5582  -24.6994   19.1381 C   0  0  0  0  0  0  0  0  0  0  0  0
  -30.8871  -22.8532   19.1697 C   0  0  0  0  0  0  0  0  0  0  0  0
  -28.7198  -23.4852   19.1062 C   0  0  0  0  0  0  0  0  0  0  0  0
  -25.4539  -11.9694   23.9069 C   0  0  0  0  0  0  0  0  0  0  0  0
  -23.5630  -30.6953   22.1924 C   0  0  0  0  0  0  0  0  0  0  0  0
  -21.2837  -28.4098   21.8708 C   0  0  0  0  0  0  0  0  0  0  0  0
  -20.4873  -25.2215   20.9499 C   0  0  0  0  0  0  0  0  0  0  0  0
  -28.5078  -16.3247   17.9858 C   0  0  0  0  0  0  0  0  0  0  0  0
  -23.7190  -35.7648   22.7696 C   0  0  0  0  0  0  0  0  0  0  0  0
  -23.9116  -29.9695   19.8034 C   0  0  0  0  0  0  0  0  0  0  0  0
  -23.6794  -27.6560   21.6305 C   0  0  0  0  0  0  0  0  0  0  0  0
  -22.7113  -34.6611   23.0806 C   0  0  0  0  0  0  0  0  0  0  0  0
  -29.1430  -12.8120   17.5214 C   0  0  0  0  0  0  0  0  0  0  0  0
  -23.3906  -33.5095   23.8149 C   0  0  0  0  0  0  0  0  0  0  0  0
  -28.2411  -12.1546   18.5656 C   0  0  0  0  0  0  0  0  0  0  0  0
  -28.5048  -14.0717   16.9447 C   0  0  0  0  0  0  0  0  0  0  0  0
  -27.2066  -14.4212   19.0292 C   0  0  0  0  0  0  0  0  0  0  0  0
  -24.4887  -32.8763   22.9521 C   0  0  1  0  0  0  0  0  0  0  0  0
  -22.9730  -29.9870   21.0059 C   0  0  1  0  0  0  0  0  0  0  0  0
  -27.8311  -13.1621   19.6546 C   0  0  1  0  0  0  0  0  0  0  0  0
  -18.5511  -23.6292   20.8370 C   0  0  0  0  0  0  0  0  0  0  0  0
  -21.4555  -27.9907   24.8882 C   0  0  0  0  0  0  0  0  0  0  0  0
  -20.2551  -25.8147   24.5842 C   0  0  0  0  0  0  0  0  0  0  0  0
  -19.1334  -27.9537   23.9604 C   0  0  0  0  0  0  0  0  0  0  0  0
  -20.7227  -24.9616   18.0112 C   0  0  0  0  0  0  0  0  0  0  0  0
  -28.9921  -26.0724   19.1298 C   0  0  0  0  0  0  0  0  0  1  0  0
  -21.0121  -27.0724   22.5163 C   0  0  1  0  0  0  0  0  0  0  0  0
  -19.3649  -24.6727   20.0877 C   0  0  2  0  0  0  0  0  0  0  0  0
  -20.4883  -27.2130   23.9734 C   0  0  0  0  0  0  0  0  0  0  0  0
  -26.0679  -11.5650   20.3050 N   0  0  0  0  0  0  0  0  0  0  0  0
  -26.9171  -12.5330   20.6898 N   0  0  0  0  0  0  0  0  0  0  0  0
  -29.5820  -22.4061   19.1306 N   0  0  0  0  0  0  0  0  0  0  0  0
  -22.6014  -28.6428   21.4524 N   0  0  0  0  0  0  0  0  0  0  0  0
  -28.0946  -14.9887   18.0074 N   0  0  0  0  0  0  0  0  0  0  0  0
  -27.6268  -13.7849   22.5712 N   0  0  0  0  0  0  0  0  0  0  0  0
  -24.4516  -11.0599   24.2706 N   0  0  0  0  0  0  0  0  0  0  0  0
  -23.9070  -32.0112   21.9483 N   0  0  0  0  0  0  0  0  0  0  0  0
  -20.1043  -26.3637   21.6208 N   0  0  0  0  0  0  0  0  0  0  0  0
  -19.9188  -24.0416   18.8565 N   0  3  0  0  0  0  0  0  0  0  0  0
  -31.9250  -22.2123   19.2017 O   0  0  0  0  0  0  0  0  0  0  0  0
  -27.4998  -23.4931   19.0685 O   0  0  0  0  0  0  0  0  0  0  0  0
  -25.9379  -12.7306   24.7787 O   0  0  0  0  0  0  0  0  0  0  0  0
  -23.6949  -30.0930   23.2515 O   0  0  0  0  0  0  0  0  0  0  0  0
  -20.3590  -29.2151   21.7361 O   0  0  0  0  0  0  0  0  0  0  0  0
  -21.5921  -24.6882   21.0240 O   0  0  0  0  0  0  0  0  0  0  0  0
  -29.2186  -16.8152   17.1093 O   0  0  0  0  0  0  0  0  0  0  0  0
  -21.5039   -7.2724   21.4419 O   0  0  0  0  0  0  0  0  0  0  0  0
  -28.0227  -17.0502   19.0775 O   0  0  0  0  0  0  0  0  0  0  0  0
  -28.1728  -26.2676   20.2818 O   0  0  0  0  0  0  0  0  0  1  0  0
  -21.6348   -3.5519   25.5094 F   0  0  0  0  0  0  0  0  0  0  0  0
  -30.3605  -17.8490   20.3345 F   0  0  0  0  0  0  0  0  0  0  0  0
  -21.7962   -4.5790   20.8915 F   0  0  0  0  0  0  0  0  0  0  0  0
  1  2  1  0  0  0  0
  1  5  2  0  0  0  0
  2  6  2  0  0  0  0
  3  9  2  0  0  0  0
  3 18  1  0  0  0  0
  4 10  1  0  0  0  0
  4 18  2  0  0  0  0
  5 20  1  0  0  0  0
  6 22  1  0  0  0  0
  7 11  2  0  0  0  0
  7 21  1  0  0  0  0
  8 12  2  0  0  0  0
  8 24  1  0  0  0  0
  9 25  1  0  0  0  0
 10 25  2  0  0  0  0
 11 26  1  0  0  0  0
 12 28  1  0  0  0  0
 13 14  2  0  0  0  0
 13 27  1  0  0  0  0
 14 29  1  0  0  0  0
 15 23  1  0  0  0  0
 15 26  2  0  0  0  0
 16 24  2  0  0  0  0
 16 30  1  0  0  0  0
 17 29  2  0  0  0  0
 17 31  1  0  0  0  0
 18 32  1  0  0  0  0
 19 32  1  0  0  0  0
 19 33  2  0  0  0  0
 19 38  1  0  0  0  0
 20 22  2  0  0  0  0
 20 43  1  0  0  0  0
 21 23  2  0  0  0  0
 21 44  1  0  0  0  0
 22 52  1  0  0  0  0
 23 45  1  0  0  0  0
 24 66  1  0  0  0  0
 25 81  1  0  0  0  0
 26 83  1  0  0  0  0
 27 31  2  0  0  0  0
 27 81  1  0  0  0  0
 28 30  2  0  0  0  0
 28 82  1  0  0  0  0
 29 84  1  0  0  0  0
 30 85  1  0  0  0  0
 31 86  1  0  0  0  0
 32 64  2  0  0  0  0
 33 65  1  0  0  0  0
 33 69  1  0  0  0  0
 34 35  2  0  0  0  0
 34 36  1  0  0  0  0
 35 37  1  0  0  0  0
 35 60  1  0  0  0  0
 36 66  1  0  0  0  0
 36 74  2  0  0  0  0
 37 66  1  0  0  0  0
 37 75  2  0  0  0  0
 38 70  1  0  0  0  0
 38 76  2  0  0  0  0
 39 53  1  0  0  0  0
 39 71  1  0  0  0  0
 39 77  2  0  0  0  0
 40 61  1  0  0  0  0
 40 67  1  0  0  0  0
 40 78  2  0  0  0  0
 41 62  1  0  0  0  0
 41 72  1  0  0  0  0
 41 79  2  0  0  0  0
 42 68  1  0  0  0  0
 42 80  2  0  0  0  0
 42 82  1  0  0  0  0
 43 46  1  0  0  0  0
 44 53  1  0  0  0  0
 45 67  1  0  0  0  0
 46 48  1  0  0  0  0
 47 49  1  0  0  0  0
 47 50  1  0  0  0  0
 48 52  1  0  0  0  0
 49 54  1  0  0  0  0
 50 68  1  0  0  0  0
 51 54  1  0  0  0  0
 51 68  1  0  0  0  0
 52 71  1  0  0  0  0
 53 67  1  0  0  0  0
 54 65  1  0  0  0  0
 55 62  1  0  0  0  0
 56 63  1  0  0  0  0
 57 63  1  0  0  0  0
 58 63  1  0  0  0  0
 59 73  1  0  0  0  0
 60 83  1  0  0  0  0
 61 63  1  0  0  0  0
 61 72  1  0  0  0  0
 62 73  1  0  0  0  0
 64 65  1  0  0  0  0
M  CHG  1  73   1
M  ISO  4  42 100  60 101  82 100  83 101
M  END
> <Batch ID>
0084

> <Smiles>
CNC(C)C(=O)NC(C(=O)N1Cc2cc([101O:1][101CH2:1]C3=CC(=O)N(c4ccc([100O:0][100C:0](=O)N5CCCC(n6nc(-c7ccc(Oc8ccc(F)cc8F)cc7)c(C(N)=O)c6N)C5)c(F)c4)C3=O)ccc2CC1C(=O)NC1CCCc2ccccc21)C(C)(C)C

> <Shape>
0.350

> <Color>
0.116

> <Negative vol penalty>
0.000

$$$$

  -OEChem-04052300123D

 85 94  0     1  0  0  0  0  0999 V2000
  -30.7168  -35.1013   20.5498 C   0  0  0  0  0  0  0  0  0  0  0  0
  -30.5315  -33.7238   20.4896 C   0  0  0  0  0  0  0  0  0  0  0  0
  -22.2560  -13.4429   21.9893 C   0  0  0  0  0  0  0  0  0  0  0  0
  -23.5923  -11.9815   23.3734 C   0  0  0  0  0  0  0  0  0  0  0  0
  -29.9828  -35.8631   21.4580 C   0  0  0  0  0  0  0  0  0  0  0  0
  -29.6129  -33.1072   21.3383 C   0  0  0  0  0  0  0  0  0  0  0  0
  -26.7227  -29.7130   18.9359 C   0  0  0  0  0  0  0  0  0  0  0  0
  -28.4914  -20.2230   19.3462 C   0  0  0  0  0  0  0  0  0  0  0  0
  -30.7499  -19.9200   20.1488 C   0  0  0  0  0  0  0  0  0  0  0  0
  -28.3159  -18.8395   19.3175 C   0  0  0  0  0  0  0  0  0  0  0  0
  -30.5745  -18.5365   20.1201 C   0  0  0  0  0  0  0  0  0  0  0  0
  -21.3243  -13.5671   23.0199 C   0  0  0  0  0  0  0  0  0  0  0  0
  -22.6605  -12.1057   24.4040 C   0  0  0  0  0  0  0  0  0  0  0  0
  -27.2933  -28.4706   18.6626 C   0  0  0  0  0  0  0  0  0  0  0  0
  -19.6331  -10.8242   25.1932 C   0  0  0  0  0  0  0  0  0  0  0  0
  -19.2471   -9.6622   25.8614 C   0  0  0  0  0  0  0  0  0  0  0  0
  -26.1573  -27.5352   20.5741 C   0  0  0  0  0  0  0  0  0  0  0  0
  -20.0663  -10.5846   27.9387 C   0  0  0  0  0  0  0  0  0  0  0  0
  -23.3900  -12.6501   22.1661 C   0  0  0  0  0  0  0  0  0  0  0  0
  -24.1262  -12.0150   19.8076 C   0  0  0  0  0  0  0  0  0  0  0  0
  -29.0477  -35.2568   22.3116 C   0  0  0  0  0  0  0  0  0  0  0  0
  -25.8724  -29.8787   20.0385 C   0  0  0  0  0  0  0  0  0  0  0  0
  -28.8667  -33.8614   22.2597 C   0  0  0  0  0  0  0  0  0  0  0  0
  -25.5752  -28.7802   20.8577 C   0  0  0  0  0  0  0  0  0  0  0  0
  -29.7084  -20.7632   19.7617 C   0  0  0  0  0  0  0  0  0  0  0  0
  -29.3575  -17.9963   19.7045 C   0  0  0  0  0  0  0  0  0  0  0  0
  -21.5265  -12.8985   24.2272 C   0  0  0  0  0  0  0  0  0  0  0  0
  -27.0129  -27.3822   19.4834 C   0  0  0  0  0  0  0  0  0  0  0  0
  -20.2358  -11.8663   25.8978 C   0  0  0  0  0  0  0  0  0  0  0  0
  -19.4637   -9.5424   27.2341 C   0  0  0  0  0  0  0  0  0  0  0  0
  -20.4523  -11.7465   27.2705 C   0  0  0  0  0  0  0  0  0  0  0  0
  -24.3525  -12.5210   21.1017 C   0  0  0  0  0  0  0  0  0  0  0  0
  -25.3475  -12.1044   19.1856 C   0  0  0  0  0  0  0  0  0  0  0  0
  -28.8549  -23.0697   20.0158 C   0  0  0  0  0  0  0  0  0  0  0  0
  -28.9735  -24.4071   20.0348 C   0  0  0  0  0  0  0  0  0  0  0  0
  -31.2898  -24.0896   19.1818 C   0  0  0  0  0  0  0  0  0  0  0  0
  -22.9199  -11.5096   19.2203 C   0  0  0  0  0  0  0  0  0  0  0  0
  -25.9511  -31.6324   22.6884 C   0  0  0  0  0  0  0  0  0  0  0  0
  -22.9598  -30.4459   23.0968 C   0  0  0  0  0  0  0  0  0  0  0  0
  -21.3071  -27.2670   22.6716 C   0  0  0  0  0  0  0  0  0  0  0  0
  -30.1101  -15.6138   20.0267 C   0  0  0  0  0  0  0  0  0  0  0  0
  -28.3119  -36.1155   23.3095 C   0  0  0  0  0  0  0  0  0  0  0  0
  -25.2437  -31.2191   20.3041 C   0  0  0  0  0  0  0  0  0  0  0  0
  -24.6525  -28.9007   22.0420 C   0  0  0  0  0  0  0  0  0  0  0  0
  -30.2907  -25.0710   19.7640 C   0  0  0  0  0  0  0  0  0  0  0  0
  -31.2713  -22.6631   19.6932 C   0  0  0  0  0  0  0  0  0  0  0  0
  -27.0873  -35.4336   23.9140 C   0  0  0  0  0  0  0  0  0  0  0  0
  -30.0426  -12.0554   20.1281 C   0  0  0  0  0  0  0  0  0  0  0  0
  -27.4273  -34.0107   24.3458 C   0  0  0  0  0  0  0  0  0  0  0  0
  -28.5546  -11.7247   20.2654 C   0  0  0  0  0  0  0  0  0  0  0  0
  -30.4189  -13.3121   20.9109 C   0  0  0  0  0  0  0  0  0  0  0  0
  -28.1130  -14.1648   20.7532 C   0  0  0  0  0  0  0  0  0  0  0  0
  -27.8616  -33.1592   23.1466 C   0  0  1  0  0  0  0  0  0  0  0  0
  -24.7995  -31.3942   21.7531 C   0  0  1  0  0  0  0  0  0  0  0  0
  -27.6732  -12.9436   19.9293 C   0  0  2  0  0  0  0  0  0  0  0  0
  -18.9022  -26.7290   22.1979 C   0  0  0  0  0  0  0  0  0  0  0  0
  -22.7201  -30.1949   26.1283 C   0  0  0  0  0  0  0  0  0  0  0  0
  -21.1784  -28.2539   25.7757 C   0  0  0  0  0  0  0  0  0  0  0  0
  -20.5469  -30.5152   24.9329 C   0  0  0  0  0  0  0  0  0  0  0  0
  -22.0137  -25.6782   20.2767 C   0  0  0  0  0  0  0  0  0  0  0  0
  -27.8156  -25.3110   20.3329 C   0  0  0  0  0  0  0  0  0  1  0  0
  -22.3766  -29.2223   23.7614 C   0  0  1  0  0  0  0  0  0  0  0  0
  -20.2905  -26.9070   21.6032 C   0  0  2  0  0  0  0  0  0  0  0  0
  -21.7317  -29.5464   25.1385 C   0  0  0  0  0  0  0  0  0  0  0  0
  -25.6181  -12.9033   21.2918 N   0  0  0  0  0  0  0  0  0  0  0  0
  -26.1981  -12.6373   20.1090 N   0  0  0  0  0  0  0  0  0  0  0  0
  -29.8881  -22.1737   19.7892 N   0  0  0  0  0  0  0  0  0  0  0  0
  -24.0676  -30.2334   22.2640 N   0  0  0  0  0  0  0  0  0  0  0  0
  -29.5447  -14.4262   20.5373 N   0  0  0  0  0  0  0  0  0  0  0  0
  -25.7661  -11.7782   17.9443 N   0  0  0  0  0  0  0  0  0  0  0  0
  -22.6408  -10.1413   19.3400 N   0  0  0  0  0  0  0  0  0  0  0  0
  -29.1792  -16.5909   19.6754 N   0  0  0  0  0  0  0  0  0  0  0  0
  -26.7083  -32.7455   22.3764 N   0  0  0  0  0  0  0  0  0  0  0  0
  -21.4568  -28.6322   22.7949 N   0  0  0  0  0  0  0  0  0  0  0  0
  -20.6782  -25.6373   20.9262 N   0  3  0  0  0  0  0  0  0  0  0  0
  -32.1659  -24.4707   18.4033 O   0  0  0  0  0  0  0  0  0  0  0  0
  -22.1214  -12.2464   18.5934 O   0  0  0  0  0  0  0  0  0  0  0  0
  -26.1379  -30.8642   23.6247 O   0  0  0  0  0  0  0  0  0  0  0  0
  -22.4469  -31.5486   23.3033 O   0  0  0  0  0  0  0  0  0  0  0  0
  -21.9056  -26.4218   23.3333 O   0  0  0  0  0  0  0  0  0  0  0  0
  -31.3286  -15.7435   19.8842 O   0  0  0  0  0  0  0  0  0  0  0  0
  -20.6177  -13.0196   25.2331 O   0  0  0  0  0  0  0  0  0  0  0  0
  -27.5690  -26.1685   19.2193 O   0  0  0  0  0  0  0  0  0  1  0  0
  -19.0915   -8.4271   27.8759 F   0  0  0  0  0  0  0  0  0  0  0  0
  -21.0298  -12.7449   27.9529 F   0  0  0  0  0  0  0  0  0  0  0  0
  1  2  1  0  0  0  0
  1  5  2  0  0  0  0
  2  6  2  0  0  0  0
  3 12  2  0  0  0  0
  3 19  1  0  0  0  0
  4 13  1  0  0  0  0
  4 19  2  0  0  0  0
  5 21  1  0  0  0  0
  6 23  1  0  0  0  0
  7 14  2  0  0  0  0
  7 22  1  0  0  0  0
  8 10  2  0  0  0  0
  8 25  1  0  0  0  0
  9 11  1  0  0  0  0
  9 25  2  0  0  0  0
 10 26  1  0  0  0  0
 11 26  2  0  0  0  0
 12 27  1  0  0  0  0
 13 27  2  0  0  0  0
 14 28  1  0  0  0  0
 15 16  2  0  0  0  0
 15 29  1  0  0  0  0
 16 30  1  0  0  0  0
 17 24  1  0  0  0  0
 17 28  2  0  0  0  0
 18 30  2  0  0  0  0
 18 31  1  0  0  0  0
 19 32  1  0  0  0  0
 20 32  1  0  0  0  0
 20 33  2  0  0  0  0
 20 37  1  0  0  0  0
 21 23  2  0  0  0  0
 21 42  1  0  0  0  0
 22 24  2  0  0  0  0
 22 43  1  0  0  0  0
 23 53  1  0  0  0  0
 24 44  1  0  0  0  0
 25 67  1  0  0  0  0
 26 72  1  0  0  0  0
 27 82  1  0  0  0  0
 28 83  1  0  0  0  0
 29 31  2  0  0  0  0
 29 82  1  0  0  0  0
 30 84  1  0  0  0  0
 31 85  1  0  0  0  0
 32 65  2  0  0  0  0
 33 66  1  0  0  0  0
 33 70  1  0  0  0  0
 34 35  2  0  0  0  0
 34 67  1  0  0  0  0
 35 45  1  0  0  0  0
 35 61  1  0  0  0  0
 36 45  1  0  0  0  0
 36 46  1  0  0  0  0
 36 76  2  0  0  0  0
 37 71  1  0  0  0  0
 37 77  2  0  0  0  0
 38 54  1  0  0  0  0
 38 73  1  0  0  0  0
 38 78  2  0  0  0  0
 39 62  1  0  0  0  0
 39 68  1  0  0  0  0
 39 79  2  0  0  0  0
 40 63  1  0  0  0  0
 40 74  1  0  0  0  0
 40 80  2  0  0  0  0
 41 69  1  0  0  0  0
 41 72  1  0  0  0  0
 41 81  2  0  0  0  0
 42 47  1  0  0  0  0
 43 54  1  0  0  0  0
 44 68  1  0  0  0  0
 46 67  1  0  0  0  0
 47 49  1  0  0  0  0
 48 50  1  0  0  0  0
 48 51  1  0  0  0  0
 49 53  1  0  0  0  0
 50 55  1  0  0  0  0
 51 69  1  0  0  0  0
 52 55  1  0  0  0  0
 52 69  1  0  0  0  0
 53 73  1  0  0  0  0
 54 68  1  0  0  0  0
 55 66  1  0  0  0  0
 56 63  1  0  0  0  0
 57 64  1  0  0  0  0
 58 64  1  0  0  0  0
 59 64  1  0  0  0  0
 60 75  1  0  0  0  0
 61 83  1  0  0  0  0
 62 64  1  0  0  0  0
 62 74  1  0  0  0  0
 63 75  1  0  0  0  0
 65 66  1  0  0  0  0
M  CHG  1  75   1
M  ISO  4  41 100  61 101  72 100  83 101
M  END
> <Batch ID>
0084

> <Smiles>
CNC(C)C(=O)NC(C(=O)N1Cc2cc([101O:1][101CH2:1]C3=CN(c4ccc([100NH:0][100C:0](=O)N5CCCC(n6nc(-c7ccc(Oc8ccc(F)cc8F)cc7)c(C(N)=O)c6N)C5)cc4)CC(=O)C3)ccc2CC1C(=O)NC1CCCc2ccccc21)C(C)(C)C

> <Shape>
0.291

> <Color>
0.079

> <Negative vol penalty>
0.000

$$$$

  -OEChem-04052300123D

 85 94  0     1  0  0  0  0  0999 V2000
  -28.9639  -36.9426   19.5723 C   0  0  0  0  0  0  0  0  0  0  0  0
  -29.2454  -35.5809   19.5283 C   0  0  0  0  0  0  0  0  0  0  0  0
  -23.7423   -8.7798   19.7191 C   0  0  0  0  0  0  0  0  0  0  0  0
  -23.3146  -10.2918   21.5543 C   0  0  0  0  0  0  0  0  0  0  0  0
  -28.0157  -37.4286   20.4715 C   0  0  0  0  0  0  0  0  0  0  0  0
  -28.5796  -34.7045   20.3844 C   0  0  0  0  0  0  0  0  0  0  0  0
  -26.8870  -28.9458   19.1687 C   0  0  0  0  0  0  0  0  0  0  0  0
  -30.3953  -19.5896   20.7444 C   0  0  0  0  0  0  0  0  0  0  0  0
  -30.3182  -18.2230   20.4760 C   0  0  0  0  0  0  0  0  0  0  0  0
  -22.9823   -7.7964   20.3522 C   0  0  0  0  0  0  0  0  0  0  0  0
  -22.5544   -9.3084   22.1873 C   0  0  0  0  0  0  0  0  0  0  0  0
  -27.4637  -27.7140   19.4752 C   0  0  0  0  0  0  0  0  0  0  0  0
  -19.4395   -8.0224   21.9340 C   0  0  0  0  0  0  0  0  0  0  0  0
  -18.2158   -8.4048   22.4833 C   0  0  0  0  0  0  0  0  0  0  0  0
  -26.0344  -27.5330   21.4100 C   0  0  0  0  0  0  0  0  0  0  0  0
  -29.9283  -23.7396   21.6188 C   0  0  0  0  0  0  0  0  0  0  0  0
  -28.1865  -19.8968   19.8150 C   0  0  0  0  0  0  0  0  0  0  0  0
  -18.9762   -7.7024   24.6664 C   0  0  0  0  0  0  0  0  0  0  0  0
  -28.7817  -22.7660   19.9433 C   0  0  0  0  0  0  0  0  0  0  0  0
  -23.9086  -10.0275   20.3202 C   0  0  0  0  0  0  0  0  0  0  0  0
  -24.2382  -12.0175   18.7585 C   0  0  0  0  0  0  0  0  0  0  0  0
  -27.3309  -36.5564   21.3323 C   0  0  0  0  0  0  0  0  0  0  0  0
  -25.8856  -29.4864   19.9880 C   0  0  0  0  0  0  0  0  0  0  0  0
  -27.6223  -35.1794   21.2969 C   0  0  0  0  0  0  0  0  0  0  0  0
  -25.4448  -28.7706   21.1103 C   0  0  0  0  0  0  0  0  0  0  0  0
  -29.0890  -23.9859   20.5043 C   0  0  0  0  0  0  0  0  0  0  0  0
  -29.3294  -20.4265   20.4140 C   0  0  0  0  0  0  0  0  0  0  0  0
  -29.1753  -17.6933   19.8770 C   0  0  0  0  0  0  0  0  0  0  0  0
  -22.3883   -8.0607   21.5862 C   0  0  0  0  0  0  0  0  0  0  0  0
  -27.0395  -27.0088   20.5976 C   0  0  0  0  0  0  0  0  0  0  0  0
  -20.4316   -7.4799   22.7509 C   0  0  0  0  0  0  0  0  0  0  0  0
  -17.9841   -8.2449   23.8495 C   0  0  0  0  0  0  0  0  0  0  0  0
  -28.1094  -18.5302   19.5465 C   0  0  0  0  0  0  0  0  0  0  0  0
  -20.1999   -7.3199   24.1170 C   0  0  0  0  0  0  0  0  0  0  0  0
  -24.6941  -11.0436   19.6670 C   0  0  0  0  0  0  0  0  0  0  0  0
  -25.3628  -12.7347   18.4309 C   0  0  0  0  0  0  0  0  0  0  0  0
  -30.1085  -22.3767   21.7048 C   0  0  0  0  0  0  0  0  0  0  0  0
  -22.9162  -12.2530   18.2558 C   0  0  0  0  0  0  0  0  0  0  0  0
  -25.6076  -32.1157   21.7525 C   0  0  0  0  0  0  0  0  0  0  0  0
  -22.5629  -31.0654   22.1384 C   0  0  0  0  0  0  0  0  0  0  0  0
  -20.3795  -28.4425   22.1266 C   0  0  0  0  0  0  0  0  0  0  0  0
  -30.0699  -15.3384   19.8685 C   0  0  0  0  0  0  0  0  0  0  0  0
  -26.3485  -37.1343   22.3201 C   0  0  0  0  0  0  0  0  0  0  0  0
  -25.2548  -30.8037   19.6287 C   0  0  0  0  0  0  0  0  0  0  0  0
  -24.3587  -29.2979   22.0108 C   0  0  0  0  0  0  0  0  0  0  0  0
  -25.4165  -36.0921   22.9329 C   0  0  0  0  0  0  0  0  0  0  0  0
  -30.2487  -11.8158   19.3824 C   0  0  0  0  0  0  0  0  0  0  0  0
  -26.2069  -34.8670   23.3814 C   0  0  0  0  0  0  0  0  0  0  0  0
  -28.7820  -11.3809   19.3384 C   0  0  0  0  0  0  0  0  0  0  0  0
  -30.4762  -12.9426   20.3884 C   0  0  0  0  0  0  0  0  0  0  0  0
  -28.1333  -13.6744   20.1786 C   0  0  0  0  0  0  0  0  0  0  0  0
  -26.9031  -34.1939   22.1923 C   0  0  1  0  0  0  0  0  0  0  0  0
  -24.6034  -31.4990   20.8202 C   0  0  1  0  0  0  0  0  0  0  0  0
  -27.8430  -12.5857   19.1326 C   0  0  2  0  0  0  0  0  0  0  0  0
  -17.9630  -27.8892   22.5165 C   0  0  0  0  0  0  0  0  0  0  0  0
  -22.9997  -31.2904   25.1498 C   0  0  0  0  0  0  0  0  0  0  0  0
  -20.9702  -29.8622   25.4806 C   0  0  0  0  0  0  0  0  0  0  0  0
  -20.7628  -32.0803   24.3583 C   0  0  0  0  0  0  0  0  0  0  0  0
  -20.0361  -27.4644   19.3546 C   0  0  0  0  0  0  0  0  0  0  0  0
  -28.6201  -25.3274   20.0228 C   0  0  0  0  0  0  0  0  0  1  0  0
  -21.8595  -30.1650   23.1251 C   0  0  1  0  0  0  0  0  0  0  0  0
  -19.0140  -28.2715   21.4859 C   0  0  2  0  0  0  0  0  0  0  0  0
  -21.6699  -30.8402   24.5128 C   0  0  0  0  0  0  0  0  0  0  0  0
  -26.0061  -11.1311   19.9014 N   0  0  0  0  0  0  0  0  0  0  0  0
  -29.4072  -21.7951   20.6810 N   0  0  0  0  0  0  0  0  0  0  0  0
  -26.3843  -12.1685   19.1353 N   0  0  0  0  0  0  0  0  0  0  0  0
  -23.7774  -30.5931   21.6210 N   0  0  0  0  0  0  0  0  0  0  0  0
  -29.5547  -14.0510   20.1293 N   0  0  0  0  0  0  0  0  0  0  0  0
  -25.5678  -13.7879   17.6117 N   0  0  0  0  0  0  0  0  0  0  0  0
  -21.8763  -11.4230   18.6962 N   0  0  0  0  0  0  0  0  0  0  0  0
  -29.1001  -16.3049   19.6043 N   0  0  0  0  0  0  0  0  0  0  0  0
  -25.9547  -33.4130   21.4273 N   0  0  0  0  0  0  0  0  0  0  0  0
  -20.6145  -29.7528   22.4860 N   0  0  0  0  0  0  0  0  0  0  0  0
  -19.0602  -27.2064   20.4445 N   0  3  0  0  0  0  0  0  0  0  0  0
  -22.6677  -13.1617   17.4276 O   0  0  0  0  0  0  0  0  0  0  0  0
  -26.0347  -31.4632   22.6978 O   0  0  0  0  0  0  0  0  0  0  0  0
  -22.0499  -32.1447   21.8324 O   0  0  0  0  0  0  0  0  0  0  0  0
  -21.1581  -27.5067   22.2951 O   0  0  0  0  0  0  0  0  0  0  0  0
  -31.2833  -15.5607   19.8520 O   0  0  0  0  0  0  0  0  0  0  0  0
  -30.8077  -21.6525   22.5703 O   0  0  0  0  0  0  0  0  0  0  0  0
  -21.6463   -7.1014   22.2042 O   0  0  0  0  0  0  0  0  0  0  0  0
  -27.6012  -25.8066   20.8994 O   0  0  0  0  0  0  0  0  0  1  0  0
  -16.8094   -8.6136   24.3771 F   0  0  0  0  0  0  0  0  0  0  0  0
  -27.0067  -18.0322   18.9690 F   0  0  0  0  0  0  0  0  0  0  0  0
  -21.1496   -6.8004   24.9070 F   0  0  0  0  0  0  0  0  0  0  0  0
  1  2  1  0  0  0  0
  1  5  2  0  0  0  0
  2  6  2  0  0  0  0
  3 10  2  0  0  0  0
  3 20  1  0  0  0  0
  4 11  1  0  0  0  0
  4 20  2  0  0  0  0
  5 22  1  0  0  0  0
  6 24  1  0  0  0  0
  7 12  2  0  0  0  0
  7 23  1  0  0  0  0
  8  9  2  0  0  0  0
  8 27  1  0  0  0  0
  9 28  1  0  0  0  0
 10 29  1  0  0  0  0
 11 29  2  0  0  0  0
 12 30  1  0  0  0  0
 13 14  2  0  0  0  0
 13 31  1  0  0  0  0
 14 32  1  0  0  0  0
 15 25  1  0  0  0  0
 15 30  2  0  0  0  0
 16 26  1  0  0  0  0
 16 37  2  0  0  0  0
 17 27  2  0  0  0  0
 17 33  1  0  0  0  0
 18 32  2  0  0  0  0
 18 34  1  0  0  0  0
 19 26  2  0  0  0  0
 19 65  1  0  0  0  0
 20 35  1  0  0  0  0
 21 35  1  0  0  0  0
 21 36  2  0  0  0  0
 21 38  1  0  0  0  0
 22 24  2  0  0  0  0
 22 43  1  0  0  0  0
 23 25  2  0  0  0  0
 23 44  1  0  0  0  0
 24 52  1  0  0  0  0
 25 45  1  0  0  0  0
 26 60  1  0  0  0  0
 27 65  1  0  0  0  0
 28 33  2  0  0  0  0
 28 71  1  0  0  0  0
 29 81  1  0  0  0  0
 30 82  1  0  0  0  0
 31 34  2  0  0  0  0
 31 81  1  0  0  0  0
 32 83  1  0  0  0  0
 33 84  1  0  0  0  0
 34 85  1  0  0  0  0
 35 64  2  0  0  0  0
 36 66  1  0  0  0  0
 36 69  1  0  0  0  0
 37 65  1  0  0  0  0
 37 80  1  0  0  0  0
 38 70  1  0  0  0  0
 38 75  2  0  0  0  0
 39 53  1  0  0  0  0
 39 72  1  0  0  0  0
 39 76  2  0  0  0  0
 40 61  1  0  0  0  0
 40 67  1  0  0  0  0
 40 77  2  0  0  0  0
 41 62  1  0  0  0  0
 41 73  1  0  0  0  0
 41 78  2  0  0  0  0
 42 68  1  0  0  0  0
 42 71  1  0  0  0  0
 42 79  2  0  0  0  0
 43 46  1  0  0  0  0
 44 53  1  0  0  0  0
 45 67  1  0  0  0  0
 46 48  1  0  0  0  0
 47 49  1  0  0  0  0
 47 50  1  0  0  0  0
 48 52  1  0  0  0  0
 49 54  1  0  0  0  0
 50 68  1  0  0  0  0
 51 54  1  0  0  0  0
 51 68  1  0  0  0  0
 52 72  1  0  0  0  0
 53 67  1  0  0  0  0
 54 66  1  0  0  0  0
 55 62  1  0  0  0  0
 56 63  1  0  0  0  0
 57 63  1  0  0  0  0
 58 63  1  0  0  0  0
 59 74  1  0  0  0  0
 60 82  1  0  0  0  0
 61 63  1  0  0  0  0
 61 73  1  0  0  0  0
 62 74  1  0  0  0  0
 64 66  1  0  0  0  0
M  CHG  1  74   1
M  ISO  4  42 100  60 101  71 100  82 101
M  END
> <Batch ID>
0084

> <Smiles>
CNC(C)C(=O)NC(C(=O)N1Cc2cc([101O:1][101CH2:1]C3=CN(c4ccc([100NH:0][100C:0](=O)N5CCCC(n6nc(-c7ccc(Oc8ccc(F)cc8F)cc7)c(C(N)=O)c6N)C5)c(F)c4)C(=O)C3)ccc2CC1C(=O)NC1CCCc2ccccc21)C(C)(C)C

> <Shape>
0.308

> <Color>
0.109

> <Negative vol penalty>
0.000

$$$$

  -OEChem-04052300123D

 85 94  0     1  0  0  0  0  0999 V2000
  -31.4900  -34.3089   22.5723 C   0  0  0  0  0  0  0  0  0  0  0  0
  -31.3805  -33.0551   21.9795 C   0  0  0  0  0  0  0  0  0  0  0  0
  -23.0344   -9.9482   19.9757 C   0  0  0  0  0  0  0  0  0  0  0  0
  -23.8584   -9.9379   22.2468 C   0  0  0  0  0  0  0  0  0  0  0  0
  -29.3076  -17.0043   19.7729 C   0  0  0  0  0  0  0  0  0  0  0  0
  -28.9317  -17.6564   22.0686 C   0  0  0  0  0  0  0  0  0  0  0  0
  -30.6301  -34.6655   23.6102 C   0  0  0  0  0  0  0  0  0  0  0  0
  -30.4118  -32.1566   22.4253 C   0  0  0  0  0  0  0  0  0  0  0  0
  -27.3021  -28.1141   19.0350 C   0  0  0  0  0  0  0  0  0  0  0  0
  -28.6001  -18.1251   19.3386 C   0  0  0  0  0  0  0  0  0  0  0  0
  -28.2242  -18.7774   21.6343 C   0  0  0  0  0  0  0  0  0  0  0  0
  -22.2857   -8.8018   20.2421 C   0  0  0  0  0  0  0  0  0  0  0  0
  -23.1097   -8.7916   22.5133 C   0  0  0  0  0  0  0  0  0  0  0  0
  -27.4753  -26.7492   18.8093 C   0  0  0  0  0  0  0  0  0  0  0  0
  -19.8915   -8.0251   23.2033 C   0  0  0  0  0  0  0  0  0  0  0  0
  -19.1673   -7.9883   24.3949 C   0  0  0  0  0  0  0  0  0  0  0  0
  -25.8635  -26.2651   20.5376 C   0  0  0  0  0  0  0  0  0  0  0  0
  -26.0845  -21.4961   18.6206 C   0  0  0  0  0  0  0  0  0  0  0  0
  -20.4084   -6.0350   25.0888 C   0  0  0  0  0  0  0  0  0  0  0  0
  -27.2854  -21.3216   20.5173 C   0  0  0  0  0  0  0  0  0  0  0  0
  -23.8208  -10.5162   20.9781 C   0  0  0  0  0  0  0  0  0  0  0  0
  -29.4734  -16.7699   21.1379 C   0  0  0  0  0  0  0  0  0  0  0  0
  -24.1858  -13.0381   20.8580 C   0  0  0  0  0  0  0  0  0  0  0  0
  -29.6440  -33.7746   24.0624 C   0  0  0  0  0  0  0  0  0  0  0  0
  -26.4150  -28.5653   20.0229 C   0  0  0  0  0  0  0  0  0  0  0  0
  -29.5388  -32.5011   23.4712 C   0  0  0  0  0  0  0  0  0  0  0  0
  -25.6791  -27.6363   20.7722 C   0  0  0  0  0  0  0  0  0  0  0  0
  -26.5030  -22.1868   19.7847 C   0  0  0  0  0  0  0  0  0  0  0  0
  -28.0584  -19.0117   20.2693 C   0  0  0  0  0  0  0  0  0  0  0  0
  -22.3233   -8.2235   21.5109 C   0  0  0  0  0  0  0  0  0  0  0  0
  -26.7581  -25.8244   19.5626 C   0  0  0  0  0  0  0  0  0  0  0  0
  -20.8740   -7.0668   22.9545 C   0  0  0  0  0  0  0  0  0  0  0  0
  -19.4258   -6.9933   25.3377 C   0  0  0  0  0  0  0  0  0  0  0  0
  -21.1325   -6.0718   23.8972 C   0  0  0  0  0  0  0  0  0  0  0  0
  -24.5949  -11.7000   20.7033 C   0  0  0  0  0  0  0  0  0  0  0  0
  -25.2751  -13.7776   20.4670 C   0  0  0  0  0  0  0  0  0  0  0  0
  -26.6237  -20.2299   18.6775 C   0  0  0  0  0  0  0  0  0  0  0  0
  -30.2112  -15.6015   21.5911 C   0  0  0  0  0  0  0  0  0  0  0  0
  -22.9331  -13.5654   21.3144 C   0  0  0  0  0  0  0  0  0  0  0  0
  -30.7996  -14.6406   20.6300 C   0  0  0  0  0  0  0  0  0  0  0  0
  -26.7090  -30.2539   22.6998 C   0  0  0  0  0  0  0  0  0  0  0  0
  -23.4690  -30.0959   22.6942 C   0  0  0  0  0  0  0  0  0  0  0  0
  -20.6496  -28.4650   21.6753 C   0  0  0  0  0  0  0  0  0  0  0  0
  -28.7684  -34.1870   25.2191 C   0  0  0  0  0  0  0  0  0  0  0  0
  -26.2197  -30.0414   20.2357 C   0  0  0  0  0  0  0  0  0  0  0  0
  -24.6991  -28.0694   21.8307 C   0  0  0  0  0  0  0  0  0  0  0  0
  -27.5238  -33.3181   25.3809 C   0  0  0  0  0  0  0  0  0  0  0  0
  -29.5354  -12.4024   18.1302 C   0  0  0  0  0  0  0  0  0  0  0  0
  -27.8882  -31.8401   25.2835 C   0  0  0  0  0  0  0  0  0  0  0  0
  -28.1168  -12.1001   18.6119 C   0  0  0  0  0  0  0  0  0  0  0  0
  -30.4948  -12.5887   19.3013 C   0  0  0  0  0  0  0  0  0  0  0  0
  -28.6366  -13.3349   20.7638 C   0  0  0  0  0  0  0  0  0  0  0  0
  -28.4844  -31.5082   23.9102 C   0  0  1  0  0  0  0  0  0  0  0  0
  -25.6723  -30.3783   21.6193 C   0  0  1  0  0  0  0  0  0  0  0  0
  -27.6331  -13.1677   19.6094 C   0  0  2  0  0  0  0  0  0  0  0  0
  -18.1485  -28.5514   21.8599 C   0  0  0  0  0  0  0  0  0  0  0  0
  -23.6428  -28.9907   25.5329 C   0  0  0  0  0  0  0  0  0  0  0  0
  -21.2710  -28.2221   25.3042 C   0  0  0  0  0  0  0  0  0  0  0  0
  -21.8105  -30.6539   25.1713 C   0  0  0  0  0  0  0  0  0  0  0  0
  -20.3292  -28.7928   18.7515 C   0  0  0  0  0  0  0  0  0  0  0  0
  -26.1588  -23.6000   20.1529 C   0  0  0  0  0  0  0  0  0  1  0  0
  -22.4444  -29.1370   23.2506 C   0  0  1  0  0  0  0  0  0  0  0  0
  -19.3636  -28.9722   21.0481 C   0  0  2  0  0  0  0  0  0  0  0  0
  -22.3120  -29.2424   24.7962 C   0  0  0  0  0  0  0  0  0  0  0  0
  -25.8464  -11.5926   20.2492 N   0  0  0  0  0  0  0  0  0  0  0  0
  -30.4065  -15.3216   22.8515 N   0  0  0  0  0  0  0  0  0  0  0  0
  -27.3515  -20.1350   19.8348 N   0  0  0  0  0  0  0  0  0  0  0  0
  -26.2331  -12.8727   20.1152 N   0  0  0  0  0  0  0  0  0  0  0  0
  -29.9884  -13.5818   20.2465 N   0  0  0  0  0  0  0  0  0  0  0  0
  -24.5480  -29.5234   22.0058 N   0  0  0  0  0  0  0  0  0  0  0  0
  -25.4975  -15.1070   20.3931 N   0  0  0  0  0  0  0  0  0  0  0  0
  -21.9215  -12.6655   21.6765 N   0  0  0  0  0  0  0  0  0  0  0  0
  -27.4378  -31.4078   22.9157 N   0  0  0  0  0  0  0  0  0  0  0  0
  -21.2055  -29.3974   22.5256 N   0  0  0  0  0  0  0  0  0  0  0  0
  -19.2144  -28.4350   19.6660 N   0  3  0  0  0  0  0  0  0  0  0  0
  -22.7115  -14.7982   21.3830 O   0  0  0  0  0  0  0  0  0  0  0  0
  -31.9455  -14.8843   20.2752 O   0  0  0  0  0  0  0  0  0  0  0  0
  -26.8371  -29.1901   23.2946 O   0  0  0  0  0  0  0  0  0  0  0  0
  -23.3139  -31.3087   22.8579 O   0  0  0  0  0  0  0  0  0  0  0  0
  -21.1126  -27.3515   21.4379 O   0  0  0  0  0  0  0  0  0  0  0  0
  -26.5239  -19.2117   17.8314 O   0  0  0  0  0  0  0  0  0  0  0  0
  -21.5927   -7.1051   21.7713 O   0  0  0  0  0  0  0  0  0  0  0  0
  -26.9256  -24.4916   19.3448 O   0  0  0  0  0  0  0  0  0  1  0  0
  -18.7313   -6.9590   26.4825 F   0  0  0  0  0  0  0  0  0  0  0  0
  -22.0761   -5.1492   23.6643 F   0  0  0  0  0  0  0  0  0  0  0  0
  1  2  1  0  0  0  0
  1  7  2  0  0  0  0
  2  8  2  0  0  0  0
  3 12  2  0  0  0  0
  3 21  1  0  0  0  0
  4 13  1  0  0  0  0
  4 21  2  0  0  0  0
  5 10  2  0  0  0  0
  5 22  1  0  0  0  0
  6 11  1  0  0  0  0
  6 22  2  0  0  0  0
  7 24  1  0  0  0  0
  8 26  1  0  0  0  0
  9 14  2  0  0  0  0
  9 25  1  0  0  0  0
 10 29  1  0  0  0  0
 11 29  2  0  0  0  0
 12 30  1  0  0  0  0
 13 30  2  0  0  0  0
 14 31  1  0  0  0  0
 15 16  2  0  0  0  0
 15 32  1  0  0  0  0
 16 33  1  0  0  0  0
 17 27  1  0  0  0  0
 17 31  2  0  0  0  0
 18 28  1  0  0  0  0
 18 37  2  0  0  0  0
 19 33  2  0  0  0  0
 19 34  1  0  0  0  0
 20 28  2  0  0  0  0
 20 67  1  0  0  0  0
 21 35  1  0  0  0  0
 22 38  1  0  0  0  0
 23 35  1  0  0  0  0
 23 36  2  0  0  0  0
 23 39  1  0  0  0  0
 24 26  2  0  0  0  0
 24 44  1  0  0  0  0
 25 27  2  0  0  0  0
 25 45  1  0  0  0  0
 26 53  1  0  0  0  0
 27 46  1  0  0  0  0
 28 61  1  0  0  0  0
 29 67  1  0  0  0  0
 30 82  1  0  0  0  0
 31 83  1  0  0  0  0
 32 34  2  0  0  0  0
 32 82  1  0  0  0  0
 33 84  1  0  0  0  0
 34 85  1  0  0  0  0
 35 65  2  0  0  0  0
 36 68  1  0  0  0  0
 36 71  1  0  0  0  0
 37 67  1  0  0  0  0
 37 81  1  0  0  0  0
 38 40  1  0  0  0  0
 38 66  2  0  0  0  0
 39 72  1  0  0  0  0
 39 76  2  0  0  0  0
 40 69  1  0  0  0  0
 40 77  2  0  0  0  0
 41 54  1  0  0  0  0
 41 73  1  0  0  0  0
 41 78  2  0  0  0  0
 42 62  1  0  0  0  0
 42 70  1  0  0  0  0
 42 79  2  0  0  0  0
 43 63  1  0  0  0  0
 43 74  1  0  0  0  0
 43 80  2  0  0  0  0
 44 47  1  0  0  0  0
 45 54  1  0  0  0  0
 46 70  1  0  0  0  0
 47 49  1  0  0  0  0
 48 50  1  0  0  0  0
 48 51  1  0  0  0  0
 49 53  1  0  0  0  0
 50 55  1  0  0  0  0
 51 69  1  0  0  0  0
 52 55  1  0  0  0  0
 52 69  1  0  0  0  0
 53 73  1  0  0  0  0
 54 70  1  0  0  0  0
 55 68  1  0  0  0  0
 56 63  1  0  0  0  0
 57 64  1  0  0  0  0
 58 64  1  0  0  0  0
 59 64  1  0  0  0  0
 60 75  1  0  0  0  0
 61 83  1  0  0  0  0
 62 64  1  0  0  0  0
 62 74  1  0  0  0  0
 63 75  1  0  0  0  0
 65 68  1  0  0  0  0
M  CHG  1  75   1
M  ISO  4  38 100  40 100  61 101  83 101
M  END
> <Batch ID>
0084

> <Smiles>
CNC(C)C(=O)NC(C(=O)N1Cc2cc([101O:1][101CH2:1]C3=CN(c4ccc([100C:0](=N)[100C:0](=O)N5CCCC(n6nc(-c7ccc(Oc8ccc(F)cc8F)cc7)c(C(N)=O)c6N)C5)cc4)C(=O)C3)ccc2CC1C(=O)NC1CCCc2ccccc21)C(C)(C)C

> <Shape>
0.352

> <Color>
0.223

> <Negative vol penalty>
0.000

$$$$

  -OEChem-04052300123D

 86 95  0     1  0  0  0  0  0999 V2000
  -23.6681  -34.5181   15.2776 C   0  0  0  0  0  0  0  0  0  0  0  0
  -24.1763  -33.2337   15.4431 C   0  0  0  0  0  0  0  0  0  0  0  0
  -32.4746  -18.3153   22.4327 C   0  0  0  0  0  0  0  0  0  0  0  0
  -23.1356   -9.8245   20.7426 C   0  0  0  0  0  0  0  0  0  0  0  0
  -23.8226  -10.4362   22.9766 C   0  0  0  0  0  0  0  0  0  0  0  0
  -31.6403  -19.3255   22.9111 C   0  0  0  0  0  0  0  0  0  0  0  0
  -23.8155  -35.4612   16.2938 C   0  0  0  0  0  0  0  0  0  0  0  0
  -24.8332  -32.8919   16.6247 C   0  0  0  0  0  0  0  0  0  0  0  0
  -24.7637  -27.4507   19.4343 C   0  0  0  0  0  0  0  0  0  0  0  0
  -31.9292  -17.2157   21.7700 C   0  0  0  0  0  0  0  0  0  0  0  0
  -22.4024   -8.7568   21.2604 C   0  0  0  0  0  0  0  0  0  0  0  0
  -23.0894   -9.3685   23.4944 C   0  0  0  0  0  0  0  0  0  0  0  0
  -25.6625  -26.3849   19.4371 C   0  0  0  0  0  0  0  0  0  0  0  0
  -19.8568   -8.6768   24.1959 C   0  0  0  0  0  0  0  0  0  0  0  0
  -19.0640   -8.9204   25.3174 C   0  0  0  0  0  0  0  0  0  0  0  0
  -29.7151  -18.1366   22.0641 C   0  0  0  0  0  0  0  0  0  0  0  0
  -26.6397  -27.2222   21.4775 C   0  0  0  0  0  0  0  0  0  0  0  0
  -20.3118   -7.2656   26.5590 C   0  0  0  0  0  0  0  0  0  0  0  0
  -23.8458  -10.6642   21.6007 C   0  0  0  0  0  0  0  0  0  0  0  0
  -30.2605  -19.2362   22.7268 C   0  0  0  0  0  0  0  0  0  0  0  0
  -24.1516  -13.0816   20.8457 C   0  0  0  0  0  0  0  0  0  0  0  0
  -24.4661  -35.1280   17.4923 C   0  0  0  0  0  0  0  0  0  0  0  0
  -24.8033  -28.4179   20.4490 C   0  0  0  0  0  0  0  0  0  0  0  0
  -24.9907  -33.8319   17.6574 C   0  0  0  0  0  0  0  0  0  0  0  0
  -25.7386  -28.2979   21.4867 C   0  0  0  0  0  0  0  0  0  0  0  0
  -30.5495  -17.1264   21.5857 C   0  0  0  0  0  0  0  0  0  0  0  0
  -22.3793   -8.5288   22.6363 C   0  0  0  0  0  0  0  0  0  0  0  0
  -26.6026  -26.2721   20.4572 C   0  0  0  0  0  0  0  0  0  0  0  0
  -20.8770   -7.7274   24.2559 C   0  0  0  0  0  0  0  0  0  0  0  0
  -19.2915   -8.2148   26.4989 C   0  0  0  0  0  0  0  0  0  0  0  0
  -21.1046   -7.0219   25.4375 C   0  0  0  0  0  0  0  0  0  0  0  0
  -24.6038  -11.7669   21.0664 C   0  0  0  0  0  0  0  0  0  0  0  0
  -25.2427  -13.7383   20.3313 C   0  0  0  0  0  0  0  0  0  0  0  0
  -28.2835  -23.3337   21.6422 C   0  0  0  0  0  0  0  0  0  0  0  0
  -28.2467  -22.4336   22.8082 C   0  0  0  0  0  0  0  0  0  0  0  0
  -27.4675  -24.3836   21.5323 C   0  0  0  0  0  0  0  0  0  1  0  0
  -29.3782  -20.3034   23.2315 C   0  0  0  0  0  0  0  0  0  0  0  0
  -22.8606  -13.6578   21.0844 C   0  0  0  0  0  0  0  0  0  0  0  0
  -25.3372  -31.5499   20.5428 C   0  0  0  0  0  0  0  0  0  0  0  0
  -24.5298  -31.2000   23.6650 C   0  0  0  0  0  0  0  0  0  0  0  0
  -24.2767  -29.1472   26.3795 C   0  0  0  0  0  0  0  0  0  0  0  0
  -30.6836  -14.9206   20.3763 C   0  0  0  0  0  0  0  0  0  0  0  0
  -24.6429  -36.1951   18.5433 C   0  0  0  0  0  0  0  0  0  0  0  0
  -23.8094  -29.5468   20.4461 C   0  0  0  0  0  0  0  0  0  0  0  0
  -25.8093  -29.2985   22.6102 C   0  0  0  0  0  0  0  0  0  0  0  0
  -29.3136  -22.8693   20.6651 C   0  0  0  0  0  0  0  0  0  0  0  0
  -25.0224  -35.6424   19.9147 C   0  0  0  0  0  0  0  0  0  0  0  0
  -29.6825  -11.9555   18.6782 C   0  0  0  0  0  0  0  0  0  0  0  0
  -26.1379  -34.6103   19.7843 C   0  0  0  0  0  0  0  0  0  0  0  0
  -28.2347  -11.7503   19.1300 C   0  0  0  0  0  0  0  0  0  0  0  0
  -29.5917  -21.4263   21.0686 C   0  0  0  0  0  0  0  0  0  0  0  0
  -30.5555  -12.5056   19.8047 C   0  0  0  0  0  0  0  0  0  0  0  0
  -28.5948  -13.5151   20.9028 C   0  0  0  0  0  0  0  0  0  0  0  0
  -25.6877  -33.4158   18.9345 C   0  0  1  0  0  0  0  0  0  0  0  0
  -24.2761  -30.7559   21.2509 C   0  0  1  0  0  0  0  0  0  0  0  0
  -27.6625  -13.0234   19.7836 C   0  0  2  0  0  0  0  0  0  0  0  0
  -23.6205  -29.1561   28.8016 C   0  0  0  0  0  0  0  0  0  0  0  0
  -27.1597  -32.5773   24.3699 C   0  0  0  0  0  0  0  0  0  0  0  0
  -26.9022  -31.7187   26.7076 C   0  0  0  0  0  0  0  0  0  0  0  0
  -25.2060  -33.2843   25.7618 C   0  0  0  0  0  0  0  0  0  0  0  0
  -22.1164  -27.1769   25.9212 C   0  0  0  0  0  0  0  0  0  0  0  0
  -25.2842  -30.8958   24.9367 C   0  0  1  0  0  0  0  0  0  0  0  0
  -23.1509  -28.9259   27.3736 C   0  0  2  0  0  0  0  0  0  0  0  0
  -26.1382  -32.1010   25.4219 C   0  0  0  0  0  0  0  0  0  0  0  0
  -25.8826  -11.5966   20.7203 N   0  0  0  0  0  0  0  0  0  0  0  0
  -26.2432  -12.8129   20.2769 N   0  0  0  0  0  0  0  0  0  0  0  0
  -29.0873  -21.3299   22.4497 N   0  0  0  0  0  0  0  0  0  0  0  0
  -24.8203  -30.3879   22.5596 N   0  0  0  0  0  0  0  0  0  0  0  0
  -29.9530  -13.7135   20.3730 N   0  0  0  0  0  0  0  0  0  0  0  0
  -25.4344  -15.0112   19.9245 N   0  0  0  0  0  0  0  0  0  0  0  0
  -21.8529  -12.8420   21.6169 N   0  0  0  0  0  0  0  0  0  0  0  0
  -29.9963  -16.0090   20.9124 N   0  0  0  0  0  0  0  0  0  0  0  0
  -24.8411  -32.5345   19.7097 N   0  0  0  0  0  0  0  0  0  0  0  0
  -24.2898  -30.4408   25.9023 N   0  0  0  0  0  0  0  0  0  0  0  0
  -28.8869  -20.2167   24.4641 N   0  3  0  0  0  0  0  0  0  0  0  0
  -22.6330  -27.5325   27.2679 N   0  3  0  0  0  0  0  0  0  0  0  0
  -27.6593  -22.5505   23.8650 O   0  0  0  0  0  0  0  0  0  0  0  0
  -22.6033  -14.8562   20.8177 O   0  0  0  0  0  0  0  0  0  0  0  0
  -26.5185  -31.2897   20.7389 O   0  0  0  0  0  0  0  0  0  0  0  0
  -23.7077  -32.1196   23.6548 O   0  0  0  0  0  0  0  0  0  0  0  0
  -25.0677  -28.2621   26.0611 O   0  0  0  0  0  0  0  0  0  0  0  0
  -31.8241  -14.9901   19.9111 O   0  0  0  0  0  0  0  0  0  0  0  0
  -21.6638   -7.4873   23.1419 O   0  0  0  0  0  0  0  0  0  0  0  0
  -27.4815  -25.2332   20.4619 O   0  0  0  0  0  0  0  0  0  1  0  0
  -18.5312   -8.4500   27.5763 F   0  0  0  0  0  0  0  0  0  0  0  0
  -22.0840   -6.1095   25.5015 F   0  0  0  0  0  0  0  0  0  0  0  0
  1  2  1  0  0  0  0
  1  7  2  0  0  0  0
  2  8  2  0  0  0  0
  3  6  2  0  0  0  0
  3 10  1  0  0  0  0
  4 11  2  0  0  0  0
  4 19  1  0  0  0  0
  5 12  1  0  0  0  0
  5 19  2  0  0  0  0
  6 20  1  0  0  0  0
  7 22  1  0  0  0  0
  8 24  1  0  0  0  0
  9 13  2  0  0  0  0
  9 23  1  0  0  0  0
 10 26  2  0  0  0  0
 11 27  1  0  0  0  0
 12 27  2  0  0  0  0
 13 28  1  0  0  0  0
 14 15  2  0  0  0  0
 14 29  1  0  0  0  0
 15 30  1  0  0  0  0
 16 20  2  0  0  0  0
 16 26  1  0  0  0  0
 17 25  1  0  0  0  0
 17 28  2  0  0  0  0
 18 30  2  0  0  0  0
 18 31  1  0  0  0  0
 19 32  1  0  0  0  0
 20 37  1  0  0  0  0
 21 32  1  0  0  0  0
 21 33  2  0  0  0  0
 21 38  1  0  0  0  0
 22 24  2  0  0  0  0
 22 43  1  0  0  0  0
 23 25  2  0  0  0  0
 23 44  1  0  0  0  0
 24 54  1  0  0  0  0
 25 45  1  0  0  0  0
 26 72  1  0  0  0  0
 27 83  1  0  0  0  0
 28 84  1  0  0  0  0
 29 31  2  0  0  0  0
 29 83  1  0  0  0  0
 30 85  1  0  0  0  0
 31 86  1  0  0  0  0
 32 65  2  0  0  0  0
 33 66  1  0  0  0  0
 33 70  1  0  0  0  0
 34 35  1  0  0  0  0
 34 36  2  0  0  0  0
 34 46  1  0  0  0  0
 35 67  1  0  0  0  0
 35 77  2  0  0  0  0
 36 84  1  0  0  0  0
 37 67  1  0  0  0  0
 37 75  2  0  0  0  0
 38 71  1  0  0  0  0
 38 78  2  0  0  0  0
 39 55  1  0  0  0  0
 39 73  1  0  0  0  0
 39 79  2  0  0  0  0
 40 62  1  0  0  0  0
 40 68  1  0  0  0  0
 40 80  2  0  0  0  0
 41 63  1  0  0  0  0
 41 74  1  0  0  0  0
 41 81  2  0  0  0  0
 42 69  1  0  0  0  0
 42 72  1  0  0  0  0
 42 82  2  0  0  0  0
 43 47  1  0  0  0  0
 44 55  1  0  0  0  0
 45 68  1  0  0  0  0
 46 51  1  0  0  0  0
 47 49  1  0  0  0  0
 48 50  1  0  0  0  0
 48 52  1  0  0  0  0
 49 54  1  0  0  0  0
 50 56  1  0  0  0  0
 51 67  1  0  0  0  0
 52 69  1  0  0  0  0
 53 56  1  0  0  0  0
 53 69  1  0  0  0  0
 54 73  1  0  0  0  0
 55 68  1  0  0  0  0
 56 66  1  0  0  0  0
 57 63  1  0  0  0  0
 58 64  1  0  0  0  0
 59 64  1  0  0  0  0
 60 64  1  0  0  0  0
 61 76  1  0  0  0  0
 62 64  1  0  0  0  0
 62 74  1  0  0  0  0
 63 76  1  0  0  0  0
 65 66  1  0  0  0  0
M  CHG  2  75   1  76   1
M  ISO  4  36 101  42 100  72 100  84 101
M  END
> <Batch ID>
0084

> <Smiles>
CNC(C)C(=O)NC(C(=O)N1Cc2cc([101O:1][101CH:1]=C3CCN(C(=N)c4cccc([100NH:0][100C:0](=O)N5CCCC(n6nc(-c7ccc(Oc8ccc(F)cc8F)cc7)c(C(N)=O)c6N)C5)c4)C3=O)ccc2CC1C(=O)NC1CCCc2ccccc21)C(C)(C)C

> <Shape>
0.294

> <Color>
0.203

> <Negative vol penalty>
0.000

$$$$

  -OEChem-04052300123D

 83 91  0     1  0  0  0  0  0999 V2000
  -22.3587  -34.3859   22.6820 C   0  0  0  0  0  0  0  0  0  0  0  0
  -23.3952  -33.4584   22.6539 C   0  0  0  0  0  0  0  0  0  0  0  0
  -24.3043  -13.4124   21.3462 C   0  0  0  0  0  0  0  0  0  0  0  0
  -26.6151  -12.9803   20.7891 C   0  0  0  0  0  0  0  0  0  0  0  0
  -30.0469  -23.2256   18.3853 C   0  0  0  0  0  0  0  0  0  0  0  0
  -28.5647  -24.0548   16.6670 C   0  0  0  0  0  0  0  0  0  0  0  0
  -21.0596  -33.9693   22.9692 C   0  0  0  0  0  0  0  0  0  0  0  0
  -23.1332  -32.1137   22.9140 C   0  0  0  0  0  0  0  0  0  0  0  0
  -25.4393  -29.0161   19.6381 C   0  0  0  0  0  0  0  0  0  0  0  0
  -29.6628  -21.9186   18.0860 C   0  0  0  0  0  0  0  0  0  0  0  0
  -28.1806  -22.7477   16.3676 C   0  0  0  0  0  0  0  0  0  0  0  0
  -24.1346  -12.0697   21.6838 C   0  0  0  0  0  0  0  0  0  0  0  0
  -26.4455  -11.6376   21.1267 C   0  0  0  0  0  0  0  0  0  0  0  0
  -26.7997  -28.7814   19.8334 C   0  0  0  0  0  0  0  0  0  0  0  0
  -23.6643   -9.1367   20.0711 C   0  0  0  0  0  0  0  0  0  0  0  0
  -22.5187   -8.4918   19.6050 C   0  0  0  0  0  0  0  0  0  0  0  0
  -26.2787  -26.6755   20.8884 C   0  0  0  0  0  0  0  0  0  0  0  0
  -21.8494   -8.0354   21.8812 C   0  0  0  0  0  0  0  0  0  0  0  0
  -25.5446  -13.8677   20.8988 C   0  0  0  0  0  0  0  0  0  0  0  0
  -29.4978  -24.2938   17.6758 C   0  0  0  0  0  0  0  0  0  0  0  0
  -26.1216  -16.3014   21.4008 C   0  0  0  0  0  0  0  0  0  0  0  0
  -20.7799  -32.6174   23.2235 C   0  0  0  0  0  0  0  0  0  0  0  0
  -24.4863  -28.0858   20.0770 C   0  0  0  0  0  0  0  0  0  0  0  0
  -21.8293  -31.6788   23.2062 C   0  0  0  0  0  0  0  0  0  0  0  0
  -24.9070  -26.8996   20.6952 C   0  0  0  0  0  0  0  0  0  0  0  0
  -28.7297  -21.6796   17.0771 C   0  0  0  0  0  0  0  0  0  0  0  0
  -25.2052  -11.1823   21.5740 C   0  0  0  0  0  0  0  0  0  0  0  0
  -27.2194  -27.6123   20.4612 C   0  0  0  0  0  0  0  0  0  0  0  0
  -23.9026   -9.2309   21.4423 C   0  0  0  0  0  0  0  0  0  0  0  0
  -21.6112   -7.9412   20.5100 C   0  0  0  0  0  0  0  0  0  0  0  0
  -22.9951   -8.6803   22.3473 C   0  0  0  0  0  0  0  0  0  0  0  0
  -25.7204  -15.2545   20.5494 C   0  0  0  0  0  0  0  0  0  0  0  0
  -26.1360  -17.4133   20.5946 C   0  0  0  0  0  0  0  0  0  0  0  0
  -29.9080  -25.6902   17.9957 C   0  0  0  0  0  0  0  0  0  0  0  0
  -26.4518  -16.2715   22.7957 C   0  0  0  0  0  0  0  0  0  0  0  0
  -22.0946  -28.1421   22.1699 C   0  0  0  0  0  0  0  0  0  0  0  0
  -30.4221  -25.9693   20.2281 C   0  0  0  0  0  0  0  0  0  0  0  0
  -21.5015  -25.1824   20.9821 C   0  0  0  0  0  0  0  0  0  0  0  0
  -22.6945  -22.4008   19.4053 C   0  0  0  0  0  0  0  0  0  0  0  0
  -27.4272  -19.9394   15.8035 C   0  0  0  0  0  0  0  0  0  0  0  0
  -19.3677  -32.2220   23.5757 C   0  0  0  0  0  0  0  0  0  0  0  0
  -23.0240  -28.3414   19.8348 C   0  0  0  0  0  0  0  0  0  0  0  0
  -23.9249  -25.8596   21.1666 C   0  0  0  0  0  0  0  0  0  0  0  0
  -19.1115  -30.7207   23.4711 C   0  0  0  0  0  0  0  0  0  0  0  0
  -24.3812  -18.0982   15.8963 C   0  0  0  0  0  0  0  0  0  0  0  0
  -20.2355  -29.9392   24.1438 C   0  0  0  0  0  0  0  0  0  0  0  0
  -24.4911  -17.2803   17.1852 C   0  0  0  0  0  0  0  0  0  0  0  0
  -25.7302  -18.2303   15.1918 C   0  0  0  0  0  0  0  0  0  0  0  0
  -26.9317  -17.9222   17.3203 C   0  0  0  0  0  0  0  0  0  0  0  0
  -21.5809  -30.2075   23.4586 C   0  0  1  0  0  0  0  0  0  0  0  0
  -22.1165  -27.5639   20.7832 C   0  0  1  0  0  0  0  0  0  0  0  0
  -25.6104  -17.8165   18.0991 C   0  0  2  0  0  0  0  0  0  0  0  0
  -31.4670  -26.1215   21.3060 C   0  0  0  0  0  0  0  0  0  0  0  0
  -21.9819  -20.1311   18.6065 C   0  0  0  0  0  0  0  0  0  0  0  0
  -21.5716  -24.1526   23.8534 C   0  0  0  0  0  0  0  0  0  0  0  0
  -21.8095  -21.8329   22.9419 C   0  0  0  0  0  0  0  0  0  0  0  0
  -19.7631  -23.1664   22.4353 C   0  0  0  0  0  0  0  0  0  0  0  0
  -23.3284  -23.0642   16.5915 C   0  0  0  0  0  0  0  0  0  0  0  0
  -28.9736  -26.0195   20.6653 C   0  0  0  0  0  0  0  0  0  1  0  0
  -21.9500  -23.7826   21.3264 C   0  0  1  0  0  0  0  0  0  0  0  0
  -22.1550  -21.5960   18.2366 C   0  0  2  0  0  0  0  0  0  0  0  0
  -21.2922  -23.2539   22.6322 C   0  0  0  0  0  0  0  0  0  0  0  0
  -25.4959  -15.6646   19.2983 N   0  0  0  0  0  0  0  0  0  0  0  0
  -30.8316  -25.8314   19.0036 N   0  0  0  0  0  0  0  0  0  0  0  0
  -25.7569  -16.9816   19.3576 N   0  0  0  0  0  0  0  0  0  0  0  0
  -22.5058  -26.1583   20.9127 N   0  0  0  0  0  0  0  0  0  0  0  0
  -26.7402  -18.7477   16.1176 N   0  0  0  0  0  0  0  0  0  0  0  0
  -26.4357  -18.7083   20.8302 N   0  0  0  0  0  0  0  0  0  0  0  0
  -26.3849  -15.0457   23.4720 N   0  0  0  0  0  0  0  0  0  0  0  0
  -28.3403  -20.3514   16.7737 N   0  0  0  0  0  0  0  0  0  0  0  0
  -21.6777  -29.4584   22.2241 N   0  0  0  0  0  0  0  0  0  0  0  0
  -21.6796  -22.9660   20.1481 N   0  0  0  0  0  0  0  0  0  0  0  0
  -23.0856  -21.6809   17.0757 N   0  3  0  0  0  0  0  0  0  0  0  0
  -29.4477  -26.6205   17.3412 O   0  0  0  0  0  0  0  0  0  0  0  0
  -26.7802  -17.3041   23.4276 O   0  0  0  0  0  0  0  0  0  0  0  0
  -22.4297  -27.4450   23.1204 O   0  0  0  0  0  0  0  0  0  0  0  0
  -20.3052  -25.4004   20.7751 O   0  0  0  0  0  0  0  0  0  0  0  0
  -23.8960  -22.5135   19.6382 O   0  0  0  0  0  0  0  0  0  0  0  0
  -27.2011  -20.5642   14.7640 O   0  0  0  0  0  0  0  0  0  0  0  0
  -25.0400   -9.8721   21.9035 O   0  0  0  0  0  0  0  0  0  0  0  0
  -28.5466  -27.3810   20.6537 O   0  0  0  0  0  0  0  0  0  1  0  0
  -20.5104   -7.3234   20.0623 F   0  0  0  0  0  0  0  0  0  0  0  0
  -23.2180   -8.7686   23.6658 F   0  0  0  0  0  0  0  0  0  0  0  0
  1  2  1  0  0  0  0
  1  7  2  0  0  0  0
  2  8  2  0  0  0  0
  3 12  2  0  0  0  0
  3 19  1  0  0  0  0
  4 13  1  0  0  0  0
  4 19  2  0  0  0  0
  5 10  2  0  0  0  0
  5 20  1  0  0  0  0
  6 11  1  0  0  0  0
  6 20  2  0  0  0  0
  7 22  1  0  0  0  0
  8 24  1  0  0  0  0
  9 14  2  0  0  0  0
  9 23  1  0  0  0  0
 10 26  1  0  0  0  0
 11 26  2  0  0  0  0
 12 27  1  0  0  0  0
 13 27  2  0  0  0  0
 14 28  1  0  0  0  0
 15 16  2  0  0  0  0
 15 29  1  0  0  0  0
 16 30  1  0  0  0  0
 17 25  1  0  0  0  0
 17 28  2  0  0  0  0
 18 30  2  0  0  0  0
 18 31  1  0  0  0  0
 19 32  1  0  0  0  0
 20 34  1  0  0  0  0
 21 32  1  0  0  0  0
 21 33  2  0  0  0  0
 21 35  1  0  0  0  0
 22 24  2  0  0  0  0
 22 41  1  0  0  0  0
 23 25  2  0  0  0  0
 23 42  1  0  0  0  0
 24 50  1  0  0  0  0
 25 43  1  0  0  0  0
 26 70  1  0  0  0  0
 27 80  1  0  0  0  0
 28 81  1  0  0  0  0
 29 31  2  0  0  0  0
 29 80  1  0  0  0  0
 30 82  1  0  0  0  0
 31 83  1  0  0  0  0
 32 63  2  0  0  0  0
 33 65  1  0  0  0  0
 33 68  1  0  0  0  0
 34 64  1  0  0  0  0
 34 74  2  0  0  0  0
 35 69  1  0  0  0  0
 35 75  2  0  0  0  0
 36 51  1  0  0  0  0
 36 71  1  0  0  0  0
 36 76  2  0  0  0  0
 37 53  1  0  0  0  0
 37 59  1  0  0  0  0
 37 64  2  0  0  0  0
 38 60  1  0  0  0  0
 38 66  1  0  0  0  0
 38 77  2  0  0  0  0
 39 61  1  0  0  0  0
 39 72  1  0  0  0  0
 39 78  2  0  0  0  0
 40 67  1  0  0  0  0
 40 70  1  0  0  0  0
 40 79  2  0  0  0  0
 41 44  1  0  0  0  0
 42 51  1  0  0  0  0
 43 66  1  0  0  0  0
 44 46  1  0  0  0  0
 45 47  1  0  0  0  0
 45 48  1  0  0  0  0
 46 50  1  0  0  0  0
 47 52  1  0  0  0  0
 48 67  1  0  0  0  0
 49 52  1  0  0  0  0
 49 67  1  0  0  0  0
 50 71  1  0  0  0  0
 51 66  1  0  0  0  0
 52 65  1  0  0  0  0
 54 61  1  0  0  0  0
 55 62  1  0  0  0  0
 56 62  1  0  0  0  0
 57 62  1  0  0  0  0
 58 73  1  0  0  0  0
 59 81  1  0  0  0  0
 60 62  1  0  0  0  0
 60 72  1  0  0  0  0
 61 73  1  0  0  0  0
 63 65  1  0  0  0  0
M  CHG  1  73   1
M  ISO  4  40 100  59 101  70 100  81 101
M  END
> <Batch ID>
0084

> <Smiles>
CNC(C)C(=O)NC(C(=O)N1Cc2cc([101O:1][101CH2:1]C(C)=NC(=O)c3ccc([100NH:0][100C:0](=O)N4CCCC(n5nc(-c6ccc(Oc7ccc(F)cc7F)cc6)c(C(N)=O)c5N)C4)cc3)ccc2CC1C(=O)NC1CCCc2ccccc21)C(C)(C)C

> <Shape>
0.205

> <Color>
0.081

> <Negative vol penalty>
0.000

$$$$

  -OEChem-04052300123D

 83 91  0     1  0  0  0  0  0999 V2000
  -29.9570  -23.0593   17.6726 C   0  0  0  0  0  0  0  0  0  0  0  0
  -28.6275  -23.3841   17.9221 C   0  0  0  0  0  0  0  0  0  0  0  0
  -28.2462  -14.7670   21.0549 C   0  0  0  0  0  0  0  0  0  0  0  0
  -26.0397  -15.5312   20.4350 C   0  0  0  0  0  0  0  0  0  0  0  0
  -30.9381  -23.3723   18.6124 C   0  0  0  0  0  0  0  0  0  0  0  0
  -28.2782  -24.0212   19.1123 C   0  0  0  0  0  0  0  0  0  0  0  0
  -25.0510  -27.8561   18.3886 C   0  0  0  0  0  0  0  0  0  0  0  0
  -21.9525  -22.9436   23.1194 C   0  0  0  0  0  0  0  0  0  0  0  0
  -27.8049  -13.4451   20.9964 C   0  0  0  0  0  0  0  0  0  0  0  0
  -25.5983  -14.2093   20.3764 C   0  0  0  0  0  0  0  0  0  0  0  0
  -23.7118  -27.5302   18.1783 C   0  0  0  0  0  0  0  0  0  0  0  0
  -21.2486  -23.1751   21.9376 C   0  0  0  0  0  0  0  0  0  0  0  0
  -27.3527   -9.8540   20.6585 C   0  0  0  0  0  0  0  0  0  0  0  0
  -28.1697   -8.9254   20.0135 C   0  0  0  0  0  0  0  0  0  0  0  0
  -23.2303  -28.0469   20.4849 C   0  0  0  0  0  0  0  0  0  0  0  0
  -23.9805  -23.7258   22.0649 C   0  0  0  0  0  0  0  0  0  0  0  0
  -28.0020  -10.1991   17.9674 C   0  0  0  0  0  0  0  0  0  0  0  0
  -27.3636  -15.8101   20.7742 C   0  0  0  0  0  0  0  0  0  0  0  0
  -28.3754  -17.9338   19.7875 C   0  0  0  0  0  0  0  0  0  0  0  0
  -30.6020  -24.0222   19.8105 C   0  0  0  0  0  0  0  0  0  0  0  0
  -25.4927  -28.2700   19.6534 C   0  0  0  0  0  0  0  0  0  0  0  0
  -29.2555  -24.3420   20.0697 C   0  0  0  0  0  0  0  0  0  0  0  0
  -24.5751  -28.3799   20.7080 C   0  0  0  0  0  0  0  0  0  0  0  0
  -23.3184  -23.2191   23.1831 C   0  0  0  0  0  0  0  0  0  0  0  0
  -23.2767  -23.9573   20.8830 C   0  0  0  0  0  0  0  0  0  0  0  0
  -26.4809  -13.1663   20.6572 C   0  0  0  0  0  0  0  0  0  0  0  0
  -22.8018  -27.6228   19.2273 C   0  0  0  0  0  0  0  0  0  0  0  0
  -21.9108  -23.6819   20.8194 C   0  0  0  0  0  0  0  0  0  0  0  0
  -26.8603  -10.9551   19.9578 C   0  0  0  0  0  0  0  0  0  0  0  0
  -28.4943   -9.0980   18.6680 C   0  0  0  0  0  0  0  0  0  0  0  0
  -27.1850  -11.1277   18.6123 C   0  0  0  0  0  0  0  0  0  0  0  0
  -27.8188  -17.1758   20.8350 C   0  0  0  0  0  0  0  0  0  0  0  0
  -28.6398  -19.1576   20.3520 C   0  0  0  0  0  0  0  0  0  0  0  0
  -28.6307  -17.5646   18.4258 C   0  0  0  0  0  0  0  0  0  0  0  0
  -27.5661  -27.1454   21.7842 C   0  0  0  0  0  0  0  0  0  0  0  0
  -26.9056  -29.9274   23.3160 C   0  0  0  0  0  0  0  0  0  0  0  0
  -24.7281  -32.5038   23.8333 C   0  0  0  0  0  0  0  0  0  0  0  0
  -26.3106  -22.0779   25.0316 C   0  0  0  0  0  0  0  0  0  0  0  0
  -31.6908  -24.2977   20.8171 C   0  0  0  0  0  0  0  0  0  0  0  0
  -26.9354  -28.6435   19.8571 C   0  0  0  0  0  0  0  0  0  0  0  0
  -24.9947  -28.8386   22.0798 C   0  0  0  0  0  0  0  0  0  0  0  0
  -31.2890  -25.3095   21.8873 C   0  0  0  0  0  0  0  0  0  0  0  0
  -29.7243  -21.1915   24.5447 C   0  0  0  0  0  0  0  0  0  0  0  0
  -29.9053  -24.9817   22.4391 C   0  0  0  0  0  0  0  0  0  0  0  0
  -29.6733  -20.1302   23.4442 C   0  0  0  0  0  0  0  0  0  0  0  0
  -28.5311  -21.0808   25.4913 C   0  0  0  0  0  0  0  0  0  0  0  0
  -27.1617  -20.0340   23.7298 C   0  0  0  0  0  0  0  0  0  0  0  0
  -28.8405  -25.0555   21.3381 C   0  0  1  0  0  0  0  0  0  0  0  0
  -27.3740  -28.5601   21.3159 C   0  0  1  0  0  0  0  0  0  0  0  0
  -28.3150  -20.1409   22.7174 C   0  0  2  0  0  0  0  0  0  0  0  0
  -24.4486  -34.6082   25.1714 C   0  0  0  0  0  0  0  0  0  0  0  0
  -26.2515  -28.2648   25.7895 C   0  0  0  0  0  0  0  0  0  0  0  0
  -25.0980  -30.2702   26.7467 C   0  0  0  0  0  0  0  0  0  0  0  0
  -27.5410  -30.3575   26.2502 C   0  0  0  0  0  0  0  0  0  0  0  0
  -24.5874  -34.1739   21.3941 C   0  0  0  0  0  0  0  0  0  0  0  0
  -24.0703  -22.9716   24.4470 C   0  0  0  0  0  0  0  0  0  0  0  0
  -19.9591  -25.5448   18.4186 C   0  0  0  0  0  0  0  0  0  0  0  0
  -21.2117  -26.3168   18.0348 C   0  0  0  0  0  0  0  0  0  1  0  0
  -20.1206  -24.8225   19.7470 C   0  0  0  0  0  0  0  0  0  0  0  0
  -25.8866  -30.3690   24.3385 C   0  0  1  0  0  0  0  0  0  0  0  0
  -24.9353  -34.0074   23.8619 C   0  0  2  0  0  0  0  0  0  0  0  0
  -26.1864  -29.8048   25.7560 C   0  0  0  0  0  0  0  0  0  0  0  0
  -27.7342  -17.8607   21.9786 N   0  0  0  0  0  0  0  0  0  0  0  0
  -28.2412  -19.0619   21.6529 N   0  0  0  0  0  0  0  0  0  0  0  0
  -26.4173  -29.1865   22.2305 N   0  0  0  0  0  0  0  0  0  0  0  0
  -27.2741  -21.0985   24.7393 N   0  0  0  0  0  0  0  0  0  0  0  0
  -23.9594  -24.4709   19.7587 N   0  0  0  0  0  0  0  0  0  0  0  0
  -29.1720  -20.2955   19.8577 N   0  0  0  0  0  0  0  0  0  0  0  0
  -28.2986  -16.2675   18.0117 N   0  0  0  0  0  0  0  0  0  0  0  0
  -28.4999  -26.4335   21.0558 N   0  0  0  0  0  0  0  0  0  0  0  0
  -25.8460  -31.8258   24.2715 N   0  0  0  0  0  0  0  0  0  0  0  0
  -25.1507  -22.0274   24.2681 N   0  0  0  0  0  0  0  0  0  0  0  0
  -24.1924  -34.6539   22.7434 N   0  3  0  0  0  0  0  0  0  0  0  0
  -29.1533  -18.3562   17.6049 O   0  0  0  0  0  0  0  0  0  0  0  0
  -26.9162  -26.7308   22.7368 O   0  0  0  0  0  0  0  0  0  0  0  0
  -28.0902  -30.2348   23.4710 O   0  0  0  0  0  0  0  0  0  0  0  0
  -23.6783  -31.9829   23.4630 O   0  0  0  0  0  0  0  0  0  0  0  0
  -26.4742  -22.9371   25.9044 O   0  0  0  0  0  0  0  0  0  0  0  0
  -26.0500  -11.8765   20.5998 O   0  0  0  0  0  0  0  0  0  0  0  0
  -21.4942  -27.3048   19.0250 O   0  0  0  0  0  0  0  0  0  1  0  0
  -21.2012  -23.9028   19.6678 O   0  0  0  0  0  0  0  0  0  0  0  0
  -29.2801   -8.2071   18.0492 F   0  0  0  0  0  0  0  0  0  0  0  0
  -26.7159  -12.1841   17.9343 F   0  0  0  0  0  0  0  0  0  0  0  0
  1  2  1  0  0  0  0
  1  5  2  0  0  0  0
  2  6  2  0  0  0  0
  3  9  2  0  0  0  0
  3 18  1  0  0  0  0
  4 10  1  0  0  0  0
  4 18  2  0  0  0  0
  5 20  1  0  0  0  0
  6 22  1  0  0  0  0
  7 11  2  0  0  0  0
  7 21  1  0  0  0  0
  8 12  2  0  0  0  0
  8 24  1  0  0  0  0
  9 26  1  0  0  0  0
 10 26  2  0  0  0  0
 11 27  1  0  0  0  0
 12 28  1  0  0  0  0
 13 14  2  0  0  0  0
 13 29  1  0  0  0  0
 14 30  1  0  0  0  0
 15 23  1  0  0  0  0
 15 27  2  0  0  0  0
 16 24  2  0  0  0  0
 16 25  1  0  0  0  0
 17 30  2  0  0  0  0
 17 31  1  0  0  0  0
 18 32  1  0  0  0  0
 19 32  1  0  0  0  0
 19 33  2  0  0  0  0
 19 34  1  0  0  0  0
 20 22  2  0  0  0  0
 20 39  1  0  0  0  0
 21 23  2  0  0  0  0
 21 40  1  0  0  0  0
 22 48  1  0  0  0  0
 23 41  1  0  0  0  0
 24 56  1  0  0  0  0
 25 28  2  0  0  0  0
 25 67  1  0  0  0  0
 26 79  1  0  0  0  0
 27 80  1  0  0  0  0
 28 81  1  0  0  0  0
 29 31  2  0  0  0  0
 29 79  1  0  0  0  0
 30 82  1  0  0  0  0
 31 83  1  0  0  0  0
 32 63  2  0  0  0  0
 33 64  1  0  0  0  0
 33 68  1  0  0  0  0
 34 69  1  0  0  0  0
 34 74  2  0  0  0  0
 35 49  1  0  0  0  0
 35 70  1  0  0  0  0
 35 75  2  0  0  0  0
 36 60  1  0  0  0  0
 36 65  1  0  0  0  0
 36 76  2  0  0  0  0
 37 61  1  0  0  0  0
 37 71  1  0  0  0  0
 37 77  2  0  0  0  0
 38 66  1  0  0  0  0
 38 72  1  0  0  0  0
 38 78  2  0  0  0  0
 39 42  1  0  0  0  0
 40 49  1  0  0  0  0
 41 65  1  0  0  0  0
 42 44  1  0  0  0  0
 43 45  1  0  0  0  0
 43 46  1  0  0  0  0
 44 48  1  0  0  0  0
 45 50  1  0  0  0  0
 46 66  1  0  0  0  0
 47 50  1  0  0  0  0
 47 66  1  0  0  0  0
 48 70  1  0  0  0  0
 49 65  1  0  0  0  0
 50 64  1  0  0  0  0
 51 61  1  0  0  0  0
 52 62  1  0  0  0  0
 53 62  1  0  0  0  0
 54 62  1  0  0  0  0
 55 73  1  0  0  0  0
 56 72  1  0  0  0  0
 57 58  1  0  0  0  0
 57 59  1  0  0  0  0
 58 80  1  0  0  0  0
 59 81  1  0  0  0  0
 60 62  1  0  0  0  0
 60 71  1  0  0  0  0
 61 73  1  0  0  0  0
 63 64  1  0  0  0  0
M  CHG  1  73   1
M  ISO  4  38 100  58 101  72 100  80 101
M  END
> <Batch ID>
0084

> <Smiles>
CNC(C)C(=O)NC(C(=O)N1Cc2cc([101O:1][101CH2:1]CCOc3ccc(C[100NH:0][100C:0](=O)N4CCCC(n5nc(-c6ccc(Oc7ccc(F)cc7F)cc6)c(C(N)=O)c5N)C4)cc3N)ccc2CC1C(=O)NC1CCCc2ccccc21)C(C)(C)C

> <Shape>
0.218

> <Color>
0.060

> <Negative vol penalty>
0.000

$$$$

  -OEChem-04052300123D

 84 93  0     1  0  0  0  0  0999 V2000
  -30.0773  -33.9123   25.3837 C   0  0  0  0  0  0  0  0  0  0  0  0
  -30.0472  -32.6979   24.7057 C   0  0  0  0  0  0  0  0  0  0  0  0
  -24.6619   -9.2272   21.9585 C   0  0  0  0  0  0  0  0  0  0  0  0
  -23.2809  -10.0417   20.1511 C   0  0  0  0  0  0  0  0  0  0  0  0
  -28.9131  -34.4149   25.9633 C   0  0  0  0  0  0  0  0  0  0  0  0
  -28.8530  -31.9847   24.6080 C   0  0  0  0  0  0  0  0  0  0  0  0
  -26.9877  -28.5573   19.8878 C   0  0  0  0  0  0  0  0  0  0  0  0
  -23.5441   -8.6346   22.5456 C   0  0  0  0  0  0  0  0  0  0  0  0
  -22.1630   -9.4490   20.7383 C   0  0  0  0  0  0  0  0  0  0  0  0
  -27.0252  -27.1835   19.6536 C   0  0  0  0  0  0  0  0  0  0  0  0
  -21.6860   -5.8436   22.1087 C   0  0  0  0  0  0  0  0  0  0  0  0
  -21.8188   -4.5393   22.5849 C   0  0  0  0  0  0  0  0  0  0  0  0
  -24.7577  -26.9912   20.4542 C   0  0  0  0  0  0  0  0  0  0  0  0
  -25.5583  -19.0229   18.1665 C   0  0  0  0  0  0  0  0  0  0  0  0
  -23.7925  -19.6219   16.6303 C   0  0  0  0  0  0  0  0  0  0  0  0
  -24.5461  -17.3307   16.7705 C   0  0  0  0  0  0  0  0  0  0  0  0
  -21.2508   -5.2935   24.8088 C   0  0  0  0  0  0  0  0  0  0  0  0
  -24.5304   -9.9308   20.7612 C   0  0  0  0  0  0  0  0  0  0  0  0
  -26.5635   -9.9626   19.2208 C   0  0  0  0  0  0  0  0  0  0  0  0
  -27.7019  -33.7122   25.8643 C   0  0  0  0  0  0  0  0  0  0  0  0
  -25.8368  -29.1578   20.4181 C   0  0  0  0  0  0  0  0  0  0  0  0
  -27.6717  -32.4777   25.1879 C   0  0  0  0  0  0  0  0  0  0  0  0
  -24.7073  -28.3733   20.6919 C   0  0  0  0  0  0  0  0  0  0  0  0
  -24.7186  -19.9862   17.6077 C   0  0  0  0  0  0  0  0  0  0  0  0
  -25.4721  -17.6951   17.7479 C   0  0  0  0  0  0  0  0  0  0  0  0
  -22.2946   -8.7455   21.9356 C   0  0  0  0  0  0  0  0  0  0  0  0
  -25.9111  -26.3997   19.9395 C   0  0  0  0  0  0  0  0  0  0  0  0
  -21.3358   -6.8729   22.9826 C   0  0  0  0  0  0  0  0  0  0  0  0
  -21.6011   -4.2642   23.9350 C   0  0  0  0  0  0  0  0  0  0  0  0
  -23.7063  -18.2941   16.2117 C   0  0  0  0  0  0  0  0  0  0  0  0
  -21.1181   -6.5978   24.3326 C   0  0  0  0  0  0  0  0  0  0  0  0
  -25.6846  -10.5437   20.1545 C   0  0  0  0  0  0  0  0  0  0  0  0
  -27.4854  -10.9464   18.9587 C   0  0  0  0  0  0  0  0  0  0  0  0
  -24.9789  -23.2206   18.5373 C   0  0  0  0  0  0  0  0  0  0  0  0
  -24.1292  -22.4156   17.6589 C   0  0  0  0  0  0  0  0  0  0  0  0
  -25.0376  -24.5307   18.8376 C   0  0  0  0  0  0  0  0  0  1  0  0
  -26.5480   -8.6509   18.6422 C   0  0  0  0  0  0  0  0  0  0  0  0
  -25.1681  -30.7666   23.0768 C   0  0  0  0  0  0  0  0  0  0  0  0
  -22.2917  -31.1842   21.6365 C   0  0  0  0  0  0  0  0  0  0  0  0
  -20.0051  -30.0780   19.3573 C   0  0  0  0  0  0  0  0  0  0  0  0
  -27.2991  -16.9095   19.2943 C   0  0  0  0  0  0  0  0  0  0  0  0
  -26.4797  -34.2725   26.5476 C   0  0  0  0  0  0  0  0  0  0  0  0
  -25.8031  -30.6451   20.6400 C   0  0  0  0  0  0  0  0  0  0  0  0
  -23.4402  -28.9725   21.2432 C   0  0  0  0  0  0  0  0  0  0  0  0
  -25.7211  -21.9627   18.9266 C   0  0  0  0  0  0  0  0  0  0  0  0
  -25.1738  -33.6373   26.0770 C   0  0  0  0  0  0  0  0  0  0  0  0
  -29.5774  -14.7521   20.9773 C   0  0  0  0  0  0  0  0  0  0  0  0
  -25.3047  -32.1181   26.0326 C   0  0  0  0  0  0  0  0  0  0  0  0
  -28.9206  -13.3742   20.8670 C   0  0  0  0  0  0  0  0  0  0  0  0
  -28.5431  -15.8594   21.1718 C   0  0  0  0  0  0  0  0  0  0  0  0
  -26.8076  -14.5054   20.0654 C   0  0  0  0  0  0  0  0  0  0  0  0
  -26.3902  -31.6867   25.0391 C   0  0  1  0  0  0  0  0  0  0  0  0
  -24.7567  -31.0729   21.6644 C   0  0  1  0  0  0  0  0  0  0  0  0
  -27.8050  -13.3651   19.8036 C   0  0  2  0  0  0  0  0  0  0  0  0
  -17.7332  -30.6053   18.4311 C   0  0  0  0  0  0  0  0  0  0  0  0
  -21.0034  -30.0644   24.1656 C   0  0  0  0  0  0  0  0  0  0  0  0
  -18.8948  -29.7274   22.8585 C   0  0  0  0  0  0  0  0  0  0  0  0
  -19.8137  -32.0256   23.1693 C   0  0  0  0  0  0  0  0  0  0  0  0
  -21.0793  -30.4587   16.6260 C   0  0  0  0  0  0  0  0  0  0  0  0
  -20.9893  -30.4213   21.6085 C   0  0  1  0  0  0  0  0  0  0  0  0
  -19.2324  -30.8049   18.2715 C   0  0  2  0  0  0  0  0  0  0  0  0
  -20.1997  -30.5478   22.9419 C   0  0  0  0  0  0  0  0  0  0  0  0
  -26.0183  -11.7992   20.4647 N   0  0  0  0  0  0  0  0  0  0  0  0
  -27.1172  -12.0152   19.7218 N   0  0  0  0  0  0  0  0  0  0  0  0
  -24.8034  -21.2959   18.0200 N   0  0  0  0  0  0  0  0  0  0  0  0
  -23.4588  -30.4302   21.4489 N   0  0  0  0  0  0  0  0  0  0  0  0
  -27.5204  -15.7911   20.1256 N   0  0  0  0  0  0  0  0  0  0  0  0
  -28.5670  -10.9929   18.1522 N   0  0  0  0  0  0  0  0  0  0  0  0
  -25.5302   -7.7652   19.0218 N   0  0  0  0  0  0  0  0  0  0  0  0
  -26.3253  -16.7162   18.3150 N   0  0  0  0  0  0  0  0  0  0  0  0
  -25.8962  -31.7734   23.6816 N   0  0  0  0  0  0  0  0  0  0  0  0
  -20.2627  -30.8970   20.4363 N   0  0  0  0  0  0  0  0  0  0  0  0
  -19.6328  -30.3032   16.9265 N   0  3  0  0  0  0  0  0  0  0  0  0
  -23.2079  -22.6485   16.9043 O   0  0  0  0  0  0  0  0  0  0  0  0
  -27.4205   -8.2697   17.8255 O   0  0  0  0  0  0  0  0  0  0  0  0
  -24.8474  -29.6968   23.5810 O   0  0  0  0  0  0  0  0  0  0  0  0
  -22.2737  -32.4052   21.8110 O   0  0  0  0  0  0  0  0  0  0  0  0
  -20.3429  -28.9003   19.2598 O   0  0  0  0  0  0  0  0  0  0  0  0
  -27.9462  -17.9519   19.4229 O   0  0  0  0  0  0  0  0  0  0  0  0
  -21.2036   -8.1671   22.5081 O   0  0  0  0  0  0  0  0  0  0  0  0
  -25.9452  -25.0584   19.7125 O   0  0  0  0  0  0  0  0  0  1  0  0
  -21.7271   -3.0114   24.3918 F   0  0  0  0  0  0  0  0  0  0  0  0
  -22.8176  -17.9440   15.2726 F   0  0  0  0  0  0  0  0  0  0  0  0
  -20.7802   -7.5823   25.1767 F   0  0  0  0  0  0  0  0  0  0  0  0
  1  2  1  0  0  0  0
  1  5  2  0  0  0  0
  2  6  2  0  0  0  0
  3  8  2  0  0  0  0
  3 18  1  0  0  0  0
  4  9  1  0  0  0  0
  4 18  2  0  0  0  0
  5 20  1  0  0  0  0
  6 22  1  0  0  0  0
  7 10  2  0  0  0  0
  7 21  1  0  0  0  0
  8 26  1  0  0  0  0
  9 26  2  0  0  0  0
 10 27  1  0  0  0  0
 11 12  2  0  0  0  0
 11 28  1  0  0  0  0
 12 29  1  0  0  0  0
 13 23  1  0  0  0  0
 13 27  2  0  0  0  0
 14 24  2  0  0  0  0
 14 25  1  0  0  0  0
 15 24  1  0  0  0  0
 15 30  2  0  0  0  0
 16 25  2  0  0  0  0
 16 30  1  0  0  0  0
 17 29  2  0  0  0  0
 17 31  1  0  0  0  0
 18 32  1  0  0  0  0
 19 32  1  0  0  0  0
 19 33  2  0  0  0  0
 19 37  1  0  0  0  0
 20 22  2  0  0  0  0
 20 42  1  0  0  0  0
 21 23  2  0  0  0  0
 21 43  1  0  0  0  0
 22 52  1  0  0  0  0
 23 44  1  0  0  0  0
 24 65  1  0  0  0  0
 25 70  1  0  0  0  0
 26 80  1  0  0  0  0
 27 81  1  0  0  0  0
 28 31  2  0  0  0  0
 28 80  1  0  0  0  0
 29 82  1  0  0  0  0
 30 83  1  0  0  0  0
 31 84  1  0  0  0  0
 32 63  2  0  0  0  0
 33 64  1  0  0  0  0
 33 68  1  0  0  0  0
 34 35  1  0  0  0  0
 34 36  2  0  0  0  0
 34 45  1  0  0  0  0
 35 65  1  0  0  0  0
 35 74  2  0  0  0  0
 36 81  1  0  0  0  0
 37 69  1  0  0  0  0
 37 75  2  0  0  0  0
 38 53  1  0  0  0  0
 38 71  1  0  0  0  0
 38 76  2  0  0  0  0
 39 60  1  0  0  0  0
 39 66  1  0  0  0  0
 39 77  2  0  0  0  0
 40 61  1  0  0  0  0
 40 72  1  0  0  0  0
 40 78  2  0  0  0  0
 41 67  1  0  0  0  0
 41 70  1  0  0  0  0
 41 79  2  0  0  0  0
 42 46  1  0  0  0  0
 43 53  1  0  0  0  0
 44 66  1  0  0  0  0
 45 65  1  0  0  0  0
 46 48  1  0  0  0  0
 47 49  1  0  0  0  0
 47 50  1  0  0  0  0
 48 52  1  0  0  0  0
 49 54  1  0  0  0  0
 50 67  1  0  0  0  0
 51 54  1  0  0  0  0
 51 67  1  0  0  0  0
 52 71  1  0  0  0  0
 53 66  1  0  0  0  0
 54 64  1  0  0  0  0
 55 61  1  0  0  0  0
 56 62  1  0  0  0  0
 57 62  1  0  0  0  0
 58 62  1  0  0  0  0
 59 73  1  0  0  0  0
 60 62  1  0  0  0  0
 60 72  1  0  0  0  0
 61 73  1  0  0  0  0
 63 64  1  0  0  0  0
M  CHG  1  73   1
M  ISO  4  36 101  41 100  70 100  81 101
M  END
> <Batch ID>
0084

> <Smiles>
CNC(C)C(=O)NC(C(=O)N1Cc2cc([101O:1][101CH:1]=C3CN(c4cc(F)cc([100NH:0][100C:0](=O)N5CCCC(n6nc(-c7ccc(Oc8ccc(F)cc8F)cc7)c(C(N)=O)c6N)C5)c4)C3=O)ccc2CC1C(=O)NC1CCCc2ccccc21)C(C)(C)C

> <Shape>
0.267

> <Color>
0.087

> <Negative vol penalty>
0.000

$$$$

  -OEChem-04052300123D

 86 95  0     1  0  0  0  0  0999 V2000
  -29.7977  -36.4626   23.3994 C   0  0  0  0  0  0  0  0  0  0  0  0
  -29.9158  -35.4958   22.4060 C   0  0  0  0  0  0  0  0  0  0  0  0
  -24.7541   -8.7869   21.5855 C   0  0  0  0  0  0  0  0  0  0  0  0
  -23.1990  -10.2530   20.4588 C   0  0  0  0  0  0  0  0  0  0  0  0
  -29.1684  -36.1498   24.6036 C   0  0  0  0  0  0  0  0  0  0  0  0
  -29.4056  -34.2153   22.6167 C   0  0  0  0  0  0  0  0  0  0  0  0
  -26.3808  -28.7612   19.0926 C   0  0  0  0  0  0  0  0  0  0  0  0
  -25.3485  -19.9942   18.2265 C   0  0  0  0  0  0  0  0  0  0  0  0
  -23.7324   -8.3517   22.4294 C   0  0  0  0  0  0  0  0  0  0  0  0
  -22.1773   -9.8177   21.3027 C   0  0  0  0  0  0  0  0  0  0  0  0
  -26.5273  -27.3877   18.9031 C   0  0  0  0  0  0  0  0  0  0  0  0
  -21.4530   -6.5882   24.6452 C   0  0  0  0  0  0  0  0  0  0  0  0
  -24.7749  -18.8402   17.6930 C   0  0  0  0  0  0  0  0  0  0  0  0
  -21.3474   -5.2178   24.8825 C   0  0  0  0  0  0  0  0  0  0  0  0
  -25.3900  -26.9844   20.9919 C   0  0  0  0  0  0  0  0  0  0  0  0
  -27.2367  -18.6992   18.9978 C   0  0  0  0  0  0  0  0  0  0  0  0
  -21.0178   -4.8341   22.5200 C   0  0  0  0  0  0  0  0  0  0  0  0
  -24.4874   -9.7376   20.6002 C   0  0  0  0  0  0  0  0  0  0  0  0
  -25.9169   -9.6334   18.4899 C   0  0  0  0  0  0  0  0  0  0  0  0
  -28.6417  -34.8677   24.8254 C   0  0  0  0  0  0  0  0  0  0  0  0
  -25.7463  -29.2577   20.2404 C   0  0  0  0  0  0  0  0  0  0  0  0
  -28.7699  -33.8847   23.8255 C   0  0  0  0  0  0  0  0  0  0  0  0
  -25.2344  -28.3645   21.1923 C   0  0  0  0  0  0  0  0  0  0  0  0
  -26.5795  -19.9238   18.8789 C   0  0  0  0  0  0  0  0  0  0  0  0
  -26.6630  -17.5451   18.4643 C   0  0  0  0  0  0  0  0  0  0  0  0
  -22.4440   -8.8671   22.2880 C   0  0  0  0  0  0  0  0  0  0  0  0
  -26.0344  -26.4991   19.8542 C   0  0  0  0  0  0  0  0  0  0  0  0
  -21.3409   -7.0817   23.3453 C   0  0  0  0  0  0  0  0  0  0  0  0
  -21.1299   -4.3407   23.8199 C   0  0  0  0  0  0  0  0  0  0  0  0
  -25.4321  -17.6156   17.8120 C   0  0  0  0  0  0  0  0  0  0  0  0
  -21.1233   -6.2046   22.2827 C   0  0  0  0  0  0  0  0  0  0  0  0
  -25.5426  -10.1880   19.7285 C   0  0  0  0  0  0  0  0  0  0  0  0
  -26.9620  -10.4167   18.0647 C   0  0  0  0  0  0  0  0  0  0  0  0
  -27.5438  -23.2523   20.0443 C   0  0  0  0  0  0  0  0  0  0  0  0
  -28.6742  -22.4881   20.5089 C   0  0  0  0  0  0  0  0  0  0  0  0
  -26.5782  -22.3566   19.3487 C   0  0  0  0  0  0  0  0  0  0  0  0
  -29.7504  -22.9192   21.1755 C   0  0  0  0  0  0  0  0  0  0  0  0
  -27.3009  -24.5575   20.1650 C   0  0  0  0  0  0  0  0  0  1  0  0
  -25.3688   -8.5107   17.7864 C   0  0  0  0  0  0  0  0  0  0  0  0
  -26.6341  -31.0973   22.6758 C   0  0  0  0  0  0  0  0  0  0  0  0
  -23.4924  -30.9046   23.4599 C   0  0  0  0  0  0  0  0  0  0  0  0
  -20.5507  -29.1888   23.2373 C   0  0  0  0  0  0  0  0  0  0  0  0
  -28.5598  -16.0609   19.2029 C   0  0  0  0  0  0  0  0  0  0  0  0
  -28.0119  -34.5628   26.1615 C   0  0  0  0  0  0  0  0  0  0  0  0
  -25.5726  -30.7413   20.4170 C   0  0  0  0  0  0  0  0  0  0  0  0
  -24.5273  -28.8460   22.4319 C   0  0  0  0  0  0  0  0  0  0  0  0
  -28.4375  -21.0642   20.1054 C   0  0  0  0  0  0  0  0  0  0  0  0
  -27.1662  -33.2919   26.1604 C   0  0  0  0  0  0  0  0  0  0  0  0
  -30.5245  -13.1412   19.7439 C   0  0  0  0  0  0  0  0  0  0  0  0
  -27.9141  -32.1536   25.4737 C   0  0  0  0  0  0  0  0  0  0  0  0
  -29.5049  -12.0016   19.6826 C   0  0  0  0  0  0  0  0  0  0  0  0
  -29.9434  -14.3869   20.4106 C   0  0  0  0  0  0  0  0  0  0  0  0
  -27.6566  -13.7225   19.7792 C   0  0  0  0  0  0  0  0  0  0  0  0
  -28.2072  -32.4917   24.0070 C   0  0  1  0  0  0  0  0  0  0  0  0
  -25.3656  -31.1496   21.8722 C   0  0  1  0  0  0  0  0  0  0  0  0
  -28.1754  -12.4680   19.0577 C   0  0  2  0  0  0  0  0  0  0  0  0
  -18.1658  -29.2586   24.0148 C   0  0  0  0  0  0  0  0  0  0  0  0
  -24.3693  -29.9628   26.2265 C   0  0  0  0  0  0  0  0  0  0  0  0
  -22.0312  -29.1571   26.6168 C   0  0  0  0  0  0  0  0  0  0  0  0
  -22.4645  -31.5833   26.2313 C   0  0  0  0  0  0  0  0  0  0  0  0
  -19.5296  -29.3481   20.4640 C   0  0  0  0  0  0  0  0  0  0  0  0
  -22.6547  -29.9675   24.2961 C   0  0  1  0  0  0  0  0  0  0  0  0
  -19.1400  -29.6460   22.9131 C   0  0  2  0  0  0  0  0  0  0  0  0
  -22.8949  -30.1584   25.8204 C   0  0  0  0  0  0  0  0  0  0  0  0
  -26.2893  -11.2420   20.0682 N   0  0  0  0  0  0  0  0  0  0  0  0
  -27.1433  -11.3560   19.0368 N   0  0  0  0  0  0  0  0  0  0  0  0
  -27.1514  -21.0750   19.4110 N   0  0  0  0  0  0  0  0  0  0  0  0
  -24.3878  -30.3058   22.5624 N   0  0  0  0  0  0  0  0  0  0  0  0
  -28.6874  -14.7723   19.7635 N   0  0  0  0  0  0  0  0  0  0  0  0
  -27.7344  -10.3866   16.9580 N   0  0  0  0  0  0  0  0  0  0  0  0
  -24.2971   -7.8178   18.3657 N   0  0  0  0  0  0  0  0  0  0  0  0
  -27.3327  -16.3023   18.5861 N   0  0  0  0  0  0  0  0  0  0  0  0
  -27.0183  -32.3165   23.2006 N   0  0  0  0  0  0  0  0  0  0  0  0
  -21.2721  -30.1734   23.8787 N   0  0  0  0  0  0  0  0  0  0  0  0
  -18.6761  -29.0304   21.6377 N   0  3  0  0  0  0  0  0  0  0  0  0
  -25.5217  -22.6965   18.8429 O   0  0  0  0  0  0  0  0  0  0  0  0
  -25.8269   -8.1231   16.6849 O   0  0  0  0  0  0  0  0  0  0  0  0
  -27.2201  -30.0296   22.8110 O   0  0  0  0  0  0  0  0  0  0  0  0
  -23.3521  -32.1229   23.5928 O   0  0  0  0  0  0  0  0  0  0  0  0
  -20.9697  -28.0688   22.9534 O   0  0  0  0  0  0  0  0  0  0  0  0
  -29.4818  -16.8796   19.2417 O   0  0  0  0  0  0  0  0  0  0  0  0
  -21.4467   -8.4424   23.1112 O   0  0  0  0  0  0  0  0  0  0  0  0
  -26.1766  -25.1581   19.6721 O   0  0  0  0  0  0  0  0  0  1  0  0
  -21.0301   -3.0246   24.0478 F   0  0  0  0  0  0  0  0  0  0  0  0
  -24.8709  -16.5131   17.2956 F   0  0  0  0  0  0  0  0  0  0  0  0
  -21.0160   -6.6726   21.0316 F   0  0  0  0  0  0  0  0  0  0  0  0
  1  2  1  0  0  0  0
  1  5  2  0  0  0  0
  2  6  2  0  0  0  0
  3  9  2  0  0  0  0
  3 18  1  0  0  0  0
  4 10  1  0  0  0  0
  4 18  2  0  0  0  0
  5 20  1  0  0  0  0
  6 22  1  0  0  0  0
  7 11  2  0  0  0  0
  7 21  1  0  0  0  0
  8 13  2  0  0  0  0
  8 24  1  0  0  0  0
  9 26  1  0  0  0  0
 10 26  2  0  0  0  0
 11 27  1  0  0  0  0
 12 14  2  0  0  0  0
 12 28  1  0  0  0  0
 13 30  1  0  0  0  0
 14 29  1  0  0  0  0
 15 23  1  0  0  0  0
 15 27  2  0  0  0  0
 16 24  2  0  0  0  0
 16 25  1  0  0  0  0
 17 29  2  0  0  0  0
 17 31  1  0  0  0  0
 18 32  1  0  0  0  0
 19 32  1  0  0  0  0
 19 33  2  0  0  0  0
 19 39  1  0  0  0  0
 20 22  2  0  0  0  0
 20 44  1  0  0  0  0
 21 23  2  0  0  0  0
 21 45  1  0  0  0  0
 22 54  1  0  0  0  0
 23 46  1  0  0  0  0
 24 67  1  0  0  0  0
 25 30  2  0  0  0  0
 25 72  1  0  0  0  0
 26 82  1  0  0  0  0
 27 83  1  0  0  0  0
 28 31  2  0  0  0  0
 28 82  1  0  0  0  0
 29 84  1  0  0  0  0
 30 85  1  0  0  0  0
 31 86  1  0  0  0  0
 32 65  2  0  0  0  0
 33 66  1  0  0  0  0
 33 70  1  0  0  0  0
 34 35  1  0  0  0  0
 34 36  1  0  0  0  0
 34 38  2  0  0  0  0
 35 37  2  0  0  0  0
 35 47  1  0  0  0  0
 36 67  1  0  0  0  0
 36 76  2  0  0  0  0
 38 83  1  0  0  0  0
 39 71  1  0  0  0  0
 39 77  2  0  0  0  0
 40 55  1  0  0  0  0
 40 73  1  0  0  0  0
 40 78  2  0  0  0  0
 41 62  1  0  0  0  0
 41 68  1  0  0  0  0
 41 79  2  0  0  0  0
 42 63  1  0  0  0  0
 42 74  1  0  0  0  0
 42 80  2  0  0  0  0
 43 69  1  0  0  0  0
 43 72  1  0  0  0  0
 43 81  2  0  0  0  0
 44 48  1  0  0  0  0
 45 55  1  0  0  0  0
 46 68  1  0  0  0  0
 47 67  1  0  0  0  0
 48 50  1  0  0  0  0
 49 51  1  0  0  0  0
 49 52  1  0  0  0  0
 50 54  1  0  0  0  0
 51 56  1  0  0  0  0
 52 69  1  0  0  0  0
 53 56  1  0  0  0  0
 53 69  1  0  0  0  0
 54 73  1  0  0  0  0
 55 68  1  0  0  0  0
 56 66  1  0  0  0  0
 57 63  1  0  0  0  0
 58 64  1  0  0  0  0
 59 64  1  0  0  0  0
 60 64  1  0  0  0  0
 61 75  1  0  0  0  0
 62 64  1  0  0  0  0
 62 74  1  0  0  0  0
 63 75  1  0  0  0  0
 65 66  1  0  0  0  0
M  CHG  1  75   1
M  ISO  4  38 101  43 100  72 100  83 101
M  END
> <Batch ID>
0084

> <Smiles>
C=C1CN(c2ccc(F)c([100NH:0][100C:0](=O)N3CCCC(n4nc(-c5ccc(Oc6ccc(F)cc6F)cc5)c(C(N)=O)c4N)C3)c2)C(=O)C1=[101CH:1][101O:1]c1ccc2c(c1)CN(C(=O)C(NC(=O)C(C)NC)C(C)(C)C)C(C(=O)NC1CCCc3ccccc31)C2

> <Shape>
0.293

> <Color>
0.105

> <Negative vol penalty>
0.000

$$$$

  -OEChem-04052300123D

 84 93  0     1  0  0  0  0  0999 V2000
  -27.3783  -37.7506   23.8460 C   0  0  0  0  0  0  0  0  0  0  0  0
  -27.9648  -36.8071   23.0086 C   0  0  0  0  0  0  0  0  0  0  0  0
  -24.1859   -9.2995   22.2135 C   0  0  0  0  0  0  0  0  0  0  0  0
  -22.9231  -11.2834   21.6598 C   0  0  0  0  0  0  0  0  0  0  0  0
  -26.4957  -37.3416   24.8447 C   0  0  0  0  0  0  0  0  0  0  0  0
  -27.6698  -35.4538   23.1702 C   0  0  0  0  0  0  0  0  0  0  0  0
  -26.9110  -29.4153   19.3918 C   0  0  0  0  0  0  0  0  0  0  0  0
  -26.2998  -19.4060   19.1256 C   0  0  0  0  0  0  0  0  0  0  0  0
  -26.5644  -18.0444   18.9786 C   0  0  0  0  0  0  0  0  0  0  0  0
  -23.3208   -9.0459   23.2778 C   0  0  0  0  0  0  0  0  0  0  0  0
  -22.0579  -11.0298   22.7241 C   0  0  0  0  0  0  0  0  0  0  0  0
  -27.3662  -28.0978   19.3639 C   0  0  0  0  0  0  0  0  0  0  0  0
  -20.2302   -7.7480   23.7209 C   0  0  0  0  0  0  0  0  0  0  0  0
  -19.7721   -6.4410   23.8866 C   0  0  0  0  0  0  0  0  0  0  0  0
  -25.7657  -27.5151   21.0721 C   0  0  0  0  0  0  0  0  0  0  0  0
  -28.8456  -18.4116   19.6847 C   0  0  0  0  0  0  0  0  0  0  0  0
  -20.7712   -6.3696   26.0852 C   0  0  0  0  0  0  0  0  0  0  0  0
  -23.9871  -10.4183   21.4045 C   0  0  0  0  0  0  0  0  0  0  0  0
  -24.7521  -10.2291   18.9782 C   0  0  0  0  0  0  0  0  0  0  0  0
  -26.1822  -35.9836   25.0125 C   0  0  0  0  0  0  0  0  0  0  0  0
  -25.8855  -29.7956   20.2693 C   0  0  0  0  0  0  0  0  0  0  0  0
  -26.7831  -35.0262   24.1730 C   0  0  0  0  0  0  0  0  0  0  0  0
  -25.2975  -28.8374   21.1073 C   0  0  0  0  0  0  0  0  0  0  0  0
  -27.3081  -20.2704   19.5521 C   0  0  0  0  0  0  0  0  0  0  0  0
  -27.8373  -17.5472   19.2582 C   0  0  0  0  0  0  0  0  0  0  0  0
  -22.2568   -9.9110   23.5331 C   0  0  0  0  0  0  0  0  0  0  0  0
  -26.7956  -27.1481   20.2062 C   0  0  0  0  0  0  0  0  0  0  0  0
  -20.9588   -8.3658   24.7373 C   0  0  0  0  0  0  0  0  0  0  0  0
  -20.0426   -5.7518   25.0688 C   0  0  0  0  0  0  0  0  0  0  0  0
  -28.5810  -19.7732   19.8317 C   0  0  0  0  0  0  0  0  0  0  0  0
  -21.2293   -7.6766   25.9194 C   0  0  0  0  0  0  0  0  0  0  0  0
  -24.8808  -10.6812   20.3052 C   0  0  0  0  0  0  0  0  0  0  0  0
  -25.8475  -10.7468   18.3314 C   0  0  0  0  0  0  0  0  0  0  0  0
  -26.6694  -23.5750   19.8071 C   0  0  0  0  0  0  0  0  0  0  0  0
  -25.9252  -22.3530   19.4998 C   0  0  0  0  0  0  0  0  0  0  0  0
  -26.3437  -24.8791   19.8622 C   0  0  0  0  0  0  0  0  0  1  0  0
  -23.7334   -9.4141   18.3835 C   0  0  0  0  0  0  0  0  0  0  0  0
  -25.6518  -31.8329   22.6980 C   0  0  0  0  0  0  0  0  0  0  0  0
  -22.5157  -31.0131   22.5759 C   0  0  0  0  0  0  0  0  0  0  0  0
  -20.1531  -28.7222   21.6721 C   0  0  0  0  0  0  0  0  0  0  0  0
  -29.3136  -15.5077   19.3439 C   0  0  0  0  0  0  0  0  0  0  0  0
  -25.2589  -35.5851   26.1365 C   0  0  0  0  0  0  0  0  0  0  0  0
  -25.3875  -31.2149   20.2681 C   0  0  0  0  0  0  0  0  0  0  0  0
  -24.1798  -29.1901   22.0533 C   0  0  0  0  0  0  0  0  0  0  0  0
  -27.9078  -22.7348   20.0196 C   0  0  0  0  0  0  0  0  0  0  0  0
  -24.7098  -34.1674   26.0001 C   0  0  0  0  0  0  0  0  0  0  0  0
  -30.3676  -12.1136   19.1285 C   0  0  0  0  0  0  0  0  0  0  0  0
  -25.8291  -33.1929   25.6477 C   0  0  0  0  0  0  0  0  0  0  0  0
  -29.0676  -11.3201   19.2790 C   0  0  0  0  0  0  0  0  0  0  0  0
  -30.3753  -13.3618   20.0093 C   0  0  0  0  0  0  0  0  0  0  0  0
  -27.9134  -13.4510   19.9957 C   0  0  0  0  0  0  0  0  0  0  0  0
  -26.4690  -33.5514   24.3010 C   0  0  1  0  0  0  0  0  0  0  0  0
  -24.6890  -31.6041   21.5674 C   0  0  1  0  0  0  0  0  0  0  0  0
  -27.8320  -12.2195   19.0791 C   0  0  2  0  0  0  0  0  0  0  0  0
  -17.6776  -28.3154   21.7361 C   0  0  0  0  0  0  0  0  0  0  0  0
  -22.7064  -30.3347   25.5446 C   0  0  0  0  0  0  0  0  0  0  0  0
  -20.5556  -29.0725   25.3230 C   0  0  0  0  0  0  0  0  0  0  0  0
  -20.6109  -31.5266   24.8793 C   0  0  0  0  0  0  0  0  0  0  0  0
  -19.9788  -28.6052   18.7200 C   0  0  0  0  0  0  0  0  0  0  0  0
  -21.6650  -29.9422   23.2149 C   0  0  1  0  0  0  0  0  0  0  0  0
  -18.8391  -28.8709   20.9266 C   0  0  2  0  0  0  0  0  0  0  0  0
  -21.4068  -30.2125   24.7241 C   0  0  0  0  0  0  0  0  0  0  0  0
  -25.9720  -11.4284   20.4918 N   0  0  0  0  0  0  0  0  0  0  0  0
  -26.5390  -11.4499   19.2736 N   0  0  0  0  0  0  0  0  0  0  0  0
  -27.0443  -21.6128   19.6962 N   0  0  0  0  0  0  0  0  0  0  0  0
  -23.7320  -30.5922   22.0197 N   0  0  0  0  0  0  0  0  0  0  0  0
  -29.1773  -14.1672   19.7625 N   0  0  0  0  0  0  0  0  0  0  0  0
  -26.2771  -10.6647   17.0542 N   0  0  0  0  0  0  0  0  0  0  0  0
  -22.6788   -8.9674   19.1913 N   0  0  0  0  0  0  0  0  0  0  0  0
  -28.1059  -16.1640   19.1087 N   0  0  0  0  0  0  0  0  0  0  0  0
  -25.6250  -33.1165   23.2088 N   0  0  0  0  0  0  0  0  0  0  0  0
  -20.4527  -29.8487   22.4087 N   0  0  0  0  0  0  0  0  0  0  0  0
  -18.8959  -28.1444   19.6267 N   0  3  0  0  0  0  0  0  0  0  0  0
  -24.7813  -22.0992   19.1844 O   0  0  0  0  0  0  0  0  0  0  0  0
  -23.7663   -9.0780   17.1754 O   0  0  0  0  0  0  0  0  0  0  0  0
  -26.3652  -30.9125   23.0797 O   0  0  0  0  0  0  0  0  0  0  0  0
  -22.1125  -32.1788   22.5641 O   0  0  0  0  0  0  0  0  0  0  0  0
  -20.8427  -27.7068   21.6104 O   0  0  0  0  0  0  0  0  0  0  0  0
  -30.4206  -16.0264   19.1781 O   0  0  0  0  0  0  0  0  0  0  0  0
  -21.4123   -9.6637   24.5715 O   0  0  0  0  0  0  0  0  0  0  0  0
  -27.2384  -25.8616   20.1816 O   0  0  0  0  0  0  0  0  0  1  0  0
  -19.6013   -4.4972   25.2284 F   0  0  0  0  0  0  0  0  0  0  0  0
  -29.5580  -20.5949   20.2417 F   0  0  0  0  0  0  0  0  0  0  0  0
  -21.9278   -8.2654   26.8999 F   0  0  0  0  0  0  0  0  0  0  0  0
  1  2  1  0  0  0  0
  1  5  2  0  0  0  0
  2  6  2  0  0  0  0
  3 10  2  0  0  0  0
  3 18  1  0  0  0  0
  4 11  1  0  0  0  0
  4 18  2  0  0  0  0
  5 20  1  0  0  0  0
  6 22  1  0  0  0  0
  7 12  2  0  0  0  0
  7 21  1  0  0  0  0
  8  9  2  0  0  0  0
  8 24  1  0  0  0  0
  9 25  1  0  0  0  0
 10 26  1  0  0  0  0
 11 26  2  0  0  0  0
 12 27  1  0  0  0  0
 13 14  2  0  0  0  0
 13 28  1  0  0  0  0
 14 29  1  0  0  0  0
 15 23  1  0  0  0  0
 15 27  2  0  0  0  0
 16 25  2  0  0  0  0
 16 30  1  0  0  0  0
 17 29  2  0  0  0  0
 17 31  1  0  0  0  0
 18 32  1  0  0  0  0
 19 32  1  0  0  0  0
 19 33  2  0  0  0  0
 19 37  1  0  0  0  0
 20 22  2  0  0  0  0
 20 42  1  0  0  0  0
 21 23  2  0  0  0  0
 21 43  1  0  0  0  0
 22 52  1  0  0  0  0
 23 44  1  0  0  0  0
 24 30  2  0  0  0  0
 24 65  1  0  0  0  0
 25 70  1  0  0  0  0
 26 80  1  0  0  0  0
 27 81  1  0  0  0  0
 28 31  2  0  0  0  0
 28 80  1  0  0  0  0
 29 82  1  0  0  0  0
 30 83  1  0  0  0  0
 31 84  1  0  0  0  0
 32 63  2  0  0  0  0
 33 64  1  0  0  0  0
 33 68  1  0  0  0  0
 34 35  1  0  0  0  0
 34 36  2  0  0  0  0
 34 45  1  0  0  0  0
 35 65  1  0  0  0  0
 35 74  2  0  0  0  0
 36 81  1  0  0  0  0
 37 69  1  0  0  0  0
 37 75  2  0  0  0  0
 38 53  1  0  0  0  0
 38 71  1  0  0  0  0
 38 76  2  0  0  0  0
 39 60  1  0  0  0  0
 39 66  1  0  0  0  0
 39 77  2  0  0  0  0
 40 61  1  0  0  0  0
 40 72  1  0  0  0  0
 40 78  2  0  0  0  0
 41 67  1  0  0  0  0
 41 70  1  0  0  0  0
 41 79  2  0  0  0  0
 42 46  1  0  0  0  0
 43 53  1  0  0  0  0
 44 66  1  0  0  0  0
 45 65  1  0  0  0  0
 46 48  1  0  0  0  0
 47 49  1  0  0  0  0
 47 50  1  0  0  0  0
 48 52  1  0  0  0  0
 49 54  1  0  0  0  0
 50 67  1  0  0  0  0
 51 54  1  0  0  0  0
 51 67  1  0  0  0  0
 52 71  1  0  0  0  0
 53 66  1  0  0  0  0
 54 64  1  0  0  0  0
 55 61  1  0  0  0  0
 56 62  1  0  0  0  0
 57 62  1  0  0  0  0
 58 62  1  0  0  0  0
 59 73  1  0  0  0  0
 60 62  1  0  0  0  0
 60 72  1  0  0  0  0
 61 73  1  0  0  0  0
 63 64  1  0  0  0  0
M  CHG  1  73   1
M  ISO  4  36 101  41 100  70 100  81 101
M  END
> <Batch ID>
0084

> <Smiles>
CNC(C)C(=O)NC(C(=O)N1Cc2cc([101O:1][101CH:1]=C3CN(c4ccc([100NH:0][100C:0](=O)N5CCCC(n6nc(-c7ccc(Oc8ccc(F)cc8F)cc7)c(C(N)=O)c6N)C5)cc4F)C3=O)ccc2CC1C(=O)NC1CCCc2ccccc21)C(C)(C)C

> <Shape>
0.297

> <Color>
0.088

> <Negative vol penalty>
0.000

$$$$

  -OEChem-04052300123D

 87 96  0     1  0  0  0  0  0999 V2000
  -28.5124  -37.9805   20.0644 C   0  0  0  0  0  0  0  0  0  0  0  0
  -28.9398  -36.6753   19.8432 C   0  0  0  0  0  0  0  0  0  0  0  0
  -23.5480   -9.6013   19.8785 C   0  0  0  0  0  0  0  0  0  0  0  0
  -23.9908   -9.7962   22.2456 C   0  0  0  0  0  0  0  0  0  0  0  0
  -29.7952  -20.3313   18.4233 C   0  0  0  0  0  0  0  0  0  0  0  0
  -27.5826  -38.2476   21.0683 C   0  0  0  0  0  0  0  0  0  0  0  0
  -28.4385  -35.6364   20.6266 C   0  0  0  0  0  0  0  0  0  0  0  0
  -27.3148  -29.8881   18.8377 C   0  0  0  0  0  0  0  0  0  0  0  0
  -29.8642  -21.7106   18.2261 C   0  0  0  0  0  0  0  0  0  0  0  0
  -22.9461   -8.3615   20.0932 C   0  0  0  0  0  0  0  0  0  0  0  0
  -23.3888   -8.5564   22.4603 C   0  0  0  0  0  0  0  0  0  0  0  0
  -28.0454  -28.7072   18.9621 C   0  0  0  0  0  0  0  0  0  0  0  0
  -20.2528   -7.3190   22.6939 C   0  0  0  0  0  0  0  0  0  0  0  0
  -19.3613   -7.2092   23.7610 C   0  0  0  0  0  0  0  0  0  0  0  0
  -30.2587  -22.0943   20.6089 C   0  0  0  0  0  0  0  0  0  0  0  0
  -26.7868  -28.1442   20.9416 C   0  0  0  0  0  0  0  0  0  0  0  0
  -20.7532   -5.4987   24.7479 C   0  0  0  0  0  0  0  0  0  0  0  0
  -24.0704  -10.3187   20.9547 C   0  0  0  0  0  0  0  0  0  0  0  0
  -29.9614  -19.8783   19.7151 C   0  0  0  0  0  0  0  0  0  0  0  0
  -30.1903  -20.7276   20.8035 C   0  0  0  0  0  0  0  0  0  0  0  0
  -24.0690  -12.8612   20.7465 C   0  0  0  0  0  0  0  0  0  0  0  0
  -27.0623  -37.2102   21.8581 C   0  0  0  0  0  0  0  0  0  0  0  0
  -26.3204  -30.2117   19.7720 C   0  0  0  0  0  0  0  0  0  0  0  0
  -27.5018  -35.8900   21.6430 C   0  0  0  0  0  0  0  0  0  0  0  0
  -26.0432  -29.3286   20.8253 C   0  0  0  0  0  0  0  0  0  0  0  0
  -30.0935  -22.5835   19.3074 C   0  0  0  0  0  0  0  0  0  0  0  0
  -22.8665   -7.8390   21.3841 C   0  0  0  0  0  0  0  0  0  0  0  0
  -27.7835  -27.8365   20.0158 C   0  0  0  0  0  0  0  0  0  0  0  0
  -21.3945   -6.5186   22.6537 C   0  0  0  0  0  0  0  0  0  0  0  0
  -19.6115   -6.2991   24.7880 C   0  0  0  0  0  0  0  0  0  0  0  0
  -21.6447   -5.6085   23.6807 C   0  0  0  0  0  0  0  0  0  0  0  0
  -24.6928  -11.5992   20.7335 C   0  0  0  0  0  0  0  0  0  0  0  0
  -25.0840  -13.7486   20.4844 C   0  0  0  0  0  0  0  0  0  0  0  0
  -30.3202  -19.9294   22.0193 C   0  0  0  0  0  0  0  0  0  0  0  0
  -29.9424  -18.5065   20.2340 C   0  0  0  0  0  0  0  0  0  0  0  0
  -29.0344  -24.6038   19.1578 C   0  0  0  0  0  0  0  0  0  0  0  0
  -22.6949  -13.2009   20.9751 C   0  0  0  0  0  0  0  0  0  0  0  0
  -25.8782  -32.5772   21.8487 C   0  0  0  0  0  0  0  0  0  0  0  0
  -30.2312  -17.6264   22.5171 C   0  0  0  0  0  0  0  0  0  0  0  0
  -30.3156  -15.4999   21.4079 C   0  0  0  0  0  0  0  0  0  0  0  0
  -23.0047  -31.1365   22.2836 C   0  0  0  0  0  0  0  0  0  0  0  0
  -21.1314  -28.2905   22.0881 C   0  0  0  0  0  0  0  0  0  0  0  0
  -26.0947  -37.5541   22.9628 C   0  0  0  0  0  0  0  0  0  0  0  0
  -25.5229  -31.4765   19.6085 C   0  0  0  0  0  0  0  0  0  0  0  0
  -24.9723  -29.6199   21.8434 C   0  0  0  0  0  0  0  0  0  0  0  0
  -25.3306  -36.3471   23.5008 C   0  0  0  0  0  0  0  0  0  0  0  0
  -29.8213  -12.9754   18.9134 C   0  0  0  0  0  0  0  0  0  0  0  0
  -26.2824  -35.1824   23.7544 C   0  0  0  0  0  0  0  0  0  0  0  0
  -28.4032  -12.4751   19.1849 C   0  0  0  0  0  0  0  0  0  0  0  0
  -30.5385  -13.3501   20.2066 C   0  0  0  0  0  0  0  0  0  0  0  0
  -28.3836  -13.8475   21.3160 C   0  0  0  0  0  0  0  0  0  0  0  0
  -26.9625  -34.7329   22.4556 C   0  0  1  0  0  0  0  0  0  0  0  0
  -24.8850  -31.9530   20.9098 C   0  0  1  0  0  0  0  0  0  0  0  0
  -27.6131  -13.4872   20.0335 C   0  0  2  0  0  0  0  0  0  0  0  0
  -18.8256  -27.4144   22.5493 C   0  0  0  0  0  0  0  0  0  0  0  0
  -23.6276  -31.0763   25.2700 C   0  0  0  0  0  0  0  0  0  0  0  0
  -21.7984  -29.3894   25.5466 C   0  0  0  0  0  0  0  0  0  0  0  0
  -21.2658  -31.6779   24.7088 C   0  0  0  0  0  0  0  0  0  0  0  0
  -20.7021  -27.5923   19.2443 C   0  0  0  0  0  0  0  0  0  0  0  0
  -28.9789  -26.0859   18.9376 C   0  0  0  0  0  0  0  0  0  1  0  0
  -29.4361  -16.4235   22.2124 C   0  0  0  0  0  0  0  0  0  0  0  0
  -22.4781  -30.0551   23.1959 C   0  0  1  0  0  0  0  0  0  0  0  0
  -19.7512  -28.0307   21.5120 C   0  0  2  0  0  0  0  0  0  0  0  0
  -22.3140  -30.5448   24.6624 C   0  0  0  0  0  0  0  0  0  0  0  0
  -26.0026  -11.6740   20.4828 N   0  0  0  0  0  0  0  0  0  0  0  0
  -30.1569  -23.9677   19.0742 N   0  0  0  0  0  0  0  0  0  0  0  0
  -26.2101  -12.9937   20.3358 N   0  0  0  0  0  0  0  0  0  0  0  0
  -30.1724  -18.6359   21.6652 N   0  0  0  0  0  0  0  0  0  0  0  0
  -24.2241  -30.8722   21.6442 N   0  0  0  0  0  0  0  0  0  0  0  0
  -29.7457  -14.2955   20.9945 N   0  0  0  0  0  0  0  0  0  0  0  0
  -25.1142  -15.0933   20.3687 N   0  0  0  0  0  0  0  0  0  0  0  0
  -21.7844  -12.1663   21.2298 N   0  0  0  0  0  0  0  0  0  0  0  0
  -26.0547  -33.9347   21.6598 N   0  0  0  0  0  0  0  0  0  0  0  0
  -21.2443  -29.5715   22.5858 N   0  0  0  0  0  0  0  0  0  0  0  0
  -30.5419  -20.4611   23.2123 N   0  3  0  0  0  0  0  0  0  0  0  0
  -30.9535  -17.6240   23.6284 N   0  3  0  0  0  0  0  0  0  0  0  0
  -19.8412  -27.1009   20.3508 N   0  3  0  0  0  0  0  0  0  0  0  0
  -29.7755  -17.4616   19.6410 O   0  0  0  0  0  0  0  0  0  0  0  0
  -22.2837  -14.3853   20.9378 O   0  0  0  0  0  0  0  0  0  0  0  0
  -26.4417  -31.8793   22.6836 O   0  0  0  0  0  0  0  0  0  0  0  0
  -31.4734  -15.8416   21.1529 O   0  0  0  0  0  0  0  0  0  0  0  0
  -22.3543  -32.1745   22.1379 O   0  0  0  0  0  0  0  0  0  0  0  0
  -22.0194  -27.4409   22.0990 O   0  0  0  0  0  0  0  0  0  0  0  0
  -22.2790   -6.6293   21.5939 O   0  0  0  0  0  0  0  0  0  0  0  0
  -28.4956  -26.6835   20.1400 O   0  0  0  0  0  0  0  0  0  1  0  0
  -18.7561   -6.1948   25.8135 F   0  0  0  0  0  0  0  0  0  0  0  0
  -22.7405   -4.8377   23.6482 F   0  0  0  0  0  0  0  0  0  0  0  0
  1  2  1  0  0  0  0
  1  6  2  0  0  0  0
  2  7  2  0  0  0  0
  3 10  2  0  0  0  0
  3 18  1  0  0  0  0
  4 11  1  0  0  0  0
  4 18  2  0  0  0  0
  5  9  2  0  0  0  0
  5 19  1  0  0  0  0
  6 22  1  0  0  0  0
  7 24  1  0  0  0  0
  8 12  2  0  0  0  0
  8 23  1  0  0  0  0
  9 26  1  0  0  0  0
 10 27  1  0  0  0  0
 11 27  2  0  0  0  0
 12 28  1  0  0  0  0
 13 14  2  0  0  0  0
 13 29  1  0  0  0  0
 14 30  1  0  0  0  0
 15 20  1  0  0  0  0
 15 26  2  0  0  0  0
 16 25  1  0  0  0  0
 16 28  2  0  0  0  0
 17 30  2  0  0  0  0
 17 31  1  0  0  0  0
 18 32  1  0  0  0  0
 19 20  2  0  0  0  0
 19 35  1  0  0  0  0
 20 34  1  0  0  0  0
 21 32  1  0  0  0  0
 21 33  2  0  0  0  0
 21 37  1  0  0  0  0
 22 24  2  0  0  0  0
 22 43  1  0  0  0  0
 23 25  2  0  0  0  0
 23 44  1  0  0  0  0
 24 52  1  0  0  0  0
 25 45  1  0  0  0  0
 26 66  1  0  0  0  0
 27 84  1  0  0  0  0
 28 85  1  0  0  0  0
 29 31  2  0  0  0  0
 29 84  1  0  0  0  0
 30 86  1  0  0  0  0
 31 87  1  0  0  0  0
 32 65  2  0  0  0  0
 33 67  1  0  0  0  0
 33 71  1  0  0  0  0
 34 68  1  0  0  0  0
 34 75  2  0  0  0  0
 35 68  1  0  0  0  0
 35 78  2  0  0  0  0
 36 60  1  0  0  0  0
 36 66  2  0  0  0  0
 37 72  1  0  0  0  0
 37 79  2  0  0  0  0
 38 53  1  0  0  0  0
 38 73  1  0  0  0  0
 38 80  2  0  0  0  0
 39 61  1  0  0  0  0
 39 68  1  0  0  0  0
 39 76  2  0  0  0  0
 40 61  1  0  0  0  0
 40 70  1  0  0  0  0
 40 81  2  0  0  0  0
 41 62  1  0  0  0  0
 41 69  1  0  0  0  0
 41 82  2  0  0  0  0
 42 63  1  0  0  0  0
 42 74  1  0  0  0  0
 42 83  2  0  0  0  0
 43 46  1  0  0  0  0
 44 53  1  0  0  0  0
 45 69  1  0  0  0  0
 46 48  1  0  0  0  0
 47 49  1  0  0  0  0
 47 50  1  0  0  0  0
 48 52  1  0  0  0  0
 49 54  1  0  0  0  0
 50 70  1  0  0  0  0
 51 54  1  0  0  0  0
 51 70  1  0  0  0  0
 52 73  1  0  0  0  0
 53 69  1  0  0  0  0
 54 67  1  0  0  0  0
 55 63  1  0  0  0  0
 56 64  1  0  0  0  0
 57 64  1  0  0  0  0
 58 64  1  0  0  0  0
 59 77  1  0  0  0  0
 60 85  1  0  0  0  0
 62 64  1  0  0  0  0
 62 74  1  0  0  0  0
 63 77  1  0  0  0  0
 65 67  1  0  0  0  0
M  CHG  3  75   1  76   1  77   1
M  ISO  4  40 100  60 101  61 100  85 101
M  END
> <Batch ID>
0084

> <Smiles>
CNC(C)C(=O)NC(C(=O)N1Cc2cc([101O:1][101CH:1]=CNc3ccc4c(c3)C(=N)N(C(=N)[100CH2:0][100C:0](=O)N3CCCC(n5nc(-c6ccc(Oc7ccc(F)cc7F)cc6)c(C(N)=O)c5N)C3)C4=O)ccc2CC1C(=O)NC1CCCc2ccccc21)C(C)(C)C

> <Shape>
0.396

> <Color>
0.223

> <Negative vol penalty>
0.000

$$$$

  -OEChem-04052300123D

 84 92  0     1  0  0  0  0  0999 V2000
  -15.3840  -24.4171   21.3109 C   0  0  0  0  0  0  0  0  0  0  0  0
  -16.7089  -23.9942   21.3468 C   0  0  0  0  0  0  0  0  0  0  0  0
  -32.6985  -17.4412   23.4456 C   0  0  0  0  0  0  0  0  0  0  0  0
  -23.0628   -9.8876   19.9431 C   0  0  0  0  0  0  0  0  0  0  0  0
  -23.8343   -9.8787   22.2326 C   0  0  0  0  0  0  0  0  0  0  0  0
  -31.9091  -18.3085   24.2006 C   0  0  0  0  0  0  0  0  0  0  0  0
  -15.0667  -25.7390   21.6204 C   0  0  0  0  0  0  0  0  0  0  0  0
  -17.7174  -24.8934   21.6913 C   0  0  0  0  0  0  0  0  0  0  0  0
  -21.0423  -22.9234   24.9638 C   0  0  0  0  0  0  0  0  0  0  0  0
  -32.1014  -16.5647   22.5396 C   0  0  0  0  0  0  0  0  0  0  0  0
  -22.3136   -8.7374   20.1911 C   0  0  0  0  0  0  0  0  0  0  0  0
  -23.0851   -8.7285   22.4806 C   0  0  0  0  0  0  0  0  0  0  0  0
  -22.0031  -22.0539   24.4495 C   0  0  0  0  0  0  0  0  0  0  0  0
  -19.8556   -7.9461   23.0956 C   0  0  0  0  0  0  0  0  0  0  0  0
  -19.1043   -7.9045   24.2701 C   0  0  0  0  0  0  0  0  0  0  0  0
  -29.9252  -17.4227   23.1438 C   0  0  0  0  0  0  0  0  0  0  0  0
  -23.6189  -23.8450   24.4562 C   0  0  0  0  0  0  0  0  0  0  0  0
  -20.3384   -5.9564   24.9905 C   0  0  0  0  0  0  0  0  0  0  0  0
  -23.8232  -10.4582   20.9639 C   0  0  0  0  0  0  0  0  0  0  0  0
  -30.5224  -18.2993   24.0498 C   0  0  0  0  0  0  0  0  0  0  0  0
  -24.1788  -12.9819   20.8548 C   0  0  0  0  0  0  0  0  0  0  0  0
  -16.0708  -26.6524   21.9782 C   0  0  0  0  0  0  0  0  0  0  0  0
  -21.3601  -24.2652   25.2184 C   0  0  0  0  0  0  0  0  0  0  0  0
  -17.4134  -26.2292   22.0046 C   0  0  0  0  0  0  0  0  0  0  0  0
  -22.6610  -24.7289   24.9762 C   0  0  0  0  0  0  0  0  0  0  0  0
  -30.7147  -16.5554   22.3887 C   0  0  0  0  0  0  0  0  0  0  0  0
  -22.3248   -8.1579   21.4598 C   0  0  0  0  0  0  0  0  0  0  0  0
  -23.2908  -22.5153   24.1929 C   0  0  0  0  0  0  0  0  0  0  0  0
  -20.8482   -6.9927   22.8685 C   0  0  0  0  0  0  0  0  0  0  0  0
  -19.3458   -6.9097   25.2176 C   0  0  0  0  0  0  0  0  0  0  0  0
  -21.0896   -5.9979   23.8159 C   0  0  0  0  0  0  0  0  0  0  0  0
  -24.5978  -11.6459   20.7082 C   0  0  0  0  0  0  0  0  0  0  0  0
  -25.2734  -13.7270   20.4897 C   0  0  0  0  0  0  0  0  0  0  0  0
  -26.3442  -20.6469   24.0179 C   0  0  0  0  0  0  0  0  0  0  0  0
  -25.3643  -21.4578   24.4233 C   0  0  0  0  0  0  0  0  0  1  0  0
  -29.6831  -19.2233   24.8543 C   0  0  0  0  0  0  0  0  0  0  0  0
  -22.9134  -13.5028   21.2827 C   0  0  0  0  0  0  0  0  0  0  0  0
  -27.5530  -20.4628   24.8658 C   0  0  0  0  0  0  0  0  0  0  0  0
  -20.3278  -27.0628   24.1175 C   0  0  0  0  0  0  0  0  0  0  0  0
  -22.2770  -28.2483   26.4235 C   0  0  0  0  0  0  0  0  0  0  0  0
  -24.9896  -27.7882   28.4426 C   0  0  0  0  0  0  0  0  0  0  0  0
  -30.7463  -14.7406   20.6418 C   0  0  0  0  0  0  0  0  0  0  0  0
  -15.6844  -28.0830   22.2586 C   0  0  0  0  0  0  0  0  0  0  0  0
  -20.3197  -25.1838   25.7983 C   0  0  0  0  0  0  0  0  0  0  0  0
  -23.0586  -26.1553   25.2514 C   0  0  0  0  0  0  0  0  0  0  0  0
  -16.7713  -28.8778   22.9779 C   0  0  0  0  0  0  0  0  0  0  0  0
  -29.6061  -12.3451   18.2671 C   0  0  0  0  0  0  0  0  0  0  0  0
  -18.1272  -28.6453   22.3189 C   0  0  0  0  0  0  0  0  0  0  0  0
  -28.1670  -12.0596   18.7026 C   0  0  0  0  0  0  0  0  0  0  0  0
  -30.5286  -12.5627   19.4652 C   0  0  0  0  0  0  0  0  0  0  0  0
  -28.6328  -13.2910   20.8598 C   0  0  0  0  0  0  0  0  0  0  0  0
  -18.5329  -27.1685   22.3976 C   0  0  1  0  0  0  0  0  0  0  0  0
  -20.6115  -26.6581   25.5364 C   0  0  1  0  0  0  0  0  0  0  0  0
  -27.6531  -13.1292   19.6861 C   0  0  2  0  0  0  0  0  0  0  0  0
  -26.3613  -28.9496   30.1940 C   0  0  0  0  0  0  0  0  0  0  0  0
  -23.5936  -29.9503   24.2602 C   0  0  0  0  0  0  0  0  0  0  0  0
  -25.5053  -30.3410   25.8290 C   0  0  0  0  0  0  0  0  0  0  0  0
  -23.2175  -31.1316   26.4321 C   0  0  0  0  0  0  0  0  0  0  0  0
  -24.3662  -25.7214   30.4671 C   0  0  0  0  0  0  0  0  0  0  0  0
  -23.7289  -28.6563   26.4903 C   0  0  1  0  0  0  0  0  0  0  0  0
  -25.1887  -28.0178   29.9299 C   0  0  2  0  0  0  0  0  0  0  0  0
  -24.0036  -29.9934   25.7458 C   0  0  0  0  0  0  0  0  0  0  0  0
  -25.8599  -11.5450   20.2830 N   0  0  0  0  0  0  0  0  0  0  0  0
  -26.2435  -12.8271   20.1592 N   0  0  0  0  0  0  0  0  0  0  0  0
  -22.0043  -27.0163   25.8123 N   0  0  0  0  0  0  0  0  0  0  0  0
  -29.9800  -13.5922   20.3506 N   0  0  0  0  0  0  0  0  0  0  0  0
  -25.4910  -15.0576   20.4223 N   0  0  0  0  0  0  0  0  0  0  0  0
  -21.8981  -12.5977   21.6206 N   0  0  0  0  0  0  0  0  0  0  0  0
  -30.1083  -15.6652   21.4681 N   0  0  0  0  0  0  0  0  0  0  0  0
  -28.4637  -19.5840   24.2824 N   0  0  0  0  0  0  0  0  0  0  0  0
  -19.0213  -26.8485   23.7218 N   0  0  0  0  0  0  0  0  0  0  0  0
  -24.0824  -28.6770   27.9056 N   0  0  0  0  0  0  0  0  0  0  0  0
  -25.4505  -26.7248   30.6232 N   0  3  0  0  0  0  0  0  0  0  0  0
  -30.1069  -19.6286   25.9333 O   0  0  0  0  0  0  0  0  0  0  0  0
  -22.6845  -14.7345   21.3474 O   0  0  0  0  0  0  0  0  0  0  0  0
  -27.6929  -21.0317   25.9436 O   0  0  0  0  0  0  0  0  0  0  0  0
  -21.2273  -27.5358   23.4328 O   0  0  0  0  0  0  0  0  0  0  0  0
  -21.4172  -28.9919   26.9025 O   0  0  0  0  0  0  0  0  0  0  0  0
  -25.5825  -26.9109   27.8188 O   0  0  0  0  0  0  0  0  0  0  0  0
  -31.8739  -14.9053   20.1692 O   0  0  0  0  0  0  0  0  0  0  0  0
  -21.5936   -7.0357   21.7022 O   0  0  0  0  0  0  0  0  0  0  0  0
  -24.2304  -21.6689   23.6902 O   0  0  0  0  0  0  0  0  0  1  0  0
  -18.6253   -6.8709   26.3461 F   0  0  0  0  0  0  0  0  0  0  0  0
  -22.0426   -5.0800   23.6039 F   0  0  0  0  0  0  0  0  0  0  0  0
  1  2  1  0  0  0  0
  1  7  2  0  0  0  0
  2  8  2  0  0  0  0
  3  6  2  0  0  0  0
  3 10  1  0  0  0  0
  4 11  2  0  0  0  0
  4 19  1  0  0  0  0
  5 12  1  0  0  0  0
  5 19  2  0  0  0  0
  6 20  1  0  0  0  0
  7 22  1  0  0  0  0
  8 24  1  0  0  0  0
  9 13  2  0  0  0  0
  9 23  1  0  0  0  0
 10 26  2  0  0  0  0
 11 27  1  0  0  0  0
 12 27  2  0  0  0  0
 13 28  1  0  0  0  0
 14 15  2  0  0  0  0
 14 29  1  0  0  0  0
 15 30  1  0  0  0  0
 16 20  2  0  0  0  0
 16 26  1  0  0  0  0
 17 25  1  0  0  0  0
 17 28  2  0  0  0  0
 18 30  2  0  0  0  0
 18 31  1  0  0  0  0
 19 32  1  0  0  0  0
 20 36  1  0  0  0  0
 21 32  1  0  0  0  0
 21 33  2  0  0  0  0
 21 37  1  0  0  0  0
 22 24  2  0  0  0  0
 22 43  1  0  0  0  0
 23 25  2  0  0  0  0
 23 44  1  0  0  0  0
 24 52  1  0  0  0  0
 25 45  1  0  0  0  0
 26 69  1  0  0  0  0
 27 81  1  0  0  0  0
 28 82  1  0  0  0  0
 29 31  2  0  0  0  0
 29 81  1  0  0  0  0
 30 83  1  0  0  0  0
 31 84  1  0  0  0  0
 32 63  2  0  0  0  0
 33 64  1  0  0  0  0
 33 67  1  0  0  0  0
 34 35  2  0  0  0  0
 34 38  1  0  0  0  0
 35 82  1  0  0  0  0
 36 70  1  0  0  0  0
 36 74  2  0  0  0  0
 37 68  1  0  0  0  0
 37 75  2  0  0  0  0
 38 70  1  0  0  0  0
 38 76  2  0  0  0  0
 39 53  1  0  0  0  0
 39 71  1  0  0  0  0
 39 77  2  0  0  0  0
 40 60  1  0  0  0  0
 40 65  1  0  0  0  0
 40 78  2  0  0  0  0
 41 61  1  0  0  0  0
 41 72  1  0  0  0  0
 41 79  2  0  0  0  0
 42 66  1  0  0  0  0
 42 69  1  0  0  0  0
 42 80  2  0  0  0  0
 43 46  1  0  0  0  0
 44 53  1  0  0  0  0
 45 65  1  0  0  0  0
 46 48  1  0  0  0  0
 47 49  1  0  0  0  0
 47 50  1  0  0  0  0
 48 52  1  0  0  0  0
 49 54  1  0  0  0  0
 50 66  1  0  0  0  0
 51 54  1  0  0  0  0
 51 66  1  0  0  0  0
 52 71  1  0  0  0  0
 53 65  1  0  0  0  0
 54 64  1  0  0  0  0
 55 61  1  0  0  0  0
 56 62  1  0  0  0  0
 57 62  1  0  0  0  0
 58 62  1  0  0  0  0
 59 73  1  0  0  0  0
 60 62  1  0  0  0  0
 60 72  1  0  0  0  0
 61 73  1  0  0  0  0
 63 64  1  0  0  0  0
M  CHG  1  73   1
M  ISO  4  35 101  42 100  69 100  82 101
M  END
> <Batch ID>
0084

> <Smiles>
CNC(C)C(=O)NC(C(=O)N1Cc2cc([101O:1][101CH:1]=CC(=O)NC(=O)c3cccc([100NH:0][100C:0](=O)N4CCCC(n5nc(-c6ccc(Oc7ccc(F)cc7F)cc6)c(C(N)=O)c5N)C4)c3)ccc2CC1C(=O)NC1CCCc2ccccc21)C(C)(C)C

> <Shape>
0.232

> <Color>
0.188

> <Negative vol penalty>
0.000

$$$$

  -OEChem-04052300123D

 83 92  0     1  0  0  0  0  0999 V2000
  -31.7061  -34.3265   22.3121 C   0  0  0  0  0  0  0  0  0  0  0  0
  -31.4129  -33.0942   21.7367 C   0  0  0  0  0  0  0  0  0  0  0  0
  -23.4334  -18.2740   16.2350 C   0  0  0  0  0  0  0  0  0  0  0  0
  -24.6694   -9.1822   21.8871 C   0  0  0  0  0  0  0  0  0  0  0  0
  -23.1915  -10.0101   20.1645 C   0  0  0  0  0  0  0  0  0  0  0  0
  -31.0048  -34.7528   23.4392 C   0  0  0  0  0  0  0  0  0  0  0  0
  -30.4190  -32.2870   22.2889 C   0  0  0  0  0  0  0  0  0  0  0  0
  -26.5819  -28.5883   19.2719 C   0  0  0  0  0  0  0  0  0  0  0  0
  -23.5500  -19.5998   16.6524 C   0  0  0  0  0  0  0  0  0  0  0  0
  -24.2991  -17.3046   16.7414 C   0  0  0  0  0  0  0  0  0  0  0  0
  -23.5839   -8.5931   22.5354 C   0  0  0  0  0  0  0  0  0  0  0  0
  -22.1059   -9.4210   20.8127 C   0  0  0  0  0  0  0  0  0  0  0  0
  -26.5986  -27.2154   19.0298 C   0  0  0  0  0  0  0  0  0  0  0  0
  -21.6893   -5.8131   22.1963 C   0  0  0  0  0  0  0  0  0  0  0  0
  -21.8422   -4.5064   22.6597 C   0  0  0  0  0  0  0  0  0  0  0  0
  -25.1507  -26.8692   20.9279 C   0  0  0  0  0  0  0  0  0  0  0  0
  -25.3983  -18.9869   18.0826 C   0  0  0  0  0  0  0  0  0  0  0  0
  -21.4064   -5.2554   24.9150 C   0  0  0  0  0  0  0  0  0  0  0  0
  -24.4732   -9.8908   20.7017 C   0  0  0  0  0  0  0  0  0  0  0  0
  -26.4150   -9.9179   19.0476 C   0  0  0  0  0  0  0  0  0  0  0  0
  -29.9951  -33.9547   23.9997 C   0  0  0  0  0  0  0  0  0  0  0  0
  -25.8571  -29.1118   20.3521 C   0  0  0  0  0  0  0  0  0  0  0  0
  -29.7044  -32.7025   23.4254 C   0  0  0  0  0  0  0  0  0  0  0  0
  -25.1244  -28.2494   21.1800 C   0  0  0  0  0  0  0  0  0  0  0  0
  -24.5324  -19.9562   17.5762 C   0  0  0  0  0  0  0  0  0  0  0  0
  -25.2816  -17.6610   17.6652 C   0  0  0  0  0  0  0  0  0  0  0  0
  -22.3021   -8.7125   21.9982 C   0  0  0  0  0  0  0  0  0  0  0  0
  -25.8853  -26.3553   19.8596 C   0  0  0  0  0  0  0  0  0  0  0  0
  -21.3950   -6.8410   23.0921 C   0  0  0  0  0  0  0  0  0  0  0  0
  -21.7007   -4.2276   24.0191 C   0  0  0  0  0  0  0  0  0  0  0  0
  -21.2535   -6.5621   24.4515 C   0  0  0  0  0  0  0  0  0  0  0  0
  -25.5941  -10.5000   20.0320 C   0  0  0  0  0  0  0  0  0  0  0  0
  -27.3255  -10.8980   18.7363 C   0  0  0  0  0  0  0  0  0  0  0  0
  -24.8600  -23.1857   18.5014 C   0  0  0  0  0  0  0  0  0  0  0  0
  -23.9577  -22.3879   17.6702 C   0  0  0  0  0  0  0  0  0  0  0  0
  -24.9417  -24.4943   18.8027 C   0  0  0  0  0  0  0  0  0  1  0  0
  -26.3595   -8.6084   18.4664 C   0  0  0  0  0  0  0  0  0  0  0  0
  -26.6060  -30.7398   22.9775 C   0  0  0  0  0  0  0  0  0  0  0  0
  -23.3853  -30.8884   23.3340 C   0  0  0  0  0  0  0  0  0  0  0  0
  -20.3281  -29.5406   22.6384 C   0  0  0  0  0  0  0  0  0  0  0  0
  -27.1899  -16.8607   19.1019 C   0  0  0  0  0  0  0  0  0  0  0  0
  -29.2968  -34.4369   25.2465 C   0  0  0  0  0  0  0  0  0  0  0  0
  -25.8276  -30.5977   20.5838 C   0  0  0  0  0  0  0  0  0  0  0  0
  -24.3139  -28.7631   22.3409 C   0  0  0  0  0  0  0  0  0  0  0  0
  -25.6178  -21.9232   18.8428 C   0  0  0  0  0  0  0  0  0  0  0  0
  -28.0011  -33.6879   25.5473 C   0  0  0  0  0  0  0  0  0  0  0  0
  -29.5494  -14.6858   20.6445 C   0  0  0  0  0  0  0  0  0  0  0  0
  -28.2106  -32.1831   25.4115 C   0  0  0  0  0  0  0  0  0  0  0  0
  -28.8803  -13.3116   20.5675 C   0  0  0  0  0  0  0  0  0  0  0  0
  -28.5338  -15.7976   20.9016 C   0  0  0  0  0  0  0  0  0  0  0  0
  -26.7308  -14.4564   19.8919 C   0  0  0  0  0  0  0  0  0  0  0  0
  -28.6161  -31.8095   23.9806 C   0  0  1  0  0  0  0  0  0  0  0  0
  -25.4720  -30.9717   22.0194 C   0  0  1  0  0  0  0  0  0  0  0  0
  -27.7056  -13.3120   19.5696 C   0  0  2  0  0  0  0  0  0  0  0  0
  -17.8826  -29.8610   23.1011 C   0  0  0  0  0  0  0  0  0  0  0  0
  -23.7683  -29.7449   26.1368 C   0  0  0  0  0  0  0  0  0  0  0  0
  -21.3237  -29.2058   26.1754 C   0  0  0  0  0  0  0  0  0  0  0  0
  -22.0732  -31.5771   25.9802 C   0  0  0  0  0  0  0  0  0  0  0  0
  -19.7168  -29.9249   19.7683 C   0  0  0  0  0  0  0  0  0  0  0  0
  -22.3427  -30.0252   24.0025 C   0  0  1  0  0  0  0  0  0  0  0  0
  -19.0342  -30.1728   22.1581 C   0  0  2  0  0  0  0  0  0  0  0  0
  -22.3937  -30.1281   25.5531 C   0  0  0  0  0  0  0  0  0  0  0  0
  -25.9515  -11.7527   20.3267 N   0  0  0  0  0  0  0  0  0  0  0  0
  -27.0072  -11.9659   19.5228 N   0  0  0  0  0  0  0  0  0  0  0  0
  -24.6466  -21.2638   17.9878 N   0  0  0  0  0  0  0  0  0  0  0  0
  -24.3218  -30.2231   22.5301 N   0  0  0  0  0  0  0  0  0  0  0  0
  -27.4526  -15.7383   19.9155 N   0  0  0  0  0  0  0  0  0  0  0  0
  -28.3594  -10.9420   17.8694 N   0  0  0  0  0  0  0  0  0  0  0  0
  -25.3605   -7.7265   18.9007 N   0  0  0  0  0  0  0  0  0  0  0  0
  -26.1607  -16.6758   18.1793 N   0  0  0  0  0  0  0  0  0  0  0  0
  -27.4606  -31.8177   23.1093 N   0  0  0  0  0  0  0  0  0  0  0  0
  -21.0611  -30.4083   23.4201 N   0  0  0  0  0  0  0  0  0  0  0  0
  -18.6819  -29.6652   20.8020 N   0  3  0  0  0  0  0  0  0  0  0  0
  -22.9957  -22.6276   16.9706 O   0  0  0  0  0  0  0  0  0  0  0  0
  -27.1819   -8.2258   17.5999 O   0  0  0  0  0  0  0  0  0  0  0  0
  -26.6981  -29.6631   23.5555 O   0  0  0  0  0  0  0  0  0  0  0  0
  -23.3651  -32.1088   23.5126 O   0  0  0  0  0  0  0  0  0  0  0  0
  -20.6541  -28.3907   22.3519 O   0  0  0  0  0  0  0  0  0  0  0  0
  -27.8488  -17.8994   19.1967 O   0  0  0  0  0  0  0  0  0  0  0  0
  -21.2427   -8.1376   22.6303 O   0  0  0  0  0  0  0  0  0  0  0  0
  -25.9004  -25.0148   19.6260 O   0  0  0  0  0  0  0  0  0  1  0  0
  -21.8461   -2.9725   24.4639 F   0  0  0  0  0  0  0  0  0  0  0  0
  -20.9696   -7.5452   25.3168 F   0  0  0  0  0  0  0  0  0  0  0  0
  1  2  1  0  0  0  0
  1  6  2  0  0  0  0
  2  7  2  0  0  0  0
  3  9  2  0  0  0  0
  3 10  1  0  0  0  0
  4 11  2  0  0  0  0
  4 19  1  0  0  0  0
  5 12  1  0  0  0  0
  5 19  2  0  0  0  0
  6 21  1  0  0  0  0
  7 23  1  0  0  0  0
  8 13  2  0  0  0  0
  8 22  1  0  0  0  0
  9 25  1  0  0  0  0
 10 26  2  0  0  0  0
 11 27  1  0  0  0  0
 12 27  2  0  0  0  0
 13 28  1  0  0  0  0
 14 15  2  0  0  0  0
 14 29  1  0  0  0  0
 15 30  1  0  0  0  0
 16 24  1  0  0  0  0
 16 28  2  0  0  0  0
 17 25  2  0  0  0  0
 17 26  1  0  0  0  0
 18 30  2  0  0  0  0
 18 31  1  0  0  0  0
 19 32  1  0  0  0  0
 20 32  1  0  0  0  0
 20 33  2  0  0  0  0
 20 37  1  0  0  0  0
 21 23  2  0  0  0  0
 21 42  1  0  0  0  0
 22 24  2  0  0  0  0
 22 43  1  0  0  0  0
 23 52  1  0  0  0  0
 24 44  1  0  0  0  0
 25 65  1  0  0  0  0
 26 70  1  0  0  0  0
 27 80  1  0  0  0  0
 28 81  1  0  0  0  0
 29 31  2  0  0  0  0
 29 80  1  0  0  0  0
 30 82  1  0  0  0  0
 31 83  1  0  0  0  0
 32 63  2  0  0  0  0
 33 64  1  0  0  0  0
 33 68  1  0  0  0  0
 34 35  1  0  0  0  0
 34 36  2  0  0  0  0
 34 45  1  0  0  0  0
 35 65  1  0  0  0  0
 35 74  2  0  0  0  0
 36 81  1  0  0  0  0
 37 69  1  0  0  0  0
 37 75  2  0  0  0  0
 38 53  1  0  0  0  0
 38 71  1  0  0  0  0
 38 76  2  0  0  0  0
 39 60  1  0  0  0  0
 39 66  1  0  0  0  0
 39 77  2  0  0  0  0
 40 61  1  0  0  0  0
 40 72  1  0  0  0  0
 40 78  2  0  0  0  0
 41 67  1  0  0  0  0
 41 70  1  0  0  0  0
 41 79  2  0  0  0  0
 42 46  1  0  0  0  0
 43 53  1  0  0  0  0
 44 66  1  0  0  0  0
 45 65  1  0  0  0  0
 46 48  1  0  0  0  0
 47 49  1  0  0  0  0
 47 50  1  0  0  0  0
 48 52  1  0  0  0  0
 49 54  1  0  0  0  0
 50 67  1  0  0  0  0
 51 54  1  0  0  0  0
 51 67  1  0  0  0  0
 52 71  1  0  0  0  0
 53 66  1  0  0  0  0
 54 64  1  0  0  0  0
 55 61  1  0  0  0  0
 56 62  1  0  0  0  0
 57 62  1  0  0  0  0
 58 62  1  0  0  0  0
 59 73  1  0  0  0  0
 60 62  1  0  0  0  0
 60 72  1  0  0  0  0
 61 73  1  0  0  0  0
 63 64  1  0  0  0  0
M  CHG  1  73   1
M  ISO  4  36 101  41 100  70 100  81 101
M  END
> <Batch ID>
0084

> <Smiles>
CNC(C)C(=O)NC(C(=O)N1Cc2cc([101O:1][101CH:1]=C3CN(c4cccc([100NH:0][100C:0](=O)N5CCCC(n6nc(-c7ccc(Oc8ccc(F)cc8F)cc7)c(C(N)=O)c6N)C5)c4)C3=O)ccc2CC1C(=O)NC1CCCc2ccccc21)C(C)(C)C

> <Shape>
0.244

> <Color>
0.100

> <Negative vol penalty>
0.000

$$$$

  -OEChem-04052300123D

 84 93  0     1  0  0  0  0  0999 V2000
  -27.3341  -37.7069   23.9876 C   0  0  0  0  0  0  0  0  0  0  0  0
  -27.9373  -36.7668   23.1584 C   0  0  0  0  0  0  0  0  0  0  0  0
  -24.1630   -9.2402   22.0647 C   0  0  0  0  0  0  0  0  0  0  0  0
  -22.8923  -11.2091   21.4768 C   0  0  0  0  0  0  0  0  0  0  0  0
  -26.4219  -37.2953   24.9583 C   0  0  0  0  0  0  0  0  0  0  0  0
  -27.6294  -35.4142   23.3001 C   0  0  0  0  0  0  0  0  0  0  0  0
  -26.9360  -29.4132   19.4500 C   0  0  0  0  0  0  0  0  0  0  0  0
  -28.5332  -19.7600   19.8523 C   0  0  0  0  0  0  0  0  0  0  0  0
  -28.7962  -18.3984   19.7020 C   0  0  0  0  0  0  0  0  0  0  0  0
  -23.2690   -8.9728   23.1014 C   0  0  0  0  0  0  0  0  0  0  0  0
  -21.9982  -10.9417   22.5135 C   0  0  0  0  0  0  0  0  0  0  0  0
  -27.3835  -28.0930   19.4231 C   0  0  0  0  0  0  0  0  0  0  0  0
  -20.1833   -7.6341   23.4465 C   0  0  0  0  0  0  0  0  0  0  0  0
  -19.7373   -6.3209   23.5952 C   0  0  0  0  0  0  0  0  0  0  0  0
  -25.7331  -27.5063   21.0818 C   0  0  0  0  0  0  0  0  0  0  0  0
  -26.2709  -19.4082   19.0805 C   0  0  0  0  0  0  0  0  0  0  0  0
  -20.6693   -6.2567   25.8233 C   0  0  0  0  0  0  0  0  0  0  0  0
  -23.9747  -10.3585   21.2524 C   0  0  0  0  0  0  0  0  0  0  0  0
  -24.8162  -10.1853   18.8504 C   0  0  0  0  0  0  0  0  0  0  0  0
  -26.0953  -35.9380   25.1056 C   0  0  0  0  0  0  0  0  0  0  0  0
  -25.8893  -29.7927   20.3024 C   0  0  0  0  0  0  0  0  0  0  0  0
  -26.7129  -34.9838   24.2746 C   0  0  0  0  0  0  0  0  0  0  0  0
  -25.2725  -28.8313   21.1158 C   0  0  0  0  0  0  0  0  0  0  0  0
  -27.2705  -20.2649   19.5415 C   0  0  0  0  0  0  0  0  0  0  0  0
  -27.7966  -17.5417   19.2410 C   0  0  0  0  0  0  0  0  0  0  0  0
  -26.5339  -18.0466   18.9302 C   0  0  0  0  0  0  0  0  0  0  0  0
  -22.1866   -9.8235   23.3258 C   0  0  0  0  0  0  0  0  0  0  0  0
  -26.7839  -27.1399   20.2412 C   0  0  0  0  0  0  0  0  0  0  0  0
  -20.8724   -8.2586   24.4861 C   0  0  0  0  0  0  0  0  0  0  0  0
  -19.9802   -5.6322   24.7836 C   0  0  0  0  0  0  0  0  0  0  0  0
  -21.1153   -7.5699   25.6745 C   0  0  0  0  0  0  0  0  0  0  0  0
  -24.8983  -10.6356   20.1817 C   0  0  0  0  0  0  0  0  0  0  0  0
  -25.9242  -10.7188   18.2387 C   0  0  0  0  0  0  0  0  0  0  0  0
  -26.6461  -23.5712   19.8078 C   0  0  0  0  0  0  0  0  0  0  0  0
  -25.9028  -22.3568   19.4696 C   0  0  0  0  0  0  0  0  0  0  0  0
  -26.3272  -24.8770   19.8653 C   0  0  0  0  0  0  0  0  0  1  0  0
  -23.8269   -9.3589   18.2229 C   0  0  0  0  0  0  0  0  0  0  0  0
  -25.6022  -31.8107   22.7415 C   0  0  0  0  0  0  0  0  0  0  0  0
  -22.4654  -31.0126   22.5266 C   0  0  0  0  0  0  0  0  0  0  0  0
  -20.1139  -28.7452   21.5388 C   0  0  0  0  0  0  0  0  0  0  0  0
  -29.2958  -15.5212   19.3676 C   0  0  0  0  0  0  0  0  0  0  0  0
  -25.1391  -35.5361   26.2005 C   0  0  0  0  0  0  0  0  0  0  0  0
  -25.4005  -31.2152   20.3000 C   0  0  0  0  0  0  0  0  0  0  0  0
  -24.1316  -29.1833   22.0338 C   0  0  0  0  0  0  0  0  0  0  0  0
  -27.8728  -22.7211   20.0467 C   0  0  0  0  0  0  0  0  0  0  0  0
  -24.5849  -34.1231   26.0368 C   0  0  0  0  0  0  0  0  0  0  0  0
  -30.3996  -12.1414   19.1773 C   0  0  0  0  0  0  0  0  0  0  0  0
  -25.7073  -33.1444   25.7067 C   0  0  0  0  0  0  0  0  0  0  0  0
  -29.1060  -11.3309   19.2860 C   0  0  0  0  0  0  0  0  0  0  0  0
  -30.3642  -13.3873   20.0606 C   0  0  0  0  0  0  0  0  0  0  0  0
  -27.9029  -13.4450   19.9716 C   0  0  0  0  0  0  0  0  0  0  0  0
  -26.3861  -33.5101   24.3811 C   0  0  1  0  0  0  0  0  0  0  0  0
  -24.6692  -31.5979   21.5830 C   0  0  1  0  0  0  0  0  0  0  0  0
  -27.8656  -12.2149   19.0502 C   0  0  2  0  0  0  0  0  0  0  0  0
  -17.6351  -28.3542   21.5315 C   0  0  0  0  0  0  0  0  0  0  0  0
  -22.5704  -30.3078   25.4934 C   0  0  0  0  0  0  0  0  0  0  0  0
  -20.4186  -29.0617   25.2022 C   0  0  0  0  0  0  0  0  0  0  0  0
  -20.5015  -31.5191   24.7816 C   0  0  0  0  0  0  0  0  0  0  0  0
  -20.0198  -28.6545   18.5821 C   0  0  0  0  0  0  0  0  0  0  0  0
  -21.5907  -29.9420   23.1328 C   0  0  1  0  0  0  0  0  0  0  0  0
  -18.8218  -28.9089   20.7590 C   0  0  2  0  0  0  0  0  0  0  0  0
  -21.2931  -30.2011   24.6367 C   0  0  0  0  0  0  0  0  0  0  0  0
  -25.9735  -11.3963   20.4034 N   0  0  0  0  0  0  0  0  0  0  0  0
  -26.5773  -11.4282   19.2032 N   0  0  0  0  0  0  0  0  0  0  0  0
  -27.0114  -21.6077   19.6900 N   0  0  0  0  0  0  0  0  0  0  0  0
  -23.6938  -30.5886   22.0002 N   0  0  0  0  0  0  0  0  0  0  0  0
  -29.1640  -14.1779   19.7789 N   0  0  0  0  0  0  0  0  0  0  0  0
  -25.5068  -17.1966   18.4620 N   0  0  0  0  0  0  0  0  0  0  0  0
  -26.3939  -10.6454   16.9751 N   0  0  0  0  0  0  0  0  0  0  0  0
  -22.7538   -8.8966   18.9969 N   0  0  0  0  0  0  0  0  0  0  0  0
  -28.0875  -16.1625   19.0969 N   0  0  0  0  0  0  0  0  0  0  0  0
  -25.5695  -33.0901   23.2625 N   0  0  0  0  0  0  0  0  0  0  0  0
  -20.4004  -29.8633   22.2930 N   0  0  0  0  0  0  0  0  0  0  0  0
  -18.9096  -28.1931   19.4548 N   0  3  0  0  0  0  0  0  0  0  0  0
  -24.7664  -22.1133   19.1208 O   0  0  0  0  0  0  0  0  0  0  0  0
  -23.9012   -9.0263   17.0157 O   0  0  0  0  0  0  0  0  0  0  0  0
  -26.2990  -30.8824   23.1345 O   0  0  0  0  0  0  0  0  0  0  0  0
  -22.0701  -32.1811   22.5139 O   0  0  0  0  0  0  0  0  0  0  0  0
  -20.7986  -27.7258   21.4870 O   0  0  0  0  0  0  0  0  0  0  0  0
  -30.4006  -16.0545   19.2370 O   0  0  0  0  0  0  0  0  0  0  0  0
  -21.3139   -9.5626   24.3372 O   0  0  0  0  0  0  0  0  0  0  0  0
  -27.2191  -25.8508   20.2175 O   0  0  0  0  0  0  0  0  0  1  0  0
  -19.5505   -4.3716   24.9269 F   0  0  0  0  0  0  0  0  0  0  0  0
  -21.7758   -8.1650   26.6773 F   0  0  0  0  0  0  0  0  0  0  0  0
  1  2  1  0  0  0  0
  1  5  2  0  0  0  0
  2  6  2  0  0  0  0
  3 10  2  0  0  0  0
  3 18  1  0  0  0  0
  4 11  1  0  0  0  0
  4 18  2  0  0  0  0
  5 20  1  0  0  0  0
  6 22  1  0  0  0  0
  7 12  2  0  0  0  0
  7 21  1  0  0  0  0
  8  9  2  0  0  0  0
  8 24  1  0  0  0  0
  9 25  1  0  0  0  0
 10 27  1  0  0  0  0
 11 27  2  0  0  0  0
 12 28  1  0  0  0  0
 13 14  2  0  0  0  0
 13 29  1  0  0  0  0
 14 30  1  0  0  0  0
 15 23  1  0  0  0  0
 15 28  2  0  0  0  0
 16 24  2  0  0  0  0
 16 26  1  0  0  0  0
 17 30  2  0  0  0  0
 17 31  1  0  0  0  0
 18 32  1  0  0  0  0
 19 32  1  0  0  0  0
 19 33  2  0  0  0  0
 19 37  1  0  0  0  0
 20 22  2  0  0  0  0
 20 42  1  0  0  0  0
 21 23  2  0  0  0  0
 21 43  1  0  0  0  0
 22 52  1  0  0  0  0
 23 44  1  0  0  0  0
 24 65  1  0  0  0  0
 25 26  2  0  0  0  0
 25 71  1  0  0  0  0
 26 68  1  0  0  0  0
 27 81  1  0  0  0  0
 28 82  1  0  0  0  0
 29 31  2  0  0  0  0
 29 81  1  0  0  0  0
 30 83  1  0  0  0  0
 31 84  1  0  0  0  0
 32 63  2  0  0  0  0
 33 64  1  0  0  0  0
 33 69  1  0  0  0  0
 34 35  1  0  0  0  0
 34 36  2  0  0  0  0
 34 45  1  0  0  0  0
 35 65  1  0  0  0  0
 35 75  2  0  0  0  0
 36 82  1  0  0  0  0
 37 70  1  0  0  0  0
 37 76  2  0  0  0  0
 38 53  1  0  0  0  0
 38 72  1  0  0  0  0
 38 77  2  0  0  0  0
 39 60  1  0  0  0  0
 39 66  1  0  0  0  0
 39 78  2  0  0  0  0
 40 61  1  0  0  0  0
 40 73  1  0  0  0  0
 40 79  2  0  0  0  0
 41 67  1  0  0  0  0
 41 71  1  0  0  0  0
 41 80  2  0  0  0  0
 42 46  1  0  0  0  0
 43 53  1  0  0  0  0
 44 66  1  0  0  0  0
 45 65  1  0  0  0  0
 46 48  1  0  0  0  0
 47 49  1  0  0  0  0
 47 50  1  0  0  0  0
 48 52  1  0  0  0  0
 49 54  1  0  0  0  0
 50 67  1  0  0  0  0
 51 54  1  0  0  0  0
 51 67  1  0  0  0  0
 52 72  1  0  0  0  0
 53 66  1  0  0  0  0
 54 64  1  0  0  0  0
 55 61  1  0  0  0  0
 56 62  1  0  0  0  0
 57 62  1  0  0  0  0
 58 62  1  0  0  0  0
 59 74  1  0  0  0  0
 60 62  1  0  0  0  0
 60 73  1  0  0  0  0
 61 74  1  0  0  0  0
 63 64  1  0  0  0  0
M  CHG  1  74   1
M  ISO  4  36 101  41 100  71 100  82 101
M  END
> <Batch ID>
0084

> <Smiles>
CNC(C)C(=O)NC(C(=O)N1Cc2cc([101O:1][101CH:1]=C3CN(c4ccc([100NH:0][100C:0](=O)N5CCCC(n6nc(-c7ccc(Oc8ccc(F)cc8F)cc7)c(C(N)=O)c6N)C5)c(N)c4)C3=O)ccc2CC1C(=O)NC1CCCc2ccccc21)C(C)(C)C

> <Shape>
0.290

> <Color>
0.084

> <Negative vol penalty>
0.000

$$$$

  -OEChem-04052300123D

 86 95  0     1  0  0  0  0  0999 V2000
  -23.6681  -34.5181   15.2776 C   0  0  0  0  0  0  0  0  0  0  0  0
  -24.1763  -33.2337   15.4431 C   0  0  0  0  0  0  0  0  0  0  0  0
  -32.4746  -18.3153   22.4327 C   0  0  0  0  0  0  0  0  0  0  0  0
  -23.1356   -9.8245   20.7426 C   0  0  0  0  0  0  0  0  0  0  0  0
  -23.8226  -10.4362   22.9766 C   0  0  0  0  0  0  0  0  0  0  0  0
  -31.6403  -19.3255   22.9111 C   0  0  0  0  0  0  0  0  0  0  0  0
  -23.8155  -35.4612   16.2938 C   0  0  0  0  0  0  0  0  0  0  0  0
  -24.8332  -32.8919   16.6247 C   0  0  0  0  0  0  0  0  0  0  0  0
  -24.7637  -27.4507   19.4343 C   0  0  0  0  0  0  0  0  0  0  0  0
  -31.9292  -17.2157   21.7700 C   0  0  0  0  0  0  0  0  0  0  0  0
  -22.4024   -8.7568   21.2604 C   0  0  0  0  0  0  0  0  0  0  0  0
  -23.0894   -9.3685   23.4944 C   0  0  0  0  0  0  0  0  0  0  0  0
  -25.6625  -26.3849   19.4371 C   0  0  0  0  0  0  0  0  0  0  0  0
  -19.8568   -8.6768   24.1959 C   0  0  0  0  0  0  0  0  0  0  0  0
  -19.0640   -8.9204   25.3174 C   0  0  0  0  0  0  0  0  0  0  0  0
  -29.7151  -18.1366   22.0641 C   0  0  0  0  0  0  0  0  0  0  0  0
  -26.6397  -27.2222   21.4775 C   0  0  0  0  0  0  0  0  0  0  0  0
  -20.3118   -7.2656   26.5590 C   0  0  0  0  0  0  0  0  0  0  0  0
  -23.8458  -10.6642   21.6007 C   0  0  0  0  0  0  0  0  0  0  0  0
  -30.2605  -19.2362   22.7268 C   0  0  0  0  0  0  0  0  0  0  0  0
  -24.1516  -13.0816   20.8457 C   0  0  0  0  0  0  0  0  0  0  0  0
  -24.4661  -35.1280   17.4923 C   0  0  0  0  0  0  0  0  0  0  0  0
  -24.8033  -28.4179   20.4490 C   0  0  0  0  0  0  0  0  0  0  0  0
  -24.9907  -33.8319   17.6574 C   0  0  0  0  0  0  0  0  0  0  0  0
  -25.7386  -28.2979   21.4867 C   0  0  0  0  0  0  0  0  0  0  0  0
  -30.5495  -17.1264   21.5857 C   0  0  0  0  0  0  0  0  0  0  0  0
  -22.3793   -8.5288   22.6363 C   0  0  0  0  0  0  0  0  0  0  0  0
  -26.6026  -26.2721   20.4572 C   0  0  0  0  0  0  0  0  0  0  0  0
  -20.8770   -7.7274   24.2559 C   0  0  0  0  0  0  0  0  0  0  0  0
  -19.2915   -8.2148   26.4989 C   0  0  0  0  0  0  0  0  0  0  0  0
  -21.1046   -7.0219   25.4375 C   0  0  0  0  0  0  0  0  0  0  0  0
  -24.6038  -11.7669   21.0664 C   0  0  0  0  0  0  0  0  0  0  0  0
  -25.2427  -13.7383   20.3313 C   0  0  0  0  0  0  0  0  0  0  0  0
  -28.2835  -23.3337   21.6422 C   0  0  0  0  0  0  0  0  0  0  0  0
  -28.2467  -22.4336   22.8082 C   0  0  0  0  0  0  0  0  0  0  0  0
  -27.4675  -24.3836   21.5323 C   0  0  0  0  0  0  0  0  0  1  0  0
  -29.3782  -20.3034   23.2315 C   0  0  0  0  0  0  0  0  0  0  0  0
  -22.8606  -13.6578   21.0844 C   0  0  0  0  0  0  0  0  0  0  0  0
  -25.3372  -31.5499   20.5428 C   0  0  0  0  0  0  0  0  0  0  0  0
  -24.5298  -31.2000   23.6650 C   0  0  0  0  0  0  0  0  0  0  0  0
  -24.2767  -29.1472   26.3795 C   0  0  0  0  0  0  0  0  0  0  0  0
  -30.6836  -14.9206   20.3763 C   0  0  0  0  0  0  0  0  0  0  0  0
  -24.6429  -36.1951   18.5433 C   0  0  0  0  0  0  0  0  0  0  0  0
  -23.8094  -29.5468   20.4461 C   0  0  0  0  0  0  0  0  0  0  0  0
  -25.8093  -29.2985   22.6102 C   0  0  0  0  0  0  0  0  0  0  0  0
  -29.3136  -22.8693   20.6651 C   0  0  0  0  0  0  0  0  0  0  0  0
  -25.0224  -35.6424   19.9147 C   0  0  0  0  0  0  0  0  0  0  0  0
  -29.6825  -11.9555   18.6782 C   0  0  0  0  0  0  0  0  0  0  0  0
  -26.1379  -34.6103   19.7843 C   0  0  0  0  0  0  0  0  0  0  0  0
  -28.2347  -11.7503   19.1300 C   0  0  0  0  0  0  0  0  0  0  0  0
  -29.5917  -21.4263   21.0686 C   0  0  0  0  0  0  0  0  0  0  0  0
  -30.5555  -12.5056   19.8047 C   0  0  0  0  0  0  0  0  0  0  0  0
  -28.5948  -13.5151   20.9028 C   0  0  0  0  0  0  0  0  0  0  0  0
  -25.6877  -33.4158   18.9345 C   0  0  1  0  0  0  0  0  0  0  0  0
  -24.2761  -30.7559   21.2509 C   0  0  1  0  0  0  0  0  0  0  0  0
  -27.6625  -13.0234   19.7836 C   0  0  2  0  0  0  0  0  0  0  0  0
  -23.6205  -29.1561   28.8016 C   0  0  0  0  0  0  0  0  0  0  0  0
  -27.1597  -32.5773   24.3699 C   0  0  0  0  0  0  0  0  0  0  0  0
  -26.9022  -31.7187   26.7076 C   0  0  0  0  0  0  0  0  0  0  0  0
  -25.2060  -33.2843   25.7618 C   0  0  0  0  0  0  0  0  0  0  0  0
  -22.1164  -27.1769   25.9212 C   0  0  0  0  0  0  0  0  0  0  0  0
  -25.2842  -30.8958   24.9367 C   0  0  1  0  0  0  0  0  0  0  0  0
  -23.1509  -28.9259   27.3736 C   0  0  2  0  0  0  0  0  0  0  0  0
  -26.1382  -32.1010   25.4219 C   0  0  0  0  0  0  0  0  0  0  0  0
  -25.8826  -11.5966   20.7203 N   0  0  0  0  0  0  0  0  0  0  0  0
  -26.2432  -12.8129   20.2769 N   0  0  0  0  0  0  0  0  0  0  0  0
  -29.0873  -21.3299   22.4497 N   0  0  0  0  0  0  0  0  0  0  0  0
  -24.8203  -30.3879   22.5596 N   0  0  0  0  0  0  0  0  0  0  0  0
  -29.9530  -13.7135   20.3730 N   0  0  0  0  0  0  0  0  0  0  0  0
  -25.4344  -15.0112   19.9245 N   0  0  0  0  0  0  0  0  0  0  0  0
  -21.8529  -12.8420   21.6169 N   0  0  0  0  0  0  0  0  0  0  0  0
  -29.9963  -16.0090   20.9124 N   0  0  0  0  0  0  0  0  0  0  0  0
  -24.8411  -32.5345   19.7097 N   0  0  0  0  0  0  0  0  0  0  0  0
  -24.2898  -30.4408   25.9023 N   0  0  0  0  0  0  0  0  0  0  0  0
  -28.8869  -20.2167   24.4641 N   0  3  0  0  0  0  0  0  0  0  0  0
  -22.6330  -27.5325   27.2679 N   0  3  0  0  0  0  0  0  0  0  0  0
  -27.6593  -22.5505   23.8650 O   0  0  0  0  0  0  0  0  0  0  0  0
  -22.6033  -14.8562   20.8177 O   0  0  0  0  0  0  0  0  0  0  0  0
  -26.5185  -31.2897   20.7389 O   0  0  0  0  0  0  0  0  0  0  0  0
  -23.7077  -32.1196   23.6548 O   0  0  0  0  0  0  0  0  0  0  0  0
  -25.0677  -28.2621   26.0611 O   0  0  0  0  0  0  0  0  0  0  0  0
  -31.8241  -14.9901   19.9111 O   0  0  0  0  0  0  0  0  0  0  0  0
  -21.6638   -7.4873   23.1419 O   0  0  0  0  0  0  0  0  0  0  0  0
  -27.4815  -25.2332   20.4619 O   0  0  0  0  0  0  0  0  0  1  0  0
  -18.5312   -8.4500   27.5763 F   0  0  0  0  0  0  0  0  0  0  0  0
  -22.0840   -6.1095   25.5015 F   0  0  0  0  0  0  0  0  0  0  0  0
  1  2  1  0  0  0  0
  1  7  2  0  0  0  0
  2  8  2  0  0  0  0
  3  6  2  0  0  0  0
  3 10  1  0  0  0  0
  4 11  2  0  0  0  0
  4 19  1  0  0  0  0
  5 12  1  0  0  0  0
  5 19  2  0  0  0  0
  6 20  1  0  0  0  0
  7 22  1  0  0  0  0
  8 24  1  0  0  0  0
  9 13  2  0  0  0  0
  9 23  1  0  0  0  0
 10 26  2  0  0  0  0
 11 27  1  0  0  0  0
 12 27  2  0  0  0  0
 13 28  1  0  0  0  0
 14 15  2  0  0  0  0
 14 29  1  0  0  0  0
 15 30  1  0  0  0  0
 16 20  2  0  0  0  0
 16 26  1  0  0  0  0
 17 25  1  0  0  0  0
 17 28  2  0  0  0  0
 18 30  2  0  0  0  0
 18 31  1  0  0  0  0
 19 32  1  0  0  0  0
 20 37  1  0  0  0  0
 21 32  1  0  0  0  0
 21 33  2  0  0  0  0
 21 38  1  0  0  0  0
 22 24  2  0  0  0  0
 22 43  1  0  0  0  0
 23 25  2  0  0  0  0
 23 44  1  0  0  0  0
 24 54  1  0  0  0  0
 25 45  1  0  0  0  0
 26 72  1  0  0  0  0
 27 83  1  0  0  0  0
 28 84  1  0  0  0  0
 29 31  2  0  0  0  0
 29 83  1  0  0  0  0
 30 85  1  0  0  0  0
 31 86  1  0  0  0  0
 32 65  2  0  0  0  0
 33 66  1  0  0  0  0
 33 70  1  0  0  0  0
 34 35  1  0  0  0  0
 34 36  2  0  0  0  0
 34 46  1  0  0  0  0
 35 67  1  0  0  0  0
 35 77  2  0  0  0  0
 36 84  1  0  0  0  0
 37 67  1  0  0  0  0
 37 75  2  0  0  0  0
 38 71  1  0  0  0  0
 38 78  2  0  0  0  0
 39 55  1  0  0  0  0
 39 73  1  0  0  0  0
 39 79  2  0  0  0  0
 40 62  1  0  0  0  0
 40 68  1  0  0  0  0
 40 80  2  0  0  0  0
 41 63  1  0  0  0  0
 41 74  1  0  0  0  0
 41 81  2  0  0  0  0
 42 69  1  0  0  0  0
 42 72  1  0  0  0  0
 42 82  2  0  0  0  0
 43 47  1  0  0  0  0
 44 55  1  0  0  0  0
 45 68  1  0  0  0  0
 46 51  1  0  0  0  0
 47 49  1  0  0  0  0
 48 50  1  0  0  0  0
 48 52  1  0  0  0  0
 49 54  1  0  0  0  0
 50 56  1  0  0  0  0
 51 67  1  0  0  0  0
 52 69  1  0  0  0  0
 53 56  1  0  0  0  0
 53 69  1  0  0  0  0
 54 73  1  0  0  0  0
 55 68  1  0  0  0  0
 56 66  1  0  0  0  0
 57 63  1  0  0  0  0
 58 64  1  0  0  0  0
 59 64  1  0  0  0  0
 60 64  1  0  0  0  0
 61 76  1  0  0  0  0
 62 64  1  0  0  0  0
 62 74  1  0  0  0  0
 63 76  1  0  0  0  0
 65 66  1  0  0  0  0
M  CHG  2  75   1  76   1
M  ISO  4  36 101  42 100  72 100  84 101
M  END
> <Batch ID>
0084

> <Smiles>
CNC(C)C(=O)NC(C(=O)N1Cc2cc([101O:1][101CH:1]=C3CCN(C(=N)c4cccc([100NH:0][100C:0](=O)N5CCCC(n6nc(-c7ccc(Oc8ccc(F)cc8F)cc7)c(C(N)=O)c6N)C5)c4)C3=O)ccc2CC1C(=O)NC1CCCc2ccccc21)C(C)(C)C

> <Shape>
0.294

> <Color>
0.203

> <Negative vol penalty>
0.000

$$$$

  -OEChem-04052300123D

 85 94  0     1  0  0  0  0  0999 V2000
  -29.4943  -36.5282   20.6509 C   0  0  0  0  0  0  0  0  0  0  0  0
  -29.6267  -35.1916   20.2885 C   0  0  0  0  0  0  0  0  0  0  0  0
  -24.7623   -8.8074   21.7024 C   0  0  0  0  0  0  0  0  0  0  0  0
  -23.2714  -10.0354   20.2510 C   0  0  0  0  0  0  0  0  0  0  0  0
  -28.7212  -36.8759   21.7578 C   0  0  0  0  0  0  0  0  0  0  0  0
  -28.9868  -34.2017   21.0336 C   0  0  0  0  0  0  0  0  0  0  0  0
  -26.5725  -28.9854   18.9201 C   0  0  0  0  0  0  0  0  0  0  0  0
  -23.6713   -8.3709   22.4538 C   0  0  0  0  0  0  0  0  0  0  0  0
  -22.1804   -9.5988   21.0025 C   0  0  0  0  0  0  0  0  0  0  0  0
  -27.0534  -27.6773   18.8810 C   0  0  0  0  0  0  0  0  0  0  0  0
  -21.2540   -6.0201   22.2022 C   0  0  0  0  0  0  0  0  0  0  0  0
  -21.2099   -4.6722   22.5583 C   0  0  0  0  0  0  0  0  0  0  0  0
  -25.8668  -27.1865   20.9231 C   0  0  0  0  0  0  0  0  0  0  0  0
  -26.8817  -18.6097   18.4524 C   0  0  0  0  0  0  0  0  0  0  0  0
  -25.0251  -19.6692   17.3266 C   0  0  0  0  0  0  0  0  0  0  0  0
  -25.3268  -17.2772   17.1703 C   0  0  0  0  0  0  0  0  0  0  0  0
  -21.2024   -5.2897   24.8941 C   0  0  0  0  0  0  0  0  0  0  0  0
  -24.5624   -9.6397   20.6010 C   0  0  0  0  0  0  0  0  0  0  0  0
  -26.2580   -9.4577   18.7038 C   0  0  0  0  0  0  0  0  0  0  0  0
  -28.0637  -35.8905   22.5111 C   0  0  0  0  0  0  0  0  0  0  0  0
  -25.7425  -29.4076   19.9686 C   0  0  0  0  0  0  0  0  0  0  0  0
  -28.2053  -34.5364   22.1525 C   0  0  0  0  0  0  0  0  0  0  0  0
  -25.3746  -28.4997   20.9718 C   0  0  0  0  0  0  0  0  0  0  0  0
  -26.1623  -19.7601   18.1292 C   0  0  0  0  0  0  0  0  0  0  0  0
  -26.4640  -17.3682   17.9729 C   0  0  0  0  0  0  0  0  0  0  0  0
  -22.3803   -8.7665   22.1039 C   0  0  0  0  0  0  0  0  0  0  0  0
  -26.7030  -26.7785   19.8842 C   0  0  0  0  0  0  0  0  0  0  0  0
  -21.2724   -7.0028   23.1920 C   0  0  0  0  0  0  0  0  0  0  0  0
  -21.1841   -4.3070   23.9043 C   0  0  0  0  0  0  0  0  0  0  0  0
  -24.6074  -18.4277   16.8471 C   0  0  0  0  0  0  0  0  0  0  0  0
  -21.2466   -6.6376   24.5379 C   0  0  0  0  0  0  0  0  0  0  0  0
  -25.6891  -10.0915   19.8247 C   0  0  0  0  0  0  0  0  0  0  0  0
  -27.2941  -10.2799   18.3336 C   0  0  0  0  0  0  0  0  0  0  0  0
  -26.7897  -23.2796   19.0953 C   0  0  0  0  0  0  0  0  0  0  0  0
  -25.9706  -22.2659   18.3787 C   0  0  0  0  0  0  0  0  0  0  0  0
  -26.4275  -24.5610   19.1932 C   0  0  0  0  0  0  0  0  0  1  0  0
  -25.8833   -8.2352   18.0551 C   0  0  0  0  0  0  0  0  0  0  0  0
  -25.9595  -31.6041   22.2559 C   0  0  0  0  0  0  0  0  0  0  0  0
  -22.8954  -30.7226   22.8535 C   0  0  0  0  0  0  0  0  0  0  0  0
  -20.4699  -28.3333   22.6193 C   0  0  0  0  0  0  0  0  0  0  0  0
  -28.3446  -16.1140   19.0849 C   0  0  0  0  0  0  0  0  0  0  0  0
  -27.2775  -36.3109   23.7276 C   0  0  0  0  0  0  0  0  0  0  0  0
  -25.2104  -30.8144   19.9819 C   0  0  0  0  0  0  0  0  0  0  0  0
  -24.4699  -28.8974   22.1084 C   0  0  0  0  0  0  0  0  0  0  0  0
  -28.0052  -22.6448   19.6747 C   0  0  0  0  0  0  0  0  0  0  0  0
  -26.3274  -35.2322   24.2415 C   0  0  0  0  0  0  0  0  0  0  0  0
  -30.4153  -13.4224   20.1549 C   0  0  0  0  0  0  0  0  0  0  0  0
  -27.0377  -33.8841   24.3105 C   0  0  0  0  0  0  0  0  0  0  0  0
  -29.4918  -12.2041   20.0838 C   0  0  0  0  0  0  0  0  0  0  0  0
  -27.7268  -21.1589   19.5189 C   0  0  0  0  0  0  0  0  0  0  0  0
  -29.6694  -14.6733   20.6161 C   0  0  0  0  0  0  0  0  0  0  0  0
  -27.5345  -13.7734   19.7785 C   0  0  0  0  0  0  0  0  0  0  0  0
  -27.5065  -33.4358   22.9209 C   0  0  1  0  0  0  0  0  0  0  0  0
  -24.7884  -31.2804   21.3719 C   0  0  1  0  0  0  0  0  0  0  0  0
  -28.2264  -12.5037   19.2564 C   0  0  2  0  0  0  0  0  0  0  0  0
  -18.0774  -27.8884   23.2319 C   0  0  0  0  0  0  0  0  0  0  0  0
  -23.7270  -30.2555   25.7518 C   0  0  0  0  0  0  0  0  0  0  0  0
  -21.6190  -28.9432   26.0720 C   0  0  0  0  0  0  0  0  0  0  0  0
  -21.5016  -31.3612   25.4703 C   0  0  0  0  0  0  0  0  0  0  0  0
  -19.6832  -28.0087   19.7848 C   0  0  0  0  0  0  0  0  0  0  0  0
  -22.2325  -29.6839   23.7255 C   0  0  1  0  0  0  0  0  0  0  0  0
  -19.0246  -28.4068   22.1610 C   0  0  2  0  0  0  0  0  0  0  0  0
  -22.2887  -30.0537   25.2347 C   0  0  0  0  0  0  0  0  0  0  0  0
  -26.3122  -11.2284   20.1457 N   0  0  0  0  0  0  0  0  0  0  0  0
  -27.2835  -11.3155   19.2210 N   0  0  0  0  0  0  0  0  0  0  0  0
  -26.5901  -21.0328   18.6201 N   0  0  0  0  0  0  0  0  0  0  0  0
  -23.9806  -30.2857   22.0805 N   0  0  0  0  0  0  0  0  0  0  0  0
  -28.4851  -14.8964   19.7839 N   0  0  0  0  0  0  0  0  0  0  0  0
  -28.2042  -10.2106   17.3390 N   0  0  0  0  0  0  0  0  0  0  0  0
  -24.7947   -7.5147   18.5650 N   0  0  0  0  0  0  0  0  0  0  0  0
  -27.1947  -16.1992   18.3007 N   0  0  0  0  0  0  0  0  0  0  0  0
  -26.3946  -32.9119   22.1570 N   0  0  0  0  0  0  0  0  0  0  0  0
  -20.8815  -29.5133   23.2020 N   0  0  0  0  0  0  0  0  0  0  0  0
  -18.8302  -27.5929   20.9278 N   0  3  0  0  0  0  0  0  0  0  0  0
  -24.9697  -22.5441   17.7395 O   0  0  0  0  0  0  0  0  0  0  0  0
  -26.5060   -7.7865   17.0629 O   0  0  0  0  0  0  0  0  0  0  0  0
  -26.4324  -30.7322   22.9756 O   0  0  0  0  0  0  0  0  0  0  0  0
  -22.4618  -31.8775   22.8526 O   0  0  0  0  0  0  0  0  0  0  0  0
  -21.1632  -27.3284   22.4782 O   0  0  0  0  0  0  0  0  0  0  0  0
  -29.1962  -17.0039   19.1540 O   0  0  0  0  0  0  0  0  0  0  0  0
  -21.3154   -8.3405   22.8367 O   0  0  0  0  0  0  0  0  0  0  0  0
  -27.1715  -25.5014   19.8488 O   0  0  0  0  0  0  0  0  0  1  0  0
  -21.1401   -3.0126   24.2462 F   0  0  0  0  0  0  0  0  0  0  0  0
  -23.5158  -18.3401   16.0757 F   0  0  0  0  0  0  0  0  0  0  0  0
  -21.2629   -7.5772   25.4933 F   0  0  0  0  0  0  0  0  0  0  0  0
  1  2  1  0  0  0  0
  1  5  2  0  0  0  0
  2  6  2  0  0  0  0
  3  8  2  0  0  0  0
  3 18  1  0  0  0  0
  4  9  1  0  0  0  0
  4 18  2  0  0  0  0
  5 20  1  0  0  0  0
  6 22  1  0  0  0  0
  7 10  2  0  0  0  0
  7 21  1  0  0  0  0
  8 26  1  0  0  0  0
  9 26  2  0  0  0  0
 10 27  1  0  0  0  0
 11 12  2  0  0  0  0
 11 28  1  0  0  0  0
 12 29  1  0  0  0  0
 13 23  1  0  0  0  0
 13 27  2  0  0  0  0
 14 24  2  0  0  0  0
 14 25  1  0  0  0  0
 15 24  1  0  0  0  0
 15 30  2  0  0  0  0
 16 25  2  0  0  0  0
 16 30  1  0  0  0  0
 17 29  2  0  0  0  0
 17 31  1  0  0  0  0
 18 32  1  0  0  0  0
 19 32  1  0  0  0  0
 19 33  2  0  0  0  0
 19 37  1  0  0  0  0
 20 22  2  0  0  0  0
 20 42  1  0  0  0  0
 21 23  2  0  0  0  0
 21 43  1  0  0  0  0
 22 53  1  0  0  0  0
 23 44  1  0  0  0  0
 24 66  1  0  0  0  0
 25 71  1  0  0  0  0
 26 81  1  0  0  0  0
 27 82  1  0  0  0  0
 28 31  2  0  0  0  0
 28 81  1  0  0  0  0
 29 83  1  0  0  0  0
 30 84  1  0  0  0  0
 31 85  1  0  0  0  0
 32 64  2  0  0  0  0
 33 65  1  0  0  0  0
 33 69  1  0  0  0  0
 34 35  1  0  0  0  0
 34 36  2  0  0  0  0
 34 45  1  0  0  0  0
 35 66  1  0  0  0  0
 35 75  2  0  0  0  0
 36 82  1  0  0  0  0
 37 70  1  0  0  0  0
 37 76  2  0  0  0  0
 38 54  1  0  0  0  0
 38 72  1  0  0  0  0
 38 77  2  0  0  0  0
 39 61  1  0  0  0  0
 39 67  1  0  0  0  0
 39 78  2  0  0  0  0
 40 62  1  0  0  0  0
 40 73  1  0  0  0  0
 40 79  2  0  0  0  0
 41 68  1  0  0  0  0
 41 71  1  0  0  0  0
 41 80  2  0  0  0  0
 42 46  1  0  0  0  0
 43 54  1  0  0  0  0
 44 67  1  0  0  0  0
 45 50  1  0  0  0  0
 46 48  1  0  0  0  0
 47 49  1  0  0  0  0
 47 51  1  0  0  0  0
 48 53  1  0  0  0  0
 49 55  1  0  0  0  0
 50 66  1  0  0  0  0
 51 68  1  0  0  0  0
 52 55  1  0  0  0  0
 52 68  1  0  0  0  0
 53 72  1  0  0  0  0
 54 67  1  0  0  0  0
 55 65  1  0  0  0  0
 56 62  1  0  0  0  0
 57 63  1  0  0  0  0
 58 63  1  0  0  0  0
 59 63  1  0  0  0  0
 60 74  1  0  0  0  0
 61 63  1  0  0  0  0
 61 73  1  0  0  0  0
 62 74  1  0  0  0  0
 64 65  1  0  0  0  0
M  CHG  1  74   1
M  ISO  4  36 101  41 100  71 100  82 101
M  END
> <Batch ID>
0084

> <Smiles>
CNC(C)C(=O)NC(C(=O)N1Cc2cc([101O:1][101CH:1]=C3CCN(c4cc(F)cc([100NH:0][100C:0](=O)N5CCCC(n6nc(-c7ccc(Oc8ccc(F)cc8F)cc7)c(C(N)=O)c6N)C5)c4)C3=O)ccc2CC1C(=O)NC1CCCc2ccccc21)C(C)(C)C

> <Shape>
0.278

> <Color>
0.100

> <Negative vol penalty>
0.000

$$$$

  -OEChem-04052300123D

 85 94  0     1  0  0  0  0  0999 V2000
  -37.7188  -29.4301   13.9541 C   0  0  0  0  0  0  0  0  0  0  0  0
  -36.5715  -29.5112   14.7368 C   0  0  0  0  0  0  0  0  0  0  0  0
  -22.6249  -10.3780   20.2505 C   0  0  0  0  0  0  0  0  0  0  0  0
  -24.2549   -9.5880   21.8492 C   0  0  0  0  0  0  0  0  0  0  0  0
  -28.8433  -18.0245   19.4404 C   0  0  0  0  0  0  0  0  0  0  0  0
  -29.5241  -16.8774   19.8487 C   0  0  0  0  0  0  0  0  0  0  0  0
  -38.0126  -28.2514   13.2698 C   0  0  0  0  0  0  0  0  0  0  0  0
  -35.7167  -28.4139   14.8347 C   0  0  0  0  0  0  0  0  0  0  0  0
  -31.2999  -25.1722   19.4499 C   0  0  0  0  0  0  0  0  0  0  0  0
  -21.8403   -9.2506   20.4932 C   0  0  0  0  0  0  0  0  0  0  0  0
  -23.4703   -8.4605   22.0920 C   0  0  0  0  0  0  0  0  0  0  0  0
  -29.9904  -24.7019   19.5381 C   0  0  0  0  0  0  0  0  0  0  0  0
  -20.6980   -7.6918   23.8651 C   0  0  0  0  0  0  0  0  0  0  0  0
  -20.5055   -7.3118   25.1933 C   0  0  0  0  0  0  0  0  0  0  0  0
  -29.1742  -17.4843   22.1604 C   0  0  0  0  0  0  0  0  0  0  0  0
  -30.6405  -22.6911   18.3749 C   0  0  0  0  0  0  0  0  0  0  0  0
  -21.5300   -5.1734   24.7300 C   0  0  0  0  0  0  0  0  0  0  0  0
  -23.8322  -10.5467   20.9285 C   0  0  0  0  0  0  0  0  0  0  0  0
  -28.3314  -18.9101   20.3962 C   0  0  0  0  0  0  0  0  0  0  0  0
  -29.6878  -16.6065   21.2058 C   0  0  0  0  0  0  0  0  0  0  0  0
  -24.2792  -13.0575   20.8670 C   0  0  0  0  0  0  0  0  0  0  0  0
  -37.1660  -27.1358   13.3672 C   0  0  0  0  0  0  0  0  0  0  0  0
  -32.2888  -24.4089   18.8128 C   0  0  0  0  0  0  0  0  0  0  0  0
  -35.9987  -27.2196   14.1500 C   0  0  0  0  0  0  0  0  0  0  0  0
  -28.5027  -18.6472   21.7634 C   0  0  0  0  0  0  0  0  0  0  0  0
  -31.9624  -23.1527   18.2822 C   0  0  0  0  0  0  0  0  0  0  0  0
  -22.2630   -8.2918   21.4139 C   0  0  0  0  0  0  0  0  0  0  0  0
  -29.6598  -23.4625   18.9981 C   0  0  0  0  0  0  0  0  0  0  0  0
  -21.3065   -6.8126   22.9693 C   0  0  0  0  0  0  0  0  0  0  0  0
  -20.9215   -6.0526   25.6258 C   0  0  0  0  0  0  0  0  0  0  0  0
  -21.7225   -5.5534   23.4018 C   0  0  0  0  0  0  0  0  0  0  0  0
  -24.6433  -11.7109   20.6778 C   0  0  0  0  0  0  0  0  0  0  0  0
  -25.3903  -13.7702   20.4876 C   0  0  0  0  0  0  0  0  0  0  0  0
  -27.5825  -20.1176   19.9537 C   0  0  0  0  0  0  0  0  0  0  0  0
  -30.3892  -15.4039   21.6266 C   0  0  0  0  0  0  0  0  0  0  0  0
  -23.0468  -13.6143   21.3433 C   0  0  0  0  0  0  0  0  0  0  0  0
  -30.9409  -14.4478   20.6393 C   0  0  0  0  0  0  0  0  0  0  0  0
  -34.1513  -24.8230   16.2705 C   0  0  0  0  0  0  0  0  0  0  0  0
  -35.4810  -22.0406   17.2769 C   0  0  0  0  0  0  0  0  0  0  0  0
  -35.1399  -19.1361   19.0359 C   0  0  0  0  0  0  0  0  0  0  0  0
  -37.5004  -25.8991   12.5714 C   0  0  0  0  0  0  0  0  0  0  0  0
  -33.7026  -24.9185   18.7495 C   0  0  0  0  0  0  0  0  0  0  0  0
  -27.9155  -19.5745   22.7872 C   0  0  0  0  0  0  0  0  0  0  0  0
  -32.9916  -22.2857   17.6060 C   0  0  0  0  0  0  0  0  0  0  0  0
  -36.7387  -24.6571   13.0270 C   0  0  0  0  0  0  0  0  0  0  0  0
  -29.5913  -12.3135   18.0938 C   0  0  0  0  0  0  0  0  0  0  0  0
  -35.2593  -24.9776   13.2159 C   0  0  0  0  0  0  0  0  0  0  0  0
  -28.1660  -12.0462   18.5762 C   0  0  0  0  0  0  0  0  0  0  0  0
  -27.9336  -20.9988   22.2576 C   0  0  0  0  0  0  0  0  0  0  0  0
  -30.5621  -12.4399   19.2633 C   0  0  0  0  0  0  0  0  0  0  0  0
  -28.7368  -13.2108   20.7541 C   0  0  0  0  0  0  0  0  0  0  0  0
  -35.0597  -26.0425   14.3011 C   0  0  1  0  0  0  0  0  0  0  0  0
  -34.5163  -24.2851   17.6251 C   0  0  1  0  0  0  0  0  0  0  0  0
  -27.7226  -13.1045   19.6019 C   0  0  2  0  0  0  0  0  0  0  0  0
  -36.3847  -17.0439   19.6446 C   0  0  0  0  0  0  0  0  0  0  0  0
  -35.0010  -20.9417   14.4712 C   0  0  0  0  0  0  0  0  0  0  0  0
  -35.3624  -18.6396   15.3866 C   0  0  0  0  0  0  0  0  0  0  0  0
  -37.2060  -20.3178   15.4729 C   0  0  0  0  0  0  0  0  0  0  0  0
  -34.9938  -19.7517   21.9271 C   0  0  0  0  0  0  0  0  0  0  0  0
  -26.6407  -22.3191   20.5928 C   0  0  0  0  0  0  0  0  0  0  0  0
  -27.6138  -23.4196   20.2096 C   0  0  0  0  0  0  0  0  0  1  0  0
  -35.2213  -20.5763   17.0176 C   0  0  1  0  0  0  0  0  0  0  0  0
  -36.0399  -18.4661   20.0584 C   0  0  2  0  0  0  0  0  0  0  0  0
  -35.6776  -20.1358   15.5980 C   0  0  0  0  0  0  0  0  0  0  0  0
  -25.8884  -11.5737   20.2140 N   0  0  0  0  0  0  0  0  0  0  0  0
  -30.5813  -15.0875   22.8787 N   0  0  0  0  0  0  0  0  0  0  0  0
  -26.3162  -12.8433   20.1086 N   0  0  0  0  0  0  0  0  0  0  0  0
  -27.3285  -21.0832   20.9323 N   0  0  0  0  0  0  0  0  0  0  0  0
  -30.0934  -13.4257   20.2351 N   0  0  0  0  0  0  0  0  0  0  0  0
  -34.3587  -22.8305   17.5636 N   0  0  0  0  0  0  0  0  0  0  0  0
  -25.6558  -15.0931   20.4445 N   0  0  0  0  0  0  0  0  0  0  0  0
  -22.8976  -13.8264   22.7206 N   0  0  0  0  0  0  0  0  0  0  0  0
  -35.1922  -25.4544   15.6168 N   0  0  0  0  0  0  0  0  0  0  0  0
  -35.8662  -19.8485   18.1052 N   0  0  0  0  0  0  0  0  0  0  0  0
  -35.3681  -18.4189   21.3879 N   0  3  0  0  0  0  0  0  0  0  0  0
  -27.2262  -20.1998   18.7805 O   0  0  0  0  0  0  0  0  0  0  0  0
  -22.0996  -13.8997   20.5720 O   0  0  0  0  0  0  0  0  0  0  0  0
  -32.0923  -14.6625   20.2838 O   0  0  0  0  0  0  0  0  0  0  0  0
  -33.0103  -24.6748   15.8489 O   0  0  0  0  0  0  0  0  0  0  0  0
  -36.6379  -22.4665   17.2339 O   0  0  0  0  0  0  0  0  0  0  0  0
  -33.9152  -19.0344   19.0583 O   0  0  0  0  0  0  0  0  0  0  0  0
  -21.4976   -7.1916   21.6512 O   0  0  0  0  0  0  0  0  0  0  0  0
  -28.3823  -23.0014   19.0822 O   0  0  0  0  0  0  0  0  0  1  0  0
  -20.7380   -5.6885   26.9017 F   0  0  0  0  0  0  0  0  0  0  0  0
  -22.3087   -4.7049   22.5461 F   0  0  0  0  0  0  0  0  0  0  0  0
  1  2  1  0  0  0  0
  1  7  2  0  0  0  0
  2  8  2  0  0  0  0
  3 10  2  0  0  0  0
  3 18  1  0  0  0  0
  4 11  1  0  0  0  0
  4 18  2  0  0  0  0
  5  6  2  0  0  0  0
  5 19  1  0  0  0  0
  6 20  1  0  0  0  0
  7 22  1  0  0  0  0
  8 24  1  0  0  0  0
  9 12  2  0  0  0  0
  9 23  1  0  0  0  0
 10 27  1  0  0  0  0
 11 27  2  0  0  0  0
 12 28  1  0  0  0  0
 13 14  2  0  0  0  0
 13 29  1  0  0  0  0
 14 30  1  0  0  0  0
 15 20  2  0  0  0  0
 15 25  1  0  0  0  0
 16 26  1  0  0  0  0
 16 28  2  0  0  0  0
 17 30  2  0  0  0  0
 17 31  1  0  0  0  0
 18 32  1  0  0  0  0
 19 25  2  0  0  0  0
 19 34  1  0  0  0  0
 20 35  1  0  0  0  0
 21 32  1  0  0  0  0
 21 33  2  0  0  0  0
 21 36  1  0  0  0  0
 22 24  2  0  0  0  0
 22 41  1  0  0  0  0
 23 26  2  0  0  0  0
 23 42  1  0  0  0  0
 24 52  1  0  0  0  0
 25 43  1  0  0  0  0
 26 44  1  0  0  0  0
 27 82  1  0  0  0  0
 28 83  1  0  0  0  0
 29 31  2  0  0  0  0
 29 82  1  0  0  0  0
 30 84  1  0  0  0  0
 31 85  1  0  0  0  0
 32 65  2  0  0  0  0
 33 67  1  0  0  0  0
 33 71  1  0  0  0  0
 34 68  1  0  0  0  0
 34 76  2  0  0  0  0
 35 37  1  0  0  0  0
 35 66  2  0  0  0  0
 36 72  1  0  0  0  0
 36 77  2  0  0  0  0
 37 69  1  0  0  0  0
 37 78  2  0  0  0  0
 38 53  1  0  0  0  0
 38 73  1  0  0  0  0
 38 79  2  0  0  0  0
 39 62  1  0  0  0  0
 39 70  1  0  0  0  0
 39 80  2  0  0  0  0
 40 63  1  0  0  0  0
 40 74  1  0  0  0  0
 40 81  2  0  0  0  0
 41 45  1  0  0  0  0
 42 53  1  0  0  0  0
 43 49  1  0  0  0  0
 44 70  1  0  0  0  0
 45 47  1  0  0  0  0
 46 48  1  0  0  0  0
 46 50  1  0  0  0  0
 47 52  1  0  0  0  0
 48 54  1  0  0  0  0
 49 68  1  0  0  0  0
 50 69  1  0  0  0  0
 51 54  1  0  0  0  0
 51 69  1  0  0  0  0
 52 73  1  0  0  0  0
 53 70  1  0  0  0  0
 54 67  1  0  0  0  0
 55 63  1  0  0  0  0
 56 64  1  0  0  0  0
 57 64  1  0  0  0  0
 58 64  1  0  0  0  0
 59 75  1  0  0  0  0
 60 61  1  0  0  0  0
 60 68  1  0  0  0  0
 61 83  1  0  0  0  0
 62 64  1  0  0  0  0
 62 74  1  0  0  0  0
 63 75  1  0  0  0  0
 65 67  1  0  0  0  0
M  CHG  1  75   1
M  ISO  4  35 100  37 100  61 101  83 101
M  END
> <Batch ID>
0084

> <Smiles>
CNC(C)C(=O)NC(C(=O)N1Cc2cc([101O:1][101CH2:1]CN3CCc4cc([100C:0](=N)[100C:0](=O)N5CCCC(n6nc(-c7ccc(Oc8ccc(F)cc8F)cc7)c(C(N)=O)c6N)C5)ccc4C3=O)ccc2CC1C(=O)NC1CCCc2ccccc21)C(C)(C)C

> <Shape>
0.259

> <Color>
0.182

> <Negative vol penalty>
0.000

$$$$

  -OEChem-04052300123D

 86 95  0     1  0  0  0  0  0999 V2000
  -31.1469  -35.1935   21.1707 C   0  0  0  0  0  0  0  0  0  0  0  0
  -30.9274  -33.9070   20.6889 C   0  0  0  0  0  0  0  0  0  0  0  0
  -24.7531   -8.7762   21.5814 C   0  0  0  0  0  0  0  0  0  0  0  0
  -23.1971  -10.2453   20.4600 C   0  0  0  0  0  0  0  0  0  0  0  0
  -30.5561  -35.5989   22.3667 C   0  0  0  0  0  0  0  0  0  0  0  0
  -30.1178  -33.0247   21.4034 C   0  0  0  0  0  0  0  0  0  0  0  0
  -26.3778  -28.7633   19.0887 C   0  0  0  0  0  0  0  0  0  0  0  0
  -23.7330   -8.3417   22.4277 C   0  0  0  0  0  0  0  0  0  0  0  0
  -22.1769   -9.8107   21.3062 C   0  0  0  0  0  0  0  0  0  0  0  0
  -26.5241  -27.3898   18.8993 C   0  0  0  0  0  0  0  0  0  0  0  0
  -21.1198   -6.2008   22.2839 C   0  0  0  0  0  0  0  0  0  0  0  0
  -21.0109   -4.8300   22.5172 C   0  0  0  0  0  0  0  0  0  0  0  0
  -25.3920  -26.9868   20.9910 C   0  0  0  0  0  0  0  0  0  0  0  0
  -27.2400  -18.6889   18.9947 C   0  0  0  0  0  0  0  0  0  0  0  0
  -25.3495  -19.9829   18.2275 C   0  0  0  0  0  0  0  0  0  0  0  0
  -25.4333  -17.6042   17.8131 C   0  0  0  0  0  0  0  0  0  0  0  0
  -21.3467   -5.2056   24.8801 C   0  0  0  0  0  0  0  0  0  0  0  0
  -24.4852   -9.7281   20.5976 C   0  0  0  0  0  0  0  0  0  0  0  0
  -25.9090   -9.6238   18.4835 C   0  0  0  0  0  0  0  0  0  0  0  0
  -29.7310  -34.7244   23.0914 C   0  0  0  0  0  0  0  0  0  0  0  0
  -25.7461  -29.2600   20.2379 C   0  0  0  0  0  0  0  0  0  0  0  0
  -29.5165  -33.4184   22.6110 C   0  0  0  0  0  0  0  0  0  0  0  0
  -25.2367  -28.3670   21.1914 C   0  0  0  0  0  0  0  0  0  0  0  0
  -26.5819  -19.9132   18.8770 C   0  0  0  0  0  0  0  0  0  0  0  0
  -26.6657  -17.5344   18.4627 C   0  0  0  0  0  0  0  0  0  0  0  0
  -22.4449   -8.8589   22.2900 C   0  0  0  0  0  0  0  0  0  0  0  0
  -26.0337  -26.5014   19.8519 C   0  0  0  0  0  0  0  0  0  0  0  0
  -21.3421   -7.0741   23.3487 C   0  0  0  0  0  0  0  0  0  0  0  0
  -21.1244   -4.3323   23.8154 C   0  0  0  0  0  0  0  0  0  0  0  0
  -24.7752  -18.8284   17.6955 C   0  0  0  0  0  0  0  0  0  0  0  0
  -21.4556   -6.5764   24.6468 C   0  0  0  0  0  0  0  0  0  0  0  0
  -25.5387  -10.1778   19.7236 C   0  0  0  0  0  0  0  0  0  0  0  0
  -26.9541  -10.4060   18.0563 C   0  0  0  0  0  0  0  0  0  0  0  0
  -27.5470  -23.2429   20.0384 C   0  0  0  0  0  0  0  0  0  0  0  0
  -28.6790  -22.4797   20.5007 C   0  0  0  0  0  0  0  0  0  0  0  0
  -26.5803  -22.3462   19.3456 C   0  0  0  0  0  0  0  0  0  0  0  0
  -29.7565  -22.9118   21.1645 C   0  0  0  0  0  0  0  0  0  0  0  0
  -27.3014  -24.5601   20.1601 C   0  0  0  0  0  0  0  0  0  1  0  0
  -25.3576   -8.5024   17.7806 C   0  0  0  0  0  0  0  0  0  0  0  0
  -26.6395  -31.1005   22.6706 C   0  0  0  0  0  0  0  0  0  0  0  0
  -23.4998  -30.9074   23.4625 C   0  0  0  0  0  0  0  0  0  0  0  0
  -20.5579  -29.1910   23.2477 C   0  0  0  0  0  0  0  0  0  0  0  0
  -28.5624  -16.0470   19.1951 C   0  0  0  0  0  0  0  0  0  0  0  0
  -29.1524  -35.1921   24.4033 C   0  0  0  0  0  0  0  0  0  0  0  0
  -25.5725  -30.7436   20.4145 C   0  0  0  0  0  0  0  0  0  0  0  0
  -24.5326  -28.8488   22.4326 C   0  0  0  0  0  0  0  0  0  0  0  0
  -28.4422  -21.0554   20.0985 C   0  0  0  0  0  0  0  0  0  0  0  0
  -28.0057  -34.3203   24.9086 C   0  0  0  0  0  0  0  0  0  0  0  0
  -30.5246  -13.1243   19.7286 C   0  0  0  0  0  0  0  0  0  0  0  0
  -28.3714  -32.8432   24.8027 C   0  0  0  0  0  0  0  0  0  0  0  0
  -29.5033  -11.9861   19.6689 C   0  0  0  0  0  0  0  0  0  0  0  0
  -29.9469  -14.3702   20.3978 C   0  0  0  0  0  0  0  0  0  0  0  0
  -27.6576  -13.7094   19.7718 C   0  0  0  0  0  0  0  0  0  0  0  0
  -28.6246  -32.4406   23.3448 C   0  0  1  0  0  0  0  0  0  0  0  0
  -25.3690  -31.1523   21.8701 C   0  0  1  0  0  0  0  0  0  0  0  0
  -28.1728  -12.4548   19.0479 C   0  0  2  0  0  0  0  0  0  0  0  0
  -18.1749  -29.2606   24.0311 C   0  0  0  0  0  0  0  0  0  0  0  0
  -24.3837  -29.9666   26.2272 C   0  0  0  0  0  0  0  0  0  0  0  0
  -22.0468  -29.1606   26.6235 C   0  0  0  0  0  0  0  0  0  0  0  0
  -22.4786  -31.5868   26.2363 C   0  0  0  0  0  0  0  0  0  0  0  0
  -19.5299  -29.3493   20.4769 C   0  0  0  0  0  0  0  0  0  0  0  0
  -22.6644  -29.9705   24.3011 C   0  0  1  0  0  0  0  0  0  0  0  0
  -19.1463  -29.6479   22.9269 C   0  0  2  0  0  0  0  0  0  0  0  0
  -22.9083  -30.1618   25.8247 C   0  0  0  0  0  0  0  0  0  0  0  0
  -26.2877  -11.2306   20.0623 N   0  0  0  0  0  0  0  0  0  0  0  0
  -27.1392  -11.3442   19.0288 N   0  0  0  0  0  0  0  0  0  0  0  0
  -27.1545  -21.0650   19.4072 N   0  0  0  0  0  0  0  0  0  0  0  0
  -24.3931  -30.3086   22.5630 N   0  0  0  0  0  0  0  0  0  0  0  0
  -28.6897  -14.7579   19.7542 N   0  0  0  0  0  0  0  0  0  0  0  0
  -27.7236  -10.3758   16.9476 N   0  0  0  0  0  0  0  0  0  0  0  0
  -24.2864   -7.8104   18.3620 N   0  0  0  0  0  0  0  0  0  0  0  0
  -27.3340  -16.2907   18.5817 N   0  0  0  0  0  0  0  0  0  0  0  0
  -27.3708  -32.2727   22.6419 N   0  0  0  0  0  0  0  0  0  0  0  0
  -21.2807  -30.1760   23.8870 N   0  0  0  0  0  0  0  0  0  0  0  0
  -18.6794  -29.0317   21.6528 N   0  3  0  0  0  0  0  0  0  0  0  0
  -25.5224  -22.6852   18.8422 O   0  0  0  0  0  0  0  0  0  0  0  0
  -25.8123   -8.1151   16.6775 O   0  0  0  0  0  0  0  0  0  0  0  0
  -26.9339  -30.0737   23.2711 O   0  0  0  0  0  0  0  0  0  0  0  0
  -23.3596  -32.1258   23.5954 O   0  0  0  0  0  0  0  0  0  0  0  0
  -20.9764  -28.0710   22.9631 O   0  0  0  0  0  0  0  0  0  0  0  0
  -29.4856  -16.8645   19.2322 O   0  0  0  0  0  0  0  0  0  0  0  0
  -21.4492   -8.4349   23.1154 O   0  0  0  0  0  0  0  0  0  0  0  0
  -26.1758  -25.1603   19.6698 O   0  0  0  0  0  0  0  0  0  1  0  0
  -21.0183   -3.0160   24.0395 F   0  0  0  0  0  0  0  0  0  0  0  0
  -23.5920  -18.8952   17.0710 F   0  0  0  0  0  0  0  0  0  0  0  0
  -21.6680   -7.4106   25.6739 F   0  0  0  0  0  0  0  0  0  0  0  0
  1  2  1  0  0  0  0
  1  5  2  0  0  0  0
  2  6  2  0  0  0  0
  3  8  2  0  0  0  0
  3 18  1  0  0  0  0
  4  9  1  0  0  0  0
  4 18  2  0  0  0  0
  5 20  1  0  0  0  0
  6 22  1  0  0  0  0
  7 10  2  0  0  0  0
  7 21  1  0  0  0  0
  8 26  1  0  0  0  0
  9 26  2  0  0  0  0
 10 27  1  0  0  0  0
 11 12  2  0  0  0  0
 11 28  1  0  0  0  0
 12 29  1  0  0  0  0
 13 23  1  0  0  0  0
 13 27  2  0  0  0  0
 14 24  2  0  0  0  0
 14 25  1  0  0  0  0
 15 24  1  0  0  0  0
 15 30  2  0  0  0  0
 16 25  2  0  0  0  0
 16 30  1  0  0  0  0
 17 29  2  0  0  0  0
 17 31  1  0  0  0  0
 18 32  1  0  0  0  0
 19 32  1  0  0  0  0
 19 33  2  0  0  0  0
 19 39  1  0  0  0  0
 20 22  2  0  0  0  0
 20 44  1  0  0  0  0
 21 23  2  0  0  0  0
 21 45  1  0  0  0  0
 22 54  1  0  0  0  0
 23 46  1  0  0  0  0
 24 67  1  0  0  0  0
 25 72  1  0  0  0  0
 26 82  1  0  0  0  0
 27 83  1  0  0  0  0
 28 31  2  0  0  0  0
 28 82  1  0  0  0  0
 29 84  1  0  0  0  0
 30 85  1  0  0  0  0
 31 86  1  0  0  0  0
 32 65  2  0  0  0  0
 33 66  1  0  0  0  0
 33 70  1  0  0  0  0
 34 35  1  0  0  0  0
 34 36  1  0  0  0  0
 34 38  2  0  0  0  0
 35 37  2  0  0  0  0
 35 47  1  0  0  0  0
 36 67  1  0  0  0  0
 36 76  2  0  0  0  0
 38 83  1  0  0  0  0
 39 71  1  0  0  0  0
 39 77  2  0  0  0  0
 40 55  1  0  0  0  0
 40 73  1  0  0  0  0
 40 78  2  0  0  0  0
 41 62  1  0  0  0  0
 41 68  1  0  0  0  0
 41 79  2  0  0  0  0
 42 63  1  0  0  0  0
 42 74  1  0  0  0  0
 42 80  2  0  0  0  0
 43 69  1  0  0  0  0
 43 72  1  0  0  0  0
 43 81  2  0  0  0  0
 44 48  1  0  0  0  0
 45 55  1  0  0  0  0
 46 68  1  0  0  0  0
 47 67  1  0  0  0  0
 48 50  1  0  0  0  0
 49 51  1  0  0  0  0
 49 52  1  0  0  0  0
 50 54  1  0  0  0  0
 51 56  1  0  0  0  0
 52 69  1  0  0  0  0
 53 56  1  0  0  0  0
 53 69  1  0  0  0  0
 54 73  1  0  0  0  0
 55 68  1  0  0  0  0
 56 66  1  0  0  0  0
 57 63  1  0  0  0  0
 58 64  1  0  0  0  0
 59 64  1  0  0  0  0
 60 64  1  0  0  0  0
 61 75  1  0  0  0  0
 62 64  1  0  0  0  0
 62 74  1  0  0  0  0
 63 75  1  0  0  0  0
 65 66  1  0  0  0  0
M  CHG  1  75   1
M  ISO  4  38 101  43 100  72 100  83 101
M  END
> <Batch ID>
0084

> <Smiles>
C=C1CN(c2cc(F)cc([100NH:0][100C:0](=O)N3CCCC(n4nc(-c5ccc(Oc6ccc(F)cc6F)cc5)c(C(N)=O)c4N)C3)c2)C(=O)C1=[101CH:1][101O:1]c1ccc2c(c1)CN(C(=O)C(NC(=O)C(C)NC)C(C)(C)C)C(C(=O)NC1CCCc3ccccc31)C2

> <Shape>
0.273

> <Color>
0.105

> <Negative vol penalty>
0.000

$$$$

  -OEChem-04052300123D

 82 90  0     1  0  0  0  0  0999 V2000
  -28.5955  -34.4515   24.4906 C   0  0  0  0  0  0  0  0  0  0  0  0
  -28.6754  -33.1033   24.1569 C   0  0  0  0  0  0  0  0  0  0  0  0
  -24.1702  -10.1465   22.7952 C   0  0  0  0  0  0  0  0  0  0  0  0
  -24.4745  -12.1335   24.1354 C   0  0  0  0  0  0  0  0  0  0  0  0
  -27.9185  -20.4288   17.9530 C   0  0  0  0  0  0  0  0  0  0  0  0
  -30.3236  -20.2001   17.9752 C   0  0  0  0  0  0  0  0  0  0  0  0
  -27.3626  -35.0164   24.8145 C   0  0  0  0  0  0  0  0  0  0  0  0
  -27.5226  -32.3188   24.1481 C   0  0  0  0  0  0  0  0  0  0  0  0
  -27.2308  -29.3402   20.0630 C   0  0  0  0  0  0  0  0  0  0  0  0
  -27.7860  -19.0526   18.1374 C   0  0  0  0  0  0  0  0  0  0  0  0
  -30.1910  -18.8239   18.1596 C   0  0  0  0  0  0  0  0  0  0  0  0
  -23.7622   -9.4441   23.9291 C   0  0  0  0  0  0  0  0  0  0  0  0
  -24.0665  -11.4311   25.2694 C   0  0  0  0  0  0  0  0  0  0  0  0
  -28.0092  -28.1835   20.0615 C   0  0  0  0  0  0  0  0  0  0  0  0
  -20.9646   -9.1516   25.8054 C   0  0  0  0  0  0  0  0  0  0  0  0
  -19.8359   -8.3397   25.6937 C   0  0  0  0  0  0  0  0  0  0  0  0
  -26.0736  -26.8874   20.6881 C   0  0  0  0  0  0  0  0  0  0  0  0
  -21.1629   -6.4123   26.2947 C   0  0  0  0  0  0  0  0  0  0  0  0
  -24.5264  -11.4912   22.8983 C   0  0  0  0  0  0  0  0  0  0  0  0
  -29.1873  -21.0026   17.8718 C   0  0  0  0  0  0  0  0  0  0  0  0
  -24.1340  -12.9425   20.8374 C   0  0  0  0  0  0  0  0  0  0  0  0
  -26.1927  -34.2407   24.8003 C   0  0  0  0  0  0  0  0  0  0  0  0
  -25.8681  -29.2806   20.3883 C   0  0  0  0  0  0  0  0  0  0  0  0
  -26.2731  -32.8736   24.4735 C   0  0  0  0  0  0  0  0  0  0  0  0
  -25.2795  -28.0444   20.6905 C   0  0  0  0  0  0  0  0  0  0  0  0
  -28.9222  -18.2501   18.2407 C   0  0  0  0  0  0  0  0  0  0  0  0
  -23.7103  -10.0864   25.1662 C   0  0  0  0  0  0  0  0  0  0  0  0
  -27.4313  -26.9573   20.3769 C   0  0  0  0  0  0  0  0  0  0  0  0
  -22.1925   -8.5938   26.1616 C   0  0  0  0  0  0  0  0  0  0  0  0
  -19.9350   -6.9701   25.9384 C   0  0  0  0  0  0  0  0  0  0  0  0
  -22.2916   -7.2242   26.4063 C   0  0  0  0  0  0  0  0  0  0  0  0
  -24.9486  -12.2171   21.7275 C   0  0  0  0  0  0  0  0  0  0  0  0
  -25.0071  -13.4410   19.9016 C   0  0  0  0  0  0  0  0  0  0  0  0
  -28.5354  -23.7117   19.3887 C   0  0  0  0  0  0  0  0  0  0  0  0
  -29.3289  -22.4716   17.6748 C   0  0  0  0  0  0  0  0  0  0  0  0
  -22.7151  -13.1473   20.8550 C   0  0  0  0  0  0  0  0  0  0  0  0
  -24.0525  -30.5268   22.6806 C   0  0  0  0  0  0  0  0  0  0  0  0
  -21.6451  -29.2065   20.9532 C   0  0  0  0  0  0  0  0  0  0  0  0
  -20.6542  -26.8413   18.7014 C   0  0  0  0  0  0  0  0  0  0  0  0
  -29.8098  -15.9129   18.5502 C   0  0  0  0  0  0  0  0  0  0  0  0
  -24.8899  -34.8846   25.2037 C   0  0  0  0  0  0  0  0  0  0  0  0
  -25.0362  -30.5335   20.3593 C   0  0  0  0  0  0  0  0  0  0  0  0
  -23.8164  -27.9237   21.0269 C   0  0  0  0  0  0  0  0  0  0  0  0
  -23.6601  -34.0720   24.8065 C   0  0  0  0  0  0  0  0  0  0  0  0
  -29.8863  -12.3898   19.0591 C   0  0  0  0  0  0  0  0  0  0  0  0
  -23.8483  -32.6040   25.1757 C   0  0  0  0  0  0  0  0  0  0  0  0
  -28.5415  -12.0904   19.7255 C   0  0  0  0  0  0  0  0  0  0  0  0
  -30.4661  -13.7238   19.5260 C   0  0  0  0  0  0  0  0  0  0  0  0
  -28.2170  -14.5741   20.0621 C   0  0  0  0  0  0  0  0  0  0  0  0
  -25.0413  -31.9957   24.4286 C   0  0  1  0  0  0  0  0  0  0  0  0
  -23.7723  -30.4313   21.2075 C   0  0  1  0  0  0  0  0  0  0  0  0
  -27.5625  -13.2712   19.5744 C   0  0  2  0  0  0  0  0  0  0  0  0
  -18.6172  -25.9844   17.5123 C   0  0  0  0  0  0  0  0  0  0  0  0
  -20.7382  -27.8166   23.5136 C   0  0  0  0  0  0  0  0  0  0  0  0
  -19.3455  -26.2846   22.1060 C   0  0  0  0  0  0  0  0  0  0  0  0
  -18.8822  -28.7357   22.1119 C   0  0  0  0  0  0  0  0  0  0  0  0
  -21.7949  -27.4766   16.0454 C   0  0  0  0  0  0  0  0  0  0  0  0
  -27.5301  -24.6035   20.0517 C   0  0  0  0  0  0  0  0  0  1  0  0
  -20.9478  -27.8676   20.9408 C   0  0  1  0  0  0  0  0  0  0  0  0
  -19.8008  -26.9372   17.4496 C   0  0  2  0  0  0  0  0  0  0  0  0
  -20.0064  -27.6784   22.1637 C   0  0  0  0  0  0  0  0  0  0  0  0
  -26.2398  -12.2493   21.3875 N   0  0  0  0  0  0  0  0  0  0  0  0
  -28.3513  -23.2961   18.1775 N   0  0  0  0  0  0  0  0  0  0  0  0
  -26.2433  -13.0008   20.2734 N   0  0  0  0  0  0  0  0  0  0  0  0
  -23.0464  -29.1780   20.9913 N   0  0  0  0  0  0  0  0  0  0  0  0
  -29.4845  -14.7961   19.3488 N   0  0  0  0  0  0  0  0  0  0  0  0
  -24.8302  -14.2085   18.8053 N   0  0  0  0  0  0  0  0  0  0  0  0
  -21.9685  -12.5641   21.8879 N   0  0  0  0  0  0  0  0  0  0  0  0
  -28.7864  -16.8522   18.4282 N   0  0  0  0  0  0  0  0  0  0  0  0
  -24.6812  -31.6977   23.0589 N   0  0  0  0  0  0  0  0  0  0  0  0
  -20.2767  -27.7689   19.6492 N   0  0  0  0  0  0  0  0  0  0  0  0
  -30.3072  -22.9894   17.0196 N   0  3  0  0  0  0  0  0  0  0  0  0
  -20.6103  -26.6023   16.2440 N   0  3  0  0  0  0  0  0  0  0  0  0
  -22.1245  -13.8139   19.9715 O   0  0  0  0  0  0  0  0  0  0  0  0
  -23.7214  -29.6070   23.4195 O   0  0  0  0  0  0  0  0  0  0  0  0
  -20.9716  -30.2395   20.9228 O   0  0  0  0  0  0  0  0  0  0  0  0
  -21.5622  -26.0227   18.8274 O   0  0  0  0  0  0  0  0  0  0  0  0
  -30.9053  -16.0144   17.9919 O   0  0  0  0  0  0  0  0  0  0  0  0
  -23.3120   -9.4013   26.2728 O   0  0  0  0  0  0  0  0  0  0  0  0
  -28.1889  -25.8269   20.3768 O   0  0  0  0  0  0  0  0  0  1  0  0
  -18.8507   -6.1908   25.8327 F   0  0  0  0  0  0  0  0  0  0  0  0
  -23.4683   -6.6828   26.7500 F   0  0  0  0  0  0  0  0  0  0  0  0
  1  2  1  0  0  0  0
  1  7  2  0  0  0  0
  2  8  2  0  0  0  0
  3 12  2  0  0  0  0
  3 19  1  0  0  0  0
  4 13  1  0  0  0  0
  4 19  2  0  0  0  0
  5 10  2  0  0  0  0
  5 20  1  0  0  0  0
  6 11  1  0  0  0  0
  6 20  2  0  0  0  0
  7 22  1  0  0  0  0
  8 24  1  0  0  0  0
  9 14  2  0  0  0  0
  9 23  1  0  0  0  0
 10 26  1  0  0  0  0
 11 26  2  0  0  0  0
 12 27  1  0  0  0  0
 13 27  2  0  0  0  0
 14 28  1  0  0  0  0
 15 16  2  0  0  0  0
 15 29  1  0  0  0  0
 16 30  1  0  0  0  0
 17 25  1  0  0  0  0
 17 28  2  0  0  0  0
 18 30  2  0  0  0  0
 18 31  1  0  0  0  0
 19 32  1  0  0  0  0
 20 35  1  0  0  0  0
 21 32  1  0  0  0  0
 21 33  2  0  0  0  0
 21 36  1  0  0  0  0
 22 24  2  0  0  0  0
 22 41  1  0  0  0  0
 23 25  2  0  0  0  0
 23 42  1  0  0  0  0
 24 50  1  0  0  0  0
 25 43  1  0  0  0  0
 26 69  1  0  0  0  0
 27 79  1  0  0  0  0
 28 80  1  0  0  0  0
 29 31  2  0  0  0  0
 29 79  1  0  0  0  0
 30 81  1  0  0  0  0
 31 82  1  0  0  0  0
 32 62  2  0  0  0  0
 33 64  1  0  0  0  0
 33 67  1  0  0  0  0
 34 58  1  0  0  0  0
 34 63  2  0  0  0  0
 35 63  1  0  0  0  0
 35 72  2  0  0  0  0
 36 68  1  0  0  0  0
 36 74  2  0  0  0  0
 37 51  1  0  0  0  0
 37 70  1  0  0  0  0
 37 75  2  0  0  0  0
 38 59  1  0  0  0  0
 38 65  1  0  0  0  0
 38 76  2  0  0  0  0
 39 60  1  0  0  0  0
 39 71  1  0  0  0  0
 39 77  2  0  0  0  0
 40 66  1  0  0  0  0
 40 69  1  0  0  0  0
 40 78  2  0  0  0  0
 41 44  1  0  0  0  0
 42 51  1  0  0  0  0
 43 65  1  0  0  0  0
 44 46  1  0  0  0  0
 45 47  1  0  0  0  0
 45 48  1  0  0  0  0
 46 50  1  0  0  0  0
 47 52  1  0  0  0  0
 48 66  1  0  0  0  0
 49 52  1  0  0  0  0
 49 66  1  0  0  0  0
 50 70  1  0  0  0  0
 51 65  1  0  0  0  0
 52 64  1  0  0  0  0
 53 60  1  0  0  0  0
 54 61  1  0  0  0  0
 55 61  1  0  0  0  0
 56 61  1  0  0  0  0
 57 73  1  0  0  0  0
 58 80  1  0  0  0  0
 59 61  1  0  0  0  0
 59 71  1  0  0  0  0
 60 73  1  0  0  0  0
 62 64  1  0  0  0  0
M  CHG  2  72   1  73   1
M  ISO  4  40 100  58 101  69 100  80 101
M  END
> <Batch ID>
0084

> <Smiles>
CNC(C)C(=O)NC(C(=O)N1Cc2cc([101O:1][101CH:1]=CNC(=N)c3ccc([100NH:0][100C:0](=O)N4CCCC(n5nc(-c6ccc(Oc7ccc(F)cc7F)cc6)c(C(N)=O)c5N)C4)cc3)ccc2CC1C(=O)NC1CCCc2ccccc21)C(C)(C)C

> <Shape>
0.285

> <Color>
0.107

> <Negative vol penalty>
0.000

$$$$

  -OEChem-04052300123D

 89 98  0     1  0  0  0  0  0999 V2000
  -29.2533  -37.4632   25.2646 C   0  0  0  0  0  0  0  0  0  0  0  0
  -29.5705  -36.2210   24.7243 C   0  0  0  0  0  0  0  0  0  0  0  0
  -24.1075   -9.6123   22.1010 C   0  0  0  0  0  0  0  0  0  0  0  0
  -24.5672  -11.2253   23.8400 C   0  0  0  0  0  0  0  0  0  0  0  0
  -30.4955  -20.2820   19.3614 C   0  0  0  0  0  0  0  0  0  0  0  0
  -28.0050  -37.6691   25.8504 C   0  0  0  0  0  0  0  0  0  0  0  0
  -28.6397  -35.1837   24.7705 C   0  0  0  0  0  0  0  0  0  0  0  0
  -27.7756  -30.8228   20.5584 C   0  0  0  0  0  0  0  0  0  0  0  0
  -30.3030  -18.9064   19.2343 C   0  0  0  0  0  0  0  0  0  0  0  0
  -23.7211   -8.6821   23.0658 C   0  0  0  0  0  0  0  0  0  0  0  0
  -24.1808  -10.2951   24.8049 C   0  0  0  0  0  0  0  0  0  0  0  0
  -28.2140  -29.5021   20.4720 C   0  0  0  0  0  0  0  0  0  0  0  0
  -21.0047   -8.0622   24.9814 C   0  0  0  0  0  0  0  0  0  0  0  0
  -19.8353   -7.3374   24.7515 C   0  0  0  0  0  0  0  0  0  0  0  0
  -28.1065  -20.6007   19.5295 C   0  0  0  0  0  0  0  0  0  0  0  0
  -26.1231  -28.7529   21.4133 C   0  0  0  0  0  0  0  0  0  0  0  0
  -21.0977   -5.2786   24.8204 C   0  0  0  0  0  0  0  0  0  0  0  0
  -24.5306  -10.8839   22.4880 C   0  0  0  0  0  0  0  0  0  0  0  0
  -29.3972  -21.1292   19.5091 C   0  0  0  0  0  0  0  0  0  0  0  0
  -24.1094  -12.7837   20.8385 C   0  0  0  0  0  0  0  0  0  0  0  0
  -27.0549  -36.6366   25.8951 C   0  0  0  0  0  0  0  0  0  0  0  0
  -26.5099  -31.1197   21.0839 C   0  0  0  0  0  0  0  0  0  0  0  0
  -27.3780  -35.3756   25.3586 C   0  0  0  0  0  0  0  0  0  0  0  0
  -25.6700  -30.0779   21.5029 C   0  0  0  0  0  0  0  0  0  0  0  0
  -29.0123  -18.3779   19.2548 C   0  0  0  0  0  0  0  0  0  0  0  0
  -23.7578   -9.0235   24.4178 C   0  0  0  0  0  0  0  0  0  0  0  0
  -27.3889  -28.4671   20.9022 C   0  0  0  0  0  0  0  0  0  0  0  0
  -22.2206   -7.3952   25.1307 C   0  0  0  0  0  0  0  0  0  0  0  0
  -19.8818   -5.9457   24.6710 C   0  0  0  0  0  0  0  0  0  0  0  0
  -27.9140  -19.2251   19.4024 C   0  0  0  0  0  0  0  0  0  0  0  0
  -22.2671   -6.0034   25.0502 C   0  0  0  0  0  0  0  0  0  0  0  0
  -24.9303  -11.8451   21.4918 C   0  0  0  0  0  0  0  0  0  0  0  0
  -24.9597  -13.4540   19.9933 C   0  0  0  0  0  0  0  0  0  0  0  0
  -28.3090  -25.1729   22.0134 C   0  0  0  0  0  0  0  0  0  0  0  0
  -28.4066  -24.3901   23.2364 C   0  0  0  0  0  0  0  0  0  0  0  0
  -28.7449  -24.5966   20.7023 C   0  0  0  0  0  0  0  0  0  0  0  0
  -27.6372  -24.5725   24.3223 C   0  0  0  0  0  0  0  0  0  0  0  0
  -27.9017  -26.4532   21.9754 C   0  0  0  0  0  0  0  0  0  1  0  0
  -29.5996  -22.5829   19.6436 C   0  0  0  0  0  0  0  0  0  0  0  0
  -22.7040  -13.0280   20.9828 C   0  0  0  0  0  0  0  0  0  0  0  0
  -25.4505  -32.7684   23.5865 C   0  0  0  0  0  0  0  0  0  0  0  0
  -22.5499  -32.1522   22.2715 C   0  0  0  0  0  0  0  0  0  0  0  0
  -20.6466  -30.1623   20.2555 C   0  0  0  0  0  0  0  0  0  0  0  0
  -29.8034  -16.0030   18.9717 C   0  0  0  0  0  0  0  0  0  0  0  0
  -25.7362  -36.8928   26.5808 C   0  0  0  0  0  0  0  0  0  0  0  0
  -26.0412  -32.5476   21.1456 C   0  0  0  0  0  0  0  0  0  0  0  0
  -24.2942  -30.3421   22.0560 C   0  0  0  0  0  0  0  0  0  0  0  0
  -29.4238  -23.2897   23.1824 C   0  0  0  0  0  0  0  0  0  0  0  0
  -24.6679  -35.8523   26.2547 C   0  0  0  0  0  0  0  0  0  0  0  0
  -29.7392  -12.4569   18.6578 C   0  0  0  0  0  0  0  0  0  0  0  0
  -25.2426  -34.4438   26.3672 C   0  0  0  0  0  0  0  0  0  0  0  0
  -28.4149  -12.0588   19.3133 C   0  0  0  0  0  0  0  0  0  0  0  0
  -29.1199  -22.4079   21.9888 C   0  0  0  0  0  0  0  0  0  0  0  0
  -30.4021  -13.6266   19.3832 C   0  0  0  0  0  0  0  0  0  0  0  0
  -28.2230  -14.4078   20.2259 C   0  0  0  0  0  0  0  0  0  0  0  0
  -26.3859  -34.2329   25.3673 C   0  0  1  0  0  0  0  0  0  0  0  0
  -24.9370  -32.7702   22.1744 C   0  0  1  0  0  0  0  0  0  0  0  0
  -27.4860  -13.2758   19.4915 C   0  0  2  0  0  0  0  0  0  0  0  0
  -18.3015  -29.8883   19.4053 C   0  0  0  0  0  0  0  0  0  0  0  0
  -21.7056  -31.0153   24.9742 C   0  0  0  0  0  0  0  0  0  0  0  0
  -19.7647  -29.9234   23.8302 C   0  0  0  0  0  0  0  0  0  0  0  0
  -19.9668  -32.4097   23.8398 C   0  0  0  0  0  0  0  0  0  0  0  0
  -21.5015  -30.5111   17.4436 C   0  0  0  0  0  0  0  0  0  0  0  0
  -21.5322  -31.0445   22.3984 C   0  0  1  0  0  0  0  0  0  0  0  0
  -19.6703  -30.4966   19.1422 C   0  0  2  0  0  0  0  0  0  0  0  0
  -20.7689  -31.0930   23.7521 C   0  0  0  0  0  0  0  0  0  0  0  0
  -26.2042  -11.9100   21.0955 N   0  0  0  0  0  0  0  0  0  0  0  0
  -26.1901  -12.8974   20.1840 N   0  0  0  0  0  0  0  0  0  0  0  0
  -29.1724  -23.2046   20.7426 N   0  0  0  0  0  0  0  0  0  0  0  0
  -23.8839  -31.7553   22.1018 N   0  0  0  0  0  0  0  0  0  0  0  0
  -29.4644  -14.7442   19.5114 N   0  0  0  0  0  0  0  0  0  0  0  0
  -24.7673  -14.4591   19.1129 N   0  0  0  0  0  0  0  0  0  0  0  0
  -21.9807  -12.2487   21.8959 N   0  0  0  0  0  0  0  0  0  0  0  0
  -28.8204  -16.9800   19.1256 N   0  0  0  0  0  0  0  0  0  0  0  0
  -25.8598  -34.0087   24.0379 N   0  0  0  0  0  0  0  0  0  0  0  0
  -20.6725  -31.1435   21.2238 N   0  0  0  0  0  0  0  0  0  0  0  0
  -30.2069  -23.2511   18.6674 N   0  3  0  0  0  0  0  0  0  0  0  0
  -20.1729  -29.9769   17.8390 N   0  3  0  0  0  0  0  0  0  0  0  0
  -28.7603  -25.2180   19.6479 O   0  0  0  0  0  0  0  0  0  0  0  0
  -22.1042  -13.9002   20.3098 O   0  0  0  0  0  0  0  0  0  0  0  0
  -25.4723  -31.7198   24.2202 O   0  0  0  0  0  0  0  0  0  0  0  0
  -22.1742  -33.3264   22.3141 O   0  0  0  0  0  0  0  0  0  0  0  0
  -21.3164  -29.1319   20.2669 O   0  0  0  0  0  0  0  0  0  0  0  0
  -30.8748  -16.1924   18.3901 O   0  0  0  0  0  0  0  0  0  0  0  0
  -23.3806   -8.1161   25.3596 O   0  0  0  0  0  0  0  0  0  0  0  0
  -27.8145  -27.1772   20.8196 O   0  0  0  0  0  0  0  0  0  1  0  0
  -18.7585   -5.2497   24.4519 F   0  0  0  0  0  0  0  0  0  0  0  0
  -26.6689  -18.7282   19.4220 F   0  0  0  0  0  0  0  0  0  0  0  0
  -23.4322   -5.3570   25.1939 F   0  0  0  0  0  0  0  0  0  0  0  0
  1  2  1  0  0  0  0
  1  6  2  0  0  0  0
  2  7  2  0  0  0  0
  3 10  2  0  0  0  0
  3 18  1  0  0  0  0
  4 11  1  0  0  0  0
  4 18  2  0  0  0  0
  5  9  2  0  0  0  0
  5 19  1  0  0  0  0
  6 21  1  0  0  0  0
  7 23  1  0  0  0  0
  8 12  2  0  0  0  0
  8 22  1  0  0  0  0
  9 25  1  0  0  0  0
 10 26  1  0  0  0  0
 11 26  2  0  0  0  0
 12 27  1  0  0  0  0
 13 14  2  0  0  0  0
 13 28  1  0  0  0  0
 14 29  1  0  0  0  0
 15 19  2  0  0  0  0
 15 30  1  0  0  0  0
 16 24  1  0  0  0  0
 16 27  2  0  0  0  0
 17 29  2  0  0  0  0
 17 31  1  0  0  0  0
 18 32  1  0  0  0  0
 19 39  1  0  0  0  0
 20 32  1  0  0  0  0
 20 33  2  0  0  0  0
 20 40  1  0  0  0  0
 21 23  2  0  0  0  0
 21 45  1  0  0  0  0
 22 24  2  0  0  0  0
 22 46  1  0  0  0  0
 23 56  1  0  0  0  0
 24 47  1  0  0  0  0
 25 30  2  0  0  0  0
 25 74  1  0  0  0  0
 26 85  1  0  0  0  0
 27 86  1  0  0  0  0
 28 31  2  0  0  0  0
 28 85  1  0  0  0  0
 29 87  1  0  0  0  0
 30 88  1  0  0  0  0
 31 89  1  0  0  0  0
 32 67  2  0  0  0  0
 33 68  1  0  0  0  0
 33 72  1  0  0  0  0
 34 35  1  0  0  0  0
 34 36  1  0  0  0  0
 34 38  2  0  0  0  0
 35 37  2  0  0  0  0
 35 48  1  0  0  0  0
 36 69  1  0  0  0  0
 36 79  2  0  0  0  0
 38 86  1  0  0  0  0
 39 69  1  0  0  0  0
 39 77  2  0  0  0  0
 40 73  1  0  0  0  0
 40 80  2  0  0  0  0
 41 57  1  0  0  0  0
 41 75  1  0  0  0  0
 41 81  2  0  0  0  0
 42 64  1  0  0  0  0
 42 70  1  0  0  0  0
 42 82  2  0  0  0  0
 43 65  1  0  0  0  0
 43 76  1  0  0  0  0
 43 83  2  0  0  0  0
 44 71  1  0  0  0  0
 44 74  1  0  0  0  0
 44 84  2  0  0  0  0
 45 49  1  0  0  0  0
 46 57  1  0  0  0  0
 47 70  1  0  0  0  0
 48 53  1  0  0  0  0
 49 51  1  0  0  0  0
 50 52  1  0  0  0  0
 50 54  1  0  0  0  0
 51 56  1  0  0  0  0
 52 58  1  0  0  0  0
 53 69  1  0  0  0  0
 54 71  1  0  0  0  0
 55 58  1  0  0  0  0
 55 71  1  0  0  0  0
 56 75  1  0  0  0  0
 57 70  1  0  0  0  0
 58 68  1  0  0  0  0
 59 65  1  0  0  0  0
 60 66  1  0  0  0  0
 61 66  1  0  0  0  0
 62 66  1  0  0  0  0
 63 78  1  0  0  0  0
 64 66  1  0  0  0  0
 64 76  1  0  0  0  0
 65 78  1  0  0  0  0
 67 68  1  0  0  0  0
M  CHG  2  77   1  78   1
M  ISO  4  38 101  44 100  74 100  86 101
M  END
> <Batch ID>
0084

> <Smiles>
C=C1CCN(C(=N)c2ccc([100NH:0][100C:0](=O)N3CCCC(n4nc(-c5ccc(Oc6ccc(F)cc6F)cc5)c(C(N)=O)c4N)C3)c(F)c2)C(=O)C1=[101CH:1][101O:1]c1ccc2c(c1)CN(C(=O)C(NC(=O)C(C)NC)C(C)(C)C)C(C(=O)NC1CCCc3ccccc31)C2

> <Shape>
0.312

> <Color>
0.099

> <Negative vol penalty>
0.000

$$$$

  -OEChem-04052300123D

 87 96  0     1  0  0  0  0  0999 V2000
  -28.5276  -32.7272   25.9810 C   0  0  0  0  0  0  0  0  0  0  0  0
  -28.5350  -31.5447   25.2483 C   0  0  0  0  0  0  0  0  0  0  0  0
  -31.2124  -19.1490   18.2639 C   0  0  0  0  0  0  0  0  0  0  0  0
  -25.9404   -9.9263   22.3982 C   0  0  0  0  0  0  0  0  0  0  0  0
  -23.8603  -10.6564   23.3869 C   0  0  0  0  0  0  0  0  0  0  0  0
  -27.3241  -33.2389   26.4645 C   0  0  0  0  0  0  0  0  0  0  0  0
  -27.3390  -30.8724   24.9995 C   0  0  0  0  0  0  0  0  0  0  0  0
  -26.9472  -29.3174   20.1960 C   0  0  0  0  0  0  0  0  0  0  0  0
  -30.6218  -20.3977   18.4576 C   0  0  0  0  0  0  0  0  0  0  0  0
  -31.0839  -18.1581   19.2372 C   0  0  0  0  0  0  0  0  0  0  0  0
  -25.6620   -8.6143   22.7814 C   0  0  0  0  0  0  0  0  0  0  0  0
  -23.5819   -9.3444   23.7700 C   0  0  0  0  0  0  0  0  0  0  0  0
  -27.6571  -28.1723   19.8376 C   0  0  0  0  0  0  0  0  0  0  0  0
  -22.4198   -6.5214   22.3206 C   0  0  0  0  0  0  0  0  0  0  0  0
  -21.1297   -6.0417   22.0945 C   0  0  0  0  0  0  0  0  0  0  0  0
  -25.6387  -26.8662   20.0366 C   0  0  0  0  0  0  0  0  0  0  0  0
  -29.7742  -19.6647   20.5981 C   0  0  0  0  0  0  0  0  0  0  0  0
  -20.8597   -5.6515   24.4635 C   0  0  0  0  0  0  0  0  0  0  0  0
  -25.0395  -10.9474   22.7010 C   0  0  0  0  0  0  0  0  0  0  0  0
  -24.9715  -12.9293   21.0964 C   0  0  0  0  0  0  0  0  0  0  0  0
  -26.1115  -32.5776   26.2132 C   0  0  0  0  0  0  0  0  0  0  0  0
  -25.5778  -29.2436   20.4885 C   0  0  0  0  0  0  0  0  0  0  0  0
  -26.1182  -31.3750   25.4812 C   0  0  0  0  0  0  0  0  0  0  0  0
  -24.9132  -28.0124   20.3960 C   0  0  0  0  0  0  0  0  0  0  0  0
  -29.9027  -20.6556   19.6247 C   0  0  0  0  0  0  0  0  0  0  0  0
  -30.3648  -18.4160   20.4043 C   0  0  0  0  0  0  0  0  0  0  0  0
  -24.4827   -8.3233   23.4672 C   0  0  0  0  0  0  0  0  0  0  0  0
  -27.0035  -26.9459   19.7606 C   0  0  0  0  0  0  0  0  0  0  0  0
  -22.9299   -6.5660   23.6181 C   0  0  0  0  0  0  0  0  0  0  0  0
  -20.3496   -5.6068   23.1660 C   0  0  0  0  0  0  0  0  0  0  0  0
  -22.1498   -6.1311   24.6896 C   0  0  0  0  0  0  0  0  0  0  0  0
  -25.3268  -12.3029   22.3060 C   0  0  0  0  0  0  0  0  0  0  0  0
  -25.4717  -14.2035   21.2097 C   0  0  0  0  0  0  0  0  0  0  0  0
  -28.3856  -23.6385   20.0649 C   0  0  0  0  0  0  0  0  0  0  0  0
  -28.5813  -22.4048   20.8273 C   0  0  0  0  0  0  0  0  0  0  0  0
  -31.9589  -14.9202   19.3908 C   0  0  0  0  0  0  0  0  0  0  0  0
  -27.7342  -24.7913   20.3030 C   0  0  0  0  0  0  0  0  0  1  0  0
  -30.9568  -15.7126   19.7838 C   0  0  0  0  0  0  0  0  0  0  0  0
  -24.2536  -12.4062   19.9710 C   0  0  0  0  0  0  0  0  0  0  0  0
  -30.8312  -16.1198   21.2169 C   0  0  0  0  0  0  0  0  0  0  0  0
  -23.7973  -29.8324   23.0550 C   0  0  0  0  0  0  0  0  0  0  0  0
  -21.3483  -29.2557   21.0074 C   0  0  0  0  0  0  0  0  0  0  0  0
  -20.2618  -27.7621   18.1377 C   0  0  0  0  0  0  0  0  0  0  0  0
  -29.5251  -17.7255   22.5952 C   0  0  0  0  0  0  0  0  0  0  0  0
  -24.8413  -33.1441   26.7967 C   0  0  0  0  0  0  0  0  0  0  0  0
  -24.8207  -30.4927   20.8476 C   0  0  0  0  0  0  0  0  0  0  0  0
  -23.4398  -27.8831   20.6803 C   0  0  0  0  0  0  0  0  0  0  0  0
  -29.2094  -23.0449   18.9452 C   0  0  0  0  0  0  0  0  0  0  0  0
  -23.5737  -32.5692   26.1698 C   0  0  0  0  0  0  0  0  0  0  0  0
  -27.3768  -16.6662   25.1872 C   0  0  0  0  0  0  0  0  0  0  0  0
  -23.6698  -31.0502   26.0688 C   0  0  0  0  0  0  0  0  0  0  0  0
  -26.6298  -15.4777   24.5825 C   0  0  0  0  0  0  0  0  0  0  0  0
  -28.8344  -16.6856   24.7403 C   0  0  0  0  0  0  0  0  0  0  0  0
  -28.2676  -15.5032   22.6414 C   0  0  0  0  0  0  0  0  0  0  0  0
  -24.8385  -30.6298   25.1694 C   0  0  1  0  0  0  0  0  0  0  0  0
  -23.5381  -30.2116   21.6244 C   0  0  1  0  0  0  0  0  0  0  0  0
  -26.7837  -15.4497   23.0515 C   0  0  1  0  0  0  0  0  0  0  0  0
  -18.1999  -27.4376   16.7446 C   0  0  0  0  0  0  0  0  0  0  0  0
  -20.3170  -27.2037   23.0163 C   0  0  0  0  0  0  0  0  0  0  0  0
  -18.8629  -26.2662   21.2067 C   0  0  0  0  0  0  0  0  0  0  0  0
  -18.5426  -28.6201   21.9677 C   0  0  0  0  0  0  0  0  0  0  0  0
  -21.4844  -29.1128   15.8053 C   0  0  0  0  0  0  0  0  0  0  0  0
  -20.5748  -28.0305   20.5840 C   0  0  1  0  0  0  0  0  0  0  0  0
  -19.4378  -28.2899   16.9771 C   0  0  2  0  0  0  0  0  0  0  0  0
  -19.6025  -27.5319   21.6901 C   0  0  0  0  0  0  0  0  0  0  0  0
  -26.0007  -13.1124   23.1273 N   0  0  0  0  0  0  0  0  0  0  0  0
  -26.0730  -14.2605   22.4326 N   0  0  0  0  0  0  0  0  0  0  0  0
  -29.3201  -21.8871   19.8149 N   0  0  0  0  0  0  0  0  0  0  0  0
  -22.7447  -29.1320   21.0335 N   0  0  0  0  0  0  0  0  0  0  0  0
  -28.9364  -16.6460   23.2815 N   0  0  0  0  0  0  0  0  0  0  0  0
  -25.4514  -15.2694   20.3816 N   0  0  0  0  0  0  0  0  0  0  0  0
  -23.8111  -11.0772   20.0197 N   0  0  0  0  0  0  0  0  0  0  0  0
  -24.4861  -30.7898   23.7749 N   0  0  0  0  0  0  0  0  0  0  0  0
  -19.9221  -28.3745   19.3254 N   0  0  0  0  0  0  0  0  0  0  0  0
  -30.2316  -17.3864   21.4148 N   0  0  0  0  0  0  0  0  0  0  0  0
  -20.2477  -28.2934   15.7261 N   0  3  0  0  0  0  0  0  0  0  0  0
  -28.2220  -21.9987   21.9129 O   0  0  0  0  0  0  0  0  0  0  0  0
  -24.0258  -13.0918   18.9455 O   0  0  0  0  0  0  0  0  0  0  0  0
  -31.2790  -15.3998   22.1086 O   0  0  0  0  0  0  0  0  0  0  0  0
  -23.4003  -28.7518   23.4751 O   0  0  0  0  0  0  0  0  0  0  0  0
  -20.7365  -30.2869   21.2973 O   0  0  0  0  0  0  0  0  0  0  0  0
  -21.1185  -26.8909   18.0046 O   0  0  0  0  0  0  0  0  0  0  0  0
  -29.4863  -18.8908   23.0066 O   0  0  0  0  0  0  0  0  0  0  0  0
  -24.2106   -7.0432   23.8410 O   0  0  0  0  0  0  0  0  0  0  0  0
  -27.6941  -25.8265   19.4116 O   0  0  0  0  0  0  0  0  0  1  0  0
  -19.1101   -5.1477   22.9489 F   0  0  0  0  0  0  0  0  0  0  0  0
  -22.6340   -6.1727   25.9384 F   0  0  0  0  0  0  0  0  0  0  0  0
  1  2  1  0  0  0  0
  1  6  2  0  0  0  0
  2  7  2  0  0  0  0
  3  9  1  0  0  0  0
  3 10  2  0  0  0  0
  4 11  2  0  0  0  0
  4 19  1  0  0  0  0
  5 12  1  0  0  0  0
  5 19  2  0  0  0  0
  6 21  1  0  0  0  0
  7 23  1  0  0  0  0
  8 13  2  0  0  0  0
  8 22  1  0  0  0  0
  9 25  2  0  0  0  0
 10 26  1  0  0  0  0
 11 27  1  0  0  0  0
 12 27  2  0  0  0  0
 13 28  1  0  0  0  0
 14 15  2  0  0  0  0
 14 29  1  0  0  0  0
 15 30  1  0  0  0  0
 16 24  1  0  0  0  0
 16 28  2  0  0  0  0
 17 25  1  0  0  0  0
 17 26  2  0  0  0  0
 18 30  2  0  0  0  0
 18 31  1  0  0  0  0
 19 32  1  0  0  0  0
 20 32  1  0  0  0  0
 20 33  2  0  0  0  0
 20 39  1  0  0  0  0
 21 23  2  0  0  0  0
 21 45  1  0  0  0  0
 22 24  2  0  0  0  0
 22 46  1  0  0  0  0
 23 55  1  0  0  0  0
 24 47  1  0  0  0  0
 25 68  1  0  0  0  0
 26 75  1  0  0  0  0
 27 84  1  0  0  0  0
 28 85  1  0  0  0  0
 29 31  2  0  0  0  0
 29 84  1  0  0  0  0
 30 86  1  0  0  0  0
 31 87  1  0  0  0  0
 32 66  2  0  0  0  0
 33 67  1  0  0  0  0
 33 71  1  0  0  0  0
 34 35  1  0  0  0  0
 34 37  2  0  0  0  0
 34 48  1  0  0  0  0
 35 68  1  0  0  0  0
 35 77  2  0  0  0  0
 36 38  2  0  0  0  0
 37 85  1  0  0  0  0
 38 40  1  0  0  0  0
 39 72  1  0  0  0  0
 39 78  2  0  0  0  0
 40 75  1  0  0  0  0
 40 79  2  0  0  0  0
 41 56  1  0  0  0  0
 41 73  1  0  0  0  0
 41 80  2  0  0  0  0
 42 63  1  0  0  0  0
 42 69  1  0  0  0  0
 42 81  2  0  0  0  0
 43 64  1  0  0  0  0
 43 74  1  0  0  0  0
 43 82  2  0  0  0  0
 44 70  1  0  0  0  0
 44 75  1  0  0  0  0
 44 83  2  0  0  0  0
 45 49  1  0  0  0  0
 46 56  1  0  0  0  0
 47 69  1  0  0  0  0
 48 68  1  0  0  0  0
 49 51  1  0  0  0  0
 50 52  1  0  0  0  0
 50 53  1  0  0  0  0
 51 55  1  0  0  0  0
 52 57  1  0  0  0  0
 53 70  1  0  0  0  0
 54 57  1  0  0  0  0
 54 70  1  0  0  0  0
 55 73  1  0  0  0  0
 56 69  1  0  0  0  0
 57 67  1  0  0  0  0
 58 64  1  0  0  0  0
 59 65  1  0  0  0  0
 60 65  1  0  0  0  0
 61 65  1  0  0  0  0
 62 76  1  0  0  0  0
 63 65  1  0  0  0  0
 63 74  1  0  0  0  0
 64 76  1  0  0  0  0
 66 67  1  0  0  0  0
M  CHG  1  76   1
M  ISO  4  37 101  44 100  75 100  85 101
M  END
> <Batch ID>
0084

> <Smiles>
C=CC(=O)[100N:0](c1cccc(N2CC(=[101CH:1][101O:1]c3ccc4c(c3)CN(C(=O)C(NC(=O)C(C)NC)C(C)(C)C)C(C(=O)NC3CCCc5ccccc53)C4)C2=O)c1)[100C:0](=O)N1CCCC(n2nc(-c3ccc(Oc4ccc(F)cc4F)cc3)c(C(N)=O)c2N)C1

> <Shape>
0.316

> <Color>
0.093

> <Negative vol penalty>
0.000

$$$$

  -OEChem-04052300123D

 86 95  0     1  0  0  0  0  0999 V2000
  -28.0308  -32.9996   27.0322 C   0  0  0  0  0  0  0  0  0  0  0  0
  -28.1456  -31.8632   26.2380 C   0  0  0  0  0  0  0  0  0  0  0  0
  -29.4508  -19.4013   15.3531 C   0  0  0  0  0  0  0  0  0  0  0  0
  -24.1719   -8.7257   19.6397 C   0  0  0  0  0  0  0  0  0  0  0  0
  -24.1536   -9.3979   21.9602 C   0  0  0  0  0  0  0  0  0  0  0  0
  -26.7719  -33.5315   27.3083 C   0  0  0  0  0  0  0  0  0  0  0  0
  -27.0013  -31.2573   25.7203 C   0  0  0  0  0  0  0  0  0  0  0  0
  -27.5045  -30.0070   20.8389 C   0  0  0  0  0  0  0  0  0  0  0  0
  -29.5691  -20.7377   15.7348 C   0  0  0  0  0  0  0  0  0  0  0  0
  -28.8655  -18.4778   16.2193 C   0  0  0  0  0  0  0  0  0  0  0  0
  -23.1261   -7.8371   19.8888 C   0  0  0  0  0  0  0  0  0  0  0  0
  -23.1077   -8.5093   22.2093 C   0  0  0  0  0  0  0  0  0  0  0  0
  -28.2364  -28.8565   20.5485 C   0  0  0  0  0  0  0  0  0  0  0  0
  -20.6742   -6.1577   23.5352 C   0  0  0  0  0  0  0  0  0  0  0  0
  -20.7582   -5.3613   24.6772 C   0  0  0  0  0  0  0  0  0  0  0  0
  -26.1803  -27.6262   20.2694 C   0  0  0  0  0  0  0  0  0  0  0  0
  -22.8093   -4.3898   23.8488 C   0  0  0  0  0  0  0  0  0  0  0  0
  -24.6857   -9.5061   20.6754 C   0  0  0  0  0  0  0  0  0  0  0  0
  -27.0513  -10.1105   19.9361 C   0  0  0  0  0  0  0  0  0  0  0  0
  -25.6123  -32.9374   26.7858 C   0  0  0  0  0  0  0  0  0  0  0  0
  -26.1028  -29.9731   20.8574 C   0  0  0  0  0  0  0  0  0  0  0  0
  -25.7256  -31.7809   25.9908 C   0  0  0  0  0  0  0  0  0  0  0  0
  -25.4329  -28.7783   20.5578 C   0  0  0  0  0  0  0  0  0  0  0  0
  -29.1023  -21.1506   16.9826 C   0  0  0  0  0  0  0  0  0  0  0  0
  -28.3987  -18.8907   17.4672 C   0  0  0  0  0  0  0  0  0  0  0  0
  -22.5939   -7.7289   21.1736 C   0  0  0  0  0  0  0  0  0  0  0  0
  -27.5744  -27.6651   20.2665 C   0  0  0  0  0  0  0  0  0  0  0  0
  -21.6576   -6.0701   22.5499 C   0  0  0  0  0  0  0  0  0  0  0  0
  -21.8258   -4.4774   24.8341 C   0  0  0  0  0  0  0  0  0  0  0  0
  -22.7252   -5.1862   22.7067 C   0  0  0  0  0  0  0  0  0  0  0  0
  -28.5170  -20.2271   17.8489 C   0  0  0  0  0  0  0  0  0  0  0  0
  -25.7665  -10.4238   20.4188 C   0  0  0  0  0  0  0  0  0  0  0  0
  -27.6966  -11.3210   19.8666 C   0  0  0  0  0  0  0  0  0  0  0  0
  -29.3049  -25.2196   18.2845 C   0  0  0  0  0  0  0  0  0  0  0  0
  -29.2022  -23.5640   16.4104 C   0  0  0  0  0  0  0  0  0  0  0  0
  -28.6081  -26.2943   18.6781 C   0  0  0  0  0  0  0  0  0  1  0  0
  -27.6114   -8.8390   19.5823 C   0  0  0  0  0  0  0  0  0  0  0  0
  -23.8758  -30.4827   23.0675 C   0  0  0  0  0  0  0  0  0  0  0  0
  -21.8553  -30.1308   20.5543 C   0  0  0  0  0  0  0  0  0  0  0  0
  -21.5772  -27.9648   17.6823 C   0  0  0  0  0  0  0  0  0  0  0  0
  -27.6072  -16.5834   18.1263 C   0  0  0  0  0  0  0  0  0  0  0  0
  -24.2702  -33.5208   27.1507 C   0  0  0  0  0  0  0  0  0  0  0  0
  -25.3275  -31.2293   21.1463 C   0  0  0  0  0  0  0  0  0  0  0  0
  -23.9292  -28.6940   20.5448 C   0  0  0  0  0  0  0  0  0  0  0  0
  -29.6597  -24.9438   16.8641 C   0  0  0  0  0  0  0  0  0  0  0  0
  -29.7889  -24.1661   19.2224 C   0  0  0  0  0  0  0  0  0  0  0  0
  -23.1321  -33.0373   26.2554 C   0  0  0  0  0  0  0  0  0  0  0  0
  -25.6248  -15.7152   21.2950 C   0  0  0  0  0  0  0  0  0  0  0  0
  -23.2012  -31.5242   26.0745 C   0  0  0  0  0  0  0  0  0  0  0  0
  -26.2226  -14.3437   21.6002 C   0  0  0  0  0  0  0  0  0  0  0  0
  -29.1601  -22.8409   18.8191 C   0  0  0  0  0  0  0  0  0  0  0  0
  -26.5548  -16.5752   20.4486 C   0  0  0  0  0  0  0  0  0  0  0  0
  -26.7034  -14.4779   19.0940 C   0  0  0  0  0  0  0  0  0  0  0  0
  -24.5095  -31.1095   25.3905 C   0  0  1  0  0  0  0  0  0  0  0  0
  -23.9108  -30.9563   21.6420 C   0  0  1  0  0  0  0  0  0  0  0  0
  -27.0043  -13.7482   20.4124 C   0  0  2  0  0  0  0  0  0  0  0  0
  -20.5155  -28.3539   15.4421 C   0  0  0  0  0  0  0  0  0  0  0  0
  -19.4033  -28.8213   21.8124 C   0  0  0  0  0  0  0  0  0  0  0  0
  -18.9732  -27.6851   19.6232 C   0  0  0  0  0  0  0  0  0  0  0  0
  -18.9275  -30.1753   19.7642 C   0  0  0  0  0  0  0  0  0  0  0  0
  -24.0751  -27.2805   16.2500 C   0  0  0  0  0  0  0  0  0  0  0  0
  -21.1430  -28.9660   19.9101 C   0  0  1  0  0  0  0  0  0  0  0  0
  -21.8151  -28.3439   16.2317 C   0  0  2  0  0  0  0  0  0  0  0  0
  -19.6366  -28.9086   20.2909 C   0  0  0  0  0  0  0  0  0  0  0  0
  -25.6035  -11.7309   20.6403 N   0  0  0  0  0  0  0  0  0  0  0  0
  -26.7943  -12.2495   20.2954 N   0  0  0  0  0  0  0  0  0  0  0  0
  -29.2266  -22.5380   17.3751 N   0  0  0  0  0  0  0  0  0  0  0  0
  -23.2158  -29.9476   20.8397 N   0  0  0  0  0  0  0  0  0  0  0  0
  -26.9815  -15.9143   19.2066 N   0  0  0  0  0  0  0  0  0  0  0  0
  -28.9421  -11.6710   19.4811 N   0  0  0  0  0  0  0  0  0  0  0  0
  -28.2711   -8.1002   20.5739 N   0  0  0  0  0  0  0  0  0  0  0  0
  -27.8046  -17.9494   18.3447 N   0  0  0  0  0  0  0  0  0  0  0  0
  -24.4395  -31.3663   23.9680 N   0  0  0  0  0  0  0  0  0  0  0  0
  -21.3933  -29.0764   18.4771 N   0  0  0  0  0  0  0  0  0  0  0  0
  -22.7478  -27.3752   15.5894 N   0  3  0  0  0  0  0  0  0  0  0  0
  -28.8994  -23.4184   15.2224 O   0  0  0  0  0  0  0  0  0  0  0  0
  -27.5435   -8.3791   18.4172 O   0  0  0  0  0  0  0  0  0  0  0  0
  -23.3731  -29.3966   23.3311 O   0  0  0  0  0  0  0  0  0  0  0  0
  -21.2295  -31.1676   20.7889 O   0  0  0  0  0  0  0  0  0  0  0  0
  -21.5530  -26.7990   18.0707 O   0  0  0  0  0  0  0  0  0  0  0  0
  -27.9474  -15.9852   17.1035 O   0  0  0  0  0  0  0  0  0  0  0  0
  -21.5732   -6.8620   21.4170 O   0  0  0  0  0  0  0  0  0  0  0  0
  -28.2864  -26.5405   19.9834 O   0  0  0  0  0  0  0  0  0  1  0  0
  -21.9072   -3.7137   25.9315 F   0  0  0  0  0  0  0  0  0  0  0  0
  -23.6737   -5.0985   21.7641 F   0  0  0  0  0  0  0  0  0  0  0  0
  -28.0687  -20.6243   19.0498 F   0  0  0  0  0  0  0  0  0  0  0  0
  1  2  1  0  0  0  0
  1  6  2  0  0  0  0
  2  7  2  0  0  0  0
  3  9  2  0  0  0  0
  3 10  1  0  0  0  0
  4 11  2  0  0  0  0
  4 18  1  0  0  0  0
  5 12  1  0  0  0  0
  5 18  2  0  0  0  0
  6 20  1  0  0  0  0
  7 22  1  0  0  0  0
  8 13  2  0  0  0  0
  8 21  1  0  0  0  0
  9 24  1  0  0  0  0
 10 25  2  0  0  0  0
 11 26  1  0  0  0  0
 12 26  2  0  0  0  0
 13 27  1  0  0  0  0
 14 15  2  0  0  0  0
 14 28  1  0  0  0  0
 15 29  1  0  0  0  0
 16 23  1  0  0  0  0
 16 27  2  0  0  0  0
 17 29  2  0  0  0  0
 17 30  1  0  0  0  0
 18 32  1  0  0  0  0
 19 32  1  0  0  0  0
 19 33  2  0  0  0  0
 19 37  1  0  0  0  0
 20 22  2  0  0  0  0
 20 42  1  0  0  0  0
 21 23  2  0  0  0  0
 21 43  1  0  0  0  0
 22 54  1  0  0  0  0
 23 44  1  0  0  0  0
 24 31  2  0  0  0  0
 24 67  1  0  0  0  0
 25 31  1  0  0  0  0
 25 72  1  0  0  0  0
 26 82  1  0  0  0  0
 27 83  1  0  0  0  0
 28 30  2  0  0  0  0
 28 82  1  0  0  0  0
 29 84  1  0  0  0  0
 30 85  1  0  0  0  0
 31 86  1  0  0  0  0
 32 65  2  0  0  0  0
 33 66  1  0  0  0  0
 33 70  1  0  0  0  0
 34 36  2  0  0  0  0
 34 45  1  0  0  0  0
 34 46  1  0  0  0  0
 35 45  1  0  0  0  0
 35 67  1  0  0  0  0
 35 76  2  0  0  0  0
 36 83  1  0  0  0  0
 37 71  1  0  0  0  0
 37 77  2  0  0  0  0
 38 55  1  0  0  0  0
 38 73  1  0  0  0  0
 38 78  2  0  0  0  0
 39 62  1  0  0  0  0
 39 68  1  0  0  0  0
 39 79  2  0  0  0  0
 40 63  1  0  0  0  0
 40 74  1  0  0  0  0
 40 80  2  0  0  0  0
 41 69  1  0  0  0  0
 41 72  1  0  0  0  0
 41 81  2  0  0  0  0
 42 47  1  0  0  0  0
 43 55  1  0  0  0  0
 44 68  1  0  0  0  0
 46 51  1  0  0  0  0
 47 49  1  0  0  0  0
 48 50  1  0  0  0  0
 48 52  1  0  0  0  0
 49 54  1  0  0  0  0
 50 56  1  0  0  0  0
 51 67  1  0  0  0  0
 52 69  1  0  0  0  0
 53 56  1  0  0  0  0
 53 69  1  0  0  0  0
 54 73  1  0  0  0  0
 55 68  1  0  0  0  0
 56 66  1  0  0  0  0
 57 63  1  0  0  0  0
 58 64  1  0  0  0  0
 59 64  1  0  0  0  0
 60 64  1  0  0  0  0
 61 75  1  0  0  0  0
 62 64  1  0  0  0  0
 62 74  1  0  0  0  0
 63 75  1  0  0  0  0
 65 66  1  0  0  0  0
M  CHG  1  75   1
M  ISO  4  36 101  41 100  72 100  83 101
M  END
> <Batch ID>
0084

> <Smiles>
CNC(C)C(=O)NC(C(=O)N1Cc2cc([101O:1][101CH:1]=C3CCN(c4cccc([100NH:0][100C:0](=O)N5CCCC(n6nc(-c7ccc(Oc8ccc(F)cc8F)cc7)c(C(N)=O)c6N)C5)c4F)C(=O)C3)ccc2CC1C(=O)NC1CCCc2ccccc21)C(C)(C)C

> <Shape>
0.291

> <Color>
0.128

> <Negative vol penalty>
0.000

$$$$

  -OEChem-04052300123D

 85 94  0     1  0  0  0  0  0999 V2000
  -30.4753  -29.4543   15.1016 C   0  0  0  0  0  0  0  0  0  0  0  0
  -29.3205  -28.7778   15.4815 C   0  0  0  0  0  0  0  0  0  0  0  0
  -22.8932  -10.0756   20.0885 C   0  0  0  0  0  0  0  0  0  0  0  0
  -24.4915   -9.1718   21.6588 C   0  0  0  0  0  0  0  0  0  0  0  0
  -31.2479  -30.1060   16.0620 C   0  0  0  0  0  0  0  0  0  0  0  0
  -28.9382  -28.7517   16.8222 C   0  0  0  0  0  0  0  0  0  0  0  0
  -23.2227  -28.7769   19.0219 C   0  0  0  0  0  0  0  0  0  0  0  0
  -22.0549   -8.9837   20.3133 C   0  0  0  0  0  0  0  0  0  0  0  0
  -23.6532   -8.0799   21.8836 C   0  0  0  0  0  0  0  0  0  0  0  0
  -22.3890  -27.7572   19.4788 C   0  0  0  0  0  0  0  0  0  0  0  0
  -20.8569   -7.4128   23.6602 C   0  0  0  0  0  0  0  0  0  0  0  0
  -20.6538   -7.0149   24.9815 C   0  0  0  0  0  0  0  0  0  0  0  0
  -23.0246  -20.4549   23.7225 C   0  0  0  0  0  0  0  0  0  0  0  0
  -24.0750  -19.5239   23.9672 C   0  0  0  0  0  0  0  0  0  0  0  0
  -23.0693  -28.2249   21.7455 C   0  0  0  0  0  0  0  0  0  0  0  0
  -21.5674   -4.8384   24.4666 C   0  0  0  0  0  0  0  0  0  0  0  0
  -24.1116  -10.1696   20.7612 C   0  0  0  0  0  0  0  0  0  0  0  0
  -25.5544  -11.6886   19.3056 C   0  0  0  0  0  0  0  0  0  0  0  0
  -30.8696  -30.0960   17.4139 C   0  0  0  0  0  0  0  0  0  0  0  0
  -23.9956  -29.5224   19.9238 C   0  0  0  0  0  0  0  0  0  0  0  0
  -29.7072  -29.4028   17.8018 C   0  0  0  0  0  0  0  0  0  0  0  0
  -23.9101  -29.2552   21.2977 C   0  0  0  0  0  0  0  0  0  0  0  0
  -22.4349   -7.9858   21.2109 C   0  0  0  0  0  0  0  0  0  0  0  0
  -22.3144  -27.4791   20.8405 C   0  0  0  0  0  0  0  0  0  0  0  0
  -21.4152   -6.5235   22.7420 C   0  0  0  0  0  0  0  0  0  0  0  0
  -21.0090   -5.7277   25.3848 C   0  0  0  0  0  0  0  0  0  0  0  0
  -21.7705   -5.2363   23.1452 C   0  0  0  0  0  0  0  0  0  0  0  0
  -24.9783  -11.2970   20.5290 C   0  0  0  0  0  0  0  0  0  0  0  0
  -22.0453  -19.9283   22.9094 C   0  0  0  0  0  0  0  0  0  0  0  0
  -26.2860  -12.8094   19.6138 C   0  0  0  0  0  0  0  0  0  0  0  0
  -23.8583  -18.3208   23.3320 C   0  0  0  0  0  0  0  0  0  0  0  0
  -21.3182  -24.1742   21.8169 C   0  0  0  0  0  0  0  0  0  0  0  0
  -21.8968  -22.8089   21.9217 C   0  0  0  0  0  0  0  0  0  0  0  0
  -22.0227  -25.2243   21.3897 C   0  0  0  0  0  0  0  0  0  1  0  0
  -25.4384  -11.0926   18.0068 C   0  0  0  0  0  0  0  0  0  0  0  0
  -20.8064  -20.5607   22.4263 C   0  0  0  0  0  0  0  0  0  0  0  0
  -27.1102  -29.9771   20.3667 C   0  0  0  0  0  0  0  0  0  0  0  0
  -26.0867  -32.1349   22.5619 C   0  0  0  0  0  0  0  0  0  0  0  0
  -23.6097  -33.1736   24.6672 C   0  0  0  0  0  0  0  0  0  0  0  0
  -25.8510  -16.9055   23.9426 C   0  0  0  0  0  0  0  0  0  0  0  0
  -31.7622  -30.7749   18.4224 C   0  0  0  0  0  0  0  0  0  0  0  0
  -24.8697  -30.6368   19.4174 C   0  0  0  0  0  0  0  0  0  0  0  0
  -24.7039  -30.0398   22.3090 C   0  0  0  0  0  0  0  0  0  0  0  0
  -19.8827  -24.1498   22.2183 C   0  0  0  0  0  0  0  0  0  0  0  0
  -31.0860  -31.0155   19.7697 C   0  0  0  0  0  0  0  0  0  0  0  0
  -28.6687  -14.8477   23.2336 C   0  0  0  0  0  0  0  0  0  0  0  0
  -30.3531  -29.7598   20.2310 C   0  0  0  0  0  0  0  0  0  0  0  0
  -28.0958  -13.7426   22.3432 C   0  0  0  0  0  0  0  0  0  0  0  0
  -19.5514  -22.6709   22.1735 C   0  0  0  0  0  0  0  0  0  0  0  0
  -27.6819  -15.2686   24.3211 C   0  0  0  0  0  0  0  0  0  0  0  0
  -25.7732  -14.5353   22.9469 C   0  0  0  0  0  0  0  0  0  0  0  0
  -29.2462  -29.3727   19.2429 C   0  0  1  0  0  0  0  0  0  0  0  0
  -26.0016  -30.9913   20.3768 C   0  0  1  0  0  0  0  0  0  0  0  0
  -26.7060  -14.1234   21.7963 C   0  0  2  0  0  0  0  0  0  0  0  0
  -23.0793  -34.9474   26.3612 C   0  0  0  0  0  0  0  0  0  0  0  0
  -27.8611  -30.7166   24.5990 C   0  0  0  0  0  0  0  0  0  0  0  0
  -26.5950  -31.8881   26.4136 C   0  0  0  0  0  0  0  0  0  0  0  0
  -27.8938  -33.2129   24.7461 C   0  0  0  0  0  0  0  0  0  0  0  0
  -21.3246  -34.1744   23.0750 C   0  0  0  0  0  0  0  0  0  0  0  0
  -25.7466  -32.0853   24.0319 C   0  0  1  0  0  0  0  0  0  0  0  0
  -22.9918  -34.5407   24.8985 C   0  0  2  0  0  0  0  0  0  0  0  0
  -27.0105  -31.9595   24.9287 C   0  0  0  0  0  0  0  0  0  0  0  0
  -25.3151  -12.1034   21.5391 N   0  0  0  0  0  0  0  0  0  0  0  0
  -26.1108  -13.0129   20.9510 N   0  0  0  0  0  0  0  0  0  0  0  0
  -20.8147  -21.9553   22.2434 N   0  0  0  0  0  0  0  0  0  0  0  0
  -25.5489  -31.1152   21.7639 N   0  0  0  0  0  0  0  0  0  0  0  0
  -26.3892  -15.6190   23.7285 N   0  0  0  0  0  0  0  0  0  0  0  0
  -27.0558  -13.6308   18.8688 N   0  0  0  0  0  0  0  0  0  0  0  0
  -24.6466   -9.9447   17.8667 N   0  0  0  0  0  0  0  0  0  0  0  0
  -24.6332  -17.1348   23.3030 N   0  0  0  0  0  0  0  0  0  0  0  0
  -28.0886  -30.2226   19.4223 N   0  0  0  0  0  0  0  0  0  0  0  0
  -24.9364  -33.2677   24.3036 N   0  0  0  0  0  0  0  0  0  0  0  0
  -21.5565  -34.5349   24.4974 N   0  3  0  0  0  0  0  0  0  0  0  0
  -23.0737  -22.5400   21.7469 O   0  0  0  0  0  0  0  0  0  0  0  0
  -26.0329  -11.5545   17.0034 O   0  0  0  0  0  0  0  0  0  0  0  0
  -19.8475  -19.8279   22.1895 O   0  0  0  0  0  0  0  0  0  0  0  0
  -27.0808  -29.0420   21.1581 O   0  0  0  0  0  0  0  0  0  0  0  0
  -26.7974  -33.0489   22.1361 O   0  0  0  0  0  0  0  0  0  0  0  0
  -22.9797  -32.1267   24.7999 O   0  0  0  0  0  0  0  0  0  0  0  0
  -26.4410  -17.7514   24.6195 O   0  0  0  0  0  0  0  0  0  0  0  0
  -21.6170   -6.9203   21.4307 O   0  0  0  0  0  0  0  0  0  0  0  0
  -21.5020  -26.4838   21.2891 O   0  0  0  0  0  0  0  0  0  1  0  0
  -20.8154   -5.3463   26.6541 F   0  0  0  0  0  0  0  0  0  0  0  0
  -22.3084   -4.3779   22.2679 F   0  0  0  0  0  0  0  0  0  0  0  0
  -22.3937  -18.3173   22.4447 S   0  0  0  0  0  0  0  0  0  0  0  0
  1  2  1  0  0  0  0
  1  5  2  0  0  0  0
  2  6  2  0  0  0  0
  3  8  2  0  0  0  0
  3 17  1  0  0  0  0
  4  9  1  0  0  0  0
  4 17  2  0  0  0  0
  5 19  1  0  0  0  0
  6 21  1  0  0  0  0
  7 10  2  0  0  0  0
  7 20  1  0  0  0  0
  8 23  1  0  0  0  0
  9 23  2  0  0  0  0
 10 24  1  0  0  0  0
 11 12  2  0  0  0  0
 11 25  1  0  0  0  0
 12 26  1  0  0  0  0
 13 14  1  0  0  0  0
 13 29  2  0  0  0  0
 14 31  2  0  0  0  0
 15 22  1  0  0  0  0
 15 24  2  0  0  0  0
 16 26  2  0  0  0  0
 16 27  1  0  0  0  0
 17 28  1  0  0  0  0
 18 28  1  0  0  0  0
 18 30  2  0  0  0  0
 18 35  1  0  0  0  0
 19 21  2  0  0  0  0
 19 41  1  0  0  0  0
 20 22  2  0  0  0  0
 20 42  1  0  0  0  0
 21 52  1  0  0  0  0
 22 43  1  0  0  0  0
 23 81  1  0  0  0  0
 24 82  1  0  0  0  0
 25 27  2  0  0  0  0
 25 81  1  0  0  0  0
 26 83  1  0  0  0  0
 27 84  1  0  0  0  0
 28 63  2  0  0  0  0
 29 36  1  0  0  0  0
 29 85  1  0  0  0  0
 30 64  1  0  0  0  0
 30 68  1  0  0  0  0
 31 70  1  0  0  0  0
 31 85  1  0  0  0  0
 32 33  1  0  0  0  0
 32 34  2  0  0  0  0
 32 44  1  0  0  0  0
 33 65  1  0  0  0  0
 33 74  2  0  0  0  0
 34 82  1  0  0  0  0
 35 69  1  0  0  0  0
 35 75  2  0  0  0  0
 36 65  1  0  0  0  0
 36 76  2  0  0  0  0
 37 53  1  0  0  0  0
 37 71  1  0  0  0  0
 37 77  2  0  0  0  0
 38 60  1  0  0  0  0
 38 66  1  0  0  0  0
 38 78  2  0  0  0  0
 39 61  1  0  0  0  0
 39 72  1  0  0  0  0
 39 79  2  0  0  0  0
 40 67  1  0  0  0  0
 40 70  1  0  0  0  0
 40 80  2  0  0  0  0
 41 45  1  0  0  0  0
 42 53  1  0  0  0  0
 43 66  1  0  0  0  0
 44 49  1  0  0  0  0
 45 47  1  0  0  0  0
 46 48  1  0  0  0  0
 46 50  1  0  0  0  0
 47 52  1  0  0  0  0
 48 54  1  0  0  0  0
 49 65  1  0  0  0  0
 50 67  1  0  0  0  0
 51 54  1  0  0  0  0
 51 67  1  0  0  0  0
 52 71  1  0  0  0  0
 53 66  1  0  0  0  0
 54 64  1  0  0  0  0
 55 61  1  0  0  0  0
 56 62  1  0  0  0  0
 57 62  1  0  0  0  0
 58 62  1  0  0  0  0
 59 73  1  0  0  0  0
 60 62  1  0  0  0  0
 60 72  1  0  0  0  0
 61 73  1  0  0  0  0
 63 64  1  0  0  0  0
M  CHG  1  73   1
M  ISO  4  34 101  40 100  70 100  82 101
M  END
> <Batch ID>
0084

> <Smiles>
CNC(C)C(=O)NC(C(=O)N1Cc2cc([101O:1][101CH:1]=C3CCN(C(=O)c4ccc([100NH:0][100C:0](=O)N5CCCC(n6nc(-c7ccc(Oc8ccc(F)cc8F)cc7)c(C(N)=O)c6N)C5)s4)C3=O)ccc2CC1C(=O)NC1CCCc2ccccc21)C(C)(C)C

> <Shape>
0.222

> <Color>
0.101

> <Negative vol penalty>
0.000

$$$$

  -OEChem-04052300123D

 87 96  0     1  0  0  0  0  0999 V2000
  -26.5827  -35.6179   15.3579 C   0  0  0  0  0  0  0  0  0  0  0  0
  -26.3315  -34.2499   15.3846 C   0  0  0  0  0  0  0  0  0  0  0  0
  -23.0061  -10.3206   19.8543 C   0  0  0  0  0  0  0  0  0  0  0  0
  -23.7760   -9.5474   22.0099 C   0  0  0  0  0  0  0  0  0  0  0  0
  -28.5253  -19.6176   17.5240 C   0  0  0  0  0  0  0  0  0  0  0  0
  -27.0847  -36.2555   16.4916 C   0  0  0  0  0  0  0  0  0  0  0  0
  -26.5831  -33.5184   16.5448 C   0  0  0  0  0  0  0  0  0  0  0  0
  -23.4020  -28.7207   18.6347 C   0  0  0  0  0  0  0  0  0  0  0  0
  -27.4949  -20.5554   17.5894 C   0  0  0  0  0  0  0  0  0  0  0  0
  -22.1199   -9.2457   19.7852 C   0  0  0  0  0  0  0  0  0  0  0  0
  -22.8897   -8.4725   21.9408 C   0  0  0  0  0  0  0  0  0  0  0  0
  -23.6132  -27.3453   18.5475 C   0  0  0  0  0  0  0  0  0  0  0  0
  -22.7411   -5.4604   20.4124 C   0  0  0  0  0  0  0  0  0  0  0  0
  -23.2224   -4.1999   20.7658 C   0  0  0  0  0  0  0  0  0  0  0  0
  -24.6527  -27.3730   20.7241 C   0  0  0  0  0  0  0  0  0  0  0  0
  -23.3489  -22.1805   18.6964 C   0  0  0  0  0  0  0  0  0  0  0  0
  -26.3149  -19.1492   19.1603 C   0  0  0  0  0  0  0  0  0  0  0  0
  -21.5698   -4.0615   22.5228 C   0  0  0  0  0  0  0  0  0  0  0  0
  -25.5236  -22.6088   18.3000 C   0  0  0  0  0  0  0  0  0  0  0  0
  -23.8342  -10.4714   20.9666 C   0  0  0  0  0  0  0  0  0  0  0  0
  -28.4506  -18.4456   18.2766 C   0  0  0  0  0  0  0  0  0  0  0  0
  -24.5017  -12.8549   21.5841 C   0  0  0  0  0  0  0  0  0  0  0  0
  -27.3335  -35.5333   17.6693 C   0  0  0  0  0  0  0  0  0  0  0  0
  -23.8251  -29.4355   19.7645 C   0  0  0  0  0  0  0  0  0  0  0  0
  -27.0902  -34.1467   17.6949 C   0  0  0  0  0  0  0  0  0  0  0  0
  -24.4434  -28.7569   20.8243 C   0  0  0  0  0  0  0  0  0  0  0  0
  -24.2900  -23.2066   18.4344 C   0  0  0  0  0  0  0  0  0  0  0  0
  -26.3897  -20.3212   18.4076 C   0  0  0  0  0  0  0  0  0  0  0  0
  -22.0617   -8.3216   20.8285 C   0  0  0  0  0  0  0  0  0  0  0  0
  -24.2412  -26.6717   19.5910 C   0  0  0  0  0  0  0  0  0  0  0  0
  -21.6741   -6.0215   21.1142 C   0  0  0  0  0  0  0  0  0  0  0  0
  -22.6368   -3.5004   21.8210 C   0  0  0  0  0  0  0  0  0  0  0  0
  -27.3454  -18.2114   19.0948 C   0  0  0  0  0  0  0  0  0  0  0  0
  -21.0885   -5.3221   22.1693 C   0  0  0  0  0  0  0  0  0  0  0  0
  -24.7503  -11.5813   21.0383 C   0  0  0  0  0  0  0  0  0  0  0  0
  -25.6798  -13.5391   21.4097 C   0  0  0  0  0  0  0  0  0  0  0  0
  -24.0362  -20.9869   18.7142 C   0  0  0  0  0  0  0  0  0  0  0  0
  -29.5499  -17.4489   18.2051 C   0  0  0  0  0  0  0  0  0  0  0  0
  -23.3122  -13.3731   22.1943 C   0  0  0  0  0  0  0  0  0  0  0  0
  -25.8883  -31.7976   20.2814 C   0  0  0  0  0  0  0  0  0  0  0  0
  -24.6807  -31.6716   23.2894 C   0  0  0  0  0  0  0  0  0  0  0  0
  -23.1072  -29.8459   25.7056 C   0  0  0  0  0  0  0  0  0  0  0  0
  -30.0433  -15.0276   18.3370 C   0  0  0  0  0  0  0  0  0  0  0  0
  -27.9208  -36.2576   18.8548 C   0  0  0  0  0  0  0  0  0  0  0  0
  -23.5658  -30.9144   19.8548 C   0  0  0  0  0  0  0  0  0  0  0  0
  -24.8982  -29.4749   22.0678 C   0  0  0  0  0  0  0  0  0  0  0  0
  -27.8070  -35.4781   20.1623 C   0  0  0  0  0  0  0  0  0  0  0  0
  -30.2599  -11.9094   19.9883 C   0  0  0  0  0  0  0  0  0  0  0  0
  -28.2341  -34.0280   19.9583 C   0  0  0  0  0  0  0  0  0  0  0  0
  -28.8270  -11.6514   20.4622 C   0  0  0  0  0  0  0  0  0  0  0  0
  -30.2915  -12.5766   18.6140 C   0  0  0  0  0  0  0  0  0  0  0  0
  -28.0510  -13.5330   18.9650 C   0  0  0  0  0  0  0  0  0  0  0  0
  -27.3270  -33.3234   18.9424 C   0  0  1  0  0  0  0  0  0  0  0  0
  -24.4995  -31.6263   20.8288 C   0  0  1  0  0  0  0  0  0  0  0  0
  -27.9641  -12.9263   20.3748 C   0  0  1  0  0  0  0  0  0  0  0  0
  -22.2901  -30.0012   28.0732 C   0  0  0  0  0  0  0  0  0  0  0  0
  -27.5484  -31.3954   24.2947 C   0  0  0  0  0  0  0  0  0  0  0  0
  -26.6301  -30.6135   26.4887 C   0  0  0  0  0  0  0  0  0  0  0  0
  -26.1037  -32.9086   25.6650 C   0  0  0  0  0  0  0  0  0  0  0  0
  -20.3043  -29.3529   24.8931 C   0  0  0  0  0  0  0  0  0  0  0  0
  -23.9984  -24.6743   18.3233 C   0  0  0  0  0  0  0  0  0  1  0  0
  -25.0247  -30.9132   24.5486 C   0  0  1  0  0  0  0  0  0  0  0  0
  -21.9285  -30.1701   26.6057 C   0  0  2  0  0  0  0  0  0  0  0  0
  -26.3200  -31.4442   25.2251 C   0  0  0  0  0  0  0  0  0  0  0  0
  -25.9890  -11.4610   20.5533 N   0  0  0  0  0  0  0  0  0  0  0  0
  -25.3573  -21.2594   18.4723 N   0  0  0  0  0  0  0  0  0  0  0  0
  -26.5292  -12.6678   20.7937 N   0  0  0  0  0  0  0  0  0  0  0  0
  -24.6280  -30.9216   22.1060 N   0  0  0  0  0  0  0  0  0  0  0  0
  -29.4584  -13.7804   18.6174 N   0  0  0  0  0  0  0  0  0  0  0  0
  -26.0615  -14.7951   21.7247 N   0  0  0  0  0  0  0  0  0  0  0  0
  -22.1926  -12.5357   22.2929 N   0  0  0  0  0  0  0  0  0  0  0  0
  -29.1728  -16.1210   18.4072 N   0  0  0  0  0  0  0  0  0  0  0  0
  -26.0677  -32.9600   19.5561 N   0  0  0  0  0  0  0  0  0  0  0  0
  -23.8397  -30.9728   25.3975 N   0  0  0  0  0  0  0  0  0  0  0  0
  -20.7796  -29.2721   26.2983 N   0  3  0  0  0  0  0  0  0  0  0  0
  -30.6868  -17.8305   17.9411 O   0  0  0  0  0  0  0  0  0  0  0  0
  -23.2389  -14.5493   22.6241 O   0  0  0  0  0  0  0  0  0  0  0  0
  -26.7349  -30.9395   20.5021 O   0  0  0  0  0  0  0  0  0  0  0  0
  -24.4598  -32.8835   23.3546 O   0  0  0  0  0  0  0  0  0  0  0  0
  -23.3555  -28.7065   25.3177 O   0  0  0  0  0  0  0  0  0  0  0  0
  -31.2447  -15.1613   18.0837 O   0  0  0  0  0  0  0  0  0  0  0  0
  -23.6062  -19.7476   18.9181 O   0  0  0  0  0  0  0  0  0  0  0  0
  -21.1969   -7.2728   20.7615 O   0  0  0  0  0  0  0  0  0  0  0  0
  -24.4492  -25.3295   19.5081 O   0  0  0  0  0  0  0  0  0  1  0  0
  -23.0982   -2.2893   22.1593 F   0  0  0  0  0  0  0  0  0  0  0  0
  -27.2637  -17.0885   19.8226 F   0  0  0  0  0  0  0  0  0  0  0  0
  -20.0624   -5.8555   22.8465 F   0  0  0  0  0  0  0  0  0  0  0  0
  1  2  1  0  0  0  0
  1  6  2  0  0  0  0
  2  7  2  0  0  0  0
  3 10  2  0  0  0  0
  3 20  1  0  0  0  0
  4 11  1  0  0  0  0
  4 20  2  0  0  0  0
  5  9  2  0  0  0  0
  5 21  1  0  0  0  0
  6 23  1  0  0  0  0
  7 25  1  0  0  0  0
  8 12  2  0  0  0  0
  8 24  1  0  0  0  0
  9 28  1  0  0  0  0
 10 29  1  0  0  0  0
 11 29  2  0  0  0  0
 12 30  1  0  0  0  0
 13 14  2  0  0  0  0
 13 31  1  0  0  0  0
 14 32  1  0  0  0  0
 15 26  1  0  0  0  0
 15 30  2  0  0  0  0
 16 27  1  0  0  0  0
 16 37  2  0  0  0  0
 17 28  2  0  0  0  0
 17 33  1  0  0  0  0
 18 32  2  0  0  0  0
 18 34  1  0  0  0  0
 19 27  2  0  0  0  0
 19 66  1  0  0  0  0
 20 35  1  0  0  0  0
 21 33  2  0  0  0  0
 21 38  1  0  0  0  0
 22 35  1  0  0  0  0
 22 36  2  0  0  0  0
 22 39  1  0  0  0  0
 23 25  2  0  0  0  0
 23 44  1  0  0  0  0
 24 26  2  0  0  0  0
 24 45  1  0  0  0  0
 25 53  1  0  0  0  0
 26 46  1  0  0  0  0
 27 61  1  0  0  0  0
 28 66  1  0  0  0  0
 29 83  1  0  0  0  0
 30 84  1  0  0  0  0
 31 34  2  0  0  0  0
 31 83  1  0  0  0  0
 32 85  1  0  0  0  0
 33 86  1  0  0  0  0
 34 87  1  0  0  0  0
 35 65  2  0  0  0  0
 36 67  1  0  0  0  0
 36 70  1  0  0  0  0
 37 66  1  0  0  0  0
 37 82  1  0  0  0  0
 38 72  1  0  0  0  0
 38 76  2  0  0  0  0
 39 71  1  0  0  0  0
 39 77  2  0  0  0  0
 40 54  1  0  0  0  0
 40 73  1  0  0  0  0
 40 78  2  0  0  0  0
 41 62  1  0  0  0  0
 41 68  1  0  0  0  0
 41 79  2  0  0  0  0
 42 63  1  0  0  0  0
 42 74  1  0  0  0  0
 42 80  2  0  0  0  0
 43 69  1  0  0  0  0
 43 72  1  0  0  0  0
 43 81  2  0  0  0  0
 44 47  1  0  0  0  0
 45 54  1  0  0  0  0
 46 68  1  0  0  0  0
 47 49  1  0  0  0  0
 48 50  1  0  0  0  0
 48 51  1  0  0  0  0
 49 53  1  0  0  0  0
 50 55  1  0  0  0  0
 51 69  1  0  0  0  0
 52 55  1  0  0  0  0
 52 69  1  0  0  0  0
 53 73  1  0  0  0  0
 54 68  1  0  0  0  0
 55 67  1  0  0  0  0
 56 63  1  0  0  0  0
 57 64  1  0  0  0  0
 58 64  1  0  0  0  0
 59 64  1  0  0  0  0
 60 75  1  0  0  0  0
 61 84  1  0  0  0  0
 62 64  1  0  0  0  0
 62 74  1  0  0  0  0
 63 75  1  0  0  0  0
 65 67  1  0  0  0  0
M  CHG  1  75   1
M  ISO  4  43 100  61 101  72 100  84 101
M  END
> <Batch ID>
0084

> <Smiles>
CNC(C)C(=O)NC(C(=O)N1Cc2cc([101O:1][101CH2:1]C3=CN(c4ccc(C(=O)[100NH:0][100C:0](=O)N5CCCC(n6nc(-c7ccc(Oc8ccc(F)cc8F)cc7)c(C(N)=O)c6N)C5)c(F)c4)C(=O)C3)ccc2CC1C(=O)NC1CCCc2ccccc21)C(C)(C)C

> <Shape>
0.263

> <Color>
0.139

> <Negative vol penalty>
0.000

$$$$

  -OEChem-04052300123D

 88 98  0     1  0  0  0  0  0999 V2000
  -29.3393  -13.9027   18.2257 C   0  0  0  0  0  0  0  0  0  0  0  0
  -28.1809  -14.3329   17.5866 C   0  0  0  0  0  0  0  0  0  0  0  0
  -29.5775  -23.2059   18.8697 C   0  0  0  0  0  0  0  0  0  0  0  0
  -30.9448  -24.5337   20.3544 C   0  0  0  0  0  0  0  0  0  0  0  0
  -29.2707  -13.3918   19.5211 C   0  0  0  0  0  0  0  0  0  0  0  0
  -26.9529  -14.2514   18.2423 C   0  0  0  0  0  0  0  0  0  0  0  0
  -22.9505  -20.1348   19.3639 C   0  0  0  0  0  0  0  0  0  0  0  0
  -30.3250  -22.0738   19.1937 C   0  0  0  0  0  0  0  0  0  0  0  0
  -31.6923  -23.4015   20.6785 C   0  0  0  0  0  0  0  0  0  0  0  0
  -22.0303  -21.1812   19.4297 C   0  0  0  0  0  0  0  0  0  0  0  0
  -30.5088  -19.8545   21.7381 C   0  0  0  0  0  0  0  0  0  0  0  0
  -29.8147  -18.6761   22.0124 C   0  0  0  0  0  0  0  0  0  0  0  0
  -21.6412  -25.9440   21.1176 C   0  0  0  0  0  0  0  0  0  0  0  0
  -20.4810  -19.7580   20.6223 C   0  0  0  0  0  0  0  0  0  0  0  0
  -21.1869  -27.9500   22.3842 C   0  0  0  0  0  0  0  0  0  0  0  0
  -30.9491  -17.5816   20.1814 C   0  0  0  0  0  0  0  0  0  0  0  0
  -29.8874  -24.4359   19.4500 C   0  0  0  0  0  0  0  0  0  0  0  0
  -20.2895  -25.6313   21.1642 C   0  0  0  0  0  0  0  0  0  0  0  0
  -28.9523  -26.1802   17.8404 C   0  0  0  0  0  0  0  0  0  0  0  0
  -28.0426  -13.3130   20.1966 C   0  0  0  0  0  0  0  0  0  0  0  0
  -22.6453  -18.8991   19.9412 C   0  0  0  0  0  0  0  0  0  0  0  0
  -26.8676  -13.7377   19.5475 C   0  0  0  0  0  0  0  0  0  0  0  0
  -21.4038  -18.7099   20.5704 C   0  0  0  0  0  0  0  0  0  0  0  0
  -19.3771  -26.4720   21.8310 C   0  0  0  0  0  0  0  0  0  0  0  0
  -19.8045  -27.6719   22.4528 C   0  0  0  0  0  0  0  0  0  0  0  0
  -22.0898  -27.1035   21.7296 C   0  0  0  0  0  0  0  0  0  0  0  0
  -31.3824  -22.1715   20.0981 C   0  0  0  0  0  0  0  0  0  0  0  0
  -20.7985  -20.9932   20.0571 C   0  0  0  0  0  0  0  0  0  0  0  0
  -31.4230  -19.8965   20.6854 C   0  0  0  0  0  0  0  0  0  0  0  0
  -30.0349  -17.5397   21.2341 C   0  0  0  0  0  0  0  0  0  0  0  0
  -31.6432  -18.7601   19.9071 C   0  0  0  0  0  0  0  0  0  0  0  0
  -29.1159  -25.6059   19.1152 C   0  0  0  0  0  0  0  0  0  0  0  0
  -28.1361  -27.2640   18.0542 C   0  0  0  0  0  0  0  0  0  0  0  0
  -18.3636  -30.5267   24.4615 C   0  0  0  0  0  0  0  0  0  0  0  0
  -18.7748  -31.1444   25.5795 C   0  0  0  0  0  0  0  0  0  0  0  0
  -19.8783  -24.4086   20.4789 C   0  0  0  0  0  0  0  0  0  0  0  0
  -20.3030  -23.1654   20.7706 C   0  0  0  0  0  0  0  0  0  1  0  0
  -29.4900  -25.7705   16.5760 C   0  0  0  0  0  0  0  0  0  0  0  0
  -23.7647  -15.3949   20.6783 C   0  0  0  0  0  0  0  0  0  0  0  0
  -22.3050  -16.4085   23.1788 C   0  0  0  0  0  0  0  0  0  0  0  0
  -21.0017  -18.0465   25.8724 C   0  0  0  0  0  0  0  0  0  0  0  0
  -24.0814  -28.5562   22.2487 C   0  0  0  0  0  0  0  0  0  0  0  0
  -28.0116  -12.7095   21.5785 C   0  0  0  0  0  0  0  0  0  0  0  0
  -23.5812  -17.7253   19.8405 C   0  0  0  0  0  0  0  0  0  0  0  0
  -17.9249  -26.0758   21.8019 C   0  0  0  0  0  0  0  0  0  0  0  0
  -21.1047  -17.3532   21.1472 C   0  0  0  0  0  0  0  0  0  0  0  0
  -16.9139  -30.4227   24.1028 C   0  0  0  0  0  0  0  0  0  0  0  0
  -19.3244  -29.8728   23.5024 C   0  0  0  0  0  0  0  0  0  0  0  0
  -26.7240  -13.0050   22.3434 C   0  0  0  0  0  0  0  0  0  0  0  0
  -17.1482  -26.7706   22.9019 C   0  0  0  0  0  0  0  0  0  0  0  0
  -16.5722  -28.9506   23.9519 C   0  0  0  0  0  0  0  0  0  0  0  0
  -26.9685  -30.4669   21.4175 C   0  0  0  0  0  0  0  0  0  0  0  0
  -25.5078  -12.7606   21.4558 C   0  0  0  0  0  0  0  0  0  0  0  0
  -27.8292  -29.4913   20.6116 C   0  0  0  0  0  0  0  0  0  0  0  0
  -26.2306  -29.7650   22.5562 C   0  0  0  0  0  0  0  0  0  0  0  0
  -26.3011  -27.6185   21.3493 C   0  0  0  0  0  0  0  0  0  0  0  0
  -25.5204  -13.6885   20.2350 C   0  0  1  0  0  0  0  0  0  0  0  0
  -23.5541  -16.8231   21.0872 C   0  0  1  0  0  0  0  0  0  0  0  0
  -27.0131  -28.2676   20.1512 C   0  0  2  0  0  0  0  0  0  0  0  0
  -17.4490  -28.2703   22.8900 C   0  0  1  0  0  0  0  0  0  0  0  0
  -20.3980  -17.7029   28.2838 C   0  0  0  0  0  0  0  0  0  0  0  0
  -19.8203  -14.8554   22.3316 C   0  0  0  0  0  0  0  0  0  0  0  0
  -18.8231  -15.3686   24.5701 C   0  0  0  0  0  0  0  0  0  0  0  0
  -20.9141  -14.0167   24.4184 C   0  0  0  0  0  0  0  0  0  0  0  0
  -22.9004  -20.1337   26.7654 C   0  0  0  0  0  0  0  0  0  0  0  0
  -21.0037  -16.4968   23.9352 C   0  0  1  0  0  0  0  0  0  0  0  0
  -21.4750  -18.1564   27.3106 C   0  0  2  0  0  0  0  0  0  0  0  0
  -20.1490  -15.2054   23.7967 C   0  0  0  0  0  0  0  0  0  0  0  0
  -28.4568  -26.2700   20.0684 N   0  0  0  0  0  0  0  0  0  0  0  0
  -27.8711  -27.2729   19.3920 N   0  0  0  0  0  0  0  0  0  0  0  0
  -18.8909  -28.5153   23.1218 N   0  0  1  0  0  0  0  0  0  0  0  0
  -22.2906  -16.8308   21.8439 N   0  0  0  0  0  0  0  0  0  0  0  0
  -25.4761  -28.6189   22.0445 N   0  0  0  0  0  0  0  0  0  0  0  0
  -27.6265  -28.2007   17.2264 N   0  0  0  0  0  0  0  0  0  0  0  0
  -30.3099  -24.6346   16.5350 N   0  0  0  0  0  0  0  0  0  0  0  0
  -23.4664  -27.4366   21.6893 N   0  0  0  0  0  0  0  0  0  0  0  0
  -25.0928  -15.0199   20.6076 N   0  0  0  0  0  0  0  0  0  0  0  0
  -21.3530  -16.8375   25.3101 N   0  0  0  0  0  0  0  0  0  0  0  0
  -21.8346  -19.5666   27.6312 N   0  3  0  0  0  0  0  0  0  0  0  0
  -29.2638  -26.4029   15.5165 O   0  0  0  0  0  0  0  0  0  0  0  0
  -22.7943  -14.6838   20.4453 O   0  0  0  0  0  0  0  0  0  0  0  0
  -23.3073  -15.9721   23.7517 O   0  0  0  0  0  0  0  0  0  0  0  0
  -20.3791  -18.9419   25.3058 O   0  0  0  0  0  0  0  0  0  0  0  0
  -23.4730  -29.4451   22.8503 O   0  0  0  0  0  0  0  0  0  0  0  0
  -32.1118  -21.0669   20.4147 O   0  0  0  0  0  0  0  0  0  0  0  0
  -19.9007  -22.0271   20.1222 O   0  0  0  0  0  0  0  0  0  1  0  0
  -29.3694  -16.4077   21.4987 F   0  0  0  0  0  0  0  0  0  0  0  0
  -32.5211  -18.7940   18.8952 F   0  0  0  0  0  0  0  0  0  0  0  0
  1  2  1  0  0  0  0
  1  5  2  0  0  0  0
  2  6  2  0  0  0  0
  3  8  2  0  0  0  0
  3 17  1  0  0  0  0
  4  9  1  0  0  0  0
  4 17  2  0  0  0  0
  5 20  1  0  0  0  0
  6 22  1  0  0  0  0
  7 10  2  0  0  0  0
  7 21  1  0  0  0  0
  8 27  1  0  0  0  0
  9 27  2  0  0  0  0
 10 28  1  0  0  0  0
 11 12  2  0  0  0  0
 11 29  1  0  0  0  0
 12 30  1  0  0  0  0
 13 18  2  0  0  0  0
 13 26  1  0  0  0  0
 14 23  1  0  0  0  0
 14 28  2  0  0  0  0
 15 25  1  0  0  0  0
 15 26  2  0  0  0  0
 16 30  2  0  0  0  0
 16 31  1  0  0  0  0
 17 32  1  0  0  0  0
 18 24  1  0  0  0  0
 18 36  1  0  0  0  0
 19 32  1  0  0  0  0
 19 33  2  0  0  0  0
 19 38  1  0  0  0  0
 20 22  2  0  0  0  0
 20 43  1  0  0  0  0
 21 23  2  0  0  0  0
 21 44  1  0  0  0  0
 22 57  1  0  0  0  0
 23 46  1  0  0  0  0
 24 25  2  0  0  0  0
 24 45  1  0  0  0  0
 25 71  1  0  0  0  0
 26 76  1  0  0  0  0
 27 85  1  0  0  0  0
 28 86  1  0  0  0  0
 29 31  2  0  0  0  0
 29 85  1  0  0  0  0
 30 87  1  0  0  0  0
 31 88  1  0  0  0  0
 32 69  2  0  0  0  0
 33 70  1  0  0  0  0
 33 74  1  0  0  0  0
 34 35  2  0  0  0  0
 34 47  1  0  0  0  0
 34 48  1  0  0  0  0
 36 37  2  0  0  0  0
 37 86  1  0  0  0  0
 38 75  1  0  0  0  0
 38 80  2  0  0  0  0
 39 58  1  0  0  0  0
 39 77  1  0  0  0  0
 39 81  2  0  0  0  0
 40 66  1  0  0  0  0
 40 72  1  0  0  0  0
 40 82  2  0  0  0  0
 41 67  1  0  0  0  0
 41 78  1  0  0  0  0
 41 83  2  0  0  0  0
 42 73  1  0  0  0  0
 42 76  1  0  0  0  0
 42 84  2  0  0  0  0
 43 49  1  0  0  0  0
 44 58  1  0  0  0  0
 45 50  1  0  0  0  0
 46 72  1  0  0  0  0
 47 51  1  0  0  0  0
 48 71  1  0  0  0  0
 49 53  1  0  0  0  0
 50 60  1  0  0  0  0
 51 60  1  0  0  0  0
 52 54  1  0  0  0  0
 52 55  1  0  0  0  0
 53 57  1  0  0  0  0
 54 59  1  0  0  0  0
 55 73  1  0  0  0  0
 56 59  1  0  0  0  0
 56 73  1  0  0  0  0
 57 77  1  0  0  0  0
 58 72  1  0  0  0  0
 59 70  1  0  0  0  0
 60 71  1  0  0  0  0
 61 67  1  0  0  0  0
 62 68  1  0  0  0  0
 63 68  1  0  0  0  0
 64 68  1  0  0  0  0
 65 79  1  0  0  0  0
 66 68  1  0  0  0  0
 66 78  1  0  0  0  0
 67 79  1  0  0  0  0
 69 70  1  0  0  0  0
M  CHG  1  79   1
M  ISO  4  37 101  42 100  76 100  86 101
M  END
> <Batch ID>
0084

> <Smiles>
C=C1CCC2CCc3c(C=[101CH:1][101O:1]c4ccc5c(c4)CN(C(=O)C(NC(=O)C(C)NC)C(C)(C)C)C(C(=O)NC4CCCc6ccccc64)C5)cc([100NH:0][100C:0](=O)N4CCCC(n5nc(-c6ccc(Oc7ccc(F)cc7F)cc6)c(C(N)=O)c5N)C4)cc3N2C1

> <Shape>
0.240

> <Color>
0.090

> <Negative vol penalty>
0.000

$$$$

  -OEChem-04052300123D

 87 96  0     1  0  0  0  0  0999 V2000
  -30.2320  -31.6890   26.2741 C   0  0  0  0  0  0  0  0  0  0  0  0
  -30.2856  -30.5072   25.5422 C   0  0  0  0  0  0  0  0  0  0  0  0
  -23.9935  -14.8439   23.3511 C   0  0  0  0  0  0  0  0  0  0  0  0
  -23.1174  -15.5813   21.2237 C   0  0  0  0  0  0  0  0  0  0  0  0
  -29.0107  -32.3330   26.4677 C   0  0  0  0  0  0  0  0  0  0  0  0
  -29.1176  -29.9680   25.0043 C   0  0  0  0  0  0  0  0  0  0  0  0
  -28.5570  -26.9461   19.7071 C   0  0  0  0  0  0  0  0  0  0  0  0
  -28.4345  -17.3038   19.1511 C   0  0  0  0  0  0  0  0  0  0  0  0
  -27.4111  -18.0943   17.1103 C   0  0  0  0  0  0  0  0  0  0  0  0
  -28.9228  -16.1867   18.4735 C   0  0  0  0  0  0  0  0  0  0  0  0
  -27.8995  -16.9772   16.4327 C   0  0  0  0  0  0  0  0  0  0  0  0
  -23.2774  -15.8526   23.9956 C   0  0  0  0  0  0  0  0  0  0  0  0
  -22.4013  -16.5900   21.8682 C   0  0  0  0  0  0  0  0  0  0  0  0
  -28.5041  -25.5863   19.4040 C   0  0  0  0  0  0  0  0  0  0  0  0
  -19.5413  -16.8648   23.6474 C   0  0  0  0  0  0  0  0  0  0  0  0
  -18.2125  -17.0570   23.2695 C   0  0  0  0  0  0  0  0  0  0  0  0
  -26.0940  -25.6890   19.3911 C   0  0  0  0  0  0  0  0  0  0  0  0
  -18.7272  -19.3243   22.6124 C   0  0  0  0  0  0  0  0  0  0  0  0
  -23.9135  -14.7083   21.9651 C   0  0  0  0  0  0  0  0  0  0  0  0
  -24.2175  -12.3568   21.0239 C   0  0  0  0  0  0  0  0  0  0  0  0
  -27.8285  -31.8066   25.9237 C   0  0  0  0  0  0  0  0  0  0  0  0
  -27.3766  -27.6865   19.8655 C   0  0  0  0  0  0  0  0  0  0  0  0
  -27.8790  -30.6048   25.1919 C   0  0  0  0  0  0  0  0  0  0  0  0
  -26.1346  -27.0586   19.6936 C   0  0  0  0  0  0  0  0  0  0  0  0
  -27.6786  -18.2576   18.4695 C   0  0  0  0  0  0  0  0  0  0  0  0
  -28.6553  -16.0234   17.1143 C   0  0  0  0  0  0  0  0  0  0  0  0
  -22.4813  -16.7256   23.2542 C   0  0  0  0  0  0  0  0  0  0  0  0
  -27.2725  -24.9569   19.2488 C   0  0  0  0  0  0  0  0  0  0  0  0
  -20.4631  -17.9024   23.5079 C   0  0  0  0  0  0  0  0  0  0  0  0
  -17.8054  -18.2867   22.7520 C   0  0  0  0  0  0  0  0  0  0  0  0
  -20.0561  -19.1321   22.9904 C   0  0  0  0  0  0  0  0  0  0  0  0
  -24.6534  -13.6669   21.2987 C   0  0  0  0  0  0  0  0  0  0  0  0
  -25.2799  -11.7691   20.3817 C   0  0  0  0  0  0  0  0  0  0  0  0
  -26.3949  -20.7694   20.7731 C   0  0  0  0  0  0  0  0  0  0  0  0
  -26.4506  -21.4819   19.6498 C   0  0  0  0  0  0  0  0  0  0  0  0
  -26.8556  -19.4042   20.4829 C   0  0  0  0  0  0  0  0  0  0  0  0
  -26.9705  -20.6111   18.5776 C   0  0  0  0  0  0  0  0  0  0  0  0
  -29.3796  -13.5983   14.3940 C   0  0  0  0  0  0  0  0  0  0  0  0
  -28.9217  -14.6598   15.0613 C   0  0  0  0  0  0  0  0  0  0  0  0
  -22.9643  -11.7275   21.3223 C   0  0  0  0  0  0  0  0  0  0  0  0
  -26.0489  -29.3069   22.2561 C   0  0  0  0  0  0  0  0  0  0  0  0
  -23.9027  -30.1518   19.9752 C   0  0  0  0  0  0  0  0  0  0  0  0
  -22.4054  -29.4271   16.9953 C   0  0  0  0  0  0  0  0  0  0  0  0
  -29.7876  -13.8305   17.1561 C   0  0  0  0  0  0  0  0  0  0  0  0
  -26.5249  -32.5131   26.1996 C   0  0  0  0  0  0  0  0  0  0  0  0
  -27.4509  -29.1584   20.1661 C   0  0  0  0  0  0  0  0  0  0  0  0
  -24.8386  -27.8131   19.8332 C   0  0  0  0  0  0  0  0  0  0  0  0
  -25.3883  -32.0756   25.2793 C   0  0  0  0  0  0  0  0  0  0  0  0
  -30.0428  -11.9371   20.0781 C   0  0  0  0  0  0  0  0  0  0  0  0
  -25.3407  -30.5545   25.1757 C   0  0  0  0  0  0  0  0  0  0  0  0
  -28.6532  -12.0388   20.7063 C   0  0  0  0  0  0  0  0  0  0  0  0
  -30.4697  -13.2707   19.4756 C   0  0  0  0  0  0  0  0  0  0  0  0
  -28.1143  -13.9179   19.0796 C   0  0  0  0  0  0  0  0  0  0  0  0
  -26.6373  -30.0019   24.5716 C   0  0  1  0  0  0  0  0  0  0  0  0
  -26.1800  -29.7012   20.8121 C   0  0  1  0  0  0  0  0  0  0  0  0
  -27.6303  -12.5909   19.6979 C   0  0  2  0  0  0  0  0  0  0  0  0
  -20.6628  -30.2848   15.4062 C   0  0  0  0  0  0  0  0  0  0  0  0
  -21.7088  -29.1591   21.8490 C   0  0  0  0  0  0  0  0  0  0  0  0
  -20.1423  -29.1478   19.8960 C   0  0  0  0  0  0  0  0  0  0  0  0
  -21.1741  -31.2892   20.6527 C   0  0  0  0  0  0  0  0  0  0  0  0
  -24.3781  -29.7223   14.8088 C   0  0  0  0  0  0  0  0  0  0  0  0
  -26.0849  -22.9044   19.4291 C   0  0  0  0  0  0  0  0  0  1  0  0
  -22.6041  -29.5766   19.4636 C   0  0  1  0  0  0  0  0  0  0  0  0
  -22.1400  -30.2797   15.7676 C   0  0  2  0  0  0  0  0  0  0  0  0
  -21.4315  -29.7782   20.4645 C   0  0  0  0  0  0  0  0  0  0  0  0
  -25.8959  -13.8982   20.8666 N   0  0  0  0  0  0  0  0  0  0  0  0
  -26.2499  -12.7254   20.3138 N   0  0  0  0  0  0  0  0  0  0  0  0
  -27.1914  -19.3710   19.1448 N   0  0  0  0  0  0  0  0  0  0  0  0
  -24.9636  -29.2489   20.1338 N   0  0  0  0  0  0  0  0  0  0  0  0
  -29.4702  -13.7637   18.5273 N   0  0  0  0  0  0  0  0  0  0  0  0
  -25.4696  -10.5326   19.8742 N   0  0  0  0  0  0  0  0  0  0  0  0
  -21.9826  -12.4753   21.9866 N   0  0  0  0  0  0  0  0  0  0  0  0
  -26.6461  -30.1888   23.1365 N   0  0  0  0  0  0  0  0  0  0  0  0
  -22.3804  -30.1763   18.1526 N   0  0  0  0  0  0  0  0  0  0  0  0
  -29.1622  -14.8634   16.4104 N   0  0  0  0  0  0  0  0  0  0  0  0
  -22.9076  -29.7605   14.6005 N   0  3  0  0  0  0  0  0  0  0  0  0
  -26.9076  -18.5150   21.3171 O   0  0  0  0  0  0  0  0  0  0  0  0
  -27.1488  -20.9716   17.4251 O   0  0  0  0  0  0  0  0  0  0  0  0
  -22.7282  -10.5322   21.0238 O   0  0  0  0  0  0  0  0  0  0  0  0
  -25.4489  -28.2796   22.5498 O   0  0  0  0  0  0  0  0  0  0  0  0
  -23.9753  -31.3590   20.2180 O   0  0  0  0  0  0  0  0  0  0  0  0
  -22.6104  -28.2168   16.9341 O   0  0  0  0  0  0  0  0  0  0  0  0
  -30.5864  -13.0424   16.6335 O   0  0  0  0  0  0  0  0  0  0  0  0
  -21.7822  -17.7098   23.8828 O   0  0  0  0  0  0  0  0  0  0  0  0
  -27.2181  -23.6296   18.9535 O   0  0  0  0  0  0  0  0  0  1  0  0
  -16.5296  -18.4706   22.3876 F   0  0  0  0  0  0  0  0  0  0  0  0
  -20.9373  -20.1322   22.8529 F   0  0  0  0  0  0  0  0  0  0  0  0
  1  2  1  0  0  0  0
  1  5  2  0  0  0  0
  2  6  2  0  0  0  0
  3 12  2  0  0  0  0
  3 19  1  0  0  0  0
  4 13  1  0  0  0  0
  4 19  2  0  0  0  0
  5 21  1  0  0  0  0
  6 23  1  0  0  0  0
  7 14  2  0  0  0  0
  7 22  1  0  0  0  0
  8 10  2  0  0  0  0
  8 25  1  0  0  0  0
  9 11  1  0  0  0  0
  9 25  2  0  0  0  0
 10 26  1  0  0  0  0
 11 26  2  0  0  0  0
 12 27  1  0  0  0  0
 13 27  2  0  0  0  0
 14 28  1  0  0  0  0
 15 16  2  0  0  0  0
 15 29  1  0  0  0  0
 16 30  1  0  0  0  0
 17 24  1  0  0  0  0
 17 28  2  0  0  0  0
 18 30  2  0  0  0  0
 18 31  1  0  0  0  0
 19 32  1  0  0  0  0
 20 32  1  0  0  0  0
 20 33  2  0  0  0  0
 20 40  1  0  0  0  0
 21 23  2  0  0  0  0
 21 45  1  0  0  0  0
 22 24  2  0  0  0  0
 22 46  1  0  0  0  0
 23 54  1  0  0  0  0
 24 47  1  0  0  0  0
 25 68  1  0  0  0  0
 26 75  1  0  0  0  0
 27 84  1  0  0  0  0
 28 85  1  0  0  0  0
 29 31  2  0  0  0  0
 29 84  1  0  0  0  0
 30 86  1  0  0  0  0
 31 87  1  0  0  0  0
 32 66  2  0  0  0  0
 33 67  1  0  0  0  0
 33 71  1  0  0  0  0
 34 35  2  0  0  0  0
 34 36  1  0  0  0  0
 35 37  1  0  0  0  0
 35 62  1  0  0  0  0
 36 68  1  0  0  0  0
 36 77  2  0  0  0  0
 37 68  1  0  0  0  0
 37 78  2  0  0  0  0
 38 39  2  0  0  0  0
 39 75  1  0  0  0  0
 40 72  1  0  0  0  0
 40 79  2  0  0  0  0
 41 55  1  0  0  0  0
 41 73  1  0  0  0  0
 41 80  2  0  0  0  0
 42 63  1  0  0  0  0
 42 69  1  0  0  0  0
 42 81  2  0  0  0  0
 43 64  1  0  0  0  0
 43 74  1  0  0  0  0
 43 82  2  0  0  0  0
 44 70  1  0  0  0  0
 44 75  1  0  0  0  0
 44 83  2  0  0  0  0
 45 48  1  0  0  0  0
 46 55  1  0  0  0  0
 47 69  1  0  0  0  0
 48 50  1  0  0  0  0
 49 51  1  0  0  0  0
 49 52  1  0  0  0  0
 50 54  1  0  0  0  0
 51 56  1  0  0  0  0
 52 70  1  0  0  0  0
 53 56  1  0  0  0  0
 53 70  1  0  0  0  0
 54 73  1  0  0  0  0
 55 69  1  0  0  0  0
 56 67  1  0  0  0  0
 57 64  1  0  0  0  0
 58 65  1  0  0  0  0
 59 65  1  0  0  0  0
 60 65  1  0  0  0  0
 61 76  1  0  0  0  0
 62 85  1  0  0  0  0
 63 65  1  0  0  0  0
 63 74  1  0  0  0  0
 64 76  1  0  0  0  0
 66 67  1  0  0  0  0
M  CHG  1  76   1
M  ISO  4  44 100  62 101  75 100  85 101
M  END
> <Batch ID>
0084

> <Smiles>
C=C[100N:0](c1ccc(N2C(=O)C=C([101CH2:1][101O:1]c3ccc4c(c3)CN(C(=O)C(NC(=O)C(C)NC)C(C)(C)C)C(C(=O)NC3CCCc5ccccc53)C4)C2=O)cc1)[100C:0](=O)N1CCCC(n2nc(-c3ccc(Oc4ccc(F)cc4F)cc3)c(C(N)=O)c2N)C1

> <Shape>
0.243

> <Color>
0.078

> <Negative vol penalty>
0.000

$$$$

  -OEChem-04052300123D

 85 94  0     1  0  0  0  0  0999 V2000
  -26.7702  -37.7433   21.8223 C   0  0  0  0  0  0  0  0  0  0  0  0
  -27.4128  -36.5548   21.4908 C   0  0  0  0  0  0  0  0  0  0  0  0
  -23.6963   -8.8989   20.1839 C   0  0  0  0  0  0  0  0  0  0  0  0
  -23.3180  -10.5334   21.9225 C   0  0  0  0  0  0  0  0  0  0  0  0
  -25.6767  -37.7255   22.6871 C   0  0  0  0  0  0  0  0  0  0  0  0
  -26.9629  -35.3478   22.0249 C   0  0  0  0  0  0  0  0  0  0  0  0
  -26.9681  -29.8759   19.2747 C   0  0  0  0  0  0  0  0  0  0  0  0
  -27.9261  -20.0592   19.2877 C   0  0  0  0  0  0  0  0  0  0  0  0
  -27.8668  -18.6756   19.1218 C   0  0  0  0  0  0  0  0  0  0  0  0
  -22.9821   -7.9523   20.9184 C   0  0  0  0  0  0  0  0  0  0  0  0
  -22.6037   -9.5868   22.6569 C   0  0  0  0  0  0  0  0  0  0  0  0
  -27.8394  -28.7899   19.3483 C   0  0  0  0  0  0  0  0  0  0  0  0
  -19.7429   -7.2062   21.5376 C   0  0  0  0  0  0  0  0  0  0  0  0
  -18.8086   -6.4267   20.8556 C   0  0  0  0  0  0  0  0  0  0  0  0
  -26.4065  -27.7594   20.9927 C   0  0  0  0  0  0  0  0  0  0  0  0
  -30.1188  -18.4768   19.9738 C   0  0  0  0  0  0  0  0  0  0  0  0
  -20.0133   -4.4300   21.4875 C   0  0  0  0  0  0  0  0  0  0  0  0
  -23.8643  -10.1895   20.6860 C   0  0  0  0  0  0  0  0  0  0  0  0
  -24.0905  -12.0657   18.9725 C   0  0  0  0  0  0  0  0  0  0  0  0
  -25.2072  -36.5166   23.2244 C   0  0  0  0  0  0  0  0  0  0  0  0
  -25.8131  -29.9168   20.0690 C   0  0  0  0  0  0  0  0  0  0  0  0
  -25.8629  -35.3140   22.8988 C   0  0  0  0  0  0  0  0  0  0  0  0
  -25.5209  -28.8458   20.9255 C   0  0  0  0  0  0  0  0  0  0  0  0
  -29.0819  -20.6517   19.7966 C   0  0  0  0  0  0  0  0  0  0  0  0
  -28.9631  -17.8843   19.4648 C   0  0  0  0  0  0  0  0  0  0  0  0
  -22.4358   -8.2962   22.1549 C   0  0  0  0  0  0  0  0  0  0  0  0
  -27.5602  -27.7328   20.2094 C   0  0  0  0  0  0  0  0  0  0  0  0
  -20.8124   -6.5976   22.1945 C   0  0  0  0  0  0  0  0  0  0  0  0
  -18.9438   -5.0386   20.8305 C   0  0  0  0  0  0  0  0  0  0  0  0
  -30.1782  -19.8605   20.1397 C   0  0  0  0  0  0  0  0  0  0  0  0
  -20.9476   -5.2096   22.1694 C   0  0  0  0  0  0  0  0  0  0  0  0
  -24.6024  -11.1676   19.9280 C   0  0  0  0  0  0  0  0  0  0  0  0
  -25.1867  -12.7747   18.5457 C   0  0  0  0  0  0  0  0  0  0  0  0
  -28.6636  -24.3250   20.0085 C   0  0  0  0  0  0  0  0  0  0  0  0
  -28.1211  -22.9835   19.6651 C   0  0  0  0  0  0  0  0  0  0  0  0
  -27.9215  -25.4344   19.9703 C   0  0  0  0  0  0  0  0  0  1  0  0
  -22.7443  -12.2433   18.5119 C   0  0  0  0  0  0  0  0  0  0  0  0
  -24.7333  -31.8374   22.3600 C   0  0  0  0  0  0  0  0  0  0  0  0
  -22.0713  -30.0012   22.1060 C   0  0  0  0  0  0  0  0  0  0  0  0
  -20.6861  -27.0164   21.2011 C   0  0  0  0  0  0  0  0  0  0  0  0
  -29.9005  -15.5493   19.5869 C   0  0  0  0  0  0  0  0  0  0  0  0
  -24.0510  -36.5528   24.1922 C   0  0  0  0  0  0  0  0  0  0  0  0
  -24.8696  -31.0830   19.9583 C   0  0  0  0  0  0  0  0  0  0  0  0
  -24.2837  -28.8319   21.7843 C   0  0  0  0  0  0  0  0  0  0  0  0
  -30.0943  -24.2169   20.4052 C   0  0  0  0  0  0  0  0  0  0  0  0
  -23.4040  -35.1890   24.4195 C   0  0  0  0  0  0  0  0  0  0  0  0
  -30.1247  -12.0039   19.3479 C   0  0  0  0  0  0  0  0  0  0  0  0
  -24.4708  -34.1251   24.6578 C   0  0  0  0  0  0  0  0  0  0  0  0
  -28.6659  -11.5441   19.3989 C   0  0  0  0  0  0  0  0  0  0  0  0
  -30.2975  -22.7188   20.5612 C   0  0  0  0  0  0  0  0  0  0  0  0
  -30.3732  -13.2042   20.2596 C   0  0  0  0  0  0  0  0  0  0  0  0
  -28.0102  -13.8821   20.0995 C   0  0  0  0  0  0  0  0  0  0  0  0
  -25.3891  -33.9818   23.4381 C   0  0  1  0  0  0  0  0  0  0  0  0
  -23.9882  -31.2575   21.1912 C   0  0  1  0  0  0  0  0  0  0  0  0
  -27.6966  -12.7159   19.1480 C   0  0  2  0  0  0  0  0  0  0  0  0
  -18.4926  -25.7985   21.1466 C   0  0  0  0  0  0  0  0  0  0  0  0
  -22.2609  -29.5303   25.1147 C   0  0  0  0  0  0  0  0  0  0  0  0
  -20.6800  -27.6080   24.8430 C   0  0  0  0  0  0  0  0  0  0  0  0
  -19.9416  -29.9192   24.2637 C   0  0  0  0  0  0  0  0  0  0  0  0
  -20.7773  -26.7455   18.2553 C   0  0  0  0  0  0  0  0  0  0  0  0
  -21.5845  -28.7284   22.7555 C   0  0  1  0  0  0  0  0  0  0  0  0
  -19.4565  -26.6859   20.3744 C   0  0  2  0  0  0  0  0  0  0  0  0
  -21.1411  -28.9473   24.2296 C   0  0  0  0  0  0  0  0  0  0  0  0
  -25.9213  -11.2924   20.0983 N   0  0  0  0  0  0  0  0  0  0  0  0
  -26.2473  -12.2772   19.2440 N   0  0  0  0  0  0  0  0  0  0  0  0
  -29.1399  -22.0701   19.9655 N   0  0  0  0  0  0  0  0  0  0  0  0
  -23.3955  -29.9978   21.6451 N   0  0  0  0  0  0  0  0  0  0  0  0
  -29.4210  -14.2763   19.9616 N   0  0  0  0  0  0  0  0  0  0  0  0
  -25.3372  -13.7688   17.6448 N   0  0  0  0  0  0  0  0  0  0  0  0
  -21.7396  -11.4314   19.0555 N   0  0  0  0  0  0  0  0  0  0  0  0
  -28.9025  -16.4788   19.2962 N   0  0  0  0  0  0  0  0  0  0  0  0
  -24.7328  -33.2187   22.3982 N   0  0  0  0  0  0  0  0  0  0  0  0
  -20.5361  -28.2025   21.8880 N   0  0  0  0  0  0  0  0  0  0  0  0
  -19.8484  -25.9771   19.1235 N   0  3  0  0  0  0  0  0  0  0  0  0
  -26.9979  -22.8087   19.2228 O   0  0  0  0  0  0  0  0  0  0  0  0
  -22.4441  -13.0855   17.6321 O   0  0  0  0  0  0  0  0  0  0  0  0
  -25.2677  -31.0872   23.1683 O   0  0  0  0  0  0  0  0  0  0  0  0
  -21.3026  -30.9606   22.0046 O   0  0  0  0  0  0  0  0  0  0  0  0
  -21.6788  -26.2927   21.2369 O   0  0  0  0  0  0  0  0  0  0  0  0
  -31.1078  -15.7887   19.5018 O   0  0  0  0  0  0  0  0  0  0  0  0
  -21.7387   -7.3729   22.8718 O   0  0  0  0  0  0  0  0  0  0  0  0
  -28.4093  -26.6720   20.2836 O   0  0  0  0  0  0  0  0  0  1  0  0
  -18.0457   -4.2901   20.1769 F   0  0  0  0  0  0  0  0  0  0  0  0
  -31.2945  -20.4191   20.6291 F   0  0  0  0  0  0  0  0  0  0  0  0
  -21.9723   -4.6192   22.7997 F   0  0  0  0  0  0  0  0  0  0  0  0
  1  2  1  0  0  0  0
  1  5  2  0  0  0  0
  2  6  2  0  0  0  0
  3 10  2  0  0  0  0
  3 18  1  0  0  0  0
  4 11  1  0  0  0  0
  4 18  2  0  0  0  0
  5 20  1  0  0  0  0
  6 22  1  0  0  0  0
  7 12  2  0  0  0  0
  7 21  1  0  0  0  0
  8  9  2  0  0  0  0
  8 24  1  0  0  0  0
  9 25  1  0  0  0  0
 10 26  1  0  0  0  0
 11 26  2  0  0  0  0
 12 27  1  0  0  0  0
 13 14  2  0  0  0  0
 13 28  1  0  0  0  0
 14 29  1  0  0  0  0
 15 23  1  0  0  0  0
 15 27  2  0  0  0  0
 16 25  2  0  0  0  0
 16 30  1  0  0  0  0
 17 29  2  0  0  0  0
 17 31  1  0  0  0  0
 18 32  1  0  0  0  0
 19 32  1  0  0  0  0
 19 33  2  0  0  0  0
 19 37  1  0  0  0  0
 20 22  2  0  0  0  0
 20 42  1  0  0  0  0
 21 23  2  0  0  0  0
 21 43  1  0  0  0  0
 22 53  1  0  0  0  0
 23 44  1  0  0  0  0
 24 30  2  0  0  0  0
 24 66  1  0  0  0  0
 25 71  1  0  0  0  0
 26 81  1  0  0  0  0
 27 82  1  0  0  0  0
 28 31  2  0  0  0  0
 28 81  1  0  0  0  0
 29 83  1  0  0  0  0
 30 84  1  0  0  0  0
 31 85  1  0  0  0  0
 32 64  2  0  0  0  0
 33 65  1  0  0  0  0
 33 69  1  0  0  0  0
 34 35  1  0  0  0  0
 34 36  2  0  0  0  0
 34 45  1  0  0  0  0
 35 66  1  0  0  0  0
 35 75  2  0  0  0  0
 36 82  1  0  0  0  0
 37 70  1  0  0  0  0
 37 76  2  0  0  0  0
 38 54  1  0  0  0  0
 38 72  1  0  0  0  0
 38 77  2  0  0  0  0
 39 61  1  0  0  0  0
 39 67  1  0  0  0  0
 39 78  2  0  0  0  0
 40 62  1  0  0  0  0
 40 73  1  0  0  0  0
 40 79  2  0  0  0  0
 41 68  1  0  0  0  0
 41 71  1  0  0  0  0
 41 80  2  0  0  0  0
 42 46  1  0  0  0  0
 43 54  1  0  0  0  0
 44 67  1  0  0  0  0
 45 50  1  0  0  0  0
 46 48  1  0  0  0  0
 47 49  1  0  0  0  0
 47 51  1  0  0  0  0
 48 53  1  0  0  0  0
 49 55  1  0  0  0  0
 50 66  1  0  0  0  0
 51 68  1  0  0  0  0
 52 55  1  0  0  0  0
 52 68  1  0  0  0  0
 53 72  1  0  0  0  0
 54 67  1  0  0  0  0
 55 65  1  0  0  0  0
 56 62  1  0  0  0  0
 57 63  1  0  0  0  0
 58 63  1  0  0  0  0
 59 63  1  0  0  0  0
 60 74  1  0  0  0  0
 61 63  1  0  0  0  0
 61 73  1  0  0  0  0
 62 74  1  0  0  0  0
 64 65  1  0  0  0  0
M  CHG  1  74   1
M  ISO  4  36 101  41 100  71 100  82 101
M  END
> <Batch ID>
0084

> <Smiles>
CNC(C)C(=O)NC(C(=O)N1Cc2cc([101O:1][101CH:1]=C3CCN(c4ccc([100NH:0][100C:0](=O)N5CCCC(n6nc(-c7ccc(Oc8ccc(F)cc8F)cc7)c(C(N)=O)c6N)C5)cc4F)C3=O)ccc2CC1C(=O)NC1CCCc2ccccc21)C(C)(C)C

> <Shape>
0.353

> <Color>
0.108

> <Negative vol penalty>
0.000

$$$$

  -OEChem-04052300123D

 86 95  0     1  0  0  0  0  0999 V2000
  -27.4706  -37.7449   23.5654 C   0  0  0  0  0  0  0  0  0  0  0  0
  -28.0148  -36.7936   22.7085 C   0  0  0  0  0  0  0  0  0  0  0  0
  -24.2357   -9.2920   22.4256 C   0  0  0  0  0  0  0  0  0  0  0  0
  -22.9493  -11.2744   21.9229 C   0  0  0  0  0  0  0  0  0  0  0  0
  -26.6449  -37.3447   24.6152 C   0  0  0  0  0  0  0  0  0  0  0  0
  -27.7346  -35.4413   22.9016 C   0  0  0  0  0  0  0  0  0  0  0  0
  -26.7975  -29.3557   19.2406 C   0  0  0  0  0  0  0  0  0  0  0  0
  -23.4303   -9.0517   23.5388 C   0  0  0  0  0  0  0  0  0  0  0  0
  -22.1439  -11.0340   23.0361 C   0  0  0  0  0  0  0  0  0  0  0  0
  -27.2560  -28.0396   19.2035 C   0  0  0  0  0  0  0  0  0  0  0  0
  -21.4875   -7.7175   26.3066 C   0  0  0  0  0  0  0  0  0  0  0  0
  -21.0388   -6.4130   26.5129 C   0  0  0  0  0  0  0  0  0  0  0  0
  -25.7527  -27.4715   21.0025 C   0  0  0  0  0  0  0  0  0  0  0  0
  -26.2054  -19.3643   19.1253 C   0  0  0  0  0  0  0  0  0  0  0  0
  -28.7736  -18.3615   19.5513 C   0  0  0  0  0  0  0  0  0  0  0  0
  -19.9176   -6.4604   24.3733 C   0  0  0  0  0  0  0  0  0  0  0  0
  -23.9952  -10.4034   21.6177 C   0  0  0  0  0  0  0  0  0  0  0  0
  -24.6239  -10.1879   19.1548 C   0  0  0  0  0  0  0  0  0  0  0  0
  -26.3466  -35.9877   24.8155 C   0  0  0  0  0  0  0  0  0  0  0  0
  -25.8194  -29.7428   20.1678 C   0  0  0  0  0  0  0  0  0  0  0  0
  -26.9052  -35.0225   23.9559 C   0  0  0  0  0  0  0  0  0  0  0  0
  -25.2817  -28.7926   21.0476 C   0  0  0  0  0  0  0  0  0  0  0  0
  -27.2399  -20.2272   19.4868 C   0  0  0  0  0  0  0  0  0  0  0  0
  -27.7390  -17.4986   19.1898 C   0  0  0  0  0  0  0  0  0  0  0  0
  -22.3844   -9.9226   23.8440 C   0  0  0  0  0  0  0  0  0  0  0  0
  -26.7357  -27.0979   20.0865 C   0  0  0  0  0  0  0  0  0  0  0  0
  -21.1512   -8.3935   25.1337 C   0  0  0  0  0  0  0  0  0  0  0  0
  -28.5240  -19.7259   19.6998 C   0  0  0  0  0  0  0  0  0  0  0  0
  -20.2539   -5.7844   25.5462 C   0  0  0  0  0  0  0  0  0  0  0  0
  -26.4549  -18.0000   18.9769 C   0  0  0  0  0  0  0  0  0  0  0  0
  -20.3663   -7.7649   24.1671 C   0  0  0  0  0  0  0  0  0  0  0  0
  -24.8272  -10.6526   20.4680 C   0  0  0  0  0  0  0  0  0  0  0  0
  -25.6831  -10.6957   18.4430 C   0  0  0  0  0  0  0  0  0  0  0  0
  -26.6007  -23.5320   19.7372 C   0  0  0  0  0  0  0  0  0  0  0  0
  -25.8466  -22.3035   19.4849 C   0  0  0  0  0  0  0  0  0  0  0  0
  -26.2753  -24.8235   19.7939 C   0  0  0  0  0  0  0  0  0  1  0  0
  -23.5717   -9.3703   18.6257 C   0  0  0  0  0  0  0  0  0  0  0  0
  -25.7091  -31.8079   22.5817 C   0  0  0  0  0  0  0  0  0  0  0  0
  -22.5744  -30.9757   22.6392 C   0  0  0  0  0  0  0  0  0  0  0  0
  -20.1758  -28.6660   21.8915 C   0  0  0  0  0  0  0  0  0  0  0  0
  -29.2125  -15.4554   19.2140 C   0  0  0  0  0  0  0  0  0  0  0  0
  -25.4872  -35.5994   25.9924 C   0  0  0  0  0  0  0  0  0  0  0  0
  -25.3162  -31.1602   20.1771 C   0  0  0  0  0  0  0  0  0  0  0  0
  -24.2153  -29.1526   22.0485 C   0  0  0  0  0  0  0  0  0  0  0  0
  -27.8526  -22.6993   19.8922 C   0  0  0  0  0  0  0  0  0  0  0  0
  -24.9374  -34.1781   25.9026 C   0  0  0  0  0  0  0  0  0  0  0  0
  -30.2440  -12.0560   18.9746 C   0  0  0  0  0  0  0  0  0  0  0  0
  -26.0401  -33.2035   25.5014 C   0  0  0  0  0  0  0  0  0  0  0  0
  -28.9523  -11.2681   19.2048 C   0  0  0  0  0  0  0  0  0  0  0  0
  -30.3038  -13.3128   19.8410 C   0  0  0  0  0  0  0  0  0  0  0  0
  -27.8452  -13.4097   19.9631 C   0  0  0  0  0  0  0  0  0  0  0  0
  -26.6046  -33.5482   24.1180 C   0  0  1  0  0  0  0  0  0  0  0  0
  -24.6874  -31.5623   21.5076 C   0  0  1  0  0  0  0  0  0  0  0  0
  -27.7099  -12.1694   19.0647 C   0  0  2  0  0  0  0  0  0  0  0  0
  -17.7092  -28.2513   22.0942 C   0  0  0  0  0  0  0  0  0  0  0  0
  -22.9282  -30.3333   25.6009 C   0  0  0  0  0  0  0  0  0  0  0  0
  -20.7738  -29.0610   25.5109 C   0  0  0  0  0  0  0  0  0  0  0  0
  -20.7948  -31.5099   25.0363 C   0  0  0  0  0  0  0  0  0  0  0  0
  -19.8425  -28.5133   18.9547 C   0  0  0  0  0  0  0  0  0  0  0  0
  -30.8267  -19.9507   20.2500 C   0  0  0  0  0  0  0  0  0  0  0  0
  -21.7639  -29.9095   23.3358 C   0  0  1  0  0  0  0  0  0  0  0  0
  -18.8228  -28.8012   21.2166 C   0  0  2  0  0  0  0  0  0  0  0  0
  -21.5867  -30.1968   24.8535 C   0  0  0  0  0  0  0  0  0  0  0  0
  -25.9291  -11.3982   20.5863 N   0  0  0  0  0  0  0  0  0  0  0  0
  -26.4277  -11.4058   19.3383 N   0  0  0  0  0  0  0  0  0  0  0  0
  -26.9781  -21.5702   19.6291 N   0  0  0  0  0  0  0  0  0  0  0  0
  -23.7605  -30.5526   22.0229 N   0  0  0  0  0  0  0  0  0  0  0  0
  -29.0961  -14.1195   19.6529 N   0  0  0  0  0  0  0  0  0  0  0  0
  -26.0410  -10.5996   17.1449 N   0  0  0  0  0  0  0  0  0  0  0  0
  -22.5623   -8.9349   19.4951 N   0  0  0  0  0  0  0  0  0  0  0  0
  -27.9953  -16.1131   19.0396 N   0  0  0  0  0  0  0  0  0  0  0  0
  -25.7046  -33.0975   23.0782 N   0  0  0  0  0  0  0  0  0  0  0  0
  -20.5102  -29.8022   22.5976 N   0  0  0  0  0  0  0  0  0  0  0  0
  -18.8122  -28.0595   19.9240 N   0  3  0  0  0  0  0  0  0  0  0  0
  -24.6885  -22.0414   19.2349 O   0  0  0  0  0  0  0  0  0  0  0  0
  -23.5366   -9.0221   17.4210 O   0  0  0  0  0  0  0  0  0  0  0  0
  -26.4459  -30.8946   22.9349 O   0  0  0  0  0  0  0  0  0  0  0  0
  -22.1663  -32.1398   22.6356 O   0  0  0  0  0  0  0  0  0  0  0  0
  -20.8653  -27.6524   21.8043 O   0  0  0  0  0  0  0  0  0  0  0  0
  -30.3099  -15.9689   18.9819 O   0  0  0  0  0  0  0  0  0  0  0  0
  -21.5981   -9.6882   24.9300 O   0  0  0  0  0  0  0  0  0  0  0  0
  -27.1820  -25.8128   20.0529 O   0  0  0  0  0  0  0  0  0  1  0  0
  -29.5488  -20.5520   20.0534 O   0  0  0  0  0  0  0  0  0  0  0  0
  -19.8243   -4.5312   25.7438 F   0  0  0  0  0  0  0  0  0  0  0  0
  -25.4526  -17.1800   18.6297 F   0  0  0  0  0  0  0  0  0  0  0  0
  -20.0409   -8.4088   23.0378 F   0  0  0  0  0  0  0  0  0  0  0  0
  1  2  1  0  0  0  0
  1  5  2  0  0  0  0
  2  6  2  0  0  0  0
  3  8  2  0  0  0  0
  3 17  1  0  0  0  0
  4  9  1  0  0  0  0
  4 17  2  0  0  0  0
  5 19  1  0  0  0  0
  6 21  1  0  0  0  0
  7 10  2  0  0  0  0
  7 20  1  0  0  0  0
  8 25  1  0  0  0  0
  9 25  2  0  0  0  0
 10 26  1  0  0  0  0
 11 12  2  0  0  0  0
 11 27  1  0  0  0  0
 12 29  1  0  0  0  0
 13 22  1  0  0  0  0
 13 26  2  0  0  0  0
 14 23  1  0  0  0  0
 14 30  2  0  0  0  0
 15 24  2  0  0  0  0
 15 28  1  0  0  0  0
 16 29  2  0  0  0  0
 16 31  1  0  0  0  0
 17 32  1  0  0  0  0
 18 32  1  0  0  0  0
 18 33  2  0  0  0  0
 18 37  1  0  0  0  0
 19 21  2  0  0  0  0
 19 42  1  0  0  0  0
 20 22  2  0  0  0  0
 20 43  1  0  0  0  0
 21 52  1  0  0  0  0
 22 44  1  0  0  0  0
 23 28  2  0  0  0  0
 23 66  1  0  0  0  0
 24 30  1  0  0  0  0
 24 71  1  0  0  0  0
 25 81  1  0  0  0  0
 26 82  1  0  0  0  0
 27 31  2  0  0  0  0
 27 81  1  0  0  0  0
 28 83  1  0  0  0  0
 29 84  1  0  0  0  0
 30 85  1  0  0  0  0
 31 86  1  0  0  0  0
 32 64  2  0  0  0  0
 33 65  1  0  0  0  0
 33 69  1  0  0  0  0
 34 35  1  0  0  0  0
 34 36  2  0  0  0  0
 34 45  1  0  0  0  0
 35 66  1  0  0  0  0
 35 75  2  0  0  0  0
 36 82  1  0  0  0  0
 37 70  1  0  0  0  0
 37 76  2  0  0  0  0
 38 53  1  0  0  0  0
 38 72  1  0  0  0  0
 38 77  2  0  0  0  0
 39 61  1  0  0  0  0
 39 67  1  0  0  0  0
 39 78  2  0  0  0  0
 40 62  1  0  0  0  0
 40 73  1  0  0  0  0
 40 79  2  0  0  0  0
 41 68  1  0  0  0  0
 41 71  1  0  0  0  0
 41 80  2  0  0  0  0
 42 46  1  0  0  0  0
 43 53  1  0  0  0  0
 44 67  1  0  0  0  0
 45 66  1  0  0  0  0
 46 48  1  0  0  0  0
 47 49  1  0  0  0  0
 47 50  1  0  0  0  0
 48 52  1  0  0  0  0
 49 54  1  0  0  0  0
 50 68  1  0  0  0  0
 51 54  1  0  0  0  0
 51 68  1  0  0  0  0
 52 72  1  0  0  0  0
 53 67  1  0  0  0  0
 54 65  1  0  0  0  0
 55 62  1  0  0  0  0
 56 63  1  0  0  0  0
 57 63  1  0  0  0  0
 58 63  1  0  0  0  0
 59 74  1  0  0  0  0
 60 83  1  0  0  0  0
 61 63  1  0  0  0  0
 61 73  1  0  0  0  0
 62 74  1  0  0  0  0
 64 65  1  0  0  0  0
M  CHG  1  74   1
M  ISO  4  36 101  41 100  71 100  82 101
M  END
> <Batch ID>
0084

> <Smiles>
CNC(C)C(=O)NC(C(=O)N1Cc2cc([101O:1][101CH:1]=C3CN(c4cc(F)c([100NH:0][100C:0](=O)N5CCCC(n6nc(-c7ccc(Oc8ccc(F)cc8F)cc7)c(C(N)=O)c6N)C5)cc4OC)C3=O)ccc2CC1C(=O)NC1CCCc2ccccc21)C(C)(C)C

> <Shape>
0.297

> <Color>
0.105

> <Negative vol penalty>
0.000

$$$$

  -OEChem-04052300123D

 88 97  0     1  0  0  0  0  0999 V2000
  -28.7244  -31.4532   26.6515 C   0  0  0  0  0  0  0  0  0  0  0  0
  -28.6474  -30.4010   25.7447 C   0  0  0  0  0  0  0  0  0  0  0  0
  -24.0614   -9.4170   20.0074 C   0  0  0  0  0  0  0  0  0  0  0  0
  -23.0555  -10.7795   21.7304 C   0  0  0  0  0  0  0  0  0  0  0  0
  -27.5573  -32.0062   27.1766 C   0  0  0  0  0  0  0  0  0  0  0  0
  -27.4030  -29.9004   25.3633 C   0  0  0  0  0  0  0  0  0  0  0  0
  -27.0625  -29.1404   20.3682 C   0  0  0  0  0  0  0  0  0  0  0  0
  -23.2540   -8.3440   20.3845 C   0  0  0  0  0  0  0  0  0  0  0  0
  -22.2480   -9.7065   22.1075 C   0  0  0  0  0  0  0  0  0  0  0  0
  -27.6719  -27.9961   19.8553 C   0  0  0  0  0  0  0  0  0  0  0  0
  -22.5635   -6.8647   23.9118 C   0  0  0  0  0  0  0  0  0  0  0  0
  -22.4384   -6.5953   25.2747 C   0  0  0  0  0  0  0  0  0  0  0  0
  -25.5295  -26.8890   19.7962 C   0  0  0  0  0  0  0  0  0  0  0  0
  -28.2195  -20.7637   20.2592 C   0  0  0  0  0  0  0  0  0  0  0  0
  -30.2012  -19.7650   19.3039 C   0  0  0  0  0  0  0  0  0  0  0  0
  -20.0529   -6.9475   25.1253 C   0  0  0  0  0  0  0  0  0  0  0  0
  -23.9622  -10.6348   20.6804 C   0  0  0  0  0  0  0  0  0  0  0  0
  -24.5023  -12.7347   19.3364 C   0  0  0  0  0  0  0  0  0  0  0  0
  -26.2977  -31.5186   26.7942 C   0  0  0  0  0  0  0  0  0  0  0  0
  -25.6813  -29.1638   20.6097 C   0  0  0  0  0  0  0  0  0  0  0  0
  -26.2179  -30.4466   25.8849 C   0  0  0  0  0  0  0  0  0  0  0  0
  -24.9046  -28.0356   20.3099 C   0  0  0  0  0  0  0  0  0  0  0  0
  -27.9728  -19.5912   20.9733 C   0  0  0  0  0  0  0  0  0  0  0  0
  -29.3337  -20.8506   19.4245 C   0  0  0  0  0  0  0  0  0  0  0  0
  -28.8403  -18.5056   20.8528 C   0  0  0  0  0  0  0  0  0  0  0  0
  -22.3473   -8.4887   21.4345 C   0  0  0  0  0  0  0  0  0  0  0  0
  -26.9058  -26.8692   19.5719 C   0  0  0  0  0  0  0  0  0  0  0  0
  -21.4333   -7.1755   23.1557 C   0  0  0  0  0  0  0  0  0  0  0  0
  -21.1831   -6.6367   25.8814 C   0  0  0  0  0  0  0  0  0  0  0  0
  -29.9545  -18.5925   20.0181 C   0  0  0  0  0  0  0  0  0  0  0  0
  -20.1780   -7.2169   23.7624 C   0  0  0  0  0  0  0  0  0  0  0  0
  -24.7965  -11.7434   20.2917 C   0  0  0  0  0  0  0  0  0  0  0  0
  -25.6070  -13.5508   19.3371 C   0  0  0  0  0  0  0  0  0  0  0  0
  -30.0178  -24.3507   17.1782 C   0  0  0  0  0  0  0  0  0  0  0  0
  -30.2331  -21.9751   17.4738 C   0  0  0  0  0  0  0  0  0  0  0  0
  -29.3923  -24.4920   18.3545 C   0  0  0  0  0  0  0  0  0  0  0  0
  -30.4594  -23.0616   16.7297 C   0  0  0  0  0  0  0  0  0  0  0  0
  -29.1668  -23.2835   19.2296 C   0  0  0  0  0  0  0  0  0  0  0  0
  -23.3348  -12.9028   18.5213 C   0  0  0  0  0  0  0  0  0  0  0  0
  -23.8611  -29.5360   23.1888 C   0  0  0  0  0  0  0  0  0  0  0  0
  -21.4552  -29.5308   21.0130 C   0  0  0  0  0  0  0  0  0  0  0  0
  -20.3491  -28.6090   17.9189 C   0  0  0  0  0  0  0  0  0  0  0  0
  -29.5561  -16.4003   22.0368 C   0  0  0  0  0  0  0  0  0  0  0  0
  -25.0654  -32.1173   27.4249 C   0  0  0  0  0  0  0  0  0  0  0  0
  -25.0351  -30.4150   21.1382 C   0  0  0  0  0  0  0  0  0  0  0  0
  -23.4150  -28.0165   20.5320 C   0  0  0  0  0  0  0  0  0  0  0  0
  -23.7752  -31.7771   26.6833 C   0  0  0  0  0  0  0  0  0  0  0  0
  -30.1551  -12.9363   21.4722 C   0  0  0  0  0  0  0  0  0  0  0  0
  -23.7271  -30.2892   26.3506 C   0  0  0  0  0  0  0  0  0  0  0  0
  -28.7902  -12.3987   21.0362 C   0  0  0  0  0  0  0  0  0  0  0  0
  -30.0232  -14.0136   22.5472 C   0  0  0  0  0  0  0  0  0  0  0  0
  -27.7549  -14.5832   21.7730 C   0  0  0  0  0  0  0  0  0  0  0  0
  -24.8859  -29.8926   25.4279 C   0  0  1  0  0  0  0  0  0  0  0  0
  -23.7000  -30.1523   21.8280 C   0  0  1  0  0  0  0  0  0  0  0  0
  -27.8331  -13.5417   20.6448 C   0  0  2  0  0  0  0  0  0  0  0  0
  -26.7709  -19.5260   21.8591 C   0  0  0  0  0  0  0  0  0  0  0  0
  -18.3253  -28.7127   16.4387 C   0  0  0  0  0  0  0  0  0  0  0  0
  -20.1463  -27.3145   22.6516 C   0  0  0  0  0  0  0  0  0  0  0  0
  -18.6845  -26.8164   20.6809 C   0  0  0  0  0  0  0  0  0  0  0  0
  -18.5633  -29.0479   21.7891 C   0  0  0  0  0  0  0  0  0  0  0  0
  -21.7935  -30.1653   15.8571 C   0  0  0  0  0  0  0  0  0  0  0  0
  -28.9088  -25.8015   18.8618 C   0  0  0  0  0  0  0  0  0  1  0  0
  -20.5844  -28.4697   20.3845 C   0  0  1  0  0  0  0  0  0  0  0  0
  -19.6295  -29.3883   16.8329 C   0  0  2  0  0  0  0  0  0  0  0  0
  -19.5230  -27.9115   21.3741 C   0  0  0  0  0  0  0  0  0  0  0  0
  -25.9943  -11.9124   20.8580 N   0  0  0  0  0  0  0  0  0  0  0  0
  -26.4625  -13.0193   20.2567 N   0  0  0  0  0  0  0  0  0  0  0  0
  -29.5807  -22.0310   18.7050 N   0  0  0  0  0  0  0  0  0  0  0  0
  -22.8306  -29.2620   21.0562 N   0  0  0  0  0  0  0  0  0  0  0  0
  -29.1048  -15.0652   22.1050 N   0  0  0  0  0  0  0  0  0  0  0  0
  -25.9203  -14.6641   18.6407 N   0  0  0  0  0  0  0  0  0  0  0  0
  -22.2930  -11.9737   18.6467 N   0  0  0  0  0  0  0  0  0  0  0  0
  -28.6046  -17.3074   21.5716 N   0  0  0  0  0  0  0  0  0  0  0  0
  -24.6091  -30.2975   24.0663 N   0  0  0  0  0  0  0  0  0  0  0  0
  -20.0213  -29.0658   19.1779 N   0  0  0  0  0  0  0  0  0  0  0  0
  -20.4874  -29.4985   15.6193 N   0  3  0  0  0  0  0  0  0  0  0  0
  -28.6282  -23.4221   20.3294 O   0  0  0  0  0  0  0  0  0  0  0  0
  -23.2258  -13.8394   17.6941 O   0  0  0  0  0  0  0  0  0  0  0  0
  -23.3437  -28.4507   23.4256 O   0  0  0  0  0  0  0  0  0  0  0  0
  -20.9350  -30.5633   21.4431 O   0  0  0  0  0  0  0  0  0  0  0  0
  -21.1217  -27.6849   17.6748 O   0  0  0  0  0  0  0  0  0  0  0  0
  -30.7105  -16.7115   22.3409 O   0  0  0  0  0  0  0  0  0  0  0  0
  -31.0978  -23.0416   15.5137 O   0  0  0  0  0  0  0  0  0  0  0  0
  -21.5590   -7.4419   21.8026 O   0  0  0  0  0  0  0  0  0  0  0  0
  -27.4982  -25.7508   19.0718 O   0  0  0  0  0  0  0  0  0  1  0  0
  -21.0629   -6.3765   27.1899 F   0  0  0  0  0  0  0  0  0  0  0  0
  -30.7954  -17.5556   19.8939 F   0  0  0  0  0  0  0  0  0  0  0  0
  -19.0884   -7.5137   23.0409 F   0  0  0  0  0  0  0  0  0  0  0  0
  1  2  1  0  0  0  0
  1  5  2  0  0  0  0
  2  6  2  0  0  0  0
  3  8  2  0  0  0  0
  3 17  1  0  0  0  0
  4  9  1  0  0  0  0
  4 17  2  0  0  0  0
  5 19  1  0  0  0  0
  6 21  1  0  0  0  0
  7 10  2  0  0  0  0
  7 20  1  0  0  0  0
  8 26  1  0  0  0  0
  9 26  2  0  0  0  0
 10 27  1  0  0  0  0
 11 12  2  0  0  0  0
 11 28  1  0  0  0  0
 12 29  1  0  0  0  0
 13 22  1  0  0  0  0
 13 27  2  0  0  0  0
 14 23  2  0  0  0  0
 14 24  1  0  0  0  0
 15 24  2  0  0  0  0
 15 30  1  0  0  0  0
 16 29  2  0  0  0  0
 16 31  1  0  0  0  0
 17 32  1  0  0  0  0
 18 32  1  0  0  0  0
 18 33  2  0  0  0  0
 18 39  1  0  0  0  0
 19 21  2  0  0  0  0
 19 44  1  0  0  0  0
 20 22  2  0  0  0  0
 20 45  1  0  0  0  0
 21 53  1  0  0  0  0
 22 46  1  0  0  0  0
 23 25  1  0  0  0  0
 23 56  1  0  0  0  0
 24 68  1  0  0  0  0
 25 30  2  0  0  0  0
 25 73  1  0  0  0  0
 26 84  1  0  0  0  0
 27 85  1  0  0  0  0
 28 31  2  0  0  0  0
 28 84  1  0  0  0  0
 29 86  1  0  0  0  0
 30 87  1  0  0  0  0
 31 88  1  0  0  0  0
 32 66  2  0  0  0  0
 33 67  1  0  0  0  0
 33 71  1  0  0  0  0
 34 36  2  0  0  0  0
 34 37  1  0  0  0  0
 35 37  2  0  0  0  0
 35 68  1  0  0  0  0
 36 38  1  0  0  0  0
 36 62  1  0  0  0  0
 37 83  1  0  0  0  0
 38 68  1  0  0  0  0
 38 77  2  0  0  0  0
 39 72  1  0  0  0  0
 39 78  2  0  0  0  0
 40 54  1  0  0  0  0
 40 74  1  0  0  0  0
 40 79  2  0  0  0  0
 41 63  1  0  0  0  0
 41 69  1  0  0  0  0
 41 80  2  0  0  0  0
 42 64  1  0  0  0  0
 42 75  1  0  0  0  0
 42 81  2  0  0  0  0
 43 70  1  0  0  0  0
 43 73  1  0  0  0  0
 43 82  2  0  0  0  0
 44 47  1  0  0  0  0
 45 54  1  0  0  0  0
 46 69  1  0  0  0  0
 47 49  1  0  0  0  0
 48 50  1  0  0  0  0
 48 51  1  0  0  0  0
 49 53  1  0  0  0  0
 50 55  1  0  0  0  0
 51 70  1  0  0  0  0
 52 55  1  0  0  0  0
 52 70  1  0  0  0  0
 53 74  1  0  0  0  0
 54 69  1  0  0  0  0
 55 67  1  0  0  0  0
 57 64  1  0  0  0  0
 58 65  1  0  0  0  0
 59 65  1  0  0  0  0
 60 65  1  0  0  0  0
 61 76  1  0  0  0  0
 62 85  1  0  0  0  0
 63 65  1  0  0  0  0
 63 75  1  0  0  0  0
 64 76  1  0  0  0  0
 66 67  1  0  0  0  0
M  CHG  1  76   1
M  ISO  4  43 100  62 101  73 100  85 101
M  END
> <Batch ID>
0084

> <Smiles>
CNC(C)C(=O)NC(C(=O)N1Cc2cc([101O:1][101CH:1]=C3CC(=O)CN(c4cc(C)c([100NH:0][100C:0](=O)N5CCCC(n6nc(-c7ccc(Oc8ccc(F)cc8F)cc7)c(C(N)=O)c6N)C5)c(F)c4)C3=O)ccc2CC1C(=O)NC1CCCc2ccccc21)C(C)(C)C

> <Shape>
0.353

> <Color>
0.101

> <Negative vol penalty>
0.000

$$$$

  -OEChem-04052300123D

 86 94  0     1  0  0  0  0  0999 V2000
  -29.6086  -37.6311   22.8806 C   0  0  0  0  0  0  0  0  0  0  0  0
  -29.4160  -36.3628   22.3422 C   0  0  0  0  0  0  0  0  0  0  0  0
  -24.4524   -9.3211   21.5774 C   0  0  0  0  0  0  0  0  0  0  0  0
  -24.6199  -10.6205   23.6073 C   0  0  0  0  0  0  0  0  0  0  0  0
  -29.8013  -20.8749   21.3198 C   0  0  0  0  0  0  0  0  0  0  0  0
  -28.9848  -37.9811   24.0774 C   0  0  0  0  0  0  0  0  0  0  0  0
  -28.6002  -35.4435   23.0009 C   0  0  0  0  0  0  0  0  0  0  0  0
  -24.9672  -31.2386   20.4267 C   0  0  0  0  0  0  0  0  0  0  0  0
  -29.7717  -19.5345   20.9351 C   0  0  0  0  0  0  0  0  0  0  0  0
  -24.1076   -8.1959   22.3261 C   0  0  0  0  0  0  0  0  0  0  0  0
  -24.2751   -9.4953   24.3561 C   0  0  0  0  0  0  0  0  0  0  0  0
  -25.1344  -29.8756   20.1857 C   0  0  0  0  0  0  0  0  0  0  0  0
  -21.3560   -6.9765   23.8671 C   0  0  0  0  0  0  0  0  0  0  0  0
  -20.2898   -6.1989   23.4152 C   0  0  0  0  0  0  0  0  0  0  0  0
  -23.9580  -29.3758   22.2316 C   0  0  0  0  0  0  0  0  0  0  0  0
  -27.3562  -19.5823   20.9547 C   0  0  0  0  0  0  0  0  0  0  0  0
  -21.7615   -4.2926   23.2230 C   0  0  0  0  0  0  0  0  0  0  0  0
  -24.7086  -10.5334   22.2180 C   0  0  0  0  0  0  0  0  0  0  0  0
  -28.6084  -21.5690   21.5220 C   0  0  0  0  0  0  0  0  0  0  0  0
  -24.1914  -12.6570   20.9024 C   0  0  0  0  0  0  0  0  0  0  0  0
  -28.1533  -37.0689   24.7461 C   0  0  0  0  0  0  0  0  0  0  0  0
  -24.3026  -31.6814   21.5794 C   0  0  0  0  0  0  0  0  0  0  0  0
  -27.9658  -35.7812   24.2085 C   0  0  0  0  0  0  0  0  0  0  0  0
  -23.7815  -30.7449   22.4836 C   0  0  0  0  0  0  0  0  0  0  0  0
  -28.5492  -18.8882   20.7525 C   0  0  0  0  0  0  0  0  0  0  0  0
  -24.0190   -8.2830   23.7154 C   0  0  0  0  0  0  0  0  0  0  0  0
  -24.6322  -28.9440   21.0896 C   0  0  0  0  0  0  0  0  0  0  0  0
  -22.6250   -6.4122   23.9968 C   0  0  0  0  0  0  0  0  0  0  0  0
  -20.4925   -4.8570   23.0932 C   0  0  0  0  0  0  0  0  0  0  0  0
  -27.3859  -20.9227   21.3394 C   0  0  0  0  0  0  0  0  0  0  0  0
  -22.8277   -5.0702   23.6748 C   0  0  0  0  0  0  0  0  0  0  0  0
  -25.0653  -11.6960   21.4452 C   0  0  0  0  0  0  0  0  0  0  0  0
  -25.0168  -13.5499   20.2637 C   0  0  0  0  0  0  0  0  0  0  0  0
  -25.9153  -27.0058   21.3499 C   0  0  0  0  0  0  0  0  0  1  0  0
  -28.6449  -22.9954   21.9343 C   0  0  0  0  0  0  0  0  0  0  0  0
  -22.7614  -12.7355   20.9696 C   0  0  0  0  0  0  0  0  0  0  0  0
  -26.1762  -25.7041   21.1810 C   0  0  0  0  0  0  0  0  0  0  0  0
  -27.4325  -25.1378   21.7609 C   0  0  0  0  0  0  0  0  0  0  0  0
  -25.1162  -33.4314   24.1051 C   0  0  0  0  0  0  0  0  0  0  0  0
  -21.9611  -33.1719   24.8125 C   0  0  0  0  0  0  0  0  0  0  0  0
  -19.0458  -31.4335   24.4578 C   0  0  0  0  0  0  0  0  0  0  0  0
  -29.6106  -16.6929   20.1198 C   0  0  0  0  0  0  0  0  0  0  0  0
  -27.5382  -37.4767   26.0614 C   0  0  0  0  0  0  0  0  0  0  0  0
  -24.1072  -33.1546   21.8114 C   0  0  0  0  0  0  0  0  0  0  0  0
  -23.0425  -31.1682   23.7258 C   0  0  0  0  0  0  0  0  0  0  0  0
  -26.3904  -36.5726   26.5033 C   0  0  0  0  0  0  0  0  0  0  0  0
  -29.9531  -13.2765   19.1773 C   0  0  0  0  0  0  0  0  0  0  0  0
  -26.7761  -35.1051   26.3469 C   0  0  0  0  0  0  0  0  0  0  0  0
  -28.6401  -12.6398   19.6386 C   0  0  0  0  0  0  0  0  0  0  0  0
  -30.4363  -14.3493   20.1517 C   0  0  0  0  0  0  0  0  0  0  0  0
  -28.1349  -14.7501   20.9342 C   0  0  0  0  0  0  0  0  0  0  0  0
  -27.0685  -34.7648   24.8806 C   0  0  1  0  0  0  0  0  0  0  0  0
  -23.8644  -33.5017   23.2770 C   0  0  1  0  0  0  0  0  0  0  0  0
  -27.5748  -13.7088   19.9515 C   0  0  2  0  0  0  0  0  0  0  0  0
  -16.6443  -31.4451   25.1856 C   0  0  0  0  0  0  0  0  0  0  0  0
  -22.7905  -32.1295   27.5576 C   0  0  0  0  0  0  0  0  0  0  0  0
  -20.4545  -31.2825   27.8646 C   0  0  0  0  0  0  0  0  0  0  0  0
  -20.8665  -33.7270   27.5860 C   0  0  0  0  0  0  0  0  0  0  0  0
  -18.0819  -31.6927   21.6716 C   0  0  0  0  0  0  0  0  0  0  0  0
  -21.1173  -32.1926   25.5923 C   0  0  1  0  0  0  0  0  0  0  0  0
  -17.6368  -31.8875   24.1217 C   0  0  2  0  0  0  0  0  0  0  0  0
  -21.3228  -32.3247   27.1278 C   0  0  0  0  0  0  0  0  0  0  0  0
  -26.3476  -11.9541   21.1747 N   0  0  0  0  0  0  0  0  0  0  0  0
  -26.2855  -13.0873   20.4550 N   0  0  0  0  0  0  0  0  0  0  0  0
  -22.8826  -32.6199   23.9115 N   0  0  0  0  0  0  0  0  0  0  0  0
  -29.3762  -15.3295   20.3972 N   0  0  0  0  0  0  0  0  0  0  0  0
  -24.7738  -14.6777   19.5627 N   0  0  0  0  0  0  0  0  0  0  0  0
  -22.0693  -11.7354   21.6661 N   0  0  0  0  0  0  0  0  0  0  0  0
  -28.5192  -17.5265   20.3617 N   0  0  0  0  0  0  0  0  0  0  0  0
  -27.5708  -23.7746   21.5068 N   0  0  0  0  0  0  0  0  0  0  0  0
  -25.8338  -34.6118   24.1413 N   0  0  0  0  0  0  0  0  0  0  0  0
  -19.7414  -32.3996   25.1536 N   0  0  0  0  0  0  0  0  0  0  0  0
  -17.2076  -31.3184   22.8129 N   0  3  0  0  0  0  0  0  0  0  0  0
  -29.6020  -23.4052   22.5855 O   0  0  0  0  0  0  0  0  0  0  0  0
  -22.1152  -13.6561   20.4142 O   0  0  0  0  0  0  0  0  0  0  0  0
  -28.2302  -25.8279   22.3889 O   0  0  0  0  0  0  0  0  0  0  0  0
  -25.4084  -32.3844   24.6707 O   0  0  0  0  0  0  0  0  0  0  0  0
  -21.8032  -34.3823   24.9910 O   0  0  0  0  0  0  0  0  0  0  0  0
  -19.4843  -30.3305   24.1386 O   0  0  0  0  0  0  0  0  0  0  0  0
  -30.6906  -17.0878   19.6728 O   0  0  0  0  0  0  0  0  0  0  0  0
  -25.3318  -24.8585   20.4917 O   0  0  0  0  0  0  0  0  0  0  0  0
  -23.6823   -7.1852   24.4463 O   0  0  0  0  0  0  0  0  0  0  0  0
  -24.7946  -27.6131   20.8572 O   0  0  0  0  0  0  0  0  0  1  0  0
  -19.4682   -4.1100   22.6607 F   0  0  0  0  0  0  0  0  0  0  0  0
  -26.2331  -21.5798   21.5314 F   0  0  0  0  0  0  0  0  0  0  0  0
  -24.0443   -4.5221   23.7986 F   0  0  0  0  0  0  0  0  0  0  0  0
  1  2  1  0  0  0  0
  1  6  2  0  0  0  0
  2  7  2  0  0  0  0
  3 10  2  0  0  0  0
  3 18  1  0  0  0  0
  4 11  1  0  0  0  0
  4 18  2  0  0  0  0
  5  9  2  0  0  0  0
  5 19  1  0  0  0  0
  6 21  1  0  0  0  0
  7 23  1  0  0  0  0
  8 12  2  0  0  0  0
  8 22  1  0  0  0  0
  9 25  1  0  0  0  0
 10 26  1  0  0  0  0
 11 26  2  0  0  0  0
 12 27  1  0  0  0  0
 13 14  2  0  0  0  0
 13 28  1  0  0  0  0
 14 29  1  0  0  0  0
 15 24  1  0  0  0  0
 15 27  2  0  0  0  0
 16 25  2  0  0  0  0
 16 30  1  0  0  0  0
 17 29  2  0  0  0  0
 17 31  1  0  0  0  0
 18 32  1  0  0  0  0
 19 30  2  0  0  0  0
 19 35  1  0  0  0  0
 20 32  1  0  0  0  0
 20 33  2  0  0  0  0
 20 36  1  0  0  0  0
 21 23  2  0  0  0  0
 21 43  1  0  0  0  0
 22 24  2  0  0  0  0
 22 44  1  0  0  0  0
 23 52  1  0  0  0  0
 24 45  1  0  0  0  0
 25 69  1  0  0  0  0
 26 82  1  0  0  0  0
 27 83  1  0  0  0  0
 28 31  2  0  0  0  0
 28 82  1  0  0  0  0
 29 84  1  0  0  0  0
 30 85  1  0  0  0  0
 31 86  1  0  0  0  0
 32 63  2  0  0  0  0
 33 64  1  0  0  0  0
 33 67  1  0  0  0  0
 34 37  2  0  0  0  0
 34 83  1  0  0  0  0
 35 70  1  0  0  0  0
 35 74  2  0  0  0  0
 36 68  1  0  0  0  0
 36 75  2  0  0  0  0
 37 38  1  0  0  0  0
 37 81  1  0  0  0  0
 38 70  1  0  0  0  0
 38 76  2  0  0  0  0
 39 53  1  0  0  0  0
 39 71  1  0  0  0  0
 39 77  2  0  0  0  0
 40 60  1  0  0  0  0
 40 65  1  0  0  0  0
 40 78  2  0  0  0  0
 41 61  1  0  0  0  0
 41 72  1  0  0  0  0
 41 79  2  0  0  0  0
 42 66  1  0  0  0  0
 42 69  1  0  0  0  0
 42 80  2  0  0  0  0
 43 46  1  0  0  0  0
 44 53  1  0  0  0  0
 45 65  1  0  0  0  0
 46 48  1  0  0  0  0
 47 49  1  0  0  0  0
 47 50  1  0  0  0  0
 48 52  1  0  0  0  0
 49 54  1  0  0  0  0
 50 66  1  0  0  0  0
 51 54  1  0  0  0  0
 51 66  1  0  0  0  0
 52 71  1  0  0  0  0
 53 65  1  0  0  0  0
 54 64  1  0  0  0  0
 55 61  1  0  0  0  0
 56 62  1  0  0  0  0
 57 62  1  0  0  0  0
 58 62  1  0  0  0  0
 59 73  1  0  0  0  0
 60 62  1  0  0  0  0
 60 72  1  0  0  0  0
 61 73  1  0  0  0  0
 63 64  1  0  0  0  0
M  CHG  1  73   1
M  ISO  4  34 101  42 100  69 100  83 101
M  END
> <Batch ID>
0084

> <Smiles>
CNC(C)C(=O)NC(C(=O)N1Cc2cc([101O:1][101CH2:1]C(=O)C(=O)NC(=O)c3ccc([100NH:0][100C:0](=O)N4CCCC(n5nc(-c6ccc(Oc7ccc(F)cc7F)cc6)c(C(N)=O)c5N)C4)cc3F)ccc2CC1C(=O)NC1CCCc2ccccc21)C(C)(C)C

> <Shape>
0.288

> <Color>
0.107

> <Negative vol penalty>
0.000

$$$$

  -OEChem-04052300123D

 85 94  0     1  0  0  0  0  0999 V2000
  -31.2670  -32.3268   11.4045 C   0  0  0  0  0  0  0  0  0  0  0  0
  -31.5731  -31.2429   12.2212 C   0  0  0  0  0  0  0  0  0  0  0  0
  -31.7219  -18.5518   23.6753 C   0  0  0  0  0  0  0  0  0  0  0  0
  -23.1118   -9.8840   19.8641 C   0  0  0  0  0  0  0  0  0  0  0  0
  -23.8134   -9.7887   22.1741 C   0  0  0  0  0  0  0  0  0  0  0  0
  -30.0080  -32.9211   11.4797 C   0  0  0  0  0  0  0  0  0  0  0  0
  -30.6206  -30.7534   13.1143 C   0  0  0  0  0  0  0  0  0  0  0  0
  -29.7800  -24.9165   14.7666 C   0  0  0  0  0  0  0  0  0  0  0  0
  -31.3336  -19.4605   22.6909 C   0  0  0  0  0  0  0  0  0  0  0  0
  -31.4708  -17.1902   23.5057 C   0  0  0  0  0  0  0  0  0  0  0  0
  -22.3600   -8.7230   20.0446 C   0  0  0  0  0  0  0  0  0  0  0  0
  -23.0616   -8.6278   22.3545 C   0  0  0  0  0  0  0  0  0  0  0  0
  -30.1936  -24.1883   15.8812 C   0  0  0  0  0  0  0  0  0  0  0  0
  -19.8180   -7.8130   22.8400 C   0  0  0  0  0  0  0  0  0  0  0  0
  -19.0316   -7.7239   23.9886 C   0  0  0  0  0  0  0  0  0  0  0  0
  -28.0638  -24.6033   16.9352 C   0  0  0  0  0  0  0  0  0  0  0  0
  -30.4429  -17.6461   21.3674 C   0  0  0  0  0  0  0  0  0  0  0  0
  -20.2510   -5.7529   24.6707 C   0  0  0  0  0  0  0  0  0  0  0  0
  -23.8385  -10.4169   20.9289 C   0  0  0  0  0  0  0  0  0  0  0  0
  -24.1872  -12.9439   20.9281 C   0  0  0  0  0  0  0  0  0  0  0  0
  -29.0363  -32.4325   12.3672 C   0  0  0  0  0  0  0  0  0  0  0  0
  -28.5071  -25.5038   14.7324 C   0  0  0  0  0  0  0  0  0  0  0  0
  -29.3479  -31.3426   13.2023 C   0  0  0  0  0  0  0  0  0  0  0  0
  -27.6355  -25.3363   15.8179 C   0  0  0  0  0  0  0  0  0  0  0  0
  -30.6940  -19.0077   21.5370 C   0  0  0  0  0  0  0  0  0  0  0  0
  -30.8313  -16.7374   22.3518 C   0  0  0  0  0  0  0  0  0  0  0  0
  -22.3349   -8.0949   21.2898 C   0  0  0  0  0  0  0  0  0  0  0  0
  -29.3366  -24.0341   16.9670 C   0  0  0  0  0  0  0  0  0  0  0  0
  -20.8209   -6.8719   22.6067 C   0  0  0  0  0  0  0  0  0  0  0  0
  -19.2481   -6.6939   24.9039 C   0  0  0  0  0  0  0  0  0  0  0  0
  -21.0374   -5.8419   23.5220 C   0  0  0  0  0  0  0  0  0  0  0  0
  -24.6157  -11.6158   20.7429 C   0  0  0  0  0  0  0  0  0  0  0  0
  -25.2893  -13.7056   20.6256 C   0  0  0  0  0  0  0  0  0  0  0  0
  -29.8358  -21.1820   19.1022 C   0  0  0  0  0  0  0  0  0  0  0  0
  -29.6882  -19.7513   19.3720 C   0  0  0  0  0  0  0  0  0  0  0  0
  -29.7959  -14.8862   24.3949 C   0  0  0  0  0  0  0  0  0  0  0  0
  -29.4848  -21.9815   18.0787 C   0  0  0  0  0  0  0  0  0  1  0  0
  -30.3510  -14.4780   23.2516 C   0  0  0  0  0  0  0  0  0  0  0  0
  -22.9073  -13.4443   21.3370 C   0  0  0  0  0  0  0  0  0  0  0  0
  -27.4155  -28.4814   14.5187 C   0  0  0  0  0  0  0  0  0  0  0  0
  -24.5388  -26.9973   14.3079 C   0  0  0  0  0  0  0  0  0  0  0  0
  -22.6496  -24.2330   14.9685 C   0  0  0  0  0  0  0  0  0  0  0  0
  -30.7002  -14.7601   20.8801 C   0  0  0  0  0  0  0  0  0  0  0  0
  -27.7055  -33.1376   12.4465 C   0  0  0  0  0  0  0  0  0  0  0  0
  -28.0660  -26.2637   13.5115 C   0  0  0  0  0  0  0  0  0  0  0  0
  -26.2512  -25.9297   15.8223 C   0  0  0  0  0  0  0  0  0  0  0  0
  -30.5311  -21.3340   20.4357 C   0  0  0  0  0  0  0  0  0  0  0  0
  -26.6253  -32.3222   13.1526 C   0  0  0  0  0  0  0  0  0  0  0  0
  -29.6797  -12.4508   18.4689 C   0  0  0  0  0  0  0  0  0  0  0  0
  -27.1681  -31.7242   14.4467 C   0  0  0  0  0  0  0  0  0  0  0  0
  -28.2375  -12.1256   18.8565 C   0  0  0  0  0  0  0  0  0  0  0  0
  -30.5627  -12.5786   19.7049 C   0  0  0  0  0  0  0  0  0  0  0  0
  -28.6340  -13.2786   21.0883 C   0  0  0  0  0  0  0  0  0  0  0  0
  -28.3330  -30.7672   14.1662 C   0  0  1  0  0  0  0  0  0  0  0  0
  -26.9397  -27.2521   13.7975 C   0  0  1  0  0  0  0  0  0  0  0  0
  -27.6951  -13.1462   19.8725 C   0  0  2  0  0  0  0  0  0  0  0  0
  -20.3227  -23.3296   14.7101 C   0  0  0  0  0  0  0  0  0  0  0  0
  -23.6004  -28.7612   16.6140 C   0  0  0  0  0  0  0  0  0  0  0  0
  -21.6687  -27.2002   16.9301 C   0  0  0  0  0  0  0  0  0  0  0  0
  -21.9209  -28.4517   14.7870 C   0  0  0  0  0  0  0  0  0  0  0  0
  -23.5855  -21.9815   13.2911 C   0  0  0  0  0  0  0  0  0  0  0  0
  -23.4958  -26.5415   15.2995 C   0  0  1  0  0  0  0  0  0  0  0  0
  -21.7100  -23.4226   14.0940 C   0  0  2  0  0  0  0  0  0  0  0  0
  -22.6982  -27.7289   15.9087 C   0  0  0  0  0  0  0  0  0  0  0  0
  -25.8906  -11.5350   20.3529 N   0  0  0  0  0  0  0  0  0  0  0  0
  -26.2726  -12.8219   20.2904 N   0  0  0  0  0  0  0  0  0  0  0  0
  -30.3117  -19.9044   20.5664 N   0  0  0  0  0  0  0  0  0  0  0  0
  -25.8685  -26.6693   14.6082 N   0  0  0  0  0  0  0  0  0  0  0  0
  -30.0114  -13.5532   20.6470 N   0  0  0  0  0  0  0  0  0  0  0  0
  -25.5036  -15.0385   20.6162 N   0  0  0  0  0  0  0  0  0  0  0  0
  -21.8858  -12.5240   21.6085 N   0  0  0  0  0  0  0  0  0  0  0  0
  -27.8378  -29.4966   13.6817 N   0  0  0  0  0  0  0  0  0  0  0  0
  -22.6697  -25.5621   14.6018 N   0  0  0  0  0  0  0  0  0  0  0  0
  -30.5709  -15.3234   22.1763 N   0  0  0  0  0  0  0  0  0  0  0  0
  -22.2363  -22.0405   13.9102 N   0  3  0  0  0  0  0  0  0  0  0  0
  -29.2163  -18.8075   18.7729 O   0  0  0  0  0  0  0  0  0  0  0  0
  -22.6716  -14.6719   21.4421 O   0  0  0  0  0  0  0  0  0  0  0  0
  -27.3993  -28.5076   15.7437 O   0  0  0  0  0  0  0  0  0  0  0  0
  -24.1860  -27.6152   13.3003 O   0  0  0  0  0  0  0  0  0  0  0  0
  -23.2978  -23.7374   15.8876 O   0  0  0  0  0  0  0  0  0  0  0  0
  -31.3987  -15.2904   20.0065 O   0  0  0  0  0  0  0  0  0  0  0  0
  -21.6013   -6.9621   21.4663 O   0  0  0  0  0  0  0  0  0  0  0  0
  -29.7381  -23.3243   18.0564 O   0  0  0  0  0  0  0  0  0  1  0  0
  -18.4939   -6.6095   26.0076 F   0  0  0  0  0  0  0  0  0  0  0  0
  -22.0001   -4.9356   23.3039 F   0  0  0  0  0  0  0  0  0  0  0  0
  1  2  1  0  0  0  0
  1  6  2  0  0  0  0
  2  7  2  0  0  0  0
  3  9  1  0  0  0  0
  3 10  2  0  0  0  0
  4 11  2  0  0  0  0
  4 19  1  0  0  0  0
  5 12  1  0  0  0  0
  5 19  2  0  0  0  0
  6 21  1  0  0  0  0
  7 23  1  0  0  0  0
  8 13  2  0  0  0  0
  8 22  1  0  0  0  0
  9 25  2  0  0  0  0
 10 26  1  0  0  0  0
 11 27  1  0  0  0  0
 12 27  2  0  0  0  0
 13 28  1  0  0  0  0
 14 15  2  0  0  0  0
 14 29  1  0  0  0  0
 15 30  1  0  0  0  0
 16 24  1  0  0  0  0
 16 28  2  0  0  0  0
 17 25  1  0  0  0  0
 17 26  2  0  0  0  0
 18 30  2  0  0  0  0
 18 31  1  0  0  0  0
 19 32  1  0  0  0  0
 20 32  1  0  0  0  0
 20 33  2  0  0  0  0
 20 39  1  0  0  0  0
 21 23  2  0  0  0  0
 21 44  1  0  0  0  0
 22 24  2  0  0  0  0
 22 45  1  0  0  0  0
 23 54  1  0  0  0  0
 24 46  1  0  0  0  0
 25 67  1  0  0  0  0
 26 74  1  0  0  0  0
 27 82  1  0  0  0  0
 28 83  1  0  0  0  0
 29 31  2  0  0  0  0
 29 82  1  0  0  0  0
 30 84  1  0  0  0  0
 31 85  1  0  0  0  0
 32 65  2  0  0  0  0
 33 66  1  0  0  0  0
 33 70  1  0  0  0  0
 34 35  1  0  0  0  0
 34 37  2  0  0  0  0
 34 47  1  0  0  0  0
 35 67  1  0  0  0  0
 35 76  2  0  0  0  0
 36 38  2  0  0  0  0
 37 83  1  0  0  0  0
 38 74  1  0  0  0  0
 39 71  1  0  0  0  0
 39 77  2  0  0  0  0
 40 55  1  0  0  0  0
 40 72  1  0  0  0  0
 40 78  2  0  0  0  0
 41 62  1  0  0  0  0
 41 68  1  0  0  0  0
 41 79  2  0  0  0  0
 42 63  1  0  0  0  0
 42 73  1  0  0  0  0
 42 80  2  0  0  0  0
 43 69  1  0  0  0  0
 43 74  1  0  0  0  0
 43 81  2  0  0  0  0
 44 48  1  0  0  0  0
 45 55  1  0  0  0  0
 46 68  1  0  0  0  0
 47 67  1  0  0  0  0
 48 50  1  0  0  0  0
 49 51  1  0  0  0  0
 49 52  1  0  0  0  0
 50 54  1  0  0  0  0
 51 56  1  0  0  0  0
 52 69  1  0  0  0  0
 53 56  1  0  0  0  0
 53 69  1  0  0  0  0
 54 72  1  0  0  0  0
 55 68  1  0  0  0  0
 56 66  1  0  0  0  0
 57 63  1  0  0  0  0
 58 64  1  0  0  0  0
 59 64  1  0  0  0  0
 60 64  1  0  0  0  0
 61 75  1  0  0  0  0
 62 64  1  0  0  0  0
 62 73  1  0  0  0  0
 63 75  1  0  0  0  0
 65 66  1  0  0  0  0
M  CHG  1  75   1
M  ISO  4  37 101  43 100  74 100  83 101
M  END
> <Batch ID>
0084

> <Smiles>
C=C[100N:0](c1cccc(N2CC(=[101CH:1][101O:1]c3ccc4c(c3)CN(C(=O)C(NC(=O)C(C)NC)C(C)(C)C)C(C(=O)NC3CCCc5ccccc53)C4)C2=O)c1)[100C:0](=O)N1CCCC(n2nc(-c3ccc(Oc4ccc(F)cc4F)cc3)c(C(N)=O)c2N)C1

> <Shape>
0.214

> <Color>
0.192

> <Negative vol penalty>
0.000

$$$$

  -OEChem-04052300123D

 85 93  0     1  0  0  0  0  0999 V2000
  -28.6668  -36.3815   25.3315 C   0  0  0  0  0  0  0  0  0  0  0  0
  -29.1099  -35.4799   24.3691 C   0  0  0  0  0  0  0  0  0  0  0  0
  -24.0353   -8.8402   21.0484 C   0  0  0  0  0  0  0  0  0  0  0  0
  -23.2156  -11.1078   20.8961 C   0  0  0  0  0  0  0  0  0  0  0  0
  -30.4719  -18.4890   21.4455 C   0  0  0  0  0  0  0  0  0  0  0  0
  -28.2487  -18.7481   20.5360 C   0  0  0  0  0  0  0  0  0  0  0  0
  -27.6340  -36.0239   26.1971 C   0  0  0  0  0  0  0  0  0  0  0  0
  -28.5211  -34.2196   24.2724 C   0  0  0  0  0  0  0  0  0  0  0  0
  -26.8276  -29.2039   19.4464 C   0  0  0  0  0  0  0  0  0  0  0  0
  -30.4995  -17.1670   21.0014 C   0  0  0  0  0  0  0  0  0  0  0  0
  -28.2763  -17.4261   20.0919 C   0  0  0  0  0  0  0  0  0  0  0  0
  -23.0319   -8.5394   21.9695 C   0  0  0  0  0  0  0  0  0  0  0  0
  -22.2122  -10.8070   21.8172 C   0  0  0  0  0  0  0  0  0  0  0  0
  -26.9931  -27.8405   19.2066 C   0  0  0  0  0  0  0  0  0  0  0  0
  -19.7290   -7.8187   21.9084 C   0  0  0  0  0  0  0  0  0  0  0  0
  -19.0281   -6.6250   21.7368 C   0  0  0  0  0  0  0  0  0  0  0  0
  -25.1630  -27.3613   20.7034 C   0  0  0  0  0  0  0  0  0  0  0  0
  -19.7621   -5.8809   23.9151 C   0  0  0  0  0  0  0  0  0  0  0  0
  -24.1271  -10.1245   20.5117 C   0  0  0  0  0  0  0  0  0  0  0  0
  -29.3464  -19.2795   21.2129 C   0  0  0  0  0  0  0  0  0  0  0  0
  -25.0954  -10.3174   18.1595 C   0  0  0  0  0  0  0  0  0  0  0  0
  -27.0257  -34.7621   26.1047 C   0  0  0  0  0  0  0  0  0  0  0  0
  -25.8340  -29.6564   20.3264 C   0  0  0  0  0  0  0  0  0  0  0  0
  -27.4801  -33.8442   25.1385 C   0  0  0  0  0  0  0  0  0  0  0  0
  -24.9853  -28.7311   20.9507 C   0  0  0  0  0  0  0  0  0  0  0  0
  -29.4018  -16.6356   20.3246 C   0  0  0  0  0  0  0  0  0  0  0  0
  -22.1204   -9.5228   22.3539 C   0  0  0  0  0  0  0  0  0  0  0  0
  -26.1626  -26.9188   19.8373 C   0  0  0  0  0  0  0  0  0  0  0  0
  -20.4464   -8.0435   23.0833 C   0  0  0  0  0  0  0  0  0  0  0  0
  -19.0447   -5.6561   22.7401 C   0  0  0  0  0  0  0  0  0  0  0  0
  -20.4630   -7.0747   24.0866 C   0  0  0  0  0  0  0  0  0  0  0  0
  -25.1637  -10.4360   19.5606 C   0  0  0  0  0  0  0  0  0  0  0  0
  -26.3278  -10.7342   17.7192 C   0  0  0  0  0  0  0  0  0  0  0  0
  -27.1726  -24.8905   20.4174 C   0  0  0  0  0  0  0  0  0  1  0  0
  -29.3169  -20.6871   21.6860 C   0  0  0  0  0  0  0  0  0  0  0  0
  -24.0146   -9.8705   17.3302 C   0  0  0  0  0  0  0  0  0  0  0  0
  -27.4047  -23.5795   20.2802 C   0  0  0  0  0  0  0  0  0  0  0  0
  -28.3545  -22.9115   21.2220 C   0  0  0  0  0  0  0  0  0  0  0  0
  -25.8286  -31.2703   23.0648 C   0  0  0  0  0  0  0  0  0  0  0  0
  -22.6126  -31.2062   22.6455 C   0  0  0  0  0  0  0  0  0  0  0  0
  -19.9047  -29.6825   21.2339 C   0  0  0  0  0  0  0  0  0  0  0  0
  -30.4693  -14.3738   20.0228 C   0  0  0  0  0  0  0  0  0  0  0  0
  -25.9448  -34.4032   27.0933 C   0  0  0  0  0  0  0  0  0  0  0  0
  -25.6510  -31.1319   20.5537 C   0  0  0  0  0  0  0  0  0  0  0  0
  -23.8903  -29.1666   21.8885 C   0  0  0  0  0  0  0  0  0  0  0  0
  -25.1208  -33.1864   26.6799 C   0  0  0  0  0  0  0  0  0  0  0  0
  -30.9113  -10.9669   19.0874 C   0  0  0  0  0  0  0  0  0  0  0  0
  -26.0338  -32.0565   26.2147 C   0  0  0  0  0  0  0  0  0  0  0  0
  -29.4812  -10.4350   18.9691 C   0  0  0  0  0  0  0  0  0  0  0  0
  -31.0514  -11.9672   20.2335 C   0  0  0  0  0  0  0  0  0  0  0  0
  -28.6611  -12.5460   20.0908 C   0  0  0  0  0  0  0  0  0  0  0  0
  -26.8498  -32.4769   24.9863 C   0  0  1  0  0  0  0  0  0  0  0  0
  -24.9410  -31.4508   21.8658 C   0  0  1  0  0  0  0  0  0  0  0  0
  -28.4557  -11.5840   18.9092 C   0  0  2  0  0  0  0  0  0  0  0  0
  -17.4034  -29.8366   21.1033 C   0  0  0  0  0  0  0  0  0  0  0  0
  -22.3960  -30.0278   25.4517 C   0  0  0  0  0  0  0  0  0  0  0  0
  -20.0537  -29.3337   24.9040 C   0  0  0  0  0  0  0  0  0  0  0  0
  -20.6676  -31.7515   24.9078 C   0  0  0  0  0  0  0  0  0  0  0  0
  -19.9668  -30.0903   18.3032 C   0  0  0  0  0  0  0  0  0  0  0  0
  -21.5014  -30.2640   23.0413 C   0  0  1  0  0  0  0  0  0  0  0  0
  -18.7222  -30.2417   20.4635 C   0  0  2  0  0  0  0  0  0  0  0  0
  -21.1765  -30.3356   24.5601 C   0  0  0  0  0  0  0  0  0  0  0  0
  -26.3460  -10.8922   19.9825 N   0  0  0  0  0  0  0  0  0  0  0  0
  -27.0321  -11.0639   18.8397 N   0  0  0  0  0  0  0  0  0  0  0  0
  -23.7553  -30.6196   22.0834 N   0  0  0  0  0  0  0  0  0  0  0  0
  -30.0507  -13.0291   20.1084 N   0  0  0  0  0  0  0  0  0  0  0  0
  -26.8670  -10.8470   16.4868 N   0  0  0  0  0  0  0  0  0  0  0  0
  -22.8180   -9.4785   17.9458 N   0  0  0  0  0  0  0  0  0  0  0  0
  -29.4310  -15.2926   19.8737 N   0  0  0  0  0  0  0  0  0  0  0  0
  -28.4974  -21.5503   20.9601 N   0  0  0  0  0  0  0  0  0  0  0  0
  -26.0309  -32.4264   23.7941 N   0  0  0  0  0  0  0  0  0  0  0  0
  -20.3717  -30.5775   22.1731 N   0  0  0  0  0  0  0  0  0  0  0  0
  -18.7361  -29.7427   19.0593 N   0  3  0  0  0  0  0  0  0  0  0  0
  -30.0144  -21.0108   22.6434 O   0  0  0  0  0  0  0  0  0  0  0  0
  -24.1128   -9.8047   16.0814 O   0  0  0  0  0  0  0  0  0  0  0  0
  -28.9255  -23.5265   22.1180 O   0  0  0  0  0  0  0  0  0  0  0  0
  -26.2941  -30.1638   23.3108 O   0  0  0  0  0  0  0  0  0  0  0  0
  -22.4690  -32.4185   22.8219 O   0  0  0  0  0  0  0  0  0  0  0  0
  -20.3655  -28.5622   21.0260 O   0  0  0  0  0  0  0  0  0  0  0  0
  -31.6628  -14.6849   20.0503 O   0  0  0  0  0  0  0  0  0  0  0  0
  -26.8024  -22.8147   19.3028 O   0  0  0  0  0  0  0  0  0  0  0  0
  -21.1411   -9.2295   23.2525 O   0  0  0  0  0  0  0  0  0  0  0  0
  -26.3224  -25.5874   19.6055 O   0  0  0  0  0  0  0  0  0  1  0  0
  -18.3704   -4.5105   22.5759 F   0  0  0  0  0  0  0  0  0  0  0  0
  -21.1495   -7.2855   25.2181 F   0  0  0  0  0  0  0  0  0  0  0  0
  1  2  1  0  0  0  0
  1  7  2  0  0  0  0
  2  8  2  0  0  0  0
  3 12  2  0  0  0  0
  3 19  1  0  0  0  0
  4 13  1  0  0  0  0
  4 19  2  0  0  0  0
  5 10  2  0  0  0  0
  5 20  1  0  0  0  0
  6 11  1  0  0  0  0
  6 20  2  0  0  0  0
  7 22  1  0  0  0  0
  8 24  1  0  0  0  0
  9 14  2  0  0  0  0
  9 23  1  0  0  0  0
 10 26  1  0  0  0  0
 11 26  2  0  0  0  0
 12 27  1  0  0  0  0
 13 27  2  0  0  0  0
 14 28  1  0  0  0  0
 15 16  2  0  0  0  0
 15 29  1  0  0  0  0
 16 30  1  0  0  0  0
 17 25  1  0  0  0  0
 17 28  2  0  0  0  0
 18 30  2  0  0  0  0
 18 31  1  0  0  0  0
 19 32  1  0  0  0  0
 20 35  1  0  0  0  0
 21 32  1  0  0  0  0
 21 33  2  0  0  0  0
 21 36  1  0  0  0  0
 22 24  2  0  0  0  0
 22 43  1  0  0  0  0
 23 25  2  0  0  0  0
 23 44  1  0  0  0  0
 24 52  1  0  0  0  0
 25 45  1  0  0  0  0
 26 69  1  0  0  0  0
 27 82  1  0  0  0  0
 28 83  1  0  0  0  0
 29 31  2  0  0  0  0
 29 82  1  0  0  0  0
 30 84  1  0  0  0  0
 31 85  1  0  0  0  0
 32 63  2  0  0  0  0
 33 64  1  0  0  0  0
 33 67  1  0  0  0  0
 34 37  2  0  0  0  0
 34 83  1  0  0  0  0
 35 70  1  0  0  0  0
 35 74  2  0  0  0  0
 36 68  1  0  0  0  0
 36 75  2  0  0  0  0
 37 38  1  0  0  0  0
 37 81  1  0  0  0  0
 38 70  1  0  0  0  0
 38 76  2  0  0  0  0
 39 53  1  0  0  0  0
 39 71  1  0  0  0  0
 39 77  2  0  0  0  0
 40 60  1  0  0  0  0
 40 65  1  0  0  0  0
 40 78  2  0  0  0  0
 41 61  1  0  0  0  0
 41 72  1  0  0  0  0
 41 79  2  0  0  0  0
 42 66  1  0  0  0  0
 42 69  1  0  0  0  0
 42 80  2  0  0  0  0
 43 46  1  0  0  0  0
 44 53  1  0  0  0  0
 45 65  1  0  0  0  0
 46 48  1  0  0  0  0
 47 49  1  0  0  0  0
 47 50  1  0  0  0  0
 48 52  1  0  0  0  0
 49 54  1  0  0  0  0
 50 66  1  0  0  0  0
 51 54  1  0  0  0  0
 51 66  1  0  0  0  0
 52 71  1  0  0  0  0
 53 65  1  0  0  0  0
 54 64  1  0  0  0  0
 55 61  1  0  0  0  0
 56 62  1  0  0  0  0
 57 62  1  0  0  0  0
 58 62  1  0  0  0  0
 59 73  1  0  0  0  0
 60 62  1  0  0  0  0
 60 72  1  0  0  0  0
 61 73  1  0  0  0  0
 63 64  1  0  0  0  0
M  CHG  1  73   1
M  ISO  4  34 101  42 100  69 100  83 101
M  END
> <Batch ID>
0084

> <Smiles>
CNC(C)C(=O)NC(C(=O)N1Cc2cc([101O:1][101CH2:1]C(=O)C(=O)NC(=O)c3ccc([100NH:0][100C:0](=O)N4CCCC(n5nc(-c6ccc(Oc7ccc(F)cc7F)cc6)c(C(N)=O)c5N)C4)cc3)ccc2CC1C(=O)NC1CCCc2ccccc21)C(C)(C)C

> <Shape>
0.284

> <Color>
0.081

> <Negative vol penalty>
0.000

$$$$

  -OEChem-04052300123D

 87 96  0     1  0  0  0  0  0999 V2000
  -16.6383  -25.5018   22.8201 C   0  0  0  0  0  0  0  0  0  0  0  0
  -17.9247  -25.0590   22.5295 C   0  0  0  0  0  0  0  0  0  0  0  0
  -22.8951  -10.1602   19.9670 C   0  0  0  0  0  0  0  0  0  0  0  0
  -23.8669   -9.8731   22.1602 C   0  0  0  0  0  0  0  0  0  0  0  0
  -29.4358  -16.9712   20.0743 C   0  0  0  0  0  0  0  0  0  0  0  0
  -29.2405  -17.3819   22.4471 C   0  0  0  0  0  0  0  0  0  0  0  0
  -16.3187  -26.8517   22.6804 C   0  0  0  0  0  0  0  0  0  0  0  0
  -18.8921  -25.9659   22.0981 C   0  0  0  0  0  0  0  0  0  0  0  0
  -23.3480  -25.2996   24.4103 C   0  0  0  0  0  0  0  0  0  0  0  0
  -28.7489  -18.1566   19.8125 C   0  0  0  0  0  0  0  0  0  0  0  0
  -28.5536  -18.5674   22.1853 C   0  0  0  0  0  0  0  0  0  0  0  0
  -22.1176   -9.0187   20.1620 C   0  0  0  0  0  0  0  0  0  0  0  0
  -23.0894   -8.7315   22.3553 C   0  0  0  0  0  0  0  0  0  0  0  0
  -24.1459  -24.2470   23.9639 C   0  0  0  0  0  0  0  0  0  0  0  0
  -23.1489   -5.4856   21.4113 C   0  0  0  0  0  0  0  0  0  0  0  0
  -23.7737   -4.3598   21.9478 C   0  0  0  0  0  0  0  0  0  0  0  0
  -25.4657  -25.8019   22.6755 C   0  0  0  0  0  0  0  0  0  0  0  0
  -22.2523   -4.4095   23.8240 C   0  0  0  0  0  0  0  0  0  0  0  0
  -23.7698  -10.5874   20.9661 C   0  0  0  0  0  0  0  0  0  0  0  0
  -29.6815  -16.5838   21.3916 C   0  0  0  0  0  0  0  0  0  0  0  0
  -24.2330  -13.0930   21.0898 C   0  0  0  0  0  0  0  0  0  0  0  0
  -17.2853  -27.7771   22.2563 C   0  0  0  0  0  0  0  0  0  0  0  0
  -23.5967  -26.6119   23.9834 C   0  0  0  0  0  0  0  0  0  0  0  0
  -18.5849  -27.3292   21.9514 C   0  0  0  0  0  0  0  0  0  0  0  0
  -24.6711  -26.8697   23.1200 C   0  0  0  0  0  0  0  0  0  0  0  0
  -28.3079  -18.9547   20.8680 C   0  0  0  0  0  0  0  0  0  0  0  0
  -22.2147   -8.3044   21.3561 C   0  0  0  0  0  0  0  0  0  0  0  0
  -25.2031  -24.4977   23.0941 C   0  0  0  0  0  0  0  0  0  0  0  0
  -22.0758   -6.0734   22.0812 C   0  0  0  0  0  0  0  0  0  0  0  0
  -23.3254   -3.8218   23.1541 C   0  0  0  0  0  0  0  0  0  0  0  0
  -21.6275   -5.5353   23.2875 C   0  0  0  0  0  0  0  0  0  0  0  0
  -24.5736  -11.7662   20.7650 C   0  0  0  0  0  0  0  0  0  0  0  0
  -25.3245  -13.8320   20.7039 C   0  0  0  0  0  0  0  0  0  0  0  0
  -26.3023  -21.7406   19.6271 C   0  0  0  0  0  0  0  0  0  0  0  0
  -26.7779  -22.2669   20.7583 C   0  0  0  0  0  0  0  0  0  0  0  0
  -26.8234  -20.3622   19.5051 C   0  0  0  0  0  0  0  0  0  0  0  0
  -27.6426  -21.2587   21.4079 C   0  0  0  0  0  0  0  0  0  0  0  0
  -30.3975  -15.3477   21.6645 C   0  0  0  0  0  0  0  0  0  0  0  0
  -23.0369  -13.6110   21.6871 C   0  0  0  0  0  0  0  0  0  0  0  0
  -30.8793  -14.4773   20.5675 C   0  0  0  0  0  0  0  0  0  0  0  0
  -21.9594  -28.7838   22.3384 C   0  0  0  0  0  0  0  0  0  0  0  0
  -24.4703  -30.6891   23.1050 C   0  0  0  0  0  0  0  0  0  0  0  0
  -27.7563  -30.9337   23.9933 C   0  0  0  0  0  0  0  0  0  0  0  0
  -16.8801  -29.2185   22.0749 C   0  0  0  0  0  0  0  0  0  0  0  0
  -22.7433  -27.7398   24.4952 C   0  0  0  0  0  0  0  0  0  0  0  0
  -24.9925  -28.2634   22.6481 C   0  0  0  0  0  0  0  0  0  0  0  0
  -18.0646  -30.1759   21.9719 C   0  0  0  0  0  0  0  0  0  0  0  0
  -29.3578  -12.5713   17.9390 C   0  0  0  0  0  0  0  0  0  0  0  0
  -19.1126  -29.6269   21.0091 C   0  0  0  0  0  0  0  0  0  0  0  0
  -27.9627  -12.2683   18.4847 C   0  0  0  0  0  0  0  0  0  0  0  0
  -30.3998  -12.5948   19.0525 C   0  0  0  0  0  0  0  0  0  0  0  0
  -28.6763  -13.2417   20.7137 C   0  0  0  0  0  0  0  0  0  0  0  0
  -19.6685  -28.2864   21.5045 C   0  0  1  0  0  0  0  0  0  0  0  0
  -22.7701  -28.9676   23.5901 C   0  0  1  0  0  0  0  0  0  0  0  0
  -27.5922  -13.2369   19.6219 C   0  0  2  0  0  0  0  0  0  0  0  0
  -25.4032  -22.3184   18.5981 C   0  0  0  0  0  0  0  0  0  0  0  0
  -29.5357  -32.6251   24.5133 C   0  0  0  0  0  0  0  0  0  0  0  0
  -24.7477  -31.3081   20.1302 C   0  0  0  0  0  0  0  0  0  0  0  0
  -27.0423  -32.1929   20.5995 C   0  0  0  0  0  0  0  0  0  0  0  0
  -25.0519  -33.2795   21.6388 C   0  0  0  0  0  0  0  0  0  0  0  0
  -28.1106  -29.8883   26.7393 C   0  0  0  0  0  0  0  0  0  0  0  0
  -26.5680  -23.6077   21.3617 C   0  0  0  0  0  0  0  0  0  1  0  0
  -25.8007  -31.0118   22.4688 C   0  0  1  0  0  0  0  0  0  0  0  0
  -28.4480  -31.7294   25.0855 C   0  0  2  0  0  0  0  0  0  0  0  0
  -25.6537  -31.9215   21.2165 C   0  0  0  0  0  0  0  0  0  0  0  0
  -25.7865  -11.6652   20.2149 N   0  0  0  0  0  0  0  0  0  0  0  0
  -30.6638  -14.9251   22.8710 N   0  0  0  0  0  0  0  0  0  0  0  0
  -26.2176  -12.9378   20.1910 N   0  0  0  0  0  0  0  0  0  0  0  0
  -27.6234  -20.1364   20.6060 N   0  0  0  0  0  0  0  0  0  0  0  0
  -30.0001  -13.4959   20.1316 N   0  0  0  0  0  0  0  0  0  0  0  0
  -24.1252  -29.3317   23.1715 N   0  0  0  0  0  0  0  0  0  0  0  0
  -25.5978  -15.1529   20.7565 N   0  0  0  0  0  0  0  0  0  0  0  0
  -22.0142  -12.7131   22.0219 N   0  0  0  0  0  0  0  0  0  0  0  0
  -20.6269  -28.4987   22.5680 N   0  0  0  0  0  0  0  0  0  0  0  0
  -26.6314  -31.5794   23.5253 N   0  0  0  0  0  0  0  0  0  0  0  0
  -29.0705  -30.8110   26.0804 N   0  3  0  0  0  0  0  0  0  0  0  0
  -26.5625  -19.6094   18.5799 O   0  0  0  0  0  0  0  0  0  0  0  0
  -28.2370  -21.4398   22.4589 O   0  0  0  0  0  0  0  0  0  0  0  0
  -22.8731  -14.8360   21.9021 O   0  0  0  0  0  0  0  0  0  0  0  0
  -32.0084  -14.7180   20.1605 O   0  0  0  0  0  0  0  0  0  0  0  0
  -22.5022  -28.8941   21.2454 O   0  0  0  0  0  0  0  0  0  0  0  0
  -23.7665  -31.6069   23.5338 O   0  0  0  0  0  0  0  0  0  0  0  0
  -28.1744  -29.8496   23.5926 O   0  0  0  0  0  0  0  0  0  0  0  0
  -21.4561   -7.1905   21.5469 O   0  0  0  0  0  0  0  0  0  0  0  0
  -25.9831  -23.4721   22.6563 O   0  0  0  0  0  0  0  0  0  1  0  0
  -23.9245   -2.7398   23.6684 F   0  0  0  0  0  0  0  0  0  0  0  0
  -20.5963   -6.0950   23.9350 F   0  0  0  0  0  0  0  0  0  0  0  0
  1  2  1  0  0  0  0
  1  7  2  0  0  0  0
  2  8  2  0  0  0  0
  3 12  2  0  0  0  0
  3 19  1  0  0  0  0
  4 13  1  0  0  0  0
  4 19  2  0  0  0  0
  5 10  2  0  0  0  0
  5 20  1  0  0  0  0
  6 11  1  0  0  0  0
  6 20  2  0  0  0  0
  7 22  1  0  0  0  0
  8 24  1  0  0  0  0
  9 14  2  0  0  0  0
  9 23  1  0  0  0  0
 10 26  1  0  0  0  0
 11 26  2  0  0  0  0
 12 27  1  0  0  0  0
 13 27  2  0  0  0  0
 14 28  1  0  0  0  0
 15 16  2  0  0  0  0
 15 29  1  0  0  0  0
 16 30  1  0  0  0  0
 17 25  1  0  0  0  0
 17 28  2  0  0  0  0
 18 30  2  0  0  0  0
 18 31  1  0  0  0  0
 19 32  1  0  0  0  0
 20 38  1  0  0  0  0
 21 32  1  0  0  0  0
 21 33  2  0  0  0  0
 21 39  1  0  0  0  0
 22 24  2  0  0  0  0
 22 44  1  0  0  0  0
 23 25  2  0  0  0  0
 23 45  1  0  0  0  0
 24 53  1  0  0  0  0
 25 46  1  0  0  0  0
 26 69  1  0  0  0  0
 27 84  1  0  0  0  0
 28 85  1  0  0  0  0
 29 31  2  0  0  0  0
 29 84  1  0  0  0  0
 30 86  1  0  0  0  0
 31 87  1  0  0  0  0
 32 66  2  0  0  0  0
 33 68  1  0  0  0  0
 33 72  1  0  0  0  0
 34 35  2  0  0  0  0
 34 36  1  0  0  0  0
 34 56  1  0  0  0  0
 35 37  1  0  0  0  0
 35 62  1  0  0  0  0
 36 69  1  0  0  0  0
 36 77  2  0  0  0  0
 37 69  1  0  0  0  0
 37 78  2  0  0  0  0
 38 40  1  0  0  0  0
 38 67  2  0  0  0  0
 39 73  1  0  0  0  0
 39 79  2  0  0  0  0
 40 70  1  0  0  0  0
 40 80  2  0  0  0  0
 41 54  1  0  0  0  0
 41 74  1  0  0  0  0
 41 81  2  0  0  0  0
 42 63  1  0  0  0  0
 42 71  1  0  0  0  0
 42 82  2  0  0  0  0
 43 64  1  0  0  0  0
 43 75  1  0  0  0  0
 43 83  2  0  0  0  0
 44 47  1  0  0  0  0
 45 54  1  0  0  0  0
 46 71  1  0  0  0  0
 47 49  1  0  0  0  0
 48 50  1  0  0  0  0
 48 51  1  0  0  0  0
 49 53  1  0  0  0  0
 50 55  1  0  0  0  0
 51 70  1  0  0  0  0
 52 55  1  0  0  0  0
 52 70  1  0  0  0  0
 53 74  1  0  0  0  0
 54 71  1  0  0  0  0
 55 68  1  0  0  0  0
 57 64  1  0  0  0  0
 58 65  1  0  0  0  0
 59 65  1  0  0  0  0
 60 65  1  0  0  0  0
 61 76  1  0  0  0  0
 62 85  1  0  0  0  0
 63 65  1  0  0  0  0
 63 75  1  0  0  0  0
 64 76  1  0  0  0  0
 66 68  1  0  0  0  0
M  CHG  1  76   1
M  ISO  4  38 100  40 100  62 101  85 101
M  END
> <Batch ID>
0084

> <Smiles>
CNC(C)C(=O)NC(C(=O)N1Cc2cc([101O:1][101CH2:1]C3=C(C)C(=O)N(c4ccc([100C:0](=N)[100C:0](=O)N5CCCC(n6nc(-c7ccc(Oc8ccc(F)cc8F)cc7)c(C(N)=O)c6N)C5)cc4)C3=O)ccc2CC1C(=O)NC1CCCc2ccccc21)C(C)(C)C

> <Shape>
0.366

> <Color>
0.196

> <Negative vol penalty>
0.000

$$$$

  -OEChem-04052300123D

 85 94  0     1  0  0  0  0  0999 V2000
  -26.1064  -35.1098   21.7687 C   0  0  0  0  0  0  0  0  0  0  0  0
  -26.5787  -33.8028   21.7041 C   0  0  0  0  0  0  0  0  0  0  0  0
  -22.8926  -10.1570   19.9342 C   0  0  0  0  0  0  0  0  0  0  0  0
  -23.9353   -9.7195   22.0692 C   0  0  0  0  0  0  0  0  0  0  0  0
  -29.5489  -16.8495   20.2262 C   0  0  0  0  0  0  0  0  0  0  0  0
  -24.8468  -35.3687   22.3077 C   0  0  0  0  0  0  0  0  0  0  0  0
  -25.7922  -32.7541   22.1795 C   0  0  0  0  0  0  0  0  0  0  0  0
  -25.4702  -27.0735   19.9139 C   0  0  0  0  0  0  0  0  0  0  0  0
  -28.8740  -18.0592   20.0627 C   0  0  0  0  0  0  0  0  0  0  0  0
  -22.1029   -9.0173   20.0862 C   0  0  0  0  0  0  0  0  0  0  0  0
  -23.1456   -8.5798   22.2213 C   0  0  0  0  0  0  0  0  0  0  0  0
  -26.0769  -25.8768   20.2928 C   0  0  0  0  0  0  0  0  0  0  0  0
  -21.1486   -5.7543   23.3379 C   0  0  0  0  0  0  0  0  0  0  0  0
  -20.5457   -5.5429   24.5778 C   0  0  0  0  0  0  0  0  0  0  0  0
  -29.4437  -17.1150   22.6253 C   0  0  0  0  0  0  0  0  0  0  0  0
  -24.1102  -25.2878   21.5595 C   0  0  0  0  0  0  0  0  0  0  0  0
  -19.3655   -7.6399   24.3614 C   0  0  0  0  0  0  0  0  0  0  0  0
  -23.8088  -10.5081   20.9256 C   0  0  0  0  0  0  0  0  0  0  0  0
  -29.8337  -16.3773   21.5075 C   0  0  0  0  0  0  0  0  0  0  0  0
  -24.3189  -12.9939   21.1869 C   0  0  0  0  0  0  0  0  0  0  0  0
  -24.0405  -34.3216   22.7811 C   0  0  0  0  0  0  0  0  0  0  0  0
  -24.1811  -27.3918   20.3646 C   0  0  0  0  0  0  0  0  0  0  0  0
  -24.5212  -32.9994   22.7265 C   0  0  0  0  0  0  0  0  0  0  0  0
  -23.4884  -26.4880   21.1828 C   0  0  0  0  0  0  0  0  0  0  0  0
  -28.4841  -18.7969   21.1805 C   0  0  0  0  0  0  0  0  0  0  0  0
  -22.2294   -8.2287   21.2298 C   0  0  0  0  0  0  0  0  0  0  0  0
  -25.3981  -24.9850   21.1181 C   0  0  0  0  0  0  0  0  0  0  0  0
  -20.8601   -6.9086   22.6098 C   0  0  0  0  0  0  0  0  0  0  0  0
  -19.6541   -6.4856   25.0895 C   0  0  0  0  0  0  0  0  0  0  0  0
  -28.7689  -18.3248   22.4618 C   0  0  0  0  0  0  0  0  0  0  0  0
  -19.9685   -7.8513   23.1215 C   0  0  0  0  0  0  0  0  0  0  0  0
  -24.6252  -11.6850   20.7689 C   0  0  0  0  0  0  0  0  0  0  0  0
  -25.4088  -13.7391   20.8083 C   0  0  0  0  0  0  0  0  0  0  0  0
  -26.9395  -21.7680   20.7565 C   0  0  0  0  0  0  0  0  0  0  0  0
  -27.4212  -20.6726   19.9140 C   0  0  0  0  0  0  0  0  0  0  0  0
  -26.3551  -22.9399   20.5077 C   0  0  0  0  0  0  0  0  0  1  0  0
  -30.5374  -15.1161   21.6779 C   0  0  0  0  0  0  0  0  0  0  0  0
  -23.1535  -13.4916   21.8576 C   0  0  0  0  0  0  0  0  0  0  0  0
  -30.9657  -14.3086   20.5126 C   0  0  0  0  0  0  0  0  0  0  0  0
  -22.9365  -29.7127   22.1446 C   0  0  0  0  0  0  0  0  0  0  0  0
  -20.1304  -28.3142   21.3126 C   0  0  0  0  0  0  0  0  0  0  0  0
  -18.4867  -25.5085   20.2765 C   0  0  0  0  0  0  0  0  0  0  0  0
  -22.7056  -34.6556   23.3984 C   0  0  0  0  0  0  0  0  0  0  0  0
  -23.5301  -28.6746   19.9251 C   0  0  0  0  0  0  0  0  0  0  0  0
  -22.0946  -26.7734   21.6772 C   0  0  0  0  0  0  0  0  0  0  0  0
  -27.3915  -20.9942   21.9737 C   0  0  0  0  0  0  0  0  0  0  0  0
  -21.7798  -33.4497   23.5370 C   0  0  0  0  0  0  0  0  0  0  0  0
  -29.3209  -12.5928   17.8280 C   0  0  0  0  0  0  0  0  0  0  0  0
  -22.5348  -32.2619   24.1251 C   0  0  0  0  0  0  0  0  0  0  0  0
  -27.9407  -12.2773   18.4037 C   0  0  0  0  0  0  0  0  0  0  0  0
  -30.4014  -12.5314   18.9027 C   0  0  0  0  0  0  0  0  0  0  0  0
  -28.7483  -13.0993   20.6615 C   0  0  0  0  0  0  0  0  0  0  0  0
  -23.6874  -31.8325   23.2092 C   0  0  1  0  0  0  0  0  0  0  0  0
  -22.4151  -29.1302   20.8614 C   0  0  1  0  0  0  0  0  0  0  0  0
  -27.6268  -13.1787   19.6110 C   0  0  2  0  0  0  0  0  0  0  0  0
  -16.1904  -24.6633   19.7195 C   0  0  0  0  0  0  0  0  0  0  0  0
  -19.4652  -28.1684   24.2869 C   0  0  0  0  0  0  0  0  0  0  0  0
  -17.6742  -26.5087   23.7338 C   0  0  0  0  0  0  0  0  0  0  0  0
  -17.5493  -28.8267   22.8205 C   0  0  0  0  0  0  0  0  0  0  0  0
  -19.2645  -24.8891   17.4890 C   0  0  0  0  0  0  0  0  0  0  0  0
  -19.2675  -27.2202   21.8936 C   0  0  1  0  0  0  0  0  0  0  0  0
  -17.4655  -25.2883   19.1751 C   0  0  2  0  0  0  0  0  0  0  0  0
  -18.5160  -27.6762   23.1761 C   0  0  0  0  0  0  0  0  0  0  0  0
  -25.8162  -11.6002   20.1704 N   0  0  0  0  0  0  0  0  0  0  0  0
  -30.8385  -14.6154   22.8456 N   0  0  0  0  0  0  0  0  0  0  0  0
  -26.2680  -12.8653   20.2096 N   0  0  0  0  0  0  0  0  0  0  0  0
  -27.8192  -19.9898   21.0160 N   0  0  0  0  0  0  0  0  0  0  0  0
  -30.0551  -13.3695   20.0489 N   0  0  0  0  0  0  0  0  0  0  0  0
  -21.5033  -28.0436   21.2252 N   0  0  0  0  0  0  0  0  0  0  0  0
  -25.7063  -15.0500   20.9325 N   0  0  0  0  0  0  0  0  0  0  0  0
  -22.1278  -12.5899   22.1728 N   0  0  0  0  0  0  0  0  0  0  0  0
  -23.1838  -31.0709   22.0863 N   0  0  0  0  0  0  0  0  0  0  0  0
  -18.3922  -26.7744   20.8149 N   0  0  0  0  0  0  0  0  0  0  0  0
  -18.0206  -24.3861   18.1268 N   0  3  0  0  0  0  0  0  0  0  0  0
  -27.4637  -20.4609   18.7200 O   0  0  0  0  0  0  0  0  0  0  0  0
  -23.0183  -14.7031   22.1534 O   0  0  0  0  0  0  0  0  0  0  0  0
  -32.0839  -14.5572   20.0811 O   0  0  0  0  0  0  0  0  0  0  0  0
  -23.1008  -28.9840   23.1161 O   0  0  0  0  0  0  0  0  0  0  0  0
  -19.6046  -29.3671   20.9431 O   0  0  0  0  0  0  0  0  0  0  0  0
  -19.2856  -24.6429   20.6269 O   0  0  0  0  0  0  0  0  0  0  0  0
  -21.4589   -7.1166   21.3786 O   0  0  0  0  0  0  0  0  0  0  0  0
  -25.9882  -23.8165   21.4899 O   0  0  0  0  0  0  0  0  0  1  0  0
  -19.0740   -6.2817   26.2795 F   0  0  0  0  0  0  0  0  0  0  0  0
  -28.3995  -19.0255   23.5436 F   0  0  0  0  0  0  0  0  0  0  0  0
  -19.6865   -8.9616   22.4261 F   0  0  0  0  0  0  0  0  0  0  0  0
  1  2  1  0  0  0  0
  1  6  2  0  0  0  0
  2  7  2  0  0  0  0
  3 10  2  0  0  0  0
  3 18  1  0  0  0  0
  4 11  1  0  0  0  0
  4 18  2  0  0  0  0
  5  9  2  0  0  0  0
  5 19  1  0  0  0  0
  6 21  1  0  0  0  0
  7 23  1  0  0  0  0
  8 12  2  0  0  0  0
  8 22  1  0  0  0  0
  9 25  1  0  0  0  0
 10 26  1  0  0  0  0
 11 26  2  0  0  0  0
 12 27  1  0  0  0  0
 13 14  2  0  0  0  0
 13 28  1  0  0  0  0
 14 29  1  0  0  0  0
 15 19  2  0  0  0  0
 15 30  1  0  0  0  0
 16 24  1  0  0  0  0
 16 27  2  0  0  0  0
 17 29  2  0  0  0  0
 17 31  1  0  0  0  0
 18 32  1  0  0  0  0
 19 37  1  0  0  0  0
 20 32  1  0  0  0  0
 20 33  2  0  0  0  0
 20 38  1  0  0  0  0
 21 23  2  0  0  0  0
 21 43  1  0  0  0  0
 22 24  2  0  0  0  0
 22 44  1  0  0  0  0
 23 53  1  0  0  0  0
 24 45  1  0  0  0  0
 25 30  2  0  0  0  0
 25 67  1  0  0  0  0
 26 81  1  0  0  0  0
 27 82  1  0  0  0  0
 28 31  2  0  0  0  0
 28 81  1  0  0  0  0
 29 83  1  0  0  0  0
 30 84  1  0  0  0  0
 31 85  1  0  0  0  0
 32 64  2  0  0  0  0
 33 66  1  0  0  0  0
 33 70  1  0  0  0  0
 34 35  1  0  0  0  0
 34 36  2  0  0  0  0
 34 46  1  0  0  0  0
 35 67  1  0  0  0  0
 35 75  2  0  0  0  0
 36 82  1  0  0  0  0
 37 39  1  0  0  0  0
 37 65  2  0  0  0  0
 38 71  1  0  0  0  0
 38 76  2  0  0  0  0
 39 68  1  0  0  0  0
 39 77  2  0  0  0  0
 40 54  1  0  0  0  0
 40 72  1  0  0  0  0
 40 78  2  0  0  0  0
 41 61  1  0  0  0  0
 41 69  1  0  0  0  0
 41 79  2  0  0  0  0
 42 62  1  0  0  0  0
 42 73  1  0  0  0  0
 42 80  2  0  0  0  0
 43 47  1  0  0  0  0
 44 54  1  0  0  0  0
 45 69  1  0  0  0  0
 46 67  1  0  0  0  0
 47 49  1  0  0  0  0
 48 50  1  0  0  0  0
 48 51  1  0  0  0  0
 49 53  1  0  0  0  0
 50 55  1  0  0  0  0
 51 68  1  0  0  0  0
 52 55  1  0  0  0  0
 52 68  1  0  0  0  0
 53 72  1  0  0  0  0
 54 69  1  0  0  0  0
 55 66  1  0  0  0  0
 56 62  1  0  0  0  0
 57 63  1  0  0  0  0
 58 63  1  0  0  0  0
 59 63  1  0  0  0  0
 60 74  1  0  0  0  0
 61 63  1  0  0  0  0
 61 73  1  0  0  0  0
 62 74  1  0  0  0  0
 64 66  1  0  0  0  0
M  CHG  1  74   1
M  ISO  4  36 101  37 100  39 100  82 101
M  END
> <Batch ID>
0084

> <Smiles>
CNC(C)C(=O)NC(C(=O)N1Cc2cc([101O:1][101CH:1]=C3CN(c4ccc([100C:0](=N)[100C:0](=O)N5CCCC(n6nc(-c7ccc(Oc8ccc(F)cc8F)cc7)c(C(N)=O)c6N)C5)cc4F)C3=O)ccc2CC1C(=O)NC1CCCc2ccccc21)C(C)(C)C

> <Shape>
0.341

> <Color>
0.180

> <Negative vol penalty>
0.000

$$$$

  -OEChem-04052300123D

 84 93  0     1  0  0  0  0  0999 V2000
  -28.6754  -36.5488   25.7499 C   0  0  0  0  0  0  0  0  0  0  0  0
  -29.0114  -35.3051   25.2248 C   0  0  0  0  0  0  0  0  0  0  0  0
  -24.4399   -8.7818   21.4151 C   0  0  0  0  0  0  0  0  0  0  0  0
  -24.1457  -10.4883   23.0998 C   0  0  0  0  0  0  0  0  0  0  0  0
  -27.3542  -36.8217   26.1020 C   0  0  0  0  0  0  0  0  0  0  0  0
  -28.0265  -34.3331   25.0526 C   0  0  0  0  0  0  0  0  0  0  0  0
  -27.7031  -30.1739   20.5691 C   0  0  0  0  0  0  0  0  0  0  0  0
  -26.5071  -20.3276   19.0338 C   0  0  0  0  0  0  0  0  0  0  0  0
  -26.6458  -18.9415   18.9616 C   0  0  0  0  0  0  0  0  0  0  0  0
  -24.0505   -7.8074   22.3340 C   0  0  0  0  0  0  0  0  0  0  0  0
  -23.7562   -9.5139   24.0188 C   0  0  0  0  0  0  0  0  0  0  0  0
  -28.0677  -28.8295   20.5087 C   0  0  0  0  0  0  0  0  0  0  0  0
  -21.1648   -6.6405   23.6547 C   0  0  0  0  0  0  0  0  0  0  0  0
  -20.2567   -5.6720   23.2269 C   0  0  0  0  0  0  0  0  0  0  0  0
  -25.7950  -28.1968   21.0121 C   0  0  0  0  0  0  0  0  0  0  0  0
  -29.0226  -19.1598   19.3361 C   0  0  0  0  0  0  0  0  0  0  0  0
  -21.8752   -3.9432   23.7052 C   0  0  0  0  0  0  0  0  0  0  0  0
  -24.4876  -10.1223   21.7980 C   0  0  0  0  0  0  0  0  0  0  0  0
  -24.0593  -11.8519   19.9724 C   0  0  0  0  0  0  0  0  0  0  0  0
  -26.3509  -35.8560   25.9250 C   0  0  0  0  0  0  0  0  0  0  0  0
  -26.3819  -30.5405   20.8627 C   0  0  0  0  0  0  0  0  0  0  0  0
  -26.6909  -34.5929   25.4039 C   0  0  0  0  0  0  0  0  0  0  0  0
  -25.4156  -29.5464   21.0732 C   0  0  0  0  0  0  0  0  0  0  0  0
  -27.6262  -21.1298   19.2570 C   0  0  0  0  0  0  0  0  0  0  0  0
  -27.9035  -18.3576   19.1128 C   0  0  0  0  0  0  0  0  0  0  0  0
  -23.7086   -8.1735   23.6359 C   0  0  0  0  0  0  0  0  0  0  0  0
  -27.1142  -27.8408   20.7331 C   0  0  0  0  0  0  0  0  0  0  0  0
  -22.4282   -6.2603   24.1077 C   0  0  0  0  0  0  0  0  0  0  0  0
  -20.6119   -4.3234   23.2521 C   0  0  0  0  0  0  0  0  0  0  0  0
  -28.8839  -20.5459   19.4082 C   0  0  0  0  0  0  0  0  0  0  0  0
  -22.7833   -4.9117   24.1329 C   0  0  0  0  0  0  0  0  0  0  0  0
  -24.8903  -11.1292   20.8493 C   0  0  0  0  0  0  0  0  0  0  0  0
  -24.9177  -12.6771   19.2878 C   0  0  0  0  0  0  0  0  0  0  0  0
  -27.1118  -24.4233   19.6093 C   0  0  0  0  0  0  0  0  0  0  0  0
  -26.6479  -23.3518   18.7681 C   0  0  0  0  0  0  0  0  0  0  0  0
  -25.7186  -23.2747   17.8103 C   0  0  0  0  0  0  0  0  0  0  0  0
  -26.8430  -25.7334   19.7553 C   0  0  0  0  0  0  0  0  0  1  0  0
  -22.6385  -11.7836   19.7929 C   0  0  0  0  0  0  0  0  0  0  0  0
  -24.9743  -32.1800   23.1939 C   0  0  0  0  0  0  0  0  0  0  0  0
  -22.3405  -31.8051   21.3379 C   0  0  0  0  0  0  0  0  0  0  0  0
  -20.7315  -30.0136   18.9195 C   0  0  0  0  0  0  0  0  0  0  0  0
  -29.2195  -16.2102   19.1677 C   0  0  0  0  0  0  0  0  0  0  0  0
  -24.9451  -36.1806   26.3643 C   0  0  0  0  0  0  0  0  0  0  0  0
  -25.9988  -31.9946   20.8979 C   0  0  0  0  0  0  0  0  0  0  0  0
  -23.9793  -29.8871   21.3720 C   0  0  0  0  0  0  0  0  0  0  0  0
  -28.0265  -23.4495   20.2644 C   0  0  0  0  0  0  0  0  0  0  0  0
  -23.8952  -35.2265   25.8009 C   0  0  0  0  0  0  0  0  0  0  0  0
  -29.9752  -12.7318   19.0866 C   0  0  0  0  0  0  0  0  0  0  0  0
  -24.3505  -33.7790   25.9573 C   0  0  0  0  0  0  0  0  0  0  0  0
  -28.6513  -12.0642   19.4658 C   0  0  0  0  0  0  0  0  0  0  0  0
  -30.1961  -14.0319   19.8577 C   0  0  0  0  0  0  0  0  0  0  0  0
  -27.7688  -14.3298   20.1553 C   0  0  0  0  0  0  0  0  0  0  0  0
  -25.6464  -33.5212   25.1789 C   0  0  1  0  0  0  0  0  0  0  0  0
  -24.7367  -32.2605   21.7125 C   0  0  1  0  0  0  0  0  0  0  0  0
  -27.4715  -13.0500   19.3568 C   0  0  2  0  0  0  0  0  0  0  0  0
  -18.5758  -29.9274   17.6376 C   0  0  0  0  0  0  0  0  0  0  0  0
  -20.9344  -30.6459   23.7852 C   0  0  0  0  0  0  0  0  0  0  0  0
  -19.1798  -29.7255   22.2546 C   0  0  0  0  0  0  0  0  0  0  0  0
  -19.5293  -32.1906   22.4089 C   0  0  0  0  0  0  0  0  0  0  0  0
  -22.1199  -30.3896   16.3330 C   0  0  0  0  0  0  0  0  0  0  0  0
  -21.2508  -30.7664   21.2256 C   0  0  1  0  0  0  0  0  0  0  0  0
  -20.0045  -30.4482   17.6597 C   0  0  2  0  0  0  0  0  0  0  0  0
  -20.2510  -30.8254   22.4149 C   0  0  0  0  0  0  0  0  0  0  0  0
  -26.1778  -11.4656   20.7342 N   0  0  0  0  0  0  0  0  0  0  0  0
  -26.1623  -12.4086   19.7768 N   0  0  0  0  0  0  0  0  0  0  0  0
  -27.4856  -22.5061   19.3267 N   0  0  0  0  0  0  0  0  0  0  0  0
  -23.6555  -31.3230   21.4018 N   0  0  0  0  0  0  0  0  0  0  0  0
  -29.0401  -14.9179   19.7049 N   0  0  0  0  0  0  0  0  0  0  0  0
  -24.7218  -13.5987   18.3210 N   0  0  0  0  0  0  0  0  0  0  0  0
  -21.9084  -10.8812   20.5785 N   0  0  0  0  0  0  0  0  0  0  0  0
  -28.0441  -16.9496   19.0395 N   0  0  0  0  0  0  0  0  0  0  0  0
  -25.3669  -33.3747   23.7665 N   0  0  0  0  0  0  0  0  0  0  0  0
  -20.6351  -30.9604   19.9172 N   0  0  0  0  0  0  0  0  0  0  0  0
  -20.7103  -29.9358   16.4514 N   0  3  0  0  0  0  0  0  0  0  0  0
  -22.0362  -12.4897   18.9491 O   0  0  0  0  0  0  0  0  0  0  0  0
  -24.8118  -31.1133   23.7748 O   0  0  0  0  0  0  0  0  0  0  0  0
  -22.0365  -33.0004   21.3606 O   0  0  0  0  0  0  0  0  0  0  0  0
  -21.3224  -28.9398   19.0106 O   0  0  0  0  0  0  0  0  0  0  0  0
  -30.3299  -16.6200   18.8200 O   0  0  0  0  0  0  0  0  0  0  0  0
  -23.3283   -7.2230   24.5328 O   0  0  0  0  0  0  0  0  0  0  0  0
  -27.4676  -26.5279   20.6753 O   0  0  0  0  0  0  0  0  0  1  0  0
  -19.7392   -3.3933   22.8428 F   0  0  0  0  0  0  0  0  0  0  0  0
  -29.9661  -21.3079   19.6217 F   0  0  0  0  0  0  0  0  0  0  0  0
  -23.9951   -4.5403   24.5681 F   0  0  0  0  0  0  0  0  0  0  0  0
  1  2  1  0  0  0  0
  1  5  2  0  0  0  0
  2  6  2  0  0  0  0
  3 10  2  0  0  0  0
  3 18  1  0  0  0  0
  4 11  1  0  0  0  0
  4 18  2  0  0  0  0
  5 20  1  0  0  0  0
  6 22  1  0  0  0  0
  7 12  2  0  0  0  0
  7 21  1  0  0  0  0
  8  9  2  0  0  0  0
  8 24  1  0  0  0  0
  9 25  1  0  0  0  0
 10 26  1  0  0  0  0
 11 26  2  0  0  0  0
 12 27  1  0  0  0  0
 13 14  2  0  0  0  0
 13 28  1  0  0  0  0
 14 29  1  0  0  0  0
 15 23  1  0  0  0  0
 15 27  2  0  0  0  0
 16 25  2  0  0  0  0
 16 30  1  0  0  0  0
 17 29  2  0  0  0  0
 17 31  1  0  0  0  0
 18 32  1  0  0  0  0
 19 32  1  0  0  0  0
 19 33  2  0  0  0  0
 19 38  1  0  0  0  0
 20 22  2  0  0  0  0
 20 43  1  0  0  0  0
 21 23  2  0  0  0  0
 21 44  1  0  0  0  0
 22 53  1  0  0  0  0
 23 45  1  0  0  0  0
 24 30  2  0  0  0  0
 24 66  1  0  0  0  0
 25 71  1  0  0  0  0
 26 80  1  0  0  0  0
 27 81  1  0  0  0  0
 28 31  2  0  0  0  0
 28 80  1  0  0  0  0
 29 82  1  0  0  0  0
 30 83  1  0  0  0  0
 31 84  1  0  0  0  0
 32 64  2  0  0  0  0
 33 65  1  0  0  0  0
 33 69  1  0  0  0  0
 34 35  1  0  0  0  0
 34 37  2  0  0  0  0
 34 46  1  0  0  0  0
 35 36  2  0  0  0  0
 35 66  1  0  0  0  0
 37 81  1  0  0  0  0
 38 70  1  0  0  0  0
 38 75  2  0  0  0  0
 39 54  1  0  0  0  0
 39 72  1  0  0  0  0
 39 76  2  0  0  0  0
 40 61  1  0  0  0  0
 40 67  1  0  0  0  0
 40 77  2  0  0  0  0
 41 62  1  0  0  0  0
 41 73  1  0  0  0  0
 41 78  2  0  0  0  0
 42 68  1  0  0  0  0
 42 71  1  0  0  0  0
 42 79  2  0  0  0  0
 43 47  1  0  0  0  0
 44 54  1  0  0  0  0
 45 67  1  0  0  0  0
 46 66  1  0  0  0  0
 47 49  1  0  0  0  0
 48 50  1  0  0  0  0
 48 51  1  0  0  0  0
 49 53  1  0  0  0  0
 50 55  1  0  0  0  0
 51 68  1  0  0  0  0
 52 55  1  0  0  0  0
 52 68  1  0  0  0  0
 53 72  1  0  0  0  0
 54 67  1  0  0  0  0
 55 65  1  0  0  0  0
 56 62  1  0  0  0  0
 57 63  1  0  0  0  0
 58 63  1  0  0  0  0
 59 63  1  0  0  0  0
 60 74  1  0  0  0  0
 61 63  1  0  0  0  0
 61 73  1  0  0  0  0
 62 74  1  0  0  0  0
 64 65  1  0  0  0  0
M  CHG  1  74   1
M  ISO  4  37 101  42 100  71 100  81 101
M  END
> <Batch ID>
0084

> <Smiles>
C=C1C(=[101CH:1][101O:1]c2ccc3c(c2)CN(C(=O)C(NC(=O)C(C)NC)C(C)(C)C)C(C(=O)NC2CCCc4ccccc42)C3)CN1c1ccc([100NH:0][100C:0](=O)N2CCCC(n3nc(-c4ccc(Oc5ccc(F)cc5F)cc4)c(C(N)=O)c3N)C2)cc1F

> <Shape>
0.290

> <Color>
0.090

> <Negative vol penalty>
0.000

$$$$

  -OEChem-04052300123D

 74 81  0     1  0  0  0  0  0999 V2000
  -25.6956  -33.9094   27.8421 C   0  0  0  0  0  0  0  0  0  0  0  0
  -26.4089  -33.0630   26.9993 C   0  0  0  0  0  0  0  0  0  0  0  0
  -27.4767  -16.3025   18.6167 C   0  0  0  0  0  0  0  0  0  0  0  0
  -26.7583  -16.0944   20.9140 C   0  0  0  0  0  0  0  0  0  0  0  0
  -24.3171  -33.7534   27.9809 C   0  0  0  0  0  0  0  0  0  0  0  0
  -25.7441  -32.0594   26.2956 C   0  0  0  0  0  0  0  0  0  0  0  0
  -27.0704  -30.0020   20.6818 C   0  0  0  0  0  0  0  0  0  0  0  0
  -27.5501  -14.9134   18.5138 C   0  0  0  0  0  0  0  0  0  0  0  0
  -26.8317  -14.7053   20.8112 C   0  0  0  0  0  0  0  0  0  0  0  0
  -27.7822  -28.8899   20.2343 C   0  0  0  0  0  0  0  0  0  0  0  0
  -26.4826  -11.0939   21.0443 C   0  0  0  0  0  0  0  0  0  0  0  0
  -25.4256  -10.3476   21.5651 C   0  0  0  0  0  0  0  0  0  0  0  0
  -25.7146  -27.6704   19.9951 C   0  0  0  0  0  0  0  0  0  0  0  0
  -23.9000  -11.4523   20.0521 C   0  0  0  0  0  0  0  0  0  0  0  0
  -27.0808  -16.8930   19.8168 C   0  0  0  0  0  0  0  0  0  0  0  0
  -25.8911  -19.1434   19.6495 C   0  0  0  0  0  0  0  0  0  0  0  0
  -23.6336  -32.7535   27.2711 C   0  0  0  0  0  0  0  0  0  0  0  0
  -25.6740  -29.9530   20.7999 C   0  0  0  0  0  0  0  0  0  0  0  0
  -24.3553  -31.8890   26.4260 C   0  0  0  0  0  0  0  0  0  0  0  0
  -24.9872  -28.7841   20.4420 C   0  0  0  0  0  0  0  0  0  0  0  0
  -27.2276  -14.1148   19.6110 C   0  0  0  0  0  0  0  0  0  0  0  0
  -27.1046  -27.7229   19.8936 C   0  0  0  0  0  0  0  0  0  0  0  0
  -26.2483  -12.0196   20.0275 C   0  0  0  0  0  0  0  0  0  0  0  0
  -24.1343  -10.5267   21.0690 C   0  0  0  0  0  0  0  0  0  0  0  0
  -24.9571  -12.1987   19.5313 C   0  0  0  0  0  0  0  0  0  0  0  0
  -27.0053  -18.3279   19.9239 C   0  0  0  0  0  0  0  0  0  0  0  0
  -26.3293  -20.4202   19.9031 C   0  0  0  0  0  0  0  0  0  0  0  0
  -28.5523  -26.7656   18.3256 C   0  0  0  0  0  0  0  0  0  1  0  0
  -24.5774  -18.7793   19.2053 C   0  0  0  0  0  0  0  0  0  0  0  0
  -29.2752  -25.7712   17.7999 C   0  0  0  0  0  0  0  0  0  0  0  0
  -23.6149  -30.2374   23.2047 C   0  0  0  0  0  0  0  0  0  0  0  0
  -21.4153  -30.0967   20.8247 C   0  0  0  0  0  0  0  0  0  0  0  0
  -20.6383  -29.1065   17.6526 C   0  0  0  0  0  0  0  0  0  0  0  0
  -30.2799  -24.3361   19.3374 C   0  0  0  0  0  0  0  0  0  0  0  0
  -22.1500  -32.5932   27.4898 C   0  0  0  0  0  0  0  0  0  0  0  0
  -24.9185  -31.1701   21.2588 C   0  0  0  0  0  0  0  0  0  0  0  0
  -23.4869  -28.6869   20.5316 C   0  0  0  0  0  0  0  0  0  0  0  0
  -21.4650  -31.7449   26.4214 C   0  0  0  0  0  0  0  0  0  0  0  0
  -30.5368  -22.0876   22.1441 C   0  0  0  0  0  0  0  0  0  0  0  0
  -22.2650  -30.4738   26.1550 C   0  0  0  0  0  0  0  0  0  0  0  0
  -29.5782  -20.9566   21.7731 C   0  0  0  0  0  0  0  0  0  0  0  0
  -31.2257  -22.6633   20.9109 C   0  0  0  0  0  0  0  0  0  0  0  0
  -29.3113  -22.0001   19.4790 C   0  0  0  0  0  0  0  0  0  0  0  0
  -23.6662  -30.8043   25.6269 C   0  0  1  0  0  0  0  0  0  0  0  0
  -23.5431  -30.8394   21.8299 C   0  0  1  0  0  0  0  0  0  0  0  0
  -28.5773  -21.4124   20.6966 C   0  0  1  0  0  0  0  0  0  0  0  0
  -30.0982  -25.9240   16.5610 C   0  0  0  0  0  0  0  0  0  0  0  0
  -18.7513  -29.0974   15.9983 C   0  0  0  0  0  0  0  0  0  0  0  0
  -20.0842  -27.8200   22.3594 C   0  0  0  0  0  0  0  0  0  0  0  0
  -18.8315  -27.2380   20.2713 C   0  0  0  0  0  0  0  0  0  0  0  0
  -18.4953  -29.4640   21.3459 C   0  0  0  0  0  0  0  0  0  0  0  0
  -22.1763  -30.7298   15.7139 C   0  0  0  0  0  0  0  0  0  0  0  0
  -20.6607  -28.9887   20.1305 C   0  0  1  0  0  0  0  0  0  0  0  0
  -19.9780  -29.8427   16.5008 C   0  0  2  0  0  0  0  0  0  0  0  0
  -19.5464  -28.3786   21.0268 C   0  0  0  0  0  0  0  0  0  0  0  0
  -28.0713  -19.0279   20.3211 N   0  0  0  0  0  0  0  0  0  0  0  0
  -27.6288  -20.2967   20.2982 N   0  0  0  0  0  0  0  0  0  0  0  0
  -22.7936  -29.9014   20.9917 N   0  0  0  0  0  0  0  0  0  0  0  0
  -30.2494  -23.0511   19.8932 N   0  0  0  0  0  0  0  0  0  0  0  0
  -25.7259  -21.6252   19.8243 N   0  0  0  0  0  0  0  0  0  0  0  0
  -24.2957  -17.4228   18.9936 N   0  0  0  0  0  0  0  0  0  0  0  0
  -23.6062  -31.1670   24.2271 N   0  0  0  0  0  0  0  0  0  0  0  0
  -20.1765  -29.5498   18.8738 N   0  0  0  0  0  0  0  0  0  0  0  0
  -20.9333  -29.9938   15.3670 N   0  3  0  0  0  0  0  0  0  0  0  0
  -23.6848  -19.6331   18.9864 O   0  0  0  0  0  0  0  0  0  0  0  0
  -23.6723  -29.0196   23.3288 O   0  0  0  0  0  0  0  0  0  0  0  0
  -20.8055  -31.1017   21.1986 O   0  0  0  0  0  0  0  0  0  0  0  0
  -21.4770  -28.2238   17.4855 O   0  0  0  0  0  0  0  0  0  0  0  0
  -31.0991  -25.1984   19.6533 O   0  0  0  0  0  0  0  0  0  0  0  0
  -27.2989  -12.7592   19.5109 O   0  0  0  0  0  0  0  0  0  0  0  0
  -27.7969  -26.6357   19.4572 O   0  0  0  0  0  0  0  0  0  1  0  0
  -29.2946  -24.5219   18.3932 O   0  0  0  0  0  0  0  0  0  0  0  0
  -23.1196   -9.8088   21.5681 F   0  0  0  0  0  0  0  0  0  0  0  0
  -24.7261  -13.0856   18.5536 F   0  0  0  0  0  0  0  0  0  0  0  0
  1  2  1  0  0  0  0
  1  5  2  0  0  0  0
  2  6  2  0  0  0  0
  3  8  2  0  0  0  0
  3 15  1  0  0  0  0
  4  9  1  0  0  0  0
  4 15  2  0  0  0  0
  5 17  1  0  0  0  0
  6 19  1  0  0  0  0
  7 10  2  0  0  0  0
  7 18  1  0  0  0  0
  8 21  1  0  0  0  0
  9 21  2  0  0  0  0
 10 22  1  0  0  0  0
 11 12  2  0  0  0  0
 11 23  1  0  0  0  0
 12 24  1  0  0  0  0
 13 20  1  0  0  0  0
 13 22  2  0  0  0  0
 14 24  2  0  0  0  0
 14 25  1  0  0  0  0
 15 26  1  0  0  0  0
 16 26  1  0  0  0  0
 16 27  2  0  0  0  0
 16 29  1  0  0  0  0
 17 19  2  0  0  0  0
 17 35  1  0  0  0  0
 18 20  2  0  0  0  0
 18 36  1  0  0  0  0
 19 44  1  0  0  0  0
 20 37  1  0  0  0  0
 21 70  1  0  0  0  0
 22 71  1  0  0  0  0
 23 25  2  0  0  0  0
 23 70  1  0  0  0  0
 24 73  1  0  0  0  0
 25 74  1  0  0  0  0
 26 56  2  0  0  0  0
 27 57  1  0  0  0  0
 27 60  1  0  0  0  0
 28 30  2  0  0  0  0
 28 71  1  0  0  0  0
 29 61  1  0  0  0  0
 29 65  2  0  0  0  0
 30 47  1  0  0  0  0
 30 72  1  0  0  0  0
 31 45  1  0  0  0  0
 31 62  1  0  0  0  0
 31 66  2  0  0  0  0
 32 53  1  0  0  0  0
 32 58  1  0  0  0  0
 32 67  2  0  0  0  0
 33 54  1  0  0  0  0
 33 63  1  0  0  0  0
 33 68  2  0  0  0  0
 34 59  1  0  0  0  0
 34 69  2  0  0  0  0
 34 72  1  0  0  0  0
 35 38  1  0  0  0  0
 36 45  1  0  0  0  0
 37 58  1  0  0  0  0
 38 40  1  0  0  0  0
 39 41  1  0  0  0  0
 39 42  1  0  0  0  0
 40 44  1  0  0  0  0
 41 46  1  0  0  0  0
 42 59  1  0  0  0  0
 43 46  1  0  0  0  0
 43 59  1  0  0  0  0
 44 62  1  0  0  0  0
 45 58  1  0  0  0  0
 46 57  1  0  0  0  0
 48 54  1  0  0  0  0
 49 55  1  0  0  0  0
 50 55  1  0  0  0  0
 51 55  1  0  0  0  0
 52 64  1  0  0  0  0
 53 55  1  0  0  0  0
 53 63  1  0  0  0  0
 54 64  1  0  0  0  0
 56 57  1  0  0  0  0
M  CHG  1  64   1
M  ISO  4  28 101  34 100  71 101  72 100
M  END
> <Batch ID>
0084

> <Smiles>
CNC(C)C(=O)NC(C(=O)N1Cc2cc([101O:1][101CH:1]=C(C)[100O:0][100C:0](=O)N3CCCC(n4nc(-c5ccc(Oc6ccc(F)cc6F)cc5)c(C(N)=O)c4N)C3)ccc2CC1C(=O)NC1CCCc2ccccc21)C(C)(C)C

> <Shape>
0.249

> <Color>
0.079

> <Negative vol penalty>
0.000

$$$$

  -OEChem-04052300123D

 86 95  0     1  0  0  0  0  0999 V2000
  -36.5832  -31.8721   23.9291 C   0  0  0  0  0  0  0  0  0  0  0  0
  -35.8466  -30.7527   23.5552 C   0  0  0  0  0  0  0  0  0  0  0  0
  -23.0582   -9.7828   20.0278 C   0  0  0  0  0  0  0  0  0  0  0  0
  -23.7512   -9.9525   22.3361 C   0  0  0  0  0  0  0  0  0  0  0  0
  -35.9275  -33.0247   24.3597 C   0  0  0  0  0  0  0  0  0  0  0  0
  -34.4537  -30.7849   23.6128 C   0  0  0  0  0  0  0  0  0  0  0  0
  -32.2924  -28.8016   19.4849 C   0  0  0  0  0  0  0  0  0  0  0  0
  -22.3221   -8.6380   20.3329 C   0  0  0  0  0  0  0  0  0  0  0  0
  -23.0150   -8.8077   22.6412 C   0  0  0  0  0  0  0  0  0  0  0  0
  -32.2492  -27.4110   19.3945 C   0  0  0  0  0  0  0  0  0  0  0  0
  -23.3640   -5.4607   22.3145 C   0  0  0  0  0  0  0  0  0  0  0  0
  -23.9713   -4.4942   23.1161 C   0  0  0  0  0  0  0  0  0  0  0  0
  -30.0315  -19.4015   22.2860 C   0  0  0  0  0  0  0  0  0  0  0  0
  -29.9523  -27.4403   20.1310 C   0  0  0  0  0  0  0  0  0  0  0  0
  -30.6283  -19.1526   19.9581 C   0  0  0  0  0  0  0  0  0  0  0  0
  -22.2191   -4.7556   24.7588 C   0  0  0  0  0  0  0  0  0  0  0  0
  -23.7729  -10.4401   21.0294 C   0  0  0  0  0  0  0  0  0  0  0  0
  -29.8741  -18.0197   22.3934 C   0  0  0  0  0  0  0  0  0  0  0  0
  -24.0860  -12.9564   20.7512 C   0  0  0  0  0  0  0  0  0  0  0  0
  -34.5256  -33.0744   24.4133 C   0  0  0  0  0  0  0  0  0  0  0  0
  -31.1672  -29.5224   19.9102 C   0  0  0  0  0  0  0  0  0  0  0  0
  -33.7787  -31.9389   24.0457 C   0  0  0  0  0  0  0  0  0  0  0  0
  -29.9829  -28.8402   20.2235 C   0  0  0  0  0  0  0  0  0  0  0  0
  -30.4085  -19.9679   21.0683 C   0  0  0  0  0  0  0  0  0  0  0  0
  -30.0938  -17.2044   21.2832 C   0  0  0  0  0  0  0  0  0  0  0  0
  -22.3004   -8.1505   21.6396 C   0  0  0  0  0  0  0  0  0  0  0  0
  -31.0800  -26.7299   19.7203 C   0  0  0  0  0  0  0  0  0  0  0  0
  -22.1842   -6.0748   22.7351 C   0  0  0  0  0  0  0  0  0  0  0  0
  -23.3989   -4.1416   24.3382 C   0  0  0  0  0  0  0  0  0  0  0  0
  -30.4709  -17.7708   20.0656 C   0  0  0  0  0  0  0  0  0  0  0  0
  -21.6118   -5.7221   23.9573 C   0  0  0  0  0  0  0  0  0  0  0  0
  -24.5340  -11.6223   20.7147 C   0  0  0  0  0  0  0  0  0  0  0  0
  -25.1787  -13.6961   20.3697 C   0  0  0  0  0  0  0  0  0  0  0  0
  -30.6907  -23.3208   20.8015 C   0  0  0  0  0  0  0  0  0  0  0  0
  -30.4203  -22.3414   21.8547 C   0  0  0  0  0  0  0  0  0  0  0  0
  -28.3364  -17.7534   24.2854 C   0  0  0  0  0  0  0  0  0  0  0  0
  -29.4791  -17.4643   23.6827 C   0  0  0  0  0  0  0  0  0  0  0  0
  -30.7600  -24.6640   20.7693 C   0  0  0  0  0  0  0  0  0  1  0  0
  -22.7975  -13.4803   21.0991 C   0  0  0  0  0  0  0  0  0  0  0  0
  -30.5267  -31.4380   22.3645 C   0  0  0  0  0  0  0  0  0  0  0  0
  -27.7247  -31.8747   20.7896 C   0  0  0  0  0  0  0  0  0  0  0  0
  -25.4382  -30.6756   18.5577 C   0  0  0  0  0  0  0  0  0  0  0  0
  -30.6239  -14.8303   20.6279 C   0  0  0  0  0  0  0  0  0  0  0  0
  -33.8628  -34.3266   24.9304 C   0  0  0  0  0  0  0  0  0  0  0  0
  -31.2217  -31.0241   19.9767 C   0  0  0  0  0  0  0  0  0  0  0  0
  -28.7413  -29.5689   20.6659 C   0  0  0  0  0  0  0  0  0  0  0  0
  -30.8446  -22.1820   19.8197 C   0  0  0  0  0  0  0  0  0  0  0  0
  -32.3733  -34.4058   24.6059 C   0  0  0  0  0  0  0  0  0  0  0  0
  -29.6092  -12.2492   18.3951 C   0  0  0  0  0  0  0  0  0  0  0  0
  -31.6870  -33.0806   24.9214 C   0  0  0  0  0  0  0  0  0  0  0  0
  -28.1615  -11.9658   18.8025 C   0  0  0  0  0  0  0  0  0  0  0  0
  -30.4861  -12.5703   19.6041 C   0  0  0  0  0  0  0  0  0  0  0  0
  -28.5309  -13.3567   20.8800 C   0  0  0  0  0  0  0  0  0  0  0  0
  -32.2656  -31.9434   24.0709 C   0  0  1  0  0  0  0  0  0  0  0  0
  -30.1759  -31.6189   20.9147 C   0  0  1  0  0  0  0  0  0  0  0  0
  -27.5949  -13.0918   19.6895 C   0  0  2  0  0  0  0  0  0  0  0  0
  -23.2317  -31.2387   17.5036 C   0  0  0  0  0  0  0  0  0  0  0  0
  -26.2965  -31.1054   23.3738 C   0  0  0  0  0  0  0  0  0  0  0  0
  -24.2088  -30.7609   22.0355 C   0  0  0  0  0  0  0  0  0  0  0  0
  -25.2624  -33.0195   22.1404 C   0  0  0  0  0  0  0  0  0  0  0  0
  -26.6117  -30.7029   15.8409 C   0  0  0  0  0  0  0  0  0  0  0  0
  -26.3778  -31.1928   20.7947 C   0  0  1  0  0  0  0  0  0  0  0  0
  -24.7444  -31.3299   17.3767 C   0  0  2  0  0  0  0  0  0  0  0  0
  -25.5602  -31.5055   22.0797 C   0  0  0  0  0  0  0  0  0  0  0  0
  -25.8115  -11.5175   20.3394 N   0  0  0  0  0  0  0  0  0  0  0  0
  -26.1757  -12.7951   20.1366 N   0  0  0  0  0  0  0  0  0  0  0  0
  -30.5638  -21.3306   20.9622 N   0  0  0  0  0  0  0  0  0  0  0  0
  -28.8465  -31.0364   20.7212 N   0  0  0  0  0  0  0  0  0  0  0  0
  -29.8890  -13.6486   20.3949 N   0  0  0  0  0  0  0  0  0  0  0  0
  -25.3743  -15.0227   20.2142 N   0  0  0  0  0  0  0  0  0  0  0  0
  -21.7878  -12.5808   21.4675 N   0  0  0  0  0  0  0  0  0  0  0  0
  -29.9414  -15.7980   21.3645 N   0  0  0  0  0  0  0  0  0  0  0  0
  -31.7368  -31.9995   22.7249 N   0  0  0  0  0  0  0  0  0  0  0  0
  -25.7165  -31.5860   19.5552 N   0  0  0  0  0  0  0  0  0  0  0  0
  -25.1502  -30.6670   16.1052 N   0  3  0  0  0  0  0  0  0  0  0  0
  -30.1600  -22.4013   23.0384 O   0  0  0  0  0  0  0  0  0  0  0  0
  -22.5442  -14.7084   21.0678 O   0  0  0  0  0  0  0  0  0  0  0  0
  -29.7558  -30.8350   23.1020 O   0  0  0  0  0  0  0  0  0  0  0  0
  -27.7792  -33.1061   20.8370 O   0  0  0  0  0  0  0  0  0  0  0  0
  -25.7033  -29.4760   18.5936 O   0  0  0  0  0  0  0  0  0  0  0  0
  -31.7638  -14.9842   20.1820 O   0  0  0  0  0  0  0  0  0  0  0  0
  -21.5820   -7.0336   21.9378 O   0  0  0  0  0  0  0  0  0  0  0  0
  -31.0354  -25.3726   19.6336 O   0  0  0  0  0  0  0  0  0  1  0  0
  -23.9814   -3.2123   25.1072 F   0  0  0  0  0  0  0  0  0  0  0  0
  -30.6857  -16.9983   18.9910 F   0  0  0  0  0  0  0  0  0  0  0  0
  -20.4778   -6.3077   24.3661 F   0  0  0  0  0  0  0  0  0  0  0  0
  1  2  1  0  0  0  0
  1  5  2  0  0  0  0
  2  6  2  0  0  0  0
  3  8  2  0  0  0  0
  3 17  1  0  0  0  0
  4  9  1  0  0  0  0
  4 17  2  0  0  0  0
  5 20  1  0  0  0  0
  6 22  1  0  0  0  0
  7 10  2  0  0  0  0
  7 21  1  0  0  0  0
  8 26  1  0  0  0  0
  9 26  2  0  0  0  0
 10 27  1  0  0  0  0
 11 12  2  0  0  0  0
 11 28  1  0  0  0  0
 12 29  1  0  0  0  0
 13 18  1  0  0  0  0
 13 24  2  0  0  0  0
 14 23  1  0  0  0  0
 14 27  2  0  0  0  0
 15 24  1  0  0  0  0
 15 30  2  0  0  0  0
 16 29  2  0  0  0  0
 16 31  1  0  0  0  0
 17 32  1  0  0  0  0
 18 25  2  0  0  0  0
 18 37  1  0  0  0  0
 19 32  1  0  0  0  0
 19 33  2  0  0  0  0
 19 39  1  0  0  0  0
 20 22  2  0  0  0  0
 20 44  1  0  0  0  0
 21 23  2  0  0  0  0
 21 45  1  0  0  0  0
 22 54  1  0  0  0  0
 23 46  1  0  0  0  0
 24 67  1  0  0  0  0
 25 30  1  0  0  0  0
 25 72  1  0  0  0  0
 26 82  1  0  0  0  0
 27 83  1  0  0  0  0
 28 31  2  0  0  0  0
 28 82  1  0  0  0  0
 29 84  1  0  0  0  0
 30 85  1  0  0  0  0
 31 86  1  0  0  0  0
 32 65  2  0  0  0  0
 33 66  1  0  0  0  0
 33 70  1  0  0  0  0
 34 35  1  0  0  0  0
 34 38  2  0  0  0  0
 34 47  1  0  0  0  0
 35 67  1  0  0  0  0
 35 76  2  0  0  0  0
 36 37  2  0  0  0  0
 38 83  1  0  0  0  0
 39 71  1  0  0  0  0
 39 77  2  0  0  0  0
 40 55  1  0  0  0  0
 40 73  1  0  0  0  0
 40 78  2  0  0  0  0
 41 62  1  0  0  0  0
 41 68  1  0  0  0  0
 41 79  2  0  0  0  0
 42 63  1  0  0  0  0
 42 74  1  0  0  0  0
 42 80  2  0  0  0  0
 43 69  1  0  0  0  0
 43 72  1  0  0  0  0
 43 81  2  0  0  0  0
 44 48  1  0  0  0  0
 45 55  1  0  0  0  0
 46 68  1  0  0  0  0
 47 67  1  0  0  0  0
 48 50  1  0  0  0  0
 49 51  1  0  0  0  0
 49 52  1  0  0  0  0
 50 54  1  0  0  0  0
 51 56  1  0  0  0  0
 52 69  1  0  0  0  0
 53 56  1  0  0  0  0
 53 69  1  0  0  0  0
 54 73  1  0  0  0  0
 55 68  1  0  0  0  0
 56 66  1  0  0  0  0
 57 63  1  0  0  0  0
 58 64  1  0  0  0  0
 59 64  1  0  0  0  0
 60 64  1  0  0  0  0
 61 75  1  0  0  0  0
 62 64  1  0  0  0  0
 62 74  1  0  0  0  0
 63 75  1  0  0  0  0
 65 66  1  0  0  0  0
M  CHG  1  75   1
M  ISO  4  38 101  43 100  72 100  83 101
M  END
> <Batch ID>
0084

> <Smiles>
C=Cc1cc(N2CC(=[101CH:1][101O:1]c3ccc4c(c3)CN(C(=O)C(NC(=O)C(C)NC)C(C)(C)C)C(C(=O)NC3CCCc5ccccc53)C4)C2=O)cc(F)c1[100NH:0][100C:0](=O)N1CCCC(n2nc(-c3ccc(Oc4ccc(F)cc4F)cc3)c(C(N)=O)c2N)C1

> <Shape>
0.280

> <Color>
0.212

> <Negative vol penalty>
0.000

$$$$

  -OEChem-04052300123D

 73 80  0     1  0  0  0  0  0999 V2000
  -26.6101  -38.2673   20.4380 C   0  0  0  0  0  0  0  0  0  0  0  0
  -27.1662  -37.1648   19.7972 C   0  0  0  0  0  0  0  0  0  0  0  0
  -26.0769  -13.8385   21.6752 C   0  0  0  0  0  0  0  0  0  0  0  0
  -25.3334  -13.1358   19.4865 C   0  0  0  0  0  0  0  0  0  0  0  0
  -26.0106  -38.1167   21.6877 C   0  0  0  0  0  0  0  0  0  0  0  0
  -27.1241  -35.9112   20.4064 C   0  0  0  0  0  0  0  0  0  0  0  0
  -26.6146  -28.9452   18.8149 C   0  0  0  0  0  0  0  0  0  0  0  0
  -25.1549  -12.9744   22.2658 C   0  0  0  0  0  0  0  0  0  0  0  0
  -24.4114  -12.2716   20.0771 C   0  0  0  0  0  0  0  0  0  0  0  0
  -27.2574  -27.7336   19.0646 C   0  0  0  0  0  0  0  0  0  0  0  0
  -24.4376   -9.2246   21.5384 C   0  0  0  0  0  0  0  0  0  0  0  0
  -24.3400   -7.9324   21.0224 C   0  0  0  0  0  0  0  0  0  0  0  0
  -26.1257  -27.5780   21.1893 C   0  0  0  0  0  0  0  0  0  0  0  0
  -22.0152   -8.3200   20.4912 C   0  0  0  0  0  0  0  0  0  0  0  0
  -26.1661  -13.9192   20.2855 C   0  0  0  0  0  0  0  0  0  0  0  0
  -28.4478  -14.5210   19.3163 C   0  0  0  0  0  0  0  0  0  0  0  0
  -25.9526  -36.8588   22.3082 C   0  0  0  0  0  0  0  0  0  0  0  0
  -25.7293  -29.4887   19.7569 C   0  0  0  0  0  0  0  0  0  0  0  0
  -26.5244  -35.7439   21.6662 C   0  0  0  0  0  0  0  0  0  0  0  0
  -25.4710  -28.7954   20.9480 C   0  0  0  0  0  0  0  0  0  0  0  0
  -24.3222  -12.1909   21.4668 C   0  0  0  0  0  0  0  0  0  0  0  0
  -27.0152  -27.0512   20.2532 C   0  0  0  0  0  0  0  0  0  0  0  0
  -23.3239  -10.0645   21.5308 C   0  0  0  0  0  0  0  0  0  0  0  0
  -23.1289   -7.4801   20.4988 C   0  0  0  0  0  0  0  0  0  0  0  0
  -22.1128   -9.6122   21.0072 C   0  0  0  0  0  0  0  0  0  0  0  0
  -27.1180  -14.8121   19.6748 C   0  0  0  0  0  0  0  0  0  0  0  0
  -28.9225  -15.6922   18.7782 C   0  0  0  0  0  0  0  0  0  0  0  0
  -27.1738  -22.7069   19.2139 C   0  0  0  0  0  0  0  0  0  0  0  0
  -27.9609  -23.6266   19.7836 C   0  0  0  0  0  0  0  0  0  0  0  0
  -29.1879  -13.3011   19.4571 C   0  0  0  0  0  0  0  0  0  0  0  0
  -27.2438  -21.3128   19.6961 C   0  0  0  0  0  0  0  0  0  0  0  0
  -25.6480  -32.1592   21.4789 C   0  0  0  0  0  0  0  0  0  0  0  0
  -22.7152  -31.0618   22.3256 C   0  0  0  0  0  0  0  0  0  0  0  0
  -20.6133  -28.3983   22.6925 C   0  0  0  0  0  0  0  0  0  0  0  0
  -25.3361  -36.7541   23.6806 C   0  0  0  0  0  0  0  0  0  0  0  0
  -25.0235  -30.7835   19.4607 C   0  0  0  0  0  0  0  0  0  0  0  0
  -24.5139  -29.3261   21.9828 C   0  0  0  0  0  0  0  0  0  0  0  0
  -25.0008  -35.3222   24.0901 C   0  0  0  0  0  0  0  0  0  0  0  0
  -27.4944  -19.6094   16.4608 C   0  0  0  0  0  0  0  0  0  0  0  0
  -26.1710  -34.3922   23.7860 C   0  0  0  0  0  0  0  0  0  0  0  0
  -27.4997  -18.1472   16.8984 C   0  0  0  0  0  0  0  0  0  0  0  0
  -26.6198  -20.4744   17.3672 C   0  0  0  0  0  0  0  0  0  0  0  0
  -26.9758  -18.9039   19.2507 C   0  0  0  0  0  0  0  0  0  0  0  0
  -26.4765  -34.3631   22.2836 C   0  0  1  0  0  0  0  0  0  0  0  0
  -24.5345  -31.4984   20.7166 C   0  0  1  0  0  0  0  0  0  0  0  0
  -27.8869  -18.0240   18.3806 C   0  0  1  0  0  0  0  0  0  0  0  0
  -18.2913  -27.8097   23.4403 C   0  0  0  0  0  0  0  0  0  0  0  0
  -23.5753  -31.3770   25.2360 C   0  0  0  0  0  0  0  0  0  0  0  0
  -21.6476  -29.9198   25.8908 C   0  0  0  0  0  0  0  0  0  0  0  0
  -21.2303  -32.1021   24.7568 C   0  0  0  0  0  0  0  0  0  0  0  0
  -19.8973  -27.3388   20.0234 C   0  0  0  0  0  0  0  0  0  0  0  0
  -27.9757  -25.0626   19.3705 C   0  0  0  0  0  0  0  0  0  1  0  0
  -22.1818  -30.1753   23.4249 C   0  0  1  0  0  0  0  0  0  0  0  0
  -19.1741  -28.1838   22.2599 C   0  0  2  0  0  0  0  0  0  0  0  0
  -22.1783  -30.8843   24.8087 C   0  0  0  0  0  0  0  0  0  0  0  0
  -26.7702  -16.0695   19.3887 N   0  0  0  0  0  0  0  0  0  0  0  0
  -27.8885  -16.5790   18.8448 N   0  0  0  0  0  0  0  0  0  0  0  0
  -26.9705  -20.2950   18.7841 N   0  0  0  0  0  0  0  0  0  0  0  0
  -23.8532  -30.5990   21.6498 N   0  0  0  0  0  0  0  0  0  0  0  0
  -30.1194  -16.0395   18.2593 N   0  0  0  0  0  0  0  0  0  0  0  0
  -28.5480  -12.1939   20.0307 N   0  0  0  0  0  0  0  0  0  0  0  0
  -25.5180  -33.5305   21.5889 N   0  0  0  0  0  0  0  0  0  0  0  0
  -20.8676  -29.7222   22.9824 N   0  0  0  0  0  0  0  0  0  0  0  0
  -19.0944  -27.0919   21.2487 N   0  3  0  0  0  0  0  0  0  0  0  0
  -30.3862  -13.2008   19.1002 O   0  0  0  0  0  0  0  0  0  0  0  0
  -27.5356  -21.1346   20.8801 O   0  0  0  0  0  0  0  0  0  0  0  0
  -26.5569  -31.4754   21.9350 O   0  0  0  0  0  0  0  0  0  0  0  0
  -22.1390  -32.1224   22.0708 O   0  0  0  0  0  0  0  0  0  0  0  0
  -21.4293  -27.4825   22.7694 O   0  0  0  0  0  0  0  0  0  0  0  0
  -23.4225  -11.3474   22.0427 O   0  0  0  0  0  0  0  0  0  0  0  0
  -27.6418  -25.8686   20.4998 O   0  0  0  0  0  0  0  0  0  1  0  0
  -23.0358   -6.2397   20.0019 F   0  0  0  0  0  0  0  0  0  0  0  0
  -21.0398  -10.4149   20.9961 F   0  0  0  0  0  0  0  0  0  0  0  0
  1  2  1  0  0  0  0
  1  5  2  0  0  0  0
  2  6  2  0  0  0  0
  3  8  2  0  0  0  0
  3 15  1  0  0  0  0
  4  9  1  0  0  0  0
  4 15  2  0  0  0  0
  5 17  1  0  0  0  0
  6 19  1  0  0  0  0
  7 10  2  0  0  0  0
  7 18  1  0  0  0  0
  8 21  1  0  0  0  0
  9 21  2  0  0  0  0
 10 22  1  0  0  0  0
 11 12  2  0  0  0  0
 11 23  1  0  0  0  0
 12 24  1  0  0  0  0
 13 20  1  0  0  0  0
 13 22  2  0  0  0  0
 14 24  2  0  0  0  0
 14 25  1  0  0  0  0
 15 26  1  0  0  0  0
 16 26  1  0  0  0  0
 16 27  2  0  0  0  0
 16 30  1  0  0  0  0
 17 19  2  0  0  0  0
 17 35  1  0  0  0  0
 18 20  2  0  0  0  0
 18 36  1  0  0  0  0
 19 44  1  0  0  0  0
 20 37  1  0  0  0  0
 21 70  1  0  0  0  0
 22 71  1  0  0  0  0
 23 25  2  0  0  0  0
 23 70  1  0  0  0  0
 24 72  1  0  0  0  0
 25 73  1  0  0  0  0
 26 56  2  0  0  0  0
 27 57  1  0  0  0  0
 27 60  1  0  0  0  0
 28 29  2  0  0  0  0
 28 31  1  0  0  0  0
 29 52  1  0  0  0  0
 30 61  1  0  0  0  0
 30 65  2  0  0  0  0
 31 58  1  0  0  0  0
 31 66  2  0  0  0  0
 32 45  1  0  0  0  0
 32 62  1  0  0  0  0
 32 67  2  0  0  0  0
 33 53  1  0  0  0  0
 33 59  1  0  0  0  0
 33 68  2  0  0  0  0
 34 54  1  0  0  0  0
 34 63  1  0  0  0  0
 34 69  2  0  0  0  0
 35 38  1  0  0  0  0
 36 45  1  0  0  0  0
 37 59  1  0  0  0  0
 38 40  1  0  0  0  0
 39 41  1  0  0  0  0
 39 42  1  0  0  0  0
 40 44  1  0  0  0  0
 41 46  1  0  0  0  0
 42 58  1  0  0  0  0
 43 46  1  0  0  0  0
 43 58  1  0  0  0  0
 44 62  1  0  0  0  0
 45 59  1  0  0  0  0
 46 57  1  0  0  0  0
 47 54  1  0  0  0  0
 48 55  1  0  0  0  0
 49 55  1  0  0  0  0
 50 55  1  0  0  0  0
 51 64  1  0  0  0  0
 52 71  1  0  0  0  0
 53 55  1  0  0  0  0
 53 63  1  0  0  0  0
 54 64  1  0  0  0  0
 56 57  1  0  0  0  0
M  CHG  1  64   1
M  ISO  4  28 100  31 100  52 101  71 101
M  END
> <Batch ID>
0084

> <Smiles>
CNC(C)C(=O)NC(C(=O)N1Cc2cc([101O:1][101CH2:1]C=[100CH:0][100C:0](=O)N3CCCC(n4nc(-c5ccc(Oc6ccc(F)cc6F)cc5)c(C(N)=O)c4N)C3)ccc2CC1C(=O)NC1CCCc2ccccc21)C(C)(C)C

> <Shape>
0.281

> <Color>
0.086

> <Negative vol penalty>
0.000

$$$$

  -OEChem-04052300123D

 86 95  0     1  0  0  0  0  0999 V2000
  -26.3949  -37.4448   20.9529 C   0  0  0  0  0  0  0  0  0  0  0  0
  -26.9588  -36.2614   20.4871 C   0  0  0  0  0  0  0  0  0  0  0  0
  -23.2940  -10.4728   21.7569 C   0  0  0  0  0  0  0  0  0  0  0  0
  -22.6113  -12.6117   20.8647 C   0  0  0  0  0  0  0  0  0  0  0  0
  -25.7059  -37.4575   22.1649 C   0  0  0  0  0  0  0  0  0  0  0  0
  -26.8349  -35.0901   21.2336 C   0  0  0  0  0  0  0  0  0  0  0  0
  -26.2442  -29.3911   19.0709 C   0  0  0  0  0  0  0  0  0  0  0  0
  -30.1680  -19.6497   19.9631 C   0  0  0  0  0  0  0  0  0  0  0  0
  -30.1645  -18.2553   19.9299 C   0  0  0  0  0  0  0  0  0  0  0  0
  -22.1975  -10.4823   22.6189 C   0  0  0  0  0  0  0  0  0  0  0  0
  -21.5147  -12.6213   21.7267 C   0  0  0  0  0  0  0  0  0  0  0  0
  -27.1621  -28.3581   18.8860 C   0  0  0  0  0  0  0  0  0  0  0  0
  -18.4516  -11.2014   21.8736 C   0  0  0  0  0  0  0  0  0  0  0  0
  -17.2158  -11.5723   21.3436 C   0  0  0  0  0  0  0  0  0  0  0  0
  -26.5276  -27.4209   21.0163 C   0  0  0  0  0  0  0  0  0  0  0  0
  -17.0973  -13.4107   22.9067 C   0  0  0  0  0  0  0  0  0  0  0  0
  -23.5010  -11.5376   20.8798 C   0  0  0  0  0  0  0  0  0  0  0  0
  -24.6859  -11.0014   18.6852 C   0  0  0  0  0  0  0  0  0  0  0  0
  -25.5652  -36.2837   22.9220 C   0  0  0  0  0  0  0  0  0  0  0  0
  -25.4675  -29.4528   20.2369 C   0  0  0  0  0  0  0  0  0  0  0  0
  -26.1445  -35.0875   22.4576 C   0  0  0  0  0  0  0  0  0  0  0  0
  -25.5987  -28.4542   21.2124 C   0  0  0  0  0  0  0  0  0  0  0  0
  -29.1119  -20.3635   19.3967 C   0  0  0  0  0  0  0  0  0  0  0  0
  -29.1049  -17.5746   19.3302 C   0  0  0  0  0  0  0  0  0  0  0  0
  -21.3078  -11.5565   22.6038 C   0  0  0  0  0  0  0  0  0  0  0  0
  -27.3061  -27.3744   19.8600 C   0  0  0  0  0  0  0  0  0  0  0  0
  -19.0102  -11.9351   22.9201 C   0  0  0  0  0  0  0  0  0  0  0  0
  -16.5387  -12.6770   21.8601 C   0  0  0  0  0  0  0  0  0  0  0  0
  -18.3331  -13.0398   23.4366 C   0  0  0  0  0  0  0  0  0  0  0  0
  -28.0523  -19.6829   18.7970 C   0  0  0  0  0  0  0  0  0  0  0  0
  -28.0488  -18.2884   18.7637 C   0  0  0  0  0  0  0  0  0  0  0  0
  -24.6339  -11.5286   19.9895 C   0  0  0  0  0  0  0  0  0  0  0  0
  -25.9731  -11.2398   18.2696 C   0  0  0  0  0  0  0  0  0  0  0  0
  -28.5176  -24.0174   19.4951 C   0  0  0  0  0  0  0  0  0  0  0  0
  -27.9926  -22.6260   19.4754 C   0  0  0  0  0  0  0  0  0  0  0  0
  -27.7305  -25.0828   19.6625 C   0  0  0  0  0  0  0  0  0  1  0  0
  -23.6622  -10.3541   17.9179 C   0  0  0  0  0  0  0  0  0  0  0  0
  -25.1700  -31.5273   22.6267 C   0  0  0  0  0  0  0  0  0  0  0  0
  -22.7557  -29.5545   23.5222 C   0  0  0  0  0  0  0  0  0  0  0  0
  -21.3704  -26.4374   23.4153 C   0  0  0  0  0  0  0  0  0  0  0  0
  -30.0753  -15.3007   19.8140 C   0  0  0  0  0  0  0  0  0  0  0  0
  -24.8522  -36.3569   24.2490 C   0  0  0  0  0  0  0  0  0  0  0  0
  -24.4627  -30.5587   20.4092 C   0  0  0  0  0  0  0  0  0  0  0  0
  -24.7742  -28.4637   22.4728 C   0  0  0  0  0  0  0  0  0  0  0  0
  -29.9971  -24.0129   19.3302 C   0  0  0  0  0  0  0  0  0  0  0  0
  -24.4442  -34.9919   24.7973 C   0  0  0  0  0  0  0  0  0  0  0  0
  -30.4207  -11.7604   19.9673 C   0  0  0  0  0  0  0  0  0  0  0  0
  -25.6025  -34.0053   24.6894 C   0  0  0  0  0  0  0  0  0  0  0  0
  -28.9811  -11.2509   19.8656 C   0  0  0  0  0  0  0  0  0  0  0  0
  -30.3596  -22.5470   19.5016 C   0  0  0  0  0  0  0  0  0  0  0  0
  -30.5092  -13.0520   20.7782 C   0  0  0  0  0  0  0  0  0  0  0  0
  -28.1750  -13.6182   20.2305 C   0  0  0  0  0  0  0  0  0  0  0  0
  -26.0103  -33.7911   23.2267 C   0  0  1  0  0  0  0  0  0  0  0  0
  -24.0916  -30.8069   21.8679 C   0  0  1  0  0  0  0  0  0  0  0  0
  -28.0268  -12.3542   19.3680 C   0  0  2  0  0  0  0  0  0  0  0  0
  -19.4157  -25.1199   24.2758 C   0  0  0  0  0  0  0  0  0  0  0  0
  -24.0854  -29.3763   26.2627 C   0  0  0  0  0  0  0  0  0  0  0  0
  -22.6716  -27.3661   26.7407 C   0  0  0  0  0  0  0  0  0  0  0  0
  -21.5933  -29.5765   26.3234 C   0  0  0  0  0  0  0  0  0  0  0  0
  -20.3817  -25.8968   20.6787 C   0  0  0  0  0  0  0  0  0  0  0  0
  -22.6458  -28.3269   24.3939 C   0  0  1  0  0  0  0  0  0  0  0  0
  -19.9515  -25.9747   23.1378 C   0  0  2  0  0  0  0  0  0  0  0  0
  -22.7661  -28.6621   25.9074 C   0  0  0  0  0  0  0  0  0  0  0  0
  -25.7957  -12.0616   20.3769 N   0  0  0  0  0  0  0  0  0  0  0  0
  -26.5899  -11.8705   19.3098 N   0  0  0  0  0  0  0  0  0  0  0  0
  -29.1179  -21.7927   19.4325 N   0  0  0  0  0  0  0  0  0  0  0  0
  -23.8099  -29.5691   22.5980 N   0  0  0  0  0  0  0  0  0  0  0  0
  -29.5808  -14.0522   20.2467 N   0  0  0  0  0  0  0  0  0  0  0  0
  -26.6262  -10.9694   17.1195 N   0  0  0  0  0  0  0  0  0  0  0  0
  -22.3962  -10.1905   18.4965 N   0  0  0  0  0  0  0  0  0  0  0  0
  -29.1042  -16.1580   19.2978 N   0  0  0  0  0  0  0  0  0  0  0  0
  -25.0762  -32.9047   22.5663 N   0  0  0  0  0  0  0  0  0  0  0  0
  -21.3945  -27.6744   24.0241 N   0  0  0  0  0  0  0  0  0  0  0  0
  -19.9047  -25.1709   21.8838 N   0  3  0  0  0  0  0  0  0  0  0  0
  -26.8027  -22.3589   19.5021 O   0  0  0  0  0  0  0  0  0  0  0  0
  -23.8688   -9.9186   16.7598 O   0  0  0  0  0  0  0  0  0  0  0  0
  -26.0230  -30.8815   23.2240 O   0  0  0  0  0  0  0  0  0  0  0  0
  -21.9322  -30.4638   23.6516 O   0  0  0  0  0  0  0  0  0  0  0  0
  -22.3586  -25.7669   23.1246 O   0  0  0  0  0  0  0  0  0  0  0  0
  -31.2762  -15.5779   19.8702 O   0  0  0  0  0  0  0  0  0  0  0  0
  -20.2376  -11.5660   23.4446 O   0  0  0  0  0  0  0  0  0  0  0  0
  -28.2018  -26.3655   19.6823 O   0  0  0  0  0  0  0  0  0  1  0  0
  -15.3527  -13.0339   21.3501 F   0  0  0  0  0  0  0  0  0  0  0  0
  -18.8653  -13.7493   24.4412 F   0  0  0  0  0  0  0  0  0  0  0  0
  -27.0328  -20.3586   18.2476 F   0  0  0  0  0  0  0  0  0  0  0  0
  -27.0262  -17.6451   18.1826 F   0  0  0  0  0  0  0  0  0  0  0  0
  1  2  1  0  0  0  0
  1  5  2  0  0  0  0
  2  6  2  0  0  0  0
  3 10  2  0  0  0  0
  3 17  1  0  0  0  0
  4 11  1  0  0  0  0
  4 17  2  0  0  0  0
  5 19  1  0  0  0  0
  6 21  1  0  0  0  0
  7 12  2  0  0  0  0
  7 20  1  0  0  0  0
  8  9  2  0  0  0  0
  8 23  1  0  0  0  0
  9 24  1  0  0  0  0
 10 25  1  0  0  0  0
 11 25  2  0  0  0  0
 12 26  1  0  0  0  0
 13 14  2  0  0  0  0
 13 27  1  0  0  0  0
 14 28  1  0  0  0  0
 15 22  1  0  0  0  0
 15 26  2  0  0  0  0
 16 28  2  0  0  0  0
 16 29  1  0  0  0  0
 17 32  1  0  0  0  0
 18 32  1  0  0  0  0
 18 33  2  0  0  0  0
 18 37  1  0  0  0  0
 19 21  2  0  0  0  0
 19 42  1  0  0  0  0
 20 22  2  0  0  0  0
 20 43  1  0  0  0  0
 21 53  1  0  0  0  0
 22 44  1  0  0  0  0
 23 30  2  0  0  0  0
 23 66  1  0  0  0  0
 24 31  2  0  0  0  0
 24 71  1  0  0  0  0
 25 81  1  0  0  0  0
 26 82  1  0  0  0  0
 27 29  2  0  0  0  0
 27 81  1  0  0  0  0
 28 83  1  0  0  0  0
 29 84  1  0  0  0  0
 30 31  1  0  0  0  0
 30 85  1  0  0  0  0
 31 86  1  0  0  0  0
 32 64  2  0  0  0  0
 33 65  1  0  0  0  0
 33 69  1  0  0  0  0
 34 35  1  0  0  0  0
 34 36  2  0  0  0  0
 34 45  1  0  0  0  0
 35 66  1  0  0  0  0
 35 75  2  0  0  0  0
 36 82  1  0  0  0  0
 37 70  1  0  0  0  0
 37 76  2  0  0  0  0
 38 54  1  0  0  0  0
 38 72  1  0  0  0  0
 38 77  2  0  0  0  0
 39 61  1  0  0  0  0
 39 67  1  0  0  0  0
 39 78  2  0  0  0  0
 40 62  1  0  0  0  0
 40 73  1  0  0  0  0
 40 79  2  0  0  0  0
 41 68  1  0  0  0  0
 41 71  1  0  0  0  0
 41 80  2  0  0  0  0
 42 46  1  0  0  0  0
 43 54  1  0  0  0  0
 44 67  1  0  0  0  0
 45 50  1  0  0  0  0
 46 48  1  0  0  0  0
 47 49  1  0  0  0  0
 47 51  1  0  0  0  0
 48 53  1  0  0  0  0
 49 55  1  0  0  0  0
 50 66  1  0  0  0  0
 51 68  1  0  0  0  0
 52 55  1  0  0  0  0
 52 68  1  0  0  0  0
 53 72  1  0  0  0  0
 54 67  1  0  0  0  0
 55 65  1  0  0  0  0
 56 62  1  0  0  0  0
 57 63  1  0  0  0  0
 58 63  1  0  0  0  0
 59 63  1  0  0  0  0
 60 74  1  0  0  0  0
 61 63  1  0  0  0  0
 61 73  1  0  0  0  0
 62 74  1  0  0  0  0
 64 65  1  0  0  0  0
M  CHG  1  74   1
M  ISO  4  36 101  41 100  71 100  82 101
M  END
> <Batch ID>
0084

> <Smiles>
CNC(C)C(=O)NC(C(=O)N1Cc2cc([101O:1][101CH:1]=C3CCN(c4ccc([100NH:0][100C:0](=O)N5CCCC(n6nc(-c7ccc(Oc8ccc(F)cc8F)cc7)c(C(N)=O)c6N)C5)c(F)c4F)C3=O)ccc2CC1C(=O)NC1CCCc2ccccc21)C(C)(C)C

> <Shape>
0.298

> <Color>
0.081

> <Negative vol penalty>
0.000

$$$$

  -OEChem-04052300123D

 86 95  0     1  0  0  0  0  0999 V2000
  -26.9762  -36.4704   21.4290 C   0  0  0  0  0  0  0  0  0  0  0  0
  -27.7859  -35.3396   21.3965 C   0  0  0  0  0  0  0  0  0  0  0  0
  -23.6395   -9.7480   21.9460 C   0  0  0  0  0  0  0  0  0  0  0  0
  -24.4887  -11.0869   23.7690 C   0  0  0  0  0  0  0  0  0  0  0  0
  -25.6384  -36.3580   21.8053 C   0  0  0  0  0  0  0  0  0  0  0  0
  -27.2584  -34.0957   21.7415 C   0  0  0  0  0  0  0  0  0  0  0  0
  -28.7439  -28.6685   19.3240 C   0  0  0  0  0  0  0  0  0  0  0  0
  -31.7193  -19.2954   19.5842 C   0  0  0  0  0  0  0  0  0  0  0  0
  -31.2433  -18.0025   19.3665 C   0  0  0  0  0  0  0  0  0  0  0  0
  -23.1492   -8.8150   22.8596 C   0  0  0  0  0  0  0  0  0  0  0  0
  -23.9984  -10.1538   24.6826 C   0  0  0  0  0  0  0  0  0  0  0  0
  -29.5996  -27.6539   19.7511 C   0  0  0  0  0  0  0  0  0  0  0  0
  -24.3757   -6.2862   24.7372 C   0  0  0  0  0  0  0  0  0  0  0  0
  -24.6001   -4.9363   24.4672 C   0  0  0  0  0  0  0  0  0  0  0  0
  -27.7263  -26.4975   20.7373 C   0  0  0  0  0  0  0  0  0  0  0  0
  -29.4605  -20.0626   19.9670 C   0  0  0  0  0  0  0  0  0  0  0  0
  -22.2158   -4.5480   24.4273 C   0  0  0  0  0  0  0  0  0  0  0  0
  -24.3092  -10.8840   22.4007 C   0  0  0  0  0  0  0  0  0  0  0  0
  -24.1420  -12.9727   20.9458 C   0  0  0  0  0  0  0  0  0  0  0  0
  -25.0918  -35.1106   22.1457 C   0  0  0  0  0  0  0  0  0  0  0  0
  -27.3724  -28.6104   19.6103 C   0  0  0  0  0  0  0  0  0  0  0  0
  -25.9124  -33.9666   22.1239 C   0  0  0  0  0  0  0  0  0  0  0  0
  -26.8549  -27.5113   20.3105 C   0  0  0  0  0  0  0  0  0  0  0  0
  -30.8279  -20.3255   19.8845 C   0  0  0  0  0  0  0  0  0  0  0  0
  -29.8759  -17.7396   19.4490 C   0  0  0  0  0  0  0  0  0  0  0  0
  -23.3287   -9.0178   24.2279 C   0  0  0  0  0  0  0  0  0  0  0  0
  -29.0912  -26.5697   20.4604 C   0  0  0  0  0  0  0  0  0  0  0  0
  -23.0714   -6.7670   24.8523 C   0  0  0  0  0  0  0  0  0  0  0  0
  -23.5201   -4.0672   24.3122 C   0  0  0  0  0  0  0  0  0  0  0  0
  -21.9914   -5.8979   24.6973 C   0  0  0  0  0  0  0  0  0  0  0  0
  -28.9845  -18.7697   19.7493 C   0  0  0  0  0  0  0  0  0  0  0  0
  -24.8164  -11.8479   21.4574 C   0  0  0  0  0  0  0  0  0  0  0  0
  -25.0475  -13.5583   20.0950 C   0  0  0  0  0  0  0  0  0  0  0  0
  -32.6260  -23.3926   20.6740 C   0  0  0  0  0  0  0  0  0  0  0  0
  -31.4812  -23.8973   20.2185 C   0  0  0  0  0  0  0  0  0  0  0  0
  -32.5426  -21.9260   20.6218 C   0  0  0  0  0  0  0  0  0  0  0  0
  -30.6051  -22.7748   19.8306 C   0  0  0  0  0  0  0  0  0  0  0  0
  -22.8157  -13.4460   21.2154 C   0  0  0  0  0  0  0  0  0  0  0  0
  -25.3480  -30.4173   21.2658 C   0  0  0  0  0  0  0  0  0  0  0  0
  -23.1396  -28.3795   20.0440 C   0  0  0  0  0  0  0  0  0  0  0  0
  -22.4441  -25.3038   18.7390 C   0  0  0  0  0  0  0  0  0  0  0  0
  -30.2035  -15.2991   18.9170 C   0  0  0  0  0  0  0  0  0  0  0  0
  -23.6525  -35.0460   22.5916 C   0  0  0  0  0  0  0  0  0  0  0  0
  -26.4586  -29.6996   19.1193 C   0  0  0  0  0  0  0  0  0  0  0  0
  -25.3871  -27.3915   20.6258 C   0  0  0  0  0  0  0  0  0  0  0  0
  -23.0743  -33.6332   22.5809 C   0  0  0  0  0  0  0  0  0  0  0  0
  -29.4768  -11.8642   18.3251 C   0  0  0  0  0  0  0  0  0  0  0  0
  -24.0444  -32.6545   23.2350 C   0  0  0  0  0  0  0  0  0  0  0  0
  -28.1441  -11.6463   19.0451 C   0  0  0  0  0  0  0  0  0  0  0  0
  -30.3838  -12.8267   19.0897 C   0  0  0  0  0  0  0  0  0  0  0  0
  -28.4378  -13.8976   20.1553 C   0  0  0  0  0  0  0  0  0  0  0  0
  -25.3705  -32.5960   22.4672 C   0  0  1  0  0  0  0  0  0  0  0  0
  -25.1589  -29.7919   19.9127 C   0  0  1  0  0  0  0  0  0  0  0  0
  -27.4644  -12.9859   19.3904 C   0  0  2  0  0  0  0  0  0  0  0  0
  -20.5420  -23.9173   17.8689 C   0  0  0  0  0  0  0  0  0  0  0  0
  -22.1881  -27.8954   22.9024 C   0  0  0  0  0  0  0  0  0  0  0  0
  -20.9868  -25.8572   22.0832 C   0  0  0  0  0  0  0  0  0  0  0  0
  -20.3549  -28.1086   21.2146 C   0  0  0  0  0  0  0  0  0  0  0  0
  -23.6863  -25.0699   16.0630 C   0  0  0  0  0  0  0  0  0  0  0  0
  -31.0792  -25.3206   20.0816 C   0  0  0  0  0  0  0  0  0  1  0  0
  -22.5387  -27.0659   20.4827 C   0  0  1  0  0  0  0  0  0  0  0  0
  -21.6583  -24.8855   17.5094 C   0  0  2  0  0  0  0  0  0  0  0  0
  -21.5451  -27.2347   21.6666 C   0  0  0  0  0  0  0  0  0  0  0  0
  -26.0546  -11.7242   20.9721 N   0  0  0  0  0  0  0  0  0  0  0  0
  -26.1654  -12.7788   20.1466 N   0  0  0  0  0  0  0  0  0  0  0  0
  -31.3029  -21.6139   20.1021 N   0  0  0  0  0  0  0  0  0  0  0  0
  -24.5351  -28.4850   20.1298 N   0  0  0  0  0  0  0  0  0  0  0  0
  -29.6744  -14.0751   19.3780 N   0  0  0  0  0  0  0  0  0  0  0  0
  -24.9884  -14.6588   19.3153 N   0  0  0  0  0  0  0  0  0  0  0  0
  -22.0191  -12.7248   22.1152 N   0  0  0  0  0  0  0  0  0  0  0  0
  -29.4256  -16.4153   19.2229 N   0  0  0  0  0  0  0  0  0  0  0  0
  -25.2272  -31.7938   21.2712 N   0  0  0  0  0  0  0  0  0  0  0  0
  -21.9502  -26.4675   19.2894 N   0  0  0  0  0  0  0  0  0  0  0  0
  -22.5560  -24.2221   16.5219 N   0  3  0  0  0  0  0  0  0  0  0  0
  -33.4400  -21.1831   20.9849 O   0  0  0  0  0  0  0  0  0  0  0  0
  -29.4842  -22.9066   19.3655 O   0  0  0  0  0  0  0  0  0  0  0  0
  -22.3451  -14.4686   20.6621 O   0  0  0  0  0  0  0  0  0  0  0  0
  -25.5846  -29.7036   22.2335 O   0  0  0  0  0  0  0  0  0  0  0  0
  -22.3988  -29.2763   19.6335 O   0  0  0  0  0  0  0  0  0  0  0  0
  -23.3982  -24.6603   19.1705 O   0  0  0  0  0  0  0  0  0  0  0  0
  -31.2544  -15.3503   18.2729 O   0  0  0  0  0  0  0  0  0  0  0  0
  -22.8502   -8.1077   25.1196 O   0  0  0  0  0  0  0  0  0  0  0  0
  -29.9243  -25.5784   20.8791 O   0  0  0  0  0  0  0  0  0  1  0  0
  -23.7357   -2.7711   24.0514 F   0  0  0  0  0  0  0  0  0  0  0  0
  -20.7361   -6.3543   24.8057 F   0  0  0  0  0  0  0  0  0  0  0  0
  -27.2837  -18.4872   19.8613 Cl  0  0  0  0  0  0  0  0  0  0  0  0
  1  2  1  0  0  0  0
  1  5  2  0  0  0  0
  2  6  2  0  0  0  0
  3 10  2  0  0  0  0
  3 18  1  0  0  0  0
  4 11  1  0  0  0  0
  4 18  2  0  0  0  0
  5 20  1  0  0  0  0
  6 22  1  0  0  0  0
  7 12  2  0  0  0  0
  7 21  1  0  0  0  0
  8  9  2  0  0  0  0
  8 24  1  0  0  0  0
  9 25  1  0  0  0  0
 10 26  1  0  0  0  0
 11 26  2  0  0  0  0
 12 27  1  0  0  0  0
 13 14  2  0  0  0  0
 13 28  1  0  0  0  0
 14 29  1  0  0  0  0
 15 23  1  0  0  0  0
 15 27  2  0  0  0  0
 16 24  2  0  0  0  0
 16 31  1  0  0  0  0
 17 29  2  0  0  0  0
 17 30  1  0  0  0  0
 18 32  1  0  0  0  0
 19 32  1  0  0  0  0
 19 33  2  0  0  0  0
 19 38  1  0  0  0  0
 20 22  2  0  0  0  0
 20 43  1  0  0  0  0
 21 23  2  0  0  0  0
 21 44  1  0  0  0  0
 22 52  1  0  0  0  0
 23 45  1  0  0  0  0
 24 66  1  0  0  0  0
 25 31  2  0  0  0  0
 25 71  1  0  0  0  0
 26 82  1  0  0  0  0
 27 83  1  0  0  0  0
 28 30  2  0  0  0  0
 28 82  1  0  0  0  0
 29 84  1  0  0  0  0
 30 85  1  0  0  0  0
 31 86  1  0  0  0  0
 32 64  2  0  0  0  0
 33 65  1  0  0  0  0
 33 69  1  0  0  0  0
 34 35  2  0  0  0  0
 34 36  1  0  0  0  0
 35 37  1  0  0  0  0
 35 60  1  0  0  0  0
 36 66  1  0  0  0  0
 36 75  2  0  0  0  0
 37 66  1  0  0  0  0
 37 76  2  0  0  0  0
 38 70  1  0  0  0  0
 38 77  2  0  0  0  0
 39 53  1  0  0  0  0
 39 72  1  0  0  0  0
 39 78  2  0  0  0  0
 40 61  1  0  0  0  0
 40 67  1  0  0  0  0
 40 79  2  0  0  0  0
 41 62  1  0  0  0  0
 41 73  1  0  0  0  0
 41 80  2  0  0  0  0
 42 68  1  0  0  0  0
 42 71  1  0  0  0  0
 42 81  2  0  0  0  0
 43 46  1  0  0  0  0
 44 53  1  0  0  0  0
 45 67  1  0  0  0  0
 46 48  1  0  0  0  0
 47 49  1  0  0  0  0
 47 50  1  0  0  0  0
 48 52  1  0  0  0  0
 49 54  1  0  0  0  0
 50 68  1  0  0  0  0
 51 54  1  0  0  0  0
 51 68  1  0  0  0  0
 52 72  1  0  0  0  0
 53 67  1  0  0  0  0
 54 65  1  0  0  0  0
 55 62  1  0  0  0  0
 56 63  1  0  0  0  0
 57 63  1  0  0  0  0
 58 63  1  0  0  0  0
 59 74  1  0  0  0  0
 60 83  1  0  0  0  0
 61 63  1  0  0  0  0
 61 73  1  0  0  0  0
 62 74  1  0  0  0  0
 64 65  1  0  0  0  0
M  CHG  1  74   1
M  ISO  4  42 100  60 101  71 100  83 101
M  END
> <Batch ID>
0084

> <Smiles>
CNC(C)C(=O)NC(C(=O)N1Cc2cc([101O:1][101CH2:1]C3=CC(=O)N(c4ccc([100NH:0][100C:0](=O)N5CCCC(n6nc(-c7ccc(Oc8ccc(F)cc8F)cc7)c(C(N)=O)c6N)C5)c(Cl)c4)C3=O)ccc2CC1C(=O)NC1CCCc2ccccc21)C(C)(C)C

> <Shape>
0.298

> <Color>
0.132

> <Negative vol penalty>
0.000

$$$$

  -OEChem-04052300123D

 81 89  0     1  0  0  0  0  0999 V2000
  -30.4355  -24.0142   19.7651 C   0  0  0  0  0  0  0  0  0  0  0  0
  -28.1322  -10.9535   21.1847 C   0  0  0  0  0  0  0  0  0  0  0  0
  -28.7321  -12.1834   20.9339 C   0  0  0  0  0  0  0  0  0  0  0  0
  -25.4419  -29.3744   20.9827 C   0  0  0  0  0  0  0  0  0  0  0  0
  -23.1374  -29.9402   20.5289 C   0  0  0  0  0  0  0  0  0  0  0  0
  -26.7612  -10.7948   20.9871 C   0  0  0  0  0  0  0  0  0  0  0  0
  -27.9615  -13.2550   20.4843 C   0  0  0  0  0  0  0  0  0  0  0  0
  -28.7496  -19.1771   21.8308 C   0  0  0  0  0  0  0  0  0  0  0  0
  -25.6113  -30.5922   21.6414 C   0  0  0  0  0  0  0  0  0  0  0  0
  -23.3067  -31.1580   21.1876 C   0  0  0  0  0  0  0  0  0  0  0  0
  -29.3625  -20.2224   21.1411 C   0  0  0  0  0  0  0  0  0  0  0  0
  -24.8706  -31.9130   24.6646 C   0  0  0  0  0  0  0  0  0  0  0  0
  -25.5406  -31.9006   25.8879 C   0  0  0  0  0  0  0  0  0  0  0  0
  -29.6234  -24.8228   17.0759 C   0  0  0  0  0  0  0  0  0  0  0  0
  -27.2175  -20.8942   20.2654 C   0  0  0  0  0  0  0  0  0  0  0  0
  -27.2200  -33.3832   24.9830 C   0  0  0  0  0  0  0  0  0  0  0  0
  -31.2091  -24.6614   15.3842 C   0  0  0  0  0  0  0  0  0  0  0  0
  -24.2050  -29.0484   20.4263 C   0  0  0  0  0  0  0  0  0  0  0  0
  -29.8642  -24.7282   15.6747 C   0  0  0  0  0  0  0  0  0  0  0  0
  -23.6182  -26.5686   20.3096 C   0  0  0  0  0  0  0  0  0  0  0  0
  -25.9717  -11.8677   20.5440 C   0  0  0  0  0  0  0  0  0  0  0  0
  -27.3653  -18.9756   21.7341 C   0  0  0  0  0  0  0  0  0  0  0  0
  -26.5789  -13.1101   20.2792 C   0  0  0  0  0  0  0  0  0  0  0  0
  -26.5891  -19.8472   20.9569 C   0  0  0  0  0  0  0  0  0  0  0  0
  -24.5436  -31.4840   21.7439 C   0  0  0  0  0  0  0  0  0  0  0  0
  -28.5968  -21.0794   20.3560 C   0  0  0  0  0  0  0  0  0  0  0  0
  -25.3752  -32.6604   23.6005 C   0  0  0  0  0  0  0  0  0  0  0  0
  -26.7153  -32.6357   26.0471 C   0  0  0  0  0  0  0  0  0  0  0  0
  -26.5499  -33.3955   23.7597 C   0  0  0  0  0  0  0  0  0  0  0  0
  -24.0296  -27.7909   19.7453 C   0  0  0  0  0  0  0  0  0  0  0  0
  -30.7935  -24.8244   17.8030 C   0  0  0  0  0  0  0  0  0  0  0  0
  -23.6091  -25.6891   19.2547 C   0  0  0  0  0  0  0  0  0  0  0  0
  -29.8679  -23.0421   20.4051 C   0  0  0  0  0  0  0  0  0  1  0  0
  -28.8179  -24.7024   14.6205 C   0  0  0  0  0  0  0  0  0  0  0  0
  -23.2749  -26.2561   21.6662 C   0  0  0  0  0  0  0  0  0  0  0  0
  -25.5096  -16.6256   20.6676 C   0  0  0  0  0  0  0  0  0  0  0  0
  -23.1350  -18.4809   21.8682 C   0  0  0  0  0  0  0  0  0  0  0  0
  -22.0702  -21.5915   22.7831 C   0  0  0  0  0  0  0  0  0  0  0  0
  -26.5270  -25.4668   14.0808 C   0  0  0  0  0  0  0  0  0  0  0  0
  -24.5018  -11.6349   20.2996 C   0  0  0  0  0  0  0  0  0  0  0  0
  -26.7157  -17.8597   22.5056 C   0  0  0  0  0  0  0  0  0  0  0  0
  -25.0965  -19.6862   20.8362 C   0  0  0  0  0  0  0  0  0  0  0  0
  -23.6927  -12.9239   20.1799 C   0  0  0  0  0  0  0  0  0  0  0  0
  -23.0178  -25.5481   14.5000 C   0  0  0  0  0  0  0  0  0  0  0  0
  -24.3979  -13.9131   19.2574 C   0  0  0  0  0  0  0  0  0  0  0  0
  -22.8379  -26.0062   15.9498 C   0  0  0  0  0  0  0  0  0  0  0  0
  -24.1909  -26.2554   13.8229 C   0  0  0  0  0  0  0  0  0  0  0  0
  -25.2823  -26.6441   15.9945 C   0  0  0  0  0  0  0  0  0  0  0  0
  -25.7724  -14.3032   19.8142 C   0  0  1  0  0  0  0  0  0  0  0  0
  -25.3700  -17.4363   21.9249 C   0  0  1  0  0  0  0  0  0  0  0  0
  -24.1574  -25.9094   16.7416 C   0  0  1  0  0  0  0  0  0  0  0  0
  -20.0682  -22.7995   23.6941 C   0  0  0  0  0  0  0  0  0  0  0  0
  -21.7954  -18.3195   19.1315 C   0  0  0  0  0  0  0  0  0  0  0  0
  -20.3604  -20.2601   19.7969 C   0  0  0  0  0  0  0  0  0  0  0  0
  -20.2308  -18.1202   21.0723 C   0  0  0  0  0  0  0  0  0  0  0  0
  -23.5490  -22.4650   25.1934 C   0  0  0  0  0  0  0  0  0  0  0  0
  -22.2698  -19.5932   21.3267 C   0  0  1  0  0  0  0  0  0  0  0  0
  -21.3688  -22.0885   24.0343 C   0  0  2  0  0  0  0  0  0  0  0  0
  -21.1925  -19.0754   20.3324 C   0  0  0  0  0  0  0  0  0  0  0  0
  -24.2651  -27.6999   18.4336 N   0  0  0  0  0  0  0  0  0  0  0  0
  -30.9572  -24.9040   19.2008 N   0  0  0  0  0  0  0  0  0  0  0  0
  -24.0008  -26.4099   18.1651 N   0  0  0  0  0  0  0  0  0  0  0  0
  -24.5087  -18.5764   21.6045 N   0  0  0  0  0  0  0  0  0  0  0  0
  -25.4034  -26.1088   14.6301 N   0  0  0  0  0  0  0  0  0  0  0  0
  -23.3045  -24.3772   19.1621 N   0  0  0  0  0  0  0  0  0  0  0  0
  -23.3379  -27.2778   22.6236 N   0  0  0  0  0  0  0  0  0  0  0  0
  -27.6197  -25.3388   14.9456 N   0  0  0  0  0  0  0  0  0  0  0  0
  -25.6292  -15.2662   20.8850 N   0  0  0  0  0  0  0  0  0  0  0  0
  -21.7260  -20.2894   22.4877 N   0  0  0  0  0  0  0  0  0  0  0  0
  -22.2443  -23.0396   24.7758 N   0  3  0  0  0  0  0  0  0  0  0  0
  -29.0698  -24.1748   13.5407 O   0  0  0  0  0  0  0  0  0  0  0  0
  -22.9384  -25.1013   22.0219 O   0  0  0  0  0  0  0  0  0  0  0  0
  -25.5074  -17.1913   19.5806 O   0  0  0  0  0  0  0  0  0  0  0  0
  -22.6122  -17.5649   22.5080 O   0  0  0  0  0  0  0  0  0  0  0  0
  -22.8432  -22.2898   22.1309 O   0  0  0  0  0  0  0  0  0  0  0  0
  -26.5432  -25.0128   12.9324 O   0  0  0  0  0  0  0  0  0  0  0  0
  -24.7084  -32.6723   22.3868 O   0  0  0  0  0  0  0  0  0  0  0  0
  -29.1925  -22.1000   19.6812 O   0  0  0  0  0  0  0  0  0  1  0  0
  -27.3578  -32.6250   27.2224 F   0  0  0  0  0  0  0  0  0  0  0  0
  -27.0389  -34.1164   22.7414 F   0  0  0  0  0  0  0  0  0  0  0  0
  -32.1750  -24.7125   16.7973 S   0  0  0  0  0  0  0  0  0  0  0  0
  1 33  2  0  0  0  0
  1 61  2  0  0  0  0
  2  3  1  0  0  0  0
  2  6  2  0  0  0  0
  3  7  2  0  0  0  0
  4  9  2  0  0  0  0
  4 18  1  0  0  0  0
  5 10  1  0  0  0  0
  5 18  2  0  0  0  0
  6 21  1  0  0  0  0
  7 23  1  0  0  0  0
  8 11  2  0  0  0  0
  8 22  1  0  0  0  0
  9 25  1  0  0  0  0
 10 25  2  0  0  0  0
 11 26  1  0  0  0  0
 12 13  2  0  0  0  0
 12 27  1  0  0  0  0
 13 28  1  0  0  0  0
 14 19  1  0  0  0  0
 14 31  2  0  0  0  0
 15 24  1  0  0  0  0
 15 26  2  0  0  0  0
 16 28  2  0  0  0  0
 16 29  1  0  0  0  0
 17 19  2  0  0  0  0
 17 81  1  0  0  0  0
 18 30  1  0  0  0  0
 19 34  1  0  0  0  0
 20 30  1  0  0  0  0
 20 32  2  0  0  0  0
 20 35  1  0  0  0  0
 21 23  2  0  0  0  0
 21 40  1  0  0  0  0
 22 24  2  0  0  0  0
 22 41  1  0  0  0  0
 23 49  1  0  0  0  0
 24 42  1  0  0  0  0
 25 77  1  0  0  0  0
 26 78  1  0  0  0  0
 27 29  2  0  0  0  0
 27 77  1  0  0  0  0
 28 79  1  0  0  0  0
 29 80  1  0  0  0  0
 30 60  2  0  0  0  0
 31 61  1  0  0  0  0
 31 81  1  0  0  0  0
 32 62  1  0  0  0  0
 32 65  1  0  0  0  0
 33 78  1  0  0  0  0
 34 67  1  0  0  0  0
 34 71  2  0  0  0  0
 35 66  1  0  0  0  0
 35 72  2  0  0  0  0
 36 50  1  0  0  0  0
 36 68  1  0  0  0  0
 36 73  2  0  0  0  0
 37 57  1  0  0  0  0
 37 63  1  0  0  0  0
 37 74  2  0  0  0  0
 38 58  1  0  0  0  0
 38 69  1  0  0  0  0
 38 75  2  0  0  0  0
 39 64  1  0  0  0  0
 39 67  1  0  0  0  0
 39 76  2  0  0  0  0
 40 43  1  0  0  0  0
 41 50  1  0  0  0  0
 42 63  1  0  0  0  0
 43 45  1  0  0  0  0
 44 46  1  0  0  0  0
 44 47  1  0  0  0  0
 45 49  1  0  0  0  0
 46 51  1  0  0  0  0
 47 64  1  0  0  0  0
 48 51  1  0  0  0  0
 48 64  1  0  0  0  0
 49 68  1  0  0  0  0
 50 63  1  0  0  0  0
 51 62  1  0  0  0  0
 52 58  1  0  0  0  0
 53 59  1  0  0  0  0
 54 59  1  0  0  0  0
 55 59  1  0  0  0  0
 56 70  1  0  0  0  0
 57 59  1  0  0  0  0
 57 69  1  0  0  0  0
 58 70  1  0  0  0  0
 60 62  1  0  0  0  0
M  CHG  1  70   1
M  ISO  4  33 101  39 100  67 100  78 101
M  END
> <Batch ID>
0084

> <Smiles>
CNC(C)C(=O)NC(C(=O)N1Cc2cc([101O:1][101CH:1]=C=Nc3cc(C(=O)[100NH:0][100C:0](=O)N4CCCC(n5nc(-c6ccc(Oc7ccc(F)cc7F)cc6)c(C(N)=O)c5N)C4)cs3)ccc2CC1C(=O)NC1CCCc2ccccc21)C(C)(C)C

> <Shape>
0.211

> <Color>
0.063

> <Negative vol penalty>
0.000

$$$$

  -OEChem-04052300123D

 87 96  0     1  0  0  0  0  0999 V2000
  -27.2086  -32.2039   25.0625 C   0  0  0  0  0  0  0  0  0  0  0  0
  -27.5546  -31.0532   24.3614 C   0  0  0  0  0  0  0  0  0  0  0  0
  -23.1000   -9.7336   20.0383 C   0  0  0  0  0  0  0  0  0  0  0  0
  -23.7808   -9.9380   22.3474 C   0  0  0  0  0  0  0  0  0  0  0  0
  -26.8060  -33.3456   24.3709 C   0  0  0  0  0  0  0  0  0  0  0  0
  -27.4971  -31.0432   22.9682 C   0  0  0  0  0  0  0  0  0  0  0  0
  -31.5741  -28.8928   20.8709 C   0  0  0  0  0  0  0  0  0  0  0  0
  -31.0490  -19.2175   20.2349 C   0  0  0  0  0  0  0  0  0  0  0  0
  -30.9085  -17.8341   20.3452 C   0  0  0  0  0  0  0  0  0  0  0  0
  -22.3841   -8.5783   20.3517 C   0  0  0  0  0  0  0  0  0  0  0  0
  -23.0648   -8.7827   22.6608 C   0  0  0  0  0  0  0  0  0  0  0  0
  -31.6305  -27.4998   20.8713 C   0  0  0  0  0  0  0  0  0  0  0  0
  -23.4770   -5.4398   22.3673 C   0  0  0  0  0  0  0  0  0  0  0  0
  -24.0991   -4.4924   23.1803 C   0  0  0  0  0  0  0  0  0  0  0  0
  -29.3566  -19.5248   21.9314 C   0  0  0  0  0  0  0  0  0  0  0  0
  -30.8936  -27.4752   18.5744 C   0  0  0  0  0  0  0  0  0  0  0  0
  -22.3360   -4.7367   24.8140 C   0  0  0  0  0  0  0  0  0  0  0  0
  -23.7985  -10.4135   21.0362 C   0  0  0  0  0  0  0  0  0  0  0  0
  -29.2160  -18.1415   22.0418 C   0  0  0  0  0  0  0  0  0  0  0  0
  -24.0660  -12.9325   20.7352 C   0  0  0  0  0  0  0  0  0  0  0  0
  -26.7528  -33.3526   22.9681 C   0  0  0  0  0  0  0  0  0  0  0  0
  -31.1659  -29.5883   19.7236 C   0  0  0  0  0  0  0  0  0  0  0  0
  -27.0921  -32.1856   22.2572 C   0  0  0  0  0  0  0  0  0  0  0  0
  -30.8354  -28.8772   18.5612 C   0  0  0  0  0  0  0  0  0  0  0  0
  -30.2731  -20.0628   21.0280 C   0  0  0  0  0  0  0  0  0  0  0  0
  -29.9920  -17.2961   21.2486 C   0  0  0  0  0  0  0  0  0  0  0  0
  -22.3664   -8.1029   21.6629 C   0  0  0  0  0  0  0  0  0  0  0  0
  -31.2874  -26.7906   19.7239 C   0  0  0  0  0  0  0  0  0  0  0  0
  -22.2844   -6.0358   22.7777 C   0  0  0  0  0  0  0  0  0  0  0  0
  -23.5286   -4.1408   24.4037 C   0  0  0  0  0  0  0  0  0  0  0  0
  -21.7139   -5.6842   24.0010 C   0  0  0  0  0  0  0  0  0  0  0  0
  -24.5387  -11.6067   20.7130 C   0  0  0  0  0  0  0  0  0  0  0  0
  -25.1462  -13.6886   20.3506 C   0  0  0  0  0  0  0  0  0  0  0  0
  -30.5308  -23.4126   20.7031 C   0  0  0  0  0  0  0  0  0  0  0  0
  -29.8041  -22.4634   21.5472 C   0  0  0  0  0  0  0  0  0  0  0  0
  -25.8744  -17.5052   23.6650 C   0  0  0  0  0  0  0  0  0  0  0  0
  -30.5588  -24.7548   20.6157 C   0  0  0  0  0  0  0  0  0  1  0  0
  -26.8040  -17.9796   22.8299 C   0  0  0  0  0  0  0  0  0  0  0  0
  -28.2475  -17.6112   22.9934 C   0  0  0  0  0  0  0  0  0  0  0  0
  -22.7667  -13.4356   21.0733 C   0  0  0  0  0  0  0  0  0  0  0  0
  -28.7588  -31.5423   19.0229 C   0  0  0  0  0  0  0  0  0  0  0  0
  -30.3425  -31.8525   16.2089 C   0  0  0  0  0  0  0  0  0  0  0  0
  -32.5431  -30.5282   13.9616 C   0  0  0  0  0  0  0  0  0  0  0  0
  -30.5684  -14.9262   20.6180 C   0  0  0  0  0  0  0  0  0  0  0  0
  -26.2660  -34.5957   22.2664 C   0  0  0  0  0  0  0  0  0  0  0  0
  -31.1361  -31.0921   19.7310 C   0  0  0  0  0  0  0  0  0  0  0  0
  -30.4103  -29.5773   17.2972 C   0  0  0  0  0  0  0  0  0  0  0  0
  -31.1969  -22.2454   20.0112 C   0  0  0  0  0  0  0  0  0  0  0  0
  -26.5916  -34.6204   20.7752 C   0  0  0  0  0  0  0  0  0  0  0  0
  -29.6104  -12.3056   18.4062 C   0  0  0  0  0  0  0  0  0  0  0  0
  -26.2434  -33.2824   20.1306 C   0  0  0  0  0  0  0  0  0  0  0  0
  -28.1666  -11.9992   18.8110 C   0  0  0  0  0  0  0  0  0  0  0  0
  -30.4765  -12.6544   19.6153 C   0  0  0  0  0  0  0  0  0  0  0  0
  -28.5022  -13.4164   20.8764 C   0  0  0  0  0  0  0  0  0  0  0  0
  -27.0663  -32.1434   20.7447 C   0  0  1  0  0  0  0  0  0  0  0  0
  -30.2124  -31.6767   18.6669 C   0  0  1  0  0  0  0  0  0  0  0  0
  -27.5759  -13.1229   19.6851 C   0  0  2  0  0  0  0  0  0  0  0  0
  -33.6095  -30.9960   11.7388 C   0  0  0  0  0  0  0  0  0  0  0  0
  -27.7394  -31.1022   14.8049 C   0  0  0  0  0  0  0  0  0  0  0  0
  -29.0678  -30.6599   12.7293 C   0  0  0  0  0  0  0  0  0  0  0  0
  -29.0186  -32.9523   13.7117 C   0  0  0  0  0  0  0  0  0  0  0  0
  -35.2604  -30.5257   15.1343 C   0  0  0  0  0  0  0  0  0  0  0  0
  -30.3199  -31.1291   14.8841 C   0  0  1  0  0  0  0  0  0  0  0  0
  -33.7394  -31.1314   13.2479 C   0  0  2  0  0  0  0  0  0  0  0  0
  -29.0426  -31.4473   14.0568 C   0  0  0  0  0  0  0  0  0  0  0  0
  -25.8195  -11.5220   20.3434 N   0  0  0  0  0  0  0  0  0  0  0  0
  -26.1607  -12.8042   20.1297 N   0  0  0  0  0  0  0  0  0  0  0  0
  -30.4118  -21.4270   20.9182 N   0  0  0  0  0  0  0  0  0  0  0  0
  -30.3909  -31.0482   17.3564 N   0  0  0  0  0  0  0  0  0  0  0  0
  -29.8564  -13.7289   20.3936 N   0  0  0  0  0  0  0  0  0  0  0  0
  -25.3178  -15.0171   20.1832 N   0  0  0  0  0  0  0  0  0  0  0  0
  -21.7725  -12.5210   21.4466 N   0  0  0  0  0  0  0  0  0  0  0  0
  -29.8653  -15.8880   21.3427 N   0  0  0  0  0  0  0  0  0  0  0  0
  -28.4129  -32.1501   20.2147 N   0  0  0  0  0  0  0  0  0  0  0  0
  -31.5683  -31.4710   14.2111 N   0  0  0  0  0  0  0  0  0  0  0  0
  -34.9945  -30.4506   13.6746 N   0  3  0  0  0  0  0  0  0  0  0  0
  -28.9836  -22.5565   22.4362 O   0  0  0  0  0  0  0  0  0  0  0  0
  -28.6044  -16.8507   23.9039 O   0  0  0  0  0  0  0  0  0  0  0  0
  -22.4907  -14.6585   21.0293 O   0  0  0  0  0  0  0  0  0  0  0  0
  -28.0064  -30.9337   18.2711 O   0  0  0  0  0  0  0  0  0  0  0  0
  -30.3252  -33.0858   16.2249 O   0  0  0  0  0  0  0  0  0  0  0  0
  -32.4781  -29.3387   14.2641 O   0  0  0  0  0  0  0  0  0  0  0  0
  -31.7070  -15.0970   20.1748 O   0  0  0  0  0  0  0  0  0  0  0  0
  -21.6677   -6.9757   21.9690 O   0  0  0  0  0  0  0  0  0  0  0  0
  -31.3409  -25.4308   19.7218 O   0  0  0  0  0  0  0  0  0  1  0  0
  -24.1252   -3.2299   25.1836 F   0  0  0  0  0  0  0  0  0  0  0  0
  -20.5678   -6.2524   24.4001 F   0  0  0  0  0  0  0  0  0  0  0  0
  1  2  1  0  0  0  0
  1  5  2  0  0  0  0
  2  6  2  0  0  0  0
  3 10  2  0  0  0  0
  3 18  1  0  0  0  0
  4 11  1  0  0  0  0
  4 18  2  0  0  0  0
  5 21  1  0  0  0  0
  6 23  1  0  0  0  0
  7 12  2  0  0  0  0
  7 22  1  0  0  0  0
  8  9  2  0  0  0  0
  8 25  1  0  0  0  0
  9 26  1  0  0  0  0
 10 27  1  0  0  0  0
 11 27  2  0  0  0  0
 12 28  1  0  0  0  0
 13 14  2  0  0  0  0
 13 29  1  0  0  0  0
 14 30  1  0  0  0  0
 15 19  1  0  0  0  0
 15 25  2  0  0  0  0
 16 24  1  0  0  0  0
 16 28  2  0  0  0  0
 17 30  2  0  0  0  0
 17 31  1  0  0  0  0
 18 32  1  0  0  0  0
 19 26  2  0  0  0  0
 19 39  1  0  0  0  0
 20 32  1  0  0  0  0
 20 33  2  0  0  0  0
 20 40  1  0  0  0  0
 21 23  2  0  0  0  0
 21 45  1  0  0  0  0
 22 24  2  0  0  0  0
 22 46  1  0  0  0  0
 23 55  1  0  0  0  0
 24 47  1  0  0  0  0
 25 68  1  0  0  0  0
 26 73  1  0  0  0  0
 27 84  1  0  0  0  0
 28 85  1  0  0  0  0
 29 31  2  0  0  0  0
 29 84  1  0  0  0  0
 30 86  1  0  0  0  0
 31 87  1  0  0  0  0
 32 66  2  0  0  0  0
 33 67  1  0  0  0  0
 33 71  1  0  0  0  0
 34 35  1  0  0  0  0
 34 37  2  0  0  0  0
 34 48  1  0  0  0  0
 35 68  1  0  0  0  0
 35 77  2  0  0  0  0
 36 38  2  0  0  0  0
 37 85  1  0  0  0  0
 38 39  1  0  0  0  0
 39 78  2  0  0  0  0
 40 72  1  0  0  0  0
 40 79  2  0  0  0  0
 41 56  1  0  0  0  0
 41 74  1  0  0  0  0
 41 80  2  0  0  0  0
 42 63  1  0  0  0  0
 42 69  1  0  0  0  0
 42 81  2  0  0  0  0
 43 64  1  0  0  0  0
 43 75  1  0  0  0  0
 43 82  2  0  0  0  0
 44 70  1  0  0  0  0
 44 73  1  0  0  0  0
 44 83  2  0  0  0  0
 45 49  1  0  0  0  0
 46 56  1  0  0  0  0
 47 69  1  0  0  0  0
 48 68  1  0  0  0  0
 49 51  1  0  0  0  0
 50 52  1  0  0  0  0
 50 53  1  0  0  0  0
 51 55  1  0  0  0  0
 52 57  1  0  0  0  0
 53 70  1  0  0  0  0
 54 57  1  0  0  0  0
 54 70  1  0  0  0  0
 55 74  1  0  0  0  0
 56 69  1  0  0  0  0
 57 67  1  0  0  0  0
 58 64  1  0  0  0  0
 59 65  1  0  0  0  0
 60 65  1  0  0  0  0
 61 65  1  0  0  0  0
 62 76  1  0  0  0  0
 63 65  1  0  0  0  0
 63 75  1  0  0  0  0
 64 76  1  0  0  0  0
 66 67  1  0  0  0  0
M  CHG  1  76   1
M  ISO  4  37 101  44 100  73 100  85 101
M  END
> <Batch ID>
0084

> <Smiles>
C=CC(=O)c1cc(N2CC(=[101CH:1][101O:1]c3ccc4c(c3)CN(C(=O)C(NC(=O)C(C)NC)C(C)(C)C)C(C(=O)NC3CCCc5ccccc53)C4)C2=O)ccc1[100NH:0][100C:0](=O)N1CCCC(n2nc(-c3ccc(Oc4ccc(F)cc4F)cc3)c(C(N)=O)c2N)C1

> <Shape>
0.272

> <Color>
0.197

> <Negative vol penalty>
0.000

$$$$

  -OEChem-04052300123D

 84 93  0     1  0  0  0  0  0999 V2000
  -27.0409  -35.1570   25.5075 C   0  0  0  0  0  0  0  0  0  0  0  0
  -27.6769  -34.3990   26.4855 C   0  0  0  0  0  0  0  0  0  0  0  0
  -23.2407  -10.1721   22.1500 C   0  0  0  0  0  0  0  0  0  0  0  0
  -23.5368   -9.5400   19.8371 C   0  0  0  0  0  0  0  0  0  0  0  0
  -25.8699  -34.6867   24.9146 C   0  0  0  0  0  0  0  0  0  0  0  0
  -27.1416  -33.1708   26.8720 C   0  0  0  0  0  0  0  0  0  0  0  0
  -32.6581  -17.3130   23.5873 C   0  0  0  0  0  0  0  0  0  0  0  0
  -30.9744  -27.1012   26.2716 C   0  0  0  0  0  0  0  0  0  0  0  0
  -32.0644  -16.4537   22.6631 C   0  0  0  0  0  0  0  0  0  0  0  0
  -22.4810   -9.0226   22.3670 C   0  0  0  0  0  0  0  0  0  0  0  0
  -22.7770   -8.3905   20.0540 C   0  0  0  0  0  0  0  0  0  0  0  0
  -31.7186  -25.9267   26.3847 C   0  0  0  0  0  0  0  0  0  0  0  0
  -23.0392   -5.7261   22.8713 C   0  0  0  0  0  0  0  0  0  0  0  0
  -23.3051   -4.9805   24.0198 C   0  0  0  0  0  0  0  0  0  0  0  0
  -29.8900  -17.3140   23.2609 C   0  0  0  0  0  0  0  0  0  0  0  0
  -29.7600  -24.7492   27.1756 C   0  0  0  0  0  0  0  0  0  0  0  0
  -21.0337   -5.3235   24.7683 C   0  0  0  0  0  0  0  0  0  0  0  0
  -23.7686  -10.4308   20.8851 C   0  0  0  0  0  0  0  0  0  0  0  0
  -24.1408  -12.9539   20.8279 C   0  0  0  0  0  0  0  0  0  0  0  0
  -25.3252  -33.4477   25.2871 C   0  0  0  0  0  0  0  0  0  0  0  0
  -29.6149  -27.1004   26.5958 C   0  0  0  0  0  0  0  0  0  0  0  0
  -31.8737  -18.1864   24.3542 C   0  0  0  0  0  0  0  0  0  0  0  0
  -25.9615  -32.6842   26.2845 C   0  0  0  0  0  0  0  0  0  0  0  0
  -30.4752  -18.1733   24.2015 C   0  0  0  0  0  0  0  0  0  0  0  0
  -29.0066  -25.9196   27.0524 C   0  0  0  0  0  0  0  0  0  0  0  0
  -30.6817  -16.4563   22.4981 C   0  0  0  0  0  0  0  0  0  0  0  0
  -22.2491   -8.1318   21.3190 C   0  0  0  0  0  0  0  0  0  0  0  0
  -31.1129  -24.7537   26.8358 C   0  0  0  0  0  0  0  0  0  0  0  0
  -21.7706   -6.2706   22.6714 C   0  0  0  0  0  0  0  0  0  0  0  0
  -22.3024   -4.7792   24.9682 C   0  0  0  0  0  0  0  0  0  0  0  0
  -20.7679   -6.0692   23.6199 C   0  0  0  0  0  0  0  0  0  0  0  0
  -24.5531  -11.6183   20.6602 C   0  0  0  0  0  0  0  0  0  0  0  0
  -25.2436  -13.6989   20.4886 C   0  0  0  0  0  0  0  0  0  0  0  0
  -22.8741  -13.4745   21.2525 C   0  0  0  0  0  0  0  0  0  0  0  0
  -26.4253  -29.0608   26.8401 C   0  0  0  0  0  0  0  0  0  0  0  0
  -32.1314  -21.3886   26.1758 C   0  0  0  0  0  0  0  0  0  0  0  0
  -25.6914  -26.3010   25.7197 C   0  0  0  0  0  0  0  0  0  0  0  0
  -24.2600  -23.6651   24.0948 C   0  0  0  0  0  0  0  0  0  0  0  0
  -30.7207  -14.6749   20.7172 C   0  0  0  0  0  0  0  0  0  0  0  0
  -24.0317  -33.0028   24.6519 C   0  0  0  0  0  0  0  0  0  0  0  0
  -28.7888  -28.3571   26.5478 C   0  0  0  0  0  0  0  0  0  0  0  0
  -29.6036  -19.1107   24.9977 C   0  0  0  0  0  0  0  0  0  0  0  0
  -32.5459  -19.0945   25.3539 C   0  0  0  0  0  0  0  0  0  0  0  0
  -27.5496  -25.9742   27.4228 C   0  0  0  0  0  0  0  0  0  0  0  0
  -23.7345  -31.5187   24.8503 C   0  0  0  0  0  0  0  0  0  0  0  0
  -29.5911  -12.3323   18.2855 C   0  0  0  0  0  0  0  0  0  0  0  0
  -23.9632  -31.1182   26.3043 C   0  0  0  0  0  0  0  0  0  0  0  0
  -28.1458  -12.0476   18.7003 C   0  0  0  0  0  0  0  0  0  0  0  0
  -30.3041  -19.6263   26.2514 C   0  0  0  0  0  0  0  0  0  0  0  0
  -30.5022  -12.5212   19.4971 C   0  0  0  0  0  0  0  0  0  0  0  0
  -28.5963  -13.2347   20.8854 C   0  0  0  0  0  0  0  0  0  0  0  0
  -25.4252  -31.3355   26.7129 C   0  0  1  0  0  0  0  0  0  0  0  0
  -27.3315  -28.1054   26.1209 C   0  0  1  0  0  0  0  0  0  0  0  0
  -27.6280  -13.1015   19.6987 C   0  0  2  0  0  0  0  0  0  0  0  0
  -22.0626  -22.4886   23.8038 C   0  0  0  0  0  0  0  0  0  0  0  0
  -26.0103  -25.0317   28.4748 C   0  0  0  0  0  0  0  0  0  0  0  0
  -24.4134  -23.2420   27.7569 C   0  0  0  0  0  0  0  0  0  0  0  0
  -23.6575  -25.6170   27.8615 C   0  0  0  0  0  0  0  0  0  0  0  0
  -24.2226  -24.2079   21.1857 C   0  0  0  0  0  0  0  0  0  0  0  0
  -31.1499  -22.3768   26.7532 C   0  0  0  0  0  0  0  0  0  1  0  0
  -25.2300  -24.8968   26.0174 C   0  0  1  0  0  0  0  0  0  0  0  0
  -22.9947  -23.5614   23.2625 C   0  0  2  0  0  0  0  0  0  0  0  0
  -24.8516  -24.7019   27.5128 C   0  0  0  0  0  0  0  0  0  0  0  0
  -25.8190  -11.5176   20.2464 N   0  0  0  0  0  0  0  0  0  0  0  0
  -26.2117  -12.7993   20.1511 N   0  0  0  0  0  0  0  0  0  0  0  0
  -31.6485  -20.1054   25.9189 N   0  0  0  0  0  0  0  0  0  0  0  0
  -26.8074  -26.7636   26.4275 N   0  0  0  0  0  0  0  0  0  0  0  0
  -29.9505  -13.5371   20.3962 N   0  0  0  0  0  0  0  0  0  0  0  0
  -25.4701  -15.0291   20.4489 N   0  0  0  0  0  0  0  0  0  0  0  0
  -21.8497  -12.5696   21.5624 N   0  0  0  0  0  0  0  0  0  0  0  0
  -30.0797  -15.5876   21.5543 N   0  0  0  0  0  0  0  0  0  0  0  0
  -26.2582  -30.2714   26.1951 N   0  0  0  0  0  0  0  0  0  0  0  0
  -24.1434  -24.6178   25.0848 N   0  0  0  0  0  0  0  0  0  0  0  0
  -23.3300  -23.2237   21.8502 N   0  3  0  0  0  0  0  0  0  0  0  0
  -22.6520  -14.7061   21.3383 O   0  0  0  0  0  0  0  0  0  0  0  0
  -25.9134  -28.7250   27.9017 O   0  0  0  0  0  0  0  0  0  0  0  0
  -33.2914  -21.7472   25.9566 O   0  0  0  0  0  0  0  0  0  0  0  0
  -25.0774  -26.9738   24.8868 O   0  0  0  0  0  0  0  0  0  0  0  0
  -25.2511  -22.9679   23.8898 O   0  0  0  0  0  0  0  0  0  0  0  0
  -31.8543  -14.8414   20.2598 O   0  0  0  0  0  0  0  0  0  0  0  0
  -21.5080   -7.0099   21.5303 O   0  0  0  0  0  0  0  0  0  0  0  0
  -31.8442  -23.6095   26.9396 O   0  0  0  0  0  0  0  0  0  1  0  0
  -22.5574   -4.0618   26.0703 F   0  0  0  0  0  0  0  0  0  0  0  0
  -19.5468   -6.5887   23.4327 F   0  0  0  0  0  0  0  0  0  0  0  0
  1  2  1  0  0  0  0
  1  5  2  0  0  0  0
  2  6  2  0  0  0  0
  3 10  2  0  0  0  0
  3 18  1  0  0  0  0
  4 11  1  0  0  0  0
  4 18  2  0  0  0  0
  5 20  1  0  0  0  0
  6 23  1  0  0  0  0
  7  9  2  0  0  0  0
  7 22  1  0  0  0  0
  8 12  2  0  0  0  0
  8 21  1  0  0  0  0
  9 26  1  0  0  0  0
 10 27  1  0  0  0  0
 11 27  2  0  0  0  0
 12 28  1  0  0  0  0
 13 14  2  0  0  0  0
 13 29  1  0  0  0  0
 14 30  1  0  0  0  0
 15 24  1  0  0  0  0
 15 26  2  0  0  0  0
 16 25  1  0  0  0  0
 16 28  2  0  0  0  0
 17 30  2  0  0  0  0
 17 31  1  0  0  0  0
 18 32  1  0  0  0  0
 19 32  1  0  0  0  0
 19 33  2  0  0  0  0
 19 34  1  0  0  0  0
 20 23  2  0  0  0  0
 20 40  1  0  0  0  0
 21 25  2  0  0  0  0
 21 41  1  0  0  0  0
 22 24  2  0  0  0  0
 22 43  1  0  0  0  0
 23 52  1  0  0  0  0
 24 42  1  0  0  0  0
 25 44  1  0  0  0  0
 26 71  1  0  0  0  0
 27 81  1  0  0  0  0
 28 82  1  0  0  0  0
 29 31  2  0  0  0  0
 29 81  1  0  0  0  0
 30 83  1  0  0  0  0
 31 84  1  0  0  0  0
 32 64  2  0  0  0  0
 33 65  1  0  0  0  0
 33 69  1  0  0  0  0
 34 70  1  0  0  0  0
 34 75  2  0  0  0  0
 35 53  1  0  0  0  0
 35 72  1  0  0  0  0
 35 76  2  0  0  0  0
 36 60  1  0  0  0  0
 36 66  1  0  0  0  0
 36 77  2  0  0  0  0
 37 61  1  0  0  0  0
 37 67  1  0  0  0  0
 37 78  2  0  0  0  0
 38 62  1  0  0  0  0
 38 73  1  0  0  0  0
 38 79  2  0  0  0  0
 39 68  1  0  0  0  0
 39 71  1  0  0  0  0
 39 80  2  0  0  0  0
 40 45  1  0  0  0  0
 41 53  1  0  0  0  0
 42 49  1  0  0  0  0
 43 66  1  0  0  0  0
 44 67  1  0  0  0  0
 45 47  1  0  0  0  0
 46 48  1  0  0  0  0
 46 50  1  0  0  0  0
 47 52  1  0  0  0  0
 48 54  1  0  0  0  0
 49 66  1  0  0  0  0
 50 68  1  0  0  0  0
 51 54  1  0  0  0  0
 51 68  1  0  0  0  0
 52 72  1  0  0  0  0
 53 67  1  0  0  0  0
 54 65  1  0  0  0  0
 55 62  1  0  0  0  0
 56 63  1  0  0  0  0
 57 63  1  0  0  0  0
 58 63  1  0  0  0  0
 59 74  1  0  0  0  0
 60 82  1  0  0  0  0
 61 63  1  0  0  0  0
 61 73  1  0  0  0  0
 62 74  1  0  0  0  0
 64 65  1  0  0  0  0
M  CHG  1  74   1
M  ISO  4  39 100  60 101  71 100  82 101
M  END
> <Batch ID>
0084

> <Smiles>
CNC(C)C(=O)NC(C(=O)N1Cc2cc([101O:1][101CH2:1]C(=O)N3CCc4cc([100NH:0][100C:0](=O)N5CCCC(n6nc(-c7ccc(Oc8ccc(F)cc8F)cc7)c(C(N)=O)c6N)C5)ccc4C3)ccc2CC1C(=O)NC1CCCc2ccccc21)C(C)(C)C

> <Shape>
0.224

> <Color>
0.208

> <Negative vol penalty>
0.000

$$$$

  -OEChem-04052300123D

 84 93  0     1  0  0  0  0  0999 V2000
  -28.2364  -10.8737   20.3255 C   0  0  0  0  0  0  0  0  0  0  0  0
  -28.6175  -12.0307   19.6535 C   0  0  0  0  0  0  0  0  0  0  0  0
  -34.8484  -24.3975   20.2001 C   0  0  0  0  0  0  0  0  0  0  0  0
  -36.2508  -22.8544   18.9138 C   0  0  0  0  0  0  0  0  0  0  0  0
  -24.6995  -28.8483   22.3711 C   0  0  0  0  0  0  0  0  0  0  0  0
  -24.8846  -30.4235   20.5486 C   0  0  0  0  0  0  0  0  0  0  0  0
  -33.5844  -24.8600   20.5676 C   0  0  0  0  0  0  0  0  0  0  0  0
  -26.9372  -10.7498   20.8161 C   0  0  0  0  0  0  0  0  0  0  0  0
  -27.6993  -13.0641   19.4708 C   0  0  0  0  0  0  0  0  0  0  0  0
  -29.6772  -17.6187   20.4649 C   0  0  0  0  0  0  0  0  0  0  0  0
  -36.3697  -21.7957   18.0130 C   0  0  0  0  0  0  0  0  0  0  0  0
  -24.2287  -29.8650   23.2020 C   0  0  0  0  0  0  0  0  0  0  0  0
  -24.4137  -31.4402   21.3794 C   0  0  0  0  0  0  0  0  0  0  0  0
  -30.4966  -18.1839   19.4886 C   0  0  0  0  0  0  0  0  0  0  0  0
  -23.3183  -32.1231   25.9031 C   0  0  0  0  0  0  0  0  0  0  0  0
  -23.8500  -32.2096   27.1897 C   0  0  0  0  0  0  0  0  0  0  0  0
  -32.5621  -23.2072   19.1354 C   0  0  0  0  0  0  0  0  0  0  0  0
  -28.6559  -19.5549   18.7461 C   0  0  0  0  0  0  0  0  0  0  0  0
  -26.0559  -32.5272   26.2569 C   0  0  0  0  0  0  0  0  0  0  0  0
  -34.9866  -23.3328   19.2947 C   0  0  0  0  0  0  0  0  0  0  0  0
  -33.8264  -22.7288   18.7543 C   0  0  0  0  0  0  0  0  0  0  0  0
  -25.0276  -29.1276   21.0444 C   0  0  0  0  0  0  0  0  0  0  0  0
  -32.4435  -24.2660   20.0362 C   0  0  0  0  0  0  0  0  0  0  0  0
  -33.9647  -21.6642   17.8488 C   0  0  0  0  0  0  0  0  0  0  0  0
  -24.7493  -27.2237   19.3695 C   0  0  0  0  0  0  0  0  0  0  0  0
  -26.0054  -11.7862   20.6478 C   0  0  0  0  0  0  0  0  0  0  0  0
  -28.3358  -18.0102   20.5821 C   0  0  0  0  0  0  0  0  0  0  0  0
  -26.3860  -12.9534   19.9585 C   0  0  0  0  0  0  0  0  0  0  0  0
  -27.8224  -18.9950   19.7263 C   0  0  0  0  0  0  0  0  0  0  0  0
  -24.0857  -31.1609   22.7061 C   0  0  0  0  0  0  0  0  0  0  0  0
  -29.9852  -19.1500   18.6272 C   0  0  0  0  0  0  0  0  0  0  0  0
  -35.2287  -21.2017   17.4815 C   0  0  0  0  0  0  0  0  0  0  0  0
  -24.1555  -32.2385   24.7933 C   0  0  0  0  0  0  0  0  0  0  0  0
  -25.2187  -32.4117   27.3666 C   0  0  0  0  0  0  0  0  0  0  0  0
  -25.5242  -32.4406   24.9702 C   0  0  0  0  0  0  0  0  0  0  0  0
  -25.5146  -28.0780   20.1858 C   0  0  0  0  0  0  0  0  0  0  0  0
  -25.6742  -26.4114   18.7603 C   0  0  0  0  0  0  0  0  0  0  0  0
  -32.7776  -20.9902   17.2485 C   0  0  0  0  0  0  0  0  0  0  0  0
  -31.1156  -24.7549   20.4272 C   0  0  0  0  0  0  0  0  0  0  0  0
  -23.3293  -27.1693   19.1789 C   0  0  0  0  0  0  0  0  0  0  0  0
  -25.5353  -16.5325   20.3038 C   0  0  0  0  0  0  0  0  0  0  0  0
  -24.3709  -19.3815   21.3283 C   0  0  0  0  0  0  0  0  0  0  0  0
  -24.8155  -22.7511   21.6365 C   0  0  0  0  0  0  0  0  0  0  0  0
  -24.5988  -11.5871   21.1542 C   0  0  0  0  0  0  0  0  0  0  0  0
  -27.4724  -17.4103   21.6578 C   0  0  0  0  0  0  0  0  0  0  0  0
  -26.3946  -19.4647   19.8240 C   0  0  0  0  0  0  0  0  0  0  0  0
  -23.7958  -12.8820   21.2470 C   0  0  0  0  0  0  0  0  0  0  0  0
  -30.2247  -26.3510   17.2927 C   0  0  0  0  0  0  0  0  0  0  0  0
  -23.9611  -13.7050   19.9733 C   0  0  0  0  0  0  0  0  0  0  0  0
  -28.8407  -26.9129   17.6205 C   0  0  0  0  0  0  0  0  0  0  0  0
  -31.1537  -26.4217   18.5008 C   0  0  0  0  0  0  0  0  0  0  0  0
  -29.2318  -26.3114   20.0524 C   0  0  0  0  0  0  0  0  0  0  0  0
  -25.4259  -14.1065   19.7621 C   0  0  1  0  0  0  0  0  0  0  0  0
  -25.9810  -17.5116   21.3527 C   0  0  1  0  0  0  0  0  0  0  0  0
  -28.2480  -26.2390   18.8717 C   0  0  1  0  0  0  0  0  0  0  0  0
  -23.6740  -24.8194   22.4829 C   0  0  0  0  0  0  0  0  0  0  0  0
  -22.5515  -19.3768   18.8789 C   0  0  0  0  0  0  0  0  0  0  0  0
  -22.1559  -21.8203   19.2545 C   0  0  0  0  0  0  0  0  0  0  0  0
  -21.4610  -20.1653   20.9868 C   0  0  0  0  0  0  0  0  0  0  0  0
  -26.9722  -23.2811   23.5927 C   0  0  0  0  0  0  0  0  0  0  0  0
  -32.1759  -19.7980   17.9663 C   0  0  0  0  0  0  0  0  0  1  0  0
  -23.9192  -20.6557   20.6565 C   0  0  1  0  0  0  0  0  0  0  0  0
  -24.6328  -23.6874   22.8174 C   0  0  2  0  0  0  0  0  0  0  0  0
  -22.5483  -20.4945   19.9408 C   0  0  0  0  0  0  0  0  0  0  0  0
  -26.8247  -27.8313   20.1049 N   0  0  0  0  0  0  0  0  0  0  0  0
  -26.8899  -26.8127   19.2306 N   0  0  0  0  0  0  0  0  0  0  0  0
  -30.5385  -25.7749   19.6667 N   0  0  0  0  0  0  0  0  0  0  0  0
  -25.5885  -18.8435   20.8879 N   0  0  0  0  0  0  0  0  0  0  0  0
  -25.5581  -25.4002   17.8735 N   0  0  0  0  0  0  0  0  0  0  0  0
  -22.5255  -28.0766   19.8825 N   0  0  0  0  0  0  0  0  0  0  0  0
  -25.7771  -15.2113   20.6285 N   0  0  0  0  0  0  0  0  0  0  0  0
  -23.9377  -21.6889   21.6864 N   0  0  0  0  0  0  0  0  0  0  0  0
  -25.9407  -24.2812   23.2147 N   0  3  0  0  0  0  0  0  0  0  0  0
  -32.3113  -21.4101   16.1919 O   0  0  0  0  0  0  0  0  0  0  0  0
  -30.6033  -24.2108   21.4043 O   0  0  0  0  0  0  0  0  0  0  0  0
  -22.7880  -26.3299   18.4201 O   0  0  0  0  0  0  0  0  0  0  0  0
  -25.0096  -16.9450   19.2766 O   0  0  0  0  0  0  0  0  0  0  0  0
  -23.6728  -18.8857   22.2163 O   0  0  0  0  0  0  0  0  0  0  0  0
  -25.6506  -22.9448   20.7558 O   0  0  0  0  0  0  0  0  0  0  0  0
  -35.3747  -20.1700   16.6021 O   0  0  0  0  0  0  0  0  0  0  0  0
  -23.6260  -32.1531   23.5165 O   0  0  0  0  0  0  0  0  0  0  0  0
  -30.7826  -19.7028   17.6730 O   0  0  0  0  0  0  0  0  0  1  0  0
  -25.7289  -32.4964   28.6022 F   0  0  0  0  0  0  0  0  0  0  0  0
  -26.3333  -32.5534   23.9079 F   0  0  0  0  0  0  0  0  0  0  0  0
  1  2  1  0  0  0  0
  1  8  2  0  0  0  0
  2  9  2  0  0  0  0
  3  7  2  0  0  0  0
  3 20  1  0  0  0  0
  4 11  2  0  0  0  0
  4 20  1  0  0  0  0
  5 12  2  0  0  0  0
  5 22  1  0  0  0  0
  6 13  1  0  0  0  0
  6 22  2  0  0  0  0
  7 23  1  0  0  0  0
  8 26  1  0  0  0  0
  9 28  1  0  0  0  0
 10 14  2  0  0  0  0
 10 27  1  0  0  0  0
 11 32  1  0  0  0  0
 12 30  1  0  0  0  0
 13 30  2  0  0  0  0
 14 31  1  0  0  0  0
 15 16  2  0  0  0  0
 15 33  1  0  0  0  0
 16 34  1  0  0  0  0
 17 21  1  0  0  0  0
 17 23  2  0  0  0  0
 18 29  1  0  0  0  0
 18 31  2  0  0  0  0
 19 34  2  0  0  0  0
 19 35  1  0  0  0  0
 20 21  2  0  0  0  0
 21 24  1  0  0  0  0
 22 36  1  0  0  0  0
 23 39  1  0  0  0  0
 24 32  2  0  0  0  0
 24 38  1  0  0  0  0
 25 36  1  0  0  0  0
 25 37  2  0  0  0  0
 25 40  1  0  0  0  0
 26 28  2  0  0  0  0
 26 44  1  0  0  0  0
 27 29  2  0  0  0  0
 27 45  1  0  0  0  0
 28 53  1  0  0  0  0
 29 46  1  0  0  0  0
 30 81  1  0  0  0  0
 31 82  1  0  0  0  0
 32 80  1  0  0  0  0
 33 35  2  0  0  0  0
 33 81  1  0  0  0  0
 34 83  1  0  0  0  0
 35 84  1  0  0  0  0
 36 65  2  0  0  0  0
 37 66  1  0  0  0  0
 37 69  1  0  0  0  0
 38 61  1  0  0  0  0
 38 74  2  0  0  0  0
 39 67  1  0  0  0  0
 39 75  2  0  0  0  0
 40 70  1  0  0  0  0
 40 76  2  0  0  0  0
 41 54  1  0  0  0  0
 41 71  1  0  0  0  0
 41 77  2  0  0  0  0
 42 62  1  0  0  0  0
 42 68  1  0  0  0  0
 42 78  2  0  0  0  0
 43 63  1  0  0  0  0
 43 72  1  0  0  0  0
 43 79  2  0  0  0  0
 44 47  1  0  0  0  0
 45 54  1  0  0  0  0
 46 68  1  0  0  0  0
 47 49  1  0  0  0  0
 48 50  1  0  0  0  0
 48 51  1  0  0  0  0
 49 53  1  0  0  0  0
 50 55  1  0  0  0  0
 51 67  1  0  0  0  0
 52 55  1  0  0  0  0
 52 67  1  0  0  0  0
 53 71  1  0  0  0  0
 54 68  1  0  0  0  0
 55 66  1  0  0  0  0
 56 63  1  0  0  0  0
 57 64  1  0  0  0  0
 58 64  1  0  0  0  0
 59 64  1  0  0  0  0
 60 73  1  0  0  0  0
 61 82  1  0  0  0  0
 62 64  1  0  0  0  0
 62 72  1  0  0  0  0
 63 73  1  0  0  0  0
 65 66  1  0  0  0  0
M  CHG  1  73   1
M  ISO  4  23 100  39 100  61 101  82 101
M  END
> <Batch ID>
0084

> <Smiles>
CNC(C)C(=O)NC(C(=O)N1Cc2cc([101O:1][101CH2:1]C(=O)C3=c4c[100c:0]([100C:0](=O)N5CCCC(n6nc(-c7ccc(Oc8ccc(F)cc8F)cc7)c(C(N)=O)c6N)C5)ccc4=CCC3=O)ccc2CC1C(=O)NC1CCCc2ccccc21)C(C)(C)C

> <Shape>
0.223

> <Color>
0.064

> <Negative vol penalty>
0.000

$$$$

  -OEChem-04052300123D

 82 90  0     1  0  0  0  0  0999 V2000
  -32.1704  -35.2679   24.9631 C   0  0  0  0  0  0  0  0  0  0  0  0
  -31.9765  -33.9366   24.6088 C   0  0  0  0  0  0  0  0  0  0  0  0
  -24.0624   -9.3710   19.8412 C   0  0  0  0  0  0  0  0  0  0  0  0
  -24.5758   -9.6332   22.1874 C   0  0  0  0  0  0  0  0  0  0  0  0
  -31.1622  -35.9654   25.6270 C   0  0  0  0  0  0  0  0  0  0  0  0
  -30.7744  -33.3017   24.9193 C   0  0  0  0  0  0  0  0  0  0  0  0
  -28.9663  -30.5699   21.0576 C   0  0  0  0  0  0  0  0  0  0  0  0
  -23.6921   -8.0458   20.0703 C   0  0  0  0  0  0  0  0  0  0  0  0
  -24.2055   -8.3081   22.4165 C   0  0  0  0  0  0  0  0  0  0  0  0
  -29.5545  -29.3273   20.8262 C   0  0  0  0  0  0  0  0  0  0  0  0
  -23.0528   -5.1009   23.6828 C   0  0  0  0  0  0  0  0  0  0  0  0
  -22.2460   -4.8342   24.7889 C   0  0  0  0  0  0  0  0  0  0  0  0
  -27.7179  -28.2530   21.9629 C   0  0  0  0  0  0  0  0  0  0  0  0
  -29.8993  -19.3334   21.9611 C   0  0  0  0  0  0  0  0  0  0  0  0
  -20.5340   -6.2823   23.8892 C   0  0  0  0  0  0  0  0  0  0  0  0
  -27.7955  -19.0316   22.9020 C   0  0  0  0  0  0  0  0  0  0  0  0
  -24.5043  -10.1647   20.8997 C   0  0  0  0  0  0  0  0  0  0  0  0
  -24.0585  -12.6698   20.7181 C   0  0  0  0  0  0  0  0  0  0  0  0
  -29.9435  -35.3416   25.9372 C   0  0  0  0  0  0  0  0  0  0  0  0
  -27.7528  -30.6644   21.7540 C   0  0  0  0  0  0  0  0  0  0  0  0
  -29.7494  -33.9911   25.5892 C   0  0  0  0  0  0  0  0  0  0  0  0
  -27.1151  -29.4979   22.1996 C   0  0  0  0  0  0  0  0  0  0  0  0
  -28.8120  -18.4401   22.1848 C   0  0  0  0  0  0  0  0  0  0  0  0
  -23.7636   -7.5144   21.3579 C   0  0  0  0  0  0  0  0  0  0  0  0
  -28.9318  -28.1688   21.2815 C   0  0  0  0  0  0  0  0  0  0  0  0
  -22.6003   -5.9583   22.6799 C   0  0  0  0  0  0  0  0  0  0  0  0
  -20.9866   -5.4249   24.8921 C   0  0  0  0  0  0  0  0  0  0  0  0
  -21.3409   -6.5490   22.7831 C   0  0  0  0  0  0  0  0  0  0  0  0
  -24.8875  -11.5334   20.6635 C   0  0  0  0  0  0  0  0  0  0  0  0
  -29.6722  -20.5739   22.5159 C   0  0  0  0  0  0  0  0  0  0  0  0
  -24.8933  -13.7186   20.4191 C   0  0  0  0  0  0  0  0  0  0  0  0
  -30.3994  -24.9828   22.0352 C   0  0  0  0  0  0  0  0  0  0  0  0
  -29.8337  -26.1891   22.1407 C   0  0  0  0  0  0  0  0  0  1  0  0
  -22.6588  -12.7686   21.0129 C   0  0  0  0  0  0  0  0  0  0  0  0
  -30.5492  -21.7730   22.5068 C   0  0  0  0  0  0  0  0  0  0  0  0
  -26.8288  -32.0201   24.4765 C   0  0  0  0  0  0  0  0  0  0  0  0
  -23.8835  -31.0867   23.4883 C   0  0  0  0  0  0  0  0  0  0  0  0
  -22.0022  -28.9664   21.5879 C   0  0  0  0  0  0  0  0  0  0  0  0
  -29.7306  -16.4135   21.0035 C   0  0  0  0  0  0  0  0  0  0  0  0
  -28.9012  -36.1224   26.6978 C   0  0  0  0  0  0  0  0  0  0  0  0
  -27.1179  -32.0104   21.9720 C   0  0  0  0  0  0  0  0  0  0  0  0
  -25.8012  -29.5437   22.9345 C   0  0  0  0  0  0  0  0  0  0  0  0
  -27.5139  -35.4867   26.6572 C   0  0  0  0  0  0  0  0  0  0  0  0
  -29.6319  -13.7528   18.6396 C   0  0  0  0  0  0  0  0  0  0  0  0
  -27.6032  -33.9915   26.9455 C   0  0  0  0  0  0  0  0  0  0  0  0
  -28.3206  -13.0317   18.9599 C   0  0  0  0  0  0  0  0  0  0  0  0
  -30.3208  -14.2650   19.9033 C   0  0  0  0  0  0  0  0  0  0  0  0
  -28.1684  -14.3723   21.0969 C   0  0  0  0  0  0  0  0  0  0  0  0
  -28.4498  -33.2750   25.8866 C   0  0  1  0  0  0  0  0  0  0  0  0
  -26.1387  -32.0267   23.1418 C   0  0  1  0  0  0  0  0  0  0  0  0
  -27.4056  -13.8951   19.8502 C   0  0  2  0  0  0  0  0  0  0  0  0
  -19.6203  -28.4223   21.0154 C   0  0  0  0  0  0  0  0  0  0  0  0
  -23.5527  -29.7050   26.1886 C   0  0  0  0  0  0  0  0  0  0  0  0
  -21.6341  -28.4220   25.2185 C   0  0  0  0  0  0  0  0  0  0  0  0
  -21.5166  -30.9088   25.3763 C   0  0  0  0  0  0  0  0  0  0  0  0
  -22.4297  -29.5756   18.7234 C   0  0  0  0  0  0  0  0  0  0  0  0
  -30.7730  -24.1417   23.2107 C   0  0  0  0  0  0  0  0  0  0  0  0
  -23.0410  -29.8462   23.6619 C   0  0  1  0  0  0  0  0  0  0  0  0
  -20.8538  -29.2235   20.6290 C   0  0  2  0  0  0  0  0  0  0  0  0
  -22.4618  -29.7194   25.0992 C   0  0  0  0  0  0  0  0  0  0  0  0
  -26.1520  -11.8321   20.3539 N   0  0  0  0  0  0  0  0  0  0  0  0
  -26.1237  -13.1681   20.2112 N   0  0  0  0  0  0  0  0  0  0  0  0
  -25.2234  -30.8838   23.1287 N   0  0  0  0  0  0  0  0  0  0  0  0
  -29.3949  -15.0783   20.6945 N   0  0  0  0  0  0  0  0  0  0  0  0
  -24.6877  -15.0489   20.3161 N   0  0  0  0  0  0  0  0  0  0  0  0
  -21.9515  -11.5927   21.2983 N   0  0  0  0  0  0  0  0  0  0  0  0
  -28.7589  -17.0983   21.7325 N   0  0  0  0  0  0  0  0  0  0  0  0
  -30.0538  -22.8995   23.1544 N   0  0  0  0  0  0  0  0  0  0  0  0
  -27.6861  -33.0861   24.6719 N   0  0  0  0  0  0  0  0  0  0  0  0
  -22.0293  -29.8897   22.6117 N   0  0  0  0  0  0  0  0  0  0  0  0
  -21.2435  -28.8462   19.2410 N   0  3  0  0  0  0  0  0  0  0  0  0
  -22.0497  -13.8652   21.0068 O   0  0  0  0  0  0  0  0  0  0  0  0
  -31.6306  -21.7211   21.9268 O   0  0  0  0  0  0  0  0  0  0  0  0
  -26.5993  -31.1157   25.2709 O   0  0  0  0  0  0  0  0  0  0  0  0
  -23.3698  -32.1953   23.6584 O   0  0  0  0  0  0  0  0  0  0  0  0
  -22.7938  -28.0371   21.4452 O   0  0  0  0  0  0  0  0  0  0  0  0
  -30.7892  -16.9210   20.6242 O   0  0  0  0  0  0  0  0  0  0  0  0
  -23.4021   -6.2215   21.5819 O   0  0  0  0  0  0  0  0  0  0  0  0
  -29.5042  -26.9546   21.0576 O   0  0  0  0  0  0  0  0  0  1  0  0
  -20.2113   -5.1675   25.9536 F   0  0  0  0  0  0  0  0  0  0  0  0
  -20.9002   -7.3726   21.8223 F   0  0  0  0  0  0  0  0  0  0  0  0
  -28.1535  -20.6575   23.3026 S   0  0  0  0  0  0  0  0  0  0  0  0
  1  2  1  0  0  0  0
  1  5  2  0  0  0  0
  2  6  2  0  0  0  0
  3  8  2  0  0  0  0
  3 17  1  0  0  0  0
  4  9  1  0  0  0  0
  4 17  2  0  0  0  0
  5 19  1  0  0  0  0
  6 21  1  0  0  0  0
  7 10  2  0  0  0  0
  7 20  1  0  0  0  0
  8 24  1  0  0  0  0
  9 24  2  0  0  0  0
 10 25  1  0  0  0  0
 11 12  2  0  0  0  0
 11 26  1  0  0  0  0
 12 27  1  0  0  0  0
 13 22  1  0  0  0  0
 13 25  2  0  0  0  0
 14 23  1  0  0  0  0
 14 30  2  0  0  0  0
 15 27  2  0  0  0  0
 15 28  1  0  0  0  0
 16 23  2  0  0  0  0
 16 82  1  0  0  0  0
 17 29  1  0  0  0  0
 18 29  1  0  0  0  0
 18 31  2  0  0  0  0
 18 34  1  0  0  0  0
 19 21  2  0  0  0  0
 19 40  1  0  0  0  0
 20 22  2  0  0  0  0
 20 41  1  0  0  0  0
 21 49  1  0  0  0  0
 22 42  1  0  0  0  0
 23 67  1  0  0  0  0
 24 78  1  0  0  0  0
 25 79  1  0  0  0  0
 26 28  2  0  0  0  0
 26 78  1  0  0  0  0
 27 80  1  0  0  0  0
 28 81  1  0  0  0  0
 29 61  2  0  0  0  0
 30 35  1  0  0  0  0
 30 82  1  0  0  0  0
 31 62  1  0  0  0  0
 31 65  1  0  0  0  0
 32 33  2  0  0  0  0
 32 57  1  0  0  0  0
 33 79  1  0  0  0  0
 34 66  1  0  0  0  0
 34 72  2  0  0  0  0
 35 68  1  0  0  0  0
 35 73  2  0  0  0  0
 36 50  1  0  0  0  0
 36 69  1  0  0  0  0
 36 74  2  0  0  0  0
 37 58  1  0  0  0  0
 37 63  1  0  0  0  0
 37 75  2  0  0  0  0
 38 59  1  0  0  0  0
 38 70  1  0  0  0  0
 38 76  2  0  0  0  0
 39 64  1  0  0  0  0
 39 67  1  0  0  0  0
 39 77  2  0  0  0  0
 40 43  1  0  0  0  0
 41 50  1  0  0  0  0
 42 63  1  0  0  0  0
 43 45  1  0  0  0  0
 44 46  1  0  0  0  0
 44 47  1  0  0  0  0
 45 49  1  0  0  0  0
 46 51  1  0  0  0  0
 47 64  1  0  0  0  0
 48 51  1  0  0  0  0
 48 64  1  0  0  0  0
 49 69  1  0  0  0  0
 50 63  1  0  0  0  0
 51 62  1  0  0  0  0
 52 59  1  0  0  0  0
 53 60  1  0  0  0  0
 54 60  1  0  0  0  0
 55 60  1  0  0  0  0
 56 71  1  0  0  0  0
 57 68  1  0  0  0  0
 58 60  1  0  0  0  0
 58 70  1  0  0  0  0
 59 71  1  0  0  0  0
 61 62  1  0  0  0  0
M  CHG  1  71   1
M  ISO  4  33 101  39 100  67 100  79 101
M  END
> <Batch ID>
0084

> <Smiles>
CNC(C)C(=O)NC(C(=O)N1Cc2cc([101O:1][101CH:1]=CCNC(=O)c3cc([100NH:0][100C:0](=O)N4CCCC(n5nc(-c6ccc(Oc7ccc(F)cc7F)cc6)c(C(N)=O)c5N)C4)cs3)ccc2CC1C(=O)NC1CCCc2ccccc21)C(C)(C)C

> <Shape>
0.296

> <Color>
0.137

> <Negative vol penalty>
0.000

$$$$

  -OEChem-04052300123D

 86 95  0     1  0  0  0  0  0999 V2000
  -29.3469  -37.0044   19.9951 C   0  0  0  0  0  0  0  0  0  0  0  0
  -29.4953  -35.6449   19.7398 C   0  0  0  0  0  0  0  0  0  0  0  0
  -24.2717   -9.0263   21.5178 C   0  0  0  0  0  0  0  0  0  0  0  0
  -24.6666  -10.4228   23.4494 C   0  0  0  0  0  0  0  0  0  0  0  0
  -28.6086  -37.4286   21.0992 C   0  0  0  0  0  0  0  0  0  0  0  0
  -28.9064  -34.7088   20.5891 C   0  0  0  0  0  0  0  0  0  0  0  0
  -26.5309  -29.2888   19.0122 C   0  0  0  0  0  0  0  0  0  0  0  0
  -30.3795  -20.1184   20.2023 C   0  0  0  0  0  0  0  0  0  0  0  0
  -30.2130  -18.7664   19.9027 C   0  0  0  0  0  0  0  0  0  0  0  0
  -23.9054   -7.9723   22.3547 C   0  0  0  0  0  0  0  0  0  0  0  0
  -24.3002   -9.3687   24.2863 C   0  0  0  0  0  0  0  0  0  0  0  0
  -27.0391  -27.9915   19.0627 C   0  0  0  0  0  0  0  0  0  0  0  0
  -21.1922   -7.0396   24.1440 C   0  0  0  0  0  0  0  0  0  0  0  0
  -20.0475   -6.3154   23.8111 C   0  0  0  0  0  0  0  0  0  0  0  0
  -25.9418  -27.6507   21.1838 C   0  0  0  0  0  0  0  0  0  0  0  0
  -27.9840  -20.3726   20.3864 C   0  0  0  0  0  0  0  0  0  0  0  0
  -21.3715   -4.3017   23.6395 C   0  0  0  0  0  0  0  0  0  0  0  0
  -24.6524  -10.2516   22.0652 C   0  0  0  0  0  0  0  0  0  0  0  0
  -24.1882  -12.3290   20.6593 C   0  0  0  0  0  0  0  0  0  0  0  0
  -28.0023  -36.4974   21.9570 C   0  0  0  0  0  0  0  0  0  0  0  0
  -25.7319  -29.7813   20.0541 C   0  0  0  0  0  0  0  0  0  0  0  0
  -28.1604  -35.1210   21.7064 C   0  0  0  0  0  0  0  0  0  0  0  0
  -25.4226  -28.9537   21.1429 C   0  0  0  0  0  0  0  0  0  0  0  0
  -27.8175  -19.0206   20.0867 C   0  0  0  0  0  0  0  0  0  0  0  0
  -29.2650  -20.9216   20.4442 C   0  0  0  0  0  0  0  0  0  0  0  0
  -28.9320  -18.2174   19.8449 C   0  0  0  0  0  0  0  0  0  0  0  0
  -23.9196   -8.1435   23.7389 C   0  0  0  0  0  0  0  0  0  0  0  0
  -26.7470  -27.1732   20.1500 C   0  0  0  0  0  0  0  0  0  0  0  0
  -22.4265   -6.3949   24.2245 C   0  0  0  0  0  0  0  0  0  0  0  0
  -20.1371   -4.9464   23.5589 C   0  0  0  0  0  0  0  0  0  0  0  0
  -22.5162   -5.0260   23.9723 C   0  0  0  0  0  0  0  0  0  0  0  0
  -25.0315  -11.3406   21.2012 C   0  0  0  0  0  0  0  0  0  0  0  0
  -25.0250  -13.1238   19.9147 C   0  0  0  0  0  0  0  0  0  0  0  0
  -29.0376  -24.5197   20.9038 C   0  0  0  0  0  0  0  0  0  0  0  0
  -30.3398  -24.2566   21.5317 C   0  0  0  0  0  0  0  0  0  0  0  0
  -28.4698  -23.2495   20.4084 C   0  0  0  0  0  0  0  0  0  0  0  0
  -28.4577  -25.7153   20.7968 C   0  0  0  0  0  0  0  0  0  1  0  0
  -22.7747  -12.5123   20.8152 C   0  0  0  0  0  0  0  0  0  0  0  0
  -25.9862  -32.1652   22.1413 C   0  0  0  0  0  0  0  0  0  0  0  0
  -22.9674  -31.2785   22.9305 C   0  0  0  0  0  0  0  0  0  0  0  0
  -20.5887  -28.8321   22.9912 C   0  0  0  0  0  0  0  0  0  0  0  0
  -29.7977  -15.9203   19.2789 C   0  0  0  0  0  0  0  0  0  0  0  0
  -27.2534  -37.0030   23.1645 C   0  0  0  0  0  0  0  0  0  0  0  0
  -25.1694  -31.1739   19.9719 C   0  0  0  0  0  0  0  0  0  0  0  0
  -24.5529  -29.4278   22.2775 C   0  0  0  0  0  0  0  0  0  0  0  0
  -30.6252  -22.7865   21.4419 C   0  0  0  0  0  0  0  0  0  0  0  0
  -26.3478  -35.9532   23.8033 C   0  0  0  0  0  0  0  0  0  0  0  0
  -29.8444  -12.4407   18.5260 C   0  0  0  0  0  0  0  0  0  0  0  0
  -27.0901  -34.6293   23.9555 C   0  0  0  0  0  0  0  0  0  0  0  0
  -28.5271  -11.9256   19.1103 C   0  0  0  0  0  0  0  0  0  0  0  0
  -30.4649  -13.5296   19.3994 C   0  0  0  0  0  0  0  0  0  0  0  0
  -28.2555  -14.1359   20.3052 C   0  0  0  0  0  0  0  0  0  0  0  0
  -27.5159  -34.0754   22.5905 C   0  0  1  0  0  0  0  0  0  0  0  0
  -24.7900  -31.7464   21.3341 C   0  0  1  0  0  0  0  0  0  0  0  0
  -27.5600  -13.0833   19.4266 C   0  0  2  0  0  0  0  0  0  0  0  0
  -26.4340  -18.4585   20.0335 C   0  0  0  0  0  0  0  0  0  0  0  0
  -18.2316  -28.3944   23.7327 C   0  0  0  0  0  0  0  0  0  0  0  0
  -23.9182  -31.0715   25.8224 C   0  0  0  0  0  0  0  0  0  0  0  0
  -21.8536  -29.7506   26.3334 C   0  0  0  0  0  0  0  0  0  0  0  0
  -21.6596  -32.1071   25.5384 C   0  0  0  0  0  0  0  0  0  0  0  0
  -19.7028  -28.2565   20.2266 C   0  0  0  0  0  0  0  0  0  0  0  0
  -22.3612  -30.3039   23.9111 C   0  0  1  0  0  0  0  0  0  0  0  0
  -19.1257  -28.8393   22.5859 C   0  0  2  0  0  0  0  0  0  0  0  0
  -22.4661  -30.7997   25.3810 C   0  0  0  0  0  0  0  0  0  0  0  0
  -26.3063  -11.4915   20.8322 N   0  0  0  0  0  0  0  0  0  0  0  0
  -26.2702  -12.5840   20.0503 N   0  0  0  0  0  0  0  0  0  0  0  0
  -29.4316  -22.2713   20.7460 N   0  0  0  0  0  0  0  0  0  0  0  0
  -24.0319  -30.7993   22.1541 N   0  0  0  0  0  0  0  0  0  0  0  0
  -29.4924  -14.5948   19.6537 N   0  0  0  0  0  0  0  0  0  0  0  0
  -24.8099  -14.2247   19.1637 N   0  0  0  0  0  0  0  0  0  0  0  0
  -22.0674  -11.6045   21.6151 N   0  0  0  0  0  0  0  0  0  0  0  0
  -28.7840  -16.8415   19.5406 N   0  0  0  0  0  0  0  0  0  0  0  0
  -26.3879  -33.4682   21.9172 N   0  0  0  0  0  0  0  0  0  0  0  0
  -20.9955  -30.0643   23.4573 N   0  0  0  0  0  0  0  0  0  0  0  0
  -18.9031  -27.9215   21.4330 N   0  3  0  0  0  0  0  0  0  0  0  0
  -31.0669  -25.0925   22.0401 O   0  0  0  0  0  0  0  0  0  0  0  0
  -27.4012  -23.1167   19.8379 O   0  0  0  0  0  0  0  0  0  0  0  0
  -22.1546  -13.4437   20.2482 O   0  0  0  0  0  0  0  0  0  0  0  0
  -26.5053  -31.3658   22.9115 O   0  0  0  0  0  0  0  0  0  0  0  0
  -22.5083  -32.4207   22.8510 O   0  0  0  0  0  0  0  0  0  0  0  0
  -21.2984  -27.8323   22.9065 O   0  0  0  0  0  0  0  0  0  0  0  0
  -30.8679  -16.2119   18.7389 O   0  0  0  0  0  0  0  0  0  0  0  0
  -23.5619   -7.1152   24.5558 O   0  0  0  0  0  0  0  0  0  0  0  0
  -27.2423  -25.9068   20.2021 O   0  0  0  0  0  0  0  0  0  1  0  0
  -19.0376   -4.2508   23.2408 F   0  0  0  0  0  0  0  0  0  0  0  0
  -23.6991   -4.4010   24.0493 F   0  0  0  0  0  0  0  0  0  0  0  0
  1  2  1  0  0  0  0
  1  5  2  0  0  0  0
  2  6  2  0  0  0  0
  3 10  2  0  0  0  0
  3 18  1  0  0  0  0
  4 11  1  0  0  0  0
  4 18  2  0  0  0  0
  5 20  1  0  0  0  0
  6 22  1  0  0  0  0
  7 12  2  0  0  0  0
  7 21  1  0  0  0  0
  8  9  2  0  0  0  0
  8 25  1  0  0  0  0
  9 26  1  0  0  0  0
 10 27  1  0  0  0  0
 11 27  2  0  0  0  0
 12 28  1  0  0  0  0
 13 14  2  0  0  0  0
 13 29  1  0  0  0  0
 14 30  1  0  0  0  0
 15 23  1  0  0  0  0
 15 28  2  0  0  0  0
 16 24  1  0  0  0  0
 16 25  2  0  0  0  0
 17 30  2  0  0  0  0
 17 31  1  0  0  0  0
 18 32  1  0  0  0  0
 19 32  1  0  0  0  0
 19 33  2  0  0  0  0
 19 38  1  0  0  0  0
 20 22  2  0  0  0  0
 20 43  1  0  0  0  0
 21 23  2  0  0  0  0
 21 44  1  0  0  0  0
 22 53  1  0  0  0  0
 23 45  1  0  0  0  0
 24 26  2  0  0  0  0
 24 56  1  0  0  0  0
 25 67  1  0  0  0  0
 26 72  1  0  0  0  0
 27 83  1  0  0  0  0
 28 84  1  0  0  0  0
 29 31  2  0  0  0  0
 29 83  1  0  0  0  0
 30 85  1  0  0  0  0
 31 86  1  0  0  0  0
 32 65  2  0  0  0  0
 33 66  1  0  0  0  0
 33 70  1  0  0  0  0
 34 35  1  0  0  0  0
 34 36  1  0  0  0  0
 34 37  2  0  0  0  0
 35 46  1  0  0  0  0
 35 76  2  0  0  0  0
 36 67  1  0  0  0  0
 36 77  2  0  0  0  0
 37 84  1  0  0  0  0
 38 71  1  0  0  0  0
 38 78  2  0  0  0  0
 39 54  1  0  0  0  0
 39 73  1  0  0  0  0
 39 79  2  0  0  0  0
 40 62  1  0  0  0  0
 40 68  1  0  0  0  0
 40 80  2  0  0  0  0
 41 63  1  0  0  0  0
 41 74  1  0  0  0  0
 41 81  2  0  0  0  0
 42 69  1  0  0  0  0
 42 72  1  0  0  0  0
 42 82  2  0  0  0  0
 43 47  1  0  0  0  0
 44 54  1  0  0  0  0
 45 68  1  0  0  0  0
 46 67  1  0  0  0  0
 47 49  1  0  0  0  0
 48 50  1  0  0  0  0
 48 51  1  0  0  0  0
 49 53  1  0  0  0  0
 50 55  1  0  0  0  0
 51 69  1  0  0  0  0
 52 55  1  0  0  0  0
 52 69  1  0  0  0  0
 53 73  1  0  0  0  0
 54 68  1  0  0  0  0
 55 66  1  0  0  0  0
 57 63  1  0  0  0  0
 58 64  1  0  0  0  0
 59 64  1  0  0  0  0
 60 64  1  0  0  0  0
 61 75  1  0  0  0  0
 62 64  1  0  0  0  0
 62 74  1  0  0  0  0
 63 75  1  0  0  0  0
 65 66  1  0  0  0  0
M  CHG  1  75   1
M  ISO  4  37 101  42 100  72 100  84 101
M  END
> <Batch ID>
0084

> <Smiles>
CNC(C)C(=O)NC(C(=O)N1Cc2cc([101O:1][101CH:1]=C3C(=O)CN(c4ccc([100NH:0][100C:0](=O)N5CCCC(n6nc(-c7ccc(Oc8ccc(F)cc8F)cc7)c(C(N)=O)c6N)C5)c(C)c4)C3=O)ccc2CC1C(=O)NC1CCCc2ccccc21)C(C)(C)C

> <Shape>
0.340

> <Color>
0.114

> <Negative vol penalty>
0.000

$$$$

  -OEChem-04052300123D

 85 94  0     1  0  0  0  0  0999 V2000
  -26.7702  -37.7433   21.8223 C   0  0  0  0  0  0  0  0  0  0  0  0
  -27.4128  -36.5548   21.4908 C   0  0  0  0  0  0  0  0  0  0  0  0
  -23.6963   -8.8989   20.1839 C   0  0  0  0  0  0  0  0  0  0  0  0
  -23.3180  -10.5334   21.9225 C   0  0  0  0  0  0  0  0  0  0  0  0
  -25.6767  -37.7255   22.6871 C   0  0  0  0  0  0  0  0  0  0  0  0
  -26.9629  -35.3478   22.0249 C   0  0  0  0  0  0  0  0  0  0  0  0
  -26.9681  -29.8759   19.2747 C   0  0  0  0  0  0  0  0  0  0  0  0
  -27.9261  -20.0592   19.2877 C   0  0  0  0  0  0  0  0  0  0  0  0
  -27.8668  -18.6756   19.1218 C   0  0  0  0  0  0  0  0  0  0  0  0
  -22.9821   -7.9523   20.9184 C   0  0  0  0  0  0  0  0  0  0  0  0
  -22.6037   -9.5868   22.6569 C   0  0  0  0  0  0  0  0  0  0  0  0
  -27.8394  -28.7899   19.3483 C   0  0  0  0  0  0  0  0  0  0  0  0
  -19.7429   -7.2062   21.5376 C   0  0  0  0  0  0  0  0  0  0  0  0
  -18.8086   -6.4267   20.8556 C   0  0  0  0  0  0  0  0  0  0  0  0
  -26.4065  -27.7594   20.9927 C   0  0  0  0  0  0  0  0  0  0  0  0
  -30.1188  -18.4768   19.9738 C   0  0  0  0  0  0  0  0  0  0  0  0
  -20.0133   -4.4300   21.4875 C   0  0  0  0  0  0  0  0  0  0  0  0
  -23.8643  -10.1895   20.6860 C   0  0  0  0  0  0  0  0  0  0  0  0
  -24.0905  -12.0657   18.9725 C   0  0  0  0  0  0  0  0  0  0  0  0
  -25.2072  -36.5166   23.2244 C   0  0  0  0  0  0  0  0  0  0  0  0
  -25.8131  -29.9168   20.0690 C   0  0  0  0  0  0  0  0  0  0  0  0
  -25.8629  -35.3140   22.8988 C   0  0  0  0  0  0  0  0  0  0  0  0
  -25.5209  -28.8458   20.9255 C   0  0  0  0  0  0  0  0  0  0  0  0
  -29.0819  -20.6517   19.7966 C   0  0  0  0  0  0  0  0  0  0  0  0
  -28.9631  -17.8843   19.4648 C   0  0  0  0  0  0  0  0  0  0  0  0
  -22.4358   -8.2962   22.1549 C   0  0  0  0  0  0  0  0  0  0  0  0
  -27.5602  -27.7328   20.2094 C   0  0  0  0  0  0  0  0  0  0  0  0
  -20.8124   -6.5976   22.1945 C   0  0  0  0  0  0  0  0  0  0  0  0
  -18.9438   -5.0386   20.8305 C   0  0  0  0  0  0  0  0  0  0  0  0
  -30.1782  -19.8605   20.1397 C   0  0  0  0  0  0  0  0  0  0  0  0
  -20.9476   -5.2096   22.1694 C   0  0  0  0  0  0  0  0  0  0  0  0
  -24.6024  -11.1676   19.9280 C   0  0  0  0  0  0  0  0  0  0  0  0
  -25.1867  -12.7747   18.5457 C   0  0  0  0  0  0  0  0  0  0  0  0
  -28.6636  -24.3250   20.0085 C   0  0  0  0  0  0  0  0  0  0  0  0
  -28.1211  -22.9835   19.6651 C   0  0  0  0  0  0  0  0  0  0  0  0
  -27.9215  -25.4344   19.9703 C   0  0  0  0  0  0  0  0  0  1  0  0
  -22.7443  -12.2433   18.5119 C   0  0  0  0  0  0  0  0  0  0  0  0
  -24.7333  -31.8374   22.3600 C   0  0  0  0  0  0  0  0  0  0  0  0
  -22.0713  -30.0012   22.1060 C   0  0  0  0  0  0  0  0  0  0  0  0
  -20.6861  -27.0164   21.2011 C   0  0  0  0  0  0  0  0  0  0  0  0
  -29.9005  -15.5493   19.5869 C   0  0  0  0  0  0  0  0  0  0  0  0
  -24.0510  -36.5528   24.1922 C   0  0  0  0  0  0  0  0  0  0  0  0
  -24.8696  -31.0830   19.9583 C   0  0  0  0  0  0  0  0  0  0  0  0
  -24.2837  -28.8319   21.7843 C   0  0  0  0  0  0  0  0  0  0  0  0
  -30.0943  -24.2169   20.4052 C   0  0  0  0  0  0  0  0  0  0  0  0
  -23.4040  -35.1890   24.4195 C   0  0  0  0  0  0  0  0  0  0  0  0
  -30.1247  -12.0039   19.3479 C   0  0  0  0  0  0  0  0  0  0  0  0
  -24.4708  -34.1251   24.6578 C   0  0  0  0  0  0  0  0  0  0  0  0
  -28.6659  -11.5441   19.3989 C   0  0  0  0  0  0  0  0  0  0  0  0
  -30.2975  -22.7188   20.5612 C   0  0  0  0  0  0  0  0  0  0  0  0
  -30.3732  -13.2042   20.2596 C   0  0  0  0  0  0  0  0  0  0  0  0
  -28.0102  -13.8821   20.0995 C   0  0  0  0  0  0  0  0  0  0  0  0
  -25.3891  -33.9818   23.4381 C   0  0  1  0  0  0  0  0  0  0  0  0
  -23.9882  -31.2575   21.1912 C   0  0  1  0  0  0  0  0  0  0  0  0
  -27.6966  -12.7159   19.1480 C   0  0  2  0  0  0  0  0  0  0  0  0
  -18.4926  -25.7985   21.1466 C   0  0  0  0  0  0  0  0  0  0  0  0
  -22.2609  -29.5303   25.1147 C   0  0  0  0  0  0  0  0  0  0  0  0
  -20.6800  -27.6080   24.8430 C   0  0  0  0  0  0  0  0  0  0  0  0
  -19.9416  -29.9192   24.2637 C   0  0  0  0  0  0  0  0  0  0  0  0
  -20.7773  -26.7455   18.2553 C   0  0  0  0  0  0  0  0  0  0  0  0
  -21.5845  -28.7284   22.7555 C   0  0  1  0  0  0  0  0  0  0  0  0
  -19.4565  -26.6859   20.3744 C   0  0  2  0  0  0  0  0  0  0  0  0
  -21.1411  -28.9473   24.2296 C   0  0  0  0  0  0  0  0  0  0  0  0
  -25.9213  -11.2924   20.0983 N   0  0  0  0  0  0  0  0  0  0  0  0
  -26.2473  -12.2772   19.2440 N   0  0  0  0  0  0  0  0  0  0  0  0
  -29.1399  -22.0701   19.9655 N   0  0  0  0  0  0  0  0  0  0  0  0
  -23.3955  -29.9978   21.6451 N   0  0  0  0  0  0  0  0  0  0  0  0
  -29.4210  -14.2763   19.9616 N   0  0  0  0  0  0  0  0  0  0  0  0
  -25.3372  -13.7688   17.6448 N   0  0  0  0  0  0  0  0  0  0  0  0
  -21.7396  -11.4314   19.0555 N   0  0  0  0  0  0  0  0  0  0  0  0
  -28.9025  -16.4788   19.2962 N   0  0  0  0  0  0  0  0  0  0  0  0
  -24.7328  -33.2187   22.3982 N   0  0  0  0  0  0  0  0  0  0  0  0
  -20.5361  -28.2025   21.8880 N   0  0  0  0  0  0  0  0  0  0  0  0
  -19.8484  -25.9771   19.1235 N   0  3  0  0  0  0  0  0  0  0  0  0
  -26.9979  -22.8087   19.2228 O   0  0  0  0  0  0  0  0  0  0  0  0
  -22.4441  -13.0855   17.6321 O   0  0  0  0  0  0  0  0  0  0  0  0
  -25.2677  -31.0872   23.1683 O   0  0  0  0  0  0  0  0  0  0  0  0
  -21.3026  -30.9606   22.0046 O   0  0  0  0  0  0  0  0  0  0  0  0
  -21.6788  -26.2927   21.2369 O   0  0  0  0  0  0  0  0  0  0  0  0
  -31.1078  -15.7887   19.5018 O   0  0  0  0  0  0  0  0  0  0  0  0
  -21.7387   -7.3729   22.8718 O   0  0  0  0  0  0  0  0  0  0  0  0
  -28.4093  -26.6720   20.2836 O   0  0  0  0  0  0  0  0  0  1  0  0
  -18.0457   -4.2901   20.1769 F   0  0  0  0  0  0  0  0  0  0  0  0
  -31.2945  -20.4191   20.6291 F   0  0  0  0  0  0  0  0  0  0  0  0
  -21.9723   -4.6192   22.7997 F   0  0  0  0  0  0  0  0  0  0  0  0
  1  2  1  0  0  0  0
  1  5  2  0  0  0  0
  2  6  2  0  0  0  0
  3 10  2  0  0  0  0
  3 18  1  0  0  0  0
  4 11  1  0  0  0  0
  4 18  2  0  0  0  0
  5 20  1  0  0  0  0
  6 22  1  0  0  0  0
  7 12  2  0  0  0  0
  7 21  1  0  0  0  0
  8  9  2  0  0  0  0
  8 24  1  0  0  0  0
  9 25  1  0  0  0  0
 10 26  1  0  0  0  0
 11 26  2  0  0  0  0
 12 27  1  0  0  0  0
 13 14  2  0  0  0  0
 13 28  1  0  0  0  0
 14 29  1  0  0  0  0
 15 23  1  0  0  0  0
 15 27  2  0  0  0  0
 16 25  2  0  0  0  0
 16 30  1  0  0  0  0
 17 29  2  0  0  0  0
 17 31  1  0  0  0  0
 18 32  1  0  0  0  0
 19 32  1  0  0  0  0
 19 33  2  0  0  0  0
 19 37  1  0  0  0  0
 20 22  2  0  0  0  0
 20 42  1  0  0  0  0
 21 23  2  0  0  0  0
 21 43  1  0  0  0  0
 22 53  1  0  0  0  0
 23 44  1  0  0  0  0
 24 30  2  0  0  0  0
 24 66  1  0  0  0  0
 25 71  1  0  0  0  0
 26 81  1  0  0  0  0
 27 82  1  0  0  0  0
 28 31  2  0  0  0  0
 28 81  1  0  0  0  0
 29 83  1  0  0  0  0
 30 84  1  0  0  0  0
 31 85  1  0  0  0  0
 32 64  2  0  0  0  0
 33 65  1  0  0  0  0
 33 69  1  0  0  0  0
 34 35  1  0  0  0  0
 34 36  2  0  0  0  0
 34 45  1  0  0  0  0
 35 66  1  0  0  0  0
 35 75  2  0  0  0  0
 36 82  1  0  0  0  0
 37 70  1  0  0  0  0
 37 76  2  0  0  0  0
 38 54  1  0  0  0  0
 38 72  1  0  0  0  0
 38 77  2  0  0  0  0
 39 61  1  0  0  0  0
 39 67  1  0  0  0  0
 39 78  2  0  0  0  0
 40 62  1  0  0  0  0
 40 73  1  0  0  0  0
 40 79  2  0  0  0  0
 41 68  1  0  0  0  0
 41 71  1  0  0  0  0
 41 80  2  0  0  0  0
 42 46  1  0  0  0  0
 43 54  1  0  0  0  0
 44 67  1  0  0  0  0
 45 50  1  0  0  0  0
 46 48  1  0  0  0  0
 47 49  1  0  0  0  0
 47 51  1  0  0  0  0
 48 53  1  0  0  0  0
 49 55  1  0  0  0  0
 50 66  1  0  0  0  0
 51 68  1  0  0  0  0
 52 55  1  0  0  0  0
 52 68  1  0  0  0  0
 53 72  1  0  0  0  0
 54 67  1  0  0  0  0
 55 65  1  0  0  0  0
 56 62  1  0  0  0  0
 57 63  1  0  0  0  0
 58 63  1  0  0  0  0
 59 63  1  0  0  0  0
 60 74  1  0  0  0  0
 61 63  1  0  0  0  0
 61 73  1  0  0  0  0
 62 74  1  0  0  0  0
 64 65  1  0  0  0  0
M  CHG  1  74   1
M  ISO  4  36 101  41 100  71 100  82 101
M  END
> <Batch ID>
0084

> <Smiles>
CNC(C)C(=O)NC(C(=O)N1Cc2cc([101O:1][101CH:1]=C3CCN(c4ccc([100NH:0][100C:0](=O)N5CCCC(n6nc(-c7ccc(Oc8ccc(F)cc8F)cc7)c(C(N)=O)c6N)C5)cc4F)C3=O)ccc2CC1C(=O)NC1CCCc2ccccc21)C(C)(C)C

> <Shape>
0.353

> <Color>
0.108

> <Negative vol penalty>
0.000

$$$$

  -OEChem-04052300123D

 84 93  0     1  0  0  0  0  0999 V2000
  -25.6694  -32.5117   21.9345 C   0  0  0  0  0  0  0  0  0  0  0  0
  -25.7398  -31.1287   21.8018 C   0  0  0  0  0  0  0  0  0  0  0  0
  -23.0073   -9.9431   19.9061 C   0  0  0  0  0  0  0  0  0  0  0  0
  -24.0505   -9.6043   22.0588 C   0  0  0  0  0  0  0  0  0  0  0  0
  -29.1152  -17.1381   20.2323 C   0  0  0  0  0  0  0  0  0  0  0  0
  -28.9553  -17.4119   22.6274 C   0  0  0  0  0  0  0  0  0  0  0  0
  -24.5354  -33.1005   22.4924 C   0  0  0  0  0  0  0  0  0  0  0  0
  -24.6766  -30.3335   22.2281 C   0  0  0  0  0  0  0  0  0  0  0  0
  -23.4892  -26.7215   18.8831 C   0  0  0  0  0  0  0  0  0  0  0  0
  -28.3500  -18.2899   20.0495 C   0  0  0  0  0  0  0  0  0  0  0  0
  -28.1901  -18.5637   22.4447 C   0  0  0  0  0  0  0  0  0  0  0  0
  -22.3071   -8.7463   20.0570 C   0  0  0  0  0  0  0  0  0  0  0  0
  -23.3502   -8.4074   22.2098 C   0  0  0  0  0  0  0  0  0  0  0  0
  -24.3082  -25.5939   18.8460 C   0  0  0  0  0  0  0  0  0  0  0  0
  -20.2282   -7.4416   23.0704 C   0  0  0  0  0  0  0  0  0  0  0  0
  -19.6253   -7.1964   24.3041 C   0  0  0  0  0  0  0  0  0  0  0  0
  -22.6928  -24.3844   20.1677 C   0  0  0  0  0  0  0  0  0  0  0  0
  -20.9600   -5.1988   24.5594 C   0  0  0  0  0  0  0  0  0  0  0  0
  -23.8790  -10.3721   20.9070 C   0  0  0  0  0  0  0  0  0  0  0  0
  -29.4178  -16.6991   21.5213 C   0  0  0  0  0  0  0  0  0  0  0  0
  -24.1895  -12.8921   21.1542 C   0  0  0  0  0  0  0  0  0  0  0  0
  -23.4537  -32.3128   22.9168 C   0  0  0  0  0  0  0  0  0  0  0  0
  -22.2687  -26.6924   19.5732 C   0  0  0  0  0  0  0  0  0  0  0  0
  -23.5276  -30.9122   22.7934 C   0  0  0  0  0  0  0  0  0  0  0  0
  -21.8589  -25.5122   20.2099 C   0  0  0  0  0  0  0  0  0  0  0  0
  -27.8874  -19.0027   21.1557 C   0  0  0  0  0  0  0  0  0  0  0  0
  -22.4785   -7.9784   21.2088 C   0  0  0  0  0  0  0  0  0  0  0  0
  -23.9115  -24.4260   19.4908 C   0  0  0  0  0  0  0  0  0  0  0  0
  -21.1970   -6.5654   22.5812 C   0  0  0  0  0  0  0  0  0  0  0  0
  -19.9912   -6.0750   25.0486 C   0  0  0  0  0  0  0  0  0  0  0  0
  -21.5629   -5.4440   23.3257 C   0  0  0  0  0  0  0  0  0  0  0  0
  -24.6031  -11.6081   20.7514 C   0  0  0  0  0  0  0  0  0  0  0  0
  -25.2231  -13.7175   20.7842 C   0  0  0  0  0  0  0  0  0  0  0  0
  -25.9545  -21.7369   20.7306 C   0  0  0  0  0  0  0  0  0  0  0  0
  -26.5638  -21.0091   21.8444 C   0  0  0  0  0  0  0  0  0  0  0  0
  -25.1614  -22.8202   20.6439 C   0  0  0  0  0  0  0  0  0  1  0  0
  -30.2155  -15.4981   21.7118 C   0  0  0  0  0  0  0  0  0  0  0  0
  -22.9793  -13.3020   21.8046 C   0  0  0  0  0  0  0  0  0  0  0  0
  -30.7222  -14.7180   20.5594 C   0  0  0  0  0  0  0  0  0  0  0  0
  -21.0573  -28.2653   22.0555 C   0  0  0  0  0  0  0  0  0  0  0  0
  -18.3620  -26.6384   21.2738 C   0  0  0  0  0  0  0  0  0  0  0  0
  -16.9532  -23.9196   19.7671 C   0  0  0  0  0  0  0  0  0  0  0  0
  -22.2687  -32.9913   23.5571 C   0  0  0  0  0  0  0  0  0  0  0  0
  -21.3843  -27.9089   19.5812 C   0  0  0  0  0  0  0  0  0  0  0  0
  -20.5486  -25.4229   20.9472 C   0  0  0  0  0  0  0  0  0  0  0  0
  -26.5946  -20.7559   19.7752 C   0  0  0  0  0  0  0  0  0  0  0  0
  -21.0297  -32.1034   23.6398 C   0  0  0  0  0  0  0  0  0  0  0  0
  -29.2549  -12.8590   17.8673 C   0  0  0  0  0  0  0  0  0  0  0  0
  -21.3990  -30.7192   24.1636 C   0  0  0  0  0  0  0  0  0  0  0  0
  -27.8956  -12.4406   18.4267 C   0  0  0  0  0  0  0  0  0  0  0  0
  -30.3215  -12.8903   18.9571 C   0  0  0  0  0  0  0  0  0  0  0  0
  -28.6041  -13.3400   20.6883 C   0  0  0  0  0  0  0  0  0  0  0  0
  -22.3845  -30.0176   23.2212 C   0  0  1  0  0  0  0  0  0  0  0  0
  -20.4009  -27.9250   20.7474 C   0  0  1  0  0  0  0  0  0  0  0  0
  -27.4950  -13.3236   19.6219 C   0  0  2  0  0  0  0  0  0  0  0  0
  -14.7294  -22.8444   19.3248 C   0  0  0  0  0  0  0  0  0  0  0  0
  -18.2573  -25.6710   24.1657 C   0  0  0  0  0  0  0  0  0  0  0  0
  -16.6361  -23.9053   23.4431 C   0  0  0  0  0  0  0  0  0  0  0  0
  -16.0421  -26.3159   23.2006 C   0  0  0  0  0  0  0  0  0  0  0  0
  -17.3035  -24.1312   16.8360 C   0  0  0  0  0  0  0  0  0  0  0  0
  -17.7699  -25.3037   21.6571 C   0  0  1  0  0  0  0  0  0  0  0  0
  -15.7928  -23.7944   18.7964 C   0  0  2  0  0  0  0  0  0  0  0  0
  -17.2020  -25.3009   23.1045 C   0  0  0  0  0  0  0  0  0  0  0  0
  -25.8055  -11.6125   20.1700 N   0  0  0  0  0  0  0  0  0  0  0  0
  -30.5381  -15.0311   22.8878 N   0  0  0  0  0  0  0  0  0  0  0  0
  -26.1564  -12.9093   20.2046 N   0  0  0  0  0  0  0  0  0  0  0  0
  -27.1330  -20.1386   20.9743 N   0  0  0  0  0  0  0  0  0  0  0  0
  -29.8945  -13.7071   20.0913 N   0  0  0  0  0  0  0  0  0  0  0  0
  -19.7217  -26.6409   20.9318 N   0  0  0  0  0  0  0  0  0  0  0  0
  -25.4155  -15.0485   20.9012 N   0  0  0  0  0  0  0  0  0  0  0  0
  -22.0229  -12.3251   22.1135 N   0  0  0  0  0  0  0  0  0  0  0  0
  -21.6912  -29.4931   22.0642 N   0  0  0  0  0  0  0  0  0  0  0  0
  -16.7860  -24.9832   20.6286 N   0  0  0  0  0  0  0  0  0  0  0  0
  -16.2705  -23.2807   17.4816 N   0  3  0  0  0  0  0  0  0  0  0  0
  -26.5563  -21.1227   23.0525 O   0  0  0  0  0  0  0  0  0  0  0  0
  -22.7456  -14.5013   22.0883 O   0  0  0  0  0  0  0  0  0  0  0  0
  -31.8235  -15.0502   20.1411 O   0  0  0  0  0  0  0  0  0  0  0  0
  -20.9921  -27.4733   22.9883 O   0  0  0  0  0  0  0  0  0  0  0  0
  -17.6428  -27.6406   21.2709 O   0  0  0  0  0  0  0  0  0  0  0  0
  -17.9103  -23.1486   19.7641 O   0  0  0  0  0  0  0  0  0  0  0  0
  -21.7952   -6.8106   21.3566 O   0  0  0  0  0  0  0  0  0  0  0  0
  -24.7093  -23.3242   19.4567 O   0  0  0  0  0  0  0  0  0  1  0  0
  -19.4132   -5.8406   26.2340 F   0  0  0  0  0  0  0  0  0  0  0  0
  -22.4938   -4.5992   22.8614 F   0  0  0  0  0  0  0  0  0  0  0  0
  1  2  1  0  0  0  0
  1  7  2  0  0  0  0
  2  8  2  0  0  0  0
  3 12  2  0  0  0  0
  3 19  1  0  0  0  0
  4 13  1  0  0  0  0
  4 19  2  0  0  0  0
  5 10  2  0  0  0  0
  5 20  1  0  0  0  0
  6 11  1  0  0  0  0
  6 20  2  0  0  0  0
  7 22  1  0  0  0  0
  8 24  1  0  0  0  0
  9 14  2  0  0  0  0
  9 23  1  0  0  0  0
 10 26  1  0  0  0  0
 11 26  2  0  0  0  0
 12 27  1  0  0  0  0
 13 27  2  0  0  0  0
 14 28  1  0  0  0  0
 15 16  2  0  0  0  0
 15 29  1  0  0  0  0
 16 30  1  0  0  0  0
 17 25  1  0  0  0  0
 17 28  2  0  0  0  0
 18 30  2  0  0  0  0
 18 31  1  0  0  0  0
 19 32  1  0  0  0  0
 20 37  1  0  0  0  0
 21 32  1  0  0  0  0
 21 33  2  0  0  0  0
 21 38  1  0  0  0  0
 22 24  2  0  0  0  0
 22 43  1  0  0  0  0
 23 25  2  0  0  0  0
 23 44  1  0  0  0  0
 24 53  1  0  0  0  0
 25 45  1  0  0  0  0
 26 67  1  0  0  0  0
 27 81  1  0  0  0  0
 28 82  1  0  0  0  0
 29 31  2  0  0  0  0
 29 81  1  0  0  0  0
 30 83  1  0  0  0  0
 31 84  1  0  0  0  0
 32 64  2  0  0  0  0
 33 66  1  0  0  0  0
 33 70  1  0  0  0  0
 34 35  1  0  0  0  0
 34 36  2  0  0  0  0
 34 46  1  0  0  0  0
 35 67  1  0  0  0  0
 35 75  2  0  0  0  0
 36 82  1  0  0  0  0
 37 39  1  0  0  0  0
 37 65  2  0  0  0  0
 38 71  1  0  0  0  0
 38 76  2  0  0  0  0
 39 68  1  0  0  0  0
 39 77  2  0  0  0  0
 40 54  1  0  0  0  0
 40 72  1  0  0  0  0
 40 78  2  0  0  0  0
 41 61  1  0  0  0  0
 41 69  1  0  0  0  0
 41 79  2  0  0  0  0
 42 62  1  0  0  0  0
 42 73  1  0  0  0  0
 42 80  2  0  0  0  0
 43 47  1  0  0  0  0
 44 54  1  0  0  0  0
 45 69  1  0  0  0  0
 46 67  1  0  0  0  0
 47 49  1  0  0  0  0
 48 50  1  0  0  0  0
 48 51  1  0  0  0  0
 49 53  1  0  0  0  0
 50 55  1  0  0  0  0
 51 68  1  0  0  0  0
 52 55  1  0  0  0  0
 52 68  1  0  0  0  0
 53 72  1  0  0  0  0
 54 69  1  0  0  0  0
 55 66  1  0  0  0  0
 56 62  1  0  0  0  0
 57 63  1  0  0  0  0
 58 63  1  0  0  0  0
 59 63  1  0  0  0  0
 60 74  1  0  0  0  0
 61 63  1  0  0  0  0
 61 73  1  0  0  0  0
 62 74  1  0  0  0  0
 64 66  1  0  0  0  0
M  CHG  1  74   1
M  ISO  4  36 101  37 100  39 100  82 101
M  END
> <Batch ID>
0084

> <Smiles>
CNC(C)C(=O)NC(C(=O)N1Cc2cc([101O:1][101CH:1]=C3CN(c4ccc([100C:0](=N)[100C:0](=O)N5CCCC(n6nc(-c7ccc(Oc8ccc(F)cc8F)cc7)c(C(N)=O)c6N)C5)cc4)C3=O)ccc2CC1C(=O)NC1CCCc2ccccc21)C(C)(C)C

> <Shape>
0.311

> <Color>
0.182

> <Negative vol penalty>
0.000

$$$$

  -OEChem-04052300123D

 88 97  0     1  0  0  0  0  0999 V2000
  -27.6667  -36.8831   21.1468 C   0  0  0  0  0  0  0  0  0  0  0  0
  -27.7082  -35.4937   21.0894 C   0  0  0  0  0  0  0  0  0  0  0  0
  -24.4695   -9.2374   22.2430 C   0  0  0  0  0  0  0  0  0  0  0  0
  -23.6274   -9.6674   20.0197 C   0  0  0  0  0  0  0  0  0  0  0  0
  -27.6019  -21.1272   18.3562 C   0  0  0  0  0  0  0  0  0  0  0  0
  -26.7858  -37.5175   22.0218 C   0  0  0  0  0  0  0  0  0  0  0  0
  -26.8696  -34.7379   21.9079 C   0  0  0  0  0  0  0  0  0  0  0  0
  -24.6567  -30.9197   19.4241 C   0  0  0  0  0  0  0  0  0  0  0  0
  -27.6273  -22.4884   18.6598 C   0  0  0  0  0  0  0  0  0  0  0  0
  -23.3560   -8.4412   22.5109 C   0  0  0  0  0  0  0  0  0  0  0  0
  -22.5138   -8.8711   20.2876 C   0  0  0  0  0  0  0  0  0  0  0  0
  -25.4299  -29.7853   19.1808 C   0  0  0  0  0  0  0  0  0  0  0  0
  -22.3124   -5.3018   21.8121 C   0  0  0  0  0  0  0  0  0  0  0  0
  -22.5284   -4.0754   22.4405 C   0  0  0  0  0  0  0  0  0  0  0  0
  -30.0172  -21.0760   18.3834 C   0  0  0  0  0  0  0  0  0  0  0  0
  -24.3882  -28.6808   21.0555 C   0  0  0  0  0  0  0  0  0  0  0  0
  -21.1310   -4.7736   24.2836 C   0  0  0  0  0  0  0  0  0  0  0  0
  -24.6052   -9.8505   20.9975 C   0  0  0  0  0  0  0  0  0  0  0  0
  -28.7968  -20.4210   18.2180 C   0  0  0  0  0  0  0  0  0  0  0  0
  -26.9848  -10.2599   20.1743 C   0  0  0  0  0  0  0  0  0  0  0  0
  -25.9292  -36.7691   22.8444 C   0  0  0  0  0  0  0  0  0  0  0  0
  -23.7498  -30.9471   20.4933 C   0  0  0  0  0  0  0  0  0  0  0  0
  -25.9774  -35.3628   22.7957 C   0  0  0  0  0  0  0  0  0  0  0  0
  -23.6029  -29.8158   21.3086 C   0  0  0  0  0  0  0  0  0  0  0  0
  -28.8476  -23.1434   18.8251 C   0  0  0  0  0  0  0  0  0  0  0  0
  -22.3782   -8.2580   21.5331 C   0  0  0  0  0  0  0  0  0  0  0  0
  -25.2978  -28.6667   19.9984 C   0  0  0  0  0  0  0  0  0  0  0  0
  -21.5057   -6.2642   22.4195 C   0  0  0  0  0  0  0  0  0  0  0  0
  -21.9378   -3.8113   23.6762 C   0  0  0  0  0  0  0  0  0  0  0  0
  -30.0426  -22.4372   18.6870 C   0  0  0  0  0  0  0  0  0  0  0  0
  -20.9150   -6.0000   23.6552 C   0  0  0  0  0  0  0  0  0  0  0  0
  -25.7549  -10.6736   20.7204 C   0  0  0  0  0  0  0  0  0  0  0  0
  -27.7358  -11.4081   20.1110 C   0  0  0  0  0  0  0  0  0  0  0  0
  -28.2462  -26.6654   19.6005 C   0  0  0  0  0  0  0  0  0  0  0  0
  -29.6873  -26.6482   19.6203 C   0  0  0  0  0  0  0  0  0  0  0  0
  -27.7275  -25.3043   19.2890 C   0  0  0  0  0  0  0  0  0  0  0  0
  -30.5266  -27.6613   19.8602 C   0  0  0  0  0  0  0  0  0  0  0  0
  -27.4118  -27.6829   19.8137 C   0  0  0  0  0  0  0  0  0  1  0  0
  -28.7708  -18.9787   17.8965 C   0  0  0  0  0  0  0  0  0  0  0  0
  -27.4102   -8.9546   19.7612 C   0  0  0  0  0  0  0  0  0  0  0  0
  -23.4451  -32.6932   23.1319 C   0  0  0  0  0  0  0  0  0  0  0  0
  -20.6709  -31.0401   23.4376 C   0  0  0  0  0  0  0  0  0  0  0  0
  -18.8707  -28.2382   22.6924 C   0  0  0  0  0  0  0  0  0  0  0  0
  -28.0230  -16.7190   18.6115 C   0  0  0  0  0  0  0  0  0  0  0  0
  -25.0276  -37.4990   23.8083 C   0  0  0  0  0  0  0  0  0  0  0  0
  -22.9039  -32.1688   20.7260 C   0  0  0  0  0  0  0  0  0  0  0  0
  -22.6289  -29.7871   22.4571 C   0  0  0  0  0  0  0  0  0  0  0  0
  -30.1141  -25.2443   19.3141 C   0  0  0  0  0  0  0  0  0  0  0  0
  -23.9069  -36.6290   24.3719 C   0  0  0  0  0  0  0  0  0  0  0  0
  -26.9788  -15.9738   22.0918 C   0  0  0  0  0  0  0  0  0  0  0  0
  -24.4553  -35.2800   24.8259 C   0  0  0  0  0  0  0  0  0  0  0  0
  -26.5958  -14.5034   21.9660 C   0  0  0  0  0  0  0  0  0  0  0  0
  -26.7150  -16.7518   20.8033 C   0  0  0  0  0  0  0  0  0  0  0  0
  -26.9804  -14.6658   19.4788 C   0  0  0  0  0  0  0  0  0  0  0  0
  -25.0659  -34.5085   23.6497 C   0  0  1  0  0  0  0  0  0  0  0  0
  -22.3830  -32.2714   22.1562 C   0  0  1  0  0  0  0  0  0  0  0  0
  -27.2934  -13.8697   20.7539 C   0  0  2  0  0  0  0  0  0  0  0  0
  -16.6475  -27.1543   23.1168 C   0  0  0  0  0  0  0  0  0  0  0  0
  -21.5850  -30.2698   26.2449 C   0  0  0  0  0  0  0  0  0  0  0  0
  -19.8414  -28.4732   26.2443 C   0  0  0  0  0  0  0  0  0  0  0  0
  -19.1632  -30.8669   26.0635 C   0  0  0  0  0  0  0  0  0  0  0  0
  -18.1850  -28.2496   19.8134 C   0  0  0  0  0  0  0  0  0  0  0  0
  -20.2678  -29.7391   24.0887 C   0  0  1  0  0  0  0  0  0  0  0  0
  -17.4487  -28.0578   22.1924 C   0  0  2  0  0  0  0  0  0  0  0  0
  -20.2342  -29.8382   25.6400 C   0  0  0  0  0  0  0  0  0  0  0  0
  -25.7225  -11.9823   20.9853 N   0  0  0  0  0  0  0  0  0  0  0  0
  -26.9413  -12.4010   20.6041 N   0  0  0  0  0  0  0  0  0  0  0  0
  -28.8694  -24.5011   19.1281 N   0  0  0  0  0  0  0  0  0  0  0  0
  -21.8289  -31.0082   22.6479 N   0  0  0  0  0  0  0  0  0  0  0  0
  -27.2992  -16.0898   19.6287 N   0  0  0  0  0  0  0  0  0  0  0  0
  -28.9918  -11.6552   19.6822 N   0  0  0  0  0  0  0  0  0  0  0  0
  -26.5132   -7.8860   19.8951 N   0  0  0  0  0  0  0  0  0  0  0  0
  -28.1514  -18.1533   18.7545 N   0  0  0  0  0  0  0  0  0  0  0  0
  -24.0242  -33.9134   22.8403 N   0  0  0  0  0  0  0  0  0  0  0  0
  -18.9946  -29.3585   23.4866 N   0  0  0  0  0  0  0  0  0  0  0  0
  -29.3714  -18.5864   16.7733 N   0  3  0  0  0  0  0  0  0  0  0  0
  -17.4513  -27.4531   20.8304 N   0  3  0  0  0  0  0  0  0  0  0  0
  -26.5530  -24.9880   19.1998 O   0  0  0  0  0  0  0  0  0  0  0  0
  -28.5577   -8.7391   19.3026 O   0  0  0  0  0  0  0  0  0  0  0  0
  -23.7178  -31.9661   24.0798 O   0  0  0  0  0  0  0  0  0  0  0  0
  -19.9795  -32.0458   23.6172 O   0  0  0  0  0  0  0  0  0  0  0  0
  -19.7797  -27.4607   22.4100 O   0  0  0  0  0  0  0  0  0  0  0  0
  -28.5090  -16.1627   17.6327 O   0  0  0  0  0  0  0  0  0  0  0  0
  -21.2916   -7.4810   21.7941 O   0  0  0  0  0  0  0  0  0  0  0  0
  -26.0517  -27.5584   19.7636 O   0  0  0  0  0  0  0  0  0  1  0  0
  -22.1440   -2.6329   24.2788 F   0  0  0  0  0  0  0  0  0  0  0  0
  -31.2213  -23.0569   18.8424 F   0  0  0  0  0  0  0  0  0  0  0  0
  -20.1381   -6.9202   24.2431 F   0  0  0  0  0  0  0  0  0  0  0  0
  1  2  1  0  0  0  0
  1  6  2  0  0  0  0
  2  7  2  0  0  0  0
  3 10  2  0  0  0  0
  3 18  1  0  0  0  0
  4 11  1  0  0  0  0
  4 18  2  0  0  0  0
  5  9  2  0  0  0  0
  5 19  1  0  0  0  0
  6 21  1  0  0  0  0
  7 23  1  0  0  0  0
  8 12  2  0  0  0  0
  8 22  1  0  0  0  0
  9 25  1  0  0  0  0
 10 26  1  0  0  0  0
 11 26  2  0  0  0  0
 12 27  1  0  0  0  0
 13 14  2  0  0  0  0
 13 28  1  0  0  0  0
 14 29  1  0  0  0  0
 15 19  2  0  0  0  0
 15 30  1  0  0  0  0
 16 24  1  0  0  0  0
 16 27  2  0  0  0  0
 17 29  2  0  0  0  0
 17 31  1  0  0  0  0
 18 32  1  0  0  0  0
 19 39  1  0  0  0  0
 20 32  1  0  0  0  0
 20 33  2  0  0  0  0
 20 40  1  0  0  0  0
 21 23  2  0  0  0  0
 21 45  1  0  0  0  0
 22 24  2  0  0  0  0
 22 46  1  0  0  0  0
 23 55  1  0  0  0  0
 24 47  1  0  0  0  0
 25 30  2  0  0  0  0
 25 68  1  0  0  0  0
 26 84  1  0  0  0  0
 27 85  1  0  0  0  0
 28 31  2  0  0  0  0
 28 84  1  0  0  0  0
 29 86  1  0  0  0  0
 30 87  1  0  0  0  0
 31 88  1  0  0  0  0
 32 66  2  0  0  0  0
 33 67  1  0  0  0  0
 33 71  1  0  0  0  0
 34 35  1  0  0  0  0
 34 36  1  0  0  0  0
 34 38  2  0  0  0  0
 35 37  2  0  0  0  0
 35 48  1  0  0  0  0
 36 68  1  0  0  0  0
 36 78  2  0  0  0  0
 38 85  1  0  0  0  0
 39 73  1  0  0  0  0
 39 76  2  0  0  0  0
 40 72  1  0  0  0  0
 40 79  2  0  0  0  0
 41 56  1  0  0  0  0
 41 74  1  0  0  0  0
 41 80  2  0  0  0  0
 42 63  1  0  0  0  0
 42 69  1  0  0  0  0
 42 81  2  0  0  0  0
 43 64  1  0  0  0  0
 43 75  1  0  0  0  0
 43 82  2  0  0  0  0
 44 70  1  0  0  0  0
 44 73  1  0  0  0  0
 44 83  2  0  0  0  0
 45 49  1  0  0  0  0
 46 56  1  0  0  0  0
 47 69  1  0  0  0  0
 48 68  1  0  0  0  0
 49 51  1  0  0  0  0
 50 52  1  0  0  0  0
 50 53  1  0  0  0  0
 51 55  1  0  0  0  0
 52 57  1  0  0  0  0
 53 70  1  0  0  0  0
 54 57  1  0  0  0  0
 54 70  1  0  0  0  0
 55 74  1  0  0  0  0
 56 69  1  0  0  0  0
 57 67  1  0  0  0  0
 58 64  1  0  0  0  0
 59 65  1  0  0  0  0
 60 65  1  0  0  0  0
 61 65  1  0  0  0  0
 62 77  1  0  0  0  0
 63 65  1  0  0  0  0
 63 75  1  0  0  0  0
 64 77  1  0  0  0  0
 66 67  1  0  0  0  0
M  CHG  2  76   1  77   1
M  ISO  4  38 101  44 100  73 100  85 101
M  END
> <Batch ID>
0084

> <Smiles>
C=C1CN(c2ccc(C(=N)[100NH:0][100C:0](=O)N3CCCC(n4nc(-c5ccc(Oc6ccc(F)cc6F)cc5)c(C(N)=O)c4N)C3)cc2F)C(=O)C1=[101CH:1][101O:1]c1ccc2c(c1)CN(C(=O)C(NC(=O)C(C)NC)C(C)(C)C)C(C(=O)NC1CCCc3ccccc31)C2

> <Shape>
0.347

> <Color>
0.081

> <Negative vol penalty>
0.000

$$$$

  -OEChem-04052300123D

 87 96  0     1  0  0  0  0  0999 V2000
  -27.2930  -32.5875   26.1386 C   0  0  0  0  0  0  0  0  0  0  0  0
  -27.1345  -31.2378   25.8412 C   0  0  0  0  0  0  0  0  0  0  0  0
  -23.9119  -14.9752   20.8525 C   0  0  0  0  0  0  0  0  0  0  0  0
  -22.8766  -13.6705   19.1023 C   0  0  0  0  0  0  0  0  0  0  0  0
  -26.5729  -33.5462   25.4270 C   0  0  0  0  0  0  0  0  0  0  0  0
  -26.2549  -30.8459   24.8327 C   0  0  0  0  0  0  0  0  0  0  0  0
  -30.9616  -17.2300   19.3784 C   0  0  0  0  0  0  0  0  0  0  0  0
  -28.2363  -27.3157   21.7902 C   0  0  0  0  0  0  0  0  0  0  0  0
  -30.3135  -18.3453   19.9135 C   0  0  0  0  0  0  0  0  0  0  0  0
  -23.1706  -16.0897   20.4602 C   0  0  0  0  0  0  0  0  0  0  0  0
  -22.1353  -14.7851   18.7100 C   0  0  0  0  0  0  0  0  0  0  0  0
  -28.2619  -26.0058   22.2669 C   0  0  0  0  0  0  0  0  0  0  0  0
  -20.0164  -17.2452   20.8462 C   0  0  0  0  0  0  0  0  0  0  0  0
  -19.4063  -18.0025   21.8460 C   0  0  0  0  0  0  0  0  0  0  0  0
  -29.4443  -17.0143   21.7561 C   0  0  0  0  0  0  0  0  0  0  0  0
  -26.2972  -25.4989   20.9623 C   0  0  0  0  0  0  0  0  0  0  0  0
  -20.6716  -19.9397   21.1508 C   0  0  0  0  0  0  0  0  0  0  0  0
  -23.7649  -13.7656   20.1735 C   0  0  0  0  0  0  0  0  0  0  0  0
  -24.1630  -11.6377   21.5230 C   0  0  0  0  0  0  0  0  0  0  0  0
  -25.6913  -33.1664   24.4028 C   0  0  0  0  0  0  0  0  0  0  0  0
  -30.8311  -16.0179   20.0350 C   0  0  0  0  0  0  0  0  0  0  0  0
  -27.2328  -27.7307   20.9029 C   0  0  0  0  0  0  0  0  0  0  0  0
  -25.5213  -31.8003   24.1077 C   0  0  0  0  0  0  0  0  0  0  0  0
  -30.0800  -15.9111   21.2120 C   0  0  0  0  0  0  0  0  0  0  0  0
  -26.2625  -26.8139   20.4738 C   0  0  0  0  0  0  0  0  0  0  0  0
  -29.5603  -18.2382   21.0936 C   0  0  0  0  0  0  0  0  0  0  0  0
  -22.2823  -15.9947   19.3890 C   0  0  0  0  0  0  0  0  0  0  0  0
  -27.2906  -25.0980   21.8553 C   0  0  0  0  0  0  0  0  0  0  0  0
  -20.9543  -17.8350   19.9987 C   0  0  0  0  0  0  0  0  0  0  0  0
  -19.7338  -19.3498   21.9983 C   0  0  0  0  0  0  0  0  0  0  0  0
  -21.2819  -19.1823   20.1510 C   0  0  0  0  0  0  0  0  0  0  0  0
  -24.5308  -12.6141   20.5779 C   0  0  0  0  0  0  0  0  0  0  0  0
  -25.2233  -10.7649   21.5453 C   0  0  0  0  0  0  0  0  0  0  0  0
  -32.9595  -11.6481   22.3321 C   0  0  0  0  0  0  0  0  0  0  0  0
  -28.1289  -21.6005   21.9489 C   0  0  0  0  0  0  0  0  0  0  0  0
  -32.4515  -12.6341   21.5894 C   0  0  0  0  0  0  0  0  0  0  0  0
  -28.0207  -22.8894   21.6106 C   0  0  0  0  0  0  0  0  0  1  0  0
  -22.9696  -11.5293   22.3103 C   0  0  0  0  0  0  0  0  0  0  0  0
  -28.9300  -20.6719   21.0990 C   0  0  0  0  0  0  0  0  0  0  0  0
  -24.9127  -29.9014   20.9969 C   0  0  0  0  0  0  0  0  0  0  0  0
  -24.5027  -29.0288   17.8997 C   0  0  0  0  0  0  0  0  0  0  0  0
  -24.9027  -26.6541   15.4814 C   0  0  0  0  0  0  0  0  0  0  0  0
  -30.9615  -11.2329   20.3194 C   0  0  0  0  0  0  0  0  0  0  0  0
  -24.8992  -34.2359   23.6932 C   0  0  0  0  0  0  0  0  0  0  0  0
  -27.2348  -29.1399   20.3770 C   0  0  0  0  0  0  0  0  0  0  0  0
  -31.4576  -14.7050   19.6792 C   0  0  0  0  0  0  0  0  0  0  0  0
  -30.1330  -14.5167   21.7558 C   0  0  0  0  0  0  0  0  0  0  0  0
  -25.1758  -27.2039   19.5067 C   0  0  0  0  0  0  0  0  0  0  0  0
  -24.2683  -33.7607   22.3868 C   0  0  0  0  0  0  0  0  0  0  0  0
  -28.7353   -9.0522   18.8013 C   0  0  0  0  0  0  0  0  0  0  0  0
  -23.5847  -32.4114   22.5838 C   0  0  0  0  0  0  0  0  0  0  0  0
  -27.3626   -9.6157   19.1654 C   0  0  0  0  0  0  0  0  0  0  0  0
  -29.7112  -10.1731   18.4642 C   0  0  0  0  0  0  0  0  0  0  0  0
  -28.5071  -11.7537   19.9390 C   0  0  0  0  0  0  0  0  0  0  0  0
  -24.5952  -31.3372   23.0040 C   0  0  1  0  0  0  0  0  0  0  0  0
  -25.8664  -29.5931   19.8774 C   0  0  1  0  0  0  0  0  0  0  0  0
  -27.4772  -10.6599   20.2894 C   0  0  1  0  0  0  0  0  0  0  0  0
  -30.5953  -13.7379   20.5104 C   0  0  2  0  0  0  0  0  0  0  0  0
  -24.4341  -26.2145   13.0556 C   0  0  0  0  0  0  0  0  0  0  0  0
  -21.5666  -28.5264   18.5605 C   0  0  0  0  0  0  0  0  0  0  0  0
  -21.3830  -27.2212   16.4318 C   0  0  0  0  0  0  0  0  0  0  0  0
  -21.9638  -29.6461   16.3598 C   0  0  0  0  0  0  0  0  0  0  0  0
  -27.7813  -26.3638   14.8583 C   0  0  0  0  0  0  0  0  0  0  0  0
  -23.6819  -27.9840   17.1830 C   0  0  1  0  0  0  0  0  0  0  0  0
  -25.4428  -26.7396   14.0653 C   0  0  2  0  0  0  0  0  0  0  0  0
  -22.1680  -28.3373   17.1535 C   0  0  0  0  0  0  0  0  0  0  0  0
  -25.7310  -12.3838   20.0390 N   0  0  0  0  0  0  0  0  0  0  0  0
  -26.1266  -11.2527   20.6475 N   0  0  0  0  0  0  0  0  0  0  0  0
  -25.2165  -28.5948   19.0257 N   0  0  0  0  0  0  0  0  0  0  0  0
  -29.7911  -11.1521   19.5486 N   0  0  0  0  0  0  0  0  0  0  0  0
  -25.4617   -9.6354   22.2453 N   0  0  0  0  0  0  0  0  0  0  0  0
  -21.9810  -12.5119   22.1637 N   0  0  0  0  0  0  0  0  0  0  0  0
  -28.9167  -19.3850   21.6202 N   0  0  0  0  0  0  0  0  0  0  0  0
  -25.3572  -30.8849   21.8598 N   0  0  0  0  0  0  0  0  0  0  0  0
  -24.2843  -27.8257   15.8638 N   0  0  0  0  0  0  0  0  0  0  0  0
  -31.3004  -12.4945   20.8424 N   0  0  0  0  0  0  0  0  0  0  0  0
  -26.6941  -25.9400   13.9390 N   0  3  0  0  0  0  0  0  0  0  0  0
  -22.7926  -10.5980   23.1318 O   0  0  0  0  0  0  0  0  0  0  0  0
  -29.4973  -21.0668   20.0872 O   0  0  0  0  0  0  0  0  0  0  0  0
  -23.8516  -29.2931   21.0714 O   0  0  0  0  0  0  0  0  0  0  0  0
  -24.5159  -30.1857   17.4718 O   0  0  0  0  0  0  0  0  0  0  0  0
  -25.0147  -25.6473   16.1774 O   0  0  0  0  0  0  0  0  0  0  0  0
  -31.6706  -10.2357   20.5107 O   0  0  0  0  0  0  0  0  0  0  0  0
  -21.5586  -17.0820   19.0060 O   0  0  0  0  0  0  0  0  0  0  0  0
  -27.3129  -23.8190   22.3196 O   0  0  0  0  0  0  0  0  0  1  0  0
  -19.1466  -20.0774   22.9575 F   0  0  0  0  0  0  0  0  0  0  0  0
  -22.1812  -19.7548   19.3391 F   0  0  0  0  0  0  0  0  0  0  0  0
  1  2  1  0  0  0  0
  1  5  2  0  0  0  0
  2  6  2  0  0  0  0
  3 10  2  0  0  0  0
  3 18  1  0  0  0  0
  4 11  1  0  0  0  0
  4 18  2  0  0  0  0
  5 20  1  0  0  0  0
  6 23  1  0  0  0  0
  7  9  2  0  0  0  0
  7 21  1  0  0  0  0
  8 12  2  0  0  0  0
  8 22  1  0  0  0  0
  9 26  1  0  0  0  0
 10 27  1  0  0  0  0
 11 27  2  0  0  0  0
 12 28  1  0  0  0  0
 13 14  2  0  0  0  0
 13 29  1  0  0  0  0
 14 30  1  0  0  0  0
 15 24  1  0  0  0  0
 15 26  2  0  0  0  0
 16 25  1  0  0  0  0
 16 28  2  0  0  0  0
 17 30  2  0  0  0  0
 17 31  1  0  0  0  0
 18 32  1  0  0  0  0
 19 32  1  0  0  0  0
 19 33  2  0  0  0  0
 19 38  1  0  0  0  0
 20 23  2  0  0  0  0
 20 44  1  0  0  0  0
 21 24  2  0  0  0  0
 21 46  1  0  0  0  0
 22 25  2  0  0  0  0
 22 45  1  0  0  0  0
 23 55  1  0  0  0  0
 24 47  1  0  0  0  0
 25 48  1  0  0  0  0
 26 73  1  0  0  0  0
 27 84  1  0  0  0  0
 28 85  1  0  0  0  0
 29 31  2  0  0  0  0
 29 84  1  0  0  0  0
 30 86  1  0  0  0  0
 31 87  1  0  0  0  0
 32 67  2  0  0  0  0
 33 68  1  0  0  0  0
 33 71  1  0  0  0  0
 34 36  2  0  0  0  0
 35 37  2  0  0  0  0
 35 39  1  0  0  0  0
 36 76  1  0  0  0  0
 37 85  1  0  0  0  0
 38 72  1  0  0  0  0
 38 78  2  0  0  0  0
 39 73  1  0  0  0  0
 39 79  2  0  0  0  0
 40 56  1  0  0  0  0
 40 74  1  0  0  0  0
 40 80  2  0  0  0  0
 41 64  1  0  0  0  0
 41 69  1  0  0  0  0
 41 81  2  0  0  0  0
 42 65  1  0  0  0  0
 42 75  1  0  0  0  0
 42 82  2  0  0  0  0
 43 70  1  0  0  0  0
 43 76  1  0  0  0  0
 43 83  2  0  0  0  0
 44 49  1  0  0  0  0
 45 56  1  0  0  0  0
 46 58  1  0  0  0  0
 47 58  1  0  0  0  0
 48 69  1  0  0  0  0
 49 51  1  0  0  0  0
 50 52  1  0  0  0  0
 50 53  1  0  0  0  0
 51 55  1  0  0  0  0
 52 57  1  0  0  0  0
 53 70  1  0  0  0  0
 54 57  1  0  0  0  0
 54 70  1  0  0  0  0
 55 74  1  0  0  0  0
 56 69  1  0  0  0  0
 57 68  1  0  0  0  0
 58 76  1  0  0  0  0
 59 65  1  0  0  0  0
 60 66  1  0  0  0  0
 61 66  1  0  0  0  0
 62 66  1  0  0  0  0
 63 77  1  0  0  0  0
 64 66  1  0  0  0  0
 64 75  1  0  0  0  0
 65 77  1  0  0  0  0
 67 68  1  0  0  0  0
M  CHG  1  77   1
M  ISO  4  37 101  43 100  76 100  85 101
M  END
> <Batch ID>
0084

> <Smiles>
C=C[100N:0](C1Cc2ccc(NC(=O)C=[101CH:1][101O:1]c3ccc4c(c3)CN(C(=O)C(NC(=O)C(C)NC)C(C)(C)C)C(C(=O)NC3CCCc5ccccc53)C4)cc2C1)[100C:0](=O)N1CCCC(n2nc(-c3ccc(Oc4ccc(F)cc4F)cc3)c(C(N)=O)c2N)C1

> <Shape>
0.252

> <Color>
0.064

> <Negative vol penalty>
0.000

$$$$

  -OEChem-04052300123D

 85 94  0     1  0  0  0  0  0999 V2000
  -33.6268  -33.2966   16.3725 C   0  0  0  0  0  0  0  0  0  0  0  0
  -32.9231  -32.2667   16.9887 C   0  0  0  0  0  0  0  0  0  0  0  0
  -24.5316   -9.4398   21.6108 C   0  0  0  0  0  0  0  0  0  0  0  0
  -24.6971  -10.6827   23.6760 C   0  0  0  0  0  0  0  0  0  0  0  0
  -33.7641  -34.5268   17.0142 C   0  0  0  0  0  0  0  0  0  0  0  0
  -32.3572  -32.4661   18.2474 C   0  0  0  0  0  0  0  0  0  0  0  0
  -27.6279  -30.6819   18.5561 C   0  0  0  0  0  0  0  0  0  0  0  0
  -29.3943  -21.2478   19.8457 C   0  0  0  0  0  0  0  0  0  0  0  0
  -29.4681  -19.8626   19.9916 C   0  0  0  0  0  0  0  0  0  0  0  0
  -24.2124   -8.2879   22.3297 C   0  0  0  0  0  0  0  0  0  0  0  0
  -24.3778   -9.5307   24.3949 C   0  0  0  0  0  0  0  0  0  0  0  0
  -27.4758  -29.3050   18.7138 C   0  0  0  0  0  0  0  0  0  0  0  0
  -21.4958   -6.9790   23.8592 C   0  0  0  0  0  0  0  0  0  0  0  0
  -20.4382   -6.1972   23.3946 C   0  0  0  0  0  0  0  0  0  0  0  0
  -27.1161  -29.6217   21.0780 C   0  0  0  0  0  0  0  0  0  0  0  0
  -27.1084  -21.2084   20.6269 C   0  0  0  0  0  0  0  0  0  0  0  0
  -21.9390   -4.3219   23.1340 C   0  0  0  0  0  0  0  0  0  0  0  0
  -24.7740  -10.6372   22.2840 C   0  0  0  0  0  0  0  0  0  0  0  0
  -24.2098  -12.7889   21.0352 C   0  0  0  0  0  0  0  0  0  0  0  0
  -33.1913  -34.7445   18.2772 C   0  0  0  0  0  0  0  0  0  0  0  0
  -27.5359  -31.5395   19.6617 C   0  0  0  0  0  0  0  0  0  0  0  0
  -32.4881  -33.7000   18.9071 C   0  0  0  0  0  0  0  0  0  0  0  0
  -27.2648  -31.0093   20.9312 C   0  0  0  0  0  0  0  0  0  0  0  0
  -28.2145  -21.9207   20.1634 C   0  0  0  0  0  0  0  0  0  0  0  0
  -28.3621  -19.1502   20.4552 C   0  0  0  0  0  0  0  0  0  0  0  0
  -24.1355   -8.3333   23.7217 C   0  0  0  0  0  0  0  0  0  0  0  0
  -27.2228  -28.7745   19.9754 C   0  0  0  0  0  0  0  0  0  0  0  0
  -22.7750   -6.4323   23.9612 C   0  0  0  0  0  0  0  0  0  0  0  0
  -27.1822  -19.8231   20.7728 C   0  0  0  0  0  0  0  0  0  0  0  0
  -20.6598   -4.8686   23.0320 C   0  0  0  0  0  0  0  0  0  0  0  0
  -22.9966   -5.1037   23.5986 C   0  0  0  0  0  0  0  0  0  0  0  0
  -25.1044  -11.8274   21.5420 C   0  0  0  0  0  0  0  0  0  0  0  0
  -25.0144  -13.7135   20.4153 C   0  0  0  0  0  0  0  0  0  0  0  0
  -28.0853  -25.2828   19.8939 C   0  0  0  0  0  0  0  0  0  0  0  0
  -29.0389  -24.2128   19.5987 C   0  0  0  0  0  0  0  0  0  0  0  0
  -28.1198  -26.6230   19.7819 C   0  0  0  0  0  0  0  0  0  1  0  0
  -22.7793  -12.8417   21.1176 C   0  0  0  0  0  0  0  0  0  0  0  0
  -29.5200  -33.5614   21.1036 C   0  0  0  0  0  0  0  0  0  0  0  0
  -26.8820  -34.3015   22.8400 C   0  0  0  0  0  0  0  0  0  0  0  0
  -23.8238  -33.3445   24.0140 C   0  0  0  0  0  0  0  0  0  0  0  0
  -29.5547  -16.9353   20.3214 C   0  0  0  0  0  0  0  0  0  0  0  0
  -33.4067  -36.0759   18.9522 C   0  0  0  0  0  0  0  0  0  0  0  0
  -27.6757  -33.0248   19.4705 C   0  0  0  0  0  0  0  0  0  0  0  0
  -27.1366  -31.8890   22.1471 C   0  0  0  0  0  0  0  0  0  0  0  0
  -27.0984  -24.2374   20.3606 C   0  0  0  0  0  0  0  0  0  0  0  0
  -32.4575  -36.3268   20.1211 C   0  0  0  0  0  0  0  0  0  0  0  0
  -29.9440  -13.5537   19.2772 C   0  0  0  0  0  0  0  0  0  0  0  0
  -32.3856  -35.0989   21.0233 C   0  0  0  0  0  0  0  0  0  0  0  0
  -28.6460  -12.8822   19.7316 C   0  0  0  0  0  0  0  0  0  0  0  0
  -30.4187  -14.6058   20.2778 C   0  0  0  0  0  0  0  0  0  0  0  0
  -28.1187  -14.9455   21.0923 C   0  0  0  0  0  0  0  0  0  0  0  0
  -31.8387  -33.8857   20.2614 C   0  0  1  0  0  0  0  0  0  0  0  0
  -28.0732  -33.7570   20.7486 C   0  0  1  0  0  0  0  0  0  0  0  0
  -27.5664  -13.9239   20.0850 C   0  0  2  0  0  0  0  0  0  0  0  0
  -21.9211  -34.1484   25.4392 C   0  0  0  0  0  0  0  0  0  0  0  0
  -28.5322  -33.7545   25.3474 C   0  0  0  0  0  0  0  0  0  0  0  0
  -26.3941  -33.6381   26.6448 C   0  0  0  0  0  0  0  0  0  0  0  0
  -27.0404  -35.7562   25.4965 C   0  0  0  0  0  0  0  0  0  0  0  0
  -21.9139  -33.1830   21.7589 C   0  0  0  0  0  0  0  0  0  0  0  0
  -25.1653  -18.6786   20.2455 C   0  0  0  0  0  0  0  0  0  0  0  0
  -26.2629  -33.7856   24.1165 C   0  0  1  0  0  0  0  0  0  0  0  0
  -22.4828  -34.0560   24.0290 C   0  0  2  0  0  0  0  0  0  0  0  0
  -27.0617  -34.2166   25.3789 C   0  0  0  0  0  0  0  0  0  0  0  0
  -26.3797  -12.1144   21.2677 N   0  0  0  0  0  0  0  0  0  0  0  0
  -26.2922  -13.2667   20.5817 N   0  0  0  0  0  0  0  0  0  0  0  0
  -28.1417  -23.2868   20.0186 N   0  0  0  0  0  0  0  0  0  0  0  0
  -27.2877  -33.3341   21.9098 N   0  0  0  0  0  0  0  0  0  0  0  0
  -29.3452  -15.5607   20.5613 N   0  0  0  0  0  0  0  0  0  0  0  0
  -24.7464  -14.8568   19.7495 N   0  0  0  0  0  0  0  0  0  0  0  0
  -22.1103  -11.8105   21.7909 N   0  0  0  0  0  0  0  0  0  0  0  0
  -28.4521  -17.7433   20.5972 N   0  0  0  0  0  0  0  0  0  0  0  0
  -30.4010  -33.9806   20.1250 N   0  0  0  0  0  0  0  0  0  0  0  0
  -24.8743  -34.2329   24.1066 N   0  0  0  0  0  0  0  0  0  0  0  0
  -21.5001  -33.3267   23.1785 N   0  3  0  0  0  0  0  0  0  0  0  0
  -30.1726  -24.1658   19.1685 O   0  0  0  0  0  0  0  0  0  0  0  0
  -22.1130  -13.7671   20.5949 O   0  0  0  0  0  0  0  0  0  0  0  0
  -29.8152  -33.0680   22.1858 O   0  0  0  0  0  0  0  0  0  0  0  0
  -26.9947  -35.5183   22.6712 O   0  0  0  0  0  0  0  0  0  0  0  0
  -23.9287  -32.1227   23.9324 O   0  0  0  0  0  0  0  0  0  0  0  0
  -30.6237  -17.3608   19.8763 O   0  0  0  0  0  0  0  0  0  0  0  0
  -23.8238   -7.2095   24.4234 O   0  0  0  0  0  0  0  0  0  0  0  0
  -27.0746  -27.4309   20.1323 O   0  0  0  0  0  0  0  0  0  1  0  0
  -26.0893  -19.1460   21.2258 O   0  0  0  0  0  0  0  0  0  0  0  0
  -19.6438   -4.1175   22.5873 F   0  0  0  0  0  0  0  0  0  0  0  0
  -24.2231   -4.5726   23.6955 F   0  0  0  0  0  0  0  0  0  0  0  0
  1  2  1  0  0  0  0
  1  5  2  0  0  0  0
  2  6  2  0  0  0  0
  3 10  2  0  0  0  0
  3 18  1  0  0  0  0
  4 11  1  0  0  0  0
  4 18  2  0  0  0  0
  5 20  1  0  0  0  0
  6 22  1  0  0  0  0
  7 12  2  0  0  0  0
  7 21  1  0  0  0  0
  8  9  2  0  0  0  0
  8 24  1  0  0  0  0
  9 25  1  0  0  0  0
 10 26  1  0  0  0  0
 11 26  2  0  0  0  0
 12 27  1  0  0  0  0
 13 14  2  0  0  0  0
 13 28  1  0  0  0  0
 14 30  1  0  0  0  0
 15 23  1  0  0  0  0
 15 27  2  0  0  0  0
 16 24  2  0  0  0  0
 16 29  1  0  0  0  0
 17 30  2  0  0  0  0
 17 31  1  0  0  0  0
 18 32  1  0  0  0  0
 19 32  1  0  0  0  0
 19 33  2  0  0  0  0
 19 37  1  0  0  0  0
 20 22  2  0  0  0  0
 20 42  1  0  0  0  0
 21 23  2  0  0  0  0
 21 43  1  0  0  0  0
 22 52  1  0  0  0  0
 23 44  1  0  0  0  0
 24 66  1  0  0  0  0
 25 29  2  0  0  0  0
 25 71  1  0  0  0  0
 26 81  1  0  0  0  0
 27 82  1  0  0  0  0
 28 31  2  0  0  0  0
 28 81  1  0  0  0  0
 29 83  1  0  0  0  0
 30 84  1  0  0  0  0
 31 85  1  0  0  0  0
 32 64  2  0  0  0  0
 33 65  1  0  0  0  0
 33 69  1  0  0  0  0
 34 35  1  0  0  0  0
 34 36  2  0  0  0  0
 34 45  1  0  0  0  0
 35 66  1  0  0  0  0
 35 75  2  0  0  0  0
 36 82  1  0  0  0  0
 37 70  1  0  0  0  0
 37 76  2  0  0  0  0
 38 53  1  0  0  0  0
 38 72  1  0  0  0  0
 38 77  2  0  0  0  0
 39 61  1  0  0  0  0
 39 67  1  0  0  0  0
 39 78  2  0  0  0  0
 40 62  1  0  0  0  0
 40 73  1  0  0  0  0
 40 79  2  0  0  0  0
 41 68  1  0  0  0  0
 41 71  1  0  0  0  0
 41 80  2  0  0  0  0
 42 46  1  0  0  0  0
 43 53  1  0  0  0  0
 44 67  1  0  0  0  0
 45 66  1  0  0  0  0
 46 48  1  0  0  0  0
 47 49  1  0  0  0  0
 47 50  1  0  0  0  0
 48 52  1  0  0  0  0
 49 54  1  0  0  0  0
 50 68  1  0  0  0  0
 51 54  1  0  0  0  0
 51 68  1  0  0  0  0
 52 72  1  0  0  0  0
 53 67  1  0  0  0  0
 54 65  1  0  0  0  0
 55 62  1  0  0  0  0
 56 63  1  0  0  0  0
 57 63  1  0  0  0  0
 58 63  1  0  0  0  0
 59 74  1  0  0  0  0
 60 83  1  0  0  0  0
 61 63  1  0  0  0  0
 61 73  1  0  0  0  0
 62 74  1  0  0  0  0
 64 65  1  0  0  0  0
M  CHG  1  74   1
M  ISO  4  36 101  41 100  71 100  82 101
M  END
> <Batch ID>
0084

> <Smiles>
CNC(C)C(=O)NC(C(=O)N1Cc2cc([101O:1][101CH:1]=C3CN(c4ccc([100NH:0][100C:0](=O)N5CCCC(n6nc(-c7ccc(Oc8ccc(F)cc8F)cc7)c(C(N)=O)c6N)C5)c(OC)c4)C3=O)ccc2CC1C(=O)NC1CCCc2ccccc21)C(C)(C)C

> <Shape>
0.264

> <Color>
0.137

> <Negative vol penalty>
0.000

$$$$

  -OEChem-04052300123D

 83 92  0     1  0  0  0  0  0999 V2000
  -28.7383  -32.9253   25.4291 C   0  0  0  0  0  0  0  0  0  0  0  0
  -28.8966  -31.6050   25.0202 C   0  0  0  0  0  0  0  0  0  0  0  0
  -23.0862   -9.8577   19.9667 C   0  0  0  0  0  0  0  0  0  0  0  0
  -24.3880   -9.4383   21.9583 C   0  0  0  0  0  0  0  0  0  0  0  0
  -27.5001  -33.5519   25.2943 C   0  0  0  0  0  0  0  0  0  0  0  0
  -27.8164  -30.9102   24.4773 C   0  0  0  0  0  0  0  0  0  0  0  0
  -29.0782  -28.2888   20.3322 C   0  0  0  0  0  0  0  0  0  0  0  0
  -22.5742   -8.5617   20.0285 C   0  0  0  0  0  0  0  0  0  0  0  0
  -23.8758   -8.1424   22.0202 C   0  0  0  0  0  0  0  0  0  0  0  0
  -29.7499  -27.0819   20.5220 C   0  0  0  0  0  0  0  0  0  0  0  0
  -21.0220   -6.6391   23.0282 C   0  0  0  0  0  0  0  0  0  0  0  0
  -20.5920   -6.1724   24.2703 C   0  0  0  0  0  0  0  0  0  0  0  0
  -27.6801  -25.8860   20.1981 C   0  0  0  0  0  0  0  0  0  0  0  0
  -28.9000  -19.4247   23.5348 C   0  0  0  0  0  0  0  0  0  0  0  0
  -30.0565  -18.6315   21.1221 C   0  0  0  0  0  0  0  0  0  0  0  0
  -22.2039   -4.3764   24.1535 C   0  0  0  0  0  0  0  0  0  0  0  0
  -23.9932  -10.2960   20.9316 C   0  0  0  0  0  0  0  0  0  0  0  0
  -23.9848  -12.7909   21.4635 C   0  0  0  0  0  0  0  0  0  0  0  0
  -26.4067  -32.8674   24.7405 C   0  0  0  0  0  0  0  0  0  0  0  0
  -27.6981  -28.3040   20.0843 C   0  0  0  0  0  0  0  0  0  0  0  0
  -26.5621  -31.5277   24.3362 C   0  0  0  0  0  0  0  0  0  0  0  0
  -26.9937  -27.0943   20.0030 C   0  0  0  0  0  0  0  0  0  0  0  0
  -29.4640  -20.3897   22.6901 C   0  0  0  0  0  0  0  0  0  0  0  0
  -29.4849  -17.6814   21.9672 C   0  0  0  0  0  0  0  0  0  0  0  0
  -30.0604  -19.9795   21.4880 C   0  0  0  0  0  0  0  0  0  0  0  0
  -22.9689   -7.7041   21.0552 C   0  0  0  0  0  0  0  0  0  0  0  0
  -29.0503  -25.8804   20.4579 C   0  0  0  0  0  0  0  0  0  0  0  0
  -22.0429   -5.9744   22.3487 C   0  0  0  0  0  0  0  0  0  0  0  0
  -21.1829   -5.0411   24.8330 C   0  0  0  0  0  0  0  0  0  0  0  0
  -28.9108  -18.0767   23.1740 C   0  0  0  0  0  0  0  0  0  0  0  0
  -22.6338   -4.8431   22.9114 C   0  0  0  0  0  0  0  0  0  0  0  0
  -24.5230  -11.6344   20.8680 C   0  0  0  0  0  0  0  0  0  0  0  0
  -24.8522  -13.7951   21.1090 C   0  0  0  0  0  0  0  0  0  0  0  0
  -29.8746  -22.7195   21.9528 C   0  0  0  0  0  0  0  0  0  0  0  0
  -29.3045  -23.9004   21.6767 C   0  0  0  0  0  0  0  0  0  1  0  0
  -22.8062  -12.9438   22.2655 C   0  0  0  0  0  0  0  0  0  0  0  0
  -25.1625  -29.4970   21.5848 C   0  0  0  0  0  0  0  0  0  0  0  0
  -23.6027  -28.4953   18.9229 C   0  0  0  0  0  0  0  0  0  0  0  0
  -23.5122  -26.3920   16.2369 C   0  0  0  0  0  0  0  0  0  0  0  0
  -30.0200  -15.7551   20.4345 C   0  0  0  0  0  0  0  0  0  0  0  0
  -29.4347  -21.8421   23.0881 C   0  0  0  0  0  0  0  0  0  0  0  0
  -25.0754  -33.5715   24.6586 C   0  0  0  0  0  0  0  0  0  0  0  0
  -26.9931  -29.6128   19.8552 C   0  0  0  0  0  0  0  0  0  0  0  0
  -25.5150  -27.0552   19.7194 C   0  0  0  0  0  0  0  0  0  0  0  0
  -30.9868  -22.1319   21.1356 C   0  0  0  0  0  0  0  0  0  0  0  0
  -24.0794  -32.8846   23.7278 C   0  0  0  0  0  0  0  0  0  0  0  0
  -28.6515  -13.8379   17.7645 C   0  0  0  0  0  0  0  0  0  0  0  0
  -24.0509  -31.3824   23.9914 C   0  0  0  0  0  0  0  0  0  0  0  0
  -27.4111  -13.1889   18.3829 C   0  0  0  0  0  0  0  0  0  0  0  0
  -29.8028  -13.9277   18.7646 C   0  0  0  0  0  0  0  0  0  0  0  0
  -28.2277  -13.9241   20.6588 C   0  0  0  0  0  0  0  0  0  0  0  0
  -25.4206  -30.7486   23.7197 C   0  0  1  0  0  0  0  0  0  0  0  0
  -25.4925  -29.5375   20.1195 C   0  0  1  0  0  0  0  0  0  0  0  0
  -27.0201  -13.8706   19.7088 C   0  0  2  0  0  0  0  0  0  0  0  0
  -22.0925  -25.7819   14.2595 C   0  0  0  0  0  0  0  0  0  0  0  0
  -21.6969  -26.9800   20.7618 C   0  0  0  0  0  0  0  0  0  0  0  0
  -20.9304  -25.6686   18.7715 C   0  0  0  0  0  0  0  0  0  0  0  0
  -20.5919  -28.1391   18.8408 C   0  0  0  0  0  0  0  0  0  0  0  0
  -25.6431  -27.1475   14.3271 C   0  0  0  0  0  0  0  0  0  0  0  0
  -22.9210  -27.2161   18.5009 C   0  0  1  0  0  0  0  0  0  0  0  0
  -23.2357  -26.6475   14.7663 C   0  0  2  0  0  0  0  0  0  0  0  0
  -21.5625  -27.0014   19.2260 C   0  0  0  0  0  0  0  0  0  0  0  0
  -25.6453  -11.8799   20.1867 N   0  0  0  0  0  0  0  0  0  0  0  0
  -25.8194  -13.2022   20.3519 N   0  0  0  0  0  0  0  0  0  0  0  0
  -24.8694  -28.3614   19.5088 N   0  0  0  0  0  0  0  0  0  0  0  0
  -29.3596  -14.5886   19.9941 N   0  0  0  0  0  0  0  0  0  0  0  0
  -24.8743  -15.1186   21.3741 N   0  0  0  0  0  0  0  0  0  0  0  0
  -22.0287  -11.8089   22.5337 N   0  0  0  0  0  0  0  0  0  0  0  0
  -29.4900  -16.3137   21.5971 N   0  0  0  0  0  0  0  0  0  0  0  0
  -25.6288  -30.5856   22.2968 N   0  0  0  0  0  0  0  0  0  0  0  0
  -22.8203  -27.2679   17.0464 N   0  0  0  0  0  0  0  0  0  0  0  0
  -24.4476  -26.3494   13.9519 N   0  3  0  0  0  0  0  0  0  0  0  0
  -22.4440  -14.0568   22.7167 O   0  0  0  0  0  0  0  0  0  0  0  0
  -24.5304  -28.5490   22.0358 O   0  0  0  0  0  0  0  0  0  0  0  0
  -23.0353  -29.5740   18.7329 O   0  0  0  0  0  0  0  0  0  0  0  0
  -24.2636  -25.5018   16.6285 O   0  0  0  0  0  0  0  0  0  0  0  0
  -30.9675  -16.2394   19.8101 O   0  0  0  0  0  0  0  0  0  0  0  0
  -30.6333  -20.8508   20.5947 O   0  0  0  0  0  0  0  0  0  0  0  0
  -22.4692   -6.4395   21.1159 O   0  0  0  0  0  0  0  0  0  0  0  0
  -29.7033  -24.7010   20.6434 O   0  0  0  0  0  0  0  0  0  1  0  0
  -20.7709   -4.5939   26.0265 F   0  0  0  0  0  0  0  0  0  0  0  0
  -28.3599  -17.1712   23.9949 F   0  0  0  0  0  0  0  0  0  0  0  0
  -23.6159   -4.2011   22.2638 F   0  0  0  0  0  0  0  0  0  0  0  0
  1  2  1  0  0  0  0
  1  5  2  0  0  0  0
  2  6  2  0  0  0  0
  3  8  2  0  0  0  0
  3 17  1  0  0  0  0
  4  9  1  0  0  0  0
  4 17  2  0  0  0  0
  5 19  1  0  0  0  0
  6 21  1  0  0  0  0
  7 10  2  0  0  0  0
  7 20  1  0  0  0  0
  8 26  1  0  0  0  0
  9 26  2  0  0  0  0
 10 27  1  0  0  0  0
 11 12  2  0  0  0  0
 11 28  1  0  0  0  0
 12 29  1  0  0  0  0
 13 22  1  0  0  0  0
 13 27  2  0  0  0  0
 14 23  1  0  0  0  0
 14 30  2  0  0  0  0
 15 24  2  0  0  0  0
 15 25  1  0  0  0  0
 16 29  2  0  0  0  0
 16 31  1  0  0  0  0
 17 32  1  0  0  0  0
 18 32  1  0  0  0  0
 18 33  2  0  0  0  0
 18 36  1  0  0  0  0
 19 21  2  0  0  0  0
 19 42  1  0  0  0  0
 20 22  2  0  0  0  0
 20 43  1  0  0  0  0
 21 52  1  0  0  0  0
 22 44  1  0  0  0  0
 23 25  2  0  0  0  0
 23 41  1  0  0  0  0
 24 30  1  0  0  0  0
 24 69  1  0  0  0  0
 25 78  1  0  0  0  0
 26 79  1  0  0  0  0
 27 80  1  0  0  0  0
 28 31  2  0  0  0  0
 28 79  1  0  0  0  0
 29 81  1  0  0  0  0
 30 82  1  0  0  0  0
 31 83  1  0  0  0  0
 32 63  2  0  0  0  0
 33 64  1  0  0  0  0
 33 67  1  0  0  0  0
 34 35  2  0  0  0  0
 34 41  1  0  0  0  0
 34 45  1  0  0  0  0
 35 80  1  0  0  0  0
 36 68  1  0  0  0  0
 36 73  2  0  0  0  0
 37 53  1  0  0  0  0
 37 70  1  0  0  0  0
 37 74  2  0  0  0  0
 38 60  1  0  0  0  0
 38 65  1  0  0  0  0
 38 75  2  0  0  0  0
 39 61  1  0  0  0  0
 39 71  1  0  0  0  0
 39 76  2  0  0  0  0
 40 66  1  0  0  0  0
 40 69  1  0  0  0  0
 40 77  2  0  0  0  0
 42 46  1  0  0  0  0
 43 53  1  0  0  0  0
 44 65  1  0  0  0  0
 45 78  1  0  0  0  0
 46 48  1  0  0  0  0
 47 49  1  0  0  0  0
 47 50  1  0  0  0  0
 48 52  1  0  0  0  0
 49 54  1  0  0  0  0
 50 66  1  0  0  0  0
 51 54  1  0  0  0  0
 51 66  1  0  0  0  0
 52 70  1  0  0  0  0
 53 65  1  0  0  0  0
 54 64  1  0  0  0  0
 55 61  1  0  0  0  0
 56 62  1  0  0  0  0
 57 62  1  0  0  0  0
 58 62  1  0  0  0  0
 59 72  1  0  0  0  0
 60 62  1  0  0  0  0
 60 71  1  0  0  0  0
 61 72  1  0  0  0  0
 63 64  1  0  0  0  0
M  CHG  1  72   1
M  ISO  4  35 101  40 100  69 100  80 101
M  END
> <Batch ID>
0084

> <Smiles>
CNC(C)C(=O)NC(C(=O)N1Cc2cc([101O:1][101CH:1]=C3COc4cc([100NH:0][100C:0](=O)N5CCCC(n6nc(-c7ccc(Oc8ccc(F)cc8F)cc7)c(C(N)=O)c6N)C5)c(F)cc4C3)ccc2CC1C(=O)NC1CCCc2ccccc21)C(C)(C)C

> <Shape>
0.339

> <Color>
0.121

> <Negative vol penalty>
0.000

$$$$

  -OEChem-04052300123D

 83 92  0     1  0  0  0  0  0999 V2000
  -27.3675  -37.7450   23.8656 C   0  0  0  0  0  0  0  0  0  0  0  0
  -27.9570  -36.8019   23.0298 C   0  0  0  0  0  0  0  0  0  0  0  0
  -24.1813   -9.2922   22.1889 C   0  0  0  0  0  0  0  0  0  0  0  0
  -22.9180  -11.2744   21.6302 C   0  0  0  0  0  0  0  0  0  0  0  0
  -26.4797  -37.3357   24.8597 C   0  0  0  0  0  0  0  0  0  0  0  0
  -27.6598  -35.4488   23.1884 C   0  0  0  0  0  0  0  0  0  0  0  0
  -26.9126  -29.4156   19.3992 C   0  0  0  0  0  0  0  0  0  0  0  0
  -26.2945  -19.4048   19.1182 C   0  0  0  0  0  0  0  0  0  0  0  0
  -28.5717  -19.7743   19.8357 C   0  0  0  0  0  0  0  0  0  0  0  0
  -26.5615  -18.0437   18.9714 C   0  0  0  0  0  0  0  0  0  0  0  0
  -28.8387  -18.4131   19.6889 C   0  0  0  0  0  0  0  0  0  0  0  0
  -23.3114   -9.0365   23.2488 C   0  0  0  0  0  0  0  0  0  0  0  0
  -22.0480  -11.0187   22.6901 C   0  0  0  0  0  0  0  0  0  0  0  0
  -27.3666  -28.0976   19.3719 C   0  0  0  0  0  0  0  0  0  0  0  0
  -20.2207   -7.7332   23.6758 C   0  0  0  0  0  0  0  0  0  0  0  0
  -19.7640   -6.4253   23.8385 C   0  0  0  0  0  0  0  0  0  0  0  0
  -25.7575  -27.5145   21.0718 C   0  0  0  0  0  0  0  0  0  0  0  0
  -20.7524   -6.3542   26.0419 C   0  0  0  0  0  0  0  0  0  0  0  0
  -23.9846  -10.4112   21.3796 C   0  0  0  0  0  0  0  0  0  0  0  0
  -24.7619  -10.2248   18.9571 C   0  0  0  0  0  0  0  0  0  0  0  0
  -26.1641  -35.9778   25.0243 C   0  0  0  0  0  0  0  0  0  0  0  0
  -25.8833  -29.7959   20.2723 C   0  0  0  0  0  0  0  0  0  0  0  0
  -26.7680  -35.0208   24.1865 C   0  0  0  0  0  0  0  0  0  0  0  0
  -25.2905  -28.8373   21.1065 C   0  0  0  0  0  0  0  0  0  0  0  0
  -27.2996  -20.2701   19.5503 C   0  0  0  0  0  0  0  0  0  0  0  0
  -27.8336  -17.5478   19.2568 C   0  0  0  0  0  0  0  0  0  0  0  0
  -22.2447   -9.8997   23.4994 C   0  0  0  0  0  0  0  0  0  0  0  0
  -26.7910  -27.1475   20.2103 C   0  0  0  0  0  0  0  0  0  0  0  0
  -20.9434   -8.3516   24.6961 C   0  0  0  0  0  0  0  0  0  0  0  0
  -20.0298   -5.7359   25.0215 C   0  0  0  0  0  0  0  0  0  0  0  0
  -21.2091   -7.6621   25.8792 C   0  0  0  0  0  0  0  0  0  0  0  0
  -24.8833  -10.6762   20.2849 C   0  0  0  0  0  0  0  0  0  0  0  0
  -25.8596  -10.7447   18.3159 C   0  0  0  0  0  0  0  0  0  0  0  0
  -26.6631  -23.5750   19.8063 C   0  0  0  0  0  0  0  0  0  0  0  0
  -25.9191  -22.3542   19.4940 C   0  0  0  0  0  0  0  0  0  0  0  0
  -26.3384  -24.8794   19.8614 C   0  0  0  0  0  0  0  0  0  1  0  0
  -23.7475   -9.4085   18.3568 C   0  0  0  0  0  0  0  0  0  0  0  0
  -25.6404  -31.8305   22.7024 C   0  0  0  0  0  0  0  0  0  0  0  0
  -22.5040  -31.0140   22.5646 C   0  0  0  0  0  0  0  0  0  0  0  0
  -20.1433  -28.7267   21.6470 C   0  0  0  0  0  0  0  0  0  0  0  0
  -29.3128  -15.5107   19.3485 C   0  0  0  0  0  0  0  0  0  0  0  0
  -25.2352  -35.5790   26.1436 C   0  0  0  0  0  0  0  0  0  0  0  0
  -25.3867  -31.2157   20.2705 C   0  0  0  0  0  0  0  0  0  0  0  0
  -24.1687  -29.1900   22.0476 C   0  0  0  0  0  0  0  0  0  0  0  0
  -27.8996  -22.7333   20.0236 C   0  0  0  0  0  0  0  0  0  0  0  0
  -24.6852  -34.1619   26.0029 C   0  0  0  0  0  0  0  0  0  0  0  0
  -30.3734  -12.1185   19.1363 C   0  0  0  0  0  0  0  0  0  0  0  0
  -25.8053  -33.1867   25.6545 C   0  0  0  0  0  0  0  0  0  0  0  0
  -29.0741  -11.3227   19.2798 C   0  0  0  0  0  0  0  0  0  0  0  0
  -30.3747  -13.3661   20.0178 C   0  0  0  0  0  0  0  0  0  0  0  0
  -27.9128  -13.4513   19.9922 C   0  0  0  0  0  0  0  0  0  0  0  0
  -26.4518  -33.5462   24.3113 C   0  0  1  0  0  0  0  0  0  0  0  0
  -24.6826  -31.6040   21.5670 C   0  0  1  0  0  0  0  0  0  0  0  0
  -27.8380  -12.2202   19.0743 C   0  0  2  0  0  0  0  0  0  0  0  0
  -17.6672  -28.3223   21.6989 C   0  0  0  0  0  0  0  0  0  0  0  0
  -22.6801  -30.3319   25.5334 C   0  0  0  0  0  0  0  0  0  0  0  0
  -20.5291  -29.0722   25.3002 C   0  0  0  0  0  0  0  0  0  0  0  0
  -20.5889  -31.5268   24.8597 C   0  0  0  0  0  0  0  0  0  0  0  0
  -19.9827  -28.6134   18.6940 C   0  0  0  0  0  0  0  0  0  0  0  0
  -21.6492  -29.9432   23.1984 C   0  0  1  0  0  0  0  0  0  0  0  0
  -18.8330  -28.8776   20.8956 C   0  0  2  0  0  0  0  0  0  0  0  0
  -21.3843  -30.2120   24.7067 C   0  0  0  0  0  0  0  0  0  0  0  0
  -25.9723  -11.4252   20.4774 N   0  0  0  0  0  0  0  0  0  0  0  0
  -26.5453  -11.4483   19.2620 N   0  0  0  0  0  0  0  0  0  0  0  0
  -27.0365  -21.6126   19.6947 N   0  0  0  0  0  0  0  0  0  0  0  0
  -23.7225  -30.5926   22.0136 N   0  0  0  0  0  0  0  0  0  0  0  0
  -29.1767  -14.1697   19.7656 N   0  0  0  0  0  0  0  0  0  0  0  0
  -26.2957  -10.6641   17.0409 N   0  0  0  0  0  0  0  0  0  0  0  0
  -22.6896   -8.9596   19.1591 N   0  0  0  0  0  0  0  0  0  0  0  0
  -28.1052  -16.1651   19.1078 N   0  0  0  0  0  0  0  0  0  0  0  0
  -25.6125  -33.1135   23.2146 N   0  0  0  0  0  0  0  0  0  0  0  0
  -20.4406  -29.8519   22.3864 N   0  0  0  0  0  0  0  0  0  0  0  0
  -18.8952  -28.1526   19.5950 N   0  3  0  0  0  0  0  0  0  0  0  0
  -24.7764  -22.1020   19.1729 O   0  0  0  0  0  0  0  0  0  0  0  0
  -23.7869   -9.0732   17.1487 O   0  0  0  0  0  0  0  0  0  0  0  0
  -26.3510  -30.9089   23.0863 O   0  0  0  0  0  0  0  0  0  0  0  0
  -22.1021  -32.1802   22.5523 O   0  0  0  0  0  0  0  0  0  0  0  0
  -20.8322  -27.7106   21.5873 O   0  0  0  0  0  0  0  0  0  0  0  0
  -30.4198  -16.0313   19.1885 O   0  0  0  0  0  0  0  0  0  0  0  0
  -21.3955   -9.6504   24.5334 O   0  0  0  0  0  0  0  0  0  0  0  0
  -27.2327  -25.8606   20.1862 O   0  0  0  0  0  0  0  0  0  1  0  0
  -19.5898   -4.4805   25.1782 F   0  0  0  0  0  0  0  0  0  0  0  0
  -21.9018   -8.2514   26.8635 F   0  0  0  0  0  0  0  0  0  0  0  0
  1  2  1  0  0  0  0
  1  5  2  0  0  0  0
  2  6  2  0  0  0  0
  3 12  2  0  0  0  0
  3 19  1  0  0  0  0
  4 13  1  0  0  0  0
  4 19  2  0  0  0  0
  5 21  1  0  0  0  0
  6 23  1  0  0  0  0
  7 14  2  0  0  0  0
  7 22  1  0  0  0  0
  8 10  2  0  0  0  0
  8 25  1  0  0  0  0
  9 11  1  0  0  0  0
  9 25  2  0  0  0  0
 10 26  1  0  0  0  0
 11 26  2  0  0  0  0
 12 27  1  0  0  0  0
 13 27  2  0  0  0  0
 14 28  1  0  0  0  0
 15 16  2  0  0  0  0
 15 29  1  0  0  0  0
 16 30  1  0  0  0  0
 17 24  1  0  0  0  0
 17 28  2  0  0  0  0
 18 30  2  0  0  0  0
 18 31  1  0  0  0  0
 19 32  1  0  0  0  0
 20 32  1  0  0  0  0
 20 33  2  0  0  0  0
 20 37  1  0  0  0  0
 21 23  2  0  0  0  0
 21 42  1  0  0  0  0
 22 24  2  0  0  0  0
 22 43  1  0  0  0  0
 23 52  1  0  0  0  0
 24 44  1  0  0  0  0
 25 65  1  0  0  0  0
 26 70  1  0  0  0  0
 27 80  1  0  0  0  0
 28 81  1  0  0  0  0
 29 31  2  0  0  0  0
 29 80  1  0  0  0  0
 30 82  1  0  0  0  0
 31 83  1  0  0  0  0
 32 63  2  0  0  0  0
 33 64  1  0  0  0  0
 33 68  1  0  0  0  0
 34 35  1  0  0  0  0
 34 36  2  0  0  0  0
 34 45  1  0  0  0  0
 35 65  1  0  0  0  0
 35 74  2  0  0  0  0
 36 81  1  0  0  0  0
 37 69  1  0  0  0  0
 37 75  2  0  0  0  0
 38 53  1  0  0  0  0
 38 71  1  0  0  0  0
 38 76  2  0  0  0  0
 39 60  1  0  0  0  0
 39 66  1  0  0  0  0
 39 77  2  0  0  0  0
 40 61  1  0  0  0  0
 40 72  1  0  0  0  0
 40 78  2  0  0  0  0
 41 67  1  0  0  0  0
 41 70  1  0  0  0  0
 41 79  2  0  0  0  0
 42 46  1  0  0  0  0
 43 53  1  0  0  0  0
 44 66  1  0  0  0  0
 45 65  1  0  0  0  0
 46 48  1  0  0  0  0
 47 49  1  0  0  0  0
 47 50  1  0  0  0  0
 48 52  1  0  0  0  0
 49 54  1  0  0  0  0
 50 67  1  0  0  0  0
 51 54  1  0  0  0  0
 51 67  1  0  0  0  0
 52 71  1  0  0  0  0
 53 66  1  0  0  0  0
 54 64  1  0  0  0  0
 55 61  1  0  0  0  0
 56 62  1  0  0  0  0
 57 62  1  0  0  0  0
 58 62  1  0  0  0  0
 59 73  1  0  0  0  0
 60 62  1  0  0  0  0
 60 72  1  0  0  0  0
 61 73  1  0  0  0  0
 63 64  1  0  0  0  0
M  CHG  1  73   1
M  ISO  4  36 101  41 100  70 100  81 101
M  END
> <Batch ID>
0084

> <Smiles>
CNC(C)C(=O)NC(C(=O)N1Cc2cc([101O:1][101CH:1]=C3CN(c4ccc([100NH:0][100C:0](=O)N5CCCC(n6nc(-c7ccc(Oc8ccc(F)cc8F)cc7)c(C(N)=O)c6N)C5)cc4)C3=O)ccc2CC1C(=O)NC1CCCc2ccccc21)C(C)(C)C

> <Shape>
0.292

> <Color>
0.088

> <Negative vol penalty>
0.000

$$$$

  -OEChem-04052300123D

 83 91  0     1  0  0  0  0  0999 V2000
  -25.8915  -23.4401   19.4105 C   0  0  0  0  0  0  0  0  0  0  0  0
  -28.7030  -37.1170   23.9025 C   0  0  0  0  0  0  0  0  0  0  0  0
  -29.0883  -36.1493   22.9802 C   0  0  0  0  0  0  0  0  0  0  0  0
  -24.3514   -9.6289   22.6692 C   0  0  0  0  0  0  0  0  0  0  0  0
  -23.1151  -11.6503   22.1975 C   0  0  0  0  0  0  0  0  0  0  0  0
  -28.8735  -19.8324   19.4867 C   0  0  0  0  0  0  0  0  0  0  0  0
  -27.8585  -36.7754   24.9579 C   0  0  0  0  0  0  0  0  0  0  0  0
  -28.6301  -34.8391   23.1135 C   0  0  0  0  0  0  0  0  0  0  0  0
  -26.7683  -29.1485   19.1808 C   0  0  0  0  0  0  0  0  0  0  0  0
  -29.0615  -18.4566   19.3538 C   0  0  0  0  0  0  0  0  0  0  0  0
  -23.6020   -9.4415   23.8306 C   0  0  0  0  0  0  0  0  0  0  0  0
  -22.3656  -11.4629   23.3589 C   0  0  0  0  0  0  0  0  0  0  0  0
  -27.0403  -27.7863   19.0611 C   0  0  0  0  0  0  0  0  0  0  0  0
  -20.5312   -8.2912   24.6550 C   0  0  0  0  0  0  0  0  0  0  0  0
  -20.0426   -7.0102   24.9116 C   0  0  0  0  0  0  0  0  0  0  0  0
  -26.5138  -19.5522   19.0506 C   0  0  0  0  0  0  0  0  0  0  0  0
  -25.5217  -27.3294   20.8788 C   0  0  0  0  0  0  0  0  0  0  0  0
  -21.2789   -6.9541   26.9865 C   0  0  0  0  0  0  0  0  0  0  0  0
  -24.1080  -10.7333   21.8527 C   0  0  0  0  0  0  0  0  0  0  0  0
  -27.5997  -20.3802   19.3352 C   0  0  0  0  0  0  0  0  0  0  0  0
  -24.5871  -10.4465   19.3635 C   0  0  0  0  0  0  0  0  0  0  0  0
  -27.3819  -35.4625   25.0987 C   0  0  0  0  0  0  0  0  0  0  0  0
  -25.8776  -29.6131   20.1592 C   0  0  0  0  0  0  0  0  0  0  0  0
  -27.7794  -34.4793   24.1726 C   0  0  0  0  0  0  0  0  0  0  0  0
  -25.2380  -28.6977   21.0072 C   0  0  0  0  0  0  0  0  0  0  0  0
  -27.9756  -17.6287   19.0692 C   0  0  0  0  0  0  0  0  0  0  0  0
  -22.6091  -10.3585   24.1754 C   0  0  0  0  0  0  0  0  0  0  0  0
  -26.4192  -26.8768   19.9121 C   0  0  0  0  0  0  0  0  0  0  0  0
  -21.3938   -8.9036   25.5642 C   0  0  0  0  0  0  0  0  0  0  0  0
  -20.4164   -6.3416   26.0773 C   0  0  0  0  0  0  0  0  0  0  0  0
  -26.7017  -18.1765   18.9176 C   0  0  0  0  0  0  0  0  0  0  0  0
  -21.7676   -8.2351   26.7300 C   0  0  0  0  0  0  0  0  0  0  0  0
  -24.8822  -10.9278   20.6531 C   0  0  0  0  0  0  0  0  0  0  0  0
  -25.6227  -10.8988   18.5829 C   0  0  0  0  0  0  0  0  0  0  0  0
  -25.6430  -24.7056   19.5197 C   0  0  0  0  0  0  0  0  0  1  0  0
  -27.3987  -21.8524   19.4772 C   0  0  0  0  0  0  0  0  0  0  0  0
  -23.4761   -9.6610   18.9116 C   0  0  0  0  0  0  0  0  0  0  0  0
  -26.1166  -31.5378   22.6776 C   0  0  0  0  0  0  0  0  0  0  0  0
  -22.8999  -31.1372   22.7990 C   0  0  0  0  0  0  0  0  0  0  0  0
  -20.1876  -29.2195   22.0163 C   0  0  0  0  0  0  0  0  0  0  0  0
  -29.3691  -15.5301   19.0540 C   0  0  0  0  0  0  0  0  0  0  0  0
  -26.5089  -35.1302   26.2829 C   0  0  0  0  0  0  0  0  0  0  0  0
  -25.5744  -31.0831   20.2578 C   0  0  0  0  0  0  0  0  0  0  0  0
  -24.2584  -29.1434   22.0608 C   0  0  0  0  0  0  0  0  0  0  0  0
  -25.7668  -33.8040   26.1393 C   0  0  0  0  0  0  0  0  0  0  0  0
  -30.2550  -12.0889   18.8291 C   0  0  0  0  0  0  0  0  0  0  0  0
  -26.7140  -32.7122   25.6518 C   0  0  0  0  0  0  0  0  0  0  0  0
  -28.9494  -11.3568   19.1480 C   0  0  0  0  0  0  0  0  0  0  0  0
  -30.4118  -13.3585   19.6641 C   0  0  0  0  0  0  0  0  0  0  0  0
  -27.9695  -13.5542   19.9217 C   0  0  0  0  0  0  0  0  0  0  0  0
  -27.2835  -33.0529   24.2694 C   0  0  1  0  0  0  0  0  0  0  0  0
  -25.0426  -31.4928   21.6277 C   0  0  1  0  0  0  0  0  0  0  0  0
  -27.7363  -12.3034   19.0587 C   0  0  2  0  0  0  0  0  0  0  0  0
  -17.6936  -29.1331   22.2812 C   0  0  0  0  0  0  0  0  0  0  0  0
  -23.2409  -30.2903   25.7104 C   0  0  0  0  0  0  0  0  0  0  0  0
  -20.9305  -29.3294   25.6287 C   0  0  0  0  0  0  0  0  0  0  0  0
  -21.2752  -31.7751   25.2792 C   0  0  0  0  0  0  0  0  0  0  0  0
  -19.7584  -29.2757   19.0886 C   0  0  0  0  0  0  0  0  0  0  0  0
  -21.9694  -30.1541   23.4674 C   0  0  1  0  0  0  0  0  0  0  0  0
  -18.8485  -29.5742   21.3955 C   0  0  2  0  0  0  0  0  0  0  0  0
  -21.8739  -30.3787   25.0030 C   0  0  0  0  0  0  0  0  0  0  0  0
  -26.0166  -11.6317   20.6937 N   0  0  0  0  0  0  0  0  0  0  0  0
  -26.0996  -22.2890   19.3081 N   0  0  0  0  0  0  0  0  0  0  0  0
  -26.4435  -11.5960   19.4199 N   0  0  0  0  0  0  0  0  0  0  0  0
  -23.9998  -30.5915   22.1220 N   0  0  0  0  0  0  0  0  0  0  0  0
  -29.2270  -14.2083   19.5269 N   0  0  0  0  0  0  0  0  0  0  0  0
  -25.9024  -10.7642   17.2691 N   0  0  0  0  0  0  0  0  0  0  0  0
  -22.5019   -9.2822   19.8453 N   0  0  0  0  0  0  0  0  0  0  0  0
  -28.1699  -16.2316   18.9342 N   0  0  0  0  0  0  0  0  0  0  0  0
  -26.3026  -32.7866   23.2391 N   0  0  0  0  0  0  0  0  0  0  0  0
  -20.6936  -30.2590   22.7677 N   0  0  0  0  0  0  0  0  0  0  0  0
  -18.7017  -28.9133   20.0679 N   0  3  0  0  0  0  0  0  0  0  0  0
  -28.3728  -22.5590   19.7282 O   0  0  0  0  0  0  0  0  0  0  0  0
  -23.3594   -9.2917   17.7185 O   0  0  0  0  0  0  0  0  0  0  0  0
  -26.7300  -30.5148   22.9586 O   0  0  0  0  0  0  0  0  0  0  0  0
  -22.6558  -32.3443   22.8686 O   0  0  0  0  0  0  0  0  0  0  0  0
  -20.7287  -28.1279   21.8542 O   0  0  0  0  0  0  0  0  0  0  0  0
  -30.4703  -15.9956   18.7499 O   0  0  0  0  0  0  0  0  0  0  0  0
  -21.8774  -10.1758   25.3085 O   0  0  0  0  0  0  0  0  0  0  0  0
  -26.6835  -25.5468   19.7978 O   0  0  0  0  0  0  0  0  0  1  0  0
  -19.9459   -5.1121   26.3242 F   0  0  0  0  0  0  0  0  0  0  0  0
  -25.6505  -17.3905   18.6434 F   0  0  0  0  0  0  0  0  0  0  0  0
  -22.5950   -8.8188   27.6077 F   0  0  0  0  0  0  0  0  0  0  0  0
  1 35  2  0  0  0  0
  1 63  2  0  0  0  0
  2  3  1  0  0  0  0
  2  7  2  0  0  0  0
  3  8  2  0  0  0  0
  4 11  2  0  0  0  0
  4 19  1  0  0  0  0
  5 12  1  0  0  0  0
  5 19  2  0  0  0  0
  6 10  2  0  0  0  0
  6 20  1  0  0  0  0
  7 22  1  0  0  0  0
  8 24  1  0  0  0  0
  9 13  2  0  0  0  0
  9 23  1  0  0  0  0
 10 26  1  0  0  0  0
 11 27  1  0  0  0  0
 12 27  2  0  0  0  0
 13 28  1  0  0  0  0
 14 15  2  0  0  0  0
 14 29  1  0  0  0  0
 15 30  1  0  0  0  0
 16 20  2  0  0  0  0
 16 31  1  0  0  0  0
 17 25  1  0  0  0  0
 17 28  2  0  0  0  0
 18 30  2  0  0  0  0
 18 32  1  0  0  0  0
 19 33  1  0  0  0  0
 20 36  1  0  0  0  0
 21 33  1  0  0  0  0
 21 34  2  0  0  0  0
 21 37  1  0  0  0  0
 22 24  2  0  0  0  0
 22 42  1  0  0  0  0
 23 25  2  0  0  0  0
 23 43  1  0  0  0  0
 24 51  1  0  0  0  0
 25 44  1  0  0  0  0
 26 31  2  0  0  0  0
 26 69  1  0  0  0  0
 27 79  1  0  0  0  0
 28 80  1  0  0  0  0
 29 32  2  0  0  0  0
 29 79  1  0  0  0  0
 30 81  1  0  0  0  0
 31 82  1  0  0  0  0
 32 83  1  0  0  0  0
 33 62  2  0  0  0  0
 34 64  1  0  0  0  0
 34 67  1  0  0  0  0
 35 80  1  0  0  0  0
 36 63  1  0  0  0  0
 36 73  2  0  0  0  0
 37 68  1  0  0  0  0
 37 74  2  0  0  0  0
 38 52  1  0  0  0  0
 38 70  1  0  0  0  0
 38 75  2  0  0  0  0
 39 59  1  0  0  0  0
 39 65  1  0  0  0  0
 39 76  2  0  0  0  0
 40 60  1  0  0  0  0
 40 71  1  0  0  0  0
 40 77  2  0  0  0  0
 41 66  1  0  0  0  0
 41 69  1  0  0  0  0
 41 78  2  0  0  0  0
 42 45  1  0  0  0  0
 43 52  1  0  0  0  0
 44 65  1  0  0  0  0
 45 47  1  0  0  0  0
 46 48  1  0  0  0  0
 46 49  1  0  0  0  0
 47 51  1  0  0  0  0
 48 53  1  0  0  0  0
 49 66  1  0  0  0  0
 50 53  1  0  0  0  0
 50 66  1  0  0  0  0
 51 70  1  0  0  0  0
 52 65  1  0  0  0  0
 53 64  1  0  0  0  0
 54 60  1  0  0  0  0
 55 61  1  0  0  0  0
 56 61  1  0  0  0  0
 57 61  1  0  0  0  0
 58 72  1  0  0  0  0
 59 61  1  0  0  0  0
 59 71  1  0  0  0  0
 60 72  1  0  0  0  0
 62 64  1  0  0  0  0
M  CHG  1  72   1
M  ISO  4  35 101  41 100  69 100  80 101
M  END
> <Batch ID>
0084

> <Smiles>
CNC(C)C(=O)NC(C(=O)N1Cc2cc([101O:1][101CH:1]=C=NC(=O)c3ccc([100NH:0][100C:0](=O)N4CCCC(n5nc(-c6ccc(Oc7ccc(F)cc7F)cc6)c(C(N)=O)c5N)C4)c(F)c3)ccc2CC1C(=O)NC1CCCc2ccccc21)C(C)(C)C

> <Shape>
0.272

> <Color>
0.088

> <Negative vol penalty>
0.000

$$$$

  -OEChem-04052300123D

 88 96  0     1  0  0  0  0  0999 V2000
  -28.7926  -37.2167   20.9099 C   0  0  0  0  0  0  0  0  0  0  0  0
  -29.1194  -35.8681   20.8112 C   0  0  0  0  0  0  0  0  0  0  0  0
  -23.6002   -8.7854   20.2294 C   0  0  0  0  0  0  0  0  0  0  0  0
  -23.0174  -10.6787   21.6124 C   0  0  0  0  0  0  0  0  0  0  0  0
  -28.4823  -19.5647   18.4352 C   0  0  0  0  0  0  0  0  0  0  0  0
  -27.6969  -37.6131   21.6756 C   0  0  0  0  0  0  0  0  0  0  0  0
  -28.3512  -34.9150   21.4790 C   0  0  0  0  0  0  0  0  0  0  0  0
  -27.0559  -29.2398   19.5765 C   0  0  0  0  0  0  0  0  0  0  0  0
  -28.3815  -18.1739   18.4691 C   0  0  0  0  0  0  0  0  0  0  0  0
  -22.7251   -7.9820   20.9604 C   0  0  0  0  0  0  0  0  0  0  0  0
  -22.1423   -9.8754   22.3434 C   0  0  0  0  0  0  0  0  0  0  0  0
  -27.6131  -27.9985   19.8805 C   0  0  0  0  0  0  0  0  0  0  0  0
  -22.7144   -6.3762   23.9346 C   0  0  0  0  0  0  0  0  0  0  0  0
  -23.1663   -5.1158   24.3256 C   0  0  0  0  0  0  0  0  0  0  0  0
  -25.8960  -27.6398   21.5363 C   0  0  0  0  0  0  0  0  0  0  0  0
  -30.4444  -18.0549   19.7211 C   0  0  0  0  0  0  0  0  0  0  0  0
  -21.3671   -4.0859   23.0848 C   0  0  0  0  0  0  0  0  0  0  0  0
  -23.7464  -10.1337   20.5554 C   0  0  0  0  0  0  0  0  0  0  0  0
  -29.5642  -20.2006   19.0441 C   0  0  0  0  0  0  0  0  0  0  0  0
  -24.3536  -11.7150   18.6479 C   0  0  0  0  0  0  0  0  0  0  0  0
  -26.9091  -36.6635   22.3453 C   0  0  0  0  0  0  0  0  0  0  0  0
  -25.9189  -29.6959   20.2589 C   0  0  0  0  0  0  0  0  0  0  0  0
  -27.2447  -35.2991   22.2554 C   0  0  0  0  0  0  0  0  0  0  0  0
  -25.3247  -28.8862   21.2374 C   0  0  0  0  0  0  0  0  0  0  0  0
  -29.3625  -17.4190   19.1121 C   0  0  0  0  0  0  0  0  0  0  0  0
  -21.9961   -8.5270   22.0174 C   0  0  0  0  0  0  0  0  0  0  0  0
  -27.0349  -27.1995   20.8625 C   0  0  0  0  0  0  0  0  0  0  0  0
  -21.5889   -6.4915   23.1188 C   0  0  0  0  0  0  0  0  0  0  0  0
  -22.4927   -3.9707   23.9007 C   0  0  0  0  0  0  0  0  0  0  0  0
  -30.5452  -19.4457   19.6871 C   0  0  0  0  0  0  0  0  0  0  0  0
  -20.9152   -5.3463   22.6939 C   0  0  0  0  0  0  0  0  0  0  0  0
  -24.6506  -10.9640   19.8009 C   0  0  0  0  0  0  0  0  0  0  0  0
  -25.5407  -12.3222   18.3183 C   0  0  0  0  0  0  0  0  0  0  0  0
  -29.6688  -21.6820   19.0030 C   0  0  0  0  0  0  0  0  0  0  0  0
  -23.1153  -11.8517   17.9382 C   0  0  0  0  0  0  0  0  0  0  0  0
  -25.2783  -32.1728   22.1453 C   0  0  0  0  0  0  0  0  0  0  0  0
  -31.7546  -24.0859   20.9158 C   0  0  0  0  0  0  0  0  0  0  0  0
  -29.2251  -24.2352   20.8830 C   0  0  0  0  0  0  0  0  0  0  0  0
  -22.2451  -31.0399   21.9484 C   0  0  0  0  0  0  0  0  0  0  0  0
  -20.1743  -28.3867   21.3839 C   0  0  0  0  0  0  0  0  0  0  0  0
  -30.1460  -15.1091   19.7419 C   0  0  0  0  0  0  0  0  0  0  0  0
  -25.7626  -37.1439   23.1994 C   0  0  0  0  0  0  0  0  0  0  0  0
  -25.3142  -31.0257   19.9006 C   0  0  0  0  0  0  0  0  0  0  0  0
  -24.0916  -29.3210   21.9848 C   0  0  0  0  0  0  0  0  0  0  0  0
  -24.7763  -36.0399   23.5718 C   0  0  0  0  0  0  0  0  0  0  0  0
  -30.2268  -11.5652   20.0759 C   0  0  0  0  0  0  0  0  0  0  0  0
  -25.5212  -34.7979   24.0510 C   0  0  0  0  0  0  0  0  0  0  0  0
  -28.7588  -11.1547   19.9393 C   0  0  0  0  0  0  0  0  0  0  0  0
  -30.3786  -12.8862   20.8280 C   0  0  0  0  0  0  0  0  0  0  0  0
  -28.1140  -13.5884   20.1588 C   0  0  0  0  0  0  0  0  0  0  0  0
  -26.4209  -34.2333   22.9450 C   0  0  1  0  0  0  0  0  0  0  0  0
  -24.4576  -31.6131   21.0180 C   0  0  1  0  0  0  0  0  0  0  0  0
  -27.9067  -12.2965   19.3515 C   0  0  2  0  0  0  0  0  0  0  0  0
  -32.4748  -25.3492   20.5176 C   0  0  0  0  0  0  0  0  0  0  0  0
  -17.7448  -27.7604   21.3308 C   0  0  0  0  0  0  0  0  0  0  0  0
  -22.1820  -31.0354   24.9990 C   0  0  0  0  0  0  0  0  0  0  0  0
  -20.1708  -29.5488   24.8858 C   0  0  0  0  0  0  0  0  0  0  0  0
  -20.0793  -31.8441   23.9133 C   0  0  0  0  0  0  0  0  0  0  0  0
  -20.3141  -27.6235   18.5278 C   0  0  0  0  0  0  0  0  0  0  0  0
  -28.7388  -25.5977   20.4302 C   0  0  0  0  0  0  0  0  0  1  0  0
  -30.4707  -23.7041   20.1964 C   0  0  2  0  0  0  0  0  0  0  0  0
  -21.4195  -30.0521   22.7368 C   0  0  1  0  0  0  0  0  0  0  0  0
  -18.9363  -28.2416   20.5174 C   0  0  2  0  0  0  0  0  0  0  0  0
  -20.9873  -30.6124   24.1211 C   0  0  0  0  0  0  0  0  0  0  0  0
  -25.9264  -11.0816   20.1784 N   0  0  0  0  0  0  0  0  0  0  0  0
  -26.4416  -11.9135   19.2572 N   0  0  0  0  0  0  0  0  0  0  0  0
  -23.5413  -30.6321   21.6029 N   0  0  0  0  0  0  0  0  0  0  0  0
  -29.5460  -13.9219   20.2123 N   0  0  0  0  0  0  0  0  0  0  0  0
  -25.8914  -13.1603   17.3199 N   0  0  0  0  0  0  0  0  0  0  0  0
  -21.9932  -11.1587   18.4127 N   0  0  0  0  0  0  0  0  0  0  0  0
  -29.2599  -16.0062   19.1464 N   0  0  0  0  0  0  0  0  0  0  0  0
  -30.3125  -22.2812   20.0803 N   0  0  0  0  0  0  0  0  0  0  0  0
  -25.6333  -33.4978   21.9790 N   0  0  0  0  0  0  0  0  0  0  0  0
  -20.3076  -29.6687   21.8736 N   0  0  0  0  0  0  0  0  0  0  0  0
  -19.1831  -27.2628   19.4211 N   0  3  0  0  0  0  0  0  0  0  0  0
  -29.1779  -22.2921   18.0569 O   0  0  0  0  0  0  0  0  0  0  0  0
  -23.0110  -12.5540   16.9041 O   0  0  0  0  0  0  0  0  0  0  0  0
  -25.5668  -31.4559   23.0964 O   0  0  0  0  0  0  0  0  0  0  0  0
  -32.1811  -23.3940   21.8439 O   0  0  0  0  0  0  0  0  0  0  0  0
  -28.6607  -23.6096   21.7809 O   0  0  0  0  0  0  0  0  0  0  0  0
  -21.7553  -32.1304   21.6440 O   0  0  0  0  0  0  0  0  0  0  0  0
  -20.9439  -27.4549   21.6072 O   0  0  0  0  0  0  0  0  0  0  0  0
  -31.3609  -15.3030   19.8342 O   0  0  0  0  0  0  0  0  0  0  0  0
  -21.1420   -7.7434   22.7309 O   0  0  0  0  0  0  0  0  0  0  0  0
  -27.5772  -25.9878   21.1617 O   0  0  0  0  0  0  0  0  0  1  0  0
  -22.9276   -2.7603   24.2749 F   0  0  0  0  0  0  0  0  0  0  0  0
  -31.5896  -20.0462   20.2755 F   0  0  0  0  0  0  0  0  0  0  0  0
  -19.8340   -5.4507   21.9091 F   0  0  0  0  0  0  0  0  0  0  0  0
  1  2  1  0  0  0  0
  1  6  2  0  0  0  0
  2  7  2  0  0  0  0
  3 10  2  0  0  0  0
  3 18  1  0  0  0  0
  4 11  1  0  0  0  0
  4 18  2  0  0  0  0
  5  9  2  0  0  0  0
  5 19  1  0  0  0  0
  6 21  1  0  0  0  0
  7 23  1  0  0  0  0
  8 12  2  0  0  0  0
  8 22  1  0  0  0  0
  9 25  1  0  0  0  0
 10 26  1  0  0  0  0
 11 26  2  0  0  0  0
 12 27  1  0  0  0  0
 13 14  2  0  0  0  0
 13 28  1  0  0  0  0
 14 29  1  0  0  0  0
 15 24  1  0  0  0  0
 15 27  2  0  0  0  0
 16 25  2  0  0  0  0
 16 30  1  0  0  0  0
 17 29  2  0  0  0  0
 17 31  1  0  0  0  0
 18 32  1  0  0  0  0
 19 30  2  0  0  0  0
 19 34  1  0  0  0  0
 20 32  1  0  0  0  0
 20 33  2  0  0  0  0
 20 35  1  0  0  0  0
 21 23  2  0  0  0  0
 21 42  1  0  0  0  0
 22 24  2  0  0  0  0
 22 43  1  0  0  0  0
 23 51  1  0  0  0  0
 24 44  1  0  0  0  0
 25 71  1  0  0  0  0
 26 84  1  0  0  0  0
 27 85  1  0  0  0  0
 28 31  2  0  0  0  0
 28 84  1  0  0  0  0
 29 86  1  0  0  0  0
 30 87  1  0  0  0  0
 31 88  1  0  0  0  0
 32 65  2  0  0  0  0
 33 66  1  0  0  0  0
 33 69  1  0  0  0  0
 34 72  1  0  0  0  0
 34 76  2  0  0  0  0
 35 70  1  0  0  0  0
 35 77  2  0  0  0  0
 36 52  1  0  0  0  0
 36 73  1  0  0  0  0
 36 78  2  0  0  0  0
 37 54  1  0  0  0  0
 37 61  1  0  0  0  0
 37 79  2  0  0  0  0
 38 60  1  0  0  0  0
 38 61  1  0  0  0  0
 38 80  2  0  0  0  0
 39 62  1  0  0  0  0
 39 67  1  0  0  0  0
 39 81  2  0  0  0  0
 40 63  1  0  0  0  0
 40 74  1  0  0  0  0
 40 82  2  0  0  0  0
 41 68  1  0  0  0  0
 41 71  1  0  0  0  0
 41 83  2  0  0  0  0
 42 45  1  0  0  0  0
 43 52  1  0  0  0  0
 44 67  1  0  0  0  0
 45 47  1  0  0  0  0
 46 48  1  0  0  0  0
 46 49  1  0  0  0  0
 47 51  1  0  0  0  0
 48 53  1  0  0  0  0
 49 68  1  0  0  0  0
 50 53  1  0  0  0  0
 50 68  1  0  0  0  0
 51 73  1  0  0  0  0
 52 67  1  0  0  0  0
 53 66  1  0  0  0  0
 55 63  1  0  0  0  0
 56 64  1  0  0  0  0
 57 64  1  0  0  0  0
 58 64  1  0  0  0  0
 59 75  1  0  0  0  0
 60 85  1  0  0  0  0
 61 72  1  0  0  0  0
 62 64  1  0  0  0  0
 62 74  1  0  0  0  0
 63 75  1  0  0  0  0
 65 66  1  0  0  0  0
M  CHG  1  75   1
M  ISO  4  41 100  60 101  71 100  85 101
M  END
> <Batch ID>
0084

> <Smiles>
CNC(C)C(=O)NC(C(=O)N1Cc2cc([101O:1][101CH2:1]C(=O)C(NC(=O)c3ccc([100NH:0][100C:0](=O)N4CCCC(n5nc(-c6ccc(Oc7ccc(F)cc7F)cc6)c(C(N)=O)c5N)C4)cc3F)C(C)=O)ccc2CC1C(=O)NC1CCCc2ccccc21)C(C)(C)C

> <Shape>
0.326

> <Color>
0.113

> <Negative vol penalty>
0.000

$$$$

  -OEChem-04052300123D

 86 95  0     1  0  0  0  0  0999 V2000
  -17.7499  -26.0098   23.2217 C   0  0  0  0  0  0  0  0  0  0  0  0
  -19.0333  -25.6304   22.8416 C   0  0  0  0  0  0  0  0  0  0  0  0
  -28.3565  -20.5169   14.8683 C   0  0  0  0  0  0  0  0  0  0  0  0
  -26.5612  -11.3171   21.0260 C   0  0  0  0  0  0  0  0  0  0  0  0
  -25.5180  -13.1181   19.7991 C   0  0  0  0  0  0  0  0  0  0  0  0
  -29.0312  -21.7370   14.9084 C   0  0  0  0  0  0  0  0  0  0  0  0
  -17.3351  -27.3298   23.0503 C   0  0  0  0  0  0  0  0  0  0  0  0
  -19.9022  -26.5706   22.2889 C   0  0  0  0  0  0  0  0  0  0  0  0
  -25.9774  -26.8417   23.0128 C   0  0  0  0  0  0  0  0  0  0  0  0
  -28.5132  -19.5988   15.9067 C   0  0  0  0  0  0  0  0  0  0  0  0
  -25.3037  -10.8444   21.4015 C   0  0  0  0  0  0  0  0  0  0  0  0
  -24.2605  -12.6454   20.1745 C   0  0  0  0  0  0  0  0  0  0  0  0
  -27.0371  -26.4122   22.2151 C   0  0  0  0  0  0  0  0  0  0  0  0
  -22.8005   -9.0474   20.0095 C   0  0  0  0  0  0  0  0  0  0  0  0
  -22.5676   -7.6757   19.9108 C   0  0  0  0  0  0  0  0  0  0  0  0
  -30.0194  -21.1210   17.0253 C   0  0  0  0  0  0  0  0  0  0  0  0
  -27.2311  -28.6311   21.2888 C   0  0  0  0  0  0  0  0  0  0  0  0
  -22.1240   -7.5802   22.2838 C   0  0  0  0  0  0  0  0  0  0  0  0
  -26.6684  -12.4539   20.2249 C   0  0  0  0  0  0  0  0  0  0  0  0
  -29.8626  -22.0391   15.9869 C   0  0  0  0  0  0  0  0  0  0  0  0
  -28.9485  -12.2555   19.0982 C   0  0  0  0  0  0  0  0  0  0  0  0
  -18.2026  -28.2889   22.5042 C   0  0  0  0  0  0  0  0  0  0  0  0
  -25.5287  -28.1686   22.9463 C   0  0  0  0  0  0  0  0  0  0  0  0
  -19.4980  -27.9043   22.1088 C   0  0  0  0  0  0  0  0  0  0  0  0
  -26.1671  -29.0755   22.0885 C   0  0  0  0  0  0  0  0  0  0  0  0
  -29.3446  -19.9009   16.9852 C   0  0  0  0  0  0  0  0  0  0  0  0
  -24.1534  -11.5086   20.9757 C   0  0  0  0  0  0  0  0  0  0  0  0
  -27.6623  -27.3063   21.3508 C   0  0  0  0  0  0  0  0  0  0  0  0
  -22.6953   -9.6855   21.2454 C   0  0  0  0  0  0  0  0  0  0  0  0
  -22.2293   -6.9421   21.0479 C   0  0  0  0  0  0  0  0  0  0  0  0
  -22.3570   -8.9520   22.3826 C   0  0  0  0  0  0  0  0  0  0  0  0
  -27.9671  -12.9429   19.8372 C   0  0  0  0  0  0  0  0  0  0  0  0
  -29.9892  -13.1462   18.9978 C   0  0  0  0  0  0  0  0  0  0  0  0
  -29.4033  -25.3925   18.8659 C   0  0  0  0  0  0  0  0  0  0  0  0
  -29.1310  -24.3092   17.8851 C   0  0  0  0  0  0  0  0  0  0  0  0
  -28.4640  -25.8798   19.6796 C   0  0  0  0  0  0  0  0  0  1  0  0
  -30.5742  -23.3276   16.0279 C   0  0  0  0  0  0  0  0  0  0  0  0
  -28.9216  -10.9305   18.5512 C   0  0  0  0  0  0  0  0  0  0  0  0
  -22.7941  -29.5740   22.1397 C   0  0  0  0  0  0  0  0  0  0  0  0
  -24.3200  -32.2493   23.1581 C   0  0  0  0  0  0  0  0  0  0  0  0
  -27.2744  -33.8501   23.7544 C   0  0  0  0  0  0  0  0  0  0  0  0
  -30.2899  -19.1111   19.1827 C   0  0  0  0  0  0  0  0  0  0  0  0
  -17.6932  -29.6929   22.2946 C   0  0  0  0  0  0  0  0  0  0  0  0
  -24.4017  -28.6228   23.8329 C   0  0  0  0  0  0  0  0  0  0  0  0
  -25.7366  -30.5158   21.9946 C   0  0  0  0  0  0  0  0  0  0  0  0
  -30.8236  -25.8321   18.7569 C   0  0  0  0  0  0  0  0  0  0  0  0
  -18.8020  -30.7127   22.0479 C   0  0  0  0  0  0  0  0  0  0  0  0
  -32.0051  -16.8257   21.3068 C   0  0  0  0  0  0  0  0  0  0  0  0
  -19.7991  -30.1798   21.0238 C   0  0  0  0  0  0  0  0  0  0  0  0
  -31.2574  -15.5066   21.0992 C   0  0  0  0  0  0  0  0  0  0  0  0
  -31.2507  -25.2467   17.4249 C   0  0  0  0  0  0  0  0  0  0  0  0
  -31.0585  -18.0244   21.2811 C   0  0  0  0  0  0  0  0  0  0  0  0
  -29.4447  -16.7872   19.8904 C   0  0  0  0  0  0  0  0  0  0  0  0
  -20.4781  -28.9009   21.5286 C   0  0  1  0  0  0  0  0  0  0  0  0
  -23.6927  -29.8673   23.3077 C   0  0  1  0  0  0  0  0  0  0  0  0
  -30.3648  -15.5565   19.8436 C   0  0  2  0  0  0  0  0  0  0  0  0
  -28.2016  -36.0424   24.5490 C   0  0  0  0  0  0  0  0  0  0  0  0
  -23.6475  -33.5083   20.4613 C   0  0  0  0  0  0  0  0  0  0  0  0
  -25.3660  -35.2670   20.9324 C   0  0  0  0  0  0  0  0  0  0  0  0
  -23.3785  -35.0368   22.4223 C   0  0  0  0  0  0  0  0  0  0  0  0
  -28.6351  -32.5742   26.0522 C   0  0  0  0  0  0  0  0  0  0  0  0
  -25.2028  -33.2886   22.5104 C   0  0  1  0  0  0  0  0  0  0  0  0
  -27.7672  -34.6419   24.9522 C   0  0  2  0  0  0  0  0  0  0  0  0
  -24.4058  -34.2476   21.5817 C   0  0  0  0  0  0  0  0  0  0  0  0
  -28.3502  -14.1751   20.1821 N   0  0  0  0  0  0  0  0  0  0  0  0
  -29.5839  -14.2690   19.6575 N   0  0  0  0  0  0  0  0  0  0  0  0
  -30.3093  -24.1844   17.1114 N   0  0  0  0  0  0  0  0  0  0  0  0
  -24.6261  -30.9102   22.8770 N   0  0  0  0  0  0  0  0  0  0  0  0
  -30.2482  -18.0079   20.0613 N   0  0  0  0  0  0  0  0  0  0  0  0
  -31.2025  -13.0705   18.4106 N   0  0  0  0  0  0  0  0  0  0  0  0
  -27.7740  -10.1500   18.7468 N   0  0  0  0  0  0  0  0  0  0  0  0
  -29.5034  -18.9683   18.0401 N   0  0  0  0  0  0  0  0  0  0  0  0
  -21.5060  -29.2221   22.4953 N   0  0  0  0  0  0  0  0  0  0  0  0
  -25.9089  -33.9588   23.5970 N   0  0  0  0  0  0  0  0  0  0  0  0
  -28.9274  -33.9542   25.5861 N   0  3  0  0  0  0  0  0  0  0  0  0
  -28.0807  -23.6940   17.8063 O   0  0  0  0  0  0  0  0  0  0  0  0
  -31.3387  -23.5855   15.0999 O   0  0  0  0  0  0  0  0  0  0  0  0
  -29.8932  -10.4468   17.9222 O   0  0  0  0  0  0  0  0  0  0  0  0
  -23.2363  -29.6620   21.0002 O   0  0  0  0  0  0  0  0  0  0  0  0
  -23.3974  -32.6120   23.8922 O   0  0  0  0  0  0  0  0  0  0  0  0
  -28.0262  -33.2031   23.0287 O   0  0  0  0  0  0  0  0  0  0  0  0
  -30.9941  -20.0976   19.4127 O   0  0  0  0  0  0  0  0  0  0  0  0
  -22.9261  -11.0476   21.3417 O   0  0  0  0  0  0  0  0  0  0  0  0
  -28.6965  -26.8896   20.5706 O   0  0  0  0  0  0  0  0  0  1  0  0
  -22.0041   -5.6251   20.9527 F   0  0  0  0  0  0  0  0  0  0  0  0
  -22.2533   -9.5597   23.5724 F   0  0  0  0  0  0  0  0  0  0  0  0
  1  2  1  0  0  0  0
  1  7  2  0  0  0  0
  2  8  2  0  0  0  0
  3  6  2  0  0  0  0
  3 10  1  0  0  0  0
  4 11  2  0  0  0  0
  4 19  1  0  0  0  0
  5 12  1  0  0  0  0
  5 19  2  0  0  0  0
  6 20  1  0  0  0  0
  7 22  1  0  0  0  0
  8 24  1  0  0  0  0
  9 13  2  0  0  0  0
  9 23  1  0  0  0  0
 10 26  2  0  0  0  0
 11 27  1  0  0  0  0
 12 27  2  0  0  0  0
 13 28  1  0  0  0  0
 14 15  2  0  0  0  0
 14 29  1  0  0  0  0
 15 30  1  0  0  0  0
 16 20  2  0  0  0  0
 16 26  1  0  0  0  0
 17 25  1  0  0  0  0
 17 28  2  0  0  0  0
 18 30  2  0  0  0  0
 18 31  1  0  0  0  0
 19 32  1  0  0  0  0
 20 37  1  0  0  0  0
 21 32  1  0  0  0  0
 21 33  2  0  0  0  0
 21 38  1  0  0  0  0
 22 24  2  0  0  0  0
 22 43  1  0  0  0  0
 23 25  2  0  0  0  0
 23 44  1  0  0  0  0
 24 54  1  0  0  0  0
 25 45  1  0  0  0  0
 26 72  1  0  0  0  0
 27 83  1  0  0  0  0
 28 84  1  0  0  0  0
 29 31  2  0  0  0  0
 29 83  1  0  0  0  0
 30 85  1  0  0  0  0
 31 86  1  0  0  0  0
 32 65  2  0  0  0  0
 33 66  1  0  0  0  0
 33 70  1  0  0  0  0
 34 35  1  0  0  0  0
 34 36  2  0  0  0  0
 34 46  1  0  0  0  0
 35 67  1  0  0  0  0
 35 76  2  0  0  0  0
 36 84  1  0  0  0  0
 37 67  1  0  0  0  0
 37 77  2  0  0  0  0
 38 71  1  0  0  0  0
 38 78  2  0  0  0  0
 39 55  1  0  0  0  0
 39 73  1  0  0  0  0
 39 79  2  0  0  0  0
 40 62  1  0  0  0  0
 40 68  1  0  0  0  0
 40 80  2  0  0  0  0
 41 63  1  0  0  0  0
 41 74  1  0  0  0  0
 41 81  2  0  0  0  0
 42 69  1  0  0  0  0
 42 72  1  0  0  0  0
 42 82  2  0  0  0  0
 43 47  1  0  0  0  0
 44 55  1  0  0  0  0
 45 68  1  0  0  0  0
 46 51  1  0  0  0  0
 47 49  1  0  0  0  0
 48 50  1  0  0  0  0
 48 52  1  0  0  0  0
 49 54  1  0  0  0  0
 50 56  1  0  0  0  0
 51 67  1  0  0  0  0
 52 69  1  0  0  0  0
 53 56  1  0  0  0  0
 53 69  1  0  0  0  0
 54 73  1  0  0  0  0
 55 68  1  0  0  0  0
 56 66  1  0  0  0  0
 57 63  1  0  0  0  0
 58 64  1  0  0  0  0
 59 64  1  0  0  0  0
 60 64  1  0  0  0  0
 61 75  1  0  0  0  0
 62 64  1  0  0  0  0
 62 74  1  0  0  0  0
 63 75  1  0  0  0  0
 65 66  1  0  0  0  0
M  CHG  1  75   1
M  ISO  4  36 101  42 100  72 100  84 101
M  END
> <Batch ID>
0084

> <Smiles>
CNC(C)C(=O)NC(C(=O)N1Cc2cc([101O:1][101CH:1]=C3CCN(C(=O)c4cccc([100NH:0][100C:0](=O)N5CCCC(n6nc(-c7ccc(Oc8ccc(F)cc8F)cc7)c(C(N)=O)c6N)C5)c4)C3=O)ccc2CC1C(=O)NC1CCCc2ccccc21)C(C)(C)C

> <Shape>
0.345

> <Color>
0.100

> <Negative vol penalty>
0.000

$$$$

  -OEChem-04052300123D

 90 99  0     1  0  0  0  0  0999 V2000
  -26.8155  -23.3996   24.9220 C   0  0  0  0  0  0  0  0  0  0  0  0
  -26.9059  -22.0180   25.0583 C   0  0  0  0  0  0  0  0  0  0  0  0
  -23.2837   -9.7989   19.9106 C   0  0  0  0  0  0  0  0  0  0  0  0
  -23.7232   -9.9403   22.2821 C   0  0  0  0  0  0  0  0  0  0  0  0
  -27.2279  -24.2301   25.9632 C   0  0  0  0  0  0  0  0  0  0  0  0
  -27.4098  -21.4662   26.2356 C   0  0  0  0  0  0  0  0  0  0  0  0
  -24.6329  -17.5723   27.9001 C   0  0  0  0  0  0  0  0  0  0  0  0
  -32.9171  -14.8357   24.0063 C   0  0  0  0  0  0  0  0  0  0  0  0
  -33.0206  -16.1760   24.3785 C   0  0  0  0  0  0  0  0  0  0  0  0
  -22.5524   -8.6290   20.1159 C   0  0  0  0  0  0  0  0  0  0  0  0
  -22.9919   -8.7704   22.4874 C   0  0  0  0  0  0  0  0  0  0  0  0
  -24.8069  -16.3463   27.2595 C   0  0  0  0  0  0  0  0  0  0  0  0
  -23.1924   -5.3531   20.6475 C   0  0  0  0  0  0  0  0  0  0  0  0
  -23.4216   -4.2857   19.7794 C   0  0  0  0  0  0  0  0  0  0  0  0
  -26.2378  -15.6159   29.0590 C   0  0  0  0  0  0  0  0  0  0  0  0
  -30.6887  -16.1807   25.0104 C   0  0  0  0  0  0  0  0  0  0  0  0
  -21.1030   -4.3386   19.1023 C   0  0  0  0  0  0  0  0  0  0  0  0
  -23.8692  -10.4546   20.9937 C   0  0  0  0  0  0  0  0  0  0  0  0
  -24.1380  -12.9835   20.7940 C   0  0  0  0  0  0  0  0  0  0  0  0
  -27.7282  -23.6880   27.1576 C   0  0  0  0  0  0  0  0  0  0  0  0
  -25.2699  -17.8337   29.1217 C   0  0  0  0  0  0  0  0  0  0  0  0
  -27.8306  -22.2903   27.2932 C   0  0  0  0  0  0  0  0  0  0  0  0
  -26.0682  -16.8450   29.7144 C   0  0  0  0  0  0  0  0  0  0  0  0
  -31.6993  -14.1679   24.1361 C   0  0  0  0  0  0  0  0  0  0  0  0
  -31.9065  -16.8485   24.8805 C   0  0  0  0  0  0  0  0  0  0  0  0
  -30.5852  -14.8404   24.6381 C   0  0  0  0  0  0  0  0  0  0  0  0
  -22.4065   -8.1148   21.4042 C   0  0  0  0  0  0  0  0  0  0  0  0
  -25.6118  -15.3689   27.8375 C   0  0  0  0  0  0  0  0  0  0  0  0
  -21.9185   -5.9132   20.7431 C   0  0  0  0  0  0  0  0  0  0  0  0
  -22.3770   -3.7784   19.0067 C   0  0  0  0  0  0  0  0  0  0  0  0
  -20.8738   -5.4060   19.9705 C   0  0  0  0  0  0  0  0  0  0  0  0
  -24.6252  -11.6628   20.7822 C   0  0  0  0  0  0  0  0  0  0  0  0
  -25.2433  -13.7595   20.5437 C   0  0  0  0  0  0  0  0  0  0  0  0
  -30.9846  -19.0291   25.7809 C   0  0  0  0  0  0  0  0  0  0  0  0
  -22.8054  -13.4658   21.0118 C   0  0  0  0  0  0  0  0  0  0  0  0
  -27.4225  -19.9480   30.1216 C   0  0  0  0  0  0  0  0  0  0  0  0
  -26.8013  -18.6268   33.0184 C   0  0  0  0  0  0  0  0  0  0  0  0
  -28.1469  -14.7116   25.2568 C   0  0  0  0  0  0  0  0  0  0  0  0
  -25.6883  -15.9347   34.7962 C   0  0  0  0  0  0  0  0  0  0  0  0
  -31.1045  -12.7196   21.4068 C   0  0  0  0  0  0  0  0  0  0  0  0
  -28.2058  -24.6269   28.2369 C   0  0  0  0  0  0  0  0  0  0  0  0
  -25.0506  -19.1514   29.8132 C   0  0  0  0  0  0  0  0  0  0  0  0
  -26.7578  -17.0685   31.0346 C   0  0  0  0  0  0  0  0  0  0  0  0
  -31.5469  -20.4244   25.9325 C   0  0  0  0  0  0  0  0  0  0  0  0
  -28.3784  -23.9545   29.5965 C   0  0  0  0  0  0  0  0  0  0  0  0
  -33.0453  -20.1980   25.9526 C   0  0  0  0  0  0  0  0  0  0  0  0
  -29.4756  -13.6656   18.3325 C   0  0  0  0  0  0  0  0  0  0  0  0
  -29.1285  -22.6346   29.4479 C   0  0  0  0  0  0  0  0  0  0  0  0
  -28.0071  -13.3401   18.6031 C   0  0  0  0  0  0  0  0  0  0  0  0
  -33.2290  -18.9844   25.0656 C   0  0  0  0  0  0  0  0  0  0  0  0
  -30.4048  -12.6749   19.0265 C   0  0  0  0  0  0  0  0  0  0  0  0
  -28.7016  -12.2377   20.7772 C   0  0  0  0  0  0  0  0  0  0  0  0
  -28.3487  -21.6533   28.5645 C   0  0  1  0  0  0  0  0  0  0  0  0
  -26.1596  -19.4996   30.8012 C   0  0  1  0  0  0  0  0  0  0  0  0
  -27.7346  -13.2336   20.1140 C   0  0  2  0  0  0  0  0  0  0  0  0
  -25.3334  -15.1381   37.1493 C   0  0  0  0  0  0  0  0  0  0  0  0
  -24.5630  -13.2665   25.3618 C   0  0  0  0  0  0  0  0  0  0  0  0
  -29.8033  -18.1667   33.3127 C   0  0  0  0  0  0  0  0  0  0  0  0
  -29.3049  -16.5629   35.1695 C   0  0  0  0  0  0  0  0  0  0  0  0
  -28.6612  -18.9628   35.3903 C   0  0  0  0  0  0  0  0  0  0  0  0
  -22.7767  -15.6150   34.3722 C   0  0  0  0  0  0  0  0  0  0  0  0
  -31.6176  -12.7323   23.7295 C   0  0  0  0  0  0  0  0  0  0  0  0
  -27.0472  -13.6543   25.2389 C   0  0  0  0  0  0  0  0  0  0  0  0
  -27.3667  -17.4727   33.8104 C   0  0  1  0  0  0  0  0  0  0  0  0
  -24.7043  -15.8245   35.9468 C   0  0  2  0  0  0  0  0  0  0  0  0
  -25.7156  -14.1659   25.7886 C   0  0  2  0  0  0  0  0  0  1  0  0
  -28.7727  -17.7875   34.3949 C   0  0  0  0  0  0  0  0  0  0  0  0
  -25.9378  -11.5995   20.5433 N   0  0  0  0  0  0  0  0  0  0  0  0
  -26.2847  -12.8902   20.4024 N   0  0  0  0  0  0  0  0  0  0  0  0
  -32.0129  -18.2190   25.2609 N   0  0  0  0  0  0  0  0  0  0  0  0
  -26.5175  -18.3754   31.6685 N   0  0  0  0  0  0  0  0  0  0  0  0
  -30.0945  -12.5681   20.4516 N   0  0  0  0  0  0  0  0  0  0  0  0
  -25.4162  -15.0937   20.4328 N   0  0  0  0  0  0  0  0  0  0  0  0
  -21.7885  -12.5325   21.2551 N   0  0  0  0  0  0  0  0  0  0  0  0
  -29.3412  -14.1801   24.7771 N   0  0  0  0  0  0  0  0  0  0  0  0
  -27.2624  -21.0551   29.3105 N   0  0  0  0  0  0  0  0  0  0  0  0
  -26.3636  -17.1367   34.8150 N   0  0  0  0  0  0  0  0  0  0  0  0
  -23.5070  -15.0404   35.5313 N   0  3  0  0  0  0  0  0  0  0  0  0
  -29.8189  -18.7591   26.0313 O   0  0  0  0  0  0  0  0  0  0  0  0
  -22.5218  -14.6871   20.9749 O   0  0  0  0  0  0  0  0  0  0  0  0
  -28.4654  -19.3357   30.3198 O   0  0  0  0  0  0  0  0  0  0  0  0
  -26.6116  -19.7093   33.5785 O   0  0  0  0  0  0  0  0  0  0  0  0
  -27.9470  -15.8559   25.6501 O   0  0  0  0  0  0  0  0  0  0  0  0
  -25.8451  -15.0421   33.9660 O   0  0  0  0  0  0  0  0  0  0  0  0
  -32.2833  -12.9449   21.1389 O   0  0  0  0  0  0  0  0  0  0  0  0
  -21.6927   -6.9734   21.6049 O   0  0  0  0  0  0  0  0  0  0  0  0
  -25.7839  -14.1716   27.2140 O   0  0  0  0  0  0  0  0  0  1  0  0
  -30.6427  -12.5901   22.6898 O   0  0  0  0  0  0  0  0  0  0  0  0
  -22.5976   -2.7544   18.1719 F   0  0  0  0  0  0  0  0  0  0  0  0
  -19.6481   -5.9407   20.0571 F   0  0  0  0  0  0  0  0  0  0  0  0
  1  2  1  0  0  0  0
  1  5  2  0  0  0  0
  2  6  2  0  0  0  0
  3 10  2  0  0  0  0
  3 18  1  0  0  0  0
  4 11  1  0  0  0  0
  4 18  2  0  0  0  0
  5 20  1  0  0  0  0
  6 22  1  0  0  0  0
  7 12  2  0  0  0  0
  7 21  1  0  0  0  0
  8  9  2  0  0  0  0
  8 24  1  0  0  0  0
  9 25  1  0  0  0  0
 10 27  1  0  0  0  0
 11 27  2  0  0  0  0
 12 28  1  0  0  0  0
 13 14  2  0  0  0  0
 13 29  1  0  0  0  0
 14 30  1  0  0  0  0
 15 23  1  0  0  0  0
 15 28  2  0  0  0  0
 16 25  2  0  0  0  0
 16 26  1  0  0  0  0
 17 30  2  0  0  0  0
 17 31  1  0  0  0  0
 18 32  1  0  0  0  0
 19 32  1  0  0  0  0
 19 33  2  0  0  0  0
 19 35  1  0  0  0  0
 20 22  2  0  0  0  0
 20 41  1  0  0  0  0
 21 23  2  0  0  0  0
 21 42  1  0  0  0  0
 22 53  1  0  0  0  0
 23 43  1  0  0  0  0
 24 26  2  0  0  0  0
 24 62  1  0  0  0  0
 25 70  1  0  0  0  0
 26 75  1  0  0  0  0
 27 86  1  0  0  0  0
 28 87  1  0  0  0  0
 29 31  2  0  0  0  0
 29 86  1  0  0  0  0
 30 89  1  0  0  0  0
 31 90  1  0  0  0  0
 32 68  2  0  0  0  0
 33 69  1  0  0  0  0
 33 73  1  0  0  0  0
 34 44  1  0  0  0  0
 34 70  1  0  0  0  0
 34 79  2  0  0  0  0
 35 74  1  0  0  0  0
 35 80  2  0  0  0  0
 36 54  1  0  0  0  0
 36 76  1  0  0  0  0
 36 81  2  0  0  0  0
 37 64  1  0  0  0  0
 37 71  1  0  0  0  0
 37 82  2  0  0  0  0
 38 63  1  0  0  0  0
 38 75  1  0  0  0  0
 38 83  2  0  0  0  0
 39 65  1  0  0  0  0
 39 77  1  0  0  0  0
 39 84  2  0  0  0  0
 40 72  1  0  0  0  0
 40 85  2  0  0  0  0
 40 88  1  0  0  0  0
 41 45  1  0  0  0  0
 42 54  1  0  0  0  0
 43 71  1  0  0  0  0
 44 46  1  0  0  0  0
 45 48  1  0  0  0  0
 46 50  1  0  0  0  0
 47 49  1  0  0  0  0
 47 51  1  0  0  0  0
 48 53  1  0  0  0  0
 49 55  1  0  0  0  0
 50 70  1  0  0  0  0
 51 72  1  0  0  0  0
 52 55  1  0  0  0  0
 52 72  1  0  0  0  0
 53 76  1  0  0  0  0
 54 71  1  0  0  0  0
 55 69  1  0  0  0  0
 56 65  1  0  0  0  0
 57 66  1  0  0  0  0
 58 67  1  0  0  0  0
 59 67  1  0  0  0  0
 60 67  1  0  0  0  0
 61 78  1  0  0  0  0
 62 88  1  0  0  0  0
 63 66  1  0  0  0  0
 64 67  1  0  0  0  0
 64 77  1  0  0  0  0
 65 78  1  0  0  0  0
 66 87  1  0  0  0  0
 68 69  1  0  0  0  0
M  CHG  1  78   1
M  ISO  4  40 100  66 101  87 101  88 100
M  END
> <Batch ID>
0084

> <Smiles>
CNC(C)C(=O)NC(C(=O)N1Cc2cc([101O:1][101CH:1](C)CC(=O)Nc3cc(N4CCCC4=O)ccc3C[100O:0][100C:0](=O)N3CCCC(n4nc(-c5ccc(Oc6ccc(F)cc6F)cc5)c(C(N)=O)c4N)C3)ccc2CC1C(=O)NC1CCCc2ccccc21)C(C)(C)C

> <Shape>
0.117

> <Color>
0.170

> <Negative vol penalty>
0.000

$$$$

  -OEChem-04052300123D

 85 94  0     1  0  0  0  0  0999 V2000
  -29.1276  -35.4391   22.6158 C   0  0  0  0  0  0  0  0  0  0  0  0
  -29.1292  -34.0492   22.5566 C   0  0  0  0  0  0  0  0  0  0  0  0
  -22.5882  -12.8607   18.4816 C   0  0  0  0  0  0  0  0  0  0  0  0
  -22.4313  -11.5946   20.5333 C   0  0  0  0  0  0  0  0  0  0  0  0
  -31.3353  -19.3927   20.5053 C   0  0  0  0  0  0  0  0  0  0  0  0
  -29.5083  -18.5443   19.1715 C   0  0  0  0  0  0  0  0  0  0  0  0
  -27.9743  -36.1177   23.0076 C   0  0  0  0  0  0  0  0  0  0  0  0
  -27.9777  -33.3369   22.8901 C   0  0  0  0  0  0  0  0  0  0  0  0
  -26.9690  -29.6230   19.5986 C   0  0  0  0  0  0  0  0  0  0  0  0
  -30.7163  -20.6415   20.5590 C   0  0  0  0  0  0  0  0  0  0  0  0
  -28.8892  -19.7932   19.2252 C   0  0  0  0  0  0  0  0  0  0  0  0
  -21.4365  -12.2335   18.0065 C   0  0  0  0  0  0  0  0  0  0  0  0
  -21.2796  -10.9674   20.0582 C   0  0  0  0  0  0  0  0  0  0  0  0
  -27.7172  -28.4520   19.7111 C   0  0  0  0  0  0  0  0  0  0  0  0
  -18.5026   -8.7698   19.2406 C   0  0  0  0  0  0  0  0  0  0  0  0
  -18.3990   -7.3892   19.4107 C   0  0  0  0  0  0  0  0  0  0  0  0
  -25.8896  -27.4043   20.8865 C   0  0  0  0  0  0  0  0  0  0  0  0
  -20.4029   -7.0771   18.0977 C   0  0  0  0  0  0  0  0  0  0  0  0
  -23.0857  -12.5412   19.7450 C   0  0  0  0  0  0  0  0  0  0  0  0
  -30.7313  -18.3441   19.8115 C   0  0  0  0  0  0  0  0  0  0  0  0
  -24.3493  -14.3821   20.9787 C   0  0  0  0  0  0  0  0  0  0  0  0
  -26.8052  -35.4138   23.3368 C   0  0  0  0  0  0  0  0  0  0  0  0
  -25.6774  -29.6971   20.1398 C   0  0  0  0  0  0  0  0  0  0  0  0
  -26.8081  -34.0067   23.2879 C   0  0  0  0  0  0  0  0  0  0  0  0
  -25.1261  -28.5766   20.7773 C   0  0  0  0  0  0  0  0  0  0  0  0
  -29.4933  -20.8417   19.9190 C   0  0  0  0  0  0  0  0  0  0  0  0
  -20.7821  -11.2869   18.7948 C   0  0  0  0  0  0  0  0  0  0  0  0
  -27.1786  -27.3433   20.3576 C   0  0  0  0  0  0  0  0  0  0  0  0
  -19.5563   -9.3040   18.4989 C   0  0  0  0  0  0  0  0  0  0  0  0
  -19.3491   -6.5429   18.8393 C   0  0  0  0  0  0  0  0  0  0  0  0
  -20.5064   -8.4576   17.9275 C   0  0  0  0  0  0  0  0  0  0  0  0
  -24.2757  -13.1884   20.2362 C   0  0  0  0  0  0  0  0  0  0  0  0
  -25.6925  -14.5682   21.1972 C   0  0  0  0  0  0  0  0  0  0  0  0
  -28.0302  -23.8832   19.9590 C   0  0  0  0  0  0  0  0  0  0  0  0
  -27.7211  -22.5440   19.4566 C   0  0  0  0  0  0  0  0  0  0  0  0
  -27.4031  -25.0585   19.9103 C   0  0  0  0  0  0  0  0  0  1  0  0
  -31.3907  -17.0141   19.7542 C   0  0  0  0  0  0  0  0  0  0  0  0
  -23.2977  -15.2455   21.4306 C   0  0  0  0  0  0  0  0  0  0  0  0
  -24.2843  -31.4633   22.3856 C   0  0  0  0  0  0  0  0  0  0  0  0
  -21.6041  -29.9468   21.3661 C   0  0  0  0  0  0  0  0  0  0  0  0
  -20.2173  -27.2329   19.8304 C   0  0  0  0  0  0  0  0  0  0  0  0
  -30.9551  -14.5954   19.4645 C   0  0  0  0  0  0  0  0  0  0  0  0
  -25.5973  -36.1890   23.8001 C   0  0  0  0  0  0  0  0  0  0  0  0
  -24.8731  -30.9589   19.9867 C   0  0  0  0  0  0  0  0  0  0  0  0
  -23.7363  -28.5981   21.3575 C   0  0  0  0  0  0  0  0  0  0  0  0
  -29.3230  -23.3426   20.5256 C   0  0  0  0  0  0  0  0  0  0  0  0
  -24.3057  -35.3757   23.7763 C   0  0  0  0  0  0  0  0  0  0  0  0
  -29.6200  -11.4653   20.4221 C   0  0  0  0  0  0  0  0  0  0  0  0
  -24.5275  -34.0031   24.4036 C   0  0  0  0  0  0  0  0  0  0  0  0
  -28.1160  -11.7316   20.5289 C   0  0  0  0  0  0  0  0  0  0  0  0
  -30.2500  -12.2278   19.2573 C   0  0  0  0  0  0  0  0  0  0  0  0
  -28.4766  -13.9325   19.3413 C   0  0  0  0  0  0  0  0  0  0  0  0
  -25.5712  -33.1997   23.6182 C   0  0  1  0  0  0  0  0  0  0  0  0
  -23.7642  -31.0904   21.0261 C   0  0  1  0  0  0  0  0  0  0  0  0
  -27.8086  -13.2425   20.5417 C   0  0  1  0  0  0  0  0  0  0  0  0
  -17.9987  -26.2587   19.1778 C   0  0  0  0  0  0  0  0  0  0  0  0
  -21.1074  -29.1412   24.2668 C   0  0  0  0  0  0  0  0  0  0  0  0
  -19.4770  -27.4308   23.4396 C   0  0  0  0  0  0  0  0  0  0  0  0
  -19.0617  -29.8539   23.0171 C   0  0  0  0  0  0  0  0  0  0  0  0
  -20.9163  -27.2693   16.9548 C   0  0  0  0  0  0  0  0  0  0  0  0
  -20.8921  -28.6686   21.7377 C   0  0  1  0  0  0  0  0  0  0  0  0
  -19.1716  -27.1200   18.7359 C   0  0  2  0  0  0  0  0  0  0  0  0
  -20.1615  -28.7735   23.1062 C   0  0  0  0  0  0  0  0  0  0  0  0
  -25.4765  -12.6539   19.9987 N   0  0  0  0  0  0  0  0  0  0  0  0
  -26.3174  -13.5158   20.5954 N   0  0  0  0  0  0  0  0  0  0  0  0
  -28.8835  -22.0737   19.9727 N   0  0  0  0  0  0  0  0  0  0  0  0
  -22.9919  -29.8569   21.1879 N   0  0  0  0  0  0  0  0  0  0  0  0
  -29.9201  -13.6513   19.3478 N   0  0  0  0  0  0  0  0  0  0  0  0
  -26.3882  -15.5278   21.8434 N   0  0  0  0  0  0  0  0  0  0  0  0
  -21.9741  -14.9059   21.1189 N   0  0  0  0  0  0  0  0  0  0  0  0
  -30.5353  -15.9246   19.5877 N   0  0  0  0  0  0  0  0  0  0  0  0
  -24.9860  -32.6534   22.4126 N   0  0  0  0  0  0  0  0  0  0  0  0
  -20.0162  -28.3482   20.6158 N   0  0  0  0  0  0  0  0  0  0  0  0
  -19.7662  -26.5120   17.5120 N   0  3  0  0  0  0  0  0  0  0  0  0
  -26.8093  -22.0517   18.8252 O   0  0  0  0  0  0  0  0  0  0  0  0
  -32.6155  -16.9508   19.8141 O   0  0  0  0  0  0  0  0  0  0  0  0
  -23.5260  -16.2960   22.0770 O   0  0  0  0  0  0  0  0  0  0  0  0
  -24.0639  -30.7265   23.3397 O   0  0  0  0  0  0  0  0  0  0  0  0
  -20.9520  -30.9852   21.2316 O   0  0  0  0  0  0  0  0  0  0  0  0
  -21.1200  -26.4117   19.9765 O   0  0  0  0  0  0  0  0  0  0  0  0
  -32.1486  -14.2794   19.4950 O   0  0  0  0  0  0  0  0  0  0  0  0
  -19.6581  -10.6748   18.3316 O   0  0  0  0  0  0  0  0  0  0  0  0
  -27.9070  -26.1993   20.4693 O   0  0  0  0  0  0  0  0  0  1  0  0
  -19.2504   -5.2172   19.0041 F   0  0  0  0  0  0  0  0  0  0  0  0
  -21.5216   -8.9651   17.2149 F   0  0  0  0  0  0  0  0  0  0  0  0
  1  2  1  0  0  0  0
  1  7  2  0  0  0  0
  2  8  2  0  0  0  0
  3 12  2  0  0  0  0
  3 19  1  0  0  0  0
  4 13  1  0  0  0  0
  4 19  2  0  0  0  0
  5 10  2  0  0  0  0
  5 20  1  0  0  0  0
  6 11  1  0  0  0  0
  6 20  2  0  0  0  0
  7 22  1  0  0  0  0
  8 24  1  0  0  0  0
  9 14  2  0  0  0  0
  9 23  1  0  0  0  0
 10 26  1  0  0  0  0
 11 26  2  0  0  0  0
 12 27  1  0  0  0  0
 13 27  2  0  0  0  0
 14 28  1  0  0  0  0
 15 16  2  0  0  0  0
 15 29  1  0  0  0  0
 16 30  1  0  0  0  0
 17 25  1  0  0  0  0
 17 28  2  0  0  0  0
 18 30  2  0  0  0  0
 18 31  1  0  0  0  0
 19 32  1  0  0  0  0
 20 37  1  0  0  0  0
 21 32  1  0  0  0  0
 21 33  2  0  0  0  0
 21 38  1  0  0  0  0
 22 24  2  0  0  0  0
 22 43  1  0  0  0  0
 23 25  2  0  0  0  0
 23 44  1  0  0  0  0
 24 53  1  0  0  0  0
 25 45  1  0  0  0  0
 26 66  1  0  0  0  0
 27 82  1  0  0  0  0
 28 83  1  0  0  0  0
 29 31  2  0  0  0  0
 29 82  1  0  0  0  0
 30 84  1  0  0  0  0
 31 85  1  0  0  0  0
 32 64  2  0  0  0  0
 33 65  1  0  0  0  0
 33 69  1  0  0  0  0
 34 35  1  0  0  0  0
 34 36  2  0  0  0  0
 34 46  1  0  0  0  0
 35 66  1  0  0  0  0
 35 75  2  0  0  0  0
 36 83  1  0  0  0  0
 37 71  1  0  0  0  0
 37 76  2  0  0  0  0
 38 70  1  0  0  0  0
 38 77  2  0  0  0  0
 39 54  1  0  0  0  0
 39 72  1  0  0  0  0
 39 78  2  0  0  0  0
 40 61  1  0  0  0  0
 40 67  1  0  0  0  0
 40 79  2  0  0  0  0
 41 62  1  0  0  0  0
 41 73  1  0  0  0  0
 41 80  2  0  0  0  0
 42 68  1  0  0  0  0
 42 71  1  0  0  0  0
 42 81  2  0  0  0  0
 43 47  1  0  0  0  0
 44 54  1  0  0  0  0
 45 67  1  0  0  0  0
 46 66  1  0  0  0  0
 47 49  1  0  0  0  0
 48 50  1  0  0  0  0
 48 51  1  0  0  0  0
 49 53  1  0  0  0  0
 50 55  1  0  0  0  0
 51 68  1  0  0  0  0
 52 55  1  0  0  0  0
 52 68  1  0  0  0  0
 53 72  1  0  0  0  0
 54 67  1  0  0  0  0
 55 65  1  0  0  0  0
 56 62  1  0  0  0  0
 57 63  1  0  0  0  0
 58 63  1  0  0  0  0
 59 63  1  0  0  0  0
 60 74  1  0  0  0  0
 61 63  1  0  0  0  0
 61 73  1  0  0  0  0
 62 74  1  0  0  0  0
 64 65  1  0  0  0  0
M  CHG  1  74   1
M  ISO  4  36 101  42 100  71 100  83 101
M  END
> <Batch ID>
0084

> <Smiles>
CNC(C)C(=O)NC(C(=O)N1Cc2cc([101O:1][101CH:1]=C3CN(c4ccc(C(=O)[100NH:0][100C:0](=O)N5CCCC(n6nc(-c7ccc(Oc8ccc(F)cc8F)cc7)c(C(N)=O)c6N)C5)cc4)C3=O)ccc2CC1C(=O)NC1CCCc2ccccc21)C(C)(C)C

> <Shape>
0.298

> <Color>
0.081

> <Negative vol penalty>
0.000

$$$$

  -OEChem-04052300123D

 85 94  0     1  0  0  0  0  0999 V2000
  -30.8159  -34.7872   18.9072 C   0  0  0  0  0  0  0  0  0  0  0  0
  -30.4718  -33.4611   18.6657 C   0  0  0  0  0  0  0  0  0  0  0  0
  -31.3523  -19.3327   21.0522 C   0  0  0  0  0  0  0  0  0  0  0  0
  -23.2416   -9.5202   20.7615 C   0  0  0  0  0  0  0  0  0  0  0  0
  -23.2828  -10.9970   22.6731 C   0  0  0  0  0  0  0  0  0  0  0  0
  -30.5429  -35.3622   20.1476 C   0  0  0  0  0  0  0  0  0  0  0  0
  -29.8553  -32.7088   19.6650 C   0  0  0  0  0  0  0  0  0  0  0  0
  -25.6183  -28.3520   18.9087 C   0  0  0  0  0  0  0  0  0  0  0  0
  -30.3718  -20.3131   20.9010 C   0  0  0  0  0  0  0  0  0  0  0  0
  -31.0562  -18.0001   20.7655 C   0  0  0  0  0  0  0  0  0  0  0  0
  -22.4547   -8.6171   21.4762 C   0  0  0  0  0  0  0  0  0  0  0  0
  -22.4958  -10.0939   23.3878 C   0  0  0  0  0  0  0  0  0  0  0  0
  -25.7000  -26.9607   18.8704 C   0  0  0  0  0  0  0  0  0  0  0  0
  -22.9074   -6.2576   23.8536 C   0  0  0  0  0  0  0  0  0  0  0  0
  -23.2491   -4.9069   23.7865 C   0  0  0  0  0  0  0  0  0  0  0  0
  -25.1160  -26.8681   21.2091 C   0  0  0  0  0  0  0  0  0  0  0  0
  -21.0783   -4.4042   22.8524 C   0  0  0  0  0  0  0  0  0  0  0  0
  -23.6557  -10.7102   21.3600 C   0  0  0  0  0  0  0  0  0  0  0  0
  -24.0229  -12.7046   19.8124 C   0  0  0  0  0  0  0  0  0  0  0  0
  -29.9140  -34.6195   21.1594 C   0  0  0  0  0  0  0  0  0  0  0  0
  -25.2950  -29.0134   20.1022 C   0  0  0  0  0  0  0  0  0  0  0  0
  -29.5748  -33.2741   20.9206 C   0  0  0  0  0  0  0  0  0  0  0  0
  -25.0284  -28.2677   21.2593 C   0  0  0  0  0  0  0  0  0  0  0  0
  -29.0951  -19.9610   20.4631 C   0  0  0  0  0  0  0  0  0  0  0  0
  -29.7795  -17.6479   20.3277 C   0  0  0  0  0  0  0  0  0  0  0  0
  -22.0818   -8.9039   22.7893 C   0  0  0  0  0  0  0  0  0  0  0  0
  -25.4517  -26.2187   20.0214 C   0  0  0  0  0  0  0  0  0  0  0  0
  -21.6511   -6.6816   23.4203 C   0  0  0  0  0  0  0  0  0  0  0  0
  -22.3346   -3.9803   23.2859 C   0  0  0  0  0  0  0  0  0  0  0  0
  -20.7366   -5.7549   22.9197 C   0  0  0  0  0  0  0  0  0  0  0  0
  -28.7989  -18.6284   20.1765 C   0  0  0  0  0  0  0  0  0  0  0  0
  -24.4691  -11.6432   20.6225 C   0  0  0  0  0  0  0  0  0  0  0  0
  -25.1752  -13.2844   19.3407 C   0  0  0  0  0  0  0  0  0  0  0  0
  -26.9305  -22.9586   20.2573 C   0  0  0  0  0  0  0  0  0  0  0  0
  -28.2482  -22.3383   20.5586 C   0  0  0  0  0  0  0  0  0  0  0  0
  -26.7374  -24.2797   20.2622 C   0  0  0  0  0  0  0  0  0  1  0  0
  -22.6864  -13.1285   19.5131 C   0  0  0  0  0  0  0  0  0  0  0  0
  -26.7795  -31.1031   21.9818 C   0  0  0  0  0  0  0  0  0  0  0  0
  -23.9311  -31.1405   23.5333 C   0  0  0  0  0  0  0  0  0  0  0  0
  -21.0109  -29.5344   24.2682 C   0  0  0  0  0  0  0  0  0  0  0  0
  -30.3426  -15.2000   20.1356 C   0  0  0  0  0  0  0  0  0  0  0  0
  -29.6820  -35.2702   22.5001 C   0  0  0  0  0  0  0  0  0  0  0  0
  -25.1848  -30.5134   20.1204 C   0  0  0  0  0  0  0  0  0  0  0  0
  -24.6574  -28.9288   22.5608 C   0  0  0  0  0  0  0  0  0  0  0  0
  -25.9254  -21.9069   19.9414 C   0  0  0  0  0  0  0  0  0  0  0  0
  -28.6873  -34.5163   23.3790 C   0  0  0  0  0  0  0  0  0  0  0  0
  -29.9804  -11.7069   19.5490 C   0  0  0  0  0  0  0  0  0  0  0  0
  -29.0012  -33.0236   23.3811 C   0  0  0  0  0  0  0  0  0  0  0  0
  -28.4776  -11.4662   19.7094 C   0  0  0  0  0  0  0  0  0  0  0  0
  -26.7725  -20.6549   19.7852 C   0  0  0  0  0  0  0  0  0  0  0  0
  -30.4959  -12.7524   20.5364 C   0  0  0  0  0  0  0  0  0  0  0  0
  -28.2652  -13.7871   20.6869 C   0  0  0  0  0  0  0  0  0  0  0  0
  -28.8825  -32.4329   21.9709 C   0  0  1  0  0  0  0  0  0  0  0  0
  -25.3512  -31.1079   21.5155 C   0  0  1  0  0  0  0  0  0  0  0  0
  -27.6877  -12.7891   19.6699 C   0  0  2  0  0  0  0  0  0  0  0  0
  -18.8961  -29.7998   25.5928 C   0  0  0  0  0  0  0  0  0  0  0  0
  -25.4616  -30.5145   26.0977 C   0  0  0  0  0  0  0  0  0  0  0  0
  -23.2873  -29.8618   27.1534 C   0  0  0  0  0  0  0  0  0  0  0  0
  -23.6335  -32.2010   26.3591 C   0  0  0  0  0  0  0  0  0  0  0  0
  -19.3318  -29.3900   21.8353 C   0  0  0  0  0  0  0  0  0  0  0  0
  -23.3198  -30.3505   24.6652 C   0  0  1  0  0  0  0  0  0  0  0  0
  -19.5682  -30.0062   24.2443 C   0  0  2  0  0  0  0  0  0  0  0  0
  -23.9344  -30.7193   26.0450 C   0  0  0  0  0  0  0  0  0  0  0  0
  -25.8009  -11.5517   20.6651 N   0  0  0  0  0  0  0  0  0  0  0  0
  -26.2015  -12.5629   19.8758 N   0  0  0  0  0  0  0  0  0  0  0  0
  -28.0927  -20.9685   20.3092 N   0  0  0  0  0  0  0  0  0  0  0  0
  -24.5687  -30.3980   22.5294 N   0  0  0  0  0  0  0  0  0  0  0  0
  -29.7028  -13.9797   20.4395 N   0  0  0  0  0  0  0  0  0  0  0  0
  -25.4005  -14.3358   18.5245 N   0  0  0  0  0  0  0  0  0  0  0  0
  -21.6180  -12.4214   20.0815 N   0  0  0  0  0  0  0  0  0  0  0  0
  -29.4824  -16.2932   20.0375 N   0  0  0  0  0  0  0  0  0  0  0  0
  -27.4923  -32.2312   21.6229 N   0  0  0  0  0  0  0  0  0  0  0  0
  -21.8787  -30.5603   24.5778 N   0  0  0  0  0  0  0  0  0  0  0  0
  -18.7951  -29.2565   23.2142 N   0  3  0  0  0  0  0  0  0  0  0  0
  -29.2177  -22.9754   20.9352 O   0  0  0  0  0  0  0  0  0  0  0  0
  -22.4463  -14.0953   18.7508 O   0  0  0  0  0  0  0  0  0  0  0  0
  -27.2032  -30.1475   22.6213 O   0  0  0  0  0  0  0  0  0  0  0  0
  -23.8398  -32.3707   23.5361 O   0  0  0  0  0  0  0  0  0  0  0  0
  -21.3353  -28.3713   24.0390 O   0  0  0  0  0  0  0  0  0  0  0  0
  -31.5601  -15.2651   19.9475 O   0  0  0  0  0  0  0  0  0  0  0  0
  -21.3137   -8.0230   23.4869 O   0  0  0  0  0  0  0  0  0  0  0  0
  -25.5314  -24.8606   19.9870 O   0  0  0  0  0  0  0  0  0  1  0  0
  -22.6634   -2.6834   23.2200 F   0  0  0  0  0  0  0  0  0  0  0  0
  -19.5287   -6.1565   22.5007 F   0  0  0  0  0  0  0  0  0  0  0  0
  -27.5703  -18.2896   19.7562 F   0  0  0  0  0  0  0  0  0  0  0  0
  1  2  1  0  0  0  0
  1  6  2  0  0  0  0
  2  7  2  0  0  0  0
  3  9  2  0  0  0  0
  3 10  1  0  0  0  0
  4 11  2  0  0  0  0
  4 18  1  0  0  0  0
  5 12  1  0  0  0  0
  5 18  2  0  0  0  0
  6 20  1  0  0  0  0
  7 22  1  0  0  0  0
  8 13  2  0  0  0  0
  8 21  1  0  0  0  0
  9 24  1  0  0  0  0
 10 25  2  0  0  0  0
 11 26  1  0  0  0  0
 12 26  2  0  0  0  0
 13 27  1  0  0  0  0
 14 15  2  0  0  0  0
 14 28  1  0  0  0  0
 15 29  1  0  0  0  0
 16 23  1  0  0  0  0
 16 27  2  0  0  0  0
 17 29  2  0  0  0  0
 17 30  1  0  0  0  0
 18 32  1  0  0  0  0
 19 32  1  0  0  0  0
 19 33  2  0  0  0  0
 19 37  1  0  0  0  0
 20 22  2  0  0  0  0
 20 42  1  0  0  0  0
 21 23  2  0  0  0  0
 21 43  1  0  0  0  0
 22 53  1  0  0  0  0
 23 44  1  0  0  0  0
 24 31  2  0  0  0  0
 24 66  1  0  0  0  0
 25 31  1  0  0  0  0
 25 71  1  0  0  0  0
 26 81  1  0  0  0  0
 27 82  1  0  0  0  0
 28 30  2  0  0  0  0
 28 81  1  0  0  0  0
 29 83  1  0  0  0  0
 30 84  1  0  0  0  0
 31 85  1  0  0  0  0
 32 64  2  0  0  0  0
 33 65  1  0  0  0  0
 33 69  1  0  0  0  0
 34 35  1  0  0  0  0
 34 36  2  0  0  0  0
 34 45  1  0  0  0  0
 35 66  1  0  0  0  0
 35 75  2  0  0  0  0
 36 82  1  0  0  0  0
 37 70  1  0  0  0  0
 37 76  2  0  0  0  0
 38 54  1  0  0  0  0
 38 72  1  0  0  0  0
 38 77  2  0  0  0  0
 39 61  1  0  0  0  0
 39 67  1  0  0  0  0
 39 78  2  0  0  0  0
 40 62  1  0  0  0  0
 40 73  1  0  0  0  0
 40 79  2  0  0  0  0
 41 68  1  0  0  0  0
 41 71  1  0  0  0  0
 41 80  2  0  0  0  0
 42 46  1  0  0  0  0
 43 54  1  0  0  0  0
 44 67  1  0  0  0  0
 45 50  1  0  0  0  0
 46 48  1  0  0  0  0
 47 49  1  0  0  0  0
 47 51  1  0  0  0  0
 48 53  1  0  0  0  0
 49 55  1  0  0  0  0
 50 66  1  0  0  0  0
 51 68  1  0  0  0  0
 52 55  1  0  0  0  0
 52 68  1  0  0  0  0
 53 72  1  0  0  0  0
 54 67  1  0  0  0  0
 55 65  1  0  0  0  0
 56 62  1  0  0  0  0
 57 63  1  0  0  0  0
 58 63  1  0  0  0  0
 59 63  1  0  0  0  0
 60 74  1  0  0  0  0
 61 63  1  0  0  0  0
 61 73  1  0  0  0  0
 62 74  1  0  0  0  0
 64 65  1  0  0  0  0
M  CHG  1  74   1
M  ISO  4  36 101  41 100  71 100  82 101
M  END
> <Batch ID>
0084

> <Smiles>
CNC(C)C(=O)NC(C(=O)N1Cc2cc([101O:1][101CH:1]=C3CCN(c4cccc([100NH:0][100C:0](=O)N5CCCC(n6nc(-c7ccc(Oc8ccc(F)cc8F)cc7)c(C(N)=O)c6N)C5)c4F)C3=O)ccc2CC1C(=O)NC1CCCc2ccccc21)C(C)(C)C

> <Shape>
0.307

> <Color>
0.124

> <Negative vol penalty>
0.000

$$$$

  -OEChem-04052300123D

 85 94  0     1  0  0  0  0  0999 V2000
  -25.4840  -34.8191   16.3867 C   0  0  0  0  0  0  0  0  0  0  0  0
  -25.2403  -33.4626   16.1978 C   0  0  0  0  0  0  0  0  0  0  0  0
  -22.8750  -10.2007   19.9444 C   0  0  0  0  0  0  0  0  0  0  0  0
  -23.9222   -9.7401   22.0724 C   0  0  0  0  0  0  0  0  0  0  0  0
  -29.4314  -17.1290   22.6976 C   0  0  0  0  0  0  0  0  0  0  0  0
  -26.1299  -35.2558   17.5427 C   0  0  0  0  0  0  0  0  0  0  0  0
  -25.6433  -32.5417   17.1642 C   0  0  0  0  0  0  0  0  0  0  0  0
  -23.7100  -26.2814   20.0604 C   0  0  0  0  0  0  0  0  0  0  0  0
  -28.7563  -18.3405   22.5493 C   0  0  0  0  0  0  0  0  0  0  0  0
  -22.0858   -9.0593   20.0857 C   0  0  0  0  0  0  0  0  0  0  0  0
  -23.1329   -8.5987   22.2137 C   0  0  0  0  0  0  0  0  0  0  0  0
  -24.2296  -25.0186   20.3416 C   0  0  0  0  0  0  0  0  0  0  0  0
  -23.1016   -5.4298   21.0355 C   0  0  0  0  0  0  0  0  0  0  0  0
  -23.7263   -4.2590   21.4649 C   0  0  0  0  0  0  0  0  0  0  0  0
  -29.5315  -16.8906   20.2955 C   0  0  0  0  0  0  0  0  0  0  0  0
  -25.2662  -25.8958   22.3354 C   0  0  0  0  0  0  0  0  0  0  0  0
  -22.2764   -4.1935   23.3963 C   0  0  0  0  0  0  0  0  0  0  0  0
  -23.7933  -10.5410   20.9377 C   0  0  0  0  0  0  0  0  0  0  0  0
  -29.8191  -16.4041   21.5707 C   0  0  0  0  0  0  0  0  0  0  0  0
  -24.3038  -13.0239   21.2249 C   0  0  0  0  0  0  0  0  0  0  0  0
  -26.5324  -34.3408   18.5282 C   0  0  0  0  0  0  0  0  0  0  0  0
  -23.9741  -27.3652   20.9102 C   0  0  0  0  0  0  0  0  0  0  0  0
  -26.2963  -32.9664   18.3338 C   0  0  0  0  0  0  0  0  0  0  0  0
  -24.7467  -27.1708   22.0641 C   0  0  0  0  0  0  0  0  0  0  0  0
  -28.4686  -18.8271   21.2741 C   0  0  0  0  0  0  0  0  0  0  0  0
  -28.8563  -18.1021   20.1471 C   0  0  0  0  0  0  0  0  0  0  0  0
  -22.2147   -8.2584   21.2203 C   0  0  0  0  0  0  0  0  0  0  0  0
  -25.0102  -24.8263   21.4777 C   0  0  0  0  0  0  0  0  0  0  0  0
  -22.0643   -5.9826   21.7866 C   0  0  0  0  0  0  0  0  0  0  0  0
  -23.3137   -3.6408   22.6452 C   0  0  0  0  0  0  0  0  0  0  0  0
  -21.6517   -5.3645   22.9670 C   0  0  0  0  0  0  0  0  0  0  0  0
  -24.6093  -11.7196   20.7920 C   0  0  0  0  0  0  0  0  0  0  0  0
  -25.3929  -13.7732   20.8521 C   0  0  0  0  0  0  0  0  0  0  0  0
  -26.9174  -21.8127   21.0050 C   0  0  0  0  0  0  0  0  0  0  0  0
  -27.8249  -20.9923   20.2019 C   0  0  0  0  0  0  0  0  0  0  0  0
  -26.3567  -23.0241   20.8374 C   0  0  0  0  0  0  0  0  0  1  0  0
  -30.5233  -15.1411   21.7259 C   0  0  0  0  0  0  0  0  0  0  0  0
  -23.1398  -13.5142   21.9033 C   0  0  0  0  0  0  0  0  0  0  0  0
  -30.9492  -14.3463   20.5511 C   0  0  0  0  0  0  0  0  0  0  0  0
  -25.4481  -30.1626   20.5860 C   0  0  0  0  0  0  0  0  0  0  0  0
  -24.3450  -30.6517   23.5970 C   0  0  0  0  0  0  0  0  0  0  0  0
  -23.2667  -29.3056   26.5418 C   0  0  0  0  0  0  0  0  0  0  0  0
  -27.2694  -34.8556   19.7392 C   0  0  0  0  0  0  0  0  0  0  0  0
  -23.3841  -28.7151   20.6071 C   0  0  0  0  0  0  0  0  0  0  0  0
  -25.0427  -28.2970   23.0194 C   0  0  0  0  0  0  0  0  0  0  0  0
  -26.9066  -20.7250   22.0545 C   0  0  0  0  0  0  0  0  0  0  0  0
  -27.3296  -33.8519   20.8878 C   0  0  0  0  0  0  0  0  0  0  0  0
  -29.2989  -12.6596   17.8514 C   0  0  0  0  0  0  0  0  0  0  0  0
  -27.7281  -32.4730   20.3715 C   0  0  0  0  0  0  0  0  0  0  0  0
  -27.9199  -12.3378   18.4265 C   0  0  0  0  0  0  0  0  0  0  0  0
  -30.3817  -12.5866   18.9232 C   0  0  0  0  0  0  0  0  0  0  0  0
  -28.7321  -13.1353   20.6914 C   0  0  0  0  0  0  0  0  0  0  0  0
  -26.6962  -31.9392   19.3707 C   0  0  1  0  0  0  0  0  0  0  0  0
  -24.1437  -29.8613   21.2680 C   0  0  1  0  0  0  0  0  0  0  0  0
  -27.6085  -13.2260   19.6442 C   0  0  2  0  0  0  0  0  0  0  0  0
  -22.4699  -29.9567   28.8306 C   0  0  0  0  0  0  0  0  0  0  0  0
  -27.2137  -31.3017   24.4082 C   0  0  0  0  0  0  0  0  0  0  0  0
  -26.5308  -31.0066   26.7987 C   0  0  0  0  0  0  0  0  0  0  0  0
  -25.4805  -32.7971   25.4153 C   0  0  0  0  0  0  0  0  0  0  0  0
  -20.6401  -28.0074   26.1235 C   0  0  0  0  0  0  0  0  0  0  0  0
  -24.8716  -30.3812   24.9857 C   0  0  1  0  0  0  0  0  0  0  0  0
  -22.0582  -29.6135   27.4074 C   0  0  2  0  0  0  0  0  0  0  0  0
  -26.0204  -31.3507   25.3832 C   0  0  0  0  0  0  0  0  0  0  0  0
  -25.7991  -11.6415   20.1902 N   0  0  0  0  0  0  0  0  0  0  0  0
  -30.8267  -14.6278   22.8875 N   0  0  0  0  0  0  0  0  0  0  0  0
  -26.2509  -12.9061   20.2421 N   0  0  0  0  0  0  0  0  0  0  0  0
  -27.8031  -20.0247   21.1517 N   0  0  0  0  0  0  0  0  0  0  0  0
  -30.0377  -13.4122   20.0791 N   0  0  0  0  0  0  0  0  0  0  0  0
  -24.4485  -29.5995   22.6761 N   0  0  0  0  0  0  0  0  0  0  0  0
  -28.5765  -18.5762   18.8458 N   0  0  0  0  0  0  0  0  0  0  0  0
  -25.6907  -15.0827   20.9898 N   0  0  0  0  0  0  0  0  0  0  0  0
  -22.1149  -12.6091   22.2109 N   0  0  0  0  0  0  0  0  0  0  0  0
  -25.5290  -31.4403   20.0658 N   0  0  0  0  0  0  0  0  0  0  0  0
  -23.7169  -30.4260   25.8761 N   0  0  0  0  0  0  0  0  0  0  0  0
  -21.1415  -28.4394   27.4535 N   0  3  0  0  0  0  0  0  0  0  0  0
  -28.3829  -21.1227   19.1323 O   0  0  0  0  0  0  0  0  0  0  0  0
  -23.0051  -14.7224   22.2125 O   0  0  0  0  0  0  0  0  0  0  0  0
  -32.0664  -14.5996   20.1199 O   0  0  0  0  0  0  0  0  0  0  0  0
  -26.3175  -29.3004   20.5367 O   0  0  0  0  0  0  0  0  0  0  0  0
  -23.8531  -31.7536   23.3408 O   0  0  0  0  0  0  0  0  0  0  0  0
  -23.7640  -28.1842   26.4668 O   0  0  0  0  0  0  0  0  0  0  0  0
  -21.4445   -7.1447   21.3587 O   0  0  0  0  0  0  0  0  0  0  0  0
  -25.5191  -23.5948   21.7542 O   0  0  0  0  0  0  0  0  0  1  0  0
  -23.9127   -2.5156   23.0566 F   0  0  0  0  0  0  0  0  0  0  0  0
  -20.6549   -5.8902   23.6922 F   0  0  0  0  0  0  0  0  0  0  0  0
  1  2  1  0  0  0  0
  1  6  2  0  0  0  0
  2  7  2  0  0  0  0
  3 10  2  0  0  0  0
  3 18  1  0  0  0  0
  4 11  1  0  0  0  0
  4 18  2  0  0  0  0
  5  9  2  0  0  0  0
  5 19  1  0  0  0  0
  6 21  1  0  0  0  0
  7 23  1  0  0  0  0
  8 12  2  0  0  0  0
  8 22  1  0  0  0  0
  9 25  1  0  0  0  0
 10 27  1  0  0  0  0
 11 27  2  0  0  0  0
 12 28  1  0  0  0  0
 13 14  2  0  0  0  0
 13 29  1  0  0  0  0
 14 30  1  0  0  0  0
 15 19  2  0  0  0  0
 15 26  1  0  0  0  0
 16 24  1  0  0  0  0
 16 28  2  0  0  0  0
 17 30  2  0  0  0  0
 17 31  1  0  0  0  0
 18 32  1  0  0  0  0
 19 37  1  0  0  0  0
 20 32  1  0  0  0  0
 20 33  2  0  0  0  0
 20 38  1  0  0  0  0
 21 23  2  0  0  0  0
 21 43  1  0  0  0  0
 22 24  2  0  0  0  0
 22 44  1  0  0  0  0
 23 53  1  0  0  0  0
 24 45  1  0  0  0  0
 25 26  2  0  0  0  0
 25 67  1  0  0  0  0
 26 70  1  0  0  0  0
 27 82  1  0  0  0  0
 28 83  1  0  0  0  0
 29 31  2  0  0  0  0
 29 82  1  0  0  0  0
 30 84  1  0  0  0  0
 31 85  1  0  0  0  0
 32 64  2  0  0  0  0
 33 66  1  0  0  0  0
 33 71  1  0  0  0  0
 34 35  1  0  0  0  0
 34 36  2  0  0  0  0
 34 46  1  0  0  0  0
 35 67  1  0  0  0  0
 35 76  2  0  0  0  0
 36 83  1  0  0  0  0
 37 39  1  0  0  0  0
 37 65  2  0  0  0  0
 38 72  1  0  0  0  0
 38 77  2  0  0  0  0
 39 68  1  0  0  0  0
 39 78  2  0  0  0  0
 40 54  1  0  0  0  0
 40 73  1  0  0  0  0
 40 79  2  0  0  0  0
 41 61  1  0  0  0  0
 41 69  1  0  0  0  0
 41 80  2  0  0  0  0
 42 62  1  0  0  0  0
 42 74  1  0  0  0  0
 42 81  2  0  0  0  0
 43 47  1  0  0  0  0
 44 54  1  0  0  0  0
 45 69  1  0  0  0  0
 46 67  1  0  0  0  0
 47 49  1  0  0  0  0
 48 50  1  0  0  0  0
 48 51  1  0  0  0  0
 49 53  1  0  0  0  0
 50 55  1  0  0  0  0
 51 68  1  0  0  0  0
 52 55  1  0  0  0  0
 52 68  1  0  0  0  0
 53 73  1  0  0  0  0
 54 69  1  0  0  0  0
 55 66  1  0  0  0  0
 56 62  1  0  0  0  0
 57 63  1  0  0  0  0
 58 63  1  0  0  0  0
 59 63  1  0  0  0  0
 60 75  1  0  0  0  0
 61 63  1  0  0  0  0
 61 74  1  0  0  0  0
 62 75  1  0  0  0  0
 64 66  1  0  0  0  0
M  CHG  1  75   1
M  ISO  4  36 101  37 100  39 100  83 101
M  END
> <Batch ID>
0084

> <Smiles>
CNC(C)C(=O)NC(C(=O)N1Cc2cc([101O:1][101CH:1]=C3CN(c4ccc([100C:0](=N)[100C:0](=O)N5CCCC(n6nc(-c7ccc(Oc8ccc(F)cc8F)cc7)c(C(N)=O)c6N)C5)cc4N)C3=O)ccc2CC1C(=O)NC1CCCc2ccccc21)C(C)(C)C

> <Shape>
0.319

> <Color>
0.192

> <Negative vol penalty>
0.000

$$$$

  -OEChem-04052300123D

 85 94  0     1  0  0  0  0  0999 V2000
  -26.1405  -35.1055   21.7263 C   0  0  0  0  0  0  0  0  0  0  0  0
  -26.6109  -33.7977   21.6650 C   0  0  0  0  0  0  0  0  0  0  0  0
  -22.8707  -10.1728   19.9521 C   0  0  0  0  0  0  0  0  0  0  0  0
  -23.9116   -9.7342   22.0877 C   0  0  0  0  0  0  0  0  0  0  0  0
  -29.5566  -16.8344   20.2316 C   0  0  0  0  0  0  0  0  0  0  0  0
  -24.8809  -35.3676   22.2634 C   0  0  0  0  0  0  0  0  0  0  0  0
  -25.8222  -32.7512   22.1418 C   0  0  0  0  0  0  0  0  0  0  0  0
  -25.4937  -27.0662   19.8881 C   0  0  0  0  0  0  0  0  0  0  0  0
  -28.8845  -18.0448   20.0617 C   0  0  0  0  0  0  0  0  0  0  0  0
  -22.0763   -9.0366   20.1059 C   0  0  0  0  0  0  0  0  0  0  0  0
  -23.1173   -8.5980   22.2416 C   0  0  0  0  0  0  0  0  0  0  0  0
  -26.0981  -25.8694   20.2702 C   0  0  0  0  0  0  0  0  0  0  0  0
  -21.6192   -5.3825   23.0328 C   0  0  0  0  0  0  0  0  0  0  0  0
  -22.2372   -4.2152   23.4814 C   0  0  0  0  0  0  0  0  0  0  0  0
  -24.1292  -25.2862   21.5361 C   0  0  0  0  0  0  0  0  0  0  0  0
  -28.7742  -18.3202   22.4594 C   0  0  0  0  0  0  0  0  0  0  0  0
  -23.6938   -4.2458   21.5541 C   0  0  0  0  0  0  0  0  0  0  0  0
  -23.7884  -10.5216   20.9430 C   0  0  0  0  0  0  0  0  0  0  0  0
  -29.8375  -16.3669   21.5154 C   0  0  0  0  0  0  0  0  0  0  0  0
  -24.3088  -13.0056   21.2004 C   0  0  0  0  0  0  0  0  0  0  0  0
  -24.0724  -34.3228   22.7382 C   0  0  0  0  0  0  0  0  0  0  0  0
  -24.2046  -27.3876   20.3368 C   0  0  0  0  0  0  0  0  0  0  0  0
  -24.5511  -32.9997   22.6870 C   0  0  0  0  0  0  0  0  0  0  0  0
  -23.5097  -26.4866   21.1563 C   0  0  0  0  0  0  0  0  0  0  0  0
  -28.4933  -18.7877   21.1755 C   0  0  0  0  0  0  0  0  0  0  0  0
  -22.1996   -8.2492   21.2507 C   0  0  0  0  0  0  0  0  0  0  0  0
  -25.4170  -24.9805   21.0967 C   0  0  0  0  0  0  0  0  0  0  0  0
  -22.0385   -5.9813   21.8449 C   0  0  0  0  0  0  0  0  0  0  0  0
  -23.2745   -3.6469   22.7421 C   0  0  0  0  0  0  0  0  0  0  0  0
  -29.4463  -17.1098   22.6293 C   0  0  0  0  0  0  0  0  0  0  0  0
  -23.0758   -5.4130   21.1055 C   0  0  0  0  0  0  0  0  0  0  0  0
  -24.6096  -11.6948   20.7844 C   0  0  0  0  0  0  0  0  0  0  0  0
  -25.4017  -13.7458   20.8206 C   0  0  0  0  0  0  0  0  0  0  0  0
  -26.9539  -21.7603   20.7436 C   0  0  0  0  0  0  0  0  0  0  0  0
  -27.4346  -20.6623   19.9040 C   0  0  0  0  0  0  0  0  0  0  0  0
  -26.3715  -22.9326   20.4917 C   0  0  0  0  0  0  0  0  0  1  0  0
  -30.5361  -15.1029   21.6879 C   0  0  0  0  0  0  0  0  0  0  0  0
  -23.1455  -13.5092   21.8703 C   0  0  0  0  0  0  0  0  0  0  0  0
  -30.9609  -14.2918   20.5239 C   0  0  0  0  0  0  0  0  0  0  0  0
  -22.9618  -29.7142   22.1106 C   0  0  0  0  0  0  0  0  0  0  0  0
  -20.1543  -28.3183   21.2788 C   0  0  0  0  0  0  0  0  0  0  0  0
  -18.5073  -25.5130   20.2470 C   0  0  0  0  0  0  0  0  0  0  0  0
  -22.7374  -34.6601   23.3535 C   0  0  0  0  0  0  0  0  0  0  0  0
  -23.5560  -28.6704   19.8940 C   0  0  0  0  0  0  0  0  0  0  0  0
  -22.1159  -26.7752   21.6486 C   0  0  0  0  0  0  0  0  0  0  0  0
  -27.4034  -20.9884   21.9629 C   0  0  0  0  0  0  0  0  0  0  0  0
  -21.8096  -33.4560   23.4937 C   0  0  0  0  0  0  0  0  0  0  0  0
  -29.3090  -12.5786   17.8420 C   0  0  0  0  0  0  0  0  0  0  0  0
  -22.5622  -32.2682   24.0852 C   0  0  0  0  0  0  0  0  0  0  0  0
  -27.9275  -12.2697   18.4182 C   0  0  0  0  0  0  0  0  0  0  0  0
  -30.3893  -12.5145   18.9168 C   0  0  0  0  0  0  0  0  0  0  0  0
  -28.7385  -13.0920   20.6746 C   0  0  0  0  0  0  0  0  0  0  0  0
  -23.7149  -31.8351   23.1714 C   0  0  1  0  0  0  0  0  0  0  0  0
  -22.4408  -29.1297   20.8281 C   0  0  1  0  0  0  0  0  0  0  0  0
  -27.6174  -13.1743   19.6241 C   0  0  2  0  0  0  0  0  0  0  0  0
  -16.2103  -24.6701   19.6896 C   0  0  0  0  0  0  0  0  0  0  0  0
  -19.4860  -28.1800   24.2527 C   0  0  0  0  0  0  0  0  0  0  0  0
  -17.6929  -26.5219   23.7014 C   0  0  0  0  0  0  0  0  0  0  0  0
  -17.5726  -28.8380   22.7829 C   0  0  0  0  0  0  0  0  0  0  0  0
  -19.2870  -24.8863   17.4616 C   0  0  0  0  0  0  0  0  0  0  0  0
  -19.2892  -27.2269   21.8613 C   0  0  1  0  0  0  0  0  0  0  0  0
  -17.4869  -25.2920   19.1451 C   0  0  2  0  0  0  0  0  0  0  0  0
  -18.5372  -27.6868   23.1420 C   0  0  0  0  0  0  0  0  0  0  0  0
  -25.8003  -11.6042   20.1860 N   0  0  0  0  0  0  0  0  0  0  0  0
  -30.8349  -14.6030   22.8564 N   0  0  0  0  0  0  0  0  0  0  0  0
  -26.2573  -12.8675   20.2232 N   0  0  0  0  0  0  0  0  0  0  0  0
  -27.8305  -19.9813   21.0078 N   0  0  0  0  0  0  0  0  0  0  0  0
  -30.0465  -13.3557   20.0617 N   0  0  0  0  0  0  0  0  0  0  0  0
  -21.5270  -28.0454   21.1933 N   0  0  0  0  0  0  0  0  0  0  0  0
  -25.7047  -15.0556   20.9427 N   0  0  0  0  0  0  0  0  0  0  0  0
  -22.1161  -12.6123   22.1870 N   0  0  0  0  0  0  0  0  0  0  0  0
  -23.2113  -31.0719   22.0496 N   0  0  0  0  0  0  0  0  0  0  0  0
  -18.4143  -26.7801   20.7826 N   0  0  0  0  0  0  0  0  0  0  0  0
  -18.0417  -24.3867   18.0993 N   0  3  0  0  0  0  0  0  0  0  0  0
  -27.4780  -20.4480   18.7104 O   0  0  0  0  0  0  0  0  0  0  0  0
  -23.0153  -14.7217   22.1643 O   0  0  0  0  0  0  0  0  0  0  0  0
  -32.0801  -14.5351   20.0919 O   0  0  0  0  0  0  0  0  0  0  0  0
  -23.1240  -28.9874   23.0838 O   0  0  0  0  0  0  0  0  0  0  0  0
  -19.6306  -29.3713   20.9065 O   0  0  0  0  0  0  0  0  0  0  0  0
  -19.3046  -24.6468   20.6001 O   0  0  0  0  0  0  0  0  0  0  0  0
  -21.4245   -7.1406   21.4012 O   0  0  0  0  0  0  0  0  0  0  0  0
  -26.0050  -23.8119   21.4716 O   0  0  0  0  0  0  0  0  0  1  0  0
  -23.8689   -2.5268   23.1738 F   0  0  0  0  0  0  0  0  0  0  0  0
  -29.7106  -16.6699   23.8680 F   0  0  0  0  0  0  0  0  0  0  0  0
  -23.4837   -5.9844   19.9641 F   0  0  0  0  0  0  0  0  0  0  0  0
  1  2  1  0  0  0  0
  1  6  2  0  0  0  0
  2  7  2  0  0  0  0
  3 10  2  0  0  0  0
  3 18  1  0  0  0  0
  4 11  1  0  0  0  0
  4 18  2  0  0  0  0
  5  9  2  0  0  0  0
  5 19  1  0  0  0  0
  6 21  1  0  0  0  0
  7 23  1  0  0  0  0
  8 12  2  0  0  0  0
  8 22  1  0  0  0  0
  9 25  1  0  0  0  0
 10 26  1  0  0  0  0
 11 26  2  0  0  0  0
 12 27  1  0  0  0  0
 13 14  2  0  0  0  0
 13 28  1  0  0  0  0
 14 29  1  0  0  0  0
 15 24  1  0  0  0  0
 15 27  2  0  0  0  0
 16 25  2  0  0  0  0
 16 30  1  0  0  0  0
 17 29  2  0  0  0  0
 17 31  1  0  0  0  0
 18 32  1  0  0  0  0
 19 30  2  0  0  0  0
 19 37  1  0  0  0  0
 20 32  1  0  0  0  0
 20 33  2  0  0  0  0
 20 38  1  0  0  0  0
 21 23  2  0  0  0  0
 21 43  1  0  0  0  0
 22 24  2  0  0  0  0
 22 44  1  0  0  0  0
 23 53  1  0  0  0  0
 24 45  1  0  0  0  0
 25 67  1  0  0  0  0
 26 81  1  0  0  0  0
 27 82  1  0  0  0  0
 28 31  2  0  0  0  0
 28 81  1  0  0  0  0
 29 83  1  0  0  0  0
 30 84  1  0  0  0  0
 31 85  1  0  0  0  0
 32 64  2  0  0  0  0
 33 66  1  0  0  0  0
 33 70  1  0  0  0  0
 34 35  1  0  0  0  0
 34 36  2  0  0  0  0
 34 46  1  0  0  0  0
 35 67  1  0  0  0  0
 35 75  2  0  0  0  0
 36 82  1  0  0  0  0
 37 39  1  0  0  0  0
 37 65  2  0  0  0  0
 38 71  1  0  0  0  0
 38 76  2  0  0  0  0
 39 68  1  0  0  0  0
 39 77  2  0  0  0  0
 40 54  1  0  0  0  0
 40 72  1  0  0  0  0
 40 78  2  0  0  0  0
 41 61  1  0  0  0  0
 41 69  1  0  0  0  0
 41 79  2  0  0  0  0
 42 62  1  0  0  0  0
 42 73  1  0  0  0  0
 42 80  2  0  0  0  0
 43 47  1  0  0  0  0
 44 54  1  0  0  0  0
 45 69  1  0  0  0  0
 46 67  1  0  0  0  0
 47 49  1  0  0  0  0
 48 50  1  0  0  0  0
 48 51  1  0  0  0  0
 49 53  1  0  0  0  0
 50 55  1  0  0  0  0
 51 68  1  0  0  0  0
 52 55  1  0  0  0  0
 52 68  1  0  0  0  0
 53 72  1  0  0  0  0
 54 69  1  0  0  0  0
 55 66  1  0  0  0  0
 56 62  1  0  0  0  0
 57 63  1  0  0  0  0
 58 63  1  0  0  0  0
 59 63  1  0  0  0  0
 60 74  1  0  0  0  0
 61 63  1  0  0  0  0
 61 73  1  0  0  0  0
 62 74  1  0  0  0  0
 64 66  1  0  0  0  0
M  CHG  1  74   1
M  ISO  4  36 101  37 100  39 100  82 101
M  END
> <Batch ID>
0084

> <Smiles>
CNC(C)C(=O)NC(C(=O)N1Cc2cc([101O:1][101CH:1]=C3CN(c4ccc([100C:0](=N)[100C:0](=O)N5CCCC(n6nc(-c7ccc(Oc8ccc(F)cc8F)cc7)c(C(N)=O)c6N)C5)c(F)c4)C3=O)ccc2CC1C(=O)NC1CCCc2ccccc21)C(C)(C)C

> <Shape>
0.350

> <Color>
0.180

> <Negative vol penalty>
0.000

$$$$

  -OEChem-04052300123D

 87 96  0     1  0  0  0  0  0999 V2000
  -24.8350  -32.5850   28.8449 C   0  0  0  0  0  0  0  0  0  0  0  0
  -25.6261  -31.7732   28.0382 C   0  0  0  0  0  0  0  0  0  0  0  0
  -24.4112   -6.4368   22.9823 C   0  0  0  0  0  0  0  0  0  0  0  0
  -23.2723   -6.1486   20.8712 C   0  0  0  0  0  0  0  0  0  0  0  0
  -29.6940  -18.3620   20.2395 C   0  0  0  0  0  0  0  0  0  0  0  0
  -23.4616  -32.6644   28.6184 C   0  0  0  0  0  0  0  0  0  0  0  0
  -25.0439  -31.0395   27.0052 C   0  0  0  0  0  0  0  0  0  0  0  0
  -27.5306  -29.7313   21.5636 C   0  0  0  0  0  0  0  0  0  0  0  0
  -29.7341  -19.7437   20.0528 C   0  0  0  0  0  0  0  0  0  0  0  0
  -23.5906   -5.4666   23.5576 C   0  0  0  0  0  0  0  0  0  0  0  0
  -22.4517   -5.1783   21.4464 C   0  0  0  0  0  0  0  0  0  0  0  0
  -28.1786  -28.5969   21.0768 C   0  0  0  0  0  0  0  0  0  0  0  0
  -20.4425   -5.2689   24.7719 C   0  0  0  0  0  0  0  0  0  0  0  0
  -19.8987   -5.5423   26.0269 C   0  0  0  0  0  0  0  0  0  0  0  0
  -27.2860  -18.4550   20.4119 C   0  0  0  0  0  0  0  0  0  0  0  0
  -26.1048  -27.8351   20.1084 C   0  0  0  0  0  0  0  0  0  0  0  0
  -21.0108   -3.5979   26.9323 C   0  0  0  0  0  0  0  0  0  0  0  0
  -24.2520   -6.7779   21.6392 C   0  0  0  0  0  0  0  0  0  0  0  0
  -28.4700  -17.7176   20.4190 C   0  0  0  0  0  0  0  0  0  0  0  0
  -26.3363   -7.5773   20.4046 C   0  0  0  0  0  0  0  0  0  0  0  0
  -22.8638  -31.9387   27.5760 C   0  0  0  0  0  0  0  0  0  0  0  0
  -26.1601  -29.9211   21.3354 C   0  0  0  0  0  0  0  0  0  0  0  0
  -23.6610  -31.1082   26.7654 C   0  0  0  0  0  0  0  0  0  0  0  0
  -25.4422  -28.9741   20.5911 C   0  0  0  0  0  0  0  0  0  0  0  0
  -28.5501  -20.4811   20.0457 C   0  0  0  0  0  0  0  0  0  0  0  0
  -22.6109   -4.8373   22.7896 C   0  0  0  0  0  0  0  0  0  0  0  0
  -27.4651  -27.6472   20.3516 C   0  0  0  0  0  0  0  0  0  0  0  0
  -21.2704   -4.1600   24.5970 C   0  0  0  0  0  0  0  0  0  0  0  0
  -27.3260  -19.8368   20.2253 C   0  0  0  0  0  0  0  0  0  0  0  0
  -20.1829   -4.7068   27.1071 C   0  0  0  0  0  0  0  0  0  0  0  0
  -21.5546   -3.3245   25.6772 C   0  0  0  0  0  0  0  0  0  0  0  0
  -25.0990   -7.7805   21.0446 C   0  0  0  0  0  0  0  0  0  0  0  0
  -26.7333   -8.8340   20.0179 C   0  0  0  0  0  0  0  0  0  0  0  0
  -28.1921  -24.1638   19.8936 C   0  0  0  0  0  0  0  0  0  0  0  0
  -27.7097  -22.8403   20.3707 C   0  0  0  0  0  0  0  0  0  0  0  0
  -28.4287  -16.2769   20.6136 C   0  0  0  0  0  0  0  0  0  0  0  0
  -27.6502  -25.3163   20.2947 C   0  0  0  0  0  0  0  0  0  1  0  0
  -27.4050  -15.5898   21.1639 C   0  0  0  0  0  0  0  0  0  0  0  0
  -27.0619   -6.3613   20.1796 C   0  0  0  0  0  0  0  0  0  0  0  0
  -27.5096  -14.1217   21.2841 C   0  0  0  0  0  0  0  0  0  0  0  0
  -23.5916  -30.1773   23.1903 C   0  0  0  0  0  0  0  0  0  0  0  0
  -22.1098  -30.8394   20.3817 C   0  0  0  0  0  0  0  0  0  0  0  0
  -22.0819  -30.5478   16.9815 C   0  0  0  0  0  0  0  0  0  0  0  0
  -21.3681  -32.0200   27.3996 C   0  0  0  0  0  0  0  0  0  0  0  0
  -25.4816  -31.1633   21.8443 C   0  0  0  0  0  0  0  0  0  0  0  0
  -23.9737  -29.1409   20.3013 C   0  0  0  0  0  0  0  0  0  0  0  0
  -29.3392  -23.9892   18.9610 C   0  0  0  0  0  0  0  0  0  0  0  0
  -20.8851  -31.5009   26.0477 C   0  0  0  0  0  0  0  0  0  0  0  0
  -24.2290  -13.2103   19.9280 C   0  0  0  0  0  0  0  0  0  0  0  0
  -21.5474  -30.1662   25.7208 C   0  0  0  0  0  0  0  0  0  0  0  0
  -24.2539  -11.6931   20.0938 C   0  0  0  0  0  0  0  0  0  0  0  0
  -29.7021  -22.5232   19.1301 C   0  0  0  0  0  0  0  0  0  0  0  0
  -24.9750  -13.9210   21.0562 C   0  0  0  0  0  0  0  0  0  0  0  0
  -26.4006  -11.9244   21.4048 C   0  0  0  0  0  0  0  0  0  0  0  0
  -23.0701  -30.3162   25.6192 C   0  0  1  0  0  0  0  0  0  0  0  0
  -23.9719  -31.0013   21.9928 C   0  0  1  0  0  0  0  0  0  0  0  0
  -25.6960  -11.1869   20.2554 C   0  0  1  0  0  0  0  0  0  0  0  0
  -20.7223  -31.1597   14.9630 C   0  0  0  0  0  0  0  0  0  0  0  0
  -20.1215  -28.6243   21.0524 C   0  0  0  0  0  0  0  0  0  0  0  0
  -19.4053  -28.6363   18.6534 C   0  0  0  0  0  0  0  0  0  0  0  0
  -19.0990  -30.6770   20.0549 C   0  0  0  0  0  0  0  0  0  0  0  0
  -24.2871  -32.1587   15.8408 C   0  0  0  0  0  0  0  0  0  0  0  0
  -25.5066  -20.7066   18.9647 C   0  0  0  0  0  0  0  0  0  0  0  0
  -21.4253  -30.0195   19.3148 C   0  0  1  0  0  0  0  0  0  0  0  0
  -21.8594  -31.5731   15.8844 C   0  0  2  0  0  0  0  0  0  0  0  0
  -20.0400  -29.4849   19.7758 C   0  0  0  0  0  0  0  0  0  0  0  0
  -24.7341   -9.0651   21.0655 N   0  0  0  0  0  0  0  0  0  0  0  0
  -25.7481   -9.6806   20.4338 N   0  0  0  0  0  0  0  0  0  0  0  0
  -28.6080  -21.8968   19.8556 N   0  0  0  0  0  0  0  0  0  0  0  0
  -26.3312  -13.3794   21.2297 N   0  0  0  0  0  0  0  0  0  0  0  0
  -23.3538  -30.3690   20.8256 N   0  0  0  0  0  0  0  0  0  0  0  0
  -27.8254   -9.2865   19.3660 N   0  0  0  0  0  0  0  0  0  0  0  0
  -26.5103   -5.1588   20.6423 N   0  0  0  0  0  0  0  0  0  0  0  0
  -23.4360  -30.9103   24.3513 N   0  0  0  0  0  0  0  0  0  0  0  0
  -21.3750  -30.8601   18.1234 N   0  0  0  0  0  0  0  0  0  0  0  0
  -23.0942  -31.7316   15.0652 N   0  3  0  0  0  0  0  0  0  0  0  0
  -26.7227  -22.7012   21.0739 O   0  0  0  0  0  0  0  0  0  0  0  0
  -28.1745   -6.3437   19.6005 O   0  0  0  0  0  0  0  0  0  0  0  0
  -28.6352  -13.6419   21.4305 O   0  0  0  0  0  0  0  0  0  0  0  0
  -23.4483  -28.9662   23.0695 O   0  0  0  0  0  0  0  0  0  0  0  0
  -21.5642  -31.8634   20.8004 O   0  0  0  0  0  0  0  0  0  0  0  0
  -22.8072  -29.5660   16.8384 O   0  0  0  0  0  0  0  0  0  0  0  0
  -21.8101   -3.8904   23.3505 O   0  0  0  0  0  0  0  0  0  0  0  0
  -28.0951  -26.5387   19.8758 O   0  0  0  0  0  0  0  0  0  1  0  0
  -26.1579  -20.5394   20.2220 O   0  0  0  0  0  0  0  0  0  0  0  0
  -19.6619   -4.9703   28.3126 F   0  0  0  0  0  0  0  0  0  0  0  0
  -22.3502   -2.2583   25.5155 F   0  0  0  0  0  0  0  0  0  0  0  0
  1  2  1  0  0  0  0
  1  6  2  0  0  0  0
  2  7  2  0  0  0  0
  3 10  2  0  0  0  0
  3 18  1  0  0  0  0
  4 11  1  0  0  0  0
  4 18  2  0  0  0  0
  5  9  2  0  0  0  0
  5 19  1  0  0  0  0
  6 21  1  0  0  0  0
  7 23  1  0  0  0  0
  8 12  2  0  0  0  0
  8 22  1  0  0  0  0
  9 25  1  0  0  0  0
 10 26  1  0  0  0  0
 11 26  2  0  0  0  0
 12 27  1  0  0  0  0
 13 14  2  0  0  0  0
 13 28  1  0  0  0  0
 14 30  1  0  0  0  0
 15 19  2  0  0  0  0
 15 29  1  0  0  0  0
 16 24  1  0  0  0  0
 16 27  2  0  0  0  0
 17 30  2  0  0  0  0
 17 31  1  0  0  0  0
 18 32  1  0  0  0  0
 19 36  1  0  0  0  0
 20 32  1  0  0  0  0
 20 33  2  0  0  0  0
 20 39  1  0  0  0  0
 21 23  2  0  0  0  0
 21 44  1  0  0  0  0
 22 24  2  0  0  0  0
 22 45  1  0  0  0  0
 23 55  1  0  0  0  0
 24 46  1  0  0  0  0
 25 29  2  0  0  0  0
 25 69  1  0  0  0  0
 26 83  1  0  0  0  0
 27 84  1  0  0  0  0
 28 31  2  0  0  0  0
 28 83  1  0  0  0  0
 29 85  1  0  0  0  0
 30 86  1  0  0  0  0
 31 87  1  0  0  0  0
 32 67  2  0  0  0  0
 33 68  1  0  0  0  0
 33 72  1  0  0  0  0
 34 35  1  0  0  0  0
 34 37  2  0  0  0  0
 34 47  1  0  0  0  0
 35 69  1  0  0  0  0
 35 77  2  0  0  0  0
 36 38  2  0  0  0  0
 37 84  1  0  0  0  0
 38 40  1  0  0  0  0
 39 73  1  0  0  0  0
 39 78  2  0  0  0  0
 40 70  1  0  0  0  0
 40 79  2  0  0  0  0
 41 56  1  0  0  0  0
 41 74  1  0  0  0  0
 41 80  2  0  0  0  0
 42 64  1  0  0  0  0
 42 71  1  0  0  0  0
 42 81  2  0  0  0  0
 43 65  1  0  0  0  0
 43 75  1  0  0  0  0
 43 82  2  0  0  0  0
 44 48  1  0  0  0  0
 45 56  1  0  0  0  0
 46 71  1  0  0  0  0
 47 52  1  0  0  0  0
 48 50  1  0  0  0  0
 49 51  1  0  0  0  0
 49 53  1  0  0  0  0
 50 55  1  0  0  0  0
 51 57  1  0  0  0  0
 52 69  1  0  0  0  0
 53 70  1  0  0  0  0
 54 57  1  0  0  0  0
 54 70  1  0  0  0  0
 55 74  1  0  0  0  0
 56 71  1  0  0  0  0
 57 68  1  0  0  0  0
 58 65  1  0  0  0  0
 59 66  1  0  0  0  0
 60 66  1  0  0  0  0
 61 66  1  0  0  0  0
 62 76  1  0  0  0  0
 63 85  1  0  0  0  0
 64 66  1  0  0  0  0
 64 75  1  0  0  0  0
 65 76  1  0  0  0  0
 67 68  1  0  0  0  0
M  CHG  1  76   1
M  ISO  4  37 101  38 100  40 100  84 101
M  END
> <Batch ID>
0084

> <Smiles>
CNC(C)C(=O)NC(C(=O)N1Cc2cc([101O:1][101CH:1]=C3CCN(c4ccc(C=[100CH:0][100C:0](=O)N5CCCC(n6nc(-c7ccc(Oc8ccc(F)cc8F)cc7)c(C(N)=O)c6N)C5)cc4OC)C3=O)ccc2CC1C(=O)NC1CCCc2ccccc21)C(C)(C)C

> <Shape>
0.244

> <Color>
0.077

> <Negative vol penalty>
0.000

$$$$
