
  -OEChem-04052300153D

 83 91  0     1  0  0  0  0  0999 V2000
  -16.4776  -26.1112   23.9765 C   0  0  0  0  0  0  0  0  0  0  0  0
  -17.8258  -25.7775   24.0575 C   0  0  0  0  0  0  0  0  0  0  0  0
  -32.6461  -17.4473   23.4559 C   0  0  0  0  0  0  0  0  0  0  0  0
  -22.9998   -9.8943   19.9816 C   0  0  0  0  0  0  0  0  0  0  0  0
  -23.7234   -9.9471   22.2861 C   0  0  0  0  0  0  0  0  0  0  0  0
  -31.8511  -18.3458   24.1674 C   0  0  0  0  0  0  0  0  0  0  0  0
  -15.5251  -25.1143   23.7697 C   0  0  0  0  0  0  0  0  0  0  0  0
  -18.2221  -24.4464   23.9327 C   0  0  0  0  0  0  0  0  0  0  0  0
  -23.3649  -22.3639   21.3404 C   0  0  0  0  0  0  0  0  0  0  0  0
  -32.0580  -16.5500   22.5645 C   0  0  0  0  0  0  0  0  0  0  0  0
  -22.2326   -8.7604   20.2485 C   0  0  0  0  0  0  0  0  0  0  0  0
  -22.9562   -8.8132   22.5530 C   0  0  0  0  0  0  0  0  0  0  0  0
  -24.5869  -21.9579   21.8749 C   0  0  0  0  0  0  0  0  0  0  0  0
  -23.1993   -5.4737   22.0845 C   0  0  0  0  0  0  0  0  0  0  0  0
  -23.7859   -4.4570   22.8379 C   0  0  0  0  0  0  0  0  0  0  0  0
  -29.8797  -17.4495   23.0963 C   0  0  0  0  0  0  0  0  0  0  0  0
  -23.8438  -19.6637   21.8157 C   0  0  0  0  0  0  0  0  0  0  0  0
  -22.0610   -4.7023   24.5118 C   0  0  0  0  0  0  0  0  0  0  0  0
  -23.7453  -10.4876   21.0004 C   0  0  0  0  0  0  0  0  0  0  0  0
  -30.4679  -18.3469   23.9876 C   0  0  0  0  0  0  0  0  0  0  0  0
  -24.1318  -13.0029   20.8223 C   0  0  0  0  0  0  0  0  0  0  0  0
  -15.9108  -23.7715   23.6327 C   0  0  0  0  0  0  0  0  0  0  0  0
  -22.3674  -21.4223   21.0492 C   0  0  0  0  0  0  0  0  0  0  0  0
  -17.2737  -23.4304   23.7252 C   0  0  0  0  0  0  0  0  0  0  0  0
  -22.6110  -20.0600   21.2752 C   0  0  0  0  0  0  0  0  0  0  0  0
  -30.6747  -16.5511   22.3847 C   0  0  0  0  0  0  0  0  0  0  0  0
  -22.2107   -8.2198   21.5342 C   0  0  0  0  0  0  0  0  0  0  0  0
  -24.8254  -20.6080   22.1153 C   0  0  0  0  0  0  0  0  0  0  0  0
  -22.0436   -6.1048   22.5447 C   0  0  0  0  0  0  0  0  0  0  0  0
  -23.2168   -4.0712   24.0515 C   0  0  0  0  0  0  0  0  0  0  0  0
  -21.4744   -5.7191   23.7583 C   0  0  0  0  0  0  0  0  0  0  0  0
  -24.5384  -11.6586   20.7252 C   0  0  0  0  0  0  0  0  0  0  0  0
  -25.2421  -13.7246   20.4580 C   0  0  0  0  0  0  0  0  0  0  0  0
  -29.6254  -19.3009   24.7434 C   0  0  0  0  0  0  0  0  0  0  0  0
  -22.8638  -13.5502   21.2074 C   0  0  0  0  0  0  0  0  0  0  0  0
  -19.4054  -20.9014   22.0782 C   0  0  0  0  0  0  0  0  0  0  0  0
  -19.4029  -18.6574   19.7358 C   0  0  0  0  0  0  0  0  0  0  0  0
  -21.2007  -16.5698   17.7217 C   0  0  0  0  0  0  0  0  0  0  0  0
  -30.7219  -14.6835   20.6947 C   0  0  0  0  0  0  0  0  0  0  0  0
  -27.4000  -20.5387   24.6313 C   0  0  0  0  0  0  0  0  0  0  0  0
  -14.8408  -22.7232   23.4576 C   0  0  0  0  0  0  0  0  0  0  0  0
  -21.0646  -21.8737   20.4481 C   0  0  0  0  0  0  0  0  0  0  0  0
  -21.5805  -19.0074   20.9609 C   0  0  0  0  0  0  0  0  0  0  0  0
  -15.3768  -21.3827   22.9614 C   0  0  0  0  0  0  0  0  0  0  0  0
  -29.6041  -12.2289   18.3703 C   0  0  0  0  0  0  0  0  0  0  0  0
  -16.6170  -20.9781   23.7519 C   0  0  0  0  0  0  0  0  0  0  0  0
  -28.1531  -11.9723   18.7838 C   0  0  0  0  0  0  0  0  0  0  0  0
  -30.5039  -12.4730   19.5805 C   0  0  0  0  0  0  0  0  0  0  0  0
  -28.5880  -13.2640   20.9120 C   0  0  0  0  0  0  0  0  0  0  0  0
  -17.7451  -22.0008   23.5700 C   0  0  1  0  0  0  0  0  0  0  0  0
  -19.9283  -20.8803   20.6697 C   0  0  1  0  0  0  0  0  0  0  0  0
  -27.6311  -13.0770   19.7233 C   0  0  2  0  0  0  0  0  0  0  0  0
  -20.9186  -14.8293   15.9361 C   0  0  0  0  0  0  0  0  0  0  0  0
  -18.5406  -16.6325   21.8491 C   0  0  0  0  0  0  0  0  0  0  0  0
  -19.1916  -14.8064   20.2649 C   0  0  0  0  0  0  0  0  0  0  0  0
  -17.3766  -16.4025   19.6476 C   0  0  0  0  0  0  0  0  0  0  0  0
  -22.7225  -18.1743   15.7549 C   0  0  0  0  0  0  0  0  0  0  0  0
  -19.7768  -17.1971   19.6539 C   0  0  1  0  0  0  0  0  0  0  0  0
  -21.1336  -16.3062   16.2282 C   0  0  2  0  0  0  0  0  0  0  0  0
  -18.7403  -16.2794   20.3617 C   0  0  0  0  0  0  0  0  0  0  0  0
  -25.8079  -11.5312   20.3300 N   0  0  0  0  0  0  0  0  0  0  0  0
  -26.2086  -12.8046   20.1755 N   0  0  0  0  0  0  0  0  0  0  0  0
  -20.3202  -19.4994   20.3804 N   0  0  0  0  0  0  0  0  0  0  0  0
  -29.9488  -13.5350   20.4224 N   0  0  0  0  0  0  0  0  0  0  0  0
  -25.4763  -15.0501   20.3548 N   0  0  0  0  0  0  0  0  0  0  0  0
  -21.8314  -12.6668   21.5511 N   0  0  0  0  0  0  0  0  0  0  0  0
  -27.6068  -21.1283   25.8755 N   0  0  0  0  0  0  0  0  0  0  0  0
  -30.0775  -15.6397   21.4789 N   0  0  0  0  0  0  0  0  0  0  0  0
  -28.3784  -19.6740   24.1194 N   0  0  0  0  0  0  0  0  0  0  0  0
  -18.3921  -21.8170   22.2886 N   0  0  0  0  0  0  0  0  0  0  0  0
  -19.9662  -16.9031   18.2375 N   0  0  0  0  0  0  0  0  0  0  0  0
  -26.2342  -20.8132   23.9177 N   0  3  0  0  0  0  0  0  0  1  0  0
  -22.3990  -16.7363   15.5689 N   0  3  0  0  0  0  0  0  0  0  0  0
  -29.9819  -19.7175   25.8379 O   0  0  0  0  0  0  0  0  0  0  0  0
  -22.6477  -14.7856   21.2299 O   0  0  0  0  0  0  0  0  0  0  0  0
  -19.8848  -20.1420   22.9121 O   0  0  0  0  0  0  0  0  0  0  0  0
  -18.3397  -19.0382   19.2397 O   0  0  0  0  0  0  0  0  0  0  0  0
  -22.2433  -16.4846   18.3669 O   0  0  0  0  0  0  0  0  0  0  0  0
  -31.8609  -14.8214   20.2413 O   0  0  0  0  0  0  0  0  0  0  0  0
  -21.4620   -7.1135   21.7951 O   0  0  0  0  0  0  0  0  0  0  0  0
  -26.0171  -20.2091   22.6376 O   0  0  0  0  0  0  0  0  0  1  0  0
  -23.7793   -3.0938   24.7743 F   0  0  0  0  0  0  0  0  0  0  0  0
  -20.3635   -6.3208   24.2050 F   0  0  0  0  0  0  0  0  0  0  0  0
  1  2  1  0  0  0  0
  1  7  2  0  0  0  0
  2  8  2  0  0  0  0
  3  6  2  0  0  0  0
  3 10  1  0  0  0  0
  4 11  2  0  0  0  0
  4 19  1  0  0  0  0
  5 12  1  0  0  0  0
  5 19  2  0  0  0  0
  6 20  1  0  0  0  0
  7 22  1  0  0  0  0
  8 24  1  0  0  0  0
  9 13  2  0  0  0  0
  9 23  1  0  0  0  0
 10 26  2  0  0  0  0
 11 27  1  0  0  0  0
 12 27  2  0  0  0  0
 13 28  1  0  0  0  0
 14 15  2  0  0  0  0
 14 29  1  0  0  0  0
 15 30  1  0  0  0  0
 16 20  2  0  0  0  0
 16 26  1  0  0  0  0
 17 25  1  0  0  0  0
 17 28  2  0  0  0  0
 18 30  2  0  0  0  0
 18 31  1  0  0  0  0
 19 32  1  0  0  0  0
 20 34  1  0  0  0  0
 21 32  1  0  0  0  0
 21 33  2  0  0  0  0
 21 35  1  0  0  0  0
 22 24  2  0  0  0  0
 22 41  1  0  0  0  0
 23 25  2  0  0  0  0
 23 42  1  0  0  0  0
 24 50  1  0  0  0  0
 25 43  1  0  0  0  0
 26 68  1  0  0  0  0
 27 80  1  0  0  0  0
 28 81  1  0  0  0  0
 29 31  2  0  0  0  0
 29 80  1  0  0  0  0
 30 82  1  0  0  0  0
 31 83  1  0  0  0  0
 32 61  2  0  0  0  0
 33 62  1  0  0  0  0
 33 65  1  0  0  0  0
 34 69  1  0  0  0  0
 34 74  2  0  0  0  0
 35 66  1  0  0  0  0
 35 75  2  0  0  0  0
 36 51  1  0  0  0  0
 36 70  1  0  0  0  0
 36 76  2  0  0  0  0
 37 58  1  0  0  0  0
 37 63  1  0  0  0  0
 37 77  2  0  0  0  0
 38 59  1  0  0  0  0
 38 71  1  0  0  0  0
 38 78  2  0  0  0  0
 39 64  1  0  0  0  0
 39 68  1  0  0  0  0
 39 79  2  0  0  0  0
 40 67  1  0  0  0  0
 40 69  1  0  0  0  0
 40 72  2  0  0  0  0
 41 44  1  0  0  0  0
 42 51  1  0  0  0  0
 43 63  1  0  0  0  0
 44 46  1  0  0  0  0
 45 47  1  0  0  0  0
 45 48  1  0  0  0  0
 46 50  1  0  0  0  0
 47 52  1  0  0  0  0
 48 64  1  0  0  0  0
 49 52  1  0  0  0  0
 49 64  1  0  0  0  0
 50 70  1  0  0  0  0
 51 63  1  0  0  0  0
 52 62  1  0  0  0  0
 53 59  1  0  0  0  0
 54 60  1  0  0  0  0
 55 60  1  0  0  0  0
 56 60  1  0  0  0  0
 57 73  1  0  0  0  0
 58 60  1  0  0  0  0
 58 71  1  0  0  0  0
 59 73  1  0  0  0  0
 61 62  1  0  0  0  0
 72 81  1  0  0  0  0
M  CHG  2  72   1  73   1
M  ISO  4  39 100  68 100  72 101  81 101
M  END
> <Batch ID>
0085

> <Smiles>
CNC(C)C(=O)NC(C(=O)N1Cc2cc([101O:1][101NH:1]C(N)=NC(=O)c3cccc([100NH:0][100C:0](=O)N4CCCC(n5nc(-c6ccc(Oc7ccc(F)cc7F)cc6)c(C(N)=O)c5N)C4)c3)ccc2CC1C(=O)NC1CCCc2ccccc21)C(C)(C)C

> <Shape>
0.177

> <Color>
0.193

> <Negative vol penalty>
0.000

$$$$

  -OEChem-04052300153D

 87 96  0     1  0  0  0  0  0999 V2000
  -22.4308   -7.9850   24.6526 C   0  0  0  0  0  0  0  0  0  0  0  0
  -23.3965   -8.9403   24.9531 C   0  0  0  0  0  0  0  0  0  0  0  0
  -23.8464  -31.3649   23.5319 C   0  0  0  0  0  0  0  0  0  0  0  0
  -24.1495  -29.0238   24.0462 C   0  0  0  0  0  0  0  0  0  0  0  0
  -30.3258  -23.3546   20.3700 C   0  0  0  0  0  0  0  0  0  0  0  0
  -22.1015   -7.7226   23.3235 C   0  0  0  0  0  0  0  0  0  0  0  0
  -24.0343   -9.6328   23.9246 C   0  0  0  0  0  0  0  0  0  0  0  0
  -26.8819  -16.0345   22.4322 C   0  0  0  0  0  0  0  0  0  0  0  0
  -30.1972  -24.6863   20.7643 C   0  0  0  0  0  0  0  0  0  0  0  0
  -22.4626  -31.1923   23.5618 C   0  0  0  0  0  0  0  0  0  0  0  0
  -22.7657  -28.8512   24.0762 C   0  0  0  0  0  0  0  0  0  0  0  0
  -28.0584  -16.6031   21.9462 C   0  0  0  0  0  0  0  0  0  0  0  0
  -20.2504  -28.4968   21.8450 C   0  0  0  0  0  0  0  0  0  0  0  0
  -19.7217  -27.3844   21.1903 C   0  0  0  0  0  0  0  0  0  0  0  0
  -27.3517  -16.1227   19.6904 C   0  0  0  0  0  0  0  0  0  0  0  0
  -31.0113  -25.4040   18.6057 C   0  0  0  0  0  0  0  0  0  0  0  0
  -18.7863  -26.6015   23.2757 C   0  0  0  0  0  0  0  0  0  0  0  0
  -28.8150  -20.6945   19.5514 C   0  0  0  0  0  0  0  0  0  0  0  0
  -24.6899  -30.2806   23.7740 C   0  0  0  0  0  0  0  0  0  0  0  0
  -30.7972  -23.0475   19.0936 C   0  0  0  0  0  0  0  0  0  0  0  0
  -26.9570  -30.8032   24.8202 C   0  0  0  0  0  0  0  0  0  0  0  0
  -22.7287   -8.4191   22.2784 C   0  0  0  0  0  0  0  0  0  0  0  0
  -25.9348  -15.4950   21.5499 C   0  0  0  0  0  0  0  0  0  0  0  0
  -23.7141   -9.3785   22.5801 C   0  0  0  0  0  0  0  0  0  0  0  0
  -26.1628  -15.5501   20.1675 C   0  0  0  0  0  0  0  0  0  0  0  0
  -30.5399  -25.7110   19.8821 C   0  0  0  0  0  0  0  0  0  0  0  0
  -21.9222  -29.9355   23.8340 C   0  0  0  0  0  0  0  0  0  0  0  0
  -28.2948  -16.6447   20.5753 C   0  0  0  0  0  0  0  0  0  0  0  0
  -20.0471  -28.6615   23.2151 C   0  0  0  0  0  0  0  0  0  0  0  0
  -28.3605  -19.4580   19.9505 C   0  0  0  0  0  0  0  0  0  0  0  0
  -29.4329  -18.5531   19.8104 C   0  0  0  0  0  0  0  0  0  1  0  0
  -18.9896  -26.4368   21.9056 C   0  0  0  0  0  0  0  0  0  0  0  0
  -31.1399  -24.0722   18.2114 C   0  0  0  0  0  0  0  0  0  0  0  0
  -19.3150  -27.7138   23.9305 C   0  0  0  0  0  0  0  0  0  0  0  0
  -26.1194  -30.4582   23.7427 C   0  0  0  0  0  0  0  0  0  0  0  0
  -30.5100  -19.2638   19.3286 C   0  0  0  0  0  0  0  0  0  0  0  0
  -28.2172  -30.8458   24.2756 C   0  0  0  0  0  0  0  0  0  0  0  0
  -30.9342  -21.6376   18.6819 C   0  0  0  0  0  0  0  0  0  0  0  0
  -26.6257  -31.0619   26.1910 C   0  0  0  0  0  0  0  0  0  0  0  0
  -24.7062  -12.6026   21.0722 C   0  0  0  0  0  0  0  0  0  0  0  0
  -22.7881  -14.1877   18.9912 C   0  0  0  0  0  0  0  0  0  0  0  0
  -22.3169  -16.9021   16.9771 C   0  0  0  0  0  0  0  0  0  0  0  0
  -30.7051  -28.2001   19.5305 C   0  0  0  0  0  0  0  0  0  0  0  0
  -22.3734   -8.0673   20.8555 C   0  0  0  0  0  0  0  0  0  0  0  0
  -24.6584  -14.9092   22.0887 C   0  0  0  0  0  0  0  0  0  0  0  0
  -25.1684  -15.0030   19.1774 C   0  0  0  0  0  0  0  0  0  0  0  0
  -22.8271   -9.1113   19.8385 C   0  0  0  0  0  0  0  0  0  0  0  0
  -30.4844  -31.7003   20.1447 C   0  0  0  0  0  0  0  0  0  0  0  0
  -24.2700   -9.5267   20.1073 C   0  0  0  0  0  0  0  0  0  0  0  0
  -29.4206  -31.8099   21.2394 C   0  0  0  0  0  0  0  0  0  0  0  0
  -30.1570  -30.5929   19.1445 C   0  0  0  0  0  0  0  0  0  0  0  0
  -28.8318  -29.3858   20.8345 C   0  0  0  0  0  0  0  0  0  0  0  0
  -24.4103  -10.1682   21.4931 C   0  0  1  0  0  0  0  0  0  0  0  0
  -23.9986  -13.9270   21.1257 C   0  0  1  0  0  0  0  0  0  0  0  0
  -29.1513  -30.4447   21.9023 C   0  0  2  0  0  0  0  0  0  0  0  0
  -31.8665  -18.7524   19.0252 C   0  0  0  0  0  0  0  0  0  0  0  0
  -20.6673  -17.9010   15.3713 C   0  0  0  0  0  0  0  0  0  0  0  0
  -23.6447  -12.1757   16.8633 C   0  0  0  0  0  0  0  0  0  0  0  0
  -22.7559  -13.7419   15.1240 C   0  0  0  0  0  0  0  0  0  0  0  0
  -21.2144  -12.7643   16.8242 C   0  0  0  0  0  0  0  0  0  0  0  0
  -21.9742  -19.3183   18.6514 C   0  0  0  0  0  0  0  0  0  0  0  0
  -22.8650  -14.5459   17.5267 C   0  0  1  0  0  0  0  0  0  0  0  0
  -21.1378  -17.8447   16.8164 C   0  0  2  0  0  0  0  0  0  0  0  0
  -22.6398  -13.3156   16.6031 C   0  0  0  0  0  0  0  0  0  0  0  0
  -26.7908  -30.2935   22.5998 N   0  0  0  0  0  0  0  0  0  0  0  0
  -30.1335  -20.5803   19.1490 N   0  0  0  0  0  0  0  0  0  0  0  0
  -28.0637  -30.5362   22.9562 N   0  0  0  0  0  0  0  0  0  0  0  0
  -23.9386  -14.4348   19.7536 N   0  0  0  0  0  0  0  0  0  0  0  0
  -29.9183  -29.3286   19.8440 N   0  0  0  0  0  0  0  0  0  0  0  0
  -29.4305  -31.1177   24.8013 N   0  0  0  0  0  0  0  0  0  0  0  0
  -25.2825  -30.9745   26.5816 N   0  0  0  0  0  0  0  0  0  0  0  0
  -30.4093  -27.0639   20.2828 N   0  0  0  0  0  0  0  0  0  0  0  0
  -23.9277  -11.5324   21.4698 N   0  0  0  0  0  0  0  0  0  0  0  0
  -21.9108  -15.6301   17.3209 N   0  0  0  0  0  0  0  0  0  0  0  0
  -21.5141  -19.2223   17.2421 N   0  3  0  0  0  0  0  0  0  0  0  0
  -31.8063  -21.3572   17.8649 O   0  0  0  0  0  0  0  0  0  0  0  0
  -27.4928  -31.3777   27.0406 O   0  0  0  0  0  0  0  0  0  0  0  0
  -25.8716  -12.5550   20.6966 O   0  0  0  0  0  0  0  0  0  0  0  0
  -21.7433  -13.7131   19.4436 O   0  0  0  0  0  0  0  0  0  0  0  0
  -23.4815  -17.2578   16.8103 O   0  0  0  0  0  0  0  0  0  0  0  0
  -31.5956  -28.2464   18.6779 O   0  0  0  0  0  0  0  0  0  0  0  0
  -27.1193  -19.2090   20.3910 O   0  0  0  0  0  0  0  0  0  0  0  0
  -20.5720  -29.7668   23.8636 O   0  0  0  0  0  0  0  0  0  0  0  0
  -29.4427  -17.1985   20.0983 O   0  0  0  0  0  0  0  0  0  1  0  0
  -18.4807  -25.3694   21.2764 F   0  0  0  0  0  0  0  0  0  0  0  0
  -31.5944  -23.7888   16.9823 F   0  0  0  0  0  0  0  0  0  0  0  0
  -19.1154  -27.8673   25.2467 F   0  0  0  0  0  0  0  0  0  0  0  0
  1  2  1  0  0  0  0
  1  6  2  0  0  0  0
  2  7  2  0  0  0  0
  3 10  2  0  0  0  0
  3 19  1  0  0  0  0
  4 11  1  0  0  0  0
  4 19  2  0  0  0  0
  5  9  2  0  0  0  0
  5 20  1  0  0  0  0
  6 22  1  0  0  0  0
  7 24  1  0  0  0  0
  8 12  2  0  0  0  0
  8 23  1  0  0  0  0
  9 26  1  0  0  0  0
 10 27  1  0  0  0  0
 11 27  2  0  0  0  0
 12 28  1  0  0  0  0
 13 14  2  0  0  0  0
 13 29  1  0  0  0  0
 14 32  1  0  0  0  0
 15 25  1  0  0  0  0
 15 28  2  0  0  0  0
 16 26  2  0  0  0  0
 16 33  1  0  0  0  0
 17 32  2  0  0  0  0
 17 34  1  0  0  0  0
 18 30  2  0  0  0  0
 18 66  1  0  0  0  0
 19 35  1  0  0  0  0
 20 33  2  0  0  0  0
 20 38  1  0  0  0  0
 21 35  1  0  0  0  0
 21 37  2  0  0  0  0
 21 39  1  0  0  0  0
 22 24  2  0  0  0  0
 22 44  1  0  0  0  0
 23 25  2  0  0  0  0
 23 45  1  0  0  0  0
 24 53  1  0  0  0  0
 25 46  1  0  0  0  0
 26 72  1  0  0  0  0
 27 83  1  0  0  0  0
 28 84  1  0  0  0  0
 29 34  2  0  0  0  0
 29 83  1  0  0  0  0
 30 31  1  0  0  0  0
 30 82  1  0  0  0  0
 31 36  2  0  0  0  0
 31 84  1  0  0  0  0
 32 85  1  0  0  0  0
 33 86  1  0  0  0  0
 34 87  1  0  0  0  0
 35 65  2  0  0  0  0
 36 56  1  0  0  0  0
 36 66  1  0  0  0  0
 37 67  1  0  0  0  0
 37 70  1  0  0  0  0
 38 66  1  0  0  0  0
 38 76  2  0  0  0  0
 39 71  1  0  0  0  0
 39 77  2  0  0  0  0
 40 54  1  0  0  0  0
 40 73  1  0  0  0  0
 40 78  2  0  0  0  0
 41 62  1  0  0  0  0
 41 68  1  0  0  0  0
 41 79  2  0  0  0  0
 42 63  1  0  0  0  0
 42 74  1  0  0  0  0
 42 80  2  0  0  0  0
 43 69  1  0  0  0  0
 43 72  1  0  0  0  0
 43 81  2  0  0  0  0
 44 47  1  0  0  0  0
 45 54  1  0  0  0  0
 46 68  1  0  0  0  0
 47 49  1  0  0  0  0
 48 50  1  0  0  0  0
 48 51  1  0  0  0  0
 49 53  1  0  0  0  0
 50 55  1  0  0  0  0
 51 69  1  0  0  0  0
 52 55  1  0  0  0  0
 52 69  1  0  0  0  0
 53 73  1  0  0  0  0
 54 68  1  0  0  0  0
 55 67  1  0  0  0  0
 57 63  1  0  0  0  0
 58 64  1  0  0  0  0
 59 64  1  0  0  0  0
 60 64  1  0  0  0  0
 61 75  1  0  0  0  0
 62 64  1  0  0  0  0
 62 74  1  0  0  0  0
 63 75  1  0  0  0  0
 65 67  1  0  0  0  0
M  CHG  1  75   1
M  ISO  4  31 101  43 100  72 100  84 101
M  END
> <Batch ID>
0085

> <Smiles>
C=C1N(C(=O)c2ccc([100NH:0][100C:0](=O)N3CCCC(n4nc(-c5ccc(Oc6ccc(F)cc6F)cc5)c(C(N)=O)c4N)C3)cc2F)CC(=O)[101CH:1]1[101O:1]c1ccc2c(c1)CN(C(=O)C(NC(=O)C(C)NC)C(C)(C)C)C(C(=O)NC1CCCc3ccccc31)C2

> <Shape>
0.285

> <Color>
0.051

> <Negative vol penalty>
0.000

$$$$

  -OEChem-04052300153D

 88 97  0     1  0  0  0  0  0999 V2000
  -27.9131  -37.5879   20.0601 C   0  0  0  0  0  0  0  0  0  0  0  0
  -28.4049  -36.3012   19.8655 C   0  0  0  0  0  0  0  0  0  0  0  0
  -25.7603  -10.7791   23.2218 C   0  0  0  0  0  0  0  0  0  0  0  0
  -25.4416  -13.0526   23.9747 C   0  0  0  0  0  0  0  0  0  0  0  0
  -26.9443  -37.8227   21.0349 C   0  0  0  0  0  0  0  0  0  0  0  0
  -27.9289  -35.2486   20.6465 C   0  0  0  0  0  0  0  0  0  0  0  0
  -27.1158  -29.4376   18.8921 C   0  0  0  0  0  0  0  0  0  0  0  0
  -25.9956  -10.3767   24.5365 C   0  0  0  0  0  0  0  0  0  0  0  0
  -25.6769  -12.6502   25.2894 C   0  0  0  0  0  0  0  0  0  0  0  0
  -27.8950  -28.2924   19.0500 C   0  0  0  0  0  0  0  0  0  0  0  0
  -28.3456  -11.9072   27.2276 C   0  0  0  0  0  0  0  0  0  0  0  0
  -29.1942  -12.6957   28.0047 C   0  0  0  0  0  0  0  0  0  0  0  0
  -26.6077  -27.6928   21.0001 C   0  0  0  0  0  0  0  0  0  0  0  0
  -28.5552  -20.6708   19.8962 C   0  0  0  0  0  0  0  0  0  0  0  0
  -29.9123  -19.0031   18.1187 C   0  0  0  0  0  0  0  0  0  0  0  0
  -27.4001  -13.0768   29.5773 C   0  0  0  0  0  0  0  0  0  0  0  0
  -25.4834  -12.1170   22.9409 C   0  0  0  0  0  0  0  0  0  0  0  0
  -24.0015  -12.5805   20.9168 C   0  0  0  0  0  0  0  0  0  0  0  0
  -26.4492  -36.7707   21.8216 C   0  0  0  0  0  0  0  0  0  0  0  0
  -26.0820  -29.7252   19.7948 C   0  0  0  0  0  0  0  0  0  0  0  0
  -26.9535  -35.4697   21.6336 C   0  0  0  0  0  0  0  0  0  0  0  0
  -25.8152  -28.8411   20.8499 C   0  0  0  0  0  0  0  0  0  0  0  0
  -29.7534  -21.0930   19.3204 C   0  0  0  0  0  0  0  0  0  0  0  0
  -28.0355  -19.4147   19.5832 C   0  0  0  0  0  0  0  0  0  0  0  0
  -28.7141  -18.5809   18.6945 C   0  0  0  0  0  0  0  0  0  0  0  0
  -25.9538  -11.3122   25.5703 C   0  0  0  0  0  0  0  0  0  0  0  0
  -27.6429  -27.4212   20.1058 C   0  0  0  0  0  0  0  0  0  0  0  0
  -27.0242  -11.7036   27.6254 C   0  0  0  0  0  0  0  0  0  0  0  0
  -28.7215  -13.2804   29.1795 C   0  0  0  0  0  0  0  0  0  0  0  0
  -30.4320  -20.2592   18.4316 C   0  0  0  0  0  0  0  0  0  0  0  0
  -26.5515  -12.2883   28.8002 C   0  0  0  0  0  0  0  0  0  0  0  0
  -25.2408  -12.5334   21.5830 C   0  0  0  0  0  0  0  0  0  0  0  0
  -24.3053  -13.0405   19.6588 C   0  0  0  0  0  0  0  0  0  0  0  0
  -31.4092  -24.8657   20.2091 C   0  0  0  0  0  0  0  0  0  0  0  0
  -31.5346  -22.4655   20.2271 C   0  0  0  0  0  0  0  0  0  0  0  0
  -30.1909  -24.8489   19.6518 C   0  0  0  0  0  0  0  0  0  0  0  0
  -32.0955  -23.6436   20.5148 C   0  0  0  0  0  0  0  0  0  0  0  0
  -29.5220  -23.5281   19.3600 C   0  0  0  0  0  0  0  0  0  0  0  0
  -22.6928  -12.2391   21.3926 C   0  0  0  0  0  0  0  0  0  0  0  0
  -25.4755  -32.0890   21.8316 C   0  0  0  0  0  0  0  0  0  0  0  0
  -22.6585  -30.5241   22.2030 C   0  0  0  0  0  0  0  0  0  0  0  0
  -20.9215  -27.5944   21.9878 C   0  0  0  0  0  0  0  0  0  0  0  0
  -28.7748  -16.3654   17.4969 C   0  0  0  0  0  0  0  0  0  0  0  0
  -25.4364  -37.0815   22.8950 C   0  0  0  0  0  0  0  0  0  0  0  0
  -25.2333  -30.9509   19.5951 C   0  0  0  0  0  0  0  0  0  0  0  0
  -24.7040  -29.0938   21.8346 C   0  0  0  0  0  0  0  0  0  0  0  0
  -24.7124  -35.8466   23.4253 C   0  0  0  0  0  0  0  0  0  0  0  0
  -27.8560  -13.0900   16.4457 C   0  0  0  0  0  0  0  0  0  0  0  0
  -25.7081  -34.7288   23.7183 C   0  0  0  0  0  0  0  0  0  0  0  0
  -26.9634  -12.5822   17.5803 C   0  0  0  0  0  0  0  0  0  0  0  0
  -29.0062  -13.9481   16.9697 C   0  0  0  0  0  0  0  0  0  0  0  0
  -27.7121  -14.5505   18.9775 C   0  0  0  0  0  0  0  0  0  0  0  0
  -26.4441  -34.2975   22.4439 C   0  0  1  0  0  0  0  0  0  0  0  0
  -24.5381  -31.4111   20.8727 C   0  0  1  0  0  0  0  0  0  0  0  0
  -26.5020  -13.7350   18.4935 C   0  0  2  0  0  0  0  0  0  0  0  0
  -18.6453  -26.6194   22.3949 C   0  0  0  0  0  0  0  0  0  0  0  0
  -23.1991  -30.5221   25.2060 C   0  0  0  0  0  0  0  0  0  0  0  0
  -21.4406  -28.7569   25.4508 C   0  0  0  0  0  0  0  0  0  0  0  0
  -20.8294  -31.0104   24.5729 C   0  0  0  0  0  0  0  0  0  0  0  0
  -20.6043  -26.8489   19.1413 C   0  0  0  0  0  0  0  0  0  0  0  0
  -29.4409  -26.0841   19.3087 C   0  0  0  0  0  0  0  0  0  1  0  0
  -22.1556  -29.4291   23.1125 C   0  0  1  0  0  0  0  0  0  0  0  0
  -19.5711  -27.2666   21.3766 C   0  0  2  0  0  0  0  0  0  0  0  0
  -21.9284  -29.9256   24.5683 C   0  0  0  0  0  0  0  0  0  0  0  0
  -26.2562  -12.9315   20.8120 N   0  0  0  0  0  0  0  0  0  0  0  0
  -25.6554  -13.2331   19.6482 N   0  0  0  0  0  0  0  0  0  0  0  0
  -30.2754  -22.3574   19.6381 N   0  0  0  0  0  0  0  0  0  0  0  0
  -23.9062  -30.3089   21.6007 N   0  0  0  0  0  0  0  0  0  0  0  0
  -28.4933  -15.0219   17.8233 N   0  0  0  0  0  0  0  0  0  0  0  0
  -26.8200  -19.0073   20.1774 N   0  0  0  0  0  0  0  0  0  0  0  0
  -23.5465  -13.2949   18.5716 N   0  0  0  0  0  0  0  0  0  0  0  0
  -22.5592  -11.7829   22.7111 N   0  0  0  0  0  0  0  0  0  0  0  0
  -28.2072  -17.3001   18.3623 N   0  0  0  0  0  0  0  0  0  0  0  0
  -25.5960  -33.4511   21.6324 N   0  0  0  0  0  0  0  0  0  0  0  0
  -20.9625  -28.8840   22.4740 N   0  0  0  0  0  0  0  0  0  0  0  0
  -19.7355  -26.3302   20.2290 N   0  3  0  0  0  0  0  0  0  0  0  0
  -28.3847  -23.5152   18.8856 O   0  0  0  0  0  0  0  0  0  0  0  0
  -21.6744  -12.3200   20.6648 O   0  0  0  0  0  0  0  0  0  0  0  0
  -26.0460  -31.4257   22.6896 O   0  0  0  0  0  0  0  0  0  0  0  0
  -21.9664  -31.5301   22.0277 O   0  0  0  0  0  0  0  0  0  0  0  0
  -21.8461  -26.7860   22.0329 O   0  0  0  0  0  0  0  0  0  0  0  0
  -29.4455  -16.6657   16.5060 O   0  0  0  0  0  0  0  0  0  0  0  0
  -33.3329  -23.7853   21.0939 O   0  0  0  0  0  0  0  0  0  0  0  0
  -26.1831  -10.9199   26.8532 O   0  0  0  0  0  0  0  0  0  0  0  0
  -28.4024  -26.3030   20.2627 O   0  0  0  0  0  0  0  0  0  1  0  0
  -29.5369  -14.0363   29.9264 F   0  0  0  0  0  0  0  0  0  0  0  0
  -31.5842  -20.6547   17.8717 F   0  0  0  0  0  0  0  0  0  0  0  0
  -25.2833  -12.0953   29.1881 F   0  0  0  0  0  0  0  0  0  0  0  0
  1  2  1  0  0  0  0
  1  5  2  0  0  0  0
  2  6  2  0  0  0  0
  3  8  2  0  0  0  0
  3 17  1  0  0  0  0
  4  9  1  0  0  0  0
  4 17  2  0  0  0  0
  5 19  1  0  0  0  0
  6 21  1  0  0  0  0
  7 10  2  0  0  0  0
  7 20  1  0  0  0  0
  8 26  1  0  0  0  0
  9 26  2  0  0  0  0
 10 27  1  0  0  0  0
 11 12  2  0  0  0  0
 11 28  1  0  0  0  0
 12 29  1  0  0  0  0
 13 22  1  0  0  0  0
 13 27  2  0  0  0  0
 14 23  1  0  0  0  0
 14 24  2  0  0  0  0
 15 25  2  0  0  0  0
 15 30  1  0  0  0  0
 16 29  2  0  0  0  0
 16 31  1  0  0  0  0
 17 32  1  0  0  0  0
 18 32  1  0  0  0  0
 18 33  2  0  0  0  0
 18 39  1  0  0  0  0
 19 21  2  0  0  0  0
 19 44  1  0  0  0  0
 20 22  2  0  0  0  0
 20 45  1  0  0  0  0
 21 53  1  0  0  0  0
 22 46  1  0  0  0  0
 23 30  2  0  0  0  0
 23 67  1  0  0  0  0
 24 25  1  0  0  0  0
 24 70  1  0  0  0  0
 25 73  1  0  0  0  0
 26 84  1  0  0  0  0
 27 85  1  0  0  0  0
 28 31  2  0  0  0  0
 28 84  1  0  0  0  0
 29 86  1  0  0  0  0
 30 87  1  0  0  0  0
 31 88  1  0  0  0  0
 32 65  2  0  0  0  0
 33 66  1  0  0  0  0
 33 71  1  0  0  0  0
 34 36  2  0  0  0  0
 34 37  1  0  0  0  0
 35 37  2  0  0  0  0
 35 67  1  0  0  0  0
 36 38  1  0  0  0  0
 36 61  1  0  0  0  0
 37 83  1  0  0  0  0
 38 67  1  0  0  0  0
 38 77  2  0  0  0  0
 39 72  1  0  0  0  0
 39 78  2  0  0  0  0
 40 54  1  0  0  0  0
 40 74  1  0  0  0  0
 40 79  2  0  0  0  0
 41 62  1  0  0  0  0
 41 68  1  0  0  0  0
 41 80  2  0  0  0  0
 42 63  1  0  0  0  0
 42 75  1  0  0  0  0
 42 81  2  0  0  0  0
 43 69  1  0  0  0  0
 43 73  1  0  0  0  0
 43 82  2  0  0  0  0
 44 47  1  0  0  0  0
 45 54  1  0  0  0  0
 46 68  1  0  0  0  0
 47 49  1  0  0  0  0
 48 50  1  0  0  0  0
 48 51  1  0  0  0  0
 49 53  1  0  0  0  0
 50 55  1  0  0  0  0
 51 69  1  0  0  0  0
 52 55  1  0  0  0  0
 52 69  1  0  0  0  0
 53 74  1  0  0  0  0
 54 68  1  0  0  0  0
 55 66  1  0  0  0  0
 56 63  1  0  0  0  0
 57 64  1  0  0  0  0
 58 64  1  0  0  0  0
 59 64  1  0  0  0  0
 60 76  1  0  0  0  0
 61 85  1  0  0  0  0
 62 64  1  0  0  0  0
 62 75  1  0  0  0  0
 63 76  1  0  0  0  0
 65 66  1  0  0  0  0
M  CHG  1  76   1
M  ISO  4  43 100  61 101  73 100  85 101
M  END
> <Batch ID>
0085

> <Smiles>
CNC(C)C(=O)NC(C(=O)N1Cc2cc([101O:1][101CH2:1]C3=CC(=O)CN(c4cc(N)c([100NH:0][100C:0](=O)N5CCCC(n6nc(-c7ccc(Oc8ccc(F)cc8F)cc7)c(C(N)=O)c6N)C5)cc4F)C3=O)ccc2CC1C(=O)NC1CCCc2ccccc21)C(C)(C)C

> <Shape>
0.267

> <Color>
0.082

> <Negative vol penalty>
0.000

$$$$

  -OEChem-04052300153D

 83 92  0     1  0  0  0  0  0999 V2000
  -31.7061  -34.3265   22.3121 C   0  0  0  0  0  0  0  0  0  0  0  0
  -31.4129  -33.0942   21.7367 C   0  0  0  0  0  0  0  0  0  0  0  0
  -23.4334  -18.2740   16.2350 C   0  0  0  0  0  0  0  0  0  0  0  0
  -24.6694   -9.1822   21.8871 C   0  0  0  0  0  0  0  0  0  0  0  0
  -23.1915  -10.0101   20.1645 C   0  0  0  0  0  0  0  0  0  0  0  0
  -31.0048  -34.7528   23.4392 C   0  0  0  0  0  0  0  0  0  0  0  0
  -30.4190  -32.2870   22.2889 C   0  0  0  0  0  0  0  0  0  0  0  0
  -26.5819  -28.5883   19.2719 C   0  0  0  0  0  0  0  0  0  0  0  0
  -23.5500  -19.5998   16.6524 C   0  0  0  0  0  0  0  0  0  0  0  0
  -24.2991  -17.3046   16.7414 C   0  0  0  0  0  0  0  0  0  0  0  0
  -23.5839   -8.5931   22.5354 C   0  0  0  0  0  0  0  0  0  0  0  0
  -22.1059   -9.4210   20.8127 C   0  0  0  0  0  0  0  0  0  0  0  0
  -26.5986  -27.2154   19.0298 C   0  0  0  0  0  0  0  0  0  0  0  0
  -21.6893   -5.8131   22.1963 C   0  0  0  0  0  0  0  0  0  0  0  0
  -21.8422   -4.5064   22.6597 C   0  0  0  0  0  0  0  0  0  0  0  0
  -25.1507  -26.8692   20.9279 C   0  0  0  0  0  0  0  0  0  0  0  0
  -25.3983  -18.9869   18.0826 C   0  0  0  0  0  0  0  0  0  0  0  0
  -21.4064   -5.2554   24.9150 C   0  0  0  0  0  0  0  0  0  0  0  0
  -24.4732   -9.8908   20.7017 C   0  0  0  0  0  0  0  0  0  0  0  0
  -26.4150   -9.9179   19.0476 C   0  0  0  0  0  0  0  0  0  0  0  0
  -29.9951  -33.9547   23.9997 C   0  0  0  0  0  0  0  0  0  0  0  0
  -25.8571  -29.1118   20.3521 C   0  0  0  0  0  0  0  0  0  0  0  0
  -29.7044  -32.7025   23.4254 C   0  0  0  0  0  0  0  0  0  0  0  0
  -25.1244  -28.2494   21.1800 C   0  0  0  0  0  0  0  0  0  0  0  0
  -24.5324  -19.9562   17.5762 C   0  0  0  0  0  0  0  0  0  0  0  0
  -25.2816  -17.6610   17.6652 C   0  0  0  0  0  0  0  0  0  0  0  0
  -22.3021   -8.7125   21.9982 C   0  0  0  0  0  0  0  0  0  0  0  0
  -25.8853  -26.3553   19.8596 C   0  0  0  0  0  0  0  0  0  0  0  0
  -21.3950   -6.8410   23.0921 C   0  0  0  0  0  0  0  0  0  0  0  0
  -21.7007   -4.2276   24.0191 C   0  0  0  0  0  0  0  0  0  0  0  0
  -21.2535   -6.5621   24.4515 C   0  0  0  0  0  0  0  0  0  0  0  0
  -25.5941  -10.5000   20.0320 C   0  0  0  0  0  0  0  0  0  0  0  0
  -27.3255  -10.8980   18.7363 C   0  0  0  0  0  0  0  0  0  0  0  0
  -24.8600  -23.1857   18.5014 C   0  0  0  0  0  0  0  0  0  0  0  0
  -23.9577  -22.3879   17.6702 C   0  0  0  0  0  0  0  0  0  0  0  0
  -24.9417  -24.4943   18.8027 C   0  0  0  0  0  0  0  0  0  1  0  0
  -26.3595   -8.6084   18.4664 C   0  0  0  0  0  0  0  0  0  0  0  0
  -26.6060  -30.7398   22.9775 C   0  0  0  0  0  0  0  0  0  0  0  0
  -23.3853  -30.8884   23.3340 C   0  0  0  0  0  0  0  0  0  0  0  0
  -20.3281  -29.5406   22.6384 C   0  0  0  0  0  0  0  0  0  0  0  0
  -27.1899  -16.8607   19.1019 C   0  0  0  0  0  0  0  0  0  0  0  0
  -29.2968  -34.4369   25.2465 C   0  0  0  0  0  0  0  0  0  0  0  0
  -25.8276  -30.5977   20.5838 C   0  0  0  0  0  0  0  0  0  0  0  0
  -24.3139  -28.7631   22.3409 C   0  0  0  0  0  0  0  0  0  0  0  0
  -25.6178  -21.9232   18.8428 C   0  0  0  0  0  0  0  0  0  0  0  0
  -28.0011  -33.6879   25.5473 C   0  0  0  0  0  0  0  0  0  0  0  0
  -29.5494  -14.6858   20.6445 C   0  0  0  0  0  0  0  0  0  0  0  0
  -28.2106  -32.1831   25.4115 C   0  0  0  0  0  0  0  0  0  0  0  0
  -28.8803  -13.3116   20.5675 C   0  0  0  0  0  0  0  0  0  0  0  0
  -28.5338  -15.7976   20.9016 C   0  0  0  0  0  0  0  0  0  0  0  0
  -26.7308  -14.4564   19.8919 C   0  0  0  0  0  0  0  0  0  0  0  0
  -28.6161  -31.8095   23.9806 C   0  0  1  0  0  0  0  0  0  0  0  0
  -25.4720  -30.9717   22.0194 C   0  0  1  0  0  0  0  0  0  0  0  0
  -27.7056  -13.3120   19.5696 C   0  0  2  0  0  0  0  0  0  0  0  0
  -17.8826  -29.8610   23.1011 C   0  0  0  0  0  0  0  0  0  0  0  0
  -23.7683  -29.7449   26.1368 C   0  0  0  0  0  0  0  0  0  0  0  0
  -21.3237  -29.2058   26.1754 C   0  0  0  0  0  0  0  0  0  0  0  0
  -22.0732  -31.5771   25.9802 C   0  0  0  0  0  0  0  0  0  0  0  0
  -19.7168  -29.9249   19.7683 C   0  0  0  0  0  0  0  0  0  0  0  0
  -22.3427  -30.0252   24.0025 C   0  0  1  0  0  0  0  0  0  0  0  0
  -19.0342  -30.1728   22.1581 C   0  0  2  0  0  0  0  0  0  0  0  0
  -22.3937  -30.1281   25.5531 C   0  0  0  0  0  0  0  0  0  0  0  0
  -25.9515  -11.7527   20.3267 N   0  0  0  0  0  0  0  0  0  0  0  0
  -27.0072  -11.9659   19.5228 N   0  0  0  0  0  0  0  0  0  0  0  0
  -24.6466  -21.2638   17.9878 N   0  0  0  0  0  0  0  0  0  0  0  0
  -24.3218  -30.2231   22.5301 N   0  0  0  0  0  0  0  0  0  0  0  0
  -27.4526  -15.7383   19.9155 N   0  0  0  0  0  0  0  0  0  0  0  0
  -28.3594  -10.9420   17.8694 N   0  0  0  0  0  0  0  0  0  0  0  0
  -25.3605   -7.7265   18.9007 N   0  0  0  0  0  0  0  0  0  0  0  0
  -26.1607  -16.6758   18.1793 N   0  0  0  0  0  0  0  0  0  0  0  0
  -27.4606  -31.8177   23.1093 N   0  0  0  0  0  0  0  0  0  0  0  0
  -21.0611  -30.4083   23.4201 N   0  0  0  0  0  0  0  0  0  0  0  0
  -18.6819  -29.6652   20.8020 N   0  3  0  0  0  0  0  0  0  0  0  0
  -22.9957  -22.6276   16.9706 O   0  0  0  0  0  0  0  0  0  0  0  0
  -27.1819   -8.2258   17.5999 O   0  0  0  0  0  0  0  0  0  0  0  0
  -26.6981  -29.6631   23.5555 O   0  0  0  0  0  0  0  0  0  0  0  0
  -23.3651  -32.1088   23.5126 O   0  0  0  0  0  0  0  0  0  0  0  0
  -20.6541  -28.3907   22.3519 O   0  0  0  0  0  0  0  0  0  0  0  0
  -27.8488  -17.8994   19.1967 O   0  0  0  0  0  0  0  0  0  0  0  0
  -21.2427   -8.1376   22.6303 O   0  0  0  0  0  0  0  0  0  0  0  0
  -25.9004  -25.0148   19.6260 O   0  0  0  0  0  0  0  0  0  1  0  0
  -21.8461   -2.9725   24.4639 F   0  0  0  0  0  0  0  0  0  0  0  0
  -20.9696   -7.5452   25.3168 F   0  0  0  0  0  0  0  0  0  0  0  0
  1  2  1  0  0  0  0
  1  6  2  0  0  0  0
  2  7  2  0  0  0  0
  3  9  2  0  0  0  0
  3 10  1  0  0  0  0
  4 11  2  0  0  0  0
  4 19  1  0  0  0  0
  5 12  1  0  0  0  0
  5 19  2  0  0  0  0
  6 21  1  0  0  0  0
  7 23  1  0  0  0  0
  8 13  2  0  0  0  0
  8 22  1  0  0  0  0
  9 25  1  0  0  0  0
 10 26  2  0  0  0  0
 11 27  1  0  0  0  0
 12 27  2  0  0  0  0
 13 28  1  0  0  0  0
 14 15  2  0  0  0  0
 14 29  1  0  0  0  0
 15 30  1  0  0  0  0
 16 24  1  0  0  0  0
 16 28  2  0  0  0  0
 17 25  2  0  0  0  0
 17 26  1  0  0  0  0
 18 30  2  0  0  0  0
 18 31  1  0  0  0  0
 19 32  1  0  0  0  0
 20 32  1  0  0  0  0
 20 33  2  0  0  0  0
 20 37  1  0  0  0  0
 21 23  2  0  0  0  0
 21 42  1  0  0  0  0
 22 24  2  0  0  0  0
 22 43  1  0  0  0  0
 23 52  1  0  0  0  0
 24 44  1  0  0  0  0
 25 65  1  0  0  0  0
 26 70  1  0  0  0  0
 27 80  1  0  0  0  0
 28 81  1  0  0  0  0
 29 31  2  0  0  0  0
 29 80  1  0  0  0  0
 30 82  1  0  0  0  0
 31 83  1  0  0  0  0
 32 63  2  0  0  0  0
 33 64  1  0  0  0  0
 33 68  1  0  0  0  0
 34 35  1  0  0  0  0
 34 36  2  0  0  0  0
 34 45  1  0  0  0  0
 35 65  1  0  0  0  0
 35 74  2  0  0  0  0
 36 81  1  0  0  0  0
 37 69  1  0  0  0  0
 37 75  2  0  0  0  0
 38 53  1  0  0  0  0
 38 71  1  0  0  0  0
 38 76  2  0  0  0  0
 39 60  1  0  0  0  0
 39 66  1  0  0  0  0
 39 77  2  0  0  0  0
 40 61  1  0  0  0  0
 40 72  1  0  0  0  0
 40 78  2  0  0  0  0
 41 67  1  0  0  0  0
 41 70  1  0  0  0  0
 41 79  2  0  0  0  0
 42 46  1  0  0  0  0
 43 53  1  0  0  0  0
 44 66  1  0  0  0  0
 45 65  1  0  0  0  0
 46 48  1  0  0  0  0
 47 49  1  0  0  0  0
 47 50  1  0  0  0  0
 48 52  1  0  0  0  0
 49 54  1  0  0  0  0
 50 67  1  0  0  0  0
 51 54  1  0  0  0  0
 51 67  1  0  0  0  0
 52 71  1  0  0  0  0
 53 66  1  0  0  0  0
 54 64  1  0  0  0  0
 55 61  1  0  0  0  0
 56 62  1  0  0  0  0
 57 62  1  0  0  0  0
 58 62  1  0  0  0  0
 59 73  1  0  0  0  0
 60 62  1  0  0  0  0
 60 72  1  0  0  0  0
 61 73  1  0  0  0  0
 63 64  1  0  0  0  0
M  CHG  1  73   1
M  ISO  4  36 101  41 100  70 100  81 101
M  END
> <Batch ID>
0085

> <Smiles>
CNC(C)C(=O)NC(C(=O)N1Cc2cc([101O:1][101CH:1]=C3CN(c4cccc([100NH:0][100C:0](=O)N5CCCC(n6nc(-c7ccc(Oc8ccc(F)cc8F)cc7)c(C(N)=O)c6N)C5)c4)C3=O)ccc2CC1C(=O)NC1CCCc2ccccc21)C(C)(C)C

> <Shape>
0.244

> <Color>
0.100

> <Negative vol penalty>
0.000

$$$$

  -OEChem-04052300153D

 81 89  0     1  0  0  0  0  0999 V2000
  -21.3353  -26.7750   22.3754 C   0  0  0  0  0  0  0  0  0  0  0  0
  -22.4051  -25.9206   22.6222 C   0  0  0  0  0  0  0  0  0  0  0  0
  -23.0285   -9.8705   20.1634 C   0  0  0  0  0  0  0  0  0  0  0  0
  -23.7482  -10.0924   22.4590 C   0  0  0  0  0  0  0  0  0  0  0  0
  -30.3869  -19.0297   22.5737 C   0  0  0  0  0  0  0  0  0  0  0  0
  -21.4791  -27.8271   21.4719 C   0  0  0  0  0  0  0  0  0  0  0  0
  -23.6190  -26.1171   21.9647 C   0  0  0  0  0  0  0  0  0  0  0  0
  -29.2269  -25.1038   24.2076 C   0  0  0  0  0  0  0  0  0  0  0  0
  -22.2468   -8.7701   20.5148 C   0  0  0  0  0  0  0  0  0  0  0  0
  -22.9664   -8.9919   22.8105 C   0  0  0  0  0  0  0  0  0  0  0  0
  -30.1138  -24.0371   24.0692 C   0  0  0  0  0  0  0  0  0  0  0  0
  -19.7062   -8.3493   23.4256 C   0  0  0  0  0  0  0  0  0  0  0  0
  -18.9281   -8.4508   24.5788 C   0  0  0  0  0  0  0  0  0  0  0  0
  -29.8838  -17.7715   22.2623 C   0  0  0  0  0  0  0  0  0  0  0  0
  -31.2370  -25.2101   22.2856 C   0  0  0  0  0  0  0  0  0  0  0  0
  -20.0989   -6.5660   25.5347 C   0  0  0  0  0  0  0  0  0  0  0  0
  -23.7792  -10.5317   21.1355 C   0  0  0  0  0  0  0  0  0  0  0  0
  -31.6685  -19.3807   22.1643 C   0  0  0  0  0  0  0  0  0  0  0  0
  -24.1973  -13.0208   20.7648 C   0  0  0  0  0  0  0  0  0  0  0  0
  -22.6983  -28.0425   20.8103 C   0  0  0  0  0  0  0  0  0  0  0  0
  -29.3318  -26.2290   23.3773 C   0  0  0  0  0  0  0  0  0  0  0  0
  -23.7788  -27.1723   21.0505 C   0  0  0  0  0  0  0  0  0  0  0  0
  -30.3518  -26.2909   22.4171 C   0  0  0  0  0  0  0  0  0  0  0  0
  -22.2157   -8.3308   21.8383 C   0  0  0  0  0  0  0  0  0  0  0  0
  -31.1173  -24.0889   23.1062 C   0  0  0  0  0  0  0  0  0  0  0  0
  -20.6806   -7.3561   23.3269 C   0  0  0  0  0  0  0  0  0  0  0  0
  -19.1245   -7.5592   25.6333 C   0  0  0  0  0  0  0  0  0  0  0  0
  -20.8770   -6.4645   24.3814 C   0  0  0  0  0  0  0  0  0  0  0  0
  -24.5874  -11.6682   20.7730 C   0  0  0  0  0  0  0  0  0  0  0  0
  -30.6958  -16.9076   21.5452 C   0  0  0  0  0  0  0  0  0  0  0  0
  -32.4007  -18.4447   21.4518 C   0  0  0  0  0  0  0  0  0  0  0  0
  -25.3172  -13.6986   20.3491 C   0  0  0  0  0  0  0  0  0  0  0  0
  -32.2042  -20.7128   22.4917 C   0  0  0  0  0  0  0  0  0  0  0  0
  -31.4711  -21.8209   22.6568 C   0  0  0  0  0  0  0  0  0  1  0  0
  -22.9354  -13.6116   21.1028 C   0  0  0  0  0  0  0  0  0  0  0  0
  -27.4426  -27.6160   21.2300 C   0  0  0  0  0  0  0  0  0  0  0  0
  -29.7701  -29.8754   21.2165 C   0  0  0  0  0  0  0  0  0  0  0  0
  -33.0376  -30.6724   21.7952 C   0  0  0  0  0  0  0  0  0  0  0  0
  -30.8079  -14.6060   20.5271 C   0  0  0  0  0  0  0  0  0  0  0  0
  -22.7914  -29.1645   19.8068 C   0  0  0  0  0  0  0  0  0  0  0  0
  -28.3838  -27.3828   23.5572 C   0  0  0  0  0  0  0  0  0  0  0  0
  -30.5197  -27.4849   21.5145 C   0  0  0  0  0  0  0  0  0  0  0  0
  -24.2256  -29.5300   19.4330 C   0  0  0  0  0  0  0  0  0  0  0  0
  -29.6644  -11.9930   18.3960 C   0  0  0  0  0  0  0  0  0  0  0  0
  -25.0378  -28.2725   19.1400 C   0  0  0  0  0  0  0  0  0  0  0  0
  -28.2095  -11.7868   18.8237 C   0  0  0  0  0  0  0  0  0  0  0  0
  -30.5647  -12.3189   19.5863 C   0  0  0  0  0  0  0  0  0  0  0  0
  -28.6561  -13.2337   20.8471 C   0  0  0  0  0  0  0  0  0  0  0  0
  -25.1190  -27.3679   20.3755 C   0  0  1  0  0  0  0  0  0  0  0  0
  -28.2638  -28.2571   22.3127 C   0  0  1  0  0  0  0  0  0  0  0  0
  -27.6993  -12.9671   19.6737 C   0  0  2  0  0  0  0  0  0  0  0  0
  -34.6523  -32.5884   21.6566 C   0  0  0  0  0  0  0  0  0  0  0  0
  -29.9053  -29.5392   18.1869 C   0  0  0  0  0  0  0  0  0  0  0  0
  -32.1116  -30.7219   18.2240 C   0  0  0  0  0  0  0  0  0  0  0  0
  -30.0508  -31.9061   18.9814 C   0  0  0  0  0  0  0  0  0  0  0  0
  -33.5673  -30.5880   24.7058 C   0  0  0  0  0  0  0  0  0  0  0  0
  -34.3560  -17.7319   20.3010 C   0  0  0  0  0  0  0  0  0  0  0  0
  -31.0443  -30.0931   20.4368 C   0  0  1  0  0  0  0  0  0  0  0  0
  -33.6750  -31.8304   22.5416 C   0  0  2  0  0  0  0  0  0  0  0  0
  -30.7739  -30.5416   18.9728 C   0  0  0  0  0  0  0  0  0  0  0  0
  -25.8560  -11.4951   20.3926 N   0  0  0  0  0  0  0  0  0  0  0  0
  -31.9457  -17.2129   21.1304 N   0  0  0  0  0  0  0  0  0  0  0  0
  -26.2727  -12.7478   20.1413 N   0  0  0  0  0  0  0  0  0  0  0  0
  -29.5642  -28.5851   21.7248 N   0  0  0  0  0  0  0  0  0  0  0  0
  -30.0211  -13.4495   20.3421 N   0  0  0  0  0  0  0  0  0  0  0  0
  -25.5679  -15.0092   20.1446 N   0  0  0  0  0  0  0  0  0  0  0  0
  -21.8914  -12.7701   21.5107 N   0  0  0  0  0  0  0  0  0  0  0  0
  -30.1738  -15.6277   21.2333 N   0  0  0  0  0  0  0  0  0  0  0  0
  -26.0898  -27.8838   21.3168 N   0  0  0  0  0  0  0  0  0  0  0  0
  -31.8418  -31.0363   21.2131 N   0  0  0  0  0  0  0  0  0  0  0  0
  -34.4124  -31.3329   23.7373 N   0  3  0  0  0  0  0  0  0  0  0  0
  -22.7345  -14.8476   21.0292 O   0  0  0  0  0  0  0  0  0  0  0  0
  -27.9956  -26.9305   20.3780 O   0  0  0  0  0  0  0  0  0  0  0  0
  -28.9897  -30.8175   21.3751 O   0  0  0  0  0  0  0  0  0  0  0  0
  -33.5511  -29.5576   21.7316 O   0  0  0  0  0  0  0  0  0  0  0  0
  -31.9494  -14.6947   20.0678 O   0  0  0  0  0  0  0  0  0  0  0  0
  -21.4528   -7.2571   22.1816 O   0  0  0  0  0  0  0  0  0  0  0  0
  -31.9839  -23.0487   22.9686 O   0  0  0  0  0  0  0  0  0  1  0  0
  -33.6692  -18.7445   21.0260 O   0  0  0  0  0  0  0  0  0  0  0  0
  -18.3783   -7.6577   26.7413 F   0  0  0  0  0  0  0  0  0  0  0  0
  -21.8124   -5.5090   24.2929 F   0  0  0  0  0  0  0  0  0  0  0  0
  1  2  1  0  0  0  0
  1  6  2  0  0  0  0
  2  7  2  0  0  0  0
  3  9  2  0  0  0  0
  3 17  1  0  0  0  0
  4 10  1  0  0  0  0
  4 17  2  0  0  0  0
  5 14  2  0  0  0  0
  5 18  1  0  0  0  0
  6 20  1  0  0  0  0
  7 22  1  0  0  0  0
  8 11  2  0  0  0  0
  8 21  1  0  0  0  0
  9 24  1  0  0  0  0
 10 24  2  0  0  0  0
 11 25  1  0  0  0  0
 12 13  2  0  0  0  0
 12 26  1  0  0  0  0
 13 27  1  0  0  0  0
 14 30  1  0  0  0  0
 15 23  1  0  0  0  0
 15 25  2  0  0  0  0
 16 27  2  0  0  0  0
 16 28  1  0  0  0  0
 17 29  1  0  0  0  0
 18 31  2  0  0  0  0
 18 33  1  0  0  0  0
 19 29  1  0  0  0  0
 19 32  2  0  0  0  0
 19 35  1  0  0  0  0
 20 22  2  0  0  0  0
 20 40  1  0  0  0  0
 21 23  2  0  0  0  0
 21 41  1  0  0  0  0
 22 49  1  0  0  0  0
 23 42  1  0  0  0  0
 24 77  1  0  0  0  0
 25 78  1  0  0  0  0
 26 28  2  0  0  0  0
 26 77  1  0  0  0  0
 27 80  1  0  0  0  0
 28 81  1  0  0  0  0
 29 61  2  0  0  0  0
 30 62  2  0  0  0  0
 30 68  1  0  0  0  0
 31 62  1  0  0  0  0
 31 79  1  0  0  0  0
 32 63  1  0  0  0  0
 32 66  1  0  0  0  0
 33 34  2  0  0  0  0
 34 78  1  0  0  0  0
 35 67  1  0  0  0  0
 35 72  2  0  0  0  0
 36 50  1  0  0  0  0
 36 69  1  0  0  0  0
 36 73  2  0  0  0  0
 37 58  1  0  0  0  0
 37 64  1  0  0  0  0
 37 74  2  0  0  0  0
 38 59  1  0  0  0  0
 38 70  1  0  0  0  0
 38 75  2  0  0  0  0
 39 65  1  0  0  0  0
 39 68  1  0  0  0  0
 39 76  2  0  0  0  0
 40 43  1  0  0  0  0
 41 50  1  0  0  0  0
 42 64  1  0  0  0  0
 43 45  1  0  0  0  0
 44 46  1  0  0  0  0
 44 47  1  0  0  0  0
 45 49  1  0  0  0  0
 46 51  1  0  0  0  0
 47 65  1  0  0  0  0
 48 51  1  0  0  0  0
 48 65  1  0  0  0  0
 49 69  1  0  0  0  0
 50 64  1  0  0  0  0
 51 63  1  0  0  0  0
 52 59  1  0  0  0  0
 53 60  1  0  0  0  0
 54 60  1  0  0  0  0
 55 60  1  0  0  0  0
 56 71  1  0  0  0  0
 57 79  1  0  0  0  0
 58 60  1  0  0  0  0
 58 70  1  0  0  0  0
 59 71  1  0  0  0  0
 61 63  1  0  0  0  0
M  CHG  1  71   1
M  ISO  4  34 101  39 100  68 100  78 101
M  END
> <Batch ID>
0085

> <Smiles>
CNC(C)C(=O)NC(C(=O)N1Cc2cc([101O:1][101CH:1]=Cc3ccc([100NH:0][100C:0](=O)N4CCCC(n5nc(-c6ccc(Oc7ccc(F)cc7F)cc6)c(C(N)=O)c5N)C4)nc3OC)ccc2CC1C(=O)NC1CCCc2ccccc21)C(C)(C)C

> <Shape>
0.243

> <Color>
0.196

> <Negative vol penalty>
0.000

$$$$

  -OEChem-04052300153D

 86 95  0     1  0  0  0  0  0999 V2000
  -22.5124  -10.9802   19.4613 C   0  0  0  0  0  0  0  0  0  0  0  0
  -21.9367  -12.2089   19.7687 C   0  0  0  0  0  0  0  0  0  0  0  0
  -18.0049  -28.2300   22.4148 C   0  0  0  0  0  0  0  0  0  0  0  0
  -29.9945  -27.6934   21.1002 C   0  0  0  0  0  0  0  0  0  0  0  0
  -28.5081  -25.7955   21.2609 C   0  0  0  0  0  0  0  0  0  0  0  0
  -23.8668  -10.7642   19.7115 C   0  0  0  0  0  0  0  0  0  0  0  0
  -22.7151  -13.2219   20.3276 C   0  0  0  0  0  0  0  0  0  0  0  0
  -22.1660  -19.2444   19.3613 C   0  0  0  0  0  0  0  0  0  0  0  0
  -17.9748  -26.9025   22.8417 C   0  0  0  0  0  0  0  0  0  0  0  0
  -19.2277  -28.8732   22.2224 C   0  0  0  0  0  0  0  0  0  0  0  0
  -30.9953  -26.9640   21.7418 C   0  0  0  0  0  0  0  0  0  0  0  0
  -29.5091  -25.0660   21.9025 C   0  0  0  0  0  0  0  0  0  0  0  0
  -21.5506  -20.2595   20.0925 C   0  0  0  0  0  0  0  0  0  0  0  0
  -30.8398  -24.8557   25.0035 C   0  0  0  0  0  0  0  0  0  0  0  0
  -30.4826  -24.1209   26.1340 C   0  0  0  0  0  0  0  0  0  0  0  0
  -23.6686  -20.8004   21.1126 C   0  0  0  0  0  0  0  0  0  0  0  0
  -31.1948  -22.0888   25.0382 C   0  0  0  0  0  0  0  0  0  0  0  0
  -28.7508  -27.1092   20.8598 C   0  0  0  0  0  0  0  0  0  0  0  0
  -27.4722  -27.9361   18.8130 C   0  0  0  0  0  0  0  0  0  0  0  0
  -24.6644  -11.7783   20.2648 C   0  0  0  0  0  0  0  0  0  0  0  0
  -23.5376  -18.9922   19.5086 C   0  0  0  0  0  0  0  0  0  0  0  0
  -24.0812  -13.0188   20.5867 C   0  0  0  0  0  0  0  0  0  0  0  0
  -24.2995  -19.7833   20.3801 C   0  0  0  0  0  0  0  0  0  0  0  0
  -19.1673  -26.2180   23.0762 C   0  0  0  0  0  0  0  0  0  0  0  0
  -20.4202  -28.1888   22.4569 C   0  0  0  0  0  0  0  0  0  0  0  0
  -30.7527  -25.6503   22.1430 C   0  0  0  0  0  0  0  0  0  0  0  0
  -22.3014  -21.0358   20.9705 C   0  0  0  0  0  0  0  0  0  0  0  0
  -31.3744  -24.2071   23.8902 C   0  0  0  0  0  0  0  0  0  0  0  0
  -30.6602  -22.7375   26.1514 C   0  0  0  0  0  0  0  0  0  0  0  0
  -31.5519  -22.8237   23.9076 C   0  0  0  0  0  0  0  0  0  0  0  0
  -20.3901  -26.8612   22.8838 C   0  0  0  0  0  0  0  0  0  0  0  0
  -27.7163  -27.8624   20.1975 C   0  0  0  0  0  0  0  0  0  0  0  0
  -26.3894  -28.7734   18.6993 C   0  0  0  0  0  0  0  0  0  0  0  0
  -17.9694  -23.0664   24.6532 C   0  0  0  0  0  0  0  0  0  0  0  0
  -18.1046  -24.3410   24.2758 C   0  0  0  0  0  0  0  0  0  0  0  0
  -18.9473  -22.0642   24.1775 C   0  0  0  0  0  0  0  0  0  0  0  0
  -20.0314  -22.5763   23.2909 C   0  0  0  0  0  0  0  0  0  0  0  0
  -20.6908  -21.6841   22.5378 C   0  0  0  0  0  0  0  0  0  1  0  0
  -28.1625  -27.3041   17.7268 C   0  0  0  0  0  0  0  0  0  0  0  0
  -25.2697  -16.5162   20.4948 C   0  0  0  0  0  0  0  0  0  0  0  0
  -27.7532  -18.3713   19.5391 C   0  0  0  0  0  0  0  0  0  0  0  0
  -28.9513  -21.5011   18.8941 C   0  0  0  0  0  0  0  0  0  0  0  0
  -21.9293  -30.2054   22.4090 C   0  0  0  0  0  0  0  0  0  0  0  0
  -26.1132  -11.4821   20.5612 C   0  0  0  0  0  0  0  0  0  0  0  0
  -24.1916  -17.9111   18.6926 C   0  0  0  0  0  0  0  0  0  0  0  0
  -25.7792  -19.5662   20.5594 C   0  0  0  0  0  0  0  0  0  0  0  0
  -20.3370  -24.0515   23.2598 C   0  0  0  0  0  0  0  0  0  0  0  0
  -26.9525  -12.7331   20.8083 C   0  0  0  0  0  0  0  0  0  0  0  0
  -24.2491  -32.4474   20.9026 C   0  0  0  0  0  0  0  0  0  0  0  0
  -26.2318  -13.6794   21.7633 C   0  0  0  0  0  0  0  0  0  0  0  0
  -25.3764  -31.5321   20.4195 C   0  0  0  0  0  0  0  0  0  0  0  0
  -23.6654  -31.9746   22.2329 C   0  0  0  0  0  0  0  0  0  0  0  0
  -24.3605  -29.6560   21.7742 C   0  0  0  0  0  0  0  0  0  0  0  0
  -24.8982  -14.1507   21.1710 C   0  0  1  0  0  0  0  0  0  0  0  0
  -25.4943  -17.4058   19.3049 C   0  0  1  0  0  0  0  0  0  0  0  0
  -24.9363  -30.0550   20.4057 C   0  0  2  0  0  0  0  0  0  0  0  0
  -31.0298  -22.7030   18.1645 C   0  0  0  0  0  0  0  0  0  0  0  0
  -28.9516  -17.9806   22.3178 C   0  0  0  0  0  0  0  0  0  0  0  0
  -30.4732  -19.9147   21.8573 C   0  0  0  0  0  0  0  0  0  0  0  0
  -30.6032  -17.8636   20.4435 C   0  0  0  0  0  0  0  0  0  0  0  0
  -27.6185  -22.5841   16.4838 C   0  0  0  0  0  0  0  0  0  0  0  0
  -28.6226  -19.4156   20.1968 C   0  0  1  0  0  0  0  0  0  0  0  0
  -29.7274  -22.0593   17.7149 C   0  0  2  0  0  0  0  0  0  0  0  0
  -29.6344  -18.7967   21.2021 C   0  0  0  0  0  0  0  0  0  0  0  0
  -26.8577  -28.5947   20.9121 N   0  0  0  0  0  0  0  0  0  0  0  0
  -26.0637  -29.1364   19.9730 N   0  0  0  0  0  0  0  0  0  0  0  0
  -19.1334  -24.8644   23.5109 N   0  0  0  0  0  0  0  0  0  0  0  0
  -26.3715  -18.4929   19.7440 N   0  0  0  0  0  0  0  0  0  0  0  0
  -23.2667  -30.5682   22.1433 N   0  0  0  0  0  0  0  0  0  0  0  0
  -25.6937  -29.2271   17.6351 N   0  0  0  0  0  0  0  0  0  0  0  0
  -29.2539  -26.4753   18.0207 N   0  0  0  0  0  0  0  0  0  0  0  0
  -21.6606  -28.8451   22.2606 N   0  0  0  0  0  0  0  0  0  0  0  0
  -25.1216  -15.1794   20.1779 N   0  0  0  0  0  0  0  0  0  0  0  0
  -29.2427  -20.1714   19.1139 N   0  0  0  0  0  0  0  0  0  0  0  0
  -28.9173  -23.0865   17.0011 N   0  3  0  0  0  0  0  0  0  0  0  0
  -18.8388  -20.8871   24.5021 O   0  0  0  0  0  0  0  0  0  0  0  0
  -27.8319  -27.4825   16.5300 O   0  0  0  0  0  0  0  0  0  0  0  0
  -25.2349  -17.0062   21.6175 O   0  0  0  0  0  0  0  0  0  0  0  0
  -28.2800  -17.4847   18.8624 O   0  0  0  0  0  0  0  0  0  0  0  0
  -28.1678  -22.1779   19.5563 O   0  0  0  0  0  0  0  0  0  0  0  0
  -21.0784  -31.0438   22.7170 O   0  0  0  0  0  0  0  0  0  0  0  0
  -31.7292  -24.9381   22.7689 O   0  0  0  0  0  0  0  0  0  0  0  0
  -21.7031  -22.0267   21.6860 O   0  0  0  0  0  0  0  0  0  1  0  0
  -30.3186  -22.0321   27.2377 F   0  0  0  0  0  0  0  0  0  0  0  0
  -32.0661  -22.1951   22.8416 F   0  0  0  0  0  0  0  0  0  0  0  0
  -21.5371  -26.2022   23.1093 F   0  0  0  0  0  0  0  0  0  0  0  0
  1  2  1  0  0  0  0
  1  6  2  0  0  0  0
  2  7  2  0  0  0  0
  3  9  2  0  0  0  0
  3 10  1  0  0  0  0
  4 11  2  0  0  0  0
  4 18  1  0  0  0  0
  5 12  1  0  0  0  0
  5 18  2  0  0  0  0
  6 20  1  0  0  0  0
  7 22  1  0  0  0  0
  8 13  2  0  0  0  0
  8 21  1  0  0  0  0
  9 24  1  0  0  0  0
 10 25  2  0  0  0  0
 11 26  1  0  0  0  0
 12 26  2  0  0  0  0
 13 27  1  0  0  0  0
 14 15  2  0  0  0  0
 14 28  1  0  0  0  0
 15 29  1  0  0  0  0
 16 23  1  0  0  0  0
 16 27  2  0  0  0  0
 17 29  2  0  0  0  0
 17 30  1  0  0  0  0
 18 32  1  0  0  0  0
 19 32  1  0  0  0  0
 19 33  2  0  0  0  0
 19 39  1  0  0  0  0
 20 22  2  0  0  0  0
 20 44  1  0  0  0  0
 21 23  2  0  0  0  0
 21 45  1  0  0  0  0
 22 54  1  0  0  0  0
 23 46  1  0  0  0  0
 24 31  2  0  0  0  0
 24 67  1  0  0  0  0
 25 31  1  0  0  0  0
 25 72  1  0  0  0  0
 26 82  1  0  0  0  0
 27 83  1  0  0  0  0
 28 30  2  0  0  0  0
 28 82  1  0  0  0  0
 29 84  1  0  0  0  0
 30 85  1  0  0  0  0
 31 86  1  0  0  0  0
 32 65  2  0  0  0  0
 33 66  1  0  0  0  0
 33 70  1  0  0  0  0
 34 35  2  0  0  0  0
 34 36  1  0  0  0  0
 35 67  1  0  0  0  0
 36 37  1  0  0  0  0
 36 76  2  0  0  0  0
 37 38  2  0  0  0  0
 37 47  1  0  0  0  0
 38 83  1  0  0  0  0
 39 71  1  0  0  0  0
 39 77  2  0  0  0  0
 40 55  1  0  0  0  0
 40 73  1  0  0  0  0
 40 78  2  0  0  0  0
 41 62  1  0  0  0  0
 41 68  1  0  0  0  0
 41 79  2  0  0  0  0
 42 63  1  0  0  0  0
 42 74  1  0  0  0  0
 42 80  2  0  0  0  0
 43 69  1  0  0  0  0
 43 72  1  0  0  0  0
 43 81  2  0  0  0  0
 44 48  1  0  0  0  0
 45 55  1  0  0  0  0
 46 68  1  0  0  0  0
 47 67  1  0  0  0  0
 48 50  1  0  0  0  0
 49 51  1  0  0  0  0
 49 52  1  0  0  0  0
 50 54  1  0  0  0  0
 51 56  1  0  0  0  0
 52 69  1  0  0  0  0
 53 56  1  0  0  0  0
 53 69  1  0  0  0  0
 54 73  1  0  0  0  0
 55 68  1  0  0  0  0
 56 66  1  0  0  0  0
 57 63  1  0  0  0  0
 58 64  1  0  0  0  0
 59 64  1  0  0  0  0
 60 64  1  0  0  0  0
 61 75  1  0  0  0  0
 62 64  1  0  0  0  0
 62 74  1  0  0  0  0
 63 75  1  0  0  0  0
 65 66  1  0  0  0  0
M  CHG  1  75   1
M  ISO  4  38 101  43 100  72 100  83 101
M  END
> <Batch ID>
0085

> <Smiles>
CNC(C)C(=O)NC(C(=O)N1Cc2cc([101O:1][101CH:1]=C3CN(c4cccc([100NH:0][100C:0](=O)N5CCCC(n6nc(-c7ccc(Oc8ccc(F)cc8F)cc7)c(C(N)=O)c6N)C5)c4F)C=CC3=O)ccc2CC1C(=O)NC1CCCc2ccccc21)C(C)(C)C

> <Shape>
0.240

> <Color>
0.084

> <Negative vol penalty>
0.000

$$$$

  -OEChem-04052300153D

 85 94  0     1  0  0  0  0  0999 V2000
  -26.4531  -38.4092   26.2789 C   0  0  0  0  0  0  0  0  0  0  0  0
  -25.2260  -37.7776   26.4543 C   0  0  0  0  0  0  0  0  0  0  0  0
  -24.4689   -9.1197   21.5595 C   0  0  0  0  0  0  0  0  0  0  0  0
  -22.6897  -10.0027   20.1841 C   0  0  0  0  0  0  0  0  0  0  0  0
  -20.7638  -20.8634   22.5327 C   0  0  0  0  0  0  0  0  0  0  0  0
  -22.4162  -22.0501   23.8360 C   0  0  0  0  0  0  0  0  0  0  0  0
  -27.3321  -37.9607   25.2939 C   0  0  0  0  0  0  0  0  0  0  0  0
  -24.8767  -36.6978   25.6440 C   0  0  0  0  0  0  0  0  0  0  0  0
  -21.2076  -30.5476   25.8139 C   0  0  0  0  0  0  0  0  0  0  0  0
  -21.5883  -19.7386   22.5116 C   0  0  0  0  0  0  0  0  0  0  0  0
  -23.2406  -20.9252   23.8150 C   0  0  0  0  0  0  0  0  0  0  0  0
  -23.7186   -7.9667   21.7900 C   0  0  0  0  0  0  0  0  0  0  0  0
  -21.9394   -8.8496   20.4145 C   0  0  0  0  0  0  0  0  0  0  0  0
  -20.2068  -29.8709   25.1179 C   0  0  0  0  0  0  0  0  0  0  0  0
  -21.1307   -7.0302   23.7521 C   0  0  0  0  0  0  0  0  0  0  0  0
  -21.0667   -6.5502   25.0602 C   0  0  0  0  0  0  0  0  0  0  0  0
  -21.8383  -29.1328   23.5016 C   0  0  0  0  0  0  0  0  0  0  0  0
  -22.0572   -4.4663   24.3440 C   0  0  0  0  0  0  0  0  0  0  0  0
  -23.9545  -10.1378   20.7566 C   0  0  0  0  0  0  0  0  0  0  0  0
  -21.1778  -22.0193   23.1948 C   0  0  0  0  0  0  0  0  0  0  0  0
  -25.6464  -11.5526   19.4746 C   0  0  0  0  0  0  0  0  0  0  0  0
  -26.9976  -36.8687   24.4776 C   0  0  0  0  0  0  0  0  0  0  0  0
  -22.5316  -30.5310   25.3521 C   0  0  0  0  0  0  0  0  0  0  0  0
  -25.7516  -36.2351   24.6464 C   0  0  0  0  0  0  0  0  0  0  0  0
  -22.8545  -29.8079   24.1949 C   0  0  0  0  0  0  0  0  0  0  0  0
  -22.8267  -19.7694   23.1528 C   0  0  0  0  0  0  0  0  0  0  0  0
  -22.4539   -7.8316   21.2175 C   0  0  0  0  0  0  0  0  0  0  0  0
  -20.5216  -29.1657   23.9600 C   0  0  0  0  0  0  0  0  0  0  0  0
  -21.6579   -6.2282   22.7399 C   0  0  0  0  0  0  0  0  0  0  0  0
  -21.5300   -5.2683   25.3562 C   0  0  0  0  0  0  0  0  0  0  0  0
  -22.1212   -4.9463   23.0359 C   0  0  0  0  0  0  0  0  0  0  0  0
  -24.7288  -11.3294   20.5187 C   0  0  0  0  0  0  0  0  0  0  0  0
  -26.1100  -12.8271   19.6916 C   0  0  0  0  0  0  0  0  0  0  0  0
  -19.4514  -23.4810   22.2087 C   0  0  0  0  0  0  0  0  0  0  0  0
  -20.3015  -23.2154   23.2186 C   0  0  0  0  0  0  0  0  0  0  0  0
  -26.0440  -10.6853   18.4043 C   0  0  0  0  0  0  0  0  0  0  0  0
  -24.5872  -32.7406   24.3543 C   0  0  0  0  0  0  0  0  0  0  0  0
  -26.6530  -30.2401   24.3094 C   0  0  0  0  0  0  0  0  0  0  0  0
  -27.1120  -26.8646   24.1039 C   0  0  0  0  0  0  0  0  0  0  0  0
  -23.4124  -17.3927   22.5260 C   0  0  0  0  0  0  0  0  0  0  0  0
  -27.9604  -36.4499   23.3949 C   0  0  0  0  0  0  0  0  0  0  0  0
  -23.6042  -31.2439   26.1290 C   0  0  0  0  0  0  0  0  0  0  0  0
  -24.2641  -29.7420   23.6686 C   0  0  0  0  0  0  0  0  0  0  0  0
  -18.5649  -24.6879   22.1880 C   0  0  0  0  0  0  0  0  0  0  0  0
  -20.4021  -24.1440   24.4088 C   0  0  0  0  0  0  0  0  0  0  0  0
  -27.6728  -35.0622   22.8275 C   0  0  0  0  0  0  0  0  0  0  0  0
  -26.4895  -15.4488   23.7410 C   0  0  0  0  0  0  0  0  0  0  0  0
  -26.1854  -34.9061   22.5271 C   0  0  0  0  0  0  0  0  0  0  0  0
  -26.7901  -14.6377   22.4827 C   0  0  0  0  0  0  0  0  0  0  0  0
  -25.6942  -16.7122   23.4374 C   0  0  0  0  0  0  0  0  0  0  0  0
  -24.3061  -15.1089   22.1113 C   0  0  0  0  0  0  0  0  0  0  0  0
  -19.1959  -25.0700   24.5672 C   0  0  0  0  0  0  0  0  0  0  0  0
  -25.3472  -35.0450   23.8037 C   0  0  1  0  0  0  0  0  0  0  0  0
  -24.8276  -31.5848   25.2838 C   0  0  1  0  0  0  0  0  0  0  0  0
  -25.6205  -14.6259   21.4786 C   0  0  2  0  0  0  0  0  0  0  0  0
  -28.9164  -25.1213   24.0559 C   0  0  0  0  0  0  0  0  0  0  0  0
  -27.2770  -30.9692   21.4131 C   0  0  0  0  0  0  0  0  0  0  0  0
  -28.3093  -28.7049   21.1386 C   0  0  0  0  0  0  0  0  0  0  0  0
  -29.2697  -30.3211   22.7782 C   0  0  0  0  0  0  0  0  0  0  0  0
  -26.1024  -25.5851   26.5743 C   0  0  0  0  0  0  0  0  0  0  0  0
  -17.8589  -26.7931   23.3425 C   0  0  0  0  0  0  0  0  0  0  0  0
  -18.4480  -28.0039   24.0390 C   0  0  0  0  0  0  0  0  0  1  0  0
  -27.0582  -29.2063   23.2866 C   0  0  1  0  0  0  0  0  0  0  0  0
  -27.9549  -25.9105   24.9307 C   0  0  2  0  0  0  0  0  0  0  0  0
  -27.9515  -29.8030   22.1627 C   0  0  0  0  0  0  0  0  0  0  0  0
  -24.6151  -12.3780   21.3382 N   0  0  0  0  0  0  0  0  0  0  0  0
  -25.4673  -13.2724   20.8091 N   0  0  0  0  0  0  0  0  0  0  0  0
  -25.2765  -30.4606   24.4599 N   0  0  0  0  0  0  0  0  0  0  0  0
  -24.4562  -16.4494   22.6894 N   0  0  0  0  0  0  0  0  0  0  0  0
  -27.0008  -13.5991   19.0336 N   0  0  0  0  0  0  0  0  0  0  0  0
  -25.4693   -9.4092   18.3298 N   0  0  0  0  0  0  0  0  0  0  0  0
  -23.6638  -18.6259   23.1333 N   0  0  0  0  0  0  0  0  0  0  0  0
  -25.4089  -33.8276   24.5838 N   0  0  0  0  0  0  0  0  0  0  0  0
  -27.6821  -28.1180   24.0314 N   0  0  0  0  0  0  0  0  0  0  0  0
  -18.9062  -25.7221   23.2399 N   0  3  2  0  0  0  0  0  0  0  0  0
  -27.0823  -24.9462   25.6585 N   0  3  0  0  0  0  0  0  0  0  0  0
  -26.8961  -11.0258   17.5491 O   0  0  0  0  0  0  0  0  0  0  0  0
  -23.7212  -32.6522   23.4917 O   0  0  0  0  0  0  0  0  0  0  0  0
  -27.5253  -30.8251   24.9563 O   0  0  0  0  0  0  0  0  0  0  0  0
  -26.0555  -26.5304   23.5723 O   0  0  0  0  0  0  0  0  0  0  0  0
  -22.3914  -17.1254   21.8887 O   0  0  0  0  0  0  0  0  0  0  0  0
  -21.7215   -6.7065   21.4419 O   0  0  0  0  0  0  0  0  0  0  0  0
  -19.5466  -28.5049   23.2785 O   0  0  0  0  0  0  0  0  0  1  0  0
  -21.4699   -4.8080   26.6126 F   0  0  0  0  0  0  0  0  0  0  0  0
  -22.6298   -4.1716   22.0679 F   0  0  0  0  0  0  0  0  0  0  0  0
  1  2  1  0  0  0  0
  1  7  2  0  0  0  0
  2  8  2  0  0  0  0
  3 12  2  0  0  0  0
  3 19  1  0  0  0  0
  4 13  1  0  0  0  0
  4 19  2  0  0  0  0
  5 10  2  0  0  0  0
  5 20  1  0  0  0  0
  6 11  1  0  0  0  0
  6 20  2  0  0  0  0
  7 22  1  0  0  0  0
  8 24  1  0  0  0  0
  9 14  2  0  0  0  0
  9 23  1  0  0  0  0
 10 26  1  0  0  0  0
 11 26  2  0  0  0  0
 12 27  1  0  0  0  0
 13 27  2  0  0  0  0
 14 28  1  0  0  0  0
 15 16  2  0  0  0  0
 15 29  1  0  0  0  0
 16 30  1  0  0  0  0
 17 25  1  0  0  0  0
 17 28  2  0  0  0  0
 18 30  2  0  0  0  0
 18 31  1  0  0  0  0
 19 32  1  0  0  0  0
 20 35  1  0  0  0  0
 21 32  1  0  0  0  0
 21 33  2  0  0  0  0
 21 36  1  0  0  0  0
 22 24  2  0  0  0  0
 22 41  1  0  0  0  0
 23 25  2  0  0  0  0
 23 42  1  0  0  0  0
 24 53  1  0  0  0  0
 25 43  1  0  0  0  0
 26 72  1  0  0  0  0
 27 82  1  0  0  0  0
 28 83  1  0  0  0  0
 29 31  2  0  0  0  0
 29 82  1  0  0  0  0
 30 84  1  0  0  0  0
 31 85  1  0  0  0  0
 32 66  2  0  0  0  0
 33 67  1  0  0  0  0
 33 70  1  0  0  0  0
 34 35  2  0  0  0  0
 34 44  1  0  0  0  0
 35 45  1  0  0  0  0
 36 71  1  0  0  0  0
 36 77  2  0  0  0  0
 37 54  1  0  0  0  0
 37 73  1  0  0  0  0
 37 78  2  0  0  0  0
 38 63  1  0  0  0  0
 38 68  1  0  0  0  0
 38 79  2  0  0  0  0
 39 64  1  0  0  0  0
 39 74  1  0  0  0  0
 39 80  2  0  0  0  0
 40 69  1  0  0  0  0
 40 72  1  0  0  0  0
 40 81  2  0  0  0  0
 41 46  1  0  0  0  0
 42 54  1  0  0  0  0
 43 68  1  0  0  0  0
 44 75  1  0  0  0  0
 45 52  1  0  0  0  0
 46 48  1  0  0  0  0
 47 49  1  0  0  0  0
 47 50  1  0  0  0  0
 48 53  1  0  0  0  0
 49 55  1  0  0  0  0
 50 69  1  0  0  0  0
 51 55  1  0  0  0  0
 51 69  1  0  0  0  0
 52 75  1  0  0  0  0
 53 73  1  0  0  0  0
 54 68  1  0  0  0  0
 55 67  1  0  0  0  0
 56 64  1  0  0  0  0
 57 65  1  0  0  0  0
 58 65  1  0  0  0  0
 59 65  1  0  0  0  0
 60 76  1  0  0  0  0
 61 62  1  0  0  0  0
 61 75  1  0  0  0  0
 62 83  1  0  0  0  0
 63 65  1  0  0  0  0
 63 74  1  0  0  0  0
 64 76  1  0  0  0  0
 66 67  1  0  0  0  0
M  CHG  2  75   1  76   1
M  ISO  4  40 100  62 101  72 100  83 101
M  END
> <Batch ID>
0085

> <Smiles>
CNC(C)C(=O)NC(C(=O)N1Cc2cc([101O:1][101CH2:1]CN3CC=C(c4ccc([100NH:0][100C:0](=O)N5CCCC(n6nc(-c7ccc(Oc8ccc(F)cc8F)cc7)c(C(N)=O)c6N)C5)cc4)CC3)ccc2CC1C(=O)NC1CCCc2ccccc21)C(C)(C)C

> <Shape>
0.260

> <Color>
0.093

> <Negative vol penalty>
0.000

$$$$

  -OEChem-04052300153D

 85 94  0     1  0  0  0  0  0999 V2000
  -29.5235  -36.7157   21.7151 C   0  0  0  0  0  0  0  0  0  0  0  0
  -29.6888  -35.3953   21.3092 C   0  0  0  0  0  0  0  0  0  0  0  0
  -24.2475   -9.2771   22.4674 C   0  0  0  0  0  0  0  0  0  0  0  0
  -22.9603  -11.2581   21.9616 C   0  0  0  0  0  0  0  0  0  0  0  0
  -28.5950  -37.0278   22.7072 C   0  0  0  0  0  0  0  0  0  0  0  0
  -28.9262  -34.3861   21.8960 C   0  0  0  0  0  0  0  0  0  0  0  0
  -26.7829  -29.3361   19.1739 C   0  0  0  0  0  0  0  0  0  0  0  0
  -26.2061  -19.3311   19.1143 C   0  0  0  0  0  0  0  0  0  0  0  0
  -26.4569  -17.9663   18.9725 C   0  0  0  0  0  0  0  0  0  0  0  0
  -23.4466   -9.0420   23.5848 C   0  0  0  0  0  0  0  0  0  0  0  0
  -22.1593  -11.0229   23.0790 C   0  0  0  0  0  0  0  0  0  0  0  0
  -27.2433  -28.0205   19.1418 C   0  0  0  0  0  0  0  0  0  0  0  0
  -21.5143   -7.7206   26.3661 C   0  0  0  0  0  0  0  0  0  0  0  0
  -21.0656   -6.4173   26.5797 C   0  0  0  0  0  0  0  0  0  0  0  0
  -25.7490  -27.4600   20.9507 C   0  0  0  0  0  0  0  0  0  0  0  0
  -28.7775  -18.3342   19.5350 C   0  0  0  0  0  0  0  0  0  0  0  0
  -19.9357   -6.4563   24.4445 C   0  0  0  0  0  0  0  0  0  0  0  0
  -24.0045  -10.3853   21.6558 C   0  0  0  0  0  0  0  0  0  0  0  0
  -24.6230  -10.1589   19.1912 C   0  0  0  0  0  0  0  0  0  0  0  0
  -27.8139  -36.0231   23.2997 C   0  0  0  0  0  0  0  0  0  0  0  0
  -25.8084  -29.7268   20.1035 C   0  0  0  0  0  0  0  0  0  0  0  0
  -27.9873  -34.6848   22.8980 C   0  0  0  0  0  0  0  0  0  0  0  0
  -25.2761  -28.7805   20.9908 C   0  0  0  0  0  0  0  0  0  0  0  0
  -27.2411  -20.1974   19.4665 C   0  0  0  0  0  0  0  0  0  0  0  0
  -27.7425  -17.4678   19.1828 C   0  0  0  0  0  0  0  0  0  0  0  0
  -22.4024   -9.9148   23.8906 C   0  0  0  0  0  0  0  0  0  0  0  0
  -26.7284  -27.0829   20.0322 C   0  0  0  0  0  0  0  0  0  0  0  0
  -21.1736   -8.3918   25.1917 C   0  0  0  0  0  0  0  0  0  0  0  0
  -28.5268  -19.6990   19.6768 C   0  0  0  0  0  0  0  0  0  0  0  0
  -20.2764   -5.7851   25.6189 C   0  0  0  0  0  0  0  0  0  0  0  0
  -20.3843   -7.7597   24.2310 C   0  0  0  0  0  0  0  0  0  0  0  0
  -24.8319  -10.6291   20.5016 C   0  0  0  0  0  0  0  0  0  0  0  0
  -25.6796  -10.6632   18.4730 C   0  0  0  0  0  0  0  0  0  0  0  0
  -26.5996  -23.5028   19.7022 C   0  0  0  0  0  0  0  0  0  0  0  0
  -25.8456  -22.2722   19.4600 C   0  0  0  0  0  0  0  0  0  0  0  0
  -26.2701  -24.8062   19.7541 C   0  0  0  0  0  0  0  0  0  1  0  0
  -23.5681   -9.3398   18.6698 C   0  0  0  0  0  0  0  0  0  0  0  0
  -25.7059  -31.8047   22.5066 C   0  0  0  0  0  0  0  0  0  0  0  0
  -22.5728  -30.9681   22.5829 C   0  0  0  0  0  0  0  0  0  0  0  0
  -20.1744  -28.6508   21.8586 C   0  0  0  0  0  0  0  0  0  0  0  0
  -29.2149  -15.4239   19.2096 C   0  0  0  0  0  0  0  0  0  0  0  0
  -26.8567  -36.4028   24.4016 C   0  0  0  0  0  0  0  0  0  0  0  0
  -25.3030  -31.1435   20.1074 C   0  0  0  0  0  0  0  0  0  0  0  0
  -24.2138  -29.1443   21.9946 C   0  0  0  0  0  0  0  0  0  0  0  0
  -27.8531  -22.6723   19.8559 C   0  0  0  0  0  0  0  0  0  0  0  0
  -25.8218  -35.3233   24.7084 C   0  0  0  0  0  0  0  0  0  0  0  0
  -30.2434  -12.0229   18.9802 C   0  0  0  0  0  0  0  0  0  0  0  0
  -26.4915  -33.9570   24.8159 C   0  0  0  0  0  0  0  0  0  0  0  0
  -28.9522  -11.2367   19.2191 C   0  0  0  0  0  0  0  0  0  0  0  0
  -30.3075  -13.2832   19.8411 C   0  0  0  0  0  0  0  0  0  0  0  0
  -27.8494  -13.3822   19.9728 C   0  0  0  0  0  0  0  0  0  0  0  0
  -27.1612  -33.5653   23.4932 C   0  0  1  0  0  0  0  0  0  0  0  0
  -24.6798  -31.5518   21.4386 C   0  0  1  0  0  0  0  0  0  0  0  0
  -27.7097  -12.1382   19.0802 C   0  0  2  0  0  0  0  0  0  0  0  0
  -17.7093  -28.2335   22.0748 C   0  0  0  0  0  0  0  0  0  0  0  0
  -22.9411  -30.3423   25.5464 C   0  0  0  0  0  0  0  0  0  0  0  0
  -20.7882  -29.0663   25.4731 C   0  0  0  0  0  0  0  0  0  0  0  0
  -20.8033  -31.5126   24.9851 C   0  0  0  0  0  0  0  0  0  0  0  0
  -19.8280  -28.4818   18.9243 C   0  0  0  0  0  0  0  0  0  0  0  0
  -30.8314  -19.9301   20.2163 C   0  0  0  0  0  0  0  0  0  0  0  0
  -21.7671  -29.9045   23.2890 C   0  0  1  0  0  0  0  0  0  0  0  0
  -18.8181  -28.7804   21.1892 C   0  0  2  0  0  0  0  0  0  0  0  0
  -21.5963  -30.1997   24.8059 C   0  0  0  0  0  0  0  0  0  0  0  0
  -25.9346  -11.3745   20.6123 N   0  0  0  0  0  0  0  0  0  0  0  0
  -26.4282  -11.3766   19.3623 N   0  0  0  0  0  0  0  0  0  0  0  0
  -26.9786  -21.5408   19.6029 N   0  0  0  0  0  0  0  0  0  0  0  0
  -23.7568  -30.5435   21.9635 N   0  0  0  0  0  0  0  0  0  0  0  0
  -29.0995  -14.0899   19.6546 N   0  0  0  0  0  0  0  0  0  0  0  0
  -26.0321  -10.5614   17.1739 N   0  0  0  0  0  0  0  0  0  0  0  0
  -22.5620   -8.9087   19.5453 N   0  0  0  0  0  0  0  0  0  0  0  0
  -27.9974  -16.0816   19.0373 N   0  0  0  0  0  0  0  0  0  0  0  0
  -26.1718  -33.1052   22.5425 N   0  0  0  0  0  0  0  0  0  0  0  0
  -20.5102  -29.7913   22.5570 N   0  0  0  0  0  0  0  0  0  0  0  0
  -18.8028  -28.0317   19.9007 N   0  3  0  0  0  0  0  0  0  0  0  0
  -24.6867  -22.0076   19.2166 O   0  0  0  0  0  0  0  0  0  0  0  0
  -23.5279   -8.9866   17.4668 O   0  0  0  0  0  0  0  0  0  0  0  0
  -26.0485  -30.8883   23.2445 O   0  0  0  0  0  0  0  0  0  0  0  0
  -22.1629  -32.1316   22.5749 O   0  0  0  0  0  0  0  0  0  0  0  0
  -20.8650  -27.6378   21.7738 O   0  0  0  0  0  0  0  0  0  0  0  0
  -30.3117  -15.9357   18.9708 O   0  0  0  0  0  0  0  0  0  0  0  0
  -21.6204   -9.6855   24.9808 O   0  0  0  0  0  0  0  0  0  0  0  0
  -27.1764  -25.7982   20.0035 O   0  0  0  0  0  0  0  0  0  1  0  0
  -29.5520  -20.5285   20.0217 O   0  0  0  0  0  0  0  0  0  0  0  0
  -19.8469   -4.5330   25.8235 F   0  0  0  0  0  0  0  0  0  0  0  0
  -20.0548   -8.3990   23.1003 F   0  0  0  0  0  0  0  0  0  0  0  0
  1  2  1  0  0  0  0
  1  5  2  0  0  0  0
  2  6  2  0  0  0  0
  3 10  2  0  0  0  0
  3 18  1  0  0  0  0
  4 11  1  0  0  0  0
  4 18  2  0  0  0  0
  5 20  1  0  0  0  0
  6 22  1  0  0  0  0
  7 12  2  0  0  0  0
  7 21  1  0  0  0  0
  8  9  2  0  0  0  0
  8 24  1  0  0  0  0
  9 25  1  0  0  0  0
 10 26  1  0  0  0  0
 11 26  2  0  0  0  0
 12 27  1  0  0  0  0
 13 14  2  0  0  0  0
 13 28  1  0  0  0  0
 14 30  1  0  0  0  0
 15 23  1  0  0  0  0
 15 27  2  0  0  0  0
 16 25  2  0  0  0  0
 16 29  1  0  0  0  0
 17 30  2  0  0  0  0
 17 31  1  0  0  0  0
 18 32  1  0  0  0  0
 19 32  1  0  0  0  0
 19 33  2  0  0  0  0
 19 37  1  0  0  0  0
 20 22  2  0  0  0  0
 20 42  1  0  0  0  0
 21 23  2  0  0  0  0
 21 43  1  0  0  0  0
 22 52  1  0  0  0  0
 23 44  1  0  0  0  0
 24 29  2  0  0  0  0
 24 66  1  0  0  0  0
 25 71  1  0  0  0  0
 26 81  1  0  0  0  0
 27 82  1  0  0  0  0
 28 31  2  0  0  0  0
 28 81  1  0  0  0  0
 29 83  1  0  0  0  0
 30 84  1  0  0  0  0
 31 85  1  0  0  0  0
 32 64  2  0  0  0  0
 33 65  1  0  0  0  0
 33 69  1  0  0  0  0
 34 35  1  0  0  0  0
 34 36  2  0  0  0  0
 34 45  1  0  0  0  0
 35 66  1  0  0  0  0
 35 75  2  0  0  0  0
 36 82  1  0  0  0  0
 37 70  1  0  0  0  0
 37 76  2  0  0  0  0
 38 53  1  0  0  0  0
 38 72  1  0  0  0  0
 38 77  2  0  0  0  0
 39 61  1  0  0  0  0
 39 67  1  0  0  0  0
 39 78  2  0  0  0  0
 40 62  1  0  0  0  0
 40 73  1  0  0  0  0
 40 79  2  0  0  0  0
 41 68  1  0  0  0  0
 41 71  1  0  0  0  0
 41 80  2  0  0  0  0
 42 46  1  0  0  0  0
 43 53  1  0  0  0  0
 44 67  1  0  0  0  0
 45 66  1  0  0  0  0
 46 48  1  0  0  0  0
 47 49  1  0  0  0  0
 47 50  1  0  0  0  0
 48 52  1  0  0  0  0
 49 54  1  0  0  0  0
 50 68  1  0  0  0  0
 51 54  1  0  0  0  0
 51 68  1  0  0  0  0
 52 72  1  0  0  0  0
 53 67  1  0  0  0  0
 54 65  1  0  0  0  0
 55 62  1  0  0  0  0
 56 63  1  0  0  0  0
 57 63  1  0  0  0  0
 58 63  1  0  0  0  0
 59 74  1  0  0  0  0
 60 83  1  0  0  0  0
 61 63  1  0  0  0  0
 61 73  1  0  0  0  0
 62 74  1  0  0  0  0
 64 65  1  0  0  0  0
M  CHG  1  74   1
M  ISO  4  36 101  41 100  71 100  82 101
M  END
> <Batch ID>
0085

> <Smiles>
CNC(C)C(=O)NC(C(=O)N1Cc2cc([101O:1][101CH:1]=C3CN(c4ccc([100NH:0][100C:0](=O)N5CCCC(n6nc(-c7ccc(Oc8ccc(F)cc8F)cc7)c(C(N)=O)c6N)C5)cc4OC)C3=O)ccc2CC1C(=O)NC1CCCc2ccccc21)C(C)(C)C

> <Shape>
0.275

> <Color>
0.103

> <Negative vol penalty>
0.000

$$$$

  -OEChem-04052300153D

 86 95  0     1  0  0  0  0  0999 V2000
  -26.7841  -37.9489   22.2276 C   0  0  0  0  0  0  0  0  0  0  0  0
  -27.3259  -36.9739   21.3962 C   0  0  0  0  0  0  0  0  0  0  0  0
  -24.0717   -9.4066   21.7724 C   0  0  0  0  0  0  0  0  0  0  0  0
  -23.2634  -10.5586   19.8086 C   0  0  0  0  0  0  0  0  0  0  0  0
  -26.1652  -37.5801   23.4213 C   0  0  0  0  0  0  0  0  0  0  0  0
  -27.2501  -35.6296   21.7586 C   0  0  0  0  0  0  0  0  0  0  0  0
  -26.6190  -29.0992   18.8824 C   0  0  0  0  0  0  0  0  0  0  0  0
  -22.7623   -9.0655   22.1113 C   0  0  0  0  0  0  0  0  0  0  0  0
  -21.9540  -10.2174   20.1475 C   0  0  0  0  0  0  0  0  0  0  0  0
  -27.2335  -27.8480   18.9059 C   0  0  0  0  0  0  0  0  0  0  0  0
  -20.4601   -6.7769   21.1652 C   0  0  0  0  0  0  0  0  0  0  0  0
  -20.2159   -5.4641   21.5682 C   0  0  0  0  0  0  0  0  0  0  0  0
  -26.0709  -27.3222   20.9531 C   0  0  0  0  0  0  0  0  0  0  0  0
  -26.4889  -19.8688   17.0889 C   0  0  0  0  0  0  0  0  0  0  0  0
  -27.7608  -18.8457   18.8700 C   0  0  0  0  0  0  0  0  0  0  0  0
  -26.6871  -17.4637   17.2044 C   0  0  0  0  0  0  0  0  0  0  0  0
  -19.4180   -6.2676   23.7024 C   0  0  0  0  0  0  0  0  0  0  0  0
  -24.3222  -10.1532   20.6211 C   0  0  0  0  0  0  0  0  0  0  0  0
  -26.5659   -9.7674   19.4702 C   0  0  0  0  0  0  0  0  0  0  0  0
  -26.0732  -36.2298   23.7938 C   0  0  0  0  0  0  0  0  0  0  0  0
  -25.7327  -29.4762   19.9016 C   0  0  0  0  0  0  0  0  0  0  0  0
  -26.6305  -35.2425   22.9590 C   0  0  0  0  0  0  0  0  0  0  0  0
  -25.4445  -28.5778   20.9388 C   0  0  0  0  0  0  0  0  0  0  0  0
  -27.2708  -19.9884   18.2378 C   0  0  0  0  0  0  0  0  0  0  0  0
  -26.1970  -18.6064   16.5722 C   0  0  0  0  0  0  0  0  0  0  0  0
  -27.4690  -17.5833   18.3533 C   0  0  0  0  0  0  0  0  0  0  0  0
  -21.7035   -9.4709   21.2988 C   0  0  0  0  0  0  0  0  0  0  0  0
  -26.9617  -26.9604   19.9429 C   0  0  0  0  0  0  0  0  0  0  0  0
  -20.1834   -7.8351   22.0309 C   0  0  0  0  0  0  0  0  0  0  0  0
  -19.6948   -5.2094   22.8367 C   0  0  0  0  0  0  0  0  0  0  0  0
  -19.6623   -7.5804   23.2994 C   0  0  0  0  0  0  0  0  0  0  0  0
  -25.6745  -10.5064   20.2708 C   0  0  0  0  0  0  0  0  0  0  0  0
  -27.7112  -10.5250   19.4422 C   0  0  0  0  0  0  0  0  0  0  0  0
  -27.4232  -23.4617   19.3082 C   0  0  0  0  0  0  0  0  0  0  0  0
  -26.7270  -22.3472   18.6295 C   0  0  0  0  0  0  0  0  0  0  0  0
  -28.7305  -21.5487   19.4529 C   0  0  0  0  0  0  0  0  0  0  0  0
  -26.9290  -24.6992   19.3456 C   0  0  0  0  0  0  0  0  0  1  0  0
  -26.3757   -8.5086   18.8106 C   0  0  0  0  0  0  0  0  0  0  0  0
  -25.6834  -31.7773   22.0938 C   0  0  0  0  0  0  0  0  0  0  0  0
  -22.7178  -30.6071   22.6925 C   0  0  0  0  0  0  0  0  0  0  0  0
  -20.5571  -27.9703   22.5333 C   0  0  0  0  0  0  0  0  0  0  0  0
  -28.7597  -16.3659   20.1417 C   0  0  0  0  0  0  0  0  0  0  0  0
  -25.4367  -35.8834   25.1165 C   0  0  0  0  0  0  0  0  0  0  0  0
  -25.0575  -30.8192   19.8474 C   0  0  0  0  0  0  0  0  0  0  0  0
  -24.4849  -28.9264   22.0462 C   0  0  0  0  0  0  0  0  0  0  0  0
  -28.6960  -22.9882   19.9011 C   0  0  0  0  0  0  0  0  0  0  0  0
  -25.0668  -34.4081   25.2467 C   0  0  0  0  0  0  0  0  0  0  0  0
  -30.1606  -13.7074   22.0513 C   0  0  0  0  0  0  0  0  0  0  0  0
  -26.2215  -33.5254   24.7839 C   0  0  0  0  0  0  0  0  0  0  0  0
  -29.2539  -12.5160   21.7338 C   0  0  0  0  0  0  0  0  0  0  0  0
  -29.3726  -15.0135   22.1343 C   0  0  0  0  0  0  0  0  0  0  0  0
  -27.6242  -14.1147   20.6495 C   0  0  0  0  0  0  0  0  0  0  0  0
  -26.5462  -33.7718   23.3056 C   0  0  1  0  0  0  0  0  0  0  0  0
  -24.5668  -31.2966   21.2108 C   0  0  1  0  0  0  0  0  0  0  0  0
  -28.3823  -12.7865   20.4918 C   0  0  2  0  0  0  0  0  0  0  0  0
  -18.2139  -27.3044   23.1361 C   0  0  0  0  0  0  0  0  0  0  0  0
  -23.5457  -30.3512   25.6180 C   0  0  0  0  0  0  0  0  0  0  0  0
  -21.5801  -28.8409   25.9698 C   0  0  0  0  0  0  0  0  0  0  0  0
  -21.2226  -31.2062   25.2623 C   0  0  0  0  0  0  0  0  0  0  0  0
  -19.8548  -27.4468   19.7064 C   0  0  0  0  0  0  0  0  0  0  0  0
  -22.1519  -29.5424   23.6008 C   0  0  1  0  0  0  0  0  0  0  0  0
  -19.1197  -27.8733   22.0551 C   0  0  2  0  0  0  0  0  0  0  0  0
  -22.1447  -29.9790   25.0930 C   0  0  0  0  0  0  0  0  0  0  0  0
  -26.2077  -11.6460   20.7192 N   0  0  0  0  0  0  0  0  0  0  0  0
  -27.4465  -11.6287   20.1986 N   0  0  0  0  0  0  0  0  0  0  0  0
  -27.5636  -21.2487   18.7536 N   0  0  0  0  0  0  0  0  0  0  0  0
  -23.8549  -30.2537   21.9522 N   0  0  0  0  0  0  0  0  0  0  0  0
  -28.5741  -15.2049   20.9216 N   0  0  0  0  0  0  0  0  0  0  0  0
  -25.4065  -18.4848   15.4105 N   0  0  0  0  0  0  0  0  0  0  0  0
  -28.9087  -10.3482   18.8447 N   0  0  0  0  0  0  0  0  0  0  0  0
  -25.1377   -7.8650   18.9436 N   0  0  0  0  0  0  0  0  0  0  0  0
  -27.9684  -16.4228   18.9949 N   0  0  0  0  0  0  0  0  0  0  0  0
  -25.5801  -33.1062   22.4582 N   0  0  0  0  0  0  0  0  0  0  0  0
  -20.8346  -29.2101   23.0691 N   0  0  0  0  0  0  0  0  0  0  0  0
  -19.0309  -26.9926   20.8561 N   0  3  0  0  0  0  0  0  0  0  0  0
  -25.6409  -22.4241   18.0789 O   0  0  0  0  0  0  0  0  0  0  0  0
  -29.6614  -20.7902   19.6982 O   0  0  0  0  0  0  0  0  0  0  0  0
  -27.2823   -7.9626   18.1372 O   0  0  0  0  0  0  0  0  0  0  0  0
  -26.5720  -30.9998   22.4215 O   0  0  0  0  0  0  0  0  0  0  0  0
  -22.1669  -31.7094   22.6363 O   0  0  0  0  0  0  0  0  0  0  0  0
  -21.3531  -27.0381   22.4443 O   0  0  0  0  0  0  0  0  0  0  0  0
  -29.5812  -17.2322   20.4528 O   0  0  0  0  0  0  0  0  0  0  0  0
  -20.4257   -9.1380   21.6290 O   0  0  0  0  0  0  0  0  0  0  0  0
  -27.5607  -25.7387   19.9686 O   0  0  0  0  0  0  0  0  0  1  0  0
  -19.4589   -3.9487   23.2230 F   0  0  0  0  0  0  0  0  0  0  0  0
  -19.3933   -8.5930   24.1350 F   0  0  0  0  0  0  0  0  0  0  0  0
  1  2  1  0  0  0  0
  1  5  2  0  0  0  0
  2  6  2  0  0  0  0
  3  8  2  0  0  0  0
  3 18  1  0  0  0  0
  4  9  1  0  0  0  0
  4 18  2  0  0  0  0
  5 20  1  0  0  0  0
  6 22  1  0  0  0  0
  7 10  2  0  0  0  0
  7 21  1  0  0  0  0
  8 27  1  0  0  0  0
  9 27  2  0  0  0  0
 10 28  1  0  0  0  0
 11 12  2  0  0  0  0
 11 29  1  0  0  0  0
 12 30  1  0  0  0  0
 13 23  1  0  0  0  0
 13 28  2  0  0  0  0
 14 24  1  0  0  0  0
 14 25  2  0  0  0  0
 15 24  2  0  0  0  0
 15 26  1  0  0  0  0
 16 25  1  0  0  0  0
 16 26  2  0  0  0  0
 17 30  2  0  0  0  0
 17 31  1  0  0  0  0
 18 32  1  0  0  0  0
 19 32  1  0  0  0  0
 19 33  2  0  0  0  0
 19 38  1  0  0  0  0
 20 22  2  0  0  0  0
 20 43  1  0  0  0  0
 21 23  2  0  0  0  0
 21 44  1  0  0  0  0
 22 53  1  0  0  0  0
 23 45  1  0  0  0  0
 24 66  1  0  0  0  0
 25 69  1  0  0  0  0
 26 72  1  0  0  0  0
 27 83  1  0  0  0  0
 28 84  1  0  0  0  0
 29 31  2  0  0  0  0
 29 83  1  0  0  0  0
 30 85  1  0  0  0  0
 31 86  1  0  0  0  0
 32 64  2  0  0  0  0
 33 65  1  0  0  0  0
 33 70  1  0  0  0  0
 34 35  1  0  0  0  0
 34 37  2  0  0  0  0
 34 46  1  0  0  0  0
 35 66  1  0  0  0  0
 35 76  2  0  0  0  0
 36 46  1  0  0  0  0
 36 66  1  0  0  0  0
 36 77  2  0  0  0  0
 37 84  1  0  0  0  0
 38 71  1  0  0  0  0
 38 78  2  0  0  0  0
 39 54  1  0  0  0  0
 39 73  1  0  0  0  0
 39 79  2  0  0  0  0
 40 61  1  0  0  0  0
 40 67  1  0  0  0  0
 40 80  2  0  0  0  0
 41 62  1  0  0  0  0
 41 74  1  0  0  0  0
 41 81  2  0  0  0  0
 42 68  1  0  0  0  0
 42 72  1  0  0  0  0
 42 82  2  0  0  0  0
 43 47  1  0  0  0  0
 44 54  1  0  0  0  0
 45 67  1  0  0  0  0
 47 49  1  0  0  0  0
 48 50  1  0  0  0  0
 48 51  1  0  0  0  0
 49 53  1  0  0  0  0
 50 55  1  0  0  0  0
 51 68  1  0  0  0  0
 52 55  1  0  0  0  0
 52 68  1  0  0  0  0
 53 73  1  0  0  0  0
 54 67  1  0  0  0  0
 55 65  1  0  0  0  0
 56 62  1  0  0  0  0
 57 63  1  0  0  0  0
 58 63  1  0  0  0  0
 59 63  1  0  0  0  0
 60 75  1  0  0  0  0
 61 63  1  0  0  0  0
 61 74  1  0  0  0  0
 62 75  1  0  0  0  0
 64 65  1  0  0  0  0
M  CHG  1  75   1
M  ISO  4  37 101  42 100  72 100  84 101
M  END
> <Batch ID>
0085

> <Smiles>
CNC(C)C(=O)NC(C(=O)N1Cc2cc([101O:1][101CH:1]=C3CC(=O)N(c4cc(N)cc([100NH:0][100C:0](=O)N5CCCC(n6nc(-c7ccc(Oc8ccc(F)cc8F)cc7)c(C(N)=O)c6N)C5)c4)C3=O)ccc2CC1C(=O)NC1CCCc2ccccc21)C(C)(C)C

> <Shape>
0.297

> <Color>
0.096

> <Negative vol penalty>
0.000

$$$$

  -OEChem-04052300153D

 86 94  0     1  0  0  0  0  0999 V2000
  -28.6974  -33.4805   18.9020 C   0  0  0  0  0  0  0  0  0  0  0  0
  -28.2657  -32.4259   18.1040 C   0  0  0  0  0  0  0  0  0  0  0  0
  -23.1679  -10.4323   18.7435 C   0  0  0  0  0  0  0  0  0  0  0  0
  -22.9370  -10.0865   21.1234 C   0  0  0  0  0  0  0  0  0  0  0  0
  -28.3605  -17.6376   17.4094 C   0  0  0  0  0  0  0  0  0  0  0  0
  -28.7937  -33.3141   20.2830 C   0  0  0  0  0  0  0  0  0  0  0  0
  -27.9310  -31.2039   18.6864 C   0  0  0  0  0  0  0  0  0  0  0  0
  -23.5392  -27.3408   16.8715 C   0  0  0  0  0  0  0  0  0  0  0  0
  -27.4722  -18.5750   16.8824 C   0  0  0  0  0  0  0  0  0  0  0  0
  -22.2959   -9.3703   18.5045 C   0  0  0  0  0  0  0  0  0  0  0  0
  -22.0649   -9.0245   20.8845 C   0  0  0  0  0  0  0  0  0  0  0  0
  -23.5711  -26.1802   16.0996 C   0  0  0  0  0  0  0  0  0  0  0  0
  -18.8147   -8.6105   20.0565 C   0  0  0  0  0  0  0  0  0  0  0  0
  -17.6496   -8.5462   20.8206 C   0  0  0  0  0  0  0  0  0  0  0  0
  -29.6723  -19.4227   18.3737 C   0  0  0  0  0  0  0  0  0  0  0  0
  -23.6557  -24.8517   18.1113 C   0  0  0  0  0  0  0  0  0  0  0  0
  -18.3279   -6.3899   21.6735 C   0  0  0  0  0  0  0  0  0  0  0  0
  -23.4886  -10.7904   20.0529 C   0  0  0  0  0  0  0  0  0  0  0  0
  -29.4606  -18.0615   18.1551 C   0  0  0  0  0  0  0  0  0  0  0  0
  -24.0527  -13.2439   20.4650 C   0  0  0  0  0  0  0  0  0  0  0  0
  -28.4509  -32.0925   20.8836 C   0  0  0  0  0  0  0  0  0  0  0  0
  -23.5764  -27.2658   18.2713 C   0  0  0  0  0  0  0  0  0  0  0  0
  -28.0241  -31.0206   20.0765 C   0  0  0  0  0  0  0  0  0  0  0  0
  -23.6216  -26.0127   18.8988 C   0  0  0  0  0  0  0  0  0  0  0  0
  -27.6839  -19.9363   17.1011 C   0  0  0  0  0  0  0  0  0  0  0  0
  -28.7839  -20.3602   17.8467 C   0  0  0  0  0  0  0  0  0  0  0  0
  -21.7443   -8.6664   19.5750 C   0  0  0  0  0  0  0  0  0  0  0  0
  -23.6323  -24.9355   16.7194 C   0  0  0  0  0  0  0  0  0  0  0  0
  -19.7364   -7.5644   20.1008 C   0  0  0  0  0  0  0  0  0  0  0  0
  -17.4061   -7.4359   21.6291 C   0  0  0  0  0  0  0  0  0  0  0  0
  -19.4930   -6.4542   20.9093 C   0  0  0  0  0  0  0  0  0  0  0  0
  -24.3898  -11.8871   20.3004 C   0  0  0  0  0  0  0  0  0  0  0  0
  -25.2553  -13.8736   20.6740 C   0  0  0  0  0  0  0  0  0  0  0  0
  -30.4062  -17.0626   18.7163 C   0  0  0  0  0  0  0  0  0  0  0  0
  -22.7674  -13.8784   20.4320 C   0  0  0  0  0  0  0  0  0  0  0  0
  -24.9130  -21.8320   15.4018 C   0  0  0  0  0  0  0  0  0  0  0  0
  -25.6473  -20.5873   15.8083 C   0  0  0  0  0  0  0  0  0  0  0  0
  -25.5772  -28.2878   20.5199 C   0  0  0  0  0  0  0  0  0  0  0  0
  -23.2721  -27.1900   22.5209 C   0  0  0  0  0  0  0  0  0  0  0  0
  -20.6294  -25.0893   23.0209 C   0  0  0  0  0  0  0  0  0  0  0  0
  -30.5959  -14.7096   19.4586 C   0  0  0  0  0  0  0  0  0  0  0  0
  -28.6163  -31.9454   22.3754 C   0  0  0  0  0  0  0  0  0  0  0  0
  -23.5144  -28.5259   19.0902 C   0  0  0  0  0  0  0  0  0  0  0  0
  -23.6431  -25.8771   20.3987 C   0  0  0  0  0  0  0  0  0  0  0  0
  -27.8850  -30.7363   22.9531 C   0  0  0  0  0  0  0  0  0  0  0  0
  -29.8627  -11.9691   21.5680 C   0  0  0  0  0  0  0  0  0  0  0  0
  -28.1485  -29.4971   22.1036 C   0  0  0  0  0  0  0  0  0  0  0  0
  -28.3438  -11.8174   21.4481 C   0  0  0  0  0  0  0  0  0  0  0  0
  -30.5011  -12.3572   20.2350 C   0  0  0  0  0  0  0  0  0  0  0  0
  -28.3993  -13.3782   19.4619 C   0  0  0  0  0  0  0  0  0  0  0  0
  -27.6284  -29.6876   20.6737 C   0  0  1  0  0  0  0  0  0  0  0  0
  -24.0761  -28.3520   20.4979 C   0  0  1  0  0  0  0  0  0  0  0  0
  -27.7015  -13.0568   20.7934 C   0  0  1  0  0  0  0  0  0  0  0  0
  -18.9720  -24.3906   24.7708 C   0  0  0  0  0  0  0  0  0  0  0  0
  -25.4365  -25.5502   23.9126 C   0  0  0  0  0  0  0  0  0  0  0  0
  -23.6237  -24.1944   24.9821 C   0  0  0  0  0  0  0  0  0  0  0  0
  -23.7967  -26.6373   25.4565 C   0  0  0  0  0  0  0  0  0  0  0  0
  -18.3387  -25.9858   21.3752 C   0  0  0  0  0  0  0  0  0  0  0  0
  -24.3550  -22.6790   16.5157 C   0  0  0  0  0  0  0  0  0  1  0  0
  -22.9781  -25.8696   23.1910 C   0  0  1  0  0  0  0  0  0  0  0  0
  -19.2493  -25.3284   23.6062 C   0  0  2  0  0  0  0  0  0  0  0  0
  -23.9603  -25.5652   24.3572 C   0  0  0  0  0  0  0  0  0  0  0  0
  -25.7037  -11.6669   20.3964 N   0  0  0  0  0  0  0  0  0  0  0  0
  -26.2028  -12.8939   20.6235 N   0  0  0  0  0  0  0  0  0  0  0  0
  -23.5871  -27.1386   21.1557 N   0  0  0  0  0  0  0  0  0  0  0  0
  -29.8432  -13.5442   19.6862 N   0  0  0  0  0  0  0  0  0  0  0  0
  -29.0175  -21.7337   18.0817 N   0  0  0  0  0  0  0  0  0  0  0  0
  -25.5842  -15.1643   20.8942 N   0  0  0  0  0  0  0  0  0  0  0  0
  -21.6355  -13.0834   20.2059 N   0  0  0  0  0  0  0  0  0  0  0  0
  -26.7690  -20.8684   16.5581 N   0  0  0  0  0  0  0  0  0  0  0  0
  -29.8676  -15.8015   18.9733 N   0  0  0  0  0  0  0  0  0  0  0  0
  -26.1915  -29.5204   20.6320 N   0  0  0  0  0  0  0  0  0  0  0  0
  -21.5751  -25.9168   23.5883 N   0  0  0  0  0  0  0  0  0  0  0  0
  -18.2018  -25.1116   22.5685 N   0  3  0  0  0  0  0  0  0  0  0  0
  -31.5814  -17.3783   18.8809 O   0  0  0  0  0  0  0  0  0  0  0  0
  -22.6284  -15.1160   20.5818 O   0  0  0  0  0  0  0  0  0  0  0  0
  -24.8027  -22.0586   14.2063 O   0  0  0  0  0  0  0  0  0  0  0  0
  -25.1873  -19.5283   15.4145 O   0  0  0  0  0  0  0  0  0  0  0  0
  -26.1365  -27.2002   20.4426 O   0  0  0  0  0  0  0  0  0  0  0  0
  -23.2170  -28.2295   23.1828 O   0  0  0  0  0  0  0  0  0  0  0  0
  -20.8473  -24.2497   22.1502 O   0  0  0  0  0  0  0  0  0  0  0  0
  -31.8043  -14.7838   19.7024 O   0  0  0  0  0  0  0  0  0  0  0  0
  -20.8931   -7.6301   19.3422 O   0  0  0  0  0  0  0  0  0  0  0  0
  -23.6641  -23.8012   15.9683 O   0  0  0  0  0  0  0  0  0  1  0  0
  -16.2879   -7.3750   22.3640 F   0  0  0  0  0  0  0  0  0  0  0  0
  -20.3754   -5.4467   20.9569 F   0  0  0  0  0  0  0  0  0  0  0  0
  1  2  1  0  0  0  0
  1  6  2  0  0  0  0
  2  7  2  0  0  0  0
  3 10  2  0  0  0  0
  3 18  1  0  0  0  0
  4 11  1  0  0  0  0
  4 18  2  0  0  0  0
  5  9  2  0  0  0  0
  5 19  1  0  0  0  0
  6 21  1  0  0  0  0
  7 23  1  0  0  0  0
  8 12  2  0  0  0  0
  8 22  1  0  0  0  0
  9 25  1  0  0  0  0
 10 27  1  0  0  0  0
 11 27  2  0  0  0  0
 12 28  1  0  0  0  0
 13 14  2  0  0  0  0
 13 29  1  0  0  0  0
 14 30  1  0  0  0  0
 15 19  2  0  0  0  0
 15 26  1  0  0  0  0
 16 24  1  0  0  0  0
 16 28  2  0  0  0  0
 17 30  2  0  0  0  0
 17 31  1  0  0  0  0
 18 32  1  0  0  0  0
 19 34  1  0  0  0  0
 20 32  1  0  0  0  0
 20 33  2  0  0  0  0
 20 35  1  0  0  0  0
 21 23  2  0  0  0  0
 21 42  1  0  0  0  0
 22 24  2  0  0  0  0
 22 43  1  0  0  0  0
 23 51  1  0  0  0  0
 24 44  1  0  0  0  0
 25 26  2  0  0  0  0
 25 70  1  0  0  0  0
 26 67  1  0  0  0  0
 27 83  1  0  0  0  0
 28 84  1  0  0  0  0
 29 31  2  0  0  0  0
 29 83  1  0  0  0  0
 30 85  1  0  0  0  0
 31 86  1  0  0  0  0
 32 63  2  0  0  0  0
 33 64  1  0  0  0  0
 33 68  1  0  0  0  0
 34 71  1  0  0  0  0
 34 75  2  0  0  0  0
 35 69  1  0  0  0  0
 35 76  2  0  0  0  0
 36 37  1  0  0  0  0
 36 59  1  0  0  0  0
 36 77  2  0  0  0  0
 37 70  1  0  0  0  0
 37 78  2  0  0  0  0
 38 52  1  0  0  0  0
 38 72  1  0  0  0  0
 38 79  2  0  0  0  0
 39 60  1  0  0  0  0
 39 65  1  0  0  0  0
 39 80  2  0  0  0  0
 40 61  1  0  0  0  0
 40 73  1  0  0  0  0
 40 81  2  0  0  0  0
 41 66  1  0  0  0  0
 41 71  1  0  0  0  0
 41 82  2  0  0  0  0
 42 45  1  0  0  0  0
 43 52  1  0  0  0  0
 44 65  1  0  0  0  0
 45 47  1  0  0  0  0
 46 48  1  0  0  0  0
 46 49  1  0  0  0  0
 47 51  1  0  0  0  0
 48 53  1  0  0  0  0
 49 66  1  0  0  0  0
 50 53  1  0  0  0  0
 50 66  1  0  0  0  0
 51 72  1  0  0  0  0
 52 65  1  0  0  0  0
 53 64  1  0  0  0  0
 54 61  1  0  0  0  0
 55 62  1  0  0  0  0
 56 62  1  0  0  0  0
 57 62  1  0  0  0  0
 58 74  1  0  0  0  0
 59 84  1  0  0  0  0
 60 62  1  0  0  0  0
 60 73  1  0  0  0  0
 61 74  1  0  0  0  0
 63 64  1  0  0  0  0
M  CHG  1  74   1
M  ISO  4  41 100  59 101  71 100  84 101
M  END
> <Batch ID>
0085

> <Smiles>
CNC(C)C(=O)NC(C(=O)N1Cc2cc([101O:1][101CH2:1]C(=O)C(=O)Nc3ccc(C(=O)[100NH:0][100C:0](=O)N4CCCC(n5nc(-c6ccc(Oc7ccc(F)cc7F)cc6)c(C(N)=O)c5N)C4)cc3N)ccc2CC1C(=O)NC1CCCc2ccccc21)C(C)(C)C

> <Shape>
0.193

> <Color>
0.118

> <Negative vol penalty>
0.000

$$$$

  -OEChem-04052300153D

 85 93  0     1  0  0  0  0  0999 V2000
  -18.5518  -27.5732   23.6114 C   0  0  0  0  0  0  0  0  0  0  0  0
  -18.9765  -26.3649   23.0683 C   0  0  0  0  0  0  0  0  0  0  0  0
  -26.1598  -11.9537   19.4267 C   0  0  0  0  0  0  0  0  0  0  0  0
  -26.8614  -19.1778   25.4929 C   0  0  0  0  0  0  0  0  0  0  0  0
  -28.6664  -20.5921   26.2537 C   0  0  0  0  0  0  0  0  0  0  0  0
  -27.5433  -12.1245   19.3778 C   0  0  0  0  0  0  0  0  0  0  0  0
  -19.0555  -28.7747   23.1148 C   0  0  0  0  0  0  0  0  0  0  0  0
  -19.9045  -26.3574   22.0275 C   0  0  0  0  0  0  0  0  0  0  0  0
  -23.5478  -22.9046   22.6977 C   0  0  0  0  0  0  0  0  0  0  0  0
  -25.3352  -13.0305   19.7530 C   0  0  0  0  0  0  0  0  0  0  0  0
  -26.2882  -19.2257   26.7636 C   0  0  0  0  0  0  0  0  0  0  0  0
  -28.0932  -20.6400   27.5244 C   0  0  0  0  0  0  0  0  0  0  0  0
  -23.2280  -21.5779   22.4124 C   0  0  0  0  0  0  0  0  0  0  0  0
  -24.4279  -21.3899   28.5771 C   0  0  0  0  0  0  0  0  0  0  0  0
  -23.0531  -21.6105   28.6602 C   0  0  0  0  0  0  0  0  0  0  0  0
  -27.2777  -14.4487   19.9818 C   0  0  0  0  0  0  0  0  0  0  0  0
  -24.3248  -21.7797   20.2734 C   0  0  0  0  0  0  0  0  0  0  0  0
  -22.7820  -19.4939   29.7933 C   0  0  0  0  0  0  0  0  0  0  0  0
  -28.0505  -19.8609   25.2379 C   0  0  0  0  0  0  0  0  0  0  0  0
  -28.1023  -13.3719   19.6554 C   0  0  0  0  0  0  0  0  0  0  0  0
  -28.4070  -20.6909   22.8522 C   0  0  0  0  0  0  0  0  0  0  0  0
  -19.9973  -28.7816   22.0739 C   0  0  0  0  0  0  0  0  0  0  0  0
  -24.2502  -23.6834   21.7668 C   0  0  0  0  0  0  0  0  0  0  0  0
  -20.4202  -27.5602   21.5156 C   0  0  0  0  0  0  0  0  0  0  0  0
  -24.6546  -23.1153   20.5503 C   0  0  0  0  0  0  0  0  0  0  0  0
  -25.8942  -14.2779   20.0306 C   0  0  0  0  0  0  0  0  0  0  0  0
  -26.9041  -19.9569   27.7794 C   0  0  0  0  0  0  0  0  0  0  0  0
  -23.6139  -21.0161   21.1990 C   0  0  0  0  0  0  0  0  0  0  0  0
  -24.9798  -20.2212   29.1020 C   0  0  0  0  0  0  0  0  0  0  0  0
  -22.2302  -20.6625   29.2684 C   0  0  0  0  0  0  0  0  0  0  0  0
  -24.1568  -19.2733   29.7102 C   0  0  0  0  0  0  0  0  0  0  0  0
  -28.6434  -19.8113   23.9256 C   0  0  0  0  0  0  0  0  0  0  0  0
  -29.2051  -20.2186   21.8391 C   0  0  0  0  0  0  0  0  0  0  0  0
  -24.3280  -18.8503   20.6793 C   0  0  0  0  0  0  0  0  0  1  0  0
  -29.5759  -13.5523   19.6029 C   0  0  0  0  0  0  0  0  0  0  0  0
  -27.5431  -21.8328   22.7775 C   0  0  0  0  0  0  0  0  0  0  0  0
  -24.2581  -17.5436   20.9608 C   0  0  0  0  0  0  0  0  0  0  0  0
  -25.4400  -16.6708   20.6617 C   0  0  0  0  0  0  0  0  0  0  0  0
  -23.6235  -26.3392   20.1367 C   0  0  0  0  0  0  0  0  0  0  0  0
  -26.7231  -26.0471   19.2261 C   0  0  0  0  0  0  0  0  0  0  0  0
  -29.4234  -24.0155   18.7488 C   0  0  0  0  0  0  0  0  0  0  0  0
  -31.4477  -14.8679   20.5458 C   0  0  0  0  0  0  0  0  0  0  0  0
  -20.4777  -30.1072   21.5383 C   0  0  0  0  0  0  0  0  0  0  0  0
  -24.6108  -25.1050   22.1008 C   0  0  0  0  0  0  0  0  0  0  0  0
  -25.4280  -23.9027   19.5256 C   0  0  0  0  0  0  0  0  0  0  0  0
  -21.7398  -29.9986   20.6864 C   0  0  0  0  0  0  0  0  0  0  0  0
  -33.2950  -17.8314   21.0956 C   0  0  0  0  0  0  0  0  0  0  0  0
  -21.6113  -28.8550   19.6852 C   0  0  0  0  0  0  0  0  0  0  0  0
  -32.2874  -18.7646   21.7725 C   0  0  0  0  0  0  0  0  0  0  0  0
  -33.1275  -16.3846   21.5576 C   0  0  0  0  0  0  0  0  0  0  0  0
  -30.7640  -16.7790   22.1199 C   0  0  0  0  0  0  0  0  0  0  0  0
  -21.4441  -27.5100   20.4024 C   0  0  1  0  0  0  0  0  0  0  0  0
  -24.8810  -25.9588   20.8657 C   0  0  1  0  0  0  0  0  0  0  0  0
  -30.8456  -18.2356   21.6353 C   0  0  1  0  0  0  0  0  0  0  0  0
  -31.7951  -23.3774   18.2336 C   0  0  0  0  0  0  0  0  0  0  0  0
  -25.7604  -26.2239   16.3362 C   0  0  0  0  0  0  0  0  0  0  0  0
  -27.9821  -25.3233   15.6142 C   0  0  0  0  0  0  0  0  0  0  0  0
  -27.8538  -27.5042   16.8185 C   0  0  0  0  0  0  0  0  0  0  0  0
  -30.2499  -24.3545   21.5704 C   0  0  0  0  0  0  0  0  0  0  0  0
  -27.4440  -25.3590   18.0922 C   0  0  1  0  0  0  0  0  0  0  0  0
  -30.8774  -24.1593   19.1606 C   0  0  2  0  0  0  0  0  0  0  0  0
  -27.2438  -26.0881   16.7335 C   0  0  0  0  0  0  0  0  0  0  0  0
  -29.5228  -18.8527   23.6227 N   0  0  0  0  0  0  0  0  0  0  0  0
  -29.8459  -19.1272   22.3474 N   0  0  0  0  0  0  0  0  0  0  0  0
  -25.7512  -25.2905   19.8960 N   0  0  0  0  0  0  0  0  0  0  0  0
  -31.7379  -15.9569   21.3861 N   0  0  0  0  0  0  0  0  0  0  0  0
  -29.4143  -20.6345   20.5720 N   0  0  0  0  0  0  0  0  0  0  0  0
  -26.7937  -22.1788   23.9102 N   0  0  0  0  0  0  0  0  0  0  0  0
  -25.0571  -15.3707   20.3615 N   0  0  0  0  0  0  0  0  0  0  0  0
  -30.0879  -14.5648   20.4147 N   0  0  0  0  0  0  0  0  0  0  0  0
  -22.7182  -27.0444   20.9067 N   0  0  0  0  0  0  0  0  0  0  0  0
  -28.8376  -25.2401   18.5068 N   0  0  0  0  0  0  0  0  0  0  0  0
  -31.0744  -23.6574   20.5499 N   0  3  0  0  0  0  0  0  0  0  0  0
  -30.2460  -12.7992   18.9017 O   0  0  0  0  0  0  0  0  0  0  0  0
  -27.4266  -22.5161   21.7320 O   0  0  0  0  0  0  0  0  0  0  0  0
  -26.5803  -17.1205   20.6972 O   0  0  0  0  0  0  0  0  0  0  0  0
  -23.4854  -26.0182   18.9622 O   0  0  0  0  0  0  0  0  0  0  0  0
  -27.0168  -27.2107   19.5118 O   0  0  0  0  0  0  0  0  0  0  0  0
  -28.8643  -22.9257   18.6480 O   0  0  0  0  0  0  0  0  0  0  0  0
  -32.3205  -14.2432   19.9347 O   0  0  0  0  0  0  0  0  0  0  0  0
  -23.1372  -16.9637   21.5194 O   0  0  0  0  0  0  0  0  0  0  0  0
  -26.3449  -20.0041   29.0194 O   0  0  0  0  0  0  0  0  0  0  0  0
  -23.3025  -19.7216   20.9177 O   0  0  0  0  0  0  0  0  0  1  0  0
  -20.9102  -20.8752   29.3495 F   0  0  0  0  0  0  0  0  0  0  0  0
  -24.6814  -18.1493   30.2173 F   0  0  0  0  0  0  0  0  0  0  0  0
  1  2  1  0  0  0  0
  1  7  2  0  0  0  0
  2  8  2  0  0  0  0
  3  6  1  0  0  0  0
  3 10  2  0  0  0  0
  4 11  2  0  0  0  0
  4 19  1  0  0  0  0
  5 12  1  0  0  0  0
  5 19  2  0  0  0  0
  6 20  2  0  0  0  0
  7 22  1  0  0  0  0
  8 24  1  0  0  0  0
  9 13  2  0  0  0  0
  9 23  1  0  0  0  0
 10 26  1  0  0  0  0
 11 27  1  0  0  0  0
 12 27  2  0  0  0  0
 13 28  1  0  0  0  0
 14 15  2  0  0  0  0
 14 29  1  0  0  0  0
 15 30  1  0  0  0  0
 16 20  1  0  0  0  0
 16 26  2  0  0  0  0
 17 25  1  0  0  0  0
 17 28  2  0  0  0  0
 18 30  2  0  0  0  0
 18 31  1  0  0  0  0
 19 32  1  0  0  0  0
 20 35  1  0  0  0  0
 21 32  1  0  0  0  0
 21 33  2  0  0  0  0
 21 36  1  0  0  0  0
 22 24  2  0  0  0  0
 22 43  1  0  0  0  0
 23 25  2  0  0  0  0
 23 44  1  0  0  0  0
 24 52  1  0  0  0  0
 25 45  1  0  0  0  0
 26 69  1  0  0  0  0
 27 82  1  0  0  0  0
 28 83  1  0  0  0  0
 29 31  2  0  0  0  0
 29 82  1  0  0  0  0
 30 84  1  0  0  0  0
 31 85  1  0  0  0  0
 32 63  2  0  0  0  0
 33 64  1  0  0  0  0
 33 67  1  0  0  0  0
 34 37  2  0  0  0  0
 34 83  1  0  0  0  0
 35 70  1  0  0  0  0
 35 74  2  0  0  0  0
 36 68  1  0  0  0  0
 36 75  2  0  0  0  0
 37 38  1  0  0  0  0
 37 81  1  0  0  0  0
 38 69  1  0  0  0  0
 38 76  2  0  0  0  0
 39 53  1  0  0  0  0
 39 71  1  0  0  0  0
 39 77  2  0  0  0  0
 40 60  1  0  0  0  0
 40 65  1  0  0  0  0
 40 78  2  0  0  0  0
 41 61  1  0  0  0  0
 41 72  1  0  0  0  0
 41 79  2  0  0  0  0
 42 66  1  0  0  0  0
 42 70  1  0  0  0  0
 42 80  2  0  0  0  0
 43 46  1  0  0  0  0
 44 53  1  0  0  0  0
 45 65  1  0  0  0  0
 46 48  1  0  0  0  0
 47 49  1  0  0  0  0
 47 50  1  0  0  0  0
 48 52  1  0  0  0  0
 49 54  1  0  0  0  0
 50 66  1  0  0  0  0
 51 54  1  0  0  0  0
 51 66  1  0  0  0  0
 52 71  1  0  0  0  0
 53 65  1  0  0  0  0
 54 64  1  0  0  0  0
 55 61  1  0  0  0  0
 56 62  1  0  0  0  0
 57 62  1  0  0  0  0
 58 62  1  0  0  0  0
 59 73  1  0  0  0  0
 60 62  1  0  0  0  0
 60 72  1  0  0  0  0
 61 73  1  0  0  0  0
 63 64  1  0  0  0  0
M  CHG  1  73   1
M  ISO  4  34 101  42 100  70 100  83 101
M  END
> <Batch ID>
0085

> <Smiles>
CNC(C)C(=O)NC(C(=O)N1Cc2cc([101O:1][101CH2:1]C(=O)C(=O)Nc3cccc(C(=O)[100NH:0][100C:0](=O)N4CCCC(n5nc(-c6ccc(Oc7ccc(F)cc7F)cc6)c(C(N)=O)c5N)C4)c3)ccc2CC1C(=O)NC1CCCc2ccccc21)C(C)(C)C

> <Shape>
0.188

> <Color>
0.077

> <Negative vol penalty>
0.000

$$$$

  -OEChem-04052300153D

 85 94  0     1  0  0  0  0  0999 V2000
  -18.0258  -12.2484   24.4558 C   0  0  0  0  0  0  0  0  0  0  0  0
  -19.3161  -12.6979   24.7175 C   0  0  0  0  0  0  0  0  0  0  0  0
  -32.6519  -17.4897   23.4573 C   0  0  0  0  0  0  0  0  0  0  0  0
  -23.0735   -9.8699   19.9415 C   0  0  0  0  0  0  0  0  0  0  0  0
  -23.8315   -9.8778   22.2355 C   0  0  0  0  0  0  0  0  0  0  0  0
  -17.0060  -13.1662   24.2075 C   0  0  0  0  0  0  0  0  0  0  0  0
  -19.5876  -14.0656   24.7300 C   0  0  0  0  0  0  0  0  0  0  0  0
  -23.5879  -16.9921   28.3270 C   0  0  0  0  0  0  0  0  0  0  0  0
  -31.8541  -18.3575   24.2030 C   0  0  0  0  0  0  0  0  0  0  0  0
  -32.0640  -16.6055   22.5527 C   0  0  0  0  0  0  0  0  0  0  0  0
  -22.3285   -8.7175   20.1916 C   0  0  0  0  0  0  0  0  0  0  0  0
  -23.0864   -8.7254   22.4856 C   0  0  0  0  0  0  0  0  0  0  0  0
  -24.8922  -17.4356   28.1126 C   0  0  0  0  0  0  0  0  0  0  0  0
  -19.3784   -7.9243   21.6410 C   0  0  0  0  0  0  0  0  0  0  0  0
  -18.0719   -7.8788   21.1546 C   0  0  0  0  0  0  0  0  0  0  0  0
  -24.0505  -19.6306   27.5714 C   0  0  0  0  0  0  0  0  0  0  0  0
  -29.8805  -17.4567   23.1398 C   0  0  0  0  0  0  0  0  0  0  0  0
  -18.6311   -5.9344   19.8342 C   0  0  0  0  0  0  0  0  0  0  0  0
  -23.8251  -10.4500   20.9634 C   0  0  0  0  0  0  0  0  0  0  0  0
  -24.1691  -12.9748   20.8420 C   0  0  0  0  0  0  0  0  0  0  0  0
  -17.2631  -14.5461   24.2265 C   0  0  0  0  0  0  0  0  0  0  0  0
  -22.5026  -17.8631   28.1543 C   0  0  0  0  0  0  0  0  0  0  0  0
  -18.5705  -15.0027   24.4804 C   0  0  0  0  0  0  0  0  0  0  0  0
  -22.7336  -19.1963   27.7866 C   0  0  0  0  0  0  0  0  0  0  0  0
  -30.4684  -18.3410   24.0443 C   0  0  0  0  0  0  0  0  0  0  0  0
  -30.6783  -16.5889   22.3940 C   0  0  0  0  0  0  0  0  0  0  0  0
  -22.3349   -8.1453   21.4637 C   0  0  0  0  0  0  0  0  0  0  0  0
  -25.1235  -18.7542   27.7319 C   0  0  0  0  0  0  0  0  0  0  0  0
  -20.3113   -6.9749   21.2238 C   0  0  0  0  0  0  0  0  0  0  0  0
  -17.6982   -6.8839   20.2513 C   0  0  0  0  0  0  0  0  0  0  0  0
  -19.9377   -5.9799   20.3205 C   0  0  0  0  0  0  0  0  0  0  0  0
  -24.5953  -11.6401   20.7055 C   0  0  0  0  0  0  0  0  0  0  0  0
  -25.2621  -13.7232   20.4791 C   0  0  0  0  0  0  0  0  0  0  0  0
  -28.9181  -21.0172   25.9672 C   0  0  0  0  0  0  0  0  0  0  0  0
  -27.9269  -20.1283   25.9530 C   0  0  0  0  0  0  0  0  0  0  0  0
  -30.0608  -20.4535   25.2345 C   0  0  0  0  0  0  0  0  0  0  0  0
  -28.3779  -18.9481   25.1901 C   0  0  0  0  0  0  0  0  0  0  0  0
  -22.8987  -13.4920   21.2595 C   0  0  0  0  0  0  0  0  0  0  0  0
  -19.9702  -17.9381   26.2346 C   0  0  0  0  0  0  0  0  0  0  0  0
  -19.1427  -20.4825   28.0686 C   0  0  0  0  0  0  0  0  0  0  0  0
  -20.1356  -23.0029   30.1443 C   0  0  0  0  0  0  0  0  0  0  0  0
  -30.7290  -14.7644   20.6577 C   0  0  0  0  0  0  0  0  0  0  0  0
  -16.1385  -15.4985   23.9057 C   0  0  0  0  0  0  0  0  0  0  0  0
  -21.1035  -17.3764   28.4154 C   0  0  0  0  0  0  0  0  0  0  0  0
  -21.6042  -20.1767   27.6076 C   0  0  0  0  0  0  0  0  0  0  0  0
  -16.4297  -16.9422   24.3072 C   0  0  0  0  0  0  0  0  0  0  0  0
  -29.6146  -12.3499   18.2901 C   0  0  0  0  0  0  0  0  0  0  0  0
  -17.8291  -17.3496   23.8573 C   0  0  0  0  0  0  0  0  0  0  0  0
  -28.1744  -12.0598   18.7187 C   0  0  0  0  0  0  0  0  0  0  0  0
  -30.5289  -12.5788   19.4924 C   0  0  0  0  0  0  0  0  0  0  0  0
  -28.6214  -13.3057   20.8715 C   0  0  0  0  0  0  0  0  0  0  0  0
  -18.8992  -16.4791   24.5272 C   0  0  1  0  0  0  0  0  0  0  0  0
  -20.0390  -18.2115   27.7104 C   0  0  1  0  0  0  0  0  0  0  0  0
  -27.6494  -13.1325   19.6930 C   0  0  2  0  0  0  0  0  0  0  0  0
  -19.2366  -24.9443   31.4557 C   0  0  0  0  0  0  0  0  0  0  0  0
  -18.8606  -22.0901   25.4906 C   0  0  0  0  0  0  0  0  0  0  0  0
  -18.9063  -24.1788   26.8703 C   0  0  0  0  0  0  0  0  0  0  0  0
  -17.0732  -22.5168   27.1869 C   0  0  0  0  0  0  0  0  0  0  0  0
  -21.0681  -21.8531   32.7070 C   0  0  0  0  0  0  0  0  0  0  0  0
  -26.5755  -20.2293   26.5607 C   0  0  0  0  0  0  0  0  0  1  0  0
  -19.3992  -21.9691   28.0128 C   0  0  1  0  0  0  0  0  0  0  0  0
  -19.6049  -23.4692   31.4880 C   0  0  2  0  0  0  0  0  0  0  0  0
  -18.5812  -22.6700   26.8915 C   0  0  0  0  0  0  0  0  0  0  0  0
  -25.8605  -11.5429   20.2884 N   0  0  0  0  0  0  0  0  0  0  0  0
  -26.2385  -12.8261   20.1595 N   0  0  0  0  0  0  0  0  0  0  0  0
  -29.6738  -19.2065   24.7876 N   0  0  0  0  0  0  0  0  0  0  0  0
  -20.2539  -19.6513   27.8685 N   0  0  0  0  0  0  0  0  0  0  0  0
  -29.9701  -13.6106   20.3686 N   0  0  0  0  0  0  0  0  0  0  0  0
  -25.4737  -15.0544   20.4054 N   0  0  0  0  0  0  0  0  0  0  0  0
  -21.8857  -12.5838   21.5965 N   0  0  0  0  0  0  0  0  0  0  0  0
  -30.0817  -15.6905   21.4749 N   0  0  0  0  0  0  0  0  0  0  0  0
  -19.1165  -16.9068   25.8926 N   0  0  0  0  0  0  0  0  0  0  0  0
  -19.1345  -22.4797   29.3536 N   0  0  0  0  0  0  0  0  0  0  0  0
  -20.6307  -23.2641   32.5495 N   0  3  0  0  0  0  0  0  0  0  0  0
  -31.1235  -21.0346   25.0858 O   0  0  0  0  0  0  0  0  0  0  0  0
  -27.6932  -17.9581   24.9872 O   0  0  0  0  0  0  0  0  0  0  0  0
  -22.6634  -14.7228   21.3158 O   0  0  0  0  0  0  0  0  0  0  0  0
  -20.6408  -18.6140   25.4630 O   0  0  0  0  0  0  0  0  0  0  0  0
  -17.9998  -20.0739   28.2889 O   0  0  0  0  0  0  0  0  0  0  0  0
  -21.3191  -23.0970   29.8265 O   0  0  0  0  0  0  0  0  0  0  0  0
  -31.8587  -14.9319   20.1909 O   0  0  0  0  0  0  0  0  0  0  0  0
  -21.6078   -7.0210   21.7082 O   0  0  0  0  0  0  0  0  0  0  0  0
  -26.3955  -19.1895   27.5214 O   0  0  0  0  0  0  0  0  0  1  0  0
  -16.4431   -6.8394   19.7856 F   0  0  0  0  0  0  0  0  0  0  0  0
  -20.8292   -5.0644   19.9170 F   0  0  0  0  0  0  0  0  0  0  0  0
  1  2  1  0  0  0  0
  1  6  2  0  0  0  0
  2  7  2  0  0  0  0
  3  9  2  0  0  0  0
  3 10  1  0  0  0  0
  4 11  2  0  0  0  0
  4 19  1  0  0  0  0
  5 12  1  0  0  0  0
  5 19  2  0  0  0  0
  6 21  1  0  0  0  0
  7 23  1  0  0  0  0
  8 13  2  0  0  0  0
  8 22  1  0  0  0  0
  9 25  1  0  0  0  0
 10 26  2  0  0  0  0
 11 27  1  0  0  0  0
 12 27  2  0  0  0  0
 13 28  1  0  0  0  0
 14 15  2  0  0  0  0
 14 29  1  0  0  0  0
 15 30  1  0  0  0  0
 16 24  1  0  0  0  0
 16 28  2  0  0  0  0
 17 25  2  0  0  0  0
 17 26  1  0  0  0  0
 18 30  2  0  0  0  0
 18 31  1  0  0  0  0
 19 32  1  0  0  0  0
 20 32  1  0  0  0  0
 20 33  2  0  0  0  0
 20 38  1  0  0  0  0
 21 23  2  0  0  0  0
 21 43  1  0  0  0  0
 22 24  2  0  0  0  0
 22 44  1  0  0  0  0
 23 52  1  0  0  0  0
 24 45  1  0  0  0  0
 25 66  1  0  0  0  0
 26 71  1  0  0  0  0
 27 82  1  0  0  0  0
 28 83  1  0  0  0  0
 29 31  2  0  0  0  0
 29 82  1  0  0  0  0
 30 84  1  0  0  0  0
 31 85  1  0  0  0  0
 32 64  2  0  0  0  0
 33 65  1  0  0  0  0
 33 69  1  0  0  0  0
 34 35  2  0  0  0  0
 34 36  1  0  0  0  0
 35 37  1  0  0  0  0
 35 60  1  0  0  0  0
 36 66  1  0  0  0  0
 36 75  2  0  0  0  0
 37 66  1  0  0  0  0
 37 76  2  0  0  0  0
 38 70  1  0  0  0  0
 38 77  2  0  0  0  0
 39 53  1  0  0  0  0
 39 72  1  0  0  0  0
 39 78  2  0  0  0  0
 40 61  1  0  0  0  0
 40 67  1  0  0  0  0
 40 79  2  0  0  0  0
 41 62  1  0  0  0  0
 41 73  1  0  0  0  0
 41 80  2  0  0  0  0
 42 68  1  0  0  0  0
 42 71  1  0  0  0  0
 42 81  2  0  0  0  0
 43 46  1  0  0  0  0
 44 53  1  0  0  0  0
 45 67  1  0  0  0  0
 46 48  1  0  0  0  0
 47 49  1  0  0  0  0
 47 50  1  0  0  0  0
 48 52  1  0  0  0  0
 49 54  1  0  0  0  0
 50 68  1  0  0  0  0
 51 54  1  0  0  0  0
 51 68  1  0  0  0  0
 52 72  1  0  0  0  0
 53 67  1  0  0  0  0
 54 65  1  0  0  0  0
 55 62  1  0  0  0  0
 56 63  1  0  0  0  0
 57 63  1  0  0  0  0
 58 63  1  0  0  0  0
 59 74  1  0  0  0  0
 60 83  1  0  0  0  0
 61 63  1  0  0  0  0
 61 73  1  0  0  0  0
 62 74  1  0  0  0  0
 64 65  1  0  0  0  0
M  CHG  1  74   1
M  ISO  4  42 100  60 101  71 100  83 101
M  END
> <Batch ID>
0085

> <Smiles>
CNC(C)C(=O)NC(C(=O)N1Cc2cc([101O:1][101CH2:1]C3=CC(=O)N(c4cccc([100NH:0][100C:0](=O)N5CCCC(n6nc(-c7ccc(Oc8ccc(F)cc8F)cc7)c(C(N)=O)c6N)C5)c4)C3=O)ccc2CC1C(=O)NC1CCCc2ccccc21)C(C)(C)C

> <Shape>
0.145

> <Color>
0.187

> <Negative vol penalty>
0.000

$$$$

  -OEChem-04052300153D

 85 93  0     1  0  0  0  0  0999 V2000
  -21.4617  -34.3463   15.6397 C   0  0  0  0  0  0  0  0  0  0  0  0
  -22.3235  -33.2544   15.6628 C   0  0  0  0  0  0  0  0  0  0  0  0
  -32.7986  -20.0577   23.0275 C   0  0  0  0  0  0  0  0  0  0  0  0
  -23.1996  -10.3297   20.0937 C   0  0  0  0  0  0  0  0  0  0  0  0
  -23.1974  -10.5147   22.5027 C   0  0  0  0  0  0  0  0  0  0  0  0
  -31.8137  -19.1475   23.4110 C   0  0  0  0  0  0  0  0  0  0  0  0
  -21.4844  -35.2729   16.6813 C   0  0  0  0  0  0  0  0  0  0  0  0
  -23.2092  -33.0891   16.7270 C   0  0  0  0  0  0  0  0  0  0  0  0
  -25.0448  -27.7959   19.2007 C   0  0  0  0  0  0  0  0  0  0  0  0
  -32.4449  -21.2218   22.3452 C   0  0  0  0  0  0  0  0  0  0  0  0
  -23.2727   -8.9409   20.2004 C   0  0  0  0  0  0  0  0  0  0  0  0
  -23.2704   -9.1259   22.6094 C   0  0  0  0  0  0  0  0  0  0  0  0
  -26.1943  -27.0270   19.0246 C   0  0  0  0  0  0  0  0  0  0  0  0
  -21.1624   -6.4961   22.3624 C   0  0  0  0  0  0  0  0  0  0  0  0
  -20.3220   -5.8735   23.2852 C   0  0  0  0  0  0  0  0  0  0  0  0
  -30.1213  -20.5654   22.4299 C   0  0  0  0  0  0  0  0  0  0  0  0
  -27.1795  -28.0663   20.9658 C   0  0  0  0  0  0  0  0  0  0  0  0
  -22.2491   -4.9874   24.4422 C   0  0  0  0  0  0  0  0  0  0  0  0
  -23.1621  -11.1167   21.2449 C   0  0  0  0  0  0  0  0  0  0  0  0
  -30.4751  -19.4014   23.1122 C   0  0  0  0  0  0  0  0  0  0  0  0
  -21.9224  -13.3397   21.0739 C   0  0  0  0  0  0  0  0  0  0  0  0
  -22.3641  -35.1136   17.7635 C   0  0  0  0  0  0  0  0  0  0  0  0
  -24.9581  -28.7152   20.2560 C   0  0  0  0  0  0  0  0  0  0  0  0
  -23.2446  -34.0151   17.7833 C   0  0  0  0  0  0  0  0  0  0  0  0
  -26.0268  -28.8438   21.1546 C   0  0  0  0  0  0  0  0  0  0  0  0
  -31.1063  -21.4757   22.0464 C   0  0  0  0  0  0  0  0  0  0  0  0
  -23.3081   -8.3390   21.4582 C   0  0  0  0  0  0  0  0  0  0  0  0
  -27.2631  -27.1642   19.9055 C   0  0  0  0  0  0  0  0  0  0  0  0
  -22.5461   -6.3644   22.4793 C   0  0  0  0  0  0  0  0  0  0  0  0
  -20.8654   -5.1192   24.3252 C   0  0  0  0  0  0  0  0  0  0  0  0
  -23.0894   -5.6100   23.5192 C   0  0  0  0  0  0  0  0  0  0  0  0
  -23.0872  -12.5514   21.1353 C   0  0  0  0  0  0  0  0  0  0  0  0
  -22.3852  -14.6291   20.9762 C   0  0  0  0  0  0  0  0  0  0  0  0
  -28.4499  -25.1999   20.3570 C   0  0  0  0  0  0  0  0  0  1  0  0
  -29.4307  -18.4379   23.5186 C   0  0  0  0  0  0  0  0  0  0  0  0
  -20.5452  -12.9418   21.1027 C   0  0  0  0  0  0  0  0  0  0  0  0
  -29.5050  -24.3822   20.2590 C   0  0  0  0  0  0  0  0  0  0  0  0
  -29.4760  -23.0676   20.9795 C   0  0  0  0  0  0  0  0  0  0  0  0
  -24.6123  -31.8683   20.4616 C   0  0  0  0  0  0  0  0  0  0  0  0
  -24.3823  -31.2446   23.6366 C   0  0  0  0  0  0  0  0  0  0  0  0
  -25.0926  -29.1517   26.2370 C   0  0  0  0  0  0  0  0  0  0  0  0
  -27.6122  -16.9241   22.7582 C   0  0  0  0  0  0  0  0  0  0  0  0
  -22.3852  -36.1668   18.8429 C   0  0  0  0  0  0  0  0  0  0  0  0
  -23.7006  -29.5179   20.4481 C   0  0  0  0  0  0  0  0  0  0  0  0
  -25.9757  -29.8018   22.3157 C   0  0  0  0  0  0  0  0  0  0  0  0
  -23.0924  -35.7172   20.1189 C   0  0  0  0  0  0  0  0  0  0  0  0
  -26.0731  -17.1909   19.3941 C   0  0  0  0  0  0  0  0  0  0  0  0
  -24.4199  -35.0442   19.7847 C   0  0  0  0  0  0  0  0  0  0  0  0
  -25.0783  -16.0364   19.4431 C   0  0  0  0  0  0  0  0  0  0  0  0
  -27.3263  -16.9092   20.2218 C   0  0  0  0  0  0  0  0  0  0  0  0
  -26.0263  -15.3784   21.6856 C   0  0  0  0  0  0  0  0  0  0  0  0
  -24.2025  -33.7879   18.9327 C   0  0  1  0  0  0  0  0  0  0  0  0
  -23.9234  -30.7937   21.2543 C   0  0  1  0  0  0  0  0  0  0  0  0
  -24.7429  -15.6797   20.8983 C   0  0  2  0  0  0  0  0  0  0  0  0
  -24.8081  -28.9285   28.7203 C   0  0  0  0  0  0  0  0  0  0  0  0
  -26.6006  -33.2938   24.0725 C   0  0  0  0  0  0  0  0  0  0  0  0
  -26.9232  -32.3525   26.3699 C   0  0  0  0  0  0  0  0  0  0  0  0
  -24.7443  -33.3941   25.7454 C   0  0  0  0  0  0  0  0  0  0  0  0
  -23.5195  -26.6614   25.9497 C   0  0  0  0  0  0  0  0  0  0  0  0
  -25.3630  -31.1410   24.7796 C   0  0  1  0  0  0  0  0  0  0  0  0
  -24.2240  -28.6028   27.3545 C   0  0  2  0  0  0  0  0  0  0  0  0
  -25.9098  -32.5286   25.2189 C   0  0  0  0  0  0  0  0  0  0  0  0
  -24.2058  -13.2793   21.0809 N   0  0  0  0  0  0  0  0  0  0  0  0
  -23.7460  -14.5384   20.9843 N   0  0  0  0  0  0  0  0  0  0  0  0
  -24.7271  -30.5689   22.4575 N   0  0  0  0  0  0  0  0  0  0  0  0
  -27.0005  -16.4706   21.5858 N   0  0  0  0  0  0  0  0  0  0  0  0
  -21.7568  -15.8204   20.8848 N   0  0  0  0  0  0  0  0  0  0  0  0
  -20.2462  -11.5765   21.2066 N   0  0  0  0  0  0  0  0  0  0  0  0
  -30.7482  -22.6574   21.3539 N   0  0  0  0  0  0  0  0  0  0  0  0
  -28.6772  -17.8829   22.5567 N   0  0  0  0  0  0  0  0  0  0  0  0
  -23.7509  -32.6889   19.7588 N   0  0  0  0  0  0  0  0  0  0  0  0
  -24.6799  -30.4055   25.8382 N   0  0  0  0  0  0  0  0  0  0  0  0
  -29.2988  -18.1840   24.8204 N   0  3  0  0  0  0  0  0  0  0  0  0
  -24.1022  -27.1223   27.2362 N   0  3  0  0  0  0  0  0  0  0  0  0
  -19.6076  -13.7712   21.0218 O   0  0  0  0  0  0  0  0  0  0  0  0
  -28.4173  -22.4815   21.1786 O   0  0  0  0  0  0  0  0  0  0  0  0
  -25.8349  -31.9480   20.4870 O   0  0  0  0  0  0  0  0  0  0  0  0
  -23.3450  -31.8951   23.7869 O   0  0  0  0  0  0  0  0  0  0  0  0
  -26.0445  -28.5320   25.7676 O   0  0  0  0  0  0  0  0  0  0  0  0
  -27.3372  -16.5553   23.8950 O   0  0  0  0  0  0  0  0  0  0  0  0
  -30.6242  -24.7005   19.5168 O   0  0  0  0  0  0  0  0  0  0  0  0
  -23.3791   -6.9837   21.5627 O   0  0  0  0  0  0  0  0  0  0  0  0
  -28.3866  -26.4154   19.7355 O   0  0  0  0  0  0  0  0  0  1  0  0
  -20.0583   -4.5226   25.2122 F   0  0  0  0  0  0  0  0  0  0  0  0
  -24.4180   -5.4808   23.6374 F   0  0  0  0  0  0  0  0  0  0  0  0
  1  2  1  0  0  0  0
  1  7  2  0  0  0  0
  2  8  2  0  0  0  0
  3  6  1  0  0  0  0
  3 10  2  0  0  0  0
  4 11  2  0  0  0  0
  4 19  1  0  0  0  0
  5 12  1  0  0  0  0
  5 19  2  0  0  0  0
  6 20  2  0  0  0  0
  7 22  1  0  0  0  0
  8 24  1  0  0  0  0
  9 13  2  0  0  0  0
  9 23  1  0  0  0  0
 10 26  1  0  0  0  0
 11 27  1  0  0  0  0
 12 27  2  0  0  0  0
 13 28  1  0  0  0  0
 14 15  2  0  0  0  0
 14 29  1  0  0  0  0
 15 30  1  0  0  0  0
 16 20  1  0  0  0  0
 16 26  2  0  0  0  0
 17 25  1  0  0  0  0
 17 28  2  0  0  0  0
 18 30  2  0  0  0  0
 18 31  1  0  0  0  0
 19 32  1  0  0  0  0
 20 35  1  0  0  0  0
 21 32  1  0  0  0  0
 21 33  2  0  0  0  0
 21 36  1  0  0  0  0
 22 24  2  0  0  0  0
 22 43  1  0  0  0  0
 23 25  2  0  0  0  0
 23 44  1  0  0  0  0
 24 52  1  0  0  0  0
 25 45  1  0  0  0  0
 26 69  1  0  0  0  0
 27 82  1  0  0  0  0
 28 83  1  0  0  0  0
 29 31  2  0  0  0  0
 29 82  1  0  0  0  0
 30 84  1  0  0  0  0
 31 85  1  0  0  0  0
 32 63  2  0  0  0  0
 33 64  1  0  0  0  0
 33 67  1  0  0  0  0
 34 37  2  0  0  0  0
 34 83  1  0  0  0  0
 35 70  1  0  0  0  0
 35 73  2  0  0  0  0
 36 68  1  0  0  0  0
 36 75  2  0  0  0  0
 37 38  1  0  0  0  0
 37 81  1  0  0  0  0
 38 69  1  0  0  0  0
 38 76  2  0  0  0  0
 39 53  1  0  0  0  0
 39 71  1  0  0  0  0
 39 77  2  0  0  0  0
 40 60  1  0  0  0  0
 40 65  1  0  0  0  0
 40 78  2  0  0  0  0
 41 61  1  0  0  0  0
 41 72  1  0  0  0  0
 41 79  2  0  0  0  0
 42 66  1  0  0  0  0
 42 70  1  0  0  0  0
 42 80  2  0  0  0  0
 43 46  1  0  0  0  0
 44 53  1  0  0  0  0
 45 65  1  0  0  0  0
 46 48  1  0  0  0  0
 47 49  1  0  0  0  0
 47 50  1  0  0  0  0
 48 52  1  0  0  0  0
 49 54  1  0  0  0  0
 50 66  1  0  0  0  0
 51 54  1  0  0  0  0
 51 66  1  0  0  0  0
 52 71  1  0  0  0  0
 53 65  1  0  0  0  0
 54 64  1  0  0  0  0
 55 61  1  0  0  0  0
 56 62  1  0  0  0  0
 57 62  1  0  0  0  0
 58 62  1  0  0  0  0
 59 74  1  0  0  0  0
 60 62  1  0  0  0  0
 60 72  1  0  0  0  0
 61 74  1  0  0  0  0
 63 64  1  0  0  0  0
M  CHG  2  73   1  74   1
M  ISO  4  34 101  42 100  70 100  83 101
M  END
> <Batch ID>
0085

> <Smiles>
CNC(C)C(=O)NC(C(=O)N1Cc2cc([101O:1][101CH2:1]C(=O)C(=O)Nc3cccc(C(=N)[100NH:0][100C:0](=O)N4CCCC(n5nc(-c6ccc(Oc7ccc(F)cc7F)cc6)c(C(N)=O)c5N)C4)c3)ccc2CC1C(=O)NC1CCCc2ccccc21)C(C)(C)C

> <Shape>
0.252

> <Color>
0.097

> <Negative vol penalty>
0.000

$$$$

  -OEChem-04052300153D

 86 95  0     1  0  0  0  0  0999 V2000
  -30.8636  -35.8614   20.2622 C   0  0  0  0  0  0  0  0  0  0  0  0
  -30.4921  -34.6869   19.6156 C   0  0  0  0  0  0  0  0  0  0  0  0
  -23.0060   -9.8956   20.0652 C   0  0  0  0  0  0  0  0  0  0  0  0
  -24.3966   -9.2546   21.9340 C   0  0  0  0  0  0  0  0  0  0  0  0
  -30.5641  -36.0371   21.6125 C   0  0  0  0  0  0  0  0  0  0  0  0
  -29.8217  -33.6870   20.3192 C   0  0  0  0  0  0  0  0  0  0  0  0
  -25.4964  -29.9301   18.1552 C   0  0  0  0  0  0  0  0  0  0  0  0
  -27.5319  -20.0785   18.4306 C   0  0  0  0  0  0  0  0  0  0  0  0
  -27.6784  -18.7161   18.1702 C   0  0  0  0  0  0  0  0  0  0  0  0
  -22.3750   -8.6524   20.1083 C   0  0  0  0  0  0  0  0  0  0  0  0
  -23.7657   -8.0113   21.9771 C   0  0  0  0  0  0  0  0  0  0  0  0
  -25.5416  -28.6158   17.6921 C   0  0  0  0  0  0  0  0  0  0  0  0
  -20.8559   -6.7353   23.1285 C   0  0  0  0  0  0  0  0  0  0  0  0
  -20.4703   -6.2489   24.3776 C   0  0  0  0  0  0  0  0  0  0  0  0
  -24.8757  -27.8306   19.8737 C   0  0  0  0  0  0  0  0  0  0  0  0
  -26.1114  -18.8974   16.3402 C   0  0  0  0  0  0  0  0  0  0  0  0
  -21.8865   -4.3169   24.0624 C   0  0  0  0  0  0  0  0  0  0  0  0
  -24.0168  -10.1967   20.9780 C   0  0  0  0  0  0  0  0  0  0  0  0
  -24.2900  -12.6511   21.6177 C   0  0  0  0  0  0  0  0  0  0  0  0
  -29.8811  -35.0429   22.3306 C   0  0  0  0  0  0  0  0  0  0  0  0
  -25.1505  -30.2042   19.4863 C   0  0  0  0  0  0  0  0  0  0  0  0
  -29.5139  -33.8491   21.6808 C   0  0  0  0  0  0  0  0  0  0  0  0
  -24.8244  -29.1493   20.3505 C   0  0  0  0  0  0  0  0  0  0  0  0
  -26.6751  -20.8504   17.6459 C   0  0  0  0  0  0  0  0  0  0  0  0
  -26.9682  -18.1255   17.1250 C   0  0  0  0  0  0  0  0  0  0  0  0
  -22.7548   -7.7102   21.0642 C   0  0  0  0  0  0  0  0  0  0  0  0
  -25.2340  -27.5657   18.5521 C   0  0  0  0  0  0  0  0  0  0  0  0
  -21.7567   -6.0125   22.3462 C   0  0  0  0  0  0  0  0  0  0  0  0
  -20.9856   -5.0397   24.8446 C   0  0  0  0  0  0  0  0  0  0  0  0
  -25.9649  -20.2599   16.6007 C   0  0  0  0  0  0  0  0  0  0  0  0
  -22.2720   -4.8033   22.8132 C   0  0  0  0  0  0  0  0  0  0  0  0
  -24.6694  -11.4806   20.9337 C   0  0  0  0  0  0  0  0  0  0  0  0
  -25.2247  -13.5854   21.2438 C   0  0  0  0  0  0  0  0  0  0  0  0
  -26.2643  -24.1243   18.3569 C   0  0  0  0  0  0  0  0  0  0  0  0
  -27.0862  -23.0116   18.8343 C   0  0  0  0  0  0  0  0  0  0  0  0
  -26.1372  -25.4144   18.7167 C   0  0  0  0  0  0  0  0  0  1  0  0
  -26.1025  -15.9361   16.3137 C   0  0  0  0  0  0  0  0  0  0  0  0
  -23.1911  -12.8737   22.5113 C   0  0  0  0  0  0  0  0  0  0  0  0
  -26.6261  -31.5601   21.9536 C   0  0  0  0  0  0  0  0  0  0  0  0
  -23.7284  -31.2226   23.3719 C   0  0  0  0  0  0  0  0  0  0  0  0
  -20.7423  -29.5756   23.5053 C   0  0  0  0  0  0  0  0  0  0  0  0
  -28.2799  -16.0447   17.2605 C   0  0  0  0  0  0  0  0  0  0  0  0
  -29.6212  -35.2582   23.8006 C   0  0  0  0  0  0  0  0  0  0  0  0
  -25.0805  -31.6290   19.9631 C   0  0  0  0  0  0  0  0  0  0  0  0
  -24.4273  -29.3916   21.7830 C   0  0  0  0  0  0  0  0  0  0  0  0
  -25.6559  -23.1981   17.3289 C   0  0  0  0  0  0  0  0  0  0  0  0
  -28.5770  -34.3075   24.3801 C   0  0  0  0  0  0  0  0  0  0  0  0
  -29.5959  -13.0829   18.7688 C   0  0  0  0  0  0  0  0  0  0  0  0
  -28.8500  -32.8759   23.9297 C   0  0  0  0  0  0  0  0  0  0  0  0
  -28.3962  -12.4793   19.4972 C   0  0  0  0  0  0  0  0  0  0  0  0
  -29.1751  -13.7380   17.4580 C   0  0  0  0  0  0  0  0  0  0  0  0
  -26.9074  -14.1866   18.3518 C   0  0  0  0  0  0  0  0  0  0  0  0
  -28.7635  -32.7517   22.4038 C   0  0  1  0  0  0  0  0  0  0  0  0
  -25.2152  -31.7598   21.4771 C   0  0  1  0  0  0  0  0  0  0  0  0
  -27.2864  -13.5268   19.6903 C   0  0  1  0  0  0  0  0  0  0  0  0
  -18.5915  -29.4979   24.7958 C   0  0  0  0  0  0  0  0  0  0  0  0
  -25.1528  -29.7840   25.6547 C   0  0  0  0  0  0  0  0  0  0  0  0
  -22.9268  -28.9179   26.4052 C   0  0  0  0  0  0  0  0  0  0  0  0
  -23.3633  -31.3738   26.3789 C   0  0  0  0  0  0  0  0  0  0  0  0
  -19.1440  -30.2465   21.1065 C   0  0  0  0  0  0  0  0  0  0  0  0
  -23.0575  -30.1458   24.1902 C   0  0  1  0  0  0  0  0  0  0  0  0
  -19.3146  -30.0840   23.5932 C   0  0  2  0  0  0  0  0  0  0  0  0
  -23.6345  -30.0504   25.6308 C   0  0  0  0  0  0  0  0  0  0  0  0
  -25.7599  -11.6531   20.1820 N   0  0  0  0  0  0  0  0  0  0  0  0
  -26.0737  -12.9430   20.3915 N   0  0  0  0  0  0  0  0  0  0  0  0
  -26.5325  -22.1938   17.9050 N   0  0  0  0  0  0  0  0  0  0  0  0
  -24.3795  -30.8017   22.2037 N   0  0  0  0  0  0  0  0  0  0  0  0
  -28.1019  -14.7098   17.6710 N   0  0  0  0  0  0  0  0  0  0  0  0
  -25.3948  -14.8858   21.5642 N   0  0  0  0  0  0  0  0  0  0  0  0
  -22.3270  -11.8053   22.7869 N   0  0  0  0  0  0  0  0  0  0  0  0
  -27.3811  -32.7173   21.9771 N   0  0  0  0  0  0  0  0  0  0  0  0
  -21.6265  -30.4246   24.1368 N   0  0  0  0  0  0  0  0  0  0  0  0
  -27.1199  -16.7158   16.8557 N   0  0  0  0  0  0  0  0  0  0  0  0
  -18.5571  -29.7156   22.3638 N   0  3  0  0  0  0  0  0  0  0  0  0
  -27.9140  -22.8678   19.7098 O   0  0  0  0  0  0  0  0  0  0  0  0
  -24.8893  -16.1052   16.3333 O   0  0  0  0  0  0  0  0  0  0  0  0
  -22.9722  -13.9916   23.0366 O   0  0  0  0  0  0  0  0  0  0  0  0
  -27.0016  -30.4395   22.2775 O   0  0  0  0  0  0  0  0  0  0  0  0
  -23.6705  -32.3949   23.7514 O   0  0  0  0  0  0  0  0  0  0  0  0
  -21.0426  -28.5282   22.9369 O   0  0  0  0  0  0  0  0  0  0  0  0
  -29.3816  -16.6040   17.2273 O   0  0  0  0  0  0  0  0  0  0  0  0
  -22.1392   -6.4971   21.1067 O   0  0  0  0  0  0  0  0  0  0  0  0
  -25.2779  -26.2819   18.1028 O   0  0  0  0  0  0  0  0  0  1  0  0
  -20.6164   -4.5735   26.0448 F   0  0  0  0  0  0  0  0  0  0  0  0
  -25.1380  -20.9919   15.8403 F   0  0  0  0  0  0  0  0  0  0  0  0
  -23.1387   -4.1051   22.0668 F   0  0  0  0  0  0  0  0  0  0  0  0
  1  2  1  0  0  0  0
  1  5  2  0  0  0  0
  2  6  2  0  0  0  0
  3 10  2  0  0  0  0
  3 18  1  0  0  0  0
  4 11  1  0  0  0  0
  4 18  2  0  0  0  0
  5 20  1  0  0  0  0
  6 22  1  0  0  0  0
  7 12  2  0  0  0  0
  7 21  1  0  0  0  0
  8  9  2  0  0  0  0
  8 24  1  0  0  0  0
  9 25  1  0  0  0  0
 10 26  1  0  0  0  0
 11 26  2  0  0  0  0
 12 27  1  0  0  0  0
 13 14  2  0  0  0  0
 13 28  1  0  0  0  0
 14 29  1  0  0  0  0
 15 23  1  0  0  0  0
 15 27  2  0  0  0  0
 16 25  2  0  0  0  0
 16 30  1  0  0  0  0
 17 29  2  0  0  0  0
 17 31  1  0  0  0  0
 18 32  1  0  0  0  0
 19 32  1  0  0  0  0
 19 33  2  0  0  0  0
 19 38  1  0  0  0  0
 20 22  2  0  0  0  0
 20 43  1  0  0  0  0
 21 23  2  0  0  0  0
 21 44  1  0  0  0  0
 22 53  1  0  0  0  0
 23 45  1  0  0  0  0
 24 30  2  0  0  0  0
 24 66  1  0  0  0  0
 25 73  1  0  0  0  0
 26 82  1  0  0  0  0
 27 83  1  0  0  0  0
 28 31  2  0  0  0  0
 28 82  1  0  0  0  0
 29 84  1  0  0  0  0
 30 85  1  0  0  0  0
 31 86  1  0  0  0  0
 32 64  2  0  0  0  0
 33 65  1  0  0  0  0
 33 69  1  0  0  0  0
 34 35  1  0  0  0  0
 34 36  2  0  0  0  0
 34 46  1  0  0  0  0
 35 66  1  0  0  0  0
 35 75  2  0  0  0  0
 36 83  1  0  0  0  0
 37 73  1  0  0  0  0
 37 76  2  0  0  0  0
 38 70  1  0  0  0  0
 38 77  2  0  0  0  0
 39 54  1  0  0  0  0
 39 71  1  0  0  0  0
 39 78  2  0  0  0  0
 40 61  1  0  0  0  0
 40 67  1  0  0  0  0
 40 79  2  0  0  0  0
 41 62  1  0  0  0  0
 41 72  1  0  0  0  0
 41 80  2  0  0  0  0
 42 68  1  0  0  0  0
 42 73  1  0  0  0  0
 42 81  2  0  0  0  0
 43 47  1  0  0  0  0
 44 54  1  0  0  0  0
 45 67  1  0  0  0  0
 46 66  1  0  0  0  0
 47 49  1  0  0  0  0
 48 50  1  0  0  0  0
 48 51  1  0  0  0  0
 49 53  1  0  0  0  0
 50 55  1  0  0  0  0
 51 68  1  0  0  0  0
 52 55  1  0  0  0  0
 52 68  1  0  0  0  0
 53 71  1  0  0  0  0
 54 67  1  0  0  0  0
 55 65  1  0  0  0  0
 56 62  1  0  0  0  0
 57 63  1  0  0  0  0
 58 63  1  0  0  0  0
 59 63  1  0  0  0  0
 60 74  1  0  0  0  0
 61 63  1  0  0  0  0
 61 72  1  0  0  0  0
 62 74  1  0  0  0  0
 64 65  1  0  0  0  0
M  CHG  1  74   1
M  ISO  4  36 101  42 100  73 100  83 101
M  END
> <Batch ID>
0085

> <Smiles>
CNC(C)C(=O)NC(C(=O)N1Cc2cc([101O:1][101CH:1]=C3CN(c4ccc([100N:0](C=O)[100C:0](=O)N5CCCC(n6nc(-c7ccc(Oc8ccc(F)cc8F)cc7)c(C(N)=O)c6N)C5)cc4F)C3=O)ccc2CC1C(=O)NC1CCCc2ccccc21)C(C)(C)C

> <Shape>
0.266

> <Color>
0.139

> <Negative vol penalty>
0.000

$$$$

  -OEChem-04052300153D

 84 93  0     1  0  0  0  0  0999 V2000
  -28.1235  -37.5461   22.5961 C   0  0  0  0  0  0  0  0  0  0  0  0
  -28.4037  -36.5095   21.7115 C   0  0  0  0  0  0  0  0  0  0  0  0
  -24.7986   -8.9763   21.1195 C   0  0  0  0  0  0  0  0  0  0  0  0
  -23.4237  -10.9525   21.3237 C   0  0  0  0  0  0  0  0  0  0  0  0
  -27.5667  -37.2654   23.8431 C   0  0  0  0  0  0  0  0  0  0  0  0
  -28.1284  -35.1915   22.0740 C   0  0  0  0  0  0  0  0  0  0  0  0
  -26.0892  -28.9335   19.2464 C   0  0  0  0  0  0  0  0  0  0  0  0
  -24.0504   -8.3526   22.1179 C   0  0  0  0  0  0  0  0  0  0  0  0
  -22.6754  -10.3287   22.3221 C   0  0  0  0  0  0  0  0  0  0  0  0
  -26.4741  -27.5941   19.2044 C   0  0  0  0  0  0  0  0  0  0  0  0
  -21.0619   -6.7936   22.3844 C   0  0  0  0  0  0  0  0  0  0  0  0
  -20.6650   -5.4740   22.1682 C   0  0  0  0  0  0  0  0  0  0  0  0
  -25.4388  -27.2355   21.3535 C   0  0  0  0  0  0  0  0  0  0  0  0
  -28.8352  -19.1507   20.0058 C   0  0  0  0  0  0  0  0  0  0  0  0
  -21.8761   -4.7864   24.1424 C   0  0  0  0  0  0  0  0  0  0  0  0
  -26.6615  -18.6654   20.1326 C   0  0  0  0  0  0  0  0  0  0  0  0
  -24.4853  -10.2763   20.7224 C   0  0  0  0  0  0  0  0  0  0  0  0
  -25.0151  -10.8958   18.3052 C   0  0  0  0  0  0  0  0  0  0  0  0
  -27.2754  -35.9441   24.2173 C   0  0  0  0  0  0  0  0  0  0  0  0
  -25.3845  -29.4373   20.3491 C   0  0  0  0  0  0  0  0  0  0  0  0
  -27.5684  -34.8928   23.3278 C   0  0  0  0  0  0  0  0  0  0  0  0
  -25.0439  -28.5810   21.4059 C   0  0  0  0  0  0  0  0  0  0  0  0
  -27.9055  -18.0844   20.0496 C   0  0  0  0  0  0  0  0  0  0  0  0
  -22.9888   -9.0287   22.7191 C   0  0  0  0  0  0  0  0  0  0  0  0
  -26.1514  -26.7456   20.2593 C   0  0  0  0  0  0  0  0  0  0  0  0
  -21.8659   -7.1096   23.4795 C   0  0  0  0  0  0  0  0  0  0  0  0
  -21.0721   -4.4704   23.0472 C   0  0  0  0  0  0  0  0  0  0  0  0
  -22.2730   -6.1060   24.3586 C   0  0  0  0  0  0  0  0  0  0  0  0
  -25.2581  -10.9214   19.6916 C   0  0  0  0  0  0  0  0  0  0  0  0
  -26.0246  -11.6550   17.7656 C   0  0  0  0  0  0  0  0  0  0  0  0
  -28.0930  -20.3073   20.0651 C   0  0  0  0  0  0  0  0  0  0  0  0
  -28.3404  -23.9106   20.0931 C   0  0  0  0  0  0  0  0  0  0  0  0
  -29.7616  -23.5487   20.0025 C   0  0  0  0  0  0  0  0  0  0  0  0
  -27.5252  -22.6795   20.1282 C   0  0  0  0  0  0  0  0  0  0  0  0
  -27.8605  -25.1535   20.1368 C   0  0  0  0  0  0  0  0  0  1  0  0
  -23.9702  -10.2442   17.5708 C   0  0  0  0  0  0  0  0  0  0  0  0
  -25.9497  -31.6647   22.5452 C   0  0  0  0  0  0  0  0  0  0  0  0
  -22.8961  -31.0164   23.4268 C   0  0  0  0  0  0  0  0  0  0  0  0
  -20.3013  -28.8001   23.4692 C   0  0  0  0  0  0  0  0  0  0  0  0
  -29.4159  -16.0716   19.9328 C   0  0  0  0  0  0  0  0  0  0  0  0
  -26.7177  -35.6858   25.5945 C   0  0  0  0  0  0  0  0  0  0  0  0
  -24.9533  -30.8782   20.3670 C   0  0  0  0  0  0  0  0  0  0  0  0
  -24.2709  -29.0677   22.6034 C   0  0  0  0  0  0  0  0  0  0  0  0
  -29.8731  -22.0528   19.9770 C   0  0  0  0  0  0  0  0  0  0  0  0
  -26.1090  -34.2951   25.7542 C   0  0  0  0  0  0  0  0  0  0  0  0
  -30.5539  -12.9829   18.5756 C   0  0  0  0  0  0  0  0  0  0  0  0
  -27.0413  -33.2348   25.1768 C   0  0  0  0  0  0  0  0  0  0  0  0
  -29.3015  -12.1034   18.5759 C   0  0  0  0  0  0  0  0  0  0  0  0
  -30.6070  -13.8947   19.8002 C   0  0  0  0  0  0  0  0  0  0  0  0
  -28.1539  -13.8321   20.0188 C   0  0  0  0  0  0  0  0  0  0  0  0
  -27.2610  -33.4522   23.6748 C   0  0  1  0  0  0  0  0  0  0  0  0
  -24.6868  -31.4047   21.7738 C   0  0  1  0  0  0  0  0  0  0  0  0
  -28.0236  -12.9426   18.7715 C   0  0  2  0  0  0  0  0  0  0  0  0
  -17.9463  -28.5399   24.2960 C   0  0  0  0  0  0  0  0  0  0  0  0
  -23.9426  -30.5581   26.2560 C   0  0  0  0  0  0  0  0  0  0  0  0
  -21.7854  -29.4061   26.7925 C   0  0  0  0  0  0  0  0  0  0  0  0
  -21.7822  -31.8119   26.1332 C   0  0  0  0  0  0  0  0  0  0  0  0
  -19.2506  -28.4671   20.7226 C   0  0  0  0  0  0  0  0  0  0  0  0
  -22.2418  -30.0474   24.3818 C   0  0  1  0  0  0  0  0  0  0  0  0
  -18.8300  -28.9652   23.1338 C   0  0  2  0  0  0  0  0  0  0  0  0
  -22.4543  -30.4468   25.8693 C   0  0  0  0  0  0  0  0  0  0  0  0
  -26.3374  -11.6397   20.0127 N   0  0  0  0  0  0  0  0  0  0  0  0
  -26.7816  -12.0725   18.8205 N   0  0  0  0  0  0  0  0  0  0  0  0
  -28.4639  -21.6260   20.0581 N   0  0  0  0  0  0  0  0  0  0  0  0
  -23.8773  -30.4862   22.5772 N   0  0  0  0  0  0  0  0  0  0  0  0
  -29.3650  -14.6616   19.9188 N   0  0  0  0  0  0  0  0  0  0  0  0
  -26.3297  -11.9993   16.4965 N   0  0  0  0  0  0  0  0  0  0  0  0
  -23.0148   -9.5051   18.2815 N   0  0  0  0  0  0  0  0  0  0  0  0
  -28.1702  -16.6928   20.0164 N   0  0  0  0  0  0  0  0  0  0  0  0
  -26.1165  -32.9833   22.9235 N   0  0  0  0  0  0  0  0  0  0  0  0
  -20.8419  -29.9610   23.9804 N   0  0  0  0  0  0  0  0  0  0  0  0
  -18.4738  -28.1391   21.9457 N   0  3  0  0  0  0  0  0  0  0  0  0
  -30.6943  -24.3322   19.9556 O   0  0  0  0  0  0  0  0  0  0  0  0
  -26.3092  -22.6337   20.2019 O   0  0  0  0  0  0  0  0  0  0  0  0
  -23.8958  -10.3018   16.3199 O   0  0  0  0  0  0  0  0  0  0  0  0
  -26.7154  -30.7375   22.7810 O   0  0  0  0  0  0  0  0  0  0  0  0
  -22.5442  -32.1987   23.4294 O   0  0  0  0  0  0  0  0  0  0  0  0
  -20.9091  -27.7456   23.2987 O   0  0  0  0  0  0  0  0  0  0  0  0
  -30.4839  -16.6832   19.8476 O   0  0  0  0  0  0  0  0  0  0  0  0
  -26.7671  -20.0201   20.1425 O   0  0  0  0  0  0  0  0  0  0  0  0
  -22.2584   -8.4203   23.6932 O   0  0  0  0  0  0  0  0  0  0  0  0
  -26.5265  -25.4380   20.2211 O   0  0  0  0  0  0  0  0  0  1  0  0
  -20.6897   -3.2034   22.8404 F   0  0  0  0  0  0  0  0  0  0  0  0
  -23.0444   -6.4037   25.4131 F   0  0  0  0  0  0  0  0  0  0  0  0
  1  2  1  0  0  0  0
  1  5  2  0  0  0  0
  2  6  2  0  0  0  0
  3  8  2  0  0  0  0
  3 17  1  0  0  0  0
  4  9  1  0  0  0  0
  4 17  2  0  0  0  0
  5 19  1  0  0  0  0
  6 21  1  0  0  0  0
  7 10  2  0  0  0  0
  7 20  1  0  0  0  0
  8 24  1  0  0  0  0
  9 24  2  0  0  0  0
 10 25  1  0  0  0  0
 11 12  2  0  0  0  0
 11 26  1  0  0  0  0
 12 27  1  0  0  0  0
 13 22  1  0  0  0  0
 13 25  2  0  0  0  0
 14 23  1  0  0  0  0
 14 31  2  0  0  0  0
 15 27  2  0  0  0  0
 15 28  1  0  0  0  0
 16 23  2  0  0  0  0
 16 80  1  0  0  0  0
 17 29  1  0  0  0  0
 18 29  1  0  0  0  0
 18 30  2  0  0  0  0
 18 36  1  0  0  0  0
 19 21  2  0  0  0  0
 19 41  1  0  0  0  0
 20 22  2  0  0  0  0
 20 42  1  0  0  0  0
 21 51  1  0  0  0  0
 22 43  1  0  0  0  0
 23 69  1  0  0  0  0
 24 81  1  0  0  0  0
 25 82  1  0  0  0  0
 26 28  2  0  0  0  0
 26 81  1  0  0  0  0
 27 83  1  0  0  0  0
 28 84  1  0  0  0  0
 29 62  2  0  0  0  0
 30 63  1  0  0  0  0
 30 67  1  0  0  0  0
 31 64  1  0  0  0  0
 31 80  1  0  0  0  0
 32 33  1  0  0  0  0
 32 34  1  0  0  0  0
 32 35  2  0  0  0  0
 33 44  1  0  0  0  0
 33 73  2  0  0  0  0
 34 64  1  0  0  0  0
 34 74  2  0  0  0  0
 35 82  1  0  0  0  0
 36 68  1  0  0  0  0
 36 75  2  0  0  0  0
 37 52  1  0  0  0  0
 37 70  1  0  0  0  0
 37 76  2  0  0  0  0
 38 59  1  0  0  0  0
 38 65  1  0  0  0  0
 38 77  2  0  0  0  0
 39 60  1  0  0  0  0
 39 71  1  0  0  0  0
 39 78  2  0  0  0  0
 40 66  1  0  0  0  0
 40 69  1  0  0  0  0
 40 79  2  0  0  0  0
 41 45  1  0  0  0  0
 42 52  1  0  0  0  0
 43 65  1  0  0  0  0
 44 64  1  0  0  0  0
 45 47  1  0  0  0  0
 46 48  1  0  0  0  0
 46 49  1  0  0  0  0
 47 51  1  0  0  0  0
 48 53  1  0  0  0  0
 49 66  1  0  0  0  0
 50 53  1  0  0  0  0
 50 66  1  0  0  0  0
 51 70  1  0  0  0  0
 52 65  1  0  0  0  0
 53 63  1  0  0  0  0
 54 60  1  0  0  0  0
 55 61  1  0  0  0  0
 56 61  1  0  0  0  0
 57 61  1  0  0  0  0
 58 72  1  0  0  0  0
 59 61  1  0  0  0  0
 59 71  1  0  0  0  0
 60 72  1  0  0  0  0
 62 63  1  0  0  0  0
M  CHG  1  72   1
M  ISO  4  35 101  40 100  69 100  82 101
M  END
> <Batch ID>
0085

> <Smiles>
CNC(C)C(=O)NC(C(=O)N1Cc2cc([101O:1][101CH:1]=C3C(=O)CN(c4cc([100NH:0][100C:0](=O)N5CCCC(n6nc(-c7ccc(Oc8ccc(F)cc8F)cc7)c(C(N)=O)c6N)C5)co4)C3=O)ccc2CC1C(=O)NC1CCCc2ccccc21)C(C)(C)C

> <Shape>
0.342

> <Color>
0.093

> <Negative vol penalty>
0.000

$$$$

  -OEChem-04052300153D

 83 91  0     1  0  0  0  0  0999 V2000
  -18.8286  -34.2066   22.5158 C   0  0  0  0  0  0  0  0  0  0  0  0
  -19.4672  -33.8010   21.3483 C   0  0  0  0  0  0  0  0  0  0  0  0
  -22.9187  -10.8781   19.2074 C   0  0  0  0  0  0  0  0  0  0  0  0
  -23.2388   -9.7929   21.3421 C   0  0  0  0  0  0  0  0  0  0  0  0
  -27.9172  -18.3385   19.0347 C   0  0  0  0  0  0  0  0  0  0  0  0
  -19.5641  -34.3780   23.6878 C   0  0  0  0  0  0  0  0  0  0  0  0
  -20.8420  -33.5676   21.3519 C   0  0  0  0  0  0  0  0  0  0  0  0
  -23.5158  -27.1332   19.5244 C   0  0  0  0  0  0  0  0  0  0  0  0
  -26.9665  -19.3590   19.0542 C   0  0  0  0  0  0  0  0  0  0  0  0
  -21.9761   -9.9114   18.8573 C   0  0  0  0  0  0  0  0  0  0  0  0
  -22.2962   -8.8262   20.9920 C   0  0  0  0  0  0  0  0  0  0  0  0
  -24.1153  -25.9948   18.9851 C   0  0  0  0  0  0  0  0  0  0  0  0
  -18.9295   -8.5652   20.8597 C   0  0  0  0  0  0  0  0  0  0  0  0
  -17.9741   -8.2179   21.8148 C   0  0  0  0  0  0  0  0  0  0  0  0
  -29.4860  -19.7783   20.1762 C   0  0  0  0  0  0  0  0  0  0  0  0
  -26.3017  -26.8833   19.5124 C   0  0  0  0  0  0  0  0  0  0  0  0
  -18.7528   -5.9314   21.7624 C   0  0  0  0  0  0  0  0  0  0  0  0
  -23.5500  -10.8188   20.4498 C   0  0  0  0  0  0  0  0  0  0  0  0
  -29.1770  -18.5482   19.5958 C   0  0  0  0  0  0  0  0  0  0  0  0
  -24.2855  -13.0387   21.4691 C   0  0  0  0  0  0  0  0  0  0  0  0
  -20.9469  -34.1372   23.7081 C   0  0  0  0  0  0  0  0  0  0  0  0
  -24.3074  -28.1453   20.0743 C   0  0  0  0  0  0  0  0  0  0  0  0
  -21.5969  -33.7373   22.5249 C   0  0  0  0  0  0  0  0  0  0  0  0
  -25.7063  -28.0203   20.0653 C   0  0  0  0  0  0  0  0  0  0  0  0
  -27.2755  -20.5891   19.6346 C   0  0  0  0  0  0  0  0  0  0  0  0
  -21.6649   -8.8854   19.7495 C   0  0  0  0  0  0  0  0  0  0  0  0
  -25.5048  -25.8703   18.9790 C   0  0  0  0  0  0  0  0  0  0  0  0
  -19.7965   -7.5955   20.3559 C   0  0  0  0  0  0  0  0  0  0  0  0
  -17.8857   -6.9011   22.2662 C   0  0  0  0  0  0  0  0  0  0  0  0
  -28.5353  -20.7988   20.1956 C   0  0  0  0  0  0  0  0  0  0  0  0
  -19.7081   -6.2787   20.8073 C   0  0  0  0  0  0  0  0  0  0  0  0
  -24.5242  -11.8169   20.8119 C   0  0  0  0  0  0  0  0  0  0  0  0
  -25.5261  -13.6179   21.5784 C   0  0  0  0  0  0  0  0  0  0  0  0
  -26.3243  -22.4112   18.6342 C   0  0  0  0  0  0  0  0  0  0  0  0
  -30.1900  -17.4618   19.5768 C   0  0  0  0  0  0  0  0  0  0  0  0
  -23.0526  -13.6000   21.9388 C   0  0  0  0  0  0  0  0  0  0  0  0
  -24.4285  -31.4810   21.7872 C   0  0  0  0  0  0  0  0  0  0  0  0
  -26.5625  -29.7207   23.1128 C   0  0  0  0  0  0  0  0  0  0  0  0
  -28.5051  -27.3325   24.5827 C   0  0  0  0  0  0  0  0  0  0  0  0
  -30.4609  -15.0042   19.4750 C   0  0  0  0  0  0  0  0  0  0  0  0
  -21.7076  -34.3817   24.9873 C   0  0  0  0  0  0  0  0  0  0  0  0
  -23.7073  -29.4166   20.6104 C   0  0  0  0  0  0  0  0  0  0  0  0
  -26.5193  -29.1498   20.6364 C   0  0  0  0  0  0  0  0  0  0  0  0
  -23.0981  -33.7518   24.9990 C   0  0  0  0  0  0  0  0  0  0  0  0
  -30.1409  -11.7128   20.7246 C   0  0  0  0  0  0  0  0  0  0  0  0
  -23.8293  -34.0480   23.6935 C   0  0  0  0  0  0  0  0  0  0  0  0
  -28.6316  -11.5465   20.9216 C   0  0  0  0  0  0  0  0  0  0  0  0
  -30.4634  -12.5251   19.4712 C   0  0  0  0  0  0  0  0  0  0  0  0
  -28.2783  -13.6534   19.5725 C   0  0  0  0  0  0  0  0  0  0  0  0
  -23.0824  -33.4503   22.4949 C   0  0  1  0  0  0  0  0  0  0  0  0
  -24.4724  -29.9816   21.8207 C   0  0  1  0  0  0  0  0  0  0  0  0
  -27.9002  -12.9024   20.8594 C   0  0  1  0  0  0  0  0  0  0  0  0
  -30.1547  -27.0072   26.4456 C   0  0  0  0  0  0  0  0  0  0  0  0
  -28.7098  -31.1077   21.4487 C   0  0  0  0  0  0  0  0  0  0  0  0
  -30.4375  -29.9501   22.8426 C   0  0  0  0  0  0  0  0  0  0  0  0
  -28.8464  -31.5500   23.9064 C   0  0  0  0  0  0  0  0  0  0  0  0
  -26.7708  -25.3468   25.9274 C   0  0  0  0  0  0  0  0  0  0  0  0
  -25.3405  -23.5387   18.5384 C   0  0  0  0  0  0  0  0  0  1  0  0
  -28.0073  -29.2905   23.1429 C   0  0  1  0  0  0  0  0  0  0  0  0
  -28.6913  -26.9400   26.0372 C   0  0  2  0  0  0  0  0  0  0  0  0
  -28.9805  -30.4596   22.8211 C   0  0  0  0  0  0  0  0  0  0  0  0
  -25.8150  -11.6299   20.5238 N   0  0  0  0  0  0  0  0  0  0  0  0
  -26.3157  -21.6152   19.6530 N   0  0  0  0  0  0  0  0  0  0  0  0
  -26.3985  -12.7420   21.0022 N   0  0  0  0  0  0  0  0  0  0  0  0
  -25.9021  -29.6336   21.8813 N   0  0  0  0  0  0  0  0  0  0  0  0
  -29.7398  -13.7975   19.4936 N   0  0  0  0  0  0  0  0  0  0  0  0
  -25.9450  -14.7858   22.1102 N   0  0  0  0  0  0  0  0  0  0  0  0
  -21.8706  -12.8723   21.7452 N   0  0  0  0  0  0  0  0  0  0  0  0
  -29.6803  -16.1636   19.5423 N   0  0  0  0  0  0  0  0  0  0  0  0
  -23.3215  -32.0255   22.4098 N   0  0  0  0  0  0  0  0  0  0  0  0
  -28.2230  -28.6755   24.4481 N   0  0  0  0  0  0  0  0  0  0  0  0
  -28.2030  -25.5506   26.2654 N   0  3  0  0  0  0  0  0  0  0  0  0
  -31.3820  -17.7559   19.5528 O   0  0  0  0  0  0  0  0  0  0  0  0
  -22.9985  -14.7213   22.4984 O   0  0  0  0  0  0  0  0  0  0  0  0
  -25.3327  -32.0998   21.2385 O   0  0  0  0  0  0  0  0  0  0  0  0
  -26.0330  -30.1286   24.1504 O   0  0  0  0  0  0  0  0  0  0  0  0
  -28.6039  -26.5289   23.6580 O   0  0  0  0  0  0  0  0  0  0  0  0
  -31.6947  -15.0457   19.4401 O   0  0  0  0  0  0  0  0  0  0  0  0
  -20.7450   -7.9420   19.4083 O   0  0  0  0  0  0  0  0  0  0  0  0
  -26.0833  -24.7543   18.4550 O   0  0  0  0  0  0  0  0  0  1  0  0
  -16.9692   -6.5681   23.1845 F   0  0  0  0  0  0  0  0  0  0  0  0
  -28.8403  -21.9770   20.7574 F   0  0  0  0  0  0  0  0  0  0  0  0
  -20.5391   -5.3431   20.3279 F   0  0  0  0  0  0  0  0  0  0  0  0
  1  2  1  0  0  0  0
  1  6  2  0  0  0  0
  2  7  2  0  0  0  0
  3 10  2  0  0  0  0
  3 18  1  0  0  0  0
  4 11  1  0  0  0  0
  4 18  2  0  0  0  0
  5  9  2  0  0  0  0
  5 19  1  0  0  0  0
  6 21  1  0  0  0  0
  7 23  1  0  0  0  0
  8 12  2  0  0  0  0
  8 22  1  0  0  0  0
  9 25  1  0  0  0  0
 10 26  1  0  0  0  0
 11 26  2  0  0  0  0
 12 27  1  0  0  0  0
 13 14  2  0  0  0  0
 13 28  1  0  0  0  0
 14 29  1  0  0  0  0
 15 19  2  0  0  0  0
 15 30  1  0  0  0  0
 16 24  1  0  0  0  0
 16 27  2  0  0  0  0
 17 29  2  0  0  0  0
 17 31  1  0  0  0  0
 18 32  1  0  0  0  0
 19 35  1  0  0  0  0
 20 32  1  0  0  0  0
 20 33  2  0  0  0  0
 20 36  1  0  0  0  0
 21 23  2  0  0  0  0
 21 41  1  0  0  0  0
 22 24  2  0  0  0  0
 22 42  1  0  0  0  0
 23 50  1  0  0  0  0
 24 43  1  0  0  0  0
 25 30  2  0  0  0  0
 25 63  1  0  0  0  0
 26 79  1  0  0  0  0
 27 80  1  0  0  0  0
 28 31  2  0  0  0  0
 28 79  1  0  0  0  0
 29 81  1  0  0  0  0
 30 82  1  0  0  0  0
 31 83  1  0  0  0  0
 32 62  2  0  0  0  0
 33 64  1  0  0  0  0
 33 67  1  0  0  0  0
 34 58  1  0  0  0  0
 34 63  2  0  0  0  0
 35 69  1  0  0  0  0
 35 73  2  0  0  0  0
 36 68  1  0  0  0  0
 36 74  2  0  0  0  0
 37 51  1  0  0  0  0
 37 70  1  0  0  0  0
 37 75  2  0  0  0  0
 38 59  1  0  0  0  0
 38 65  1  0  0  0  0
 38 76  2  0  0  0  0
 39 60  1  0  0  0  0
 39 71  1  0  0  0  0
 39 77  2  0  0  0  0
 40 66  1  0  0  0  0
 40 69  1  0  0  0  0
 40 78  2  0  0  0  0
 41 44  1  0  0  0  0
 42 51  1  0  0  0  0
 43 65  1  0  0  0  0
 44 46  1  0  0  0  0
 45 47  1  0  0  0  0
 45 48  1  0  0  0  0
 46 50  1  0  0  0  0
 47 52  1  0  0  0  0
 48 66  1  0  0  0  0
 49 52  1  0  0  0  0
 49 66  1  0  0  0  0
 50 70  1  0  0  0  0
 51 65  1  0  0  0  0
 52 64  1  0  0  0  0
 53 60  1  0  0  0  0
 54 61  1  0  0  0  0
 55 61  1  0  0  0  0
 56 61  1  0  0  0  0
 57 72  1  0  0  0  0
 58 80  1  0  0  0  0
 59 61  1  0  0  0  0
 59 71  1  0  0  0  0
 60 72  1  0  0  0  0
 62 64  1  0  0  0  0
M  CHG  1  72   1
M  ISO  4  40 100  58 101  69 100  80 101
M  END
> <Batch ID>
0085

> <Smiles>
CNC(C)C(=O)NC(C(=O)N1Cc2cc([101O:1][101CH:1]=CNc3ccc(C(=O)[100NH:0][100C:0](=O)N4CCCC(n5nc(-c6ccc(Oc7ccc(F)cc7F)cc6)c(C(N)=O)c5N)C4)cc3F)ccc2CC1C(=O)NC1CCCc2ccccc21)C(C)(C)C

> <Shape>
0.252

> <Color>
0.098

> <Negative vol penalty>
0.000

$$$$

  -OEChem-04052300153D

 87 96  0     1  0  0  0  0  0999 V2000
  -22.0645  -11.1664   21.6154 C   0  0  0  0  0  0  0  0  0  0  0  0
  -22.0096  -12.4040   22.2485 C   0  0  0  0  0  0  0  0  0  0  0  0
  -29.8391  -28.1588   24.4613 C   0  0  0  0  0  0  0  0  0  0  0  0
  -28.3574  -26.2602   24.6534 C   0  0  0  0  0  0  0  0  0  0  0  0
  -23.1950  -10.8096   20.8816 C   0  0  0  0  0  0  0  0  0  0  0  0
  -23.0857  -13.2851   22.1489 C   0  0  0  0  0  0  0  0  0  0  0  0
  -21.6229  -18.0377   21.1907 C   0  0  0  0  0  0  0  0  0  0  0  0
  -30.4563  -27.7984   25.6591 C   0  0  0  0  0  0  0  0  0  0  0  0
  -28.9746  -25.8997   25.8512 C   0  0  0  0  0  0  0  0  0  0  0  0
  -21.1245  -18.7787   22.2615 C   0  0  0  0  0  0  0  0  0  0  0  0
  -32.7507  -25.5428   26.6988 C   0  0  0  0  0  0  0  0  0  0  0  0
  -34.1446  -25.5689   26.7433 C   0  0  0  0  0  0  0  0  0  0  0  0
  -23.2612  -19.8749   22.4895 C   0  0  0  0  0  0  0  0  0  0  0  0
  -18.2785  -26.8799   23.0944 C   0  0  0  0  0  0  0  0  0  0  0  0
  -20.5682  -26.6813   22.3498 C   0  0  0  0  0  0  0  0  0  0  0  0
  -19.5147  -28.8532   22.4502 C   0  0  0  0  0  0  0  0  0  0  0  0
  -34.0572  -27.1977   28.5256 C   0  0  0  0  0  0  0  0  0  0  0  0
  -28.7896  -27.3898   23.9585 C   0  0  0  0  0  0  0  0  0  0  0  0
  -28.5088  -27.3514   21.4233 C   0  0  0  0  0  0  0  0  0  0  0  0
  -24.2816  -11.6908   20.7650 C   0  0  0  0  0  0  0  0  0  0  0  0
  -22.9496  -18.2022   20.7676 C   0  0  0  0  0  0  0  0  0  0  0  0
  -24.2324  -12.9393   21.4139 C   0  0  0  0  0  0  0  0  0  0  0  0
  -23.7732  -19.1367   21.4115 C   0  0  0  0  0  0  0  0  0  0  0  0
  -19.3928  -26.0897   22.8127 C   0  0  0  0  0  0  0  0  0  0  0  0
  -18.3393  -28.2616   22.9131 C   0  0  0  0  0  0  0  0  0  0  0  0
  -20.6291  -28.0630   22.1685 C   0  0  0  0  0  0  0  0  0  0  0  0
  -30.0241  -26.6688   26.3540 C   0  0  0  0  0  0  0  0  0  0  0  0
  -21.9446  -19.6953   22.9129 C   0  0  0  0  0  0  0  0  0  0  0  0
  -32.0101  -26.3442   27.5676 C   0  0  0  0  0  0  0  0  0  0  0  0
  -34.7979  -26.3963   27.6567 C   0  0  0  0  0  0  0  0  0  0  0  0
  -32.6633  -27.1716   28.4811 C   0  0  0  0  0  0  0  0  0  0  0  0
  -28.1513  -27.7620   22.7215 C   0  0  0  0  0  0  0  0  0  0  0  0
  -27.6009  -27.9760   20.6034 C   0  0  0  0  0  0  0  0  0  0  0  0
  -19.1756  -21.9083   23.2601 C   0  0  0  0  0  0  0  0  0  0  0  0
  -18.1214  -24.0263   22.8416 C   0  0  0  0  0  0  0  0  0  0  0  0
  -20.3795  -22.4708   23.4344 C   0  0  0  0  0  0  0  0  0  0  0  0
  -18.0186  -22.6990   22.9676 C   0  0  0  0  0  0  0  0  0  0  0  0
  -20.5056  -23.9757   23.3393 C   0  0  0  0  0  0  0  0  0  0  0  0
  -29.5669  -26.4831   20.9966 C   0  0  0  0  0  0  0  0  0  0  0  0
  -25.4991  -16.3119   20.5930 C   0  0  0  0  0  0  0  0  0  0  0  0
  -26.8161  -18.8780   19.1088 C   0  0  0  0  0  0  0  0  0  0  0  0
  -26.8097  -22.2538   18.6077 C   0  0  0  0  0  0  0  0  0  0  0  0
  -22.0523  -30.0192   21.4656 C   0  0  0  0  0  0  0  0  0  0  0  0
  -25.5015  -11.2417   20.0002 C   0  0  0  0  0  0  0  0  0  0  0  0
  -23.4640  -17.4146   19.5939 C   0  0  0  0  0  0  0  0  0  0  0  0
  -25.1989  -19.3654   20.9829 C   0  0  0  0  0  0  0  0  0  0  0  0
  -26.4449  -12.3843   19.6331 C   0  0  0  0  0  0  0  0  0  0  0  0
  -24.8634  -31.8971   20.3483 C   0  0  0  0  0  0  0  0  0  0  0  0
  -26.6798  -13.2906   20.8374 C   0  0  0  0  0  0  0  0  0  0  0  0
  -26.0578  -31.0097   20.7065 C   0  0  0  0  0  0  0  0  0  0  0  0
  -23.7630  -31.8206   21.4051 C   0  0  0  0  0  0  0  0  0  0  0  0
  -24.5068  -29.5751   22.0933 C   0  0  0  0  0  0  0  0  0  0  0  0
  -25.3693  -13.9324   21.3087 C   0  0  1  0  0  0  0  0  0  0  0  0
  -24.9845  -17.2919   19.5769 C   0  0  1  0  0  0  0  0  0  0  0  0
  -25.6135  -29.5689   21.0261 C   0  0  2  0  0  0  0  0  0  0  0  0
  -27.4582  -24.4597   17.6024 C   0  0  0  0  0  0  0  0  0  0  0  0
  -29.1009  -18.7136   21.1244 C   0  0  0  0  0  0  0  0  0  0  0  0
  -29.7567  -21.0383   20.4655 C   0  0  0  0  0  0  0  0  0  0  0  0
  -29.8133  -19.2025   18.7775 C   0  0  0  0  0  0  0  0  0  0  0  0
  -24.8094  -21.9868   16.4429 C   0  0  0  0  0  0  0  0  0  0  0  0
  -27.5824  -20.0976   19.5609 C   0  0  1  0  0  0  0  0  0  0  0  0
  -26.8672  -23.0837   17.3379 C   0  0  2  0  0  0  0  0  0  0  0  0
  -29.0371  -19.7575   19.9916 C   0  0  0  0  0  0  0  0  0  0  0  0
  -27.0985  -28.5839   22.7308 N   0  0  0  0  0  0  0  0  0  0  0  0
  -26.7867  -28.6949   21.4283 N   0  0  0  0  0  0  0  0  0  0  0  0
  -19.3327  -24.6988   22.9961 N   0  0  0  0  0  0  0  0  0  0  0  0
  -25.6574  -18.5667   19.8343 N   0  0  0  0  0  0  0  0  0  0  0  0
  -23.3903  -30.4261   21.6529 N   0  0  0  0  0  0  0  0  0  0  0  0
  -17.2128  -29.0611   23.1978 N   0  0  0  0  0  0  0  0  0  0  0  0
  -27.4276  -27.9749   19.2646 N   0  0  0  0  0  0  0  0  0  0  0  0
  -30.4078  -25.9263   21.9698 N   0  0  0  0  0  0  0  0  0  0  0  0
  -21.8238  -28.6636   21.6997 N   0  0  0  0  0  0  0  0  0  0  0  0
  -21.5182  -21.7908   23.7079 N   0  0  0  0  0  0  0  0  0  1  0  0
  -25.0037  -15.0310   20.4404 N   0  0  0  0  0  0  0  0  0  0  0  0
  -27.4922  -21.0634   18.4712 N   0  0  0  0  0  0  0  0  0  0  0  0
  -25.4998  -23.2603   16.7722 N   0  3  0  0  0  0  0  0  0  0  0  0
  -21.6004  -24.5064   23.5398 O   0  0  0  0  0  0  0  0  0  0  0  0
  -29.7712  -26.2221   19.7867 O   0  0  0  0  0  0  0  0  0  0  0  0
  -26.2884  -16.6895   21.4509 O   0  0  0  0  0  0  0  0  0  0  0  0
  -27.2264  -18.2297   18.1429 O   0  0  0  0  0  0  0  0  0  0  0  0
  -26.2216  -22.6259   19.6207 O   0  0  0  0  0  0  0  0  0  0  0  0
  -21.1794  -30.8090   21.0963 O   0  0  0  0  0  0  0  0  0  0  0  0
  -16.8435  -22.0028   22.8217 O   0  0  0  0  0  0  0  0  0  0  0  0
  -30.6263  -26.3166   27.5228 O   0  0  0  0  0  0  0  0  0  0  0  0
  -21.4609  -20.4193   23.9587 O   0  0  0  0  0  0  0  0  0  1  0  0
  -36.1364  -26.4201   27.7004 F   0  0  0  0  0  0  0  0  0  0  0  0
  -31.9571  -27.9428   29.3191 F   0  0  0  0  0  0  0  0  0  0  0  0
  1  2  1  0  0  0  0
  1  5  2  0  0  0  0
  2  6  2  0  0  0  0
  3  8  2  0  0  0  0
  3 18  1  0  0  0  0
  4  9  1  0  0  0  0
  4 18  2  0  0  0  0
  5 20  1  0  0  0  0
  6 22  1  0  0  0  0
  7 10  2  0  0  0  0
  7 21  1  0  0  0  0
  8 27  1  0  0  0  0
  9 27  2  0  0  0  0
 10 28  1  0  0  0  0
 11 12  2  0  0  0  0
 11 29  1  0  0  0  0
 12 30  1  0  0  0  0
 13 23  1  0  0  0  0
 13 28  2  0  0  0  0
 14 24  1  0  0  0  0
 14 25  2  0  0  0  0
 15 24  2  0  0  0  0
 15 26  1  0  0  0  0
 16 25  1  0  0  0  0
 16 26  2  0  0  0  0
 17 30  2  0  0  0  0
 17 31  1  0  0  0  0
 18 32  1  0  0  0  0
 19 32  1  0  0  0  0
 19 33  2  0  0  0  0
 19 39  1  0  0  0  0
 20 22  2  0  0  0  0
 20 44  1  0  0  0  0
 21 23  2  0  0  0  0
 21 45  1  0  0  0  0
 22 53  1  0  0  0  0
 23 46  1  0  0  0  0
 24 66  1  0  0  0  0
 25 69  1  0  0  0  0
 26 72  1  0  0  0  0
 27 84  1  0  0  0  0
 28 85  1  0  0  0  0
 29 31  2  0  0  0  0
 29 84  1  0  0  0  0
 30 86  1  0  0  0  0
 31 87  1  0  0  0  0
 32 64  2  0  0  0  0
 33 65  1  0  0  0  0
 33 70  1  0  0  0  0
 34 36  2  0  0  0  0
 34 37  1  0  0  0  0
 35 37  2  0  0  0  0
 35 66  1  0  0  0  0
 36 38  1  0  0  0  0
 36 73  1  0  0  0  0
 37 83  1  0  0  0  0
 38 66  1  0  0  0  0
 38 77  2  0  0  0  0
 39 71  1  0  0  0  0
 39 78  2  0  0  0  0
 40 54  1  0  0  0  0
 40 74  1  0  0  0  0
 40 79  2  0  0  0  0
 41 61  1  0  0  0  0
 41 67  1  0  0  0  0
 41 80  2  0  0  0  0
 42 62  1  0  0  0  0
 42 75  1  0  0  0  0
 42 81  2  0  0  0  0
 43 68  1  0  0  0  0
 43 72  1  0  0  0  0
 43 82  2  0  0  0  0
 44 47  1  0  0  0  0
 45 54  1  0  0  0  0
 46 67  1  0  0  0  0
 47 49  1  0  0  0  0
 48 50  1  0  0  0  0
 48 51  1  0  0  0  0
 49 53  1  0  0  0  0
 50 55  1  0  0  0  0
 51 68  1  0  0  0  0
 52 55  1  0  0  0  0
 52 68  1  0  0  0  0
 53 74  1  0  0  0  0
 54 67  1  0  0  0  0
 55 65  1  0  0  0  0
 56 62  1  0  0  0  0
 57 63  1  0  0  0  0
 58 63  1  0  0  0  0
 59 63  1  0  0  0  0
 60 76  1  0  0  0  0
 61 63  1  0  0  0  0
 61 75  1  0  0  0  0
 62 76  1  0  0  0  0
 64 65  1  0  0  0  0
 73 85  1  0  0  0  0
M  CHG  1  76   1
M  ISO  4  43 100  72 100  73 101  85 101
M  END
> <Batch ID>
0085

> <Smiles>
CNC(C)C(=O)NC(C(=O)N1Cc2cc([101O:1][101NH:1]C3=CC(=O)CN(c4cc(N)cc([100NH:0][100C:0](=O)N5CCCC(n6nc(-c7ccc(Oc8ccc(F)cc8F)cc7)c(C(N)=O)c6N)C5)c4)C3=O)ccc2CC1C(=O)NC1CCCc2ccccc21)C(C)(C)C

> <Shape>
0.218

> <Color>
0.073

> <Negative vol penalty>
0.000

$$$$

  -OEChem-04052300153D

 84 93  0     1  0  0  0  0  0999 V2000
  -16.6402  -28.9256   24.2157 C   0  0  0  0  0  0  0  0  0  0  0  0
  -17.5335  -27.8592   24.2070 C   0  0  0  0  0  0  0  0  0  0  0  0
  -32.5357  -18.4685   21.6484 C   0  0  0  0  0  0  0  0  0  0  0  0
  -23.0566   -9.9662   21.5324 C   0  0  0  0  0  0  0  0  0  0  0  0
  -23.7558  -10.9675   23.6171 C   0  0  0  0  0  0  0  0  0  0  0  0
  -16.8949  -30.0533   23.4364 C   0  0  0  0  0  0  0  0  0  0  0  0
  -18.6816  -27.9194   23.4179 C   0  0  0  0  0  0  0  0  0  0  0  0
  -24.1774  -25.5559   24.7281 C   0  0  0  0  0  0  0  0  0  0  0  0
  -31.7206  -19.5643   21.9320 C   0  0  0  0  0  0  0  0  0  0  0  0
  -31.9693  -17.2759   21.1983 C   0  0  0  0  0  0  0  0  0  0  0  0
  -22.3069   -9.0239   22.2364 C   0  0  0  0  0  0  0  0  0  0  0  0
  -23.0060  -10.0252   24.3211 C   0  0  0  0  0  0  0  0  0  0  0  0
  -24.8069  -24.3740   24.3399 C   0  0  0  0  0  0  0  0  0  0  0  0
  -22.8729   -6.1599   23.9397 C   0  0  0  0  0  0  0  0  0  0  0  0
  -22.9649   -4.8276   23.5370 C   0  0  0  0  0  0  0  0  0  0  0  0
  -25.9416  -25.5651   22.5755 C   0  0  0  0  0  0  0  0  0  0  0  0
  -20.5904   -4.7981   23.0920 C   0  0  0  0  0  0  0  0  0  0  0  0
  -23.7811  -10.9380   22.2228 C   0  0  0  0  0  0  0  0  0  0  0  0
  -24.1249  -13.1701   21.0365 C   0  0  0  0  0  0  0  0  0  0  0  0
  -18.0516  -30.1313   22.6448 C   0  0  0  0  0  0  0  0  0  0  0  0
  -24.4173  -26.7510   24.0349 C   0  0  0  0  0  0  0  0  0  0  0  0
  -18.9514  -29.0486   22.6261 C   0  0  0  0  0  0  0  0  0  0  0  0
  -25.3158  -26.7612   22.9585 C   0  0  0  0  0  0  0  0  0  0  0  0
  -30.3391  -19.4675   21.7656 C   0  0  0  0  0  0  0  0  0  0  0  0
  -30.5878  -17.1791   21.0319 C   0  0  0  0  0  0  0  0  0  0  0  0
  -22.2816   -9.0534   23.6307 C   0  0  0  0  0  0  0  0  0  0  0  0
  -25.6869  -24.3779   23.2617 C   0  0  0  0  0  0  0  0  0  0  0  0
  -21.6396   -6.8113   23.9186 C   0  0  0  0  0  0  0  0  0  0  0  0
  -21.8237   -4.1467   23.1131 C   0  0  0  0  0  0  0  0  0  0  0  0
  -20.4984   -6.1304   23.4947 C   0  0  0  0  0  0  0  0  0  0  0  0
  -29.7726  -18.2749   21.3155 C   0  0  0  0  0  0  0  0  0  0  0  0
  -24.5562  -11.9113   21.4962 C   0  0  0  0  0  0  0  0  0  0  0  0
  -25.2259  -13.7033   20.4121 C   0  0  0  0  0  0  0  0  0  0  0  0
  -28.3814  -22.1027   22.5505 C   0  0  0  0  0  0  0  0  0  0  0  0
  -29.8123  -21.8028   22.4873 C   0  0  0  0  0  0  0  0  0  0  0  0
  -27.6681  -23.1867   22.9055 C   0  0  0  0  0  0  0  0  0  1  0  0
  -22.8436  -13.8009   21.1627 C   0  0  0  0  0  0  0  0  0  0  0  0
  -22.6255  -28.7672   22.3532 C   0  0  0  0  0  0  0  0  0  0  0  0
  -25.3493  -30.5280   22.2961 C   0  0  0  0  0  0  0  0  0  0  0  0
  -28.7542  -30.6053   22.5132 C   0  0  0  0  0  0  0  0  0  0  0  0
  -30.6851  -14.7866   20.2492 C   0  0  0  0  0  0  0  0  0  0  0  0
  -18.2602  -31.3511   21.7826 C   0  0  0  0  0  0  0  0  0  0  0  0
  -23.7508  -28.0228   24.4829 C   0  0  0  0  0  0  0  0  0  0  0  0
  -25.6231  -28.0220   22.1940 C   0  0  0  0  0  0  0  0  0  0  0  0
  -28.0940  -20.7020   22.0604 C   0  0  0  0  0  0  0  0  0  0  0  0
  -19.6885  -31.4924   21.2627 C   0  0  0  0  0  0  0  0  0  0  0  0
  -29.6346  -11.5761   19.1237 C   0  0  0  0  0  0  0  0  0  0  0  0
  -20.1894  -30.1620   20.7095 C   0  0  0  0  0  0  0  0  0  0  0  0
  -28.1843  -11.4807   19.6028 C   0  0  0  0  0  0  0  0  0  0  0  0
  -30.5176  -12.3101   20.1314 C   0  0  0  0  0  0  0  0  0  0  0  0
  -28.5746  -13.5355   21.0213 C   0  0  0  0  0  0  0  0  0  0  0  0
  -20.2203  -29.0867   21.8024 C   0  0  1  0  0  0  0  0  0  0  0  0
  -23.6749  -29.0772   23.3830 C   0  0  1  0  0  0  0  0  0  0  0  0
  -27.6332  -12.8613   20.0099 C   0  0  2  0  0  0  0  0  0  0  0  0
  -30.7007  -32.1844   22.3891 C   0  0  0  0  0  0  0  0  0  0  0  0
  -25.0770  -30.6210   19.2585 C   0  0  0  0  0  0  0  0  0  0  0  0
  -27.4686  -31.3513   19.1362 C   0  0  0  0  0  0  0  0  0  0  0  0
  -25.7898  -32.7760   20.3085 C   0  0  0  0  0  0  0  0  0  0  0  0
  -29.5741  -29.9968   25.2911 C   0  0  0  0  0  0  0  0  0  0  0  0
  -26.5468  -30.6154   21.3811 C   0  0  1  0  0  0  0  0  0  0  0  0
  -29.6932  -31.5012   23.3007 C   0  0  2  0  0  0  0  0  0  0  0  0
  -26.2135  -31.3166   20.0340 C   0  0  0  0  0  0  0  0  0  0  0  0
  -25.8317  -11.6598   21.1898 N   0  0  0  0  0  0  0  0  0  0  0  0
  -26.2113  -12.7679   20.5308 N   0  0  0  0  0  0  0  0  0  0  0  0
  -29.5382  -20.5502   22.0460 N   0  0  0  0  0  0  0  0  0  0  0  0
  -24.9417  -29.2386   22.6664 N   0  0  0  0  0  0  0  0  0  0  0  0
  -29.9353  -13.6113   20.4666 N   0  0  0  0  0  0  0  0  0  0  0  0
  -25.4376  -14.8764   19.7785 N   0  0  0  0  0  0  0  0  0  0  0  0
  -21.8235  -13.1133   21.8342 N   0  0  0  0  0  0  0  0  0  0  0  0
  -30.0160  -15.9659   20.5746 N   0  0  0  0  0  0  0  0  0  0  0  0
  -21.3739  -29.2679   22.6572 N   0  0  0  0  0  0  0  0  0  0  0  0
  -27.6011  -31.2682   22.1497 N   0  0  0  0  0  0  0  0  0  0  0  0
  -30.4411  -30.7043   24.3140 N   0  3  0  0  0  0  0  0  0  0  0  0
  -30.8307  -22.4132   22.7381 O   0  0  0  0  0  0  0  0  0  0  0  0
  -22.6053  -14.9338   20.6796 O   0  0  0  0  0  0  0  0  0  0  0  0
  -22.9292  -28.1230   21.3561 O   0  0  0  0  0  0  0  0  0  0  0  0
  -24.8002  -31.5658   22.6743 O   0  0  0  0  0  0  0  0  0  0  0  0
  -29.0190  -29.4357   22.2440 O   0  0  0  0  0  0  0  0  0  0  0  0
  -31.8261  -14.7511   19.7813 O   0  0  0  0  0  0  0  0  0  0  0  0
  -21.5500   -8.1342   24.3180 O   0  0  0  0  0  0  0  0  0  0  0  0
  -26.3022  -23.2256   22.8803 O   0  0  0  0  0  0  0  0  0  1  0  0
  -21.9125   -2.8678   22.7250 F   0  0  0  0  0  0  0  0  0  0  0  0
  -19.3110   -6.7512   23.4712 F   0  0  0  0  0  0  0  0  0  0  0  0
  -28.4434  -18.1816   21.1564 F   0  0  0  0  0  0  0  0  0  0  0  0
  1  2  1  0  0  0  0
  1  6  2  0  0  0  0
  2  7  2  0  0  0  0
  3  9  2  0  0  0  0
  3 10  1  0  0  0  0
  4 11  2  0  0  0  0
  4 18  1  0  0  0  0
  5 12  1  0  0  0  0
  5 18  2  0  0  0  0
  6 20  1  0  0  0  0
  7 22  1  0  0  0  0
  8 13  2  0  0  0  0
  8 21  1  0  0  0  0
  9 24  1  0  0  0  0
 10 25  2  0  0  0  0
 11 26  1  0  0  0  0
 12 26  2  0  0  0  0
 13 27  1  0  0  0  0
 14 15  2  0  0  0  0
 14 28  1  0  0  0  0
 15 29  1  0  0  0  0
 16 23  1  0  0  0  0
 16 27  2  0  0  0  0
 17 29  2  0  0  0  0
 17 30  1  0  0  0  0
 18 32  1  0  0  0  0
 19 32  1  0  0  0  0
 19 33  2  0  0  0  0
 19 37  1  0  0  0  0
 20 22  2  0  0  0  0
 20 42  1  0  0  0  0
 21 23  2  0  0  0  0
 21 43  1  0  0  0  0
 22 52  1  0  0  0  0
 23 44  1  0  0  0  0
 24 31  2  0  0  0  0
 24 65  1  0  0  0  0
 25 31  1  0  0  0  0
 25 70  1  0  0  0  0
 26 80  1  0  0  0  0
 27 81  1  0  0  0  0
 28 30  2  0  0  0  0
 28 80  1  0  0  0  0
 29 82  1  0  0  0  0
 30 83  1  0  0  0  0
 31 84  1  0  0  0  0
 32 63  2  0  0  0  0
 33 64  1  0  0  0  0
 33 68  1  0  0  0  0
 34 35  1  0  0  0  0
 34 36  2  0  0  0  0
 34 45  1  0  0  0  0
 35 65  1  0  0  0  0
 35 74  2  0  0  0  0
 36 81  1  0  0  0  0
 37 69  1  0  0  0  0
 37 75  2  0  0  0  0
 38 53  1  0  0  0  0
 38 71  1  0  0  0  0
 38 76  2  0  0  0  0
 39 60  1  0  0  0  0
 39 66  1  0  0  0  0
 39 77  2  0  0  0  0
 40 61  1  0  0  0  0
 40 72  1  0  0  0  0
 40 78  2  0  0  0  0
 41 67  1  0  0  0  0
 41 70  1  0  0  0  0
 41 79  2  0  0  0  0
 42 46  1  0  0  0  0
 43 53  1  0  0  0  0
 44 66  1  0  0  0  0
 45 65  1  0  0  0  0
 46 48  1  0  0  0  0
 47 49  1  0  0  0  0
 47 50  1  0  0  0  0
 48 52  1  0  0  0  0
 49 54  1  0  0  0  0
 50 67  1  0  0  0  0
 51 54  1  0  0  0  0
 51 67  1  0  0  0  0
 52 71  1  0  0  0  0
 53 66  1  0  0  0  0
 54 64  1  0  0  0  0
 55 61  1  0  0  0  0
 56 62  1  0  0  0  0
 57 62  1  0  0  0  0
 58 62  1  0  0  0  0
 59 73  1  0  0  0  0
 60 62  1  0  0  0  0
 60 72  1  0  0  0  0
 61 73  1  0  0  0  0
 63 64  1  0  0  0  0
M  CHG  1  73   1
M  ISO  4  36 101  41 100  70 100  81 101
M  END
> <Batch ID>
0085

> <Smiles>
CNC(C)C(=O)NC(C(=O)N1Cc2cc([101O:1][101CH:1]=C3CN(c4cccc([100NH:0][100C:0](=O)N5CCCC(n6nc(-c7ccc(Oc8ccc(F)cc8F)cc7)c(C(N)=O)c6N)C5)c4F)C3=O)ccc2CC1C(=O)NC1CCCc2ccccc21)C(C)(C)C

> <Shape>
0.281

> <Color>
0.190

> <Negative vol penalty>
0.000

$$$$

  -OEChem-04052300153D

 86 95  0     1  0  0  0  0  0999 V2000
  -29.3427  -36.9996   19.9805 C   0  0  0  0  0  0  0  0  0  0  0  0
  -29.4905  -35.6397   19.7273 C   0  0  0  0  0  0  0  0  0  0  0  0
  -24.2789   -9.0095   21.5088 C   0  0  0  0  0  0  0  0  0  0  0  0
  -24.6675  -10.4044   23.4428 C   0  0  0  0  0  0  0  0  0  0  0  0
  -28.6045  -37.4259   21.0838 C   0  0  0  0  0  0  0  0  0  0  0  0
  -28.9011  -34.7051   20.5780 C   0  0  0  0  0  0  0  0  0  0  0  0
  -26.5236  -29.2836   19.0094 C   0  0  0  0  0  0  0  0  0  0  0  0
  -30.3684  -20.1137   20.2141 C   0  0  0  0  0  0  0  0  0  0  0  0
  -30.2014  -18.7617   19.9142 C   0  0  0  0  0  0  0  0  0  0  0  0
  -23.9138   -7.9535   22.3438 C   0  0  0  0  0  0  0  0  0  0  0  0
  -24.3023   -9.3485   24.2778 C   0  0  0  0  0  0  0  0  0  0  0  0
  -27.0312  -27.9862   19.0619 C   0  0  0  0  0  0  0  0  0  0  0  0
  -21.2000   -7.0122   24.1277 C   0  0  0  0  0  0  0  0  0  0  0  0
  -20.0576   -6.2857   23.7922 C   0  0  0  0  0  0  0  0  0  0  0  0
  -25.9337  -27.6491   21.1835 C   0  0  0  0  0  0  0  0  0  0  0  0
  -27.9728  -20.3695   20.3951 C   0  0  0  0  0  0  0  0  0  0  0  0
  -21.3866   -4.2754   23.6201 C   0  0  0  0  0  0  0  0  0  0  0  0
  -24.6559  -10.2350   22.0583 C   0  0  0  0  0  0  0  0  0  0  0  0
  -24.1889  -12.3130   20.6544 C   0  0  0  0  0  0  0  0  0  0  0  0
  -27.9977  -36.4963   21.9429 C   0  0  0  0  0  0  0  0  0  0  0  0
  -25.7247  -29.7781   20.0504 C   0  0  0  0  0  0  0  0  0  0  0  0
  -28.1553  -35.1194   21.6946 C   0  0  0  0  0  0  0  0  0  0  0  0
  -25.4150  -28.9523   21.1405 C   0  0  0  0  0  0  0  0  0  0  0  0
  -29.2541  -20.9176   20.4547 C   0  0  0  0  0  0  0  0  0  0  0  0
  -28.9201  -18.2137   19.8547 C   0  0  0  0  0  0  0  0  0  0  0  0
  -27.8058  -19.0175   20.0951 C   0  0  0  0  0  0  0  0  0  0  0  0
  -23.9255   -8.1230   23.7283 C   0  0  0  0  0  0  0  0  0  0  0  0
  -26.7387  -27.1697   20.1504 C   0  0  0  0  0  0  0  0  0  0  0  0
  -22.4358   -6.3704   24.2094 C   0  0  0  0  0  0  0  0  0  0  0  0
  -20.1509   -4.9173   23.5384 C   0  0  0  0  0  0  0  0  0  0  0  0
  -22.5291   -5.0020   23.9556 C   0  0  0  0  0  0  0  0  0  0  0  0
  -25.0337  -11.3260   21.1963 C   0  0  0  0  0  0  0  0  0  0  0  0
  -25.0251  -13.1108   19.9121 C   0  0  0  0  0  0  0  0  0  0  0  0
  -29.0282  -24.5165   20.9086 C   0  0  0  0  0  0  0  0  0  0  0  0
  -30.3302  -24.2539   21.5370 C   0  0  0  0  0  0  0  0  0  0  0  0
  -28.4598  -23.2458   20.4152 C   0  0  0  0  0  0  0  0  0  0  0  0
  -28.4488  -25.7121   20.7997 C   0  0  0  0  0  0  0  0  0  1  0  0
  -22.7748  -12.4929   20.8082 C   0  0  0  0  0  0  0  0  0  0  0  0
  -25.9798  -32.1652   22.1338 C   0  0  0  0  0  0  0  0  0  0  0  0
  -22.9605  -31.2809   22.9242 C   0  0  0  0  0  0  0  0  0  0  0  0
  -20.5808  -28.8356   22.9885 C   0  0  0  0  0  0  0  0  0  0  0  0
  -29.7921  -15.9193   19.2872 C   0  0  0  0  0  0  0  0  0  0  0  0
  -27.2489  -37.0041   23.1497 C   0  0  0  0  0  0  0  0  0  0  0  0
  -25.1628  -31.1708   19.9660 C   0  0  0  0  0  0  0  0  0  0  0  0
  -24.5453  -29.4286   22.2742 C   0  0  0  0  0  0  0  0  0  0  0  0
  -30.6150  -22.7835   21.4496 C   0  0  0  0  0  0  0  0  0  0  0  0
  -26.3428  -35.9556   23.7899 C   0  0  0  0  0  0  0  0  0  0  0  0
  -29.8482  -12.4407   18.5300 C   0  0  0  0  0  0  0  0  0  0  0  0
  -27.0846  -34.6316   23.9444 C   0  0  0  0  0  0  0  0  0  0  0  0
  -28.5312  -11.9218   19.1116 C   0  0  0  0  0  0  0  0  0  0  0  0
  -30.4647  -13.5301   19.4057 C   0  0  0  0  0  0  0  0  0  0  0  0
  -28.2525  -14.1300   20.3088 C   0  0  0  0  0  0  0  0  0  0  0  0
  -27.5103  -34.0754   22.5802 C   0  0  1  0  0  0  0  0  0  0  0  0
  -24.7835  -31.7456   21.3272 C   0  0  1  0  0  0  0  0  0  0  0  0
  -27.5609  -13.0768   19.4278 C   0  0  2  0  0  0  0  0  0  0  0  0
  -18.2235  -28.4000   23.7305 C   0  0  0  0  0  0  0  0  0  0  0  0
  -23.9110  -31.0780   25.8165 C   0  0  0  0  0  0  0  0  0  0  0  0
  -21.8458  -29.7588   26.3293 C   0  0  0  0  0  0  0  0  0  0  0  0
  -21.6528  -32.1141   25.5307 C   0  0  0  0  0  0  0  0  0  0  0  0
  -19.6949  -28.2560   20.2248 C   0  0  0  0  0  0  0  0  0  0  0  0
  -22.3539  -30.3081   23.9063 C   0  0  1  0  0  0  0  0  0  0  0  0
  -19.1179  -28.8428   22.5831 C   0  0  2  0  0  0  0  0  0  0  0  0
  -22.4589  -30.8061   25.3754 C   0  0  0  0  0  0  0  0  0  0  0  0
  -26.3087  -11.4803   20.8294 N   0  0  0  0  0  0  0  0  0  0  0  0
  -26.2713  -12.5737   20.0489 N   0  0  0  0  0  0  0  0  0  0  0  0
  -29.4213  -22.2676   20.7544 N   0  0  0  0  0  0  0  0  0  0  0  0
  -24.0250  -30.8000   22.1486 N   0  0  0  0  0  0  0  0  0  0  0  0
  -29.4893  -14.5926   19.6599 N   0  0  0  0  0  0  0  0  0  0  0  0
  -26.4989  -18.4829   20.0403 N   0  0  0  0  0  0  0  0  0  0  0  0
  -24.8085  -14.2121   19.1621 N   0  0  0  0  0  0  0  0  0  0  0  0
  -22.0684  -11.5824   21.6060 N   0  0  0  0  0  0  0  0  0  0  0  0
  -28.7758  -16.8378   19.5484 N   0  0  0  0  0  0  0  0  0  0  0  0
  -26.3820  -33.4677   21.9078 N   0  0  0  0  0  0  0  0  0  0  0  0
  -20.9882  -30.0684   23.4528 N   0  0  0  0  0  0  0  0  0  0  0  0
  -18.8950  -27.9233   21.4316 N   0  3  0  0  0  0  0  0  0  0  0  0
  -31.0576  -25.0902   22.0442 O   0  0  0  0  0  0  0  0  0  0  0  0
  -27.3912  -23.1125   19.8447 O   0  0  0  0  0  0  0  0  0  0  0  0
  -22.1534  -13.4235   20.2415 O   0  0  0  0  0  0  0  0  0  0  0  0
  -26.4985  -31.3668   22.9053 O   0  0  0  0  0  0  0  0  0  0  0  0
  -22.5020  -32.4232   22.8429 O   0  0  0  0  0  0  0  0  0  0  0  0
  -21.2902  -27.8354   22.9055 O   0  0  0  0  0  0  0  0  0  0  0  0
  -30.8624  -16.2141   18.7492 O   0  0  0  0  0  0  0  0  0  0  0  0
  -23.5690   -7.0929   24.5434 O   0  0  0  0  0  0  0  0  0  0  0  0
  -27.2335  -25.9032   20.2046 O   0  0  0  0  0  0  0  0  0  1  0  0
  -19.0534   -4.2194   23.2177 F   0  0  0  0  0  0  0  0  0  0  0  0
  -23.7133   -4.3796   24.0336 F   0  0  0  0  0  0  0  0  0  0  0  0
  1  2  1  0  0  0  0
  1  5  2  0  0  0  0
  2  6  2  0  0  0  0
  3 10  2  0  0  0  0
  3 18  1  0  0  0  0
  4 11  1  0  0  0  0
  4 18  2  0  0  0  0
  5 20  1  0  0  0  0
  6 22  1  0  0  0  0
  7 12  2  0  0  0  0
  7 21  1  0  0  0  0
  8  9  2  0  0  0  0
  8 24  1  0  0  0  0
  9 25  1  0  0  0  0
 10 27  1  0  0  0  0
 11 27  2  0  0  0  0
 12 28  1  0  0  0  0
 13 14  2  0  0  0  0
 13 29  1  0  0  0  0
 14 30  1  0  0  0  0
 15 23  1  0  0  0  0
 15 28  2  0  0  0  0
 16 24  2  0  0  0  0
 16 26  1  0  0  0  0
 17 30  2  0  0  0  0
 17 31  1  0  0  0  0
 18 32  1  0  0  0  0
 19 32  1  0  0  0  0
 19 33  2  0  0  0  0
 19 38  1  0  0  0  0
 20 22  2  0  0  0  0
 20 43  1  0  0  0  0
 21 23  2  0  0  0  0
 21 44  1  0  0  0  0
 22 53  1  0  0  0  0
 23 45  1  0  0  0  0
 24 66  1  0  0  0  0
 25 26  2  0  0  0  0
 25 72  1  0  0  0  0
 26 69  1  0  0  0  0
 27 83  1  0  0  0  0
 28 84  1  0  0  0  0
 29 31  2  0  0  0  0
 29 83  1  0  0  0  0
 30 85  1  0  0  0  0
 31 86  1  0  0  0  0
 32 64  2  0  0  0  0
 33 65  1  0  0  0  0
 33 70  1  0  0  0  0
 34 35  1  0  0  0  0
 34 36  1  0  0  0  0
 34 37  2  0  0  0  0
 35 46  1  0  0  0  0
 35 76  2  0  0  0  0
 36 66  1  0  0  0  0
 36 77  2  0  0  0  0
 37 84  1  0  0  0  0
 38 71  1  0  0  0  0
 38 78  2  0  0  0  0
 39 54  1  0  0  0  0
 39 73  1  0  0  0  0
 39 79  2  0  0  0  0
 40 61  1  0  0  0  0
 40 67  1  0  0  0  0
 40 80  2  0  0  0  0
 41 62  1  0  0  0  0
 41 74  1  0  0  0  0
 41 81  2  0  0  0  0
 42 68  1  0  0  0  0
 42 72  1  0  0  0  0
 42 82  2  0  0  0  0
 43 47  1  0  0  0  0
 44 54  1  0  0  0  0
 45 67  1  0  0  0  0
 46 66  1  0  0  0  0
 47 49  1  0  0  0  0
 48 50  1  0  0  0  0
 48 51  1  0  0  0  0
 49 53  1  0  0  0  0
 50 55  1  0  0  0  0
 51 68  1  0  0  0  0
 52 55  1  0  0  0  0
 52 68  1  0  0  0  0
 53 73  1  0  0  0  0
 54 67  1  0  0  0  0
 55 65  1  0  0  0  0
 56 62  1  0  0  0  0
 57 63  1  0  0  0  0
 58 63  1  0  0  0  0
 59 63  1  0  0  0  0
 60 75  1  0  0  0  0
 61 63  1  0  0  0  0
 61 74  1  0  0  0  0
 62 75  1  0  0  0  0
 64 65  1  0  0  0  0
M  CHG  1  75   1
M  ISO  4  37 101  42 100  72 100  84 101
M  END
> <Batch ID>
0085

> <Smiles>
CNC(C)C(=O)NC(C(=O)N1Cc2cc([101O:1][101CH:1]=C3C(=O)CN(c4ccc([100NH:0][100C:0](=O)N5CCCC(n6nc(-c7ccc(Oc8ccc(F)cc8F)cc7)c(C(N)=O)c6N)C5)c(N)c4)C3=O)ccc2CC1C(=O)NC1CCCc2ccccc21)C(C)(C)C

> <Shape>
0.340

> <Color>
0.109

> <Negative vol penalty>
0.000

$$$$

  -OEChem-04052300153D

 84 93  0     1  0  0  0  0  0999 V2000
  -30.0773  -33.9123   25.3837 C   0  0  0  0  0  0  0  0  0  0  0  0
  -30.0472  -32.6979   24.7057 C   0  0  0  0  0  0  0  0  0  0  0  0
  -24.6619   -9.2272   21.9585 C   0  0  0  0  0  0  0  0  0  0  0  0
  -23.2809  -10.0417   20.1511 C   0  0  0  0  0  0  0  0  0  0  0  0
  -28.9131  -34.4149   25.9633 C   0  0  0  0  0  0  0  0  0  0  0  0
  -28.8530  -31.9847   24.6080 C   0  0  0  0  0  0  0  0  0  0  0  0
  -26.9877  -28.5573   19.8878 C   0  0  0  0  0  0  0  0  0  0  0  0
  -23.5441   -8.6346   22.5456 C   0  0  0  0  0  0  0  0  0  0  0  0
  -22.1630   -9.4490   20.7383 C   0  0  0  0  0  0  0  0  0  0  0  0
  -27.0252  -27.1835   19.6536 C   0  0  0  0  0  0  0  0  0  0  0  0
  -21.6860   -5.8436   22.1087 C   0  0  0  0  0  0  0  0  0  0  0  0
  -21.8188   -4.5393   22.5849 C   0  0  0  0  0  0  0  0  0  0  0  0
  -24.7577  -26.9912   20.4542 C   0  0  0  0  0  0  0  0  0  0  0  0
  -25.5583  -19.0229   18.1665 C   0  0  0  0  0  0  0  0  0  0  0  0
  -23.7925  -19.6219   16.6303 C   0  0  0  0  0  0  0  0  0  0  0  0
  -24.5461  -17.3307   16.7705 C   0  0  0  0  0  0  0  0  0  0  0  0
  -21.2508   -5.2935   24.8088 C   0  0  0  0  0  0  0  0  0  0  0  0
  -24.5304   -9.9308   20.7612 C   0  0  0  0  0  0  0  0  0  0  0  0
  -26.5635   -9.9626   19.2208 C   0  0  0  0  0  0  0  0  0  0  0  0
  -27.7019  -33.7122   25.8643 C   0  0  0  0  0  0  0  0  0  0  0  0
  -25.8368  -29.1578   20.4181 C   0  0  0  0  0  0  0  0  0  0  0  0
  -27.6717  -32.4777   25.1879 C   0  0  0  0  0  0  0  0  0  0  0  0
  -24.7073  -28.3733   20.6919 C   0  0  0  0  0  0  0  0  0  0  0  0
  -24.7186  -19.9862   17.6077 C   0  0  0  0  0  0  0  0  0  0  0  0
  -25.4721  -17.6951   17.7479 C   0  0  0  0  0  0  0  0  0  0  0  0
  -22.2946   -8.7455   21.9356 C   0  0  0  0  0  0  0  0  0  0  0  0
  -25.9111  -26.3997   19.9395 C   0  0  0  0  0  0  0  0  0  0  0  0
  -21.3358   -6.8729   22.9826 C   0  0  0  0  0  0  0  0  0  0  0  0
  -21.6011   -4.2642   23.9350 C   0  0  0  0  0  0  0  0  0  0  0  0
  -23.7063  -18.2941   16.2117 C   0  0  0  0  0  0  0  0  0  0  0  0
  -21.1181   -6.5978   24.3326 C   0  0  0  0  0  0  0  0  0  0  0  0
  -25.6846  -10.5437   20.1545 C   0  0  0  0  0  0  0  0  0  0  0  0
  -27.4854  -10.9464   18.9587 C   0  0  0  0  0  0  0  0  0  0  0  0
  -24.9789  -23.2206   18.5373 C   0  0  0  0  0  0  0  0  0  0  0  0
  -24.1292  -22.4156   17.6589 C   0  0  0  0  0  0  0  0  0  0  0  0
  -25.0376  -24.5307   18.8376 C   0  0  0  0  0  0  0  0  0  1  0  0
  -26.5480   -8.6509   18.6422 C   0  0  0  0  0  0  0  0  0  0  0  0
  -25.1681  -30.7666   23.0768 C   0  0  0  0  0  0  0  0  0  0  0  0
  -22.2917  -31.1842   21.6365 C   0  0  0  0  0  0  0  0  0  0  0  0
  -20.0051  -30.0780   19.3573 C   0  0  0  0  0  0  0  0  0  0  0  0
  -27.2991  -16.9095   19.2943 C   0  0  0  0  0  0  0  0  0  0  0  0
  -26.4797  -34.2725   26.5476 C   0  0  0  0  0  0  0  0  0  0  0  0
  -25.8031  -30.6451   20.6400 C   0  0  0  0  0  0  0  0  0  0  0  0
  -23.4402  -28.9725   21.2432 C   0  0  0  0  0  0  0  0  0  0  0  0
  -25.7211  -21.9627   18.9266 C   0  0  0  0  0  0  0  0  0  0  0  0
  -25.1738  -33.6373   26.0770 C   0  0  0  0  0  0  0  0  0  0  0  0
  -29.5774  -14.7521   20.9773 C   0  0  0  0  0  0  0  0  0  0  0  0
  -25.3047  -32.1181   26.0326 C   0  0  0  0  0  0  0  0  0  0  0  0
  -28.9206  -13.3742   20.8670 C   0  0  0  0  0  0  0  0  0  0  0  0
  -28.5431  -15.8594   21.1718 C   0  0  0  0  0  0  0  0  0  0  0  0
  -26.8076  -14.5054   20.0654 C   0  0  0  0  0  0  0  0  0  0  0  0
  -26.3902  -31.6867   25.0391 C   0  0  1  0  0  0  0  0  0  0  0  0
  -24.7567  -31.0729   21.6644 C   0  0  1  0  0  0  0  0  0  0  0  0
  -27.8050  -13.3651   19.8036 C   0  0  2  0  0  0  0  0  0  0  0  0
  -17.7332  -30.6053   18.4311 C   0  0  0  0  0  0  0  0  0  0  0  0
  -21.0034  -30.0644   24.1656 C   0  0  0  0  0  0  0  0  0  0  0  0
  -18.8948  -29.7274   22.8585 C   0  0  0  0  0  0  0  0  0  0  0  0
  -19.8137  -32.0256   23.1693 C   0  0  0  0  0  0  0  0  0  0  0  0
  -21.0793  -30.4587   16.6260 C   0  0  0  0  0  0  0  0  0  0  0  0
  -20.9893  -30.4213   21.6085 C   0  0  1  0  0  0  0  0  0  0  0  0
  -19.2324  -30.8049   18.2715 C   0  0  2  0  0  0  0  0  0  0  0  0
  -20.1997  -30.5478   22.9419 C   0  0  0  0  0  0  0  0  0  0  0  0
  -26.0183  -11.7992   20.4647 N   0  0  0  0  0  0  0  0  0  0  0  0
  -27.1172  -12.0152   19.7218 N   0  0  0  0  0  0  0  0  0  0  0  0
  -24.8034  -21.2959   18.0200 N   0  0  0  0  0  0  0  0  0  0  0  0
  -23.4588  -30.4302   21.4489 N   0  0  0  0  0  0  0  0  0  0  0  0
  -27.5204  -15.7911   20.1256 N   0  0  0  0  0  0  0  0  0  0  0  0
  -28.5670  -10.9929   18.1522 N   0  0  0  0  0  0  0  0  0  0  0  0
  -25.5302   -7.7652   19.0218 N   0  0  0  0  0  0  0  0  0  0  0  0
  -26.3253  -16.7162   18.3150 N   0  0  0  0  0  0  0  0  0  0  0  0
  -25.8962  -31.7734   23.6816 N   0  0  0  0  0  0  0  0  0  0  0  0
  -20.2627  -30.8970   20.4363 N   0  0  0  0  0  0  0  0  0  0  0  0
  -19.6328  -30.3032   16.9265 N   0  3  0  0  0  0  0  0  0  0  0  0
  -23.2079  -22.6485   16.9043 O   0  0  0  0  0  0  0  0  0  0  0  0
  -27.4205   -8.2697   17.8255 O   0  0  0  0  0  0  0  0  0  0  0  0
  -24.8474  -29.6968   23.5810 O   0  0  0  0  0  0  0  0  0  0  0  0
  -22.2737  -32.4052   21.8110 O   0  0  0  0  0  0  0  0  0  0  0  0
  -20.3429  -28.9003   19.2598 O   0  0  0  0  0  0  0  0  0  0  0  0
  -27.9462  -17.9519   19.4229 O   0  0  0  0  0  0  0  0  0  0  0  0
  -21.2036   -8.1671   22.5081 O   0  0  0  0  0  0  0  0  0  0  0  0
  -25.9452  -25.0584   19.7125 O   0  0  0  0  0  0  0  0  0  1  0  0
  -21.7271   -3.0114   24.3918 F   0  0  0  0  0  0  0  0  0  0  0  0
  -22.8176  -17.9440   15.2726 F   0  0  0  0  0  0  0  0  0  0  0  0
  -20.7802   -7.5823   25.1767 F   0  0  0  0  0  0  0  0  0  0  0  0
  1  2  1  0  0  0  0
  1  5  2  0  0  0  0
  2  6  2  0  0  0  0
  3  8  2  0  0  0  0
  3 18  1  0  0  0  0
  4  9  1  0  0  0  0
  4 18  2  0  0  0  0
  5 20  1  0  0  0  0
  6 22  1  0  0  0  0
  7 10  2  0  0  0  0
  7 21  1  0  0  0  0
  8 26  1  0  0  0  0
  9 26  2  0  0  0  0
 10 27  1  0  0  0  0
 11 12  2  0  0  0  0
 11 28  1  0  0  0  0
 12 29  1  0  0  0  0
 13 23  1  0  0  0  0
 13 27  2  0  0  0  0
 14 24  2  0  0  0  0
 14 25  1  0  0  0  0
 15 24  1  0  0  0  0
 15 30  2  0  0  0  0
 16 25  2  0  0  0  0
 16 30  1  0  0  0  0
 17 29  2  0  0  0  0
 17 31  1  0  0  0  0
 18 32  1  0  0  0  0
 19 32  1  0  0  0  0
 19 33  2  0  0  0  0
 19 37  1  0  0  0  0
 20 22  2  0  0  0  0
 20 42  1  0  0  0  0
 21 23  2  0  0  0  0
 21 43  1  0  0  0  0
 22 52  1  0  0  0  0
 23 44  1  0  0  0  0
 24 65  1  0  0  0  0
 25 70  1  0  0  0  0
 26 80  1  0  0  0  0
 27 81  1  0  0  0  0
 28 31  2  0  0  0  0
 28 80  1  0  0  0  0
 29 82  1  0  0  0  0
 30 83  1  0  0  0  0
 31 84  1  0  0  0  0
 32 63  2  0  0  0  0
 33 64  1  0  0  0  0
 33 68  1  0  0  0  0
 34 35  1  0  0  0  0
 34 36  2  0  0  0  0
 34 45  1  0  0  0  0
 35 65  1  0  0  0  0
 35 74  2  0  0  0  0
 36 81  1  0  0  0  0
 37 69  1  0  0  0  0
 37 75  2  0  0  0  0
 38 53  1  0  0  0  0
 38 71  1  0  0  0  0
 38 76  2  0  0  0  0
 39 60  1  0  0  0  0
 39 66  1  0  0  0  0
 39 77  2  0  0  0  0
 40 61  1  0  0  0  0
 40 72  1  0  0  0  0
 40 78  2  0  0  0  0
 41 67  1  0  0  0  0
 41 70  1  0  0  0  0
 41 79  2  0  0  0  0
 42 46  1  0  0  0  0
 43 53  1  0  0  0  0
 44 66  1  0  0  0  0
 45 65  1  0  0  0  0
 46 48  1  0  0  0  0
 47 49  1  0  0  0  0
 47 50  1  0  0  0  0
 48 52  1  0  0  0  0
 49 54  1  0  0  0  0
 50 67  1  0  0  0  0
 51 54  1  0  0  0  0
 51 67  1  0  0  0  0
 52 71  1  0  0  0  0
 53 66  1  0  0  0  0
 54 64  1  0  0  0  0
 55 61  1  0  0  0  0
 56 62  1  0  0  0  0
 57 62  1  0  0  0  0
 58 62  1  0  0  0  0
 59 73  1  0  0  0  0
 60 62  1  0  0  0  0
 60 72  1  0  0  0  0
 61 73  1  0  0  0  0
 63 64  1  0  0  0  0
M  CHG  1  73   1
M  ISO  4  36 101  41 100  70 100  81 101
M  END
> <Batch ID>
0085

> <Smiles>
CNC(C)C(=O)NC(C(=O)N1Cc2cc([101O:1][101CH:1]=C3CN(c4cc(F)cc([100NH:0][100C:0](=O)N5CCCC(n6nc(-c7ccc(Oc8ccc(F)cc8F)cc7)c(C(N)=O)c6N)C5)c4)C3=O)ccc2CC1C(=O)NC1CCCc2ccccc21)C(C)(C)C

> <Shape>
0.267

> <Color>
0.087

> <Negative vol penalty>
0.000

$$$$

  -OEChem-04052300153D

 88 97  0     1  0  0  0  0  0999 V2000
  -16.8468  -28.3410   24.0458 C   0  0  0  0  0  0  0  0  0  0  0  0
  -18.0266  -27.6164   24.1818 C   0  0  0  0  0  0  0  0  0  0  0  0
  -23.2094   -9.7176   20.9596 C   0  0  0  0  0  0  0  0  0  0  0  0
  -23.8057  -10.5096   23.1628 C   0  0  0  0  0  0  0  0  0  0  0  0
  -16.8805  -29.6346   23.5267 C   0  0  0  0  0  0  0  0  0  0  0  0
  -19.2407  -28.1846   23.7979 C   0  0  0  0  0  0  0  0  0  0  0  0
  -22.9110  -27.4082   27.1995 C   0  0  0  0  0  0  0  0  0  0  0  0
  -22.4949   -8.6650   21.5313 C   0  0  0  0  0  0  0  0  0  0  0  0
  -23.0911   -9.4570   23.7346 C   0  0  0  0  0  0  0  0  0  0  0  0
  -23.5119  -26.1502   27.2119 C   0  0  0  0  0  0  0  0  0  0  0  0
  -19.4850   -8.2064   23.0021 C   0  0  0  0  0  0  0  0  0  0  0  0
  -18.2181   -7.9287   22.4888 C   0  0  0  0  0  0  0  0  0  0  0  0
  -29.4740  -18.3224   21.8698 C   0  0  0  0  0  0  0  0  0  0  0  0
  -31.3319  -19.6345   22.6846 C   0  0  0  0  0  0  0  0  0  0  0  0
  -25.3720  -27.0331   25.9549 C   0  0  0  0  0  0  0  0  0  0  0  0
  -31.7250  -17.4601   21.7076 C   0  0  0  0  0  0  0  0  0  0  0  0
  -18.9436   -5.6995   21.9043 C   0  0  0  0  0  0  0  0  0  0  0  0
  -23.8650  -10.6399   21.7753 C   0  0  0  0  0  0  0  0  0  0  0  0
  -29.9622  -19.4845   22.4671 C   0  0  0  0  0  0  0  0  0  0  0  0
  -24.1168  -13.0066   20.8573 C   0  0  0  0  0  0  0  0  0  0  0  0
  -18.0968  -30.2225   23.1452 C   0  0  0  0  0  0  0  0  0  0  0  0
  -23.5320  -28.4873   26.5543 C   0  0  0  0  0  0  0  0  0  0  0  0
  -19.2906  -29.4868   23.2720 C   0  0  0  0  0  0  0  0  0  0  0  0
  -24.7781  -28.3043   25.9380 C   0  0  0  0  0  0  0  0  0  0  0  0
  -30.3554  -17.3101   21.4901 C   0  0  0  0  0  0  0  0  0  0  0  0
  -22.4357   -8.5347   22.9188 C   0  0  0  0  0  0  0  0  0  0  0  0
  -24.7412  -25.9618   26.5870 C   0  0  0  0  0  0  0  0  0  0  0  0
  -20.4812   -7.2308   22.9664 C   0  0  0  0  0  0  0  0  0  0  0  0
  -17.9474   -6.6752   21.9399 C   0  0  0  0  0  0  0  0  0  0  0  0
  -32.2133  -18.6222   22.3049 C   0  0  0  0  0  0  0  0  0  0  0  0
  -20.2105   -5.9773   22.4176 C   0  0  0  0  0  0  0  0  0  0  0  0
  -24.6038  -11.7271   21.1852 C   0  0  0  0  0  0  0  0  0  0  0  0
  -25.2021  -13.6620   20.3289 C   0  0  0  0  0  0  0  0  0  0  0  0
  -26.1551  -22.9319   25.2875 C   0  0  0  0  0  0  0  0  0  0  0  0
  -26.4239  -22.2902   23.9757 C   0  0  0  0  0  0  0  0  0  0  0  0
  -25.5827  -24.1328   25.3966 C   0  0  0  0  0  0  0  0  0  1  0  0
  -29.0192  -20.5670   22.8760 C   0  0  0  0  0  0  0  0  0  0  0  0
  -22.8011  -13.5539   21.0161 C   0  0  0  0  0  0  0  0  0  0  0  0
  -22.7778  -30.3750   24.1105 C   0  0  0  0  0  0  0  0  0  0  0  0
  -25.4744  -31.9453   24.9964 C   0  0  0  0  0  0  0  0  0  0  0  0
  -28.5035  -31.8435   26.5651 C   0  0  0  0  0  0  0  0  0  0  0  0
  -30.5982  -15.0299   20.4472 C   0  0  0  0  0  0  0  0  0  0  0  0
  -18.0777  -31.6061   22.5452 C   0  0  0  0  0  0  0  0  0  0  0  0
  -22.8833  -29.8443   26.5729 C   0  0  0  0  0  0  0  0  0  0  0  0
  -25.4957  -29.4351   25.2490 C   0  0  0  0  0  0  0  0  0  0  0  0
  -26.6321  -22.0510   26.3984 C   0  0  0  0  0  0  0  0  0  0  0  0
  -19.4497  -32.2744   22.5114 C   0  0  0  0  0  0  0  0  0  0  0  0
  -29.7465  -11.9192   18.9387 C   0  0  0  0  0  0  0  0  0  0  0  0
  -20.5022  -31.3062   21.9807 C   0  0  0  0  0  0  0  0  0  0  0  0
  -28.2926  -11.6972   19.3617 C   0  0  0  0  0  0  0  0  0  0  0  0
  -27.4006  -20.9525   25.6777 C   0  0  0  0  0  0  0  0  0  0  0  0
  -30.5656  -12.5775   20.0476 C   0  0  0  0  0  0  0  0  0  0  0  0
  -28.5399  -13.5948   21.0125 C   0  0  0  0  0  0  0  0  0  0  0  0
  -20.6302  -30.0779   22.8898 C   0  0  1  0  0  0  0  0  0  0  0  0
  -23.3618  -30.7508   25.4430 C   0  0  1  0  0  0  0  0  0  0  0  0
  -27.6595  -12.9932   19.9049 C   0  0  2  0  0  0  0  0  0  0  0  0
  -30.4979  -33.2724   27.0923 C   0  0  0  0  0  0  0  0  0  0  0  0
  -26.4359  -31.6626   22.1145 C   0  0  0  0  0  0  0  0  0  0  0  0
  -28.7447  -32.2246   22.9031 C   0  0  0  0  0  0  0  0  0  0  0  0
  -26.9027  -33.8876   23.1564 C   0  0  0  0  0  0  0  0  0  0  0  0
  -28.0890  -31.5493   29.4806 C   0  0  0  0  0  0  0  0  0  0  0  0
  -27.6111  -20.1847   23.2868 C   0  0  0  0  0  0  0  0  0  0  0  0
  -26.9378  -31.8413   24.6408 C   0  0  1  0  0  0  0  0  0  0  0  0
  -29.1453  -32.7747   27.5777 C   0  0  2  0  0  0  0  0  0  0  0  0
  -27.2411  -32.3821   23.2149 C   0  0  0  0  0  0  0  0  0  0  0  0
  -25.8976  -11.5765   20.8898 N   0  0  0  0  0  0  0  0  0  0  0  0
  -26.2329  -12.7698   20.3705 N   0  0  0  0  0  0  0  0  0  0  0  0
  -27.1151  -21.1250   24.2693 N   0  0  0  0  0  0  0  0  0  0  0  0
  -24.8179  -30.7415   25.2889 N   0  0  0  0  0  0  0  0  0  0  0  0
  -29.9071  -13.8013   20.5096 N   0  0  0  0  0  0  0  0  0  0  0  0
  -25.3656  -14.9086   19.8373 N   0  0  0  0  0  0  0  0  0  0  0  0
  -21.8038  -12.7440   21.5764 N   0  0  0  0  0  0  0  0  0  0  0  0
  -29.8598  -16.1295   20.8833 N   0  0  0  0  0  0  0  0  0  0  0  0
  -21.3968  -30.4029   24.0735 N   0  0  0  0  0  0  0  0  0  0  0  0
  -27.6661  -32.5226   25.7056 N   0  0  0  0  0  0  0  0  0  0  0  0
  -29.3419  -32.0711   28.8766 N   0  3  0  0  0  0  0  0  0  0  0  0
  -26.0872  -22.7308   22.8898 O   0  0  0  0  0  0  0  0  0  0  0  0
  -29.4072  -21.7333   22.8706 O   0  0  0  0  0  0  0  0  0  0  0  0
  -22.5142  -14.7208   20.6564 O   0  0  0  0  0  0  0  0  0  0  0  0
  -23.5250  -30.0827   23.1842 O   0  0  0  0  0  0  0  0  0  0  0  0
  -24.9354  -33.0546   25.0210 O   0  0  0  0  0  0  0  0  0  0  0  0
  -28.7260  -30.6350   26.5368 O   0  0  0  0  0  0  0  0  0  0  0  0
  -31.7500  -15.1051   20.0116 O   0  0  0  0  0  0  0  0  0  0  0  0
  -21.7382   -7.5078   23.4771 O   0  0  0  0  0  0  0  0  0  0  0  0
  -25.3297  -24.7348   26.5971 O   0  0  0  0  0  0  0  0  0  1  0  0
  -16.7303   -6.4081   21.4485 F   0  0  0  0  0  0  0  0  0  0  0  0
  -33.5282  -18.7648   22.5164 F   0  0  0  0  0  0  0  0  0  0  0  0
  -21.1632   -5.0356   22.3816 F   0  0  0  0  0  0  0  0  0  0  0  0
  1  2  1  0  0  0  0
  1  5  2  0  0  0  0
  2  6  2  0  0  0  0
  3  8  2  0  0  0  0
  3 18  1  0  0  0  0
  4  9  1  0  0  0  0
  4 18  2  0  0  0  0
  5 21  1  0  0  0  0
  6 23  1  0  0  0  0
  7 10  2  0  0  0  0
  7 22  1  0  0  0  0
  8 26  1  0  0  0  0
  9 26  2  0  0  0  0
 10 27  1  0  0  0  0
 11 12  2  0  0  0  0
 11 28  1  0  0  0  0
 12 29  1  0  0  0  0
 13 19  2  0  0  0  0
 13 25  1  0  0  0  0
 14 19  1  0  0  0  0
 14 30  2  0  0  0  0
 15 24  1  0  0  0  0
 15 27  2  0  0  0  0
 16 25  2  0  0  0  0
 16 30  1  0  0  0  0
 17 29  2  0  0  0  0
 17 31  1  0  0  0  0
 18 32  1  0  0  0  0
 19 37  1  0  0  0  0
 20 32  1  0  0  0  0
 20 33  2  0  0  0  0
 20 38  1  0  0  0  0
 21 23  2  0  0  0  0
 21 43  1  0  0  0  0
 22 24  2  0  0  0  0
 22 44  1  0  0  0  0
 23 54  1  0  0  0  0
 24 45  1  0  0  0  0
 25 73  1  0  0  0  0
 26 84  1  0  0  0  0
 27 85  1  0  0  0  0
 28 31  2  0  0  0  0
 28 84  1  0  0  0  0
 29 86  1  0  0  0  0
 30 87  1  0  0  0  0
 31 88  1  0  0  0  0
 32 66  2  0  0  0  0
 33 67  1  0  0  0  0
 33 71  1  0  0  0  0
 34 35  1  0  0  0  0
 34 36  2  0  0  0  0
 34 46  1  0  0  0  0
 35 68  1  0  0  0  0
 35 77  2  0  0  0  0
 36 85  1  0  0  0  0
 37 62  1  0  0  0  0
 37 78  2  0  0  0  0
 38 72  1  0  0  0  0
 38 79  2  0  0  0  0
 39 55  1  0  0  0  0
 39 74  1  0  0  0  0
 39 80  2  0  0  0  0
 40 63  1  0  0  0  0
 40 69  1  0  0  0  0
 40 81  2  0  0  0  0
 41 64  1  0  0  0  0
 41 75  1  0  0  0  0
 41 82  2  0  0  0  0
 42 70  1  0  0  0  0
 42 73  1  0  0  0  0
 42 83  2  0  0  0  0
 43 47  1  0  0  0  0
 44 55  1  0  0  0  0
 45 69  1  0  0  0  0
 46 51  1  0  0  0  0
 47 49  1  0  0  0  0
 48 50  1  0  0  0  0
 48 52  1  0  0  0  0
 49 54  1  0  0  0  0
 50 56  1  0  0  0  0
 51 68  1  0  0  0  0
 52 70  1  0  0  0  0
 53 56  1  0  0  0  0
 53 70  1  0  0  0  0
 54 74  1  0  0  0  0
 55 69  1  0  0  0  0
 56 67  1  0  0  0  0
 57 64  1  0  0  0  0
 58 65  1  0  0  0  0
 59 65  1  0  0  0  0
 60 65  1  0  0  0  0
 61 76  1  0  0  0  0
 62 68  1  0  0  0  0
 63 65  1  0  0  0  0
 63 75  1  0  0  0  0
 64 76  1  0  0  0  0
 66 67  1  0  0  0  0
M  CHG  1  76   1
M  ISO  4  36 101  42 100  73 100  85 101
M  END
> <Batch ID>
0085

> <Smiles>
CNC(C)C(=O)NC(C(=O)N1Cc2cc([101O:1][101CH:1]=C3CCN(CC(=O)c4cc(F)cc([100NH:0][100C:0](=O)N5CCCC(n6nc(-c7ccc(Oc8ccc(F)cc8F)cc7)c(C(N)=O)c6N)C5)c4)C3=O)ccc2CC1C(=O)NC1CCCc2ccccc21)C(C)(C)C

> <Shape>
0.269

> <Color>
0.160

> <Negative vol penalty>
0.000

$$$$

  -OEChem-04052300153D

 86 95  0     1  0  0  0  0  0999 V2000
  -32.5824  -19.5691   26.8752 C   0  0  0  0  0  0  0  0  0  0  0  0
  -31.4200  -20.2102   26.4590 C   0  0  0  0  0  0  0  0  0  0  0  0
  -27.1912  -23.6334   21.4851 C   0  0  0  0  0  0  0  0  0  0  0  0
  -28.9611  -25.2640   21.2724 C   0  0  0  0  0  0  0  0  0  0  0  0
  -33.0800  -18.4888   26.1478 C   0  0  0  0  0  0  0  0  0  0  0  0
  -30.7550  -19.7718   25.3144 C   0  0  0  0  0  0  0  0  0  0  0  0
  -24.7071  -19.7518   24.3508 C   0  0  0  0  0  0  0  0  0  0  0  0
  -18.5863  -26.9018   22.3019 C   0  0  0  0  0  0  0  0  0  0  0  0
  -18.1459  -28.2008   22.5551 C   0  0  0  0  0  0  0  0  0  0  0  0
  -27.6656  -22.9707   20.3532 C   0  0  0  0  0  0  0  0  0  0  0  0
  -29.4356  -24.6013   20.1404 C   0  0  0  0  0  0  0  0  0  0  0  0
  -23.8630  -20.6273   23.6689 C   0  0  0  0  0  0  0  0  0  0  0  0
  -30.1631  -20.8237   19.5874 C   0  0  0  0  0  0  0  0  0  0  0  0
  -30.2606  -19.4335   19.6435 C   0  0  0  0  0  0  0  0  0  0  0  0
  -20.8458  -27.5615   22.8465 C   0  0  0  0  0  0  0  0  0  0  0  0
  -23.9959  -19.2222   21.7126 C   0  0  0  0  0  0  0  0  0  0  0  0
  -28.7251  -19.2508   17.7872 C   0  0  0  0  0  0  0  0  0  0  0  0
  -27.8389  -24.7801   21.9447 C   0  0  0  0  0  0  0  0  0  0  0  0
  -20.4054  -28.8606   23.0996 C   0  0  0  0  0  0  0  0  0  0  0  0
  -27.2213  -24.9427   24.4145 C   0  0  0  0  0  0  0  0  0  0  0  0
  -32.4154  -18.0308   24.9992 C   0  0  0  0  0  0  0  0  0  0  0  0
  -25.2115  -18.6088   23.7141 C   0  0  0  0  0  0  0  0  0  0  0  0
  -31.2448  -18.6851   24.5702 C   0  0  0  0  0  0  0  0  0  0  0  0
  -24.8442  -18.3325   22.3894 C   0  0  0  0  0  0  0  0  0  0  0  0
  -19.9362  -26.5821   22.4477 C   0  0  0  0  0  0  0  0  0  0  0  0
  -19.0555  -29.1802   22.9539 C   0  0  0  0  0  0  0  0  0  0  0  0
  -28.7878  -23.4546   19.6808 C   0  0  0  0  0  0  0  0  0  0  0  0
  -23.5096  -20.3640   22.3487 C   0  0  0  0  0  0  0  0  0  0  0  0
  -29.3464  -21.4276   18.6313 C   0  0  0  0  0  0  0  0  0  0  0  0
  -29.5417  -18.6470   18.7434 C   0  0  0  0  0  0  0  0  0  0  0  0
  -28.6275  -20.6411   17.7312 C   0  0  0  0  0  0  0  0  0  0  0  0
  -27.3489  -25.4654   23.1136 C   0  0  0  0  0  0  0  0  0  0  0  0
  -26.7143  -25.9829   25.1543 C   0  0  0  0  0  0  0  0  0  0  0  0
  -21.6582  -23.3469   21.9169 C   0  0  0  0  0  0  0  0  0  0  0  0
  -21.7041  -24.7854   22.2918 C   0  0  0  0  0  0  0  0  0  0  0  0
  -21.3911  -29.8721   23.5205 C   0  0  0  0  0  0  0  0  0  0  0  0
  -22.7170  -22.5402   22.0220 C   0  0  0  0  0  0  0  0  0  1  0  0
  -27.5333  -23.6339   24.9099 C   0  0  0  0  0  0  0  0  0  0  0  0
  -28.1154  -17.5577   22.9614 C   0  0  0  0  0  0  0  0  0  0  0  0
  -26.4934  -14.8975   22.0584 C   0  0  0  0  0  0  0  0  0  0  0  0
  -23.5509  -13.5077   21.0305 C   0  0  0  0  0  0  0  0  0  0  0  0
  -23.4955  -30.7992   23.5773 C   0  0  0  0  0  0  0  0  0  0  0  0
  -33.0173  -16.8891   24.2189 C   0  0  0  0  0  0  0  0  0  0  0  0
  -26.0995  -17.6603   24.4719 C   0  0  0  0  0  0  0  0  0  0  0  0
  -25.3424  -17.1083   21.6672 C   0  0  0  0  0  0  0  0  0  0  0  0
  -20.2926  -22.9779   21.4534 C   0  0  0  0  0  0  0  0  0  0  0  0
  -32.0472  -16.2495   23.2290 C   0  0  0  0  0  0  0  0  0  0  0  0
  -26.6306  -30.7557   25.3590 C   0  0  0  0  0  0  0  0  0  0  0  0
  -31.3159  -17.3229   22.4289 C   0  0  0  0  0  0  0  0  0  0  0  0
  -27.1726  -29.3552   25.0736 C   0  0  0  0  0  0  0  0  0  0  0  0
  -19.4572  -24.1863   21.8424 C   0  0  0  0  0  0  0  0  0  0  0  0
  -25.8651  -31.3143   24.1634 C   0  0  0  0  0  0  0  0  0  0  0  0
  -25.2995  -29.0239   23.3998 C   0  0  0  0  0  0  0  0  0  0  0  0
  -30.4815  -18.2233   23.3479 C   0  0  1  0  0  0  0  0  0  0  0  0
  -26.9668  -16.7969   23.5611 C   0  0  1  0  0  0  0  0  0  0  0  0
  -26.0514  -28.4152   24.5958 C   0  0  1  0  0  0  0  0  0  0  0  0
  -22.5445  -11.3172   20.3331 C   0  0  0  0  0  0  0  0  0  0  0  0
  -27.8670  -15.1334   19.3441 C   0  0  0  0  0  0  0  0  0  0  0  0
  -26.1580  -13.5542   18.4201 C   0  0  0  0  0  0  0  0  0  0  0  0
  -27.7006  -12.8006   20.2298 C   0  0  0  0  0  0  0  0  0  0  0  0
  -21.6102  -13.5556   23.2644 C   0  0  0  0  0  0  0  0  0  0  0  0
  -25.8427  -14.4242   20.7811 C   0  0  1  0  0  0  0  0  0  0  0  0
  -22.8078  -12.2668   21.4914 C   0  0  2  0  0  0  0  0  0  0  0  0
  -26.8841  -14.0023   19.7065 C   0  0  0  0  0  0  0  0  0  0  0  0
  -26.9546  -26.7387   23.0286 N   0  0  0  0  0  0  0  0  0  0  0  0
  -22.6263  -29.8168   23.1428 N   0  0  0  0  0  0  0  0  0  0  0  0
  -26.5741  -27.0248   24.2854 N   0  0  0  0  0  0  0  0  0  0  0  0
  -20.3867  -25.2504   22.1880 N   0  0  0  0  0  0  0  0  0  0  0  0
  -26.2131  -16.2147   22.4487 N   0  0  0  0  0  0  0  0  0  0  0  0
  -24.8311  -30.3795   23.7174 N   0  0  0  0  0  0  0  0  0  0  0  0
  -18.5890  -30.4900   23.2046 N   0  0  0  0  0  0  0  0  0  0  0  0
  -26.3791  -26.0989   26.4568 N   0  0  0  0  0  0  0  0  0  0  0  0
  -28.8237  -23.3960   25.4025 N   0  0  0  0  0  0  0  0  0  0  0  0
  -29.2589  -17.5538   23.7371 N   0  0  0  0  0  0  0  0  0  0  0  0
  -24.9159  -13.3645   21.1636 N   0  0  0  0  0  0  0  0  0  0  0  0
  -21.4993  -12.6421   22.0981 N   0  3  0  0  0  0  0  0  0  0  0  0
  -22.7294  -25.3598   22.6186 O   0  0  0  0  0  0  0  0  0  0  0  0
  -26.6977  -22.6984   24.9003 O   0  0  0  0  0  0  0  0  0  0  0  0
  -27.9750  -18.1063   21.8746 O   0  0  0  0  0  0  0  0  0  0  0  0
  -27.2179  -14.1247   22.6904 O   0  0  0  0  0  0  0  0  0  0  0  0
  -22.9781  -14.5029   20.5925 O   0  0  0  0  0  0  0  0  0  0  0  0
  -23.1549  -31.9586   23.8237 O   0  0  0  0  0  0  0  0  0  0  0  0
  -29.2512  -22.8080   18.5764 O   0  0  0  0  0  0  0  0  0  0  0  0
  -22.6864  -21.2172   21.6807 O   0  0  0  0  0  0  0  0  0  1  0  0
  -29.6367  -17.3119   18.7964 F   0  0  0  0  0  0  0  0  0  0  0  0
  -27.8423  -21.2156   16.8096 F   0  0  0  0  0  0  0  0  0  0  0  0
  1  2  1  0  0  0  0
  1  5  2  0  0  0  0
  2  6  2  0  0  0  0
  3 10  2  0  0  0  0
  3 18  1  0  0  0  0
  4 11  1  0  0  0  0
  4 18  2  0  0  0  0
  5 21  1  0  0  0  0
  6 23  1  0  0  0  0
  7 12  2  0  0  0  0
  7 22  1  0  0  0  0
  8  9  2  0  0  0  0
  8 25  1  0  0  0  0
  9 26  1  0  0  0  0
 10 27  1  0  0  0  0
 11 27  2  0  0  0  0
 12 28  1  0  0  0  0
 13 14  2  0  0  0  0
 13 29  1  0  0  0  0
 14 30  1  0  0  0  0
 15 19  1  0  0  0  0
 15 25  2  0  0  0  0
 16 24  1  0  0  0  0
 16 28  2  0  0  0  0
 17 30  2  0  0  0  0
 17 31  1  0  0  0  0
 18 32  1  0  0  0  0
 19 26  2  0  0  0  0
 19 36  1  0  0  0  0
 20 32  1  0  0  0  0
 20 33  2  0  0  0  0
 20 38  1  0  0  0  0
 21 23  2  0  0  0  0
 21 43  1  0  0  0  0
 22 24  2  0  0  0  0
 22 44  1  0  0  0  0
 23 54  1  0  0  0  0
 24 45  1  0  0  0  0
 25 68  1  0  0  0  0
 26 71  1  0  0  0  0
 27 83  1  0  0  0  0
 28 84  1  0  0  0  0
 29 31  2  0  0  0  0
 29 83  1  0  0  0  0
 30 85  1  0  0  0  0
 31 86  1  0  0  0  0
 32 65  2  0  0  0  0
 33 67  1  0  0  0  0
 33 72  1  0  0  0  0
 34 35  1  0  0  0  0
 34 37  2  0  0  0  0
 34 46  1  0  0  0  0
 35 68  1  0  0  0  0
 35 77  2  0  0  0  0
 36 66  2  0  0  0  0
 37 84  1  0  0  0  0
 38 73  1  0  0  0  0
 38 78  2  0  0  0  0
 39 55  1  0  0  0  0
 39 74  1  0  0  0  0
 39 79  2  0  0  0  0
 40 62  1  0  0  0  0
 40 69  1  0  0  0  0
 40 80  2  0  0  0  0
 41 63  1  0  0  0  0
 41 75  1  0  0  0  0
 41 81  2  0  0  0  0
 42 66  1  0  0  0  0
 42 70  1  0  0  0  0
 42 82  2  0  0  0  0
 43 47  1  0  0  0  0
 44 55  1  0  0  0  0
 45 69  1  0  0  0  0
 46 51  1  0  0  0  0
 47 49  1  0  0  0  0
 48 50  1  0  0  0  0
 48 52  1  0  0  0  0
 49 54  1  0  0  0  0
 50 56  1  0  0  0  0
 51 68  1  0  0  0  0
 52 70  1  0  0  0  0
 53 56  1  0  0  0  0
 53 70  1  0  0  0  0
 54 74  1  0  0  0  0
 55 69  1  0  0  0  0
 56 67  1  0  0  0  0
 57 63  1  0  0  0  0
 58 64  1  0  0  0  0
 59 64  1  0  0  0  0
 60 64  1  0  0  0  0
 61 76  1  0  0  0  0
 62 64  1  0  0  0  0
 62 75  1  0  0  0  0
 63 76  1  0  0  0  0
 65 67  1  0  0  0  0
M  CHG  1  76   1
M  ISO  4  37 101  42 100  66 100  84 101
M  END
> <Batch ID>
0085

> <Smiles>
CNC(C)C(=O)NC(C(=O)N1Cc2cc([101O:1][101CH:1]=C3CCN(c4ccc(N)c(C=[100N:0][100C:0](=O)N5CCCC(n6nc(-c7ccc(Oc8ccc(F)cc8F)cc7)c(C(N)=O)c6N)C5)c4)C3=O)ccc2CC1C(=O)NC1CCCc2ccccc21)C(C)(C)C

> <Shape>
0.211

> <Color>
0.079

> <Negative vol penalty>
0.000

$$$$

  -OEChem-04052300153D

 84 93  0     1  0  0  0  0  0999 V2000
  -27.3341  -37.7069   23.9876 C   0  0  0  0  0  0  0  0  0  0  0  0
  -27.9373  -36.7668   23.1584 C   0  0  0  0  0  0  0  0  0  0  0  0
  -24.1630   -9.2402   22.0647 C   0  0  0  0  0  0  0  0  0  0  0  0
  -22.8923  -11.2091   21.4768 C   0  0  0  0  0  0  0  0  0  0  0  0
  -26.4219  -37.2953   24.9583 C   0  0  0  0  0  0  0  0  0  0  0  0
  -27.6294  -35.4142   23.3001 C   0  0  0  0  0  0  0  0  0  0  0  0
  -26.9360  -29.4132   19.4500 C   0  0  0  0  0  0  0  0  0  0  0  0
  -28.5332  -19.7600   19.8523 C   0  0  0  0  0  0  0  0  0  0  0  0
  -28.7962  -18.3984   19.7020 C   0  0  0  0  0  0  0  0  0  0  0  0
  -23.2690   -8.9728   23.1014 C   0  0  0  0  0  0  0  0  0  0  0  0
  -21.9982  -10.9417   22.5135 C   0  0  0  0  0  0  0  0  0  0  0  0
  -27.3835  -28.0930   19.4231 C   0  0  0  0  0  0  0  0  0  0  0  0
  -20.1833   -7.6341   23.4465 C   0  0  0  0  0  0  0  0  0  0  0  0
  -19.7373   -6.3209   23.5952 C   0  0  0  0  0  0  0  0  0  0  0  0
  -25.7331  -27.5063   21.0818 C   0  0  0  0  0  0  0  0  0  0  0  0
  -26.2709  -19.4082   19.0805 C   0  0  0  0  0  0  0  0  0  0  0  0
  -20.6693   -6.2567   25.8233 C   0  0  0  0  0  0  0  0  0  0  0  0
  -23.9747  -10.3585   21.2524 C   0  0  0  0  0  0  0  0  0  0  0  0
  -24.8162  -10.1853   18.8504 C   0  0  0  0  0  0  0  0  0  0  0  0
  -26.0953  -35.9380   25.1056 C   0  0  0  0  0  0  0  0  0  0  0  0
  -25.8893  -29.7927   20.3024 C   0  0  0  0  0  0  0  0  0  0  0  0
  -26.7129  -34.9838   24.2746 C   0  0  0  0  0  0  0  0  0  0  0  0
  -25.2725  -28.8313   21.1158 C   0  0  0  0  0  0  0  0  0  0  0  0
  -27.2705  -20.2649   19.5415 C   0  0  0  0  0  0  0  0  0  0  0  0
  -27.7966  -17.5417   19.2410 C   0  0  0  0  0  0  0  0  0  0  0  0
  -26.5339  -18.0466   18.9302 C   0  0  0  0  0  0  0  0  0  0  0  0
  -22.1866   -9.8235   23.3258 C   0  0  0  0  0  0  0  0  0  0  0  0
  -26.7839  -27.1399   20.2412 C   0  0  0  0  0  0  0  0  0  0  0  0
  -20.8724   -8.2586   24.4861 C   0  0  0  0  0  0  0  0  0  0  0  0
  -19.9802   -5.6322   24.7836 C   0  0  0  0  0  0  0  0  0  0  0  0
  -21.1153   -7.5699   25.6745 C   0  0  0  0  0  0  0  0  0  0  0  0
  -24.8983  -10.6356   20.1817 C   0  0  0  0  0  0  0  0  0  0  0  0
  -25.9242  -10.7188   18.2387 C   0  0  0  0  0  0  0  0  0  0  0  0
  -26.6461  -23.5712   19.8078 C   0  0  0  0  0  0  0  0  0  0  0  0
  -25.9028  -22.3568   19.4696 C   0  0  0  0  0  0  0  0  0  0  0  0
  -26.3272  -24.8770   19.8653 C   0  0  0  0  0  0  0  0  0  1  0  0
  -23.8269   -9.3589   18.2229 C   0  0  0  0  0  0  0  0  0  0  0  0
  -25.6022  -31.8107   22.7415 C   0  0  0  0  0  0  0  0  0  0  0  0
  -22.4654  -31.0126   22.5266 C   0  0  0  0  0  0  0  0  0  0  0  0
  -20.1139  -28.7452   21.5388 C   0  0  0  0  0  0  0  0  0  0  0  0
  -29.2958  -15.5212   19.3676 C   0  0  0  0  0  0  0  0  0  0  0  0
  -25.1391  -35.5361   26.2005 C   0  0  0  0  0  0  0  0  0  0  0  0
  -25.4005  -31.2152   20.3000 C   0  0  0  0  0  0  0  0  0  0  0  0
  -24.1316  -29.1833   22.0338 C   0  0  0  0  0  0  0  0  0  0  0  0
  -27.8728  -22.7211   20.0467 C   0  0  0  0  0  0  0  0  0  0  0  0
  -24.5849  -34.1231   26.0368 C   0  0  0  0  0  0  0  0  0  0  0  0
  -30.3996  -12.1414   19.1773 C   0  0  0  0  0  0  0  0  0  0  0  0
  -25.7073  -33.1444   25.7067 C   0  0  0  0  0  0  0  0  0  0  0  0
  -29.1060  -11.3309   19.2860 C   0  0  0  0  0  0  0  0  0  0  0  0
  -30.3642  -13.3873   20.0606 C   0  0  0  0  0  0  0  0  0  0  0  0
  -27.9029  -13.4450   19.9716 C   0  0  0  0  0  0  0  0  0  0  0  0
  -26.3861  -33.5101   24.3811 C   0  0  1  0  0  0  0  0  0  0  0  0
  -24.6692  -31.5979   21.5830 C   0  0  1  0  0  0  0  0  0  0  0  0
  -27.8656  -12.2149   19.0502 C   0  0  2  0  0  0  0  0  0  0  0  0
  -17.6351  -28.3542   21.5315 C   0  0  0  0  0  0  0  0  0  0  0  0
  -22.5704  -30.3078   25.4934 C   0  0  0  0  0  0  0  0  0  0  0  0
  -20.4186  -29.0617   25.2022 C   0  0  0  0  0  0  0  0  0  0  0  0
  -20.5015  -31.5191   24.7816 C   0  0  0  0  0  0  0  0  0  0  0  0
  -20.0198  -28.6545   18.5821 C   0  0  0  0  0  0  0  0  0  0  0  0
  -21.5907  -29.9420   23.1328 C   0  0  1  0  0  0  0  0  0  0  0  0
  -18.8218  -28.9089   20.7590 C   0  0  2  0  0  0  0  0  0  0  0  0
  -21.2931  -30.2011   24.6367 C   0  0  0  0  0  0  0  0  0  0  0  0
  -25.9735  -11.3963   20.4034 N   0  0  0  0  0  0  0  0  0  0  0  0
  -26.5773  -11.4282   19.2032 N   0  0  0  0  0  0  0  0  0  0  0  0
  -27.0114  -21.6077   19.6900 N   0  0  0  0  0  0  0  0  0  0  0  0
  -23.6938  -30.5886   22.0002 N   0  0  0  0  0  0  0  0  0  0  0  0
  -29.1640  -14.1779   19.7789 N   0  0  0  0  0  0  0  0  0  0  0  0
  -25.5068  -17.1966   18.4620 N   0  0  0  0  0  0  0  0  0  0  0  0
  -26.3939  -10.6454   16.9751 N   0  0  0  0  0  0  0  0  0  0  0  0
  -22.7538   -8.8966   18.9969 N   0  0  0  0  0  0  0  0  0  0  0  0
  -28.0875  -16.1625   19.0969 N   0  0  0  0  0  0  0  0  0  0  0  0
  -25.5695  -33.0901   23.2625 N   0  0  0  0  0  0  0  0  0  0  0  0
  -20.4004  -29.8633   22.2930 N   0  0  0  0  0  0  0  0  0  0  0  0
  -18.9096  -28.1931   19.4548 N   0  3  0  0  0  0  0  0  0  0  0  0
  -24.7664  -22.1133   19.1208 O   0  0  0  0  0  0  0  0  0  0  0  0
  -23.9012   -9.0263   17.0157 O   0  0  0  0  0  0  0  0  0  0  0  0
  -26.2990  -30.8824   23.1345 O   0  0  0  0  0  0  0  0  0  0  0  0
  -22.0701  -32.1811   22.5139 O   0  0  0  0  0  0  0  0  0  0  0  0
  -20.7986  -27.7258   21.4870 O   0  0  0  0  0  0  0  0  0  0  0  0
  -30.4006  -16.0545   19.2370 O   0  0  0  0  0  0  0  0  0  0  0  0
  -21.3139   -9.5626   24.3372 O   0  0  0  0  0  0  0  0  0  0  0  0
  -27.2191  -25.8508   20.2175 O   0  0  0  0  0  0  0  0  0  1  0  0
  -19.5505   -4.3716   24.9269 F   0  0  0  0  0  0  0  0  0  0  0  0
  -21.7758   -8.1650   26.6773 F   0  0  0  0  0  0  0  0  0  0  0  0
  1  2  1  0  0  0  0
  1  5  2  0  0  0  0
  2  6  2  0  0  0  0
  3 10  2  0  0  0  0
  3 18  1  0  0  0  0
  4 11  1  0  0  0  0
  4 18  2  0  0  0  0
  5 20  1  0  0  0  0
  6 22  1  0  0  0  0
  7 12  2  0  0  0  0
  7 21  1  0  0  0  0
  8  9  2  0  0  0  0
  8 24  1  0  0  0  0
  9 25  1  0  0  0  0
 10 27  1  0  0  0  0
 11 27  2  0  0  0  0
 12 28  1  0  0  0  0
 13 14  2  0  0  0  0
 13 29  1  0  0  0  0
 14 30  1  0  0  0  0
 15 23  1  0  0  0  0
 15 28  2  0  0  0  0
 16 24  2  0  0  0  0
 16 26  1  0  0  0  0
 17 30  2  0  0  0  0
 17 31  1  0  0  0  0
 18 32  1  0  0  0  0
 19 32  1  0  0  0  0
 19 33  2  0  0  0  0
 19 37  1  0  0  0  0
 20 22  2  0  0  0  0
 20 42  1  0  0  0  0
 21 23  2  0  0  0  0
 21 43  1  0  0  0  0
 22 52  1  0  0  0  0
 23 44  1  0  0  0  0
 24 65  1  0  0  0  0
 25 26  2  0  0  0  0
 25 71  1  0  0  0  0
 26 68  1  0  0  0  0
 27 81  1  0  0  0  0
 28 82  1  0  0  0  0
 29 31  2  0  0  0  0
 29 81  1  0  0  0  0
 30 83  1  0  0  0  0
 31 84  1  0  0  0  0
 32 63  2  0  0  0  0
 33 64  1  0  0  0  0
 33 69  1  0  0  0  0
 34 35  1  0  0  0  0
 34 36  2  0  0  0  0
 34 45  1  0  0  0  0
 35 65  1  0  0  0  0
 35 75  2  0  0  0  0
 36 82  1  0  0  0  0
 37 70  1  0  0  0  0
 37 76  2  0  0  0  0
 38 53  1  0  0  0  0
 38 72  1  0  0  0  0
 38 77  2  0  0  0  0
 39 60  1  0  0  0  0
 39 66  1  0  0  0  0
 39 78  2  0  0  0  0
 40 61  1  0  0  0  0
 40 73  1  0  0  0  0
 40 79  2  0  0  0  0
 41 67  1  0  0  0  0
 41 71  1  0  0  0  0
 41 80  2  0  0  0  0
 42 46  1  0  0  0  0
 43 53  1  0  0  0  0
 44 66  1  0  0  0  0
 45 65  1  0  0  0  0
 46 48  1  0  0  0  0
 47 49  1  0  0  0  0
 47 50  1  0  0  0  0
 48 52  1  0  0  0  0
 49 54  1  0  0  0  0
 50 67  1  0  0  0  0
 51 54  1  0  0  0  0
 51 67  1  0  0  0  0
 52 72  1  0  0  0  0
 53 66  1  0  0  0  0
 54 64  1  0  0  0  0
 55 61  1  0  0  0  0
 56 62  1  0  0  0  0
 57 62  1  0  0  0  0
 58 62  1  0  0  0  0
 59 74  1  0  0  0  0
 60 62  1  0  0  0  0
 60 73  1  0  0  0  0
 61 74  1  0  0  0  0
 63 64  1  0  0  0  0
M  CHG  1  74   1
M  ISO  4  36 101  41 100  71 100  82 101
M  END
> <Batch ID>
0085

> <Smiles>
CNC(C)C(=O)NC(C(=O)N1Cc2cc([101O:1][101CH:1]=C3CN(c4ccc([100NH:0][100C:0](=O)N5CCCC(n6nc(-c7ccc(Oc8ccc(F)cc8F)cc7)c(C(N)=O)c6N)C5)c(N)c4)C3=O)ccc2CC1C(=O)NC1CCCc2ccccc21)C(C)(C)C

> <Shape>
0.290

> <Color>
0.084

> <Negative vol penalty>
0.000

$$$$

  -OEChem-04052300153D

 87 96  0     1  0  0  0  0  0999 V2000
  -27.3627  -33.1343   27.0973 C   0  0  0  0  0  0  0  0  0  0  0  0
  -27.6714  -32.0720   26.2538 C   0  0  0  0  0  0  0  0  0  0  0  0
  -24.3451  -13.9255   22.7275 C   0  0  0  0  0  0  0  0  0  0  0  0
  -26.7410  -13.7884   22.4484 C   0  0  0  0  0  0  0  0  0  0  0  0
  -26.0334  -33.4016   27.4220 C   0  0  0  0  0  0  0  0  0  0  0  0
  -26.6510  -31.2756   25.7353 C   0  0  0  0  0  0  0  0  0  0  0  0
  -27.2448  -30.3288   20.7961 C   0  0  0  0  0  0  0  0  0  0  0  0
  -24.1822  -12.8450   21.8607 C   0  0  0  0  0  0  0  0  0  0  0  0
  -26.5781  -12.7077   21.5815 C   0  0  0  0  0  0  0  0  0  0  0  0
  -28.1760  -29.3534   20.4422 C   0  0  0  0  0  0  0  0  0  0  0  0
  -24.4573   -9.4777   21.9982 C   0  0  0  0  0  0  0  0  0  0  0  0
  -23.5645   -8.4741   22.3740 C   0  0  0  0  0  0  0  0  0  0  0  0
  -26.3883  -27.7594   20.1551 C   0  0  0  0  0  0  0  0  0  0  0  0
  -32.6283  -21.9686   20.7442 C   0  0  0  0  0  0  0  0  0  0  0  0
  -30.3479  -22.4820   21.3550 C   0  0  0  0  0  0  0  0  0  0  0  0
  -31.3896  -20.4588   22.1666 C   0  0  0  0  0  0  0  0  0  0  0  0
  -22.2621   -8.8866   20.3813 C   0  0  0  0  0  0  0  0  0  0  0  0
  -25.6245  -14.3973   23.0213 C   0  0  0  0  0  0  0  0  0  0  0  0
  -25.9537  -15.4662   25.3141 C   0  0  0  0  0  0  0  0  0  0  0  0
  -24.9954  -32.6140   26.8995 C   0  0  0  0  0  0  0  0  0  0  0  0
  -25.8770  -30.0233   20.8428 C   0  0  0  0  0  0  0  0  0  0  0  0
  -25.3066  -31.5317   26.0544 C   0  0  0  0  0  0  0  0  0  0  0  0
  -25.4416  -28.7334   20.5073 C   0  0  0  0  0  0  0  0  0  0  0  0
  -31.5209  -22.8141   20.6772 C   0  0  0  0  0  0  0  0  0  0  0  0
  -32.5626  -20.7909   21.4888 C   0  0  0  0  0  0  0  0  0  0  0  0
  -30.2823  -21.3043   22.0998 C   0  0  0  0  0  0  0  0  0  0  0  0
  -25.2987  -12.2360   21.2877 C   0  0  0  0  0  0  0  0  0  0  0  0
  -27.7481  -28.0677   20.1244 C   0  0  0  0  0  0  0  0  0  0  0  0
  -24.2525  -10.1859   20.8140 C   0  0  0  0  0  0  0  0  0  0  0  0
  -22.4669   -8.1785   21.5655 C   0  0  0  0  0  0  0  0  0  0  0  0
  -23.1549   -9.8903   20.0055 C   0  0  0  0  0  0  0  0  0  0  0  0
  -25.7934  -15.5138   23.9163 C   0  0  0  0  0  0  0  0  0  0  0  0
  -26.0738  -16.7815   25.6909 C   0  0  0  0  0  0  0  0  0  0  0  0
  -31.6861  -26.3173   18.3396 C   0  0  0  0  0  0  0  0  0  0  0  0
  -32.4091  -24.0728   18.8051 C   0  0  0  0  0  0  0  0  0  0  0  0
  -30.8774  -26.3329   19.4077 C   0  0  0  0  0  0  0  0  0  0  0  0
  -32.4808  -25.1624   18.0350 C   0  0  0  0  0  0  0  0  0  0  0  0
  -30.8159  -25.1285   20.3146 C   0  0  0  0  0  0  0  0  0  0  0  0
  -25.9909  -14.3342   26.1932 C   0  0  0  0  0  0  0  0  0  0  0  0
  -23.6581  -30.0093   23.1188 C   0  0  0  0  0  0  0  0  0  0  0  0
  -21.6718  -29.3664   20.6361 C   0  0  0  0  0  0  0  0  0  0  0  0
  -21.2863  -28.1259   17.4803 C   0  0  0  0  0  0  0  0  0  0  0  0
  -27.9030  -21.6973   22.8284 C   0  0  0  0  0  0  0  0  0  0  0  0
  -23.5772  -32.9124   27.3168 C   0  0  0  0  0  0  0  0  0  0  0  0
  -24.8828  -31.0939   21.2005 C   0  0  0  0  0  0  0  0  0  0  0  0
  -23.9825  -28.3599   20.5225 C   0  0  0  0  0  0  0  0  0  0  0  0
  -22.5283  -32.2512   26.4262 C   0  0  0  0  0  0  0  0  0  0  0  0
  -24.7384  -21.1895   24.3792 C   0  0  0  0  0  0  0  0  0  0  0  0
  -22.8824  -30.7880   26.1805 C   0  0  0  0  0  0  0  0  0  0  0  0
  -24.6671  -19.6727   24.5692 C   0  0  0  0  0  0  0  0  0  0  0  0
  -25.4335  -21.5652   23.0717 C   0  0  0  0  0  0  0  0  0  0  0  0
  -26.6861  -19.4439   23.0665 C   0  0  0  0  0  0  0  0  0  0  0  0
  -24.2258  -30.6603   25.4522 C   0  0  1  0  0  0  0  0  0  0  0  0
  -23.5601  -30.5335   21.7140 C   0  0  1  0  0  0  0  0  0  0  0  0
  -26.0521  -19.0178   24.4007 C   0  0  2  0  0  0  0  0  0  0  0  0
  -19.5380  -27.6988   15.7315 C   0  0  0  0  0  0  0  0  0  0  0  0
  -20.6940  -26.9417   22.2092 C   0  0  0  0  0  0  0  0  0  0  0  0
  -19.7003  -26.0545   20.0894 C   0  0  0  0  0  0  0  0  0  0  0  0
  -18.8931  -28.2179   21.0334 C   0  0  0  0  0  0  0  0  0  0  0  0
  -22.6126  -29.9325   15.5474 C   0  0  0  0  0  0  0  0  0  0  0  0
  -30.0289  -27.4989   19.7634 C   0  0  0  0  0  0  0  0  0  1  0  0
  -21.1791  -28.1105   19.9587 C   0  0  1  0  0  0  0  0  0  0  0  0
  -20.5727  -28.6799   16.2604 C   0  0  2  0  0  0  0  0  0  0  0  0
  -20.1443  -27.3374   20.8242 C   0  0  0  0  0  0  0  0  0  0  0  0
  -25.8095  -16.7606   23.4376 N   0  0  0  0  0  0  0  0  0  0  0  0
  -25.9813  -17.5087   24.5407 N   0  0  0  0  0  0  0  0  0  0  0  0
  -31.5866  -24.0005   19.9287 N   0  0  0  0  0  0  0  0  0  0  0  0
  -23.0497  -29.4398   20.8848 N   0  0  0  0  0  0  0  0  0  0  0  0
  -26.7412  -20.9118   22.9836 N   0  0  0  0  0  0  0  0  0  0  0  0
  -33.6820  -19.9356   21.5569 N   0  0  0  0  0  0  0  0  0  0  0  0
  -26.2483  -17.3755   26.8906 N   0  0  0  0  0  0  0  0  0  0  0  0
  -25.8524  -13.0539   25.6402 N   0  0  0  0  0  0  0  0  0  0  0  0
  -29.0910  -20.9682   22.7895 N   0  0  0  0  0  0  0  0  0  0  0  0
  -24.0667  -30.9514   24.0435 N   0  0  0  0  0  0  0  0  0  0  0  0
  -20.6769  -28.5216   18.6521 N   0  0  0  0  0  0  0  0  0  0  0  0
  -21.5508  -28.9635   15.1724 N   0  3  0  0  0  0  0  0  0  0  0  0
  -30.1027  -25.1605   21.3192 O   0  0  0  0  0  0  0  0  0  0  0  0
  -26.1260  -14.4555   27.4344 O   0  0  0  0  0  0  0  0  0  0  0  0
  -23.3820  -28.8375   23.3470 O   0  0  0  0  0  0  0  0  0  0  0  0
  -20.8649  -30.2529   20.9272 O   0  0  0  0  0  0  0  0  0  0  0  0
  -22.2825  -27.4104   17.4014 O   0  0  0  0  0  0  0  0  0  0  0  0
  -27.8503  -22.9282   22.7640 O   0  0  0  0  0  0  0  0  0  0  0  0
  -33.2792  -25.2666   16.9222 O   0  0  0  0  0  0  0  0  0  0  0  0
  -25.1402  -11.1815   20.4419 O   0  0  0  0  0  0  0  0  0  0  0  0
  -28.6550  -27.1136   19.7793 O   0  0  0  0  0  0  0  0  0  1  0  0
  -21.6105   -7.2136   21.9257 F   0  0  0  0  0  0  0  0  0  0  0  0
  -22.9536  -10.5663   18.8662 F   0  0  0  0  0  0  0  0  0  0  0  0
  1  2  1  0  0  0  0
  1  5  2  0  0  0  0
  2  6  2  0  0  0  0
  3  8  2  0  0  0  0
  3 18  1  0  0  0  0
  4  9  1  0  0  0  0
  4 18  2  0  0  0  0
  5 20  1  0  0  0  0
  6 22  1  0  0  0  0
  7 10  2  0  0  0  0
  7 21  1  0  0  0  0
  8 27  1  0  0  0  0
  9 27  2  0  0  0  0
 10 28  1  0  0  0  0
 11 12  2  0  0  0  0
 11 29  1  0  0  0  0
 12 30  1  0  0  0  0
 13 23  1  0  0  0  0
 13 28  2  0  0  0  0
 14 24  1  0  0  0  0
 14 25  2  0  0  0  0
 15 24  2  0  0  0  0
 15 26  1  0  0  0  0
 16 25  1  0  0  0  0
 16 26  2  0  0  0  0
 17 30  2  0  0  0  0
 17 31  1  0  0  0  0
 18 32  1  0  0  0  0
 19 32  1  0  0  0  0
 19 33  2  0  0  0  0
 19 39  1  0  0  0  0
 20 22  2  0  0  0  0
 20 44  1  0  0  0  0
 21 23  2  0  0  0  0
 21 45  1  0  0  0  0
 22 53  1  0  0  0  0
 23 46  1  0  0  0  0
 24 67  1  0  0  0  0
 25 70  1  0  0  0  0
 26 73  1  0  0  0  0
 27 84  1  0  0  0  0
 28 85  1  0  0  0  0
 29 31  2  0  0  0  0
 29 84  1  0  0  0  0
 30 86  1  0  0  0  0
 31 87  1  0  0  0  0
 32 65  2  0  0  0  0
 33 66  1  0  0  0  0
 33 71  1  0  0  0  0
 34 36  2  0  0  0  0
 34 37  1  0  0  0  0
 35 37  2  0  0  0  0
 35 67  1  0  0  0  0
 36 38  1  0  0  0  0
 36 61  1  0  0  0  0
 37 83  1  0  0  0  0
 38 67  1  0  0  0  0
 38 77  2  0  0  0  0
 39 72  1  0  0  0  0
 39 78  2  0  0  0  0
 40 54  1  0  0  0  0
 40 74  1  0  0  0  0
 40 79  2  0  0  0  0
 41 62  1  0  0  0  0
 41 68  1  0  0  0  0
 41 80  2  0  0  0  0
 42 63  1  0  0  0  0
 42 75  1  0  0  0  0
 42 81  2  0  0  0  0
 43 69  1  0  0  0  0
 43 73  1  0  0  0  0
 43 82  2  0  0  0  0
 44 47  1  0  0  0  0
 45 54  1  0  0  0  0
 46 68  1  0  0  0  0
 47 49  1  0  0  0  0
 48 50  1  0  0  0  0
 48 51  1  0  0  0  0
 49 53  1  0  0  0  0
 50 55  1  0  0  0  0
 51 69  1  0  0  0  0
 52 55  1  0  0  0  0
 52 69  1  0  0  0  0
 53 74  1  0  0  0  0
 54 68  1  0  0  0  0
 55 66  1  0  0  0  0
 56 63  1  0  0  0  0
 57 64  1  0  0  0  0
 58 64  1  0  0  0  0
 59 64  1  0  0  0  0
 60 76  1  0  0  0  0
 61 85  1  0  0  0  0
 62 64  1  0  0  0  0
 62 75  1  0  0  0  0
 63 76  1  0  0  0  0
 65 66  1  0  0  0  0
M  CHG  1  76   1
M  ISO  4  43 100  61 101  73 100  85 101
M  END
> <Batch ID>
0085

> <Smiles>
CNC(C)C(=O)NC(C(=O)N1Cc2cc([101O:1][101CH:1]=C3CC(=O)CN(c4cc(N)cc([100NH:0][100C:0](=O)N5CCCC(n6nc(-c7ccc(Oc8ccc(F)cc8F)cc7)c(C(N)=O)c6N)C5)c4)C3=O)ccc2CC1C(=O)NC1CCCc2ccccc21)C(C)(C)C

> <Shape>
0.232

> <Color>
0.077

> <Negative vol penalty>
0.000

$$$$

  -OEChem-04052300153D

 85 93  0     1  0  0  0  0  0999 V2000
  -16.4984  -25.5562   21.8647 C   0  0  0  0  0  0  0  0  0  0  0  0
  -17.7741  -25.0035   21.8132 C   0  0  0  0  0  0  0  0  0  0  0  0
  -33.2483  -16.9708   23.0810 C   0  0  0  0  0  0  0  0  0  0  0  0
  -22.8703  -10.1897   20.1680 C   0  0  0  0  0  0  0  0  0  0  0  0
  -23.7401  -10.1593   22.4218 C   0  0  0  0  0  0  0  0  0  0  0  0
  -32.5683  -17.9156   23.8494 C   0  0  0  0  0  0  0  0  0  0  0  0
  -16.3361  -26.9038   22.1833 C   0  0  0  0  0  0  0  0  0  0  0  0
  -18.8884  -25.7985   22.0792 C   0  0  0  0  0  0  0  0  0  0  0  0
  -22.2203  -23.5143   25.1328 C   0  0  0  0  0  0  0  0  0  0  0  0
  -32.5403  -16.1307   22.2215 C   0  0  0  0  0  0  0  0  0  0  0  0
  -22.0399   -9.1116   20.4739 C   0  0  0  0  0  0  0  0  0  0  0  0
  -22.9097   -9.0812   22.7277 C   0  0  0  0  0  0  0  0  0  0  0  0
  -23.0521  -22.5522   24.5615 C   0  0  0  0  0  0  0  0  0  0  0  0
  -19.1077   -8.6029   22.0790 C   0  0  0  0  0  0  0  0  0  0  0  0
  -17.7795   -8.6677   21.6578 C   0  0  0  0  0  0  0  0  0  0  0  0
  -30.4723  -17.1801   22.8992 C   0  0  0  0  0  0  0  0  0  0  0  0
  -24.8343  -24.1735   24.4408 C   0  0  0  0  0  0  0  0  0  0  0  0
  -18.0979   -6.6645   20.3452 C   0  0  0  0  0  0  0  0  0  0  0  0
  -23.7205  -10.7135   21.1419 C   0  0  0  0  0  0  0  0  0  0  0  0
  -31.1804  -18.0203   23.7586 C   0  0  0  0  0  0  0  0  0  0  0  0
  -24.2797  -13.1959   20.9605 C   0  0  0  0  0  0  0  0  0  0  0  0
  -17.4483  -27.7134   22.4628 C   0  0  0  0  0  0  0  0  0  0  0  0
  -22.6867  -24.8183   25.3527 C   0  0  0  0  0  0  0  0  0  0  0  0
  -18.7409  -27.1586   22.4005 C   0  0  0  0  0  0  0  0  0  0  0  0
  -24.0072  -25.1496   25.0174 C   0  0  0  0  0  0  0  0  0  0  0  0
  -31.1523  -16.2353   22.1307 C   0  0  0  0  0  0  0  0  0  0  0  0
  -22.0595   -8.5573   21.7538 C   0  0  0  0  0  0  0  0  0  0  0  0
  -24.3584  -22.8826   24.2127 C   0  0  0  0  0  0  0  0  0  0  0  0
  -19.9310   -7.5689   21.6331 C   0  0  0  0  0  0  0  0  0  0  0  0
  -17.2746   -7.6986   20.7910 C   0  0  0  0  0  0  0  0  0  0  0  0
  -19.4261   -6.5997   20.7663 C   0  0  0  0  0  0  0  0  0  0  0  0
  -24.5790  -11.8269   20.8263 C   0  0  0  0  0  0  0  0  0  0  0  0
  -25.4150  -13.8392   20.5319 C   0  0  0  0  0  0  0  0  0  0  0  0
  -26.3276  -21.6242   24.3095 C   0  0  0  0  0  0  0  0  0  1  0  0
  -30.4577  -19.0268   24.5774 C   0  0  0  0  0  0  0  0  0  0  0  0
  -23.0824  -13.8294   21.4306 C   0  0  0  0  0  0  0  0  0  0  0  0
  -27.2001  -20.7182   23.8522 C   0  0  0  0  0  0  0  0  0  0  0  0
  -28.4359  -20.4400   24.6463 C   0  0  0  0  0  0  0  0  0  0  0  0
  -21.8632  -27.7024   24.3001 C   0  0  0  0  0  0  0  0  0  0  0  0
  -24.0757  -28.6929   26.4555 C   0  0  0  0  0  0  0  0  0  0  0  0
  -26.8628  -27.9694   28.2873 C   0  0  0  0  0  0  0  0  0  0  0  0
  -30.9545  -14.3915   20.4255 C   0  0  0  0  0  0  0  0  0  0  0  0
  -17.2262  -29.1760   22.7561 C   0  0  0  0  0  0  0  0  0  0  0  0
  -21.7853  -25.8372   25.9945 C   0  0  0  0  0  0  0  0  0  0  0  0
  -24.5625  -26.5299   25.2515 C   0  0  0  0  0  0  0  0  0  0  0  0
  -18.4339  -29.8601   23.3915 C   0  0  0  0  0  0  0  0  0  0  0  0
  -29.5139  -12.0558   18.1569 C   0  0  0  0  0  0  0  0  0  0  0  0
  -19.7110  -29.4922   22.6429 C   0  0  0  0  0  0  0  0  0  0  0  0
  -28.0769  -11.9007   18.6602 C   0  0  0  0  0  0  0  0  0  0  0  0
  -30.5039  -12.2177   19.3090 C   0  0  0  0  0  0  0  0  0  0  0  0
  -28.7397  -13.1292   20.7670 C   0  0  0  0  0  0  0  0  0  0  0  0
  -19.9726  -27.9826   22.7070 C   0  0  1  0  0  0  0  0  0  0  0  0
  -22.2031  -27.2746   25.6998 C   0  0  1  0  0  0  0  0  0  0  0  0
  -27.6983  -13.0282   19.6405 C   0  0  2  0  0  0  0  0  0  0  0  0
  -28.4612  -28.9921   29.9294 C   0  0  0  0  0  0  0  0  0  0  0  0
  -25.4014  -30.2505   24.1914 C   0  0  0  0  0  0  0  0  0  0  0  0
  -27.4466  -30.4523   25.6213 C   0  0  0  0  0  0  0  0  0  0  0  0
  -25.2960  -31.4682   26.3732 C   0  0  0  0  0  0  0  0  0  0  0  0
  -26.1794  -25.9793   30.3686 C   0  0  0  0  0  0  0  0  0  0  0  0
  -25.5620  -28.9544   26.4186 C   0  0  1  0  0  0  0  0  0  0  0  0
  -27.1865  -28.1812   29.7552 C   0  0  2  0  0  0  0  0  0  0  0  0
  -25.9157  -30.2558   25.6448 C   0  0  0  0  0  0  0  0  0  0  0  0
  -25.8081  -11.6121   20.3496 N   0  0  0  0  0  0  0  0  0  0  0  0
  -26.2911  -12.8547   20.1804 N   0  0  0  0  0  0  0  0  0  0  0  0
  -23.6403  -27.4928   25.8758 N   0  0  0  0  0  0  0  0  0  0  0  0
  -30.0831  -13.3063   20.1936 N   0  0  0  0  0  0  0  0  0  0  0  0
  -25.7394  -15.1453   20.4251 N   0  0  0  0  0  0  0  0  0  0  0  0
  -22.0114  -13.0195   21.8322 N   0  0  0  0  0  0  0  0  0  0  0  0
  -30.4334  -15.3819   21.2574 N   0  0  0  0  0  0  0  0  0  0  0  0
  -29.2484  -19.4776   24.0501 N   0  0  0  0  0  0  0  0  0  0  0  0
  -20.5176  -27.6185   23.9973 N   0  0  0  0  0  0  0  0  0  0  0  0
  -26.0132  -28.9428   27.8059 N   0  0  0  0  0  0  0  0  0  0  0  0
  -27.3661  -26.8701   30.4405 N   0  3  0  0  0  0  0  0  0  0  0  0
  -30.9609  -19.4158   25.6279 O   0  0  0  0  0  0  0  0  0  0  0  0
  -22.9599  -15.0770   21.4772 O   0  0  0  0  0  0  0  0  0  0  0  0
  -28.6740  -21.0139   25.7051 O   0  0  0  0  0  0  0  0  0  0  0  0
  -22.7555  -28.0819   23.5508 O   0  0  0  0  0  0  0  0  0  0  0  0
  -23.3292  -29.5195   26.9858 O   0  0  0  0  0  0  0  0  0  0  0  0
  -27.3210  -27.0359   27.6321 O   0  0  0  0  0  0  0  0  0  0  0  0
  -32.0697  -14.4517   19.9013 O   0  0  0  0  0  0  0  0  0  0  0  0
  -27.0071  -20.0267   22.6741 O   0  0  0  0  0  0  0  0  0  0  0  0
  -21.2492   -7.5054   22.0527 O   0  0  0  0  0  0  0  0  0  0  0  0
  -25.1722  -21.9456   23.6543 O   0  0  0  0  0  0  0  0  0  1  0  0
  -15.9987   -7.7601   20.3879 F   0  0  0  0  0  0  0  0  0  0  0  0
  -20.2119   -5.6033   20.3356 F   0  0  0  0  0  0  0  0  0  0  0  0
  1  2  1  0  0  0  0
  1  7  2  0  0  0  0
  2  8  2  0  0  0  0
  3  6  2  0  0  0  0
  3 10  1  0  0  0  0
  4 11  2  0  0  0  0
  4 19  1  0  0  0  0
  5 12  1  0  0  0  0
  5 19  2  0  0  0  0
  6 20  1  0  0  0  0
  7 22  1  0  0  0  0
  8 24  1  0  0  0  0
  9 13  2  0  0  0  0
  9 23  1  0  0  0  0
 10 26  2  0  0  0  0
 11 27  1  0  0  0  0
 12 27  2  0  0  0  0
 13 28  1  0  0  0  0
 14 15  2  0  0  0  0
 14 29  1  0  0  0  0
 15 30  1  0  0  0  0
 16 20  2  0  0  0  0
 16 26  1  0  0  0  0
 17 25  1  0  0  0  0
 17 28  2  0  0  0  0
 18 30  2  0  0  0  0
 18 31  1  0  0  0  0
 19 32  1  0  0  0  0
 20 35  1  0  0  0  0
 21 32  1  0  0  0  0
 21 33  2  0  0  0  0
 21 36  1  0  0  0  0
 22 24  2  0  0  0  0
 22 43  1  0  0  0  0
 23 25  2  0  0  0  0
 23 44  1  0  0  0  0
 24 52  1  0  0  0  0
 25 45  1  0  0  0  0
 26 69  1  0  0  0  0
 27 82  1  0  0  0  0
 28 83  1  0  0  0  0
 29 31  2  0  0  0  0
 29 82  1  0  0  0  0
 30 84  1  0  0  0  0
 31 85  1  0  0  0  0
 32 63  2  0  0  0  0
 33 64  1  0  0  0  0
 33 67  1  0  0  0  0
 34 37  2  0  0  0  0
 34 83  1  0  0  0  0
 35 70  1  0  0  0  0
 35 74  2  0  0  0  0
 36 68  1  0  0  0  0
 36 75  2  0  0  0  0
 37 38  1  0  0  0  0
 37 81  1  0  0  0  0
 38 70  1  0  0  0  0
 38 76  2  0  0  0  0
 39 53  1  0  0  0  0
 39 71  1  0  0  0  0
 39 77  2  0  0  0  0
 40 60  1  0  0  0  0
 40 65  1  0  0  0  0
 40 78  2  0  0  0  0
 41 61  1  0  0  0  0
 41 72  1  0  0  0  0
 41 79  2  0  0  0  0
 42 66  1  0  0  0  0
 42 69  1  0  0  0  0
 42 80  2  0  0  0  0
 43 46  1  0  0  0  0
 44 53  1  0  0  0  0
 45 65  1  0  0  0  0
 46 48  1  0  0  0  0
 47 49  1  0  0  0  0
 47 50  1  0  0  0  0
 48 52  1  0  0  0  0
 49 54  1  0  0  0  0
 50 66  1  0  0  0  0
 51 54  1  0  0  0  0
 51 66  1  0  0  0  0
 52 71  1  0  0  0  0
 53 65  1  0  0  0  0
 54 64  1  0  0  0  0
 55 61  1  0  0  0  0
 56 62  1  0  0  0  0
 57 62  1  0  0  0  0
 58 62  1  0  0  0  0
 59 73  1  0  0  0  0
 60 62  1  0  0  0  0
 60 72  1  0  0  0  0
 61 73  1  0  0  0  0
 63 64  1  0  0  0  0
M  CHG  1  73   1
M  ISO  4  34 101  42 100  69 100  83 101
M  END
> <Batch ID>
0085

> <Smiles>
CNC(C)C(=O)NC(C(=O)N1Cc2cc([101O:1][101CH2:1]C(=O)C(=O)NC(=O)c3cccc([100NH:0][100C:0](=O)N4CCCC(n5nc(-c6ccc(Oc7ccc(F)cc7F)cc6)c(C(N)=O)c5N)C4)c3)ccc2CC1C(=O)NC1CCCc2ccccc21)C(C)(C)C

> <Shape>
0.239

> <Color>
0.183

> <Negative vol penalty>
0.000

$$$$

  -OEChem-04052300153D

 84 93  0     1  0  0  0  0  0999 V2000
  -29.4933  -36.5275   20.6557 C   0  0  0  0  0  0  0  0  0  0  0  0
  -29.6257  -35.1911   20.2927 C   0  0  0  0  0  0  0  0  0  0  0  0
  -24.6098  -18.4274   16.8450 C   0  0  0  0  0  0  0  0  0  0  0  0
  -24.7618   -8.8089   21.7026 C   0  0  0  0  0  0  0  0  0  0  0  0
  -23.2715  -10.0368   20.2506 C   0  0  0  0  0  0  0  0  0  0  0  0
  -28.7201  -36.8746   21.7628 C   0  0  0  0  0  0  0  0  0  0  0  0
  -28.9859  -34.2008   21.0373 C   0  0  0  0  0  0  0  0  0  0  0  0
  -26.5720  -28.9854   18.9211 C   0  0  0  0  0  0  0  0  0  0  0  0
  -25.0274  -19.6690   17.3242 C   0  0  0  0  0  0  0  0  0  0  0  0
  -25.3293  -17.2770   17.1684 C   0  0  0  0  0  0  0  0  0  0  0  0
  -23.6705   -8.3729   22.4540 C   0  0  0  0  0  0  0  0  0  0  0  0
  -22.1802   -9.6008   21.0020 C   0  0  0  0  0  0  0  0  0  0  0  0
  -27.0530  -27.6774   18.8814 C   0  0  0  0  0  0  0  0  0  0  0  0
  -21.2527   -6.0226   22.2026 C   0  0  0  0  0  0  0  0  0  0  0  0
  -21.2082   -4.6749   22.5591 C   0  0  0  0  0  0  0  0  0  0  0  0
  -25.8663  -27.1855   20.9232 C   0  0  0  0  0  0  0  0  0  0  0  0
  -26.8841  -18.6097   18.4503 C   0  0  0  0  0  0  0  0  0  0  0  0
  -21.2004   -5.2930   24.8947 C   0  0  0  0  0  0  0  0  0  0  0  0
  -24.5623   -9.6410   20.6010 C   0  0  0  0  0  0  0  0  0  0  0  0
  -26.2583   -9.4580   18.7041 C   0  0  0  0  0  0  0  0  0  0  0  0
  -28.0626  -35.8889   22.5156 C   0  0  0  0  0  0  0  0  0  0  0  0
  -25.7420  -29.4070   19.9697 C   0  0  0  0  0  0  0  0  0  0  0  0
  -28.2043  -34.5349   22.1562 C   0  0  0  0  0  0  0  0  0  0  0  0
  -25.3740  -28.4986   20.9725 C   0  0  0  0  0  0  0  0  0  0  0  0
  -26.1646  -19.7601   18.1269 C   0  0  0  0  0  0  0  0  0  0  0  0
  -26.4664  -17.3681   17.9711 C   0  0  0  0  0  0  0  0  0  0  0  0
  -22.3797   -8.7688   22.1037 C   0  0  0  0  0  0  0  0  0  0  0  0
  -26.7026  -26.7780   19.8841 C   0  0  0  0  0  0  0  0  0  0  0  0
  -21.2712   -7.0056   23.1921 C   0  0  0  0  0  0  0  0  0  0  0  0
  -21.1820   -4.3100   23.9052 C   0  0  0  0  0  0  0  0  0  0  0  0
  -21.2450   -6.6408   24.5381 C   0  0  0  0  0  0  0  0  0  0  0  0
  -25.6893  -10.0922   19.8248 C   0  0  0  0  0  0  0  0  0  0  0  0
  -27.2947  -10.2797   18.3339 C   0  0  0  0  0  0  0  0  0  0  0  0
  -26.7901  -23.2796   19.0939 C   0  0  0  0  0  0  0  0  0  0  0  0
  -25.9717  -22.2657   18.3770 C   0  0  0  0  0  0  0  0  0  0  0  0
  -26.4273  -24.5608   19.1921 C   0  0  0  0  0  0  0  0  0  1  0  0
  -25.8834   -8.2354   18.0557 C   0  0  0  0  0  0  0  0  0  0  0  0
  -25.9586  -31.6024   22.2581 C   0  0  0  0  0  0  0  0  0  0  0  0
  -22.8946  -30.7205   22.8550 C   0  0  0  0  0  0  0  0  0  0  0  0
  -20.4692  -28.3312   22.6195 C   0  0  0  0  0  0  0  0  0  0  0  0
  -28.3465  -16.1138   19.0838 C   0  0  0  0  0  0  0  0  0  0  0  0
  -27.2762  -36.3087   23.7322 C   0  0  0  0  0  0  0  0  0  0  0  0
  -25.2098  -30.8138   19.9837 C   0  0  0  0  0  0  0  0  0  0  0  0
  -24.4692  -28.8958   22.1092 C   0  0  0  0  0  0  0  0  0  0  0  0
  -28.0058  -22.6453   19.6733 C   0  0  0  0  0  0  0  0  0  0  0  0
  -26.3262  -35.2297   24.2455 C   0  0  0  0  0  0  0  0  0  0  0  0
  -30.4163  -13.4220   20.1549 C   0  0  0  0  0  0  0  0  0  0  0  0
  -27.0366  -33.8815   24.3138 C   0  0  0  0  0  0  0  0  0  0  0  0
  -29.4925  -12.2039   20.0840 C   0  0  0  0  0  0  0  0  0  0  0  0
  -27.7282  -21.1593   19.5171 C   0  0  0  0  0  0  0  0  0  0  0  0
  -29.6707  -14.6732   20.6156 C   0  0  0  0  0  0  0  0  0  0  0  0
  -27.5356  -13.7737   19.7779 C   0  0  0  0  0  0  0  0  0  0  0  0
  -27.5055  -33.4339   22.9241 C   0  0  1  0  0  0  0  0  0  0  0  0
  -24.7877  -31.2791   21.3739 C   0  0  1  0  0  0  0  0  0  0  0  0
  -28.2273  -12.5036   19.2563 C   0  0  2  0  0  0  0  0  0  0  0  0
  -18.0767  -27.8858   23.2318 C   0  0  0  0  0  0  0  0  0  0  0  0
  -23.7260  -30.2520   25.7532 C   0  0  0  0  0  0  0  0  0  0  0  0
  -21.6180  -28.9395   26.0726 C   0  0  0  0  0  0  0  0  0  0  0  0
  -21.5005  -31.3578   25.4720 C   0  0  0  0  0  0  0  0  0  0  0  0
  -19.6828  -28.0079   19.7848 C   0  0  0  0  0  0  0  0  0  0  0  0
  -22.2317  -29.6813   23.7265 C   0  0  1  0  0  0  0  0  0  0  0  0
  -19.0239  -28.4048   22.1612 C   0  0  2  0  0  0  0  0  0  0  0  0
  -22.2877  -30.0504   25.2359 C   0  0  0  0  0  0  0  0  0  0  0  0
  -26.3126  -11.2291   20.1456 N   0  0  0  0  0  0  0  0  0  0  0  0
  -27.2841  -11.3157   19.2210 N   0  0  0  0  0  0  0  0  0  0  0  0
  -26.5917  -21.0329   18.6181 N   0  0  0  0  0  0  0  0  0  0  0  0
  -23.9798  -30.2840   22.0819 N   0  0  0  0  0  0  0  0  0  0  0  0
  -28.4866  -14.8964   19.7831 N   0  0  0  0  0  0  0  0  0  0  0  0
  -28.2049  -10.2100   17.3395 N   0  0  0  0  0  0  0  0  0  0  0  0
  -24.7945   -7.5153   18.5656 N   0  0  0  0  0  0  0  0  0  0  0  0
  -27.1968  -16.1991   18.2993 N   0  0  0  0  0  0  0  0  0  0  0  0
  -26.3937  -32.9103   22.1599 N   0  0  0  0  0  0  0  0  0  0  0  0
  -20.8807  -29.5109   23.2028 N   0  0  0  0  0  0  0  0  0  0  0  0
  -18.8297  -27.5915   20.9276 N   0  3  0  0  0  0  0  0  0  0  0  0
  -24.9707  -22.5437   17.7376 O   0  0  0  0  0  0  0  0  0  0  0  0
  -26.5061   -7.7862   17.0638 O   0  0  0  0  0  0  0  0  0  0  0  0
  -26.4315  -30.7302   22.9775 O   0  0  0  0  0  0  0  0  0  0  0  0
  -22.4609  -31.8753   22.8547 O   0  0  0  0  0  0  0  0  0  0  0  0
  -21.1626  -27.3264   22.4780 O   0  0  0  0  0  0  0  0  0  0  0  0
  -29.1983  -17.0036   19.1528 O   0  0  0  0  0  0  0  0  0  0  0  0
  -21.3146   -8.3433   22.8365 O   0  0  0  0  0  0  0  0  0  0  0  0
  -27.1712  -25.5010   19.8482 O   0  0  0  0  0  0  0  0  0  1  0  0
  -21.1376   -3.0158   24.2474 F   0  0  0  0  0  0  0  0  0  0  0  0
  -21.2613   -7.5807   25.4932 F   0  0  0  0  0  0  0  0  0  0  0  0
  1  2  1  0  0  0  0
  1  6  2  0  0  0  0
  2  7  2  0  0  0  0
  3  9  2  0  0  0  0
  3 10  1  0  0  0  0
  4 11  2  0  0  0  0
  4 19  1  0  0  0  0
  5 12  1  0  0  0  0
  5 19  2  0  0  0  0
  6 21  1  0  0  0  0
  7 23  1  0  0  0  0
  8 13  2  0  0  0  0
  8 22  1  0  0  0  0
  9 25  1  0  0  0  0
 10 26  2  0  0  0  0
 11 27  1  0  0  0  0
 12 27  2  0  0  0  0
 13 28  1  0  0  0  0
 14 15  2  0  0  0  0
 14 29  1  0  0  0  0
 15 30  1  0  0  0  0
 16 24  1  0  0  0  0
 16 28  2  0  0  0  0
 17 25  2  0  0  0  0
 17 26  1  0  0  0  0
 18 30  2  0  0  0  0
 18 31  1  0  0  0  0
 19 32  1  0  0  0  0
 20 32  1  0  0  0  0
 20 33  2  0  0  0  0
 20 37  1  0  0  0  0
 21 23  2  0  0  0  0
 21 42  1  0  0  0  0
 22 24  2  0  0  0  0
 22 43  1  0  0  0  0
 23 53  1  0  0  0  0
 24 44  1  0  0  0  0
 25 66  1  0  0  0  0
 26 71  1  0  0  0  0
 27 81  1  0  0  0  0
 28 82  1  0  0  0  0
 29 31  2  0  0  0  0
 29 81  1  0  0  0  0
 30 83  1  0  0  0  0
 31 84  1  0  0  0  0
 32 64  2  0  0  0  0
 33 65  1  0  0  0  0
 33 69  1  0  0  0  0
 34 35  1  0  0  0  0
 34 36  2  0  0  0  0
 34 45  1  0  0  0  0
 35 66  1  0  0  0  0
 35 75  2  0  0  0  0
 36 82  1  0  0  0  0
 37 70  1  0  0  0  0
 37 76  2  0  0  0  0
 38 54  1  0  0  0  0
 38 72  1  0  0  0  0
 38 77  2  0  0  0  0
 39 61  1  0  0  0  0
 39 67  1  0  0  0  0
 39 78  2  0  0  0  0
 40 62  1  0  0  0  0
 40 73  1  0  0  0  0
 40 79  2  0  0  0  0
 41 68  1  0  0  0  0
 41 71  1  0  0  0  0
 41 80  2  0  0  0  0
 42 46  1  0  0  0  0
 43 54  1  0  0  0  0
 44 67  1  0  0  0  0
 45 50  1  0  0  0  0
 46 48  1  0  0  0  0
 47 49  1  0  0  0  0
 47 51  1  0  0  0  0
 48 53  1  0  0  0  0
 49 55  1  0  0  0  0
 50 66  1  0  0  0  0
 51 68  1  0  0  0  0
 52 55  1  0  0  0  0
 52 68  1  0  0  0  0
 53 72  1  0  0  0  0
 54 67  1  0  0  0  0
 55 65  1  0  0  0  0
 56 62  1  0  0  0  0
 57 63  1  0  0  0  0
 58 63  1  0  0  0  0
 59 63  1  0  0  0  0
 60 74  1  0  0  0  0
 61 63  1  0  0  0  0
 61 73  1  0  0  0  0
 62 74  1  0  0  0  0
 64 65  1  0  0  0  0
M  CHG  1  74   1
M  ISO  4  36 101  41 100  71 100  82 101
M  END
> <Batch ID>
0085

> <Smiles>
CNC(C)C(=O)NC(C(=O)N1Cc2cc([101O:1][101CH:1]=C3CCN(c4cccc([100NH:0][100C:0](=O)N5CCCC(n6nc(-c7ccc(Oc8ccc(F)cc8F)cc7)c(C(N)=O)c6N)C5)c4)C3=O)ccc2CC1C(=O)NC1CCCc2ccccc21)C(C)(C)C

> <Shape>
0.279

> <Color>
0.099

> <Negative vol penalty>
0.000

$$$$

  -OEChem-04052300153D

 83 91  0     1  0  0  0  0  0999 V2000
  -29.4037  -33.7681   26.4887 C   0  0  0  0  0  0  0  0  0  0  0  0
  -29.5835  -32.8117   25.4946 C   0  0  0  0  0  0  0  0  0  0  0  0
  -23.8297   -8.4677   19.5590 C   0  0  0  0  0  0  0  0  0  0  0  0
  -23.2703  -10.1022   21.2479 C   0  0  0  0  0  0  0  0  0  0  0  0
  -30.5464  -19.2493   20.4588 C   0  0  0  0  0  0  0  0  0  0  0  0
  -28.4310  -19.5158   19.3225 C   0  0  0  0  0  0  0  0  0  0  0  0
  -28.1999  -33.8251   27.1899 C   0  0  0  0  0  0  0  0  0  0  0  0
  -28.5601  -31.9110   25.2018 C   0  0  0  0  0  0  0  0  0  0  0  0
  -27.1502  -29.5989   19.7089 C   0  0  0  0  0  0  0  0  0  0  0  0
  -30.4719  -17.8688   20.2737 C   0  0  0  0  0  0  0  0  0  0  0  0
  -28.3565  -18.1352   19.1374 C   0  0  0  0  0  0  0  0  0  0  0  0
  -23.0014   -7.5367   20.1856 C   0  0  0  0  0  0  0  0  0  0  0  0
  -22.4419   -9.1712   21.8746 C   0  0  0  0  0  0  0  0  0  0  0  0
  -27.4576  -28.3855   19.0949 C   0  0  0  0  0  0  0  0  0  0  0  0
  -19.6908   -6.8747   20.3706 C   0  0  0  0  0  0  0  0  0  0  0  0
  -18.8336   -6.1244   19.5657 C   0  0  0  0  0  0  0  0  0  0  0  0
  -25.3359  -27.4910   19.8141 C   0  0  0  0  0  0  0  0  0  0  0  0
  -19.8932   -4.0926   20.3313 C   0  0  0  0  0  0  0  0  0  0  0  0
  -23.9642   -9.7505   20.0902 C   0  0  0  0  0  0  0  0  0  0  0  0
  -29.5259  -20.0728   19.9833 C   0  0  0  0  0  0  0  0  0  0  0  0
  -24.4608  -11.6293   18.4376 C   0  0  0  0  0  0  0  0  0  0  0  0
  -27.1576  -32.9309   26.8990 C   0  0  0  0  0  0  0  0  0  0  0  0
  -25.9359  -29.7642   20.3905 C   0  0  0  0  0  0  0  0  0  0  0  0
  -27.3417  -31.9553   25.9007 C   0  0  0  0  0  0  0  0  0  0  0  0
  -25.0143  -28.7083   20.4336 C   0  0  0  0  0  0  0  0  0  0  0  0
  -29.3770  -17.3118   19.6129 C   0  0  0  0  0  0  0  0  0  0  0  0
  -22.3075   -7.8884   21.3434 C   0  0  0  0  0  0  0  0  0  0  0  0
  -26.5517  -27.3304   19.1499 C   0  0  0  0  0  0  0  0  0  0  0  0
  -20.6492   -6.2340   21.1558 C   0  0  0  0  0  0  0  0  0  0  0  0
  -18.9347   -4.7333   19.5461 C   0  0  0  0  0  0  0  0  0  0  0  0
  -20.7504   -4.8429   21.1362 C   0  0  0  0  0  0  0  0  0  0  0  0
  -24.8202  -10.7125   19.4436 C   0  0  0  0  0  0  0  0  0  0  0  0
  -25.6214  -12.3108   18.1637 C   0  0  0  0  0  0  0  0  0  0  0  0
  -28.3061  -24.2868   18.4624 C   0  0  0  0  0  0  0  0  0  0  0  0
  -29.6051  -21.5433   20.1806 C   0  0  0  0  0  0  0  0  0  0  0  0
  -23.1914  -11.8456   17.8072 C   0  0  0  0  0  0  0  0  0  0  0  0
  -25.1189  -30.3910   23.3977 C   0  0  0  0  0  0  0  0  0  0  0  0
  -22.1324  -30.5532   22.1421 C   0  0  0  0  0  0  0  0  0  0  0  0
  -19.9847  -29.6488   19.6488 C   0  0  0  0  0  0  0  0  0  0  0  0
  -30.2296  -14.9516   19.8352 C   0  0  0  0  0  0  0  0  0  0  0  0
  -25.8919  -33.0008   27.7162 C   0  0  0  0  0  0  0  0  0  0  0  0
  -25.6078  -31.0880   21.0247 C   0  0  0  0  0  0  0  0  0  0  0  0
  -23.6883  -28.8412   21.1354 C   0  0  0  0  0  0  0  0  0  0  0  0
  -24.7194  -32.2517   27.0882 C   0  0  0  0  0  0  0  0  0  0  0  0
  -30.3907  -11.4029   19.5958 C   0  0  0  0  0  0  0  0  0  0  0  0
  -25.1604  -30.8703   26.6149 C   0  0  0  0  0  0  0  0  0  0  0  0
  -28.9263  -10.9823   19.4521 C   0  0  0  0  0  0  0  0  0  0  0  0
  -30.5493  -12.5911   20.5428 C   0  0  0  0  0  0  0  0  0  0  0  0
  -28.2458  -13.3333   20.0821 C   0  0  0  0  0  0  0  0  0  0  0  0
  -26.2460  -30.9769   25.5372 C   0  0  1  0  0  0  0  0  0  0  0  0
  -24.5632  -30.9780   22.1311 C   0  0  1  0  0  0  0  0  0  0  0  0
  -28.0289  -12.1812   19.0875 C   0  0  2  0  0  0  0  0  0  0  0  0
  -17.5983  -29.9035   18.9157 C   0  0  0  0  0  0  0  0  0  0  0  0
  -21.2700  -28.5264   24.2536 C   0  0  0  0  0  0  0  0  0  0  0  0
  -19.1983  -28.1126   22.9100 C   0  0  0  0  0  0  0  0  0  0  0  0
  -19.6369  -30.3784   23.8568 C   0  0  0  0  0  0  0  0  0  0  0  0
  -20.7789  -30.9928   17.1345 C   0  0  0  0  0  0  0  0  0  0  0  0
  -28.2282  -25.7845   18.4749 C   0  0  0  0  0  0  0  0  0  1  0  0
  -21.0182  -29.5632   21.9025 C   0  0  1  0  0  0  0  0  0  0  0  0
  -19.0097  -30.4608   18.8154 C   0  0  2  0  0  0  0  0  0  0  0  0
  -20.3066  -29.1417   23.2191 C   0  0  0  0  0  0  0  0  0  0  0  0
  -26.1083  -10.8008   19.7856 N   0  0  0  0  0  0  0  0  0  0  0  0
  -28.9574  -23.6592   19.3841 N   0  0  0  0  0  0  0  0  0  0  0  0
  -26.5686  -11.7811   18.9899 N   0  0  0  0  0  0  0  0  0  0  0  0
  -23.4163  -30.1532   21.7455 N   0  0  0  0  0  0  0  0  0  0  0  0
  -29.6723  -13.6901   20.1329 N   0  0  0  0  0  0  0  0  0  0  0  0
  -25.9140  -13.3054   17.2991 N   0  0  0  0  0  0  0  0  0  0  0  0
  -22.1035  -11.0581   18.2079 N   0  0  0  0  0  0  0  0  0  0  0  0
  -29.3025  -15.9093   19.4252 N   0  0  0  0  0  0  0  0  0  0  0  0
  -28.9374  -22.3124   19.2460 N   0  0  0  0  0  0  0  0  0  0  0  0
  -25.6588  -31.3251   24.2611 N   0  0  0  0  0  0  0  0  0  0  0  0
  -20.1349  -30.1739   20.9149 N   0  0  0  0  0  0  0  0  0  0  0  0
  -19.4187  -30.4494   17.3824 N   0  3  0  0  0  0  0  0  0  0  0  0
  -30.2255  -21.9897   21.1424 O   0  0  0  0  0  0  0  0  0  0  0  0
  -23.0306  -12.7004   16.9033 O   0  0  0  0  0  0  0  0  0  0  0  0
  -25.0608  -29.1805   23.5790 O   0  0  0  0  0  0  0  0  0  0  0  0
  -21.8719  -31.6442   22.6555 O   0  0  0  0  0  0  0  0  0  0  0  0
  -20.5532  -28.6468   19.2208 O   0  0  0  0  0  0  0  0  0  0  0  0
  -31.4434  -15.1590   19.9104 O   0  0  0  0  0  0  0  0  0  0  0  0
  -21.4990   -6.9802   21.9550 O   0  0  0  0  0  0  0  0  0  0  0  0
  -26.8495  -26.1447   18.5521 O   0  0  0  0  0  0  0  0  0  1  0  0
  -18.1105   -4.0128   18.7743 F   0  0  0  0  0  0  0  0  0  0  0  0
  -21.6684   -4.2217   21.8893 F   0  0  0  0  0  0  0  0  0  0  0  0
  1  2  1  0  0  0  0
  1  7  2  0  0  0  0
  2  8  2  0  0  0  0
  3 12  2  0  0  0  0
  3 19  1  0  0  0  0
  4 13  1  0  0  0  0
  4 19  2  0  0  0  0
  5 10  2  0  0  0  0
  5 20  1  0  0  0  0
  6 11  1  0  0  0  0
  6 20  2  0  0  0  0
  7 22  1  0  0  0  0
  8 24  1  0  0  0  0
  9 14  2  0  0  0  0
  9 23  1  0  0  0  0
 10 26  1  0  0  0  0
 11 26  2  0  0  0  0
 12 27  1  0  0  0  0
 13 27  2  0  0  0  0
 14 28  1  0  0  0  0
 15 16  2  0  0  0  0
 15 29  1  0  0  0  0
 16 30  1  0  0  0  0
 17 25  1  0  0  0  0
 17 28  2  0  0  0  0
 18 30  2  0  0  0  0
 18 31  1  0  0  0  0
 19 32  1  0  0  0  0
 20 35  1  0  0  0  0
 21 32  1  0  0  0  0
 21 33  2  0  0  0  0
 21 36  1  0  0  0  0
 22 24  2  0  0  0  0
 22 41  1  0  0  0  0
 23 25  2  0  0  0  0
 23 42  1  0  0  0  0
 24 50  1  0  0  0  0
 25 43  1  0  0  0  0
 26 69  1  0  0  0  0
 27 80  1  0  0  0  0
 28 81  1  0  0  0  0
 29 31  2  0  0  0  0
 29 80  1  0  0  0  0
 30 82  1  0  0  0  0
 31 83  1  0  0  0  0
 32 62  2  0  0  0  0
 33 64  1  0  0  0  0
 33 67  1  0  0  0  0
 34 58  1  0  0  0  0
 34 63  2  0  0  0  0
 35 70  1  0  0  0  0
 35 74  2  0  0  0  0
 36 68  1  0  0  0  0
 36 75  2  0  0  0  0
 37 51  1  0  0  0  0
 37 71  1  0  0  0  0
 37 76  2  0  0  0  0
 38 59  1  0  0  0  0
 38 65  1  0  0  0  0
 38 77  2  0  0  0  0
 39 60  1  0  0  0  0
 39 72  1  0  0  0  0
 39 78  2  0  0  0  0
 40 66  1  0  0  0  0
 40 69  1  0  0  0  0
 40 79  2  0  0  0  0
 41 44  1  0  0  0  0
 42 51  1  0  0  0  0
 43 65  1  0  0  0  0
 44 46  1  0  0  0  0
 45 47  1  0  0  0  0
 45 48  1  0  0  0  0
 46 50  1  0  0  0  0
 47 52  1  0  0  0  0
 48 66  1  0  0  0  0
 49 52  1  0  0  0  0
 49 66  1  0  0  0  0
 50 71  1  0  0  0  0
 51 65  1  0  0  0  0
 52 64  1  0  0  0  0
 53 60  1  0  0  0  0
 54 61  1  0  0  0  0
 55 61  1  0  0  0  0
 56 61  1  0  0  0  0
 57 73  1  0  0  0  0
 58 81  1  0  0  0  0
 59 61  1  0  0  0  0
 59 72  1  0  0  0  0
 60 73  1  0  0  0  0
 62 64  1  0  0  0  0
 63 70  1  0  0  0  0
M  CHG  1  73   1
M  ISO  4  40 100  58 101  69 100  81 101
M  END
> <Batch ID>
0085

> <Smiles>
CNC(C)C(=O)NC(C(=O)N1Cc2cc([101O:1][101CH2:1]C=NNC(=O)c3ccc([100NH:0][100C:0](=O)N4CCCC(n5nc(-c6ccc(Oc7ccc(F)cc7F)cc6)c(C(N)=O)c5N)C4)cc3)ccc2CC1C(=O)NC1CCCc2ccccc21)C(C)(C)C

> <Shape>
0.319

> <Color>
0.105

> <Negative vol penalty>
0.000

$$$$

  -OEChem-04052300152D

  0  0  0     0  0  0  0  0  0999 V2000
M  END
$$$$

  -OEChem-04052300153D

 86 94  0     1  0  0  0  0  0999 V2000
  -29.4249  -35.8408   18.4793 C   0  0  0  0  0  0  0  0  0  0  0  0
  -29.5203  -34.5052   18.8570 C   0  0  0  0  0  0  0  0  0  0  0  0
  -23.3471  -10.2761   21.8146 C   0  0  0  0  0  0  0  0  0  0  0  0
  -22.8824  -12.6444   21.7027 C   0  0  0  0  0  0  0  0  0  0  0  0
  -28.5115  -36.6804   19.1154 C   0  0  0  0  0  0  0  0  0  0  0  0
  -28.7030  -34.0088   19.8720 C   0  0  0  0  0  0  0  0  0  0  0  0
  -26.6636  -29.5229   18.7046 C   0  0  0  0  0  0  0  0  0  0  0  0
  -22.3934  -10.1366   22.8228 C   0  0  0  0  0  0  0  0  0  0  0  0
  -21.9286  -12.5048   22.7109 C   0  0  0  0  0  0  0  0  0  0  0  0
  -27.4822  -28.4007   18.8248 C   0  0  0  0  0  0  0  0  0  0  0  0
  -19.0258   -9.9438   23.0566 C   0  0  0  0  0  0  0  0  0  0  0  0
  -18.1345   -8.8750   22.9623 C   0  0  0  0  0  0  0  0  0  0  0  0
  -30.2186  -19.7523   21.3765 C   0  0  0  0  0  0  0  0  0  0  0  0
  -28.7790  -18.0883   20.3786 C   0  0  0  0  0  0  0  0  0  0  0  0
  -26.4646  -27.8938   20.9524 C   0  0  0  0  0  0  0  0  0  0  0  0
  -31.0058  -17.4853   21.0964 C   0  0  0  0  0  0  0  0  0  0  0  0
  -18.9303   -8.0246   25.0791 C   0  0  0  0  0  0  0  0  0  0  0  0
  -23.5917  -11.5301   21.2545 C   0  0  0  0  0  0  0  0  0  0  0  0
  -28.9965  -19.3986   20.8046 C   0  0  0  0  0  0  0  0  0  0  0  0
  -24.3691  -11.5687   18.8252 C   0  0  0  0  0  0  0  0  0  0  0  0
  -27.6758  -36.1917   20.1320 C   0  0  0  0  0  0  0  0  0  0  0  0
  -25.7455  -29.8456   19.7143 C   0  0  0  0  0  0  0  0  0  0  0  0
  -27.7785  -34.8430   20.5232 C   0  0  0  0  0  0  0  0  0  0  0  0
  -25.6338  -29.0192   20.8415 C   0  0  0  0  0  0  0  0  0  0  0  0
  -31.2233  -18.7957   21.5223 C   0  0  0  0  0  0  0  0  0  0  0  0
  -29.7837  -17.1316   20.5245 C   0  0  0  0  0  0  0  0  0  0  0  0
  -21.6841  -11.2509   23.2709 C   0  0  0  0  0  0  0  0  0  0  0  0
  -27.3848  -27.5876   19.9501 C   0  0  0  0  0  0  0  0  0  0  0  0
  -19.8695  -10.0529   24.1621 C   0  0  0  0  0  0  0  0  0  0  0  0
  -18.0867   -7.9154   23.9736 C   0  0  0  0  0  0  0  0  0  0  0  0
  -19.8217   -9.0934   25.1733 C   0  0  0  0  0  0  0  0  0  0  0  0
  -24.5771  -11.6750   20.2134 C   0  0  0  0  0  0  0  0  0  0  0  0
  -25.6083  -11.7868   18.2745 C   0  0  0  0  0  0  0  0  0  0  0  0
  -27.5842  -25.2683   20.1780 C   0  0  0  0  0  0  0  0  0  1  0  0
  -27.9265  -20.4170   20.6507 C   0  0  0  0  0  0  0  0  0  0  0  0
  -23.1634  -11.2973   18.0983 C   0  0  0  0  0  0  0  0  0  0  0  0
  -28.2709  -24.1262   20.3006 C   0  0  0  0  0  0  0  0  0  0  0  0
  -27.5185  -22.8391   20.4121 C   0  0  0  0  0  0  0  0  0  0  0  0
  -25.3471  -32.3122   21.6791 C   0  0  0  0  0  0  0  0  0  0  0  0
  -22.6353  -30.7277   22.4904 C   0  0  0  0  0  0  0  0  0  0  0  0
  -20.9517  -27.7639   22.6581 C   0  0  0  0  0  0  0  0  0  0  0  0
  -30.4536  -14.7303   20.1625 C   0  0  0  0  0  0  0  0  0  0  0  0
  -26.7371  -37.1488   20.8229 C   0  0  0  0  0  0  0  0  0  0  0  0
  -24.8510  -31.0446   19.5571 C   0  0  0  0  0  0  0  0  0  0  0  0
  -24.6499  -29.3105   21.9441 C   0  0  0  0  0  0  0  0  0  0  0  0
  -25.6449  -36.4536   21.6317 C   0  0  0  0  0  0  0  0  0  0  0  0
  -30.2735  -11.2964   19.2389 C   0  0  0  0  0  0  0  0  0  0  0  0
  -26.2400  -35.3356   22.4818 C   0  0  0  0  0  0  0  0  0  0  0  0
  -28.7730  -10.9957   19.2517 C   0  0  0  0  0  0  0  0  0  0  0  0
  -30.6680  -12.2621   20.3550 C   0  0  0  0  0  0  0  0  0  0  0  0
  -28.3944  -13.2092   20.4111 C   0  0  0  0  0  0  0  0  0  0  0  0
  -26.8918  -34.2613   21.6027 C   0  0  1  0  0  0  0  0  0  0  0  0
  -24.3120  -31.5662   20.8856 C   0  0  1  0  0  0  0  0  0  0  0  0
  -27.9386  -12.2916   19.2648 C   0  0  2  0  0  0  0  0  0  0  0  0
  -18.7675  -26.7787   23.4037 C   0  0  0  0  0  0  0  0  0  0  0  0
  -23.5497  -30.9057   25.3959 C   0  0  0  0  0  0  0  0  0  0  0  0
  -21.8763  -29.1304   25.9584 C   0  0  0  0  0  0  0  0  0  0  0  0
  -21.1088  -31.3203   25.0431 C   0  0  0  0  0  0  0  0  0  0  0  0
  -20.2955  -26.8522   19.9201 C   0  0  0  0  0  0  0  0  0  0  0  0
  -22.2759  -29.6788   23.5149 C   0  0  1  0  0  0  0  0  0  0  0  0
  -19.5428  -27.3809   22.2423 C   0  0  2  0  0  0  0  0  0  0  0  0
  -22.2226  -30.2541   24.9584 C   0  0  0  0  0  0  0  0  0  0  0  0
  -25.8486  -11.9398   20.5254 N   0  0  0  0  0  0  0  0  0  0  0  0
  -26.4506  -12.0017   19.3255 N   0  0  0  0  0  0  0  0  0  0  0  0
  -23.8018  -30.4977   21.7472 N   0  0  0  0  0  0  0  0  0  0  0  0
  -29.8387  -13.4680   20.3022 N   0  0  0  0  0  0  0  0  0  0  0  0
  -32.4592  -19.1531   22.1001 N   0  0  0  0  0  0  0  0  0  0  0  0
  -26.0488  -11.8137   16.9987 N   0  0  0  0  0  0  0  0  0  0  0  0
  -21.9786  -11.0981   18.8201 N   0  0  0  0  0  0  0  0  0  0  0  0
  -29.5628  -15.8008   20.0911 N   0  0  0  0  0  0  0  0  0  0  0  0
  -28.3617  -21.7363   20.5337 N   0  0  0  0  0  0  0  0  0  0  0  0
  -25.8819  -33.4032   21.0210 N   0  0  0  0  0  0  0  0  0  0  0  0
  -21.0244  -29.0797   23.0639 N   0  0  0  0  0  0  0  0  0  0  0  0
  -19.5825  -26.3831   21.1360 N   0  3  0  0  0  0  0  0  0  0  0  0
  -26.7524  -20.0571   20.6618 O   0  0  0  0  0  0  0  0  0  0  0  0
  -23.1406  -11.2171   16.8467 O   0  0  0  0  0  0  0  0  0  0  0  0
  -26.2917  -22.7966   20.3920 O   0  0  0  0  0  0  0  0  0  0  0  0
  -25.6378  -31.9275   22.8057 O   0  0  0  0  0  0  0  0  0  0  0  0
  -21.9042  -31.7111   22.3495 O   0  0  0  0  0  0  0  0  0  0  0  0
  -21.8927  -26.9738   22.6296 O   0  0  0  0  0  0  0  0  0  0  0  0
  -31.6789  -14.8500   20.0828 O   0  0  0  0  0  0  0  0  0  0  0  0
  -29.6496  -24.0853   20.3286 O   0  0  0  0  0  0  0  0  0  0  0  0
  -20.7532  -11.1150   24.2546 O   0  0  0  0  0  0  0  0  0  0  0  0
  -28.1830  -26.4920   20.0702 O   0  0  0  0  0  0  0  0  0  1  0  0
  -17.2297   -6.8900   23.8837 F   0  0  0  0  0  0  0  0  0  0  0  0
  -20.6289   -9.1936   26.2383 F   0  0  0  0  0  0  0  0  0  0  0  0
  1  2  1  0  0  0  0
  1  5  2  0  0  0  0
  2  6  2  0  0  0  0
  3  8  2  0  0  0  0
  3 18  1  0  0  0  0
  4  9  1  0  0  0  0
  4 18  2  0  0  0  0
  5 21  1  0  0  0  0
  6 23  1  0  0  0  0
  7 10  2  0  0  0  0
  7 22  1  0  0  0  0
  8 27  1  0  0  0  0
  9 27  2  0  0  0  0
 10 28  1  0  0  0  0
 11 12  2  0  0  0  0
 11 29  1  0  0  0  0
 12 30  1  0  0  0  0
 13 19  1  0  0  0  0
 13 25  2  0  0  0  0
 14 19  2  0  0  0  0
 14 26  1  0  0  0  0
 15 24  1  0  0  0  0
 15 28  2  0  0  0  0
 16 25  1  0  0  0  0
 16 26  2  0  0  0  0
 17 30  2  0  0  0  0
 17 31  1  0  0  0  0
 18 32  1  0  0  0  0
 19 35  1  0  0  0  0
 20 32  1  0  0  0  0
 20 33  2  0  0  0  0
 20 36  1  0  0  0  0
 21 23  2  0  0  0  0
 21 43  1  0  0  0  0
 22 24  2  0  0  0  0
 22 44  1  0  0  0  0
 23 52  1  0  0  0  0
 24 45  1  0  0  0  0
 25 67  1  0  0  0  0
 26 70  1  0  0  0  0
 27 83  1  0  0  0  0
 28 84  1  0  0  0  0
 29 31  2  0  0  0  0
 29 83  1  0  0  0  0
 30 85  1  0  0  0  0
 31 86  1  0  0  0  0
 32 63  2  0  0  0  0
 33 64  1  0  0  0  0
 33 68  1  0  0  0  0
 34 37  2  0  0  0  0
 34 84  1  0  0  0  0
 35 71  1  0  0  0  0
 35 75  2  0  0  0  0
 36 69  1  0  0  0  0
 36 76  2  0  0  0  0
 37 38  1  0  0  0  0
 37 82  1  0  0  0  0
 38 71  1  0  0  0  0
 38 77  2  0  0  0  0
 39 53  1  0  0  0  0
 39 72  1  0  0  0  0
 39 78  2  0  0  0  0
 40 60  1  0  0  0  0
 40 65  1  0  0  0  0
 40 79  2  0  0  0  0
 41 61  1  0  0  0  0
 41 73  1  0  0  0  0
 41 80  2  0  0  0  0
 42 66  1  0  0  0  0
 42 70  1  0  0  0  0
 42 81  2  0  0  0  0
 43 46  1  0  0  0  0
 44 53  1  0  0  0  0
 45 65  1  0  0  0  0
 46 48  1  0  0  0  0
 47 49  1  0  0  0  0
 47 50  1  0  0  0  0
 48 52  1  0  0  0  0
 49 54  1  0  0  0  0
 50 66  1  0  0  0  0
 51 54  1  0  0  0  0
 51 66  1  0  0  0  0
 52 72  1  0  0  0  0
 53 65  1  0  0  0  0
 54 64  1  0  0  0  0
 55 61  1  0  0  0  0
 56 62  1  0  0  0  0
 57 62  1  0  0  0  0
 58 62  1  0  0  0  0
 59 74  1  0  0  0  0
 60 62  1  0  0  0  0
 60 73  1  0  0  0  0
 61 74  1  0  0  0  0
 63 64  1  0  0  0  0
M  CHG  1  74   1
M  ISO  4  34 101  42 100  70 100  84 101
M  END
> <Batch ID>
0085

> <Smiles>
CNC(C)C(=O)NC(C(=O)N1Cc2cc([101O:1][101CH2:1]C(=O)C(=O)NC(=O)c3cc(N)cc([100NH:0][100C:0](=O)N4CCCC(n5nc(-c6ccc(Oc7ccc(F)cc7F)cc6)c(C(N)=O)c5N)C4)c3)ccc2CC1C(=O)NC1CCCc2ccccc21)C(C)(C)C

> <Shape>
0.279

> <Color>
0.103

> <Negative vol penalty>
0.000

$$$$

  -OEChem-04052300153D

 84 93  0     1  0  0  0  0  0999 V2000
  -27.3783  -37.7506   23.8460 C   0  0  0  0  0  0  0  0  0  0  0  0
  -27.9648  -36.8071   23.0086 C   0  0  0  0  0  0  0  0  0  0  0  0
  -24.1859   -9.2995   22.2135 C   0  0  0  0  0  0  0  0  0  0  0  0
  -22.9231  -11.2834   21.6598 C   0  0  0  0  0  0  0  0  0  0  0  0
  -26.4957  -37.3416   24.8447 C   0  0  0  0  0  0  0  0  0  0  0  0
  -27.6698  -35.4538   23.1702 C   0  0  0  0  0  0  0  0  0  0  0  0
  -26.9110  -29.4153   19.3918 C   0  0  0  0  0  0  0  0  0  0  0  0
  -26.2998  -19.4060   19.1256 C   0  0  0  0  0  0  0  0  0  0  0  0
  -26.5644  -18.0444   18.9786 C   0  0  0  0  0  0  0  0  0  0  0  0
  -23.3208   -9.0459   23.2778 C   0  0  0  0  0  0  0  0  0  0  0  0
  -22.0579  -11.0298   22.7241 C   0  0  0  0  0  0  0  0  0  0  0  0
  -27.3662  -28.0978   19.3639 C   0  0  0  0  0  0  0  0  0  0  0  0
  -20.2302   -7.7480   23.7209 C   0  0  0  0  0  0  0  0  0  0  0  0
  -19.7721   -6.4410   23.8866 C   0  0  0  0  0  0  0  0  0  0  0  0
  -25.7657  -27.5151   21.0721 C   0  0  0  0  0  0  0  0  0  0  0  0
  -28.8456  -18.4116   19.6847 C   0  0  0  0  0  0  0  0  0  0  0  0
  -20.7712   -6.3696   26.0852 C   0  0  0  0  0  0  0  0  0  0  0  0
  -23.9871  -10.4183   21.4045 C   0  0  0  0  0  0  0  0  0  0  0  0
  -24.7521  -10.2291   18.9782 C   0  0  0  0  0  0  0  0  0  0  0  0
  -26.1822  -35.9836   25.0125 C   0  0  0  0  0  0  0  0  0  0  0  0
  -25.8855  -29.7956   20.2693 C   0  0  0  0  0  0  0  0  0  0  0  0
  -26.7831  -35.0262   24.1730 C   0  0  0  0  0  0  0  0  0  0  0  0
  -25.2975  -28.8374   21.1073 C   0  0  0  0  0  0  0  0  0  0  0  0
  -27.3081  -20.2704   19.5521 C   0  0  0  0  0  0  0  0  0  0  0  0
  -27.8373  -17.5472   19.2582 C   0  0  0  0  0  0  0  0  0  0  0  0
  -22.2568   -9.9110   23.5331 C   0  0  0  0  0  0  0  0  0  0  0  0
  -26.7956  -27.1481   20.2062 C   0  0  0  0  0  0  0  0  0  0  0  0
  -20.9588   -8.3658   24.7373 C   0  0  0  0  0  0  0  0  0  0  0  0
  -20.0426   -5.7518   25.0688 C   0  0  0  0  0  0  0  0  0  0  0  0
  -28.5810  -19.7732   19.8317 C   0  0  0  0  0  0  0  0  0  0  0  0
  -21.2293   -7.6766   25.9194 C   0  0  0  0  0  0  0  0  0  0  0  0
  -24.8808  -10.6812   20.3052 C   0  0  0  0  0  0  0  0  0  0  0  0
  -25.8475  -10.7468   18.3314 C   0  0  0  0  0  0  0  0  0  0  0  0
  -26.6694  -23.5750   19.8071 C   0  0  0  0  0  0  0  0  0  0  0  0
  -25.9252  -22.3530   19.4998 C   0  0  0  0  0  0  0  0  0  0  0  0
  -26.3437  -24.8791   19.8622 C   0  0  0  0  0  0  0  0  0  1  0  0
  -23.7334   -9.4141   18.3835 C   0  0  0  0  0  0  0  0  0  0  0  0
  -25.6518  -31.8329   22.6980 C   0  0  0  0  0  0  0  0  0  0  0  0
  -22.5157  -31.0131   22.5759 C   0  0  0  0  0  0  0  0  0  0  0  0
  -20.1531  -28.7222   21.6721 C   0  0  0  0  0  0  0  0  0  0  0  0
  -29.3136  -15.5077   19.3439 C   0  0  0  0  0  0  0  0  0  0  0  0
  -25.2589  -35.5851   26.1365 C   0  0  0  0  0  0  0  0  0  0  0  0
  -25.3875  -31.2149   20.2681 C   0  0  0  0  0  0  0  0  0  0  0  0
  -24.1798  -29.1901   22.0533 C   0  0  0  0  0  0  0  0  0  0  0  0
  -27.9078  -22.7348   20.0196 C   0  0  0  0  0  0  0  0  0  0  0  0
  -24.7098  -34.1674   26.0001 C   0  0  0  0  0  0  0  0  0  0  0  0
  -30.3676  -12.1136   19.1285 C   0  0  0  0  0  0  0  0  0  0  0  0
  -25.8291  -33.1929   25.6477 C   0  0  0  0  0  0  0  0  0  0  0  0
  -29.0676  -11.3201   19.2790 C   0  0  0  0  0  0  0  0  0  0  0  0
  -30.3753  -13.3618   20.0093 C   0  0  0  0  0  0  0  0  0  0  0  0
  -27.9134  -13.4510   19.9957 C   0  0  0  0  0  0  0  0  0  0  0  0
  -26.4690  -33.5514   24.3010 C   0  0  1  0  0  0  0  0  0  0  0  0
  -24.6890  -31.6041   21.5674 C   0  0  1  0  0  0  0  0  0  0  0  0
  -27.8320  -12.2195   19.0791 C   0  0  2  0  0  0  0  0  0  0  0  0
  -17.6776  -28.3154   21.7361 C   0  0  0  0  0  0  0  0  0  0  0  0
  -22.7064  -30.3347   25.5446 C   0  0  0  0  0  0  0  0  0  0  0  0
  -20.5556  -29.0725   25.3230 C   0  0  0  0  0  0  0  0  0  0  0  0
  -20.6109  -31.5266   24.8793 C   0  0  0  0  0  0  0  0  0  0  0  0
  -19.9788  -28.6052   18.7200 C   0  0  0  0  0  0  0  0  0  0  0  0
  -21.6650  -29.9422   23.2149 C   0  0  1  0  0  0  0  0  0  0  0  0
  -18.8391  -28.8709   20.9266 C   0  0  2  0  0  0  0  0  0  0  0  0
  -21.4068  -30.2125   24.7241 C   0  0  0  0  0  0  0  0  0  0  0  0
  -25.9720  -11.4284   20.4918 N   0  0  0  0  0  0  0  0  0  0  0  0
  -26.5390  -11.4499   19.2736 N   0  0  0  0  0  0  0  0  0  0  0  0
  -27.0443  -21.6128   19.6962 N   0  0  0  0  0  0  0  0  0  0  0  0
  -23.7320  -30.5922   22.0197 N   0  0  0  0  0  0  0  0  0  0  0  0
  -29.1773  -14.1672   19.7625 N   0  0  0  0  0  0  0  0  0  0  0  0
  -26.2771  -10.6647   17.0542 N   0  0  0  0  0  0  0  0  0  0  0  0
  -22.6788   -8.9674   19.1913 N   0  0  0  0  0  0  0  0  0  0  0  0
  -28.1059  -16.1640   19.1087 N   0  0  0  0  0  0  0  0  0  0  0  0
  -25.6250  -33.1165   23.2088 N   0  0  0  0  0  0  0  0  0  0  0  0
  -20.4527  -29.8487   22.4087 N   0  0  0  0  0  0  0  0  0  0  0  0
  -18.8959  -28.1444   19.6267 N   0  3  0  0  0  0  0  0  0  0  0  0
  -24.7813  -22.0992   19.1844 O   0  0  0  0  0  0  0  0  0  0  0  0
  -23.7663   -9.0780   17.1754 O   0  0  0  0  0  0  0  0  0  0  0  0
  -26.3652  -30.9125   23.0797 O   0  0  0  0  0  0  0  0  0  0  0  0
  -22.1125  -32.1788   22.5641 O   0  0  0  0  0  0  0  0  0  0  0  0
  -20.8427  -27.7068   21.6104 O   0  0  0  0  0  0  0  0  0  0  0  0
  -30.4206  -16.0264   19.1781 O   0  0  0  0  0  0  0  0  0  0  0  0
  -21.4123   -9.6637   24.5715 O   0  0  0  0  0  0  0  0  0  0  0  0
  -27.2384  -25.8616   20.1816 O   0  0  0  0  0  0  0  0  0  1  0  0
  -19.6013   -4.4972   25.2284 F   0  0  0  0  0  0  0  0  0  0  0  0
  -29.5580  -20.5949   20.2417 F   0  0  0  0  0  0  0  0  0  0  0  0
  -21.9278   -8.2654   26.8999 F   0  0  0  0  0  0  0  0  0  0  0  0
  1  2  1  0  0  0  0
  1  5  2  0  0  0  0
  2  6  2  0  0  0  0
  3 10  2  0  0  0  0
  3 18  1  0  0  0  0
  4 11  1  0  0  0  0
  4 18  2  0  0  0  0
  5 20  1  0  0  0  0
  6 22  1  0  0  0  0
  7 12  2  0  0  0  0
  7 21  1  0  0  0  0
  8  9  2  0  0  0  0
  8 24  1  0  0  0  0
  9 25  1  0  0  0  0
 10 26  1  0  0  0  0
 11 26  2  0  0  0  0
 12 27  1  0  0  0  0
 13 14  2  0  0  0  0
 13 28  1  0  0  0  0
 14 29  1  0  0  0  0
 15 23  1  0  0  0  0
 15 27  2  0  0  0  0
 16 25  2  0  0  0  0
 16 30  1  0  0  0  0
 17 29  2  0  0  0  0
 17 31  1  0  0  0  0
 18 32  1  0  0  0  0
 19 32  1  0  0  0  0
 19 33  2  0  0  0  0
 19 37  1  0  0  0  0
 20 22  2  0  0  0  0
 20 42  1  0  0  0  0
 21 23  2  0  0  0  0
 21 43  1  0  0  0  0
 22 52  1  0  0  0  0
 23 44  1  0  0  0  0
 24 30  2  0  0  0  0
 24 65  1  0  0  0  0
 25 70  1  0  0  0  0
 26 80  1  0  0  0  0
 27 81  1  0  0  0  0
 28 31  2  0  0  0  0
 28 80  1  0  0  0  0
 29 82  1  0  0  0  0
 30 83  1  0  0  0  0
 31 84  1  0  0  0  0
 32 63  2  0  0  0  0
 33 64  1  0  0  0  0
 33 68  1  0  0  0  0
 34 35  1  0  0  0  0
 34 36  2  0  0  0  0
 34 45  1  0  0  0  0
 35 65  1  0  0  0  0
 35 74  2  0  0  0  0
 36 81  1  0  0  0  0
 37 69  1  0  0  0  0
 37 75  2  0  0  0  0
 38 53  1  0  0  0  0
 38 71  1  0  0  0  0
 38 76  2  0  0  0  0
 39 60  1  0  0  0  0
 39 66  1  0  0  0  0
 39 77  2  0  0  0  0
 40 61  1  0  0  0  0
 40 72  1  0  0  0  0
 40 78  2  0  0  0  0
 41 67  1  0  0  0  0
 41 70  1  0  0  0  0
 41 79  2  0  0  0  0
 42 46  1  0  0  0  0
 43 53  1  0  0  0  0
 44 66  1  0  0  0  0
 45 65  1  0  0  0  0
 46 48  1  0  0  0  0
 47 49  1  0  0  0  0
 47 50  1  0  0  0  0
 48 52  1  0  0  0  0
 49 54  1  0  0  0  0
 50 67  1  0  0  0  0
 51 54  1  0  0  0  0
 51 67  1  0  0  0  0
 52 71  1  0  0  0  0
 53 66  1  0  0  0  0
 54 64  1  0  0  0  0
 55 61  1  0  0  0  0
 56 62  1  0  0  0  0
 57 62  1  0  0  0  0
 58 62  1  0  0  0  0
 59 73  1  0  0  0  0
 60 62  1  0  0  0  0
 60 72  1  0  0  0  0
 61 73  1  0  0  0  0
 63 64  1  0  0  0  0
M  CHG  1  73   1
M  ISO  4  36 101  41 100  70 100  81 101
M  END
> <Batch ID>
0085

> <Smiles>
CNC(C)C(=O)NC(C(=O)N1Cc2cc([101O:1][101CH:1]=C3CN(c4ccc([100NH:0][100C:0](=O)N5CCCC(n6nc(-c7ccc(Oc8ccc(F)cc8F)cc7)c(C(N)=O)c6N)C5)cc4F)C3=O)ccc2CC1C(=O)NC1CCCc2ccccc21)C(C)(C)C

> <Shape>
0.297

> <Color>
0.088

> <Negative vol penalty>
0.000

$$$$

  -OEChem-04052300153D

 86 95  0     1  0  0  0  0  0999 V2000
  -27.5152  -37.7848   22.3504 C   0  0  0  0  0  0  0  0  0  0  0  0
  -28.0501  -36.7450   21.5967 C   0  0  0  0  0  0  0  0  0  0  0  0
  -24.0481  -10.2221   22.8634 C   0  0  0  0  0  0  0  0  0  0  0  0
  -23.2457  -12.5008   22.8330 C   0  0  0  0  0  0  0  0  0  0  0  0
  -26.7333  -37.5024   23.4697 C   0  0  0  0  0  0  0  0  0  0  0  0
  -27.8043  -35.4221   21.9625 C   0  0  0  0  0  0  0  0  0  0  0  0
  -26.8713  -28.9204   19.1034 C   0  0  0  0  0  0  0  0  0  0  0  0
  -30.4086  -19.6903   20.7223 C   0  0  0  0  0  0  0  0  0  0  0  0
  -30.2835  -18.3466   20.3696 C   0  0  0  0  0  0  0  0  0  0  0  0
  -23.3690   -9.9989   24.0612 C   0  0  0  0  0  0  0  0  0  0  0  0
  -22.5665  -12.2776   24.0308 C   0  0  0  0  0  0  0  0  0  0  0  0
  -27.3552  -27.6173   19.2103 C   0  0  0  0  0  0  0  0  0  0  0  0
  -20.1961   -9.3698   25.0459 C   0  0  0  0  0  0  0  0  0  0  0  0
  -19.4633   -8.1890   25.1653 C   0  0  0  0  0  0  0  0  0  0  0  0
  -25.9244  -27.2487   21.1172 C   0  0  0  0  0  0  0  0  0  0  0  0
  -28.0174  -19.9673   20.5158 C   0  0  0  0  0  0  0  0  0  0  0  0
  -20.8165   -7.5407   27.0589 C   0  0  0  0  0  0  0  0  0  0  0  0
  -23.9865  -11.4730   22.2494 C   0  0  0  0  0  0  0  0  0  0  0  0
  -24.1960  -11.5138   19.7073 C   0  0  0  0  0  0  0  0  0  0  0  0
  -26.4697  -36.1753   23.8438 C   0  0  0  0  0  0  0  0  0  0  0  0
  -25.9167  -29.4018   20.0109 C   0  0  0  0  0  0  0  0  0  0  0  0
  -27.0192  -35.1216   23.0886 C   0  0  0  0  0  0  0  0  0  0  0  0
  -25.4281  -28.5575   21.0181 C   0  0  0  0  0  0  0  0  0  0  0  0
  -29.2756  -20.5006   20.7954 C   0  0  0  0  0  0  0  0  0  0  0  0
  -29.0253  -17.8132   20.0899 C   0  0  0  0  0  0  0  0  0  0  0  0
  -22.6282  -11.0266   24.6449 C   0  0  0  0  0  0  0  0  0  0  0  0
  -26.8839  -26.7821   20.2190 C   0  0  0  0  0  0  0  0  0  0  0  0
  -21.2392   -9.6360   25.9329 C   0  0  0  0  0  0  0  0  0  0  0  0
  -19.7735   -7.2744   26.1718 C   0  0  0  0  0  0  0  0  0  0  0  0
  -27.8923  -18.6235   20.1630 C   0  0  0  0  0  0  0  0  0  0  0  0
  -21.5493   -8.7215   26.9394 C   0  0  0  0  0  0  0  0  0  0  0  0
  -24.6882  -11.7044   21.0124 C   0  0  0  0  0  0  0  0  0  0  0  0
  -25.2407  -11.8717   18.8906 C   0  0  0  0  0  0  0  0  0  0  0  0
  -29.0020  -24.0919   21.2831 C   0  0  0  0  0  0  0  0  0  0  0  0
  -30.1825  -23.8039   22.1094 C   0  0  0  0  0  0  0  0  0  0  0  0
  -28.5135  -22.8369   20.6768 C   0  0  0  0  0  0  0  0  0  0  0  0
  -28.4559  -25.2950   21.1069 C   0  0  0  0  0  0  0  0  0  1  0  0
  -22.9094  -11.0545   19.2721 C   0  0  0  0  0  0  0  0  0  0  0  0
  -25.8443  -31.7442   22.1583 C   0  0  0  0  0  0  0  0  0  0  0  0
  -22.7309  -30.8742   22.4276 C   0  0  0  0  0  0  0  0  0  0  0  0
  -20.3568  -28.4516   22.0515 C   0  0  0  0  0  0  0  0  0  0  0  0
  -29.9259  -15.5094   19.6129 C   0  0  0  0  0  0  0  0  0  0  0  0
  -25.6580  -35.9197   25.0889 C   0  0  0  0  0  0  0  0  0  0  0  0
  -25.3851  -30.8014   19.8657 C   0  0  0  0  0  0  0  0  0  0  0  0
  -24.3884  -29.0196   22.0050 C   0  0  0  0  0  0  0  0  0  0  0  0
  -30.4682  -22.3328   22.0382 C   0  0  0  0  0  0  0  0  0  0  0  0
  -25.1347  -34.4893   25.1919 C   0  0  0  0  0  0  0  0  0  0  0  0
  -30.0254  -12.0466   18.7902 C   0  0  0  0  0  0  0  0  0  0  0  0
  -26.2433  -33.4911   24.8733 C   0  0  0  0  0  0  0  0  0  0  0  0
  -28.6214  -11.5499   19.1422 C   0  0  0  0  0  0  0  0  0  0  0  0
  -30.5182  -13.1017   19.7790 C   0  0  0  0  0  0  0  0  0  0  0  0
  -28.2040  -13.7396   20.3330 C   0  0  0  0  0  0  0  0  0  0  0  0
  -26.7544  -33.6735   23.4391 C   0  0  1  0  0  0  0  0  0  0  0  0
  -24.7928  -31.3527   21.1590 C   0  0  1  0  0  0  0  0  0  0  0  0
  -27.6387  -12.7227   19.3280 C   0  0  2  0  0  0  0  0  0  0  0  0
  -17.9072  -28.0246   22.3904 C   0  0  0  0  0  0  0  0  0  0  0  0
  -23.1960  -30.6042   25.4310 C   0  0  0  0  0  0  0  0  0  0  0  0
  -21.0664  -29.2954   25.5726 C   0  0  0  0  0  0  0  0  0  0  0  0
  -21.0213  -31.6680   24.8036 C   0  0  0  0  0  0  0  0  0  0  0  0
  -19.9294  -27.9361   19.1687 C   0  0  0  0  0  0  0  0  0  0  0  0
  -21.9661  -29.8879   23.2769 C   0  0  1  0  0  0  0  0  0  0  0  0
  -18.9796  -28.4813   21.4136 C   0  0  2  0  0  0  0  0  0  0  0  0
  -21.8335  -30.3555   24.7538 C   0  0  0  0  0  0  0  0  0  0  0  0
  -25.9477  -12.1486   21.0287 N   0  0  0  0  0  0  0  0  0  0  0  0
  -26.2558  -12.2402   19.7238 N   0  0  0  0  0  0  0  0  0  0  0  0
  -29.4004  -21.8427   21.1471 N   0  0  0  0  0  0  0  0  0  0  0  0
  -23.9044  -30.3984   21.8256 N   0  0  0  0  0  0  0  0  0  0  0  0
  -29.5384  -14.1835   19.9004 N   0  0  0  0  0  0  0  0  0  0  0  0
  -25.3809  -11.9039   17.5484 N   0  0  0  0  0  0  0  0  0  0  0  0
  -21.9524  -10.7296   20.2432 N   0  0  0  0  0  0  0  0  0  0  0  0
  -28.9014  -16.4480   19.7314 N   0  0  0  0  0  0  0  0  0  0  0  0
  -25.8298  -33.0845   22.4943 N   0  0  0  0  0  0  0  0  0  0  0  0
  -20.6910  -29.6708   22.6021 N   0  0  0  0  0  0  0  0  0  0  0  0
  -18.9414  -27.5872   20.2219 N   0  3  0  0  0  0  0  0  0  0  0  0
  -30.8229  -24.6227   22.7459 O   0  0  0  0  0  0  0  0  0  0  0  0
  -27.5513  -22.7255   19.9373 O   0  0  0  0  0  0  0  0  0  0  0  0
  -22.6226  -10.9200   18.0584 O   0  0  0  0  0  0  0  0  0  0  0  0
  -26.6109  -30.8930   22.5936 O   0  0  0  0  0  0  0  0  0  0  0  0
  -22.2992  -32.0223   22.2971 O   0  0  0  0  0  0  0  0  0  0  0  0
  -21.0637  -27.4463   22.0638 O   0  0  0  0  0  0  0  0  0  0  0  0
  -31.0746  -15.7876   19.2593 O   0  0  0  0  0  0  0  0  0  0  0  0
  -21.9652  -10.8092   25.8135 O   0  0  0  0  0  0  0  0  0  0  0  0
  -27.3551  -25.5099   20.3260 O   0  0  0  0  0  0  0  0  0  1  0  0
  -19.0687   -6.1412   26.2873 F   0  0  0  0  0  0  0  0  0  0  0  0
  -26.6781  -18.1220   19.8948 F   0  0  0  0  0  0  0  0  0  0  0  0
  -22.5495   -8.9723   27.7953 F   0  0  0  0  0  0  0  0  0  0  0  0
  1  2  1  0  0  0  0
  1  5  2  0  0  0  0
  2  6  2  0  0  0  0
  3 10  2  0  0  0  0
  3 18  1  0  0  0  0
  4 11  1  0  0  0  0
  4 18  2  0  0  0  0
  5 20  1  0  0  0  0
  6 22  1  0  0  0  0
  7 12  2  0  0  0  0
  7 21  1  0  0  0  0
  8  9  2  0  0  0  0
  8 24  1  0  0  0  0
  9 25  1  0  0  0  0
 10 26  1  0  0  0  0
 11 26  2  0  0  0  0
 12 27  1  0  0  0  0
 13 14  2  0  0  0  0
 13 28  1  0  0  0  0
 14 29  1  0  0  0  0
 15 23  1  0  0  0  0
 15 27  2  0  0  0  0
 16 24  2  0  0  0  0
 16 30  1  0  0  0  0
 17 29  2  0  0  0  0
 17 31  1  0  0  0  0
 18 32  1  0  0  0  0
 19 32  1  0  0  0  0
 19 33  2  0  0  0  0
 19 38  1  0  0  0  0
 20 22  2  0  0  0  0
 20 43  1  0  0  0  0
 21 23  2  0  0  0  0
 21 44  1  0  0  0  0
 22 53  1  0  0  0  0
 23 45  1  0  0  0  0
 24 66  1  0  0  0  0
 25 30  2  0  0  0  0
 25 71  1  0  0  0  0
 26 82  1  0  0  0  0
 27 83  1  0  0  0  0
 28 31  2  0  0  0  0
 28 82  1  0  0  0  0
 29 84  1  0  0  0  0
 30 85  1  0  0  0  0
 31 86  1  0  0  0  0
 32 64  2  0  0  0  0
 33 65  1  0  0  0  0
 33 69  1  0  0  0  0
 34 35  1  0  0  0  0
 34 36  1  0  0  0  0
 34 37  2  0  0  0  0
 35 46  1  0  0  0  0
 35 75  2  0  0  0  0
 36 66  1  0  0  0  0
 36 76  2  0  0  0  0
 37 83  1  0  0  0  0
 38 70  1  0  0  0  0
 38 77  2  0  0  0  0
 39 54  1  0  0  0  0
 39 72  1  0  0  0  0
 39 78  2  0  0  0  0
 40 61  1  0  0  0  0
 40 67  1  0  0  0  0
 40 79  2  0  0  0  0
 41 62  1  0  0  0  0
 41 73  1  0  0  0  0
 41 80  2  0  0  0  0
 42 68  1  0  0  0  0
 42 71  1  0  0  0  0
 42 81  2  0  0  0  0
 43 47  1  0  0  0  0
 44 54  1  0  0  0  0
 45 67  1  0  0  0  0
 46 66  1  0  0  0  0
 47 49  1  0  0  0  0
 48 50  1  0  0  0  0
 48 51  1  0  0  0  0
 49 53  1  0  0  0  0
 50 55  1  0  0  0  0
 51 68  1  0  0  0  0
 52 55  1  0  0  0  0
 52 68  1  0  0  0  0
 53 72  1  0  0  0  0
 54 67  1  0  0  0  0
 55 65  1  0  0  0  0
 56 62  1  0  0  0  0
 57 63  1  0  0  0  0
 58 63  1  0  0  0  0
 59 63  1  0  0  0  0
 60 74  1  0  0  0  0
 61 63  1  0  0  0  0
 61 73  1  0  0  0  0
 62 74  1  0  0  0  0
 64 65  1  0  0  0  0
M  CHG  1  74   1
M  ISO  4  37 101  42 100  71 100  83 101
M  END
> <Batch ID>
0085

> <Smiles>
CNC(C)C(=O)NC(C(=O)N1Cc2cc([101O:1][101CH:1]=C3C(=O)CN(c4ccc([100NH:0][100C:0](=O)N5CCCC(n6nc(-c7ccc(Oc8ccc(F)cc8F)cc7)c(C(N)=O)c6N)C5)c(F)c4)C3=O)ccc2CC1C(=O)NC1CCCc2ccccc21)C(C)(C)C

> <Shape>
0.311

> <Color>
0.087

> <Negative vol penalty>
0.000

$$$$

  -OEChem-04052300153D

 85 94  0     1  0  0  0  0  0999 V2000
  -31.2670  -32.3268   11.4045 C   0  0  0  0  0  0  0  0  0  0  0  0
  -31.5731  -31.2429   12.2212 C   0  0  0  0  0  0  0  0  0  0  0  0
  -31.7219  -18.5518   23.6753 C   0  0  0  0  0  0  0  0  0  0  0  0
  -23.1118   -9.8840   19.8641 C   0  0  0  0  0  0  0  0  0  0  0  0
  -23.8134   -9.7887   22.1741 C   0  0  0  0  0  0  0  0  0  0  0  0
  -30.0080  -32.9211   11.4797 C   0  0  0  0  0  0  0  0  0  0  0  0
  -30.6206  -30.7534   13.1143 C   0  0  0  0  0  0  0  0  0  0  0  0
  -29.7800  -24.9165   14.7666 C   0  0  0  0  0  0  0  0  0  0  0  0
  -31.3336  -19.4605   22.6909 C   0  0  0  0  0  0  0  0  0  0  0  0
  -31.4708  -17.1902   23.5057 C   0  0  0  0  0  0  0  0  0  0  0  0
  -22.3600   -8.7230   20.0446 C   0  0  0  0  0  0  0  0  0  0  0  0
  -23.0616   -8.6278   22.3545 C   0  0  0  0  0  0  0  0  0  0  0  0
  -30.1936  -24.1883   15.8812 C   0  0  0  0  0  0  0  0  0  0  0  0
  -19.8180   -7.8130   22.8400 C   0  0  0  0  0  0  0  0  0  0  0  0
  -19.0316   -7.7239   23.9886 C   0  0  0  0  0  0  0  0  0  0  0  0
  -28.0638  -24.6033   16.9352 C   0  0  0  0  0  0  0  0  0  0  0  0
  -30.4429  -17.6461   21.3674 C   0  0  0  0  0  0  0  0  0  0  0  0
  -20.2510   -5.7529   24.6707 C   0  0  0  0  0  0  0  0  0  0  0  0
  -23.8385  -10.4169   20.9289 C   0  0  0  0  0  0  0  0  0  0  0  0
  -24.1872  -12.9439   20.9281 C   0  0  0  0  0  0  0  0  0  0  0  0
  -29.0363  -32.4325   12.3672 C   0  0  0  0  0  0  0  0  0  0  0  0
  -28.5071  -25.5038   14.7324 C   0  0  0  0  0  0  0  0  0  0  0  0
  -29.3479  -31.3426   13.2023 C   0  0  0  0  0  0  0  0  0  0  0  0
  -27.6355  -25.3363   15.8179 C   0  0  0  0  0  0  0  0  0  0  0  0
  -30.6940  -19.0077   21.5370 C   0  0  0  0  0  0  0  0  0  0  0  0
  -30.8313  -16.7374   22.3518 C   0  0  0  0  0  0  0  0  0  0  0  0
  -22.3349   -8.0949   21.2898 C   0  0  0  0  0  0  0  0  0  0  0  0
  -29.3366  -24.0341   16.9670 C   0  0  0  0  0  0  0  0  0  0  0  0
  -20.8209   -6.8719   22.6067 C   0  0  0  0  0  0  0  0  0  0  0  0
  -19.2481   -6.6939   24.9039 C   0  0  0  0  0  0  0  0  0  0  0  0
  -21.0374   -5.8419   23.5220 C   0  0  0  0  0  0  0  0  0  0  0  0
  -24.6157  -11.6158   20.7429 C   0  0  0  0  0  0  0  0  0  0  0  0
  -25.2893  -13.7056   20.6256 C   0  0  0  0  0  0  0  0  0  0  0  0
  -29.8358  -21.1820   19.1022 C   0  0  0  0  0  0  0  0  0  0  0  0
  -29.6882  -19.7513   19.3720 C   0  0  0  0  0  0  0  0  0  0  0  0
  -29.7959  -14.8862   24.3949 C   0  0  0  0  0  0  0  0  0  0  0  0
  -29.4848  -21.9815   18.0787 C   0  0  0  0  0  0  0  0  0  1  0  0
  -30.3510  -14.4780   23.2516 C   0  0  0  0  0  0  0  0  0  0  0  0
  -22.9073  -13.4443   21.3370 C   0  0  0  0  0  0  0  0  0  0  0  0
  -27.4155  -28.4814   14.5187 C   0  0  0  0  0  0  0  0  0  0  0  0
  -24.5388  -26.9973   14.3079 C   0  0  0  0  0  0  0  0  0  0  0  0
  -22.6496  -24.2330   14.9685 C   0  0  0  0  0  0  0  0  0  0  0  0
  -30.7002  -14.7601   20.8801 C   0  0  0  0  0  0  0  0  0  0  0  0
  -27.7055  -33.1376   12.4465 C   0  0  0  0  0  0  0  0  0  0  0  0
  -28.0660  -26.2637   13.5115 C   0  0  0  0  0  0  0  0  0  0  0  0
  -26.2512  -25.9297   15.8223 C   0  0  0  0  0  0  0  0  0  0  0  0
  -30.5311  -21.3340   20.4357 C   0  0  0  0  0  0  0  0  0  0  0  0
  -26.6253  -32.3222   13.1526 C   0  0  0  0  0  0  0  0  0  0  0  0
  -29.6797  -12.4508   18.4689 C   0  0  0  0  0  0  0  0  0  0  0  0
  -27.1681  -31.7242   14.4467 C   0  0  0  0  0  0  0  0  0  0  0  0
  -28.2375  -12.1256   18.8565 C   0  0  0  0  0  0  0  0  0  0  0  0
  -30.5627  -12.5786   19.7049 C   0  0  0  0  0  0  0  0  0  0  0  0
  -28.6340  -13.2786   21.0883 C   0  0  0  0  0  0  0  0  0  0  0  0
  -28.3330  -30.7672   14.1662 C   0  0  1  0  0  0  0  0  0  0  0  0
  -26.9397  -27.2521   13.7975 C   0  0  1  0  0  0  0  0  0  0  0  0
  -27.6951  -13.1462   19.8725 C   0  0  2  0  0  0  0  0  0  0  0  0
  -20.3227  -23.3296   14.7101 C   0  0  0  0  0  0  0  0  0  0  0  0
  -23.6004  -28.7612   16.6140 C   0  0  0  0  0  0  0  0  0  0  0  0
  -21.6687  -27.2002   16.9301 C   0  0  0  0  0  0  0  0  0  0  0  0
  -21.9209  -28.4517   14.7870 C   0  0  0  0  0  0  0  0  0  0  0  0
  -23.5855  -21.9815   13.2911 C   0  0  0  0  0  0  0  0  0  0  0  0
  -23.4958  -26.5415   15.2995 C   0  0  1  0  0  0  0  0  0  0  0  0
  -21.7100  -23.4226   14.0940 C   0  0  2  0  0  0  0  0  0  0  0  0
  -22.6982  -27.7289   15.9087 C   0  0  0  0  0  0  0  0  0  0  0  0
  -25.8906  -11.5350   20.3529 N   0  0  0  0  0  0  0  0  0  0  0  0
  -26.2726  -12.8219   20.2904 N   0  0  0  0  0  0  0  0  0  0  0  0
  -30.3117  -19.9044   20.5664 N   0  0  0  0  0  0  0  0  0  0  0  0
  -25.8685  -26.6693   14.6082 N   0  0  0  0  0  0  0  0  0  0  0  0
  -30.0114  -13.5532   20.6470 N   0  0  0  0  0  0  0  0  0  0  0  0
  -25.5036  -15.0385   20.6162 N   0  0  0  0  0  0  0  0  0  0  0  0
  -21.8858  -12.5240   21.6085 N   0  0  0  0  0  0  0  0  0  0  0  0
  -27.8378  -29.4966   13.6817 N   0  0  0  0  0  0  0  0  0  0  0  0
  -22.6697  -25.5621   14.6018 N   0  0  0  0  0  0  0  0  0  0  0  0
  -30.5709  -15.3234   22.1763 N   0  0  0  0  0  0  0  0  0  0  0  0
  -22.2363  -22.0405   13.9102 N   0  3  0  0  0  0  0  0  0  0  0  0
  -29.2163  -18.8075   18.7729 O   0  0  0  0  0  0  0  0  0  0  0  0
  -22.6716  -14.6719   21.4421 O   0  0  0  0  0  0  0  0  0  0  0  0
  -27.3993  -28.5076   15.7437 O   0  0  0  0  0  0  0  0  0  0  0  0
  -24.1860  -27.6152   13.3003 O   0  0  0  0  0  0  0  0  0  0  0  0
  -23.2978  -23.7374   15.8876 O   0  0  0  0  0  0  0  0  0  0  0  0
  -31.3987  -15.2904   20.0065 O   0  0  0  0  0  0  0  0  0  0  0  0
  -21.6013   -6.9621   21.4663 O   0  0  0  0  0  0  0  0  0  0  0  0
  -29.7381  -23.3243   18.0564 O   0  0  0  0  0  0  0  0  0  1  0  0
  -18.4939   -6.6095   26.0076 F   0  0  0  0  0  0  0  0  0  0  0  0
  -22.0001   -4.9356   23.3039 F   0  0  0  0  0  0  0  0  0  0  0  0
  1  2  1  0  0  0  0
  1  6  2  0  0  0  0
  2  7  2  0  0  0  0
  3  9  1  0  0  0  0
  3 10  2  0  0  0  0
  4 11  2  0  0  0  0
  4 19  1  0  0  0  0
  5 12  1  0  0  0  0
  5 19  2  0  0  0  0
  6 21  1  0  0  0  0
  7 23  1  0  0  0  0
  8 13  2  0  0  0  0
  8 22  1  0  0  0  0
  9 25  2  0  0  0  0
 10 26  1  0  0  0  0
 11 27  1  0  0  0  0
 12 27  2  0  0  0  0
 13 28  1  0  0  0  0
 14 15  2  0  0  0  0
 14 29  1  0  0  0  0
 15 30  1  0  0  0  0
 16 24  1  0  0  0  0
 16 28  2  0  0  0  0
 17 25  1  0  0  0  0
 17 26  2  0  0  0  0
 18 30  2  0  0  0  0
 18 31  1  0  0  0  0
 19 32  1  0  0  0  0
 20 32  1  0  0  0  0
 20 33  2  0  0  0  0
 20 39  1  0  0  0  0
 21 23  2  0  0  0  0
 21 44  1  0  0  0  0
 22 24  2  0  0  0  0
 22 45  1  0  0  0  0
 23 54  1  0  0  0  0
 24 46  1  0  0  0  0
 25 67  1  0  0  0  0
 26 74  1  0  0  0  0
 27 82  1  0  0  0  0
 28 83  1  0  0  0  0
 29 31  2  0  0  0  0
 29 82  1  0  0  0  0
 30 84  1  0  0  0  0
 31 85  1  0  0  0  0
 32 65  2  0  0  0  0
 33 66  1  0  0  0  0
 33 70  1  0  0  0  0
 34 35  1  0  0  0  0
 34 37  2  0  0  0  0
 34 47  1  0  0  0  0
 35 67  1  0  0  0  0
 35 76  2  0  0  0  0
 36 38  2  0  0  0  0
 37 83  1  0  0  0  0
 38 74  1  0  0  0  0
 39 71  1  0  0  0  0
 39 77  2  0  0  0  0
 40 55  1  0  0  0  0
 40 72  1  0  0  0  0
 40 78  2  0  0  0  0
 41 62  1  0  0  0  0
 41 68  1  0  0  0  0
 41 79  2  0  0  0  0
 42 63  1  0  0  0  0
 42 73  1  0  0  0  0
 42 80  2  0  0  0  0
 43 69  1  0  0  0  0
 43 74  1  0  0  0  0
 43 81  2  0  0  0  0
 44 48  1  0  0  0  0
 45 55  1  0  0  0  0
 46 68  1  0  0  0  0
 47 67  1  0  0  0  0
 48 50  1  0  0  0  0
 49 51  1  0  0  0  0
 49 52  1  0  0  0  0
 50 54  1  0  0  0  0
 51 56  1  0  0  0  0
 52 69  1  0  0  0  0
 53 56  1  0  0  0  0
 53 69  1  0  0  0  0
 54 72  1  0  0  0  0
 55 68  1  0  0  0  0
 56 66  1  0  0  0  0
 57 63  1  0  0  0  0
 58 64  1  0  0  0  0
 59 64  1  0  0  0  0
 60 64  1  0  0  0  0
 61 75  1  0  0  0  0
 62 64  1  0  0  0  0
 62 73  1  0  0  0  0
 63 75  1  0  0  0  0
 65 66  1  0  0  0  0
M  CHG  1  75   1
M  ISO  4  37 101  43 100  74 100  83 101
M  END
> <Batch ID>
0085

> <Smiles>
C=C[100N:0](c1cccc(N2CC(=[101CH:1][101O:1]c3ccc4c(c3)CN(C(=O)C(NC(=O)C(C)NC)C(C)(C)C)C(C(=O)NC3CCCc5ccccc53)C4)C2=O)c1)[100C:0](=O)N1CCCC(n2nc(-c3ccc(Oc4ccc(F)cc4F)cc3)c(C(N)=O)c2N)C1

> <Shape>
0.214

> <Color>
0.192

> <Negative vol penalty>
0.000

$$$$

  -OEChem-04052300153D

 87 96  0     1  0  0  0  0  0999 V2000
  -27.3627  -33.1343   27.0973 C   0  0  0  0  0  0  0  0  0  0  0  0
  -27.6714  -32.0720   26.2538 C   0  0  0  0  0  0  0  0  0  0  0  0
  -24.3451  -13.9255   22.7275 C   0  0  0  0  0  0  0  0  0  0  0  0
  -26.7410  -13.7884   22.4484 C   0  0  0  0  0  0  0  0  0  0  0  0
  -26.0334  -33.4016   27.4220 C   0  0  0  0  0  0  0  0  0  0  0  0
  -26.6510  -31.2756   25.7353 C   0  0  0  0  0  0  0  0  0  0  0  0
  -27.2448  -30.3288   20.7961 C   0  0  0  0  0  0  0  0  0  0  0  0
  -24.1822  -12.8450   21.8607 C   0  0  0  0  0  0  0  0  0  0  0  0
  -26.5781  -12.7077   21.5815 C   0  0  0  0  0  0  0  0  0  0  0  0
  -28.1760  -29.3534   20.4422 C   0  0  0  0  0  0  0  0  0  0  0  0
  -24.4573   -9.4777   21.9982 C   0  0  0  0  0  0  0  0  0  0  0  0
  -23.5645   -8.4741   22.3740 C   0  0  0  0  0  0  0  0  0  0  0  0
  -26.3883  -27.7594   20.1551 C   0  0  0  0  0  0  0  0  0  0  0  0
  -32.6283  -21.9686   20.7442 C   0  0  0  0  0  0  0  0  0  0  0  0
  -30.3479  -22.4820   21.3550 C   0  0  0  0  0  0  0  0  0  0  0  0
  -31.3896  -20.4588   22.1666 C   0  0  0  0  0  0  0  0  0  0  0  0
  -22.2621   -8.8866   20.3813 C   0  0  0  0  0  0  0  0  0  0  0  0
  -25.6245  -14.3973   23.0213 C   0  0  0  0  0  0  0  0  0  0  0  0
  -25.9537  -15.4662   25.3141 C   0  0  0  0  0  0  0  0  0  0  0  0
  -24.9954  -32.6140   26.8995 C   0  0  0  0  0  0  0  0  0  0  0  0
  -25.8770  -30.0233   20.8428 C   0  0  0  0  0  0  0  0  0  0  0  0
  -25.3066  -31.5317   26.0544 C   0  0  0  0  0  0  0  0  0  0  0  0
  -25.4416  -28.7334   20.5073 C   0  0  0  0  0  0  0  0  0  0  0  0
  -31.5209  -22.8141   20.6772 C   0  0  0  0  0  0  0  0  0  0  0  0
  -32.5626  -20.7909   21.4888 C   0  0  0  0  0  0  0  0  0  0  0  0
  -30.2823  -21.3043   22.0998 C   0  0  0  0  0  0  0  0  0  0  0  0
  -25.2987  -12.2360   21.2877 C   0  0  0  0  0  0  0  0  0  0  0  0
  -27.7481  -28.0677   20.1244 C   0  0  0  0  0  0  0  0  0  0  0  0
  -24.2525  -10.1859   20.8140 C   0  0  0  0  0  0  0  0  0  0  0  0
  -22.4669   -8.1785   21.5655 C   0  0  0  0  0  0  0  0  0  0  0  0
  -23.1549   -9.8903   20.0055 C   0  0  0  0  0  0  0  0  0  0  0  0
  -25.7934  -15.5138   23.9163 C   0  0  0  0  0  0  0  0  0  0  0  0
  -26.0738  -16.7815   25.6909 C   0  0  0  0  0  0  0  0  0  0  0  0
  -31.6861  -26.3173   18.3396 C   0  0  0  0  0  0  0  0  0  0  0  0
  -32.4091  -24.0728   18.8051 C   0  0  0  0  0  0  0  0  0  0  0  0
  -30.8774  -26.3329   19.4077 C   0  0  0  0  0  0  0  0  0  0  0  0
  -32.4808  -25.1624   18.0350 C   0  0  0  0  0  0  0  0  0  0  0  0
  -30.8159  -25.1285   20.3146 C   0  0  0  0  0  0  0  0  0  0  0  0
  -25.9909  -14.3342   26.1932 C   0  0  0  0  0  0  0  0  0  0  0  0
  -23.6581  -30.0093   23.1188 C   0  0  0  0  0  0  0  0  0  0  0  0
  -21.6718  -29.3664   20.6361 C   0  0  0  0  0  0  0  0  0  0  0  0
  -21.2863  -28.1259   17.4803 C   0  0  0  0  0  0  0  0  0  0  0  0
  -27.9030  -21.6973   22.8284 C   0  0  0  0  0  0  0  0  0  0  0  0
  -23.5772  -32.9124   27.3168 C   0  0  0  0  0  0  0  0  0  0  0  0
  -24.8828  -31.0939   21.2005 C   0  0  0  0  0  0  0  0  0  0  0  0
  -23.9825  -28.3599   20.5225 C   0  0  0  0  0  0  0  0  0  0  0  0
  -22.5283  -32.2512   26.4262 C   0  0  0  0  0  0  0  0  0  0  0  0
  -24.7384  -21.1895   24.3792 C   0  0  0  0  0  0  0  0  0  0  0  0
  -22.8824  -30.7880   26.1805 C   0  0  0  0  0  0  0  0  0  0  0  0
  -24.6671  -19.6727   24.5692 C   0  0  0  0  0  0  0  0  0  0  0  0
  -25.4335  -21.5652   23.0717 C   0  0  0  0  0  0  0  0  0  0  0  0
  -26.6861  -19.4439   23.0665 C   0  0  0  0  0  0  0  0  0  0  0  0
  -24.2258  -30.6603   25.4522 C   0  0  1  0  0  0  0  0  0  0  0  0
  -23.5601  -30.5335   21.7140 C   0  0  1  0  0  0  0  0  0  0  0  0
  -26.0521  -19.0178   24.4007 C   0  0  2  0  0  0  0  0  0  0  0  0
  -19.5380  -27.6988   15.7315 C   0  0  0  0  0  0  0  0  0  0  0  0
  -20.6940  -26.9417   22.2092 C   0  0  0  0  0  0  0  0  0  0  0  0
  -19.7003  -26.0545   20.0894 C   0  0  0  0  0  0  0  0  0  0  0  0
  -18.8931  -28.2179   21.0334 C   0  0  0  0  0  0  0  0  0  0  0  0
  -22.6126  -29.9325   15.5474 C   0  0  0  0  0  0  0  0  0  0  0  0
  -30.0289  -27.4989   19.7634 C   0  0  0  0  0  0  0  0  0  1  0  0
  -21.1791  -28.1105   19.9587 C   0  0  1  0  0  0  0  0  0  0  0  0
  -20.5727  -28.6799   16.2604 C   0  0  2  0  0  0  0  0  0  0  0  0
  -20.1443  -27.3374   20.8242 C   0  0  0  0  0  0  0  0  0  0  0  0
  -25.8095  -16.7606   23.4376 N   0  0  0  0  0  0  0  0  0  0  0  0
  -25.9813  -17.5087   24.5407 N   0  0  0  0  0  0  0  0  0  0  0  0
  -31.5866  -24.0005   19.9287 N   0  0  0  0  0  0  0  0  0  0  0  0
  -23.0497  -29.4398   20.8848 N   0  0  0  0  0  0  0  0  0  0  0  0
  -26.7412  -20.9118   22.9836 N   0  0  0  0  0  0  0  0  0  0  0  0
  -33.6820  -19.9356   21.5569 N   0  0  0  0  0  0  0  0  0  0  0  0
  -26.2483  -17.3755   26.8906 N   0  0  0  0  0  0  0  0  0  0  0  0
  -25.8524  -13.0539   25.6402 N   0  0  0  0  0  0  0  0  0  0  0  0
  -29.0910  -20.9682   22.7895 N   0  0  0  0  0  0  0  0  0  0  0  0
  -24.0667  -30.9514   24.0435 N   0  0  0  0  0  0  0  0  0  0  0  0
  -20.6769  -28.5216   18.6521 N   0  0  0  0  0  0  0  0  0  0  0  0
  -21.5508  -28.9635   15.1724 N   0  3  0  0  0  0  0  0  0  0  0  0
  -30.1027  -25.1605   21.3192 O   0  0  0  0  0  0  0  0  0  0  0  0
  -26.1260  -14.4555   27.4344 O   0  0  0  0  0  0  0  0  0  0  0  0
  -23.3820  -28.8375   23.3470 O   0  0  0  0  0  0  0  0  0  0  0  0
  -20.8649  -30.2529   20.9272 O   0  0  0  0  0  0  0  0  0  0  0  0
  -22.2825  -27.4104   17.4014 O   0  0  0  0  0  0  0  0  0  0  0  0
  -27.8503  -22.9282   22.7640 O   0  0  0  0  0  0  0  0  0  0  0  0
  -33.2792  -25.2666   16.9222 O   0  0  0  0  0  0  0  0  0  0  0  0
  -25.1402  -11.1815   20.4419 O   0  0  0  0  0  0  0  0  0  0  0  0
  -28.6550  -27.1136   19.7793 O   0  0  0  0  0  0  0  0  0  1  0  0
  -21.6105   -7.2136   21.9257 F   0  0  0  0  0  0  0  0  0  0  0  0
  -22.9536  -10.5663   18.8662 F   0  0  0  0  0  0  0  0  0  0  0  0
  1  2  1  0  0  0  0
  1  5  2  0  0  0  0
  2  6  2  0  0  0  0
  3  8  2  0  0  0  0
  3 18  1  0  0  0  0
  4  9  1  0  0  0  0
  4 18  2  0  0  0  0
  5 20  1  0  0  0  0
  6 22  1  0  0  0  0
  7 10  2  0  0  0  0
  7 21  1  0  0  0  0
  8 27  1  0  0  0  0
  9 27  2  0  0  0  0
 10 28  1  0  0  0  0
 11 12  2  0  0  0  0
 11 29  1  0  0  0  0
 12 30  1  0  0  0  0
 13 23  1  0  0  0  0
 13 28  2  0  0  0  0
 14 24  1  0  0  0  0
 14 25  2  0  0  0  0
 15 24  2  0  0  0  0
 15 26  1  0  0  0  0
 16 25  1  0  0  0  0
 16 26  2  0  0  0  0
 17 30  2  0  0  0  0
 17 31  1  0  0  0  0
 18 32  1  0  0  0  0
 19 32  1  0  0  0  0
 19 33  2  0  0  0  0
 19 39  1  0  0  0  0
 20 22  2  0  0  0  0
 20 44  1  0  0  0  0
 21 23  2  0  0  0  0
 21 45  1  0  0  0  0
 22 53  1  0  0  0  0
 23 46  1  0  0  0  0
 24 67  1  0  0  0  0
 25 70  1  0  0  0  0
 26 73  1  0  0  0  0
 27 84  1  0  0  0  0
 28 85  1  0  0  0  0
 29 31  2  0  0  0  0
 29 84  1  0  0  0  0
 30 86  1  0  0  0  0
 31 87  1  0  0  0  0
 32 65  2  0  0  0  0
 33 66  1  0  0  0  0
 33 71  1  0  0  0  0
 34 36  2  0  0  0  0
 34 37  1  0  0  0  0
 35 37  2  0  0  0  0
 35 67  1  0  0  0  0
 36 38  1  0  0  0  0
 36 61  1  0  0  0  0
 37 83  1  0  0  0  0
 38 67  1  0  0  0  0
 38 77  2  0  0  0  0
 39 72  1  0  0  0  0
 39 78  2  0  0  0  0
 40 54  1  0  0  0  0
 40 74  1  0  0  0  0
 40 79  2  0  0  0  0
 41 62  1  0  0  0  0
 41 68  1  0  0  0  0
 41 80  2  0  0  0  0
 42 63  1  0  0  0  0
 42 75  1  0  0  0  0
 42 81  2  0  0  0  0
 43 69  1  0  0  0  0
 43 73  1  0  0  0  0
 43 82  2  0  0  0  0
 44 47  1  0  0  0  0
 45 54  1  0  0  0  0
 46 68  1  0  0  0  0
 47 49  1  0  0  0  0
 48 50  1  0  0  0  0
 48 51  1  0  0  0  0
 49 53  1  0  0  0  0
 50 55  1  0  0  0  0
 51 69  1  0  0  0  0
 52 55  1  0  0  0  0
 52 69  1  0  0  0  0
 53 74  1  0  0  0  0
 54 68  1  0  0  0  0
 55 66  1  0  0  0  0
 56 63  1  0  0  0  0
 57 64  1  0  0  0  0
 58 64  1  0  0  0  0
 59 64  1  0  0  0  0
 60 76  1  0  0  0  0
 61 85  1  0  0  0  0
 62 64  1  0  0  0  0
 62 75  1  0  0  0  0
 63 76  1  0  0  0  0
 65 66  1  0  0  0  0
M  CHG  1  76   1
M  ISO  4  43 100  61 101  73 100  85 101
M  END
> <Batch ID>
0085

> <Smiles>
CNC(C)C(=O)NC(C(=O)N1Cc2cc([101O:1][101CH2:1]C3=CC(=O)CN(c4cc(N)cc([100NH:0][100C:0](=O)N5CCCC(n6nc(-c7ccc(Oc8ccc(F)cc8F)cc7)c(C(N)=O)c6N)C5)c4)C3=O)ccc2CC1C(=O)NC1CCCc2ccccc21)C(C)(C)C

> <Shape>
0.232

> <Color>
0.077

> <Negative vol penalty>
0.000

$$$$

  -OEChem-04052300153D

 87 96  0     1  0  0  0  0  0999 V2000
  -23.0425  -36.4878   20.9332 C   0  0  0  0  0  0  0  0  0  0  0  0
  -24.0720  -35.5670   20.7666 C   0  0  0  0  0  0  0  0  0  0  0  0
  -22.7919  -10.0449   20.1697 C   0  0  0  0  0  0  0  0  0  0  0  0
  -24.5978   -8.9797   21.3704 C   0  0  0  0  0  0  0  0  0  0  0  0
  -21.9194  -36.1474   21.6860 C   0  0  0  0  0  0  0  0  0  0  0  0
  -23.9794  -34.3056   21.3536 C   0  0  0  0  0  0  0  0  0  0  0  0
  -26.0957  -29.0252   19.0854 C   0  0  0  0  0  0  0  0  0  0  0  0
  -28.9382  -20.0346   20.4302 C   0  0  0  0  0  0  0  0  0  0  0  0
  -28.8326  -18.6518   20.2806 C   0  0  0  0  0  0  0  0  0  0  0  0
  -21.8771   -9.5282   21.0872 C   0  0  0  0  0  0  0  0  0  0  0  0
  -23.6829   -8.4631   22.2879 C   0  0  0  0  0  0  0  0  0  0  0  0
  -27.2578  -28.2963   19.3341 C   0  0  0  0  0  0  0  0  0  0  0  0
  -21.4774   -5.9049   22.4358 C   0  0  0  0  0  0  0  0  0  0  0  0
  -21.6116   -4.5653   22.8005 C   0  0  0  0  0  0  0  0  0  0  0  0
  -26.0532  -26.9256   20.9119 C   0  0  0  0  0  0  0  0  0  0  0  0
  -31.3393  -19.8745   20.2160 C   0  0  0  0  0  0  0  0  0  0  0  0
  -21.9198   -5.2235   25.1046 C   0  0  0  0  0  0  0  0  0  0  0  0
  -24.1523   -9.7706   20.3113 C   0  0  0  0  0  0  0  0  0  0  0  0
  -25.1332  -10.0706   17.9756 C   0  0  0  0  0  0  0  0  0  0  0  0
  -21.8087  -34.8777   22.2744 C   0  0  0  0  0  0  0  0  0  0  0  0
  -24.9043  -28.7163   19.7573 C   0  0  0  0  0  0  0  0  0  0  0  0
  -22.8544  -33.9483   22.1161 C   0  0  0  0  0  0  0  0  0  0  0  0
  -24.8767  -27.6505   20.6680 C   0  0  0  0  0  0  0  0  0  0  0  0
  -30.1915  -20.6460   20.3979 C   0  0  0  0  0  0  0  0  0  0  0  0
  -29.9804  -17.8804   20.0987 C   0  0  0  0  0  0  0  0  0  0  0  0
  -22.3226   -8.7374   22.1463 C   0  0  0  0  0  0  0  0  0  0  0  0
  -27.2374  -27.2482   20.2496 C   0  0  0  0  0  0  0  0  0  0  0  0
  -21.5645   -6.9038   23.4055 C   0  0  0  0  0  0  0  0  0  0  0  0
  -21.8328   -4.2245   24.1349 C   0  0  0  0  0  0  0  0  0  0  0  0
  -31.2338  -18.4917   20.0664 C   0  0  0  0  0  0  0  0  0  0  0  0
  -21.7857   -6.5631   24.7399 C   0  0  0  0  0  0  0  0  0  0  0  0
  -25.0977  -10.3035   19.3635 C   0  0  0  0  0  0  0  0  0  0  0  0
  -26.2111  -10.7977   17.5329 C   0  0  0  0  0  0  0  0  0  0  0  0
  -29.4123  -24.3927   20.4444 C   0  0  0  0  0  0  0  0  0  0  0  0
  -29.2588  -22.9292   20.1220 C   0  0  0  0  0  0  0  0  0  0  0  0
  -31.4019  -23.8716   21.7881 C   0  0  0  0  0  0  0  0  0  0  0  0
  -31.8121  -24.0390   23.0532 C   0  0  0  0  0  0  0  0  0  0  0  0
  -28.3537  -25.1928   20.2403 C   0  0  0  0  0  0  0  0  0  1  0  0
  -24.2691   -9.2687   17.1595 C   0  0  0  0  0  0  0  0  0  0  0  0
  -22.9919  -30.2728   21.7633 C   0  0  0  0  0  0  0  0  0  0  0  0
  -21.1239  -27.6450   21.4062 C   0  0  0  0  0  0  0  0  0  0  0  0
  -20.9054  -24.3302   20.6242 C   0  0  0  0  0  0  0  0  0  0  0  0
  -28.7050  -15.7039   19.9548 C   0  0  0  0  0  0  0  0  0  0  0  0
  -20.5968  -34.5721   23.1187 C   0  0  0  0  0  0  0  0  0  0  0  0
  -23.6527  -29.4951   19.4580 C   0  0  0  0  0  0  0  0  0  0  0  0
  -23.6182  -27.2657   21.4005 C   0  0  0  0  0  0  0  0  0  0  0  0
  -30.6915  -24.9282   21.0088 C   0  0  0  0  0  0  0  0  0  0  0  0
  -31.6011  -22.6052   21.0176 C   0  0  0  0  0  0  0  0  0  0  0  0
  -20.4071  -33.0829   23.3954 C   0  0  0  0  0  0  0  0  0  0  0  0
  -30.2629  -12.2019   19.7747 C   0  0  0  0  0  0  0  0  0  0  0  0
  -21.7258  -32.4475   23.8247 C   0  0  0  0  0  0  0  0  0  0  0  0
  -29.2565  -11.5241   18.8478 C   0  0  0  0  0  0  0  0  0  0  0  0
  -30.2660  -13.7169   19.6148 C   0  0  0  0  0  0  0  0  0  0  0  0
  -27.7910  -13.3971   19.7830 C   0  0  0  0  0  0  0  0  0  0  0  0
  -22.7795  -32.5612   22.7165 C   0  0  1  0  0  0  0  0  0  0  0  0
  -22.6218  -29.4236   20.5802 C   0  0  1  0  0  0  0  0  0  0  0  0
  -27.9424  -12.3165   18.7009 C   0  0  2  0  0  0  0  0  0  0  0  0
  -19.2515  -22.4501   20.4588 C   0  0  0  0  0  0  0  0  0  0  0  0
  -21.0955  -27.4057   24.4479 C   0  0  0  0  0  0  0  0  0  0  0  0
  -20.2715  -25.0561   24.1858 C   0  0  0  0  0  0  0  0  0  0  0  0
  -18.8953  -26.9596   23.3457 C   0  0  0  0  0  0  0  0  0  0  0  0
  -21.4313  -23.9674   17.7344 C   0  0  0  0  0  0  0  0  0  0  0  0
  -21.0044  -26.3146   22.1097 C   0  0  1  0  0  0  0  0  0  0  0  0
  -19.9587  -23.5707   19.7124 C   0  0  2  0  0  0  0  0  0  0  0  0
  -20.3410  -26.4423   23.5101 C   0  0  0  0  0  0  0  0  0  0  0  0
  -26.0754  -11.1150   19.7753 N   0  0  0  0  0  0  0  0  0  0  0  0
  -26.7354  -11.3983   18.6395 N   0  0  0  0  0  0  0  0  0  0  0  0
  -30.3013  -22.0806   20.5537 N   0  0  0  0  0  0  0  0  0  0  0  0
  -22.4220  -28.0612   21.0783 N   0  0  0  0  0  0  0  0  0  0  0  0
  -28.9340  -14.3174   19.7779 N   0  0  0  0  0  0  0  0  0  0  0  0
  -26.7521  -10.9754   16.3089 N   0  0  0  0  0  0  0  0  0  0  0  0
  -24.5983   -7.9209   16.9614 N   0  0  0  0  0  0  0  0  0  0  0  0
  -29.8700  -16.4755   19.9475 N   0  0  0  0  0  0  0  0  0  0  0  0
  -22.5370  -31.5752   21.6853 N   0  0  0  0  0  0  0  0  0  0  0  0
  -20.2961  -25.4295   21.1914 N   0  0  0  0  0  0  0  0  0  0  0  0
  -20.7068  -22.9750   18.5694 N   0  3  0  0  0  0  0  0  0  0  0  0
  -28.2649  -22.5578   19.4948 O   0  0  0  0  0  0  0  0  0  0  0  0
  -23.2445   -9.7378   16.6084 O   0  0  0  0  0  0  0  0  0  0  0  0
  -23.6409  -29.7822   22.6797 O   0  0  0  0  0  0  0  0  0  0  0  0
  -20.1026  -28.2877   21.1504 O   0  0  0  0  0  0  0  0  0  0  0  0
  -22.0679  -23.9811   20.8170 O   0  0  0  0  0  0  0  0  0  0  0  0
  -27.5677  -16.1609   20.0876 O   0  0  0  0  0  0  0  0  0  0  0  0
  -21.4303   -8.2333   23.0419 O   0  0  0  0  0  0  0  0  0  0  0  0
  -28.3705  -26.5354   20.4947 O   0  0  0  0  0  0  0  0  0  1  0  0
  -21.9601   -2.9380   24.4852 F   0  0  0  0  0  0  0  0  0  0  0  0
  -32.3440  -17.7601   19.8937 F   0  0  0  0  0  0  0  0  0  0  0  0
  -21.8691   -7.5183   25.6761 F   0  0  0  0  0  0  0  0  0  0  0  0
  1  2  1  0  0  0  0
  1  5  2  0  0  0  0
  2  6  2  0  0  0  0
  3 10  2  0  0  0  0
  3 18  1  0  0  0  0
  4 11  1  0  0  0  0
  4 18  2  0  0  0  0
  5 20  1  0  0  0  0
  6 22  1  0  0  0  0
  7 12  2  0  0  0  0
  7 21  1  0  0  0  0
  8  9  2  0  0  0  0
  8 24  1  0  0  0  0
  9 25  1  0  0  0  0
 10 26  1  0  0  0  0
 11 26  2  0  0  0  0
 12 27  1  0  0  0  0
 13 14  2  0  0  0  0
 13 28  1  0  0  0  0
 14 29  1  0  0  0  0
 15 23  1  0  0  0  0
 15 27  2  0  0  0  0
 16 24  2  0  0  0  0
 16 30  1  0  0  0  0
 17 29  2  0  0  0  0
 17 31  1  0  0  0  0
 18 32  1  0  0  0  0
 19 32  1  0  0  0  0
 19 33  2  0  0  0  0
 19 39  1  0  0  0  0
 20 22  2  0  0  0  0
 20 44  1  0  0  0  0
 21 23  2  0  0  0  0
 21 45  1  0  0  0  0
 22 55  1  0  0  0  0
 23 46  1  0  0  0  0
 24 68  1  0  0  0  0
 25 30  2  0  0  0  0
 25 73  1  0  0  0  0
 26 83  1  0  0  0  0
 27 84  1  0  0  0  0
 28 31  2  0  0  0  0
 28 83  1  0  0  0  0
 29 85  1  0  0  0  0
 30 86  1  0  0  0  0
 31 87  1  0  0  0  0
 32 66  2  0  0  0  0
 33 67  1  0  0  0  0
 33 71  1  0  0  0  0
 34 35  1  0  0  0  0
 34 38  2  0  0  0  0
 34 47  1  0  0  0  0
 35 68  1  0  0  0  0
 35 77  2  0  0  0  0
 36 37  2  0  0  0  0
 36 47  1  0  0  0  0
 36 48  1  0  0  0  0
 38 84  1  0  0  0  0
 39 72  1  0  0  0  0
 39 78  2  0  0  0  0
 40 56  1  0  0  0  0
 40 74  1  0  0  0  0
 40 79  2  0  0  0  0
 41 63  1  0  0  0  0
 41 69  1  0  0  0  0
 41 80  2  0  0  0  0
 42 64  1  0  0  0  0
 42 75  1  0  0  0  0
 42 81  2  0  0  0  0
 43 70  1  0  0  0  0
 43 73  1  0  0  0  0
 43 82  2  0  0  0  0
 44 49  1  0  0  0  0
 45 56  1  0  0  0  0
 46 69  1  0  0  0  0
 48 68  1  0  0  0  0
 49 51  1  0  0  0  0
 50 52  1  0  0  0  0
 50 53  1  0  0  0  0
 51 55  1  0  0  0  0
 52 57  1  0  0  0  0
 53 70  1  0  0  0  0
 54 57  1  0  0  0  0
 54 70  1  0  0  0  0
 55 74  1  0  0  0  0
 56 69  1  0  0  0  0
 57 67  1  0  0  0  0
 58 64  1  0  0  0  0
 59 65  1  0  0  0  0
 60 65  1  0  0  0  0
 61 65  1  0  0  0  0
 62 76  1  0  0  0  0
 63 65  1  0  0  0  0
 63 75  1  0  0  0  0
 64 76  1  0  0  0  0
 66 67  1  0  0  0  0
M  CHG  1  76   1
M  ISO  4  38 101  43 100  73 100  84 101
M  END
> <Batch ID>
0085

> <Smiles>
C=C1CC(=[101CH:1][101O:1]c2ccc3c(c2)CN(C(=O)C(NC(=O)C(C)NC)C(C)(C)C)C(C(=O)NC2CCCc4ccccc42)C3)C(=O)N(c2ccc([100NH:0][100C:0](=O)N3CCCC(n4nc(-c5ccc(Oc6ccc(F)cc6F)cc5)c(C(N)=O)c4N)C3)c(F)c2)C1

> <Shape>
0.286

> <Color>
0.108

> <Negative vol penalty>
0.000

$$$$

  -OEChem-04052300153D

 84 93  0     1  0  0  0  0  0999 V2000
  -30.0714  -33.9049   25.3942 C   0  0  0  0  0  0  0  0  0  0  0  0
  -30.0414  -32.6906   24.7161 C   0  0  0  0  0  0  0  0  0  0  0  0
  -24.6617   -9.2278   21.9601 C   0  0  0  0  0  0  0  0  0  0  0  0
  -23.2817  -10.0402   20.1510 C   0  0  0  0  0  0  0  0  0  0  0  0
  -28.9065  -34.4088   25.9713 C   0  0  0  0  0  0  0  0  0  0  0  0
  -28.8466  -31.9788   24.6156 C   0  0  0  0  0  0  0  0  0  0  0  0
  -26.9879  -28.5540   19.8910 C   0  0  0  0  0  0  0  0  0  0  0  0
  -23.5439   -8.6344   22.5464 C   0  0  0  0  0  0  0  0  0  0  0  0
  -22.1638   -9.4467   20.7373 C   0  0  0  0  0  0  0  0  0  0  0  0
  -27.0243  -27.1801   19.6567 C   0  0  0  0  0  0  0  0  0  0  0  0
  -21.6890   -5.8414   22.1088 C   0  0  0  0  0  0  0  0  0  0  0  0
  -21.8225   -4.5374   22.5857 C   0  0  0  0  0  0  0  0  0  0  0  0
  -24.7549  -26.9904   20.4523 C   0  0  0  0  0  0  0  0  0  0  0  0
  -23.7901  -19.6211   16.6258 C   0  0  0  0  0  0  0  0  0  0  0  0
  -25.5530  -19.0225   18.1654 C   0  0  0  0  0  0  0  0  0  0  0  0
  -24.5438  -17.3301   16.7675 C   0  0  0  0  0  0  0  0  0  0  0  0
  -21.2515   -5.2920   24.8087 C   0  0  0  0  0  0  0  0  0  0  0  0
  -24.5307   -9.9308   20.7624 C   0  0  0  0  0  0  0  0  0  0  0  0
  -26.5654   -9.9639   19.2240 C   0  0  0  0  0  0  0  0  0  0  0  0
  -27.6947  -33.7075   25.8695 C   0  0  0  0  0  0  0  0  0  0  0  0
  -25.8365  -29.1557   20.4188 C   0  0  0  0  0  0  0  0  0  0  0  0
  -27.6646  -32.4730   25.1930 C   0  0  0  0  0  0  0  0  0  0  0  0
  -24.7055  -28.3725   20.6899 C   0  0  0  0  0  0  0  0  0  0  0  0
  -24.7141  -19.9857   17.6050 C   0  0  0  0  0  0  0  0  0  0  0  0
  -23.7049  -18.2933   16.2071 C   0  0  0  0  0  0  0  0  0  0  0  0
  -25.4679  -17.6947   17.7467 C   0  0  0  0  0  0  0  0  0  0  0  0
  -22.2949   -8.7438   21.9350 C   0  0  0  0  0  0  0  0  0  0  0  0
  -25.9087  -26.3976   19.9401 C   0  0  0  0  0  0  0  0  0  0  0  0
  -21.3368   -6.8707   22.9819 C   0  0  0  0  0  0  0  0  0  0  0  0
  -21.6038   -4.2627   23.9356 C   0  0  0  0  0  0  0  0  0  0  0  0
  -21.1181   -6.5960   24.3318 C   0  0  0  0  0  0  0  0  0  0  0  0
  -25.6850  -10.5445   20.1566 C   0  0  0  0  0  0  0  0  0  0  0  0
  -27.4865  -10.9485   18.9624 C   0  0  0  0  0  0  0  0  0  0  0  0
  -24.9760  -23.2196   18.5355 C   0  0  0  0  0  0  0  0  0  0  0  0
  -24.1273  -22.4158   17.6551 C   0  0  0  0  0  0  0  0  0  0  0  0
  -25.0355  -24.5296   18.8360 C   0  0  0  0  0  0  0  0  0  1  0  0
  -26.5517   -8.6519   18.6460 C   0  0  0  0  0  0  0  0  0  0  0  0
  -25.1637  -30.7650   23.0761 C   0  0  0  0  0  0  0  0  0  0  0  0
  -22.2910  -31.1860   21.6295 C   0  0  0  0  0  0  0  0  0  0  0  0
  -20.0082  -30.0827   19.3451 C   0  0  0  0  0  0  0  0  0  0  0  0
  -27.2940  -16.9115   19.2953 C   0  0  0  0  0  0  0  0  0  0  0  0
  -26.4715  -34.2690   26.5502 C   0  0  0  0  0  0  0  0  0  0  0  0
  -25.8040  -30.6431   20.6407 C   0  0  0  0  0  0  0  0  0  0  0  0
  -23.4379  -28.9730   21.2385 C   0  0  0  0  0  0  0  0  0  0  0  0
  -25.7159  -21.9609   18.9263 C   0  0  0  0  0  0  0  0  0  0  0  0
  -25.1660  -33.6354   26.0766 C   0  0  0  0  0  0  0  0  0  0  0  0
  -29.5727  -14.7571   20.9815 C   0  0  0  0  0  0  0  0  0  0  0  0
  -25.2952  -32.1161   26.0323 C   0  0  0  0  0  0  0  0  0  0  0  0
  -28.9174  -13.3785   20.8711 C   0  0  0  0  0  0  0  0  0  0  0  0
  -28.5372  -15.8635   21.1745 C   0  0  0  0  0  0  0  0  0  0  0  0
  -26.8042  -14.5073   20.0669 C   0  0  0  0  0  0  0  0  0  0  0  0
  -26.3825  -31.6836   25.0412 C   0  0  1  0  0  0  0  0  0  0  0  0
  -24.7559  -31.0719   21.6629 C   0  0  1  0  0  0  0  0  0  0  0  0
  -27.8029  -13.3679   19.8066 C   0  0  2  0  0  0  0  0  0  0  0  0
  -17.7390  -30.6126   18.4139 C   0  0  0  0  0  0  0  0  0  0  0  0
  -20.9958  -30.0674   24.1555 C   0  0  0  0  0  0  0  0  0  0  0  0
  -18.8897  -29.7330   22.8437 C   0  0  0  0  0  0  0  0  0  0  0  0
  -19.8105  -32.0301   23.1568 C   0  0  0  0  0  0  0  0  0  0  0  0
  -21.0889  -30.4624   16.6162 C   0  0  0  0  0  0  0  0  0  0  0  0
  -20.9878  -30.4246   21.5985 C   0  0  1  0  0  0  0  0  0  0  0  0
  -19.2387  -30.8105   18.2577 C   0  0  2  0  0  0  0  0  0  0  0  0
  -20.1954  -30.5518   22.9301 C   0  0  0  0  0  0  0  0  0  0  0  0
  -26.0171  -11.8005   20.4666 N   0  0  0  0  0  0  0  0  0  0  0  0
  -27.1165  -12.0173   19.7247 N   0  0  0  0  0  0  0  0  0  0  0  0
  -24.7994  -21.2952   18.0176 N   0  0  0  0  0  0  0  0  0  0  0  0
  -23.4577  -30.4307   21.4443 N   0  0  0  0  0  0  0  0  0  0  0  0
  -27.5156  -15.7938   20.1273 N   0  0  0  0  0  0  0  0  0  0  0  0
  -22.7708  -17.9240   15.2170 N   0  0  0  0  0  0  0  0  0  0  0  0
  -28.5689  -10.9957   18.1570 N   0  0  0  0  0  0  0  0  0  0  0  0
  -25.5344   -7.7654   19.0249 N   0  0  0  0  0  0  0  0  0  0  0  0
  -26.3214  -16.7169   18.3151 N   0  0  0  0  0  0  0  0  0  0  0  0
  -25.8916  -31.7709   23.6826 N   0  0  0  0  0  0  0  0  0  0  0  0
  -20.2644  -30.9012   20.4247 N   0  0  0  0  0  0  0  0  0  0  0  0
  -19.6415  -30.3085   16.9135 N   0  3  0  0  0  0  0  0  0  0  0  0
  -23.2080  -22.6497   16.8984 O   0  0  0  0  0  0  0  0  0  0  0  0
  -27.4254   -8.2713   17.8303 O   0  0  0  0  0  0  0  0  0  0  0  0
  -24.8407  -29.6955   23.5795 O   0  0  0  0  0  0  0  0  0  0  0  0
  -22.2740  -32.4070   21.8041 O   0  0  0  0  0  0  0  0  0  0  0  0
  -20.3449  -28.9046   19.2482 O   0  0  0  0  0  0  0  0  0  0  0  0
  -27.9401  -17.9546   19.4241 O   0  0  0  0  0  0  0  0  0  0  0  0
  -21.2039   -8.1646   22.5067 O   0  0  0  0  0  0  0  0  0  0  0  0
  -25.9418  -25.0563   19.7130 O   0  0  0  0  0  0  0  0  0  1  0  0
  -21.7305   -3.0102   24.3932 F   0  0  0  0  0  0  0  0  0  0  0  0
  -20.7784   -7.5805   25.1751 F   0  0  0  0  0  0  0  0  0  0  0  0
  1  2  1  0  0  0  0
  1  5  2  0  0  0  0
  2  6  2  0  0  0  0
  3  8  2  0  0  0  0
  3 18  1  0  0  0  0
  4  9  1  0  0  0  0
  4 18  2  0  0  0  0
  5 20  1  0  0  0  0
  6 22  1  0  0  0  0
  7 10  2  0  0  0  0
  7 21  1  0  0  0  0
  8 27  1  0  0  0  0
  9 27  2  0  0  0  0
 10 28  1  0  0  0  0
 11 12  2  0  0  0  0
 11 29  1  0  0  0  0
 12 30  1  0  0  0  0
 13 23  1  0  0  0  0
 13 28  2  0  0  0  0
 14 24  1  0  0  0  0
 14 25  2  0  0  0  0
 15 24  2  0  0  0  0
 15 26  1  0  0  0  0
 16 25  1  0  0  0  0
 16 26  2  0  0  0  0
 17 30  2  0  0  0  0
 17 31  1  0  0  0  0
 18 32  1  0  0  0  0
 19 32  1  0  0  0  0
 19 33  2  0  0  0  0
 19 37  1  0  0  0  0
 20 22  2  0  0  0  0
 20 42  1  0  0  0  0
 21 23  2  0  0  0  0
 21 43  1  0  0  0  0
 22 52  1  0  0  0  0
 23 44  1  0  0  0  0
 24 65  1  0  0  0  0
 25 68  1  0  0  0  0
 26 71  1  0  0  0  0
 27 81  1  0  0  0  0
 28 82  1  0  0  0  0
 29 31  2  0  0  0  0
 29 81  1  0  0  0  0
 30 83  1  0  0  0  0
 31 84  1  0  0  0  0
 32 63  2  0  0  0  0
 33 64  1  0  0  0  0
 33 69  1  0  0  0  0
 34 35  1  0  0  0  0
 34 36  2  0  0  0  0
 34 45  1  0  0  0  0
 35 65  1  0  0  0  0
 35 75  2  0  0  0  0
 36 82  1  0  0  0  0
 37 70  1  0  0  0  0
 37 76  2  0  0  0  0
 38 53  1  0  0  0  0
 38 72  1  0  0  0  0
 38 77  2  0  0  0  0
 39 60  1  0  0  0  0
 39 66  1  0  0  0  0
 39 78  2  0  0  0  0
 40 61  1  0  0  0  0
 40 73  1  0  0  0  0
 40 79  2  0  0  0  0
 41 67  1  0  0  0  0
 41 71  1  0  0  0  0
 41 80  2  0  0  0  0
 42 46  1  0  0  0  0
 43 53  1  0  0  0  0
 44 66  1  0  0  0  0
 45 65  1  0  0  0  0
 46 48  1  0  0  0  0
 47 49  1  0  0  0  0
 47 50  1  0  0  0  0
 48 52  1  0  0  0  0
 49 54  1  0  0  0  0
 50 67  1  0  0  0  0
 51 54  1  0  0  0  0
 51 67  1  0  0  0  0
 52 72  1  0  0  0  0
 53 66  1  0  0  0  0
 54 64  1  0  0  0  0
 55 61  1  0  0  0  0
 56 62  1  0  0  0  0
 57 62  1  0  0  0  0
 58 62  1  0  0  0  0
 59 74  1  0  0  0  0
 60 62  1  0  0  0  0
 60 73  1  0  0  0  0
 61 74  1  0  0  0  0
 63 64  1  0  0  0  0
M  CHG  1  74   1
M  ISO  4  36 101  41 100  71 100  82 101
M  END
> <Batch ID>
0085

> <Smiles>
CNC(C)C(=O)NC(C(=O)N1Cc2cc([101O:1][101CH:1]=C3CN(c4cc(N)cc([100NH:0][100C:0](=O)N5CCCC(n6nc(-c7ccc(Oc8ccc(F)cc8F)cc7)c(C(N)=O)c6N)C5)c4)C3=O)ccc2CC1C(=O)NC1CCCc2ccccc21)C(C)(C)C

> <Shape>
0.267

> <Color>
0.084

> <Negative vol penalty>
0.000

$$$$

  -OEChem-04052300153D

 84 92  0     1  0  0  0  0  0999 V2000
  -28.4102  -38.0831   16.0935 C   0  0  0  0  0  0  0  0  0  0  0  0
  -28.7332  -36.7301   16.0724 C   0  0  0  0  0  0  0  0  0  0  0  0
  -24.1681   -9.2903   22.5367 C   0  0  0  0  0  0  0  0  0  0  0  0
  -24.2678   -9.0958   20.1306 C   0  0  0  0  0  0  0  0  0  0  0  0
  -29.3231  -20.5759   18.8563 C   0  0  0  0  0  0  0  0  0  0  0  0
  -27.9824  -38.6782   17.2796 C   0  0  0  0  0  0  0  0  0  0  0  0
  -28.6297  -35.9716   17.2379 C   0  0  0  0  0  0  0  0  0  0  0  0
  -26.9826  -30.0887   17.6672 C   0  0  0  0  0  0  0  0  0  0  0  0
  -29.1663  -21.9600   18.7845 C   0  0  0  0  0  0  0  0  0  0  0  0
  -23.0753   -8.4238   22.5615 C   0  0  0  0  0  0  0  0  0  0  0  0
  -23.1751   -8.2292   20.1554 C   0  0  0  0  0  0  0  0  0  0  0  0
  -27.7232  -28.9138   17.7903 C   0  0  0  0  0  0  0  0  0  0  0  0
  -22.5327   -5.0926   22.3585 C   0  0  0  0  0  0  0  0  0  0  0  0
  -22.5313   -4.0782   23.3158 C   0  0  0  0  0  0  0  0  0  0  0  0
  -29.0486  -20.4204   16.4610 C   0  0  0  0  0  0  0  0  0  0  0  0
  -27.4246  -28.9835   20.1831 C   0  0  0  0  0  0  0  0  0  0  0  0
  -20.4852   -4.9614   24.2488 C   0  0  0  0  0  0  0  0  0  0  0  0
  -24.7643   -9.6263   21.3213 C   0  0  0  0  0  0  0  0  0  0  0  0
  -29.2643  -19.8061   17.6946 C   0  0  0  0  0  0  0  0  0  0  0  0
  -27.2548  -10.1758   21.3792 C   0  0  0  0  0  0  0  0  0  0  0  0
  -27.8644  -37.9243   18.4579 C   0  0  0  0  0  0  0  0  0  0  0  0
  -26.4659  -30.7267   18.8040 C   0  0  0  0  0  0  0  0  0  0  0  0
  -28.2012  -36.5574   18.4412 C   0  0  0  0  0  0  0  0  0  0  0  0
  -26.6757  -30.1649   20.0715 C   0  0  0  0  0  0  0  0  0  0  0  0
  -28.9506  -22.5744   17.5509 C   0  0  0  0  0  0  0  0  0  0  0  0
  -28.8917  -21.8046   16.3891 C   0  0  0  0  0  0  0  0  0  0  0  0
  -22.5788   -7.8933   21.3709 C   0  0  0  0  0  0  0  0  0  0  0  0
  -27.9467  -28.3626   19.0486 C   0  0  0  0  0  0  0  0  0  0  0  0
  -21.5103   -6.0415   22.3463 C   0  0  0  0  0  0  0  0  0  0  0  0
  -21.5076   -4.0125   24.2610 C   0  0  0  0  0  0  0  0  0  0  0  0
  -20.4866   -5.9758   23.2914 C   0  0  0  0  0  0  0  0  0  0  0  0
  -25.8928  -10.5218   21.2950 C   0  0  0  0  0  0  0  0  0  0  0  0
  -27.9190  -11.3759   21.3088 C   0  0  0  0  0  0  0  0  0  0  0  0
  -29.4304  -18.3396   17.7716 C   0  0  0  0  0  0  0  0  0  0  0  0
  -27.8650   -8.8849   21.5093 C   0  0  0  0  0  0  0  0  0  0  0  0
  -26.8858  -33.5671   20.1677 C   0  0  0  0  0  0  0  0  0  0  0  0
  -24.4922  -32.5545   22.1088 C   0  0  0  0  0  0  0  0  0  0  0  0
  -28.8281  -24.8728   18.5689 C   0  0  0  0  0  0  0  0  0  0  0  0
  -22.7718  -29.9369   23.4635 C   0  0  0  0  0  0  0  0  0  0  0  0
  -28.5558  -16.2110   18.7102 C   0  0  0  0  0  0  0  0  0  0  0  0
  -27.4430  -38.6221   19.7269 C   0  0  0  0  0  0  0  0  0  0  0  0
  -25.6464  -31.9788   18.6520 C   0  0  0  0  0  0  0  0  0  0  0  0
  -26.1253  -30.7999   21.3214 C   0  0  0  0  0  0  0  0  0  0  0  0
  -27.0016  -37.6645   20.8307 C   0  0  0  0  0  0  0  0  0  0  0  0
  -26.2397  -16.1124   21.6057 C   0  0  0  0  0  0  0  0  0  0  0  0
  -27.9967  -36.5170   20.9715 C   0  0  0  0  0  0  0  0  0  0  0  0
  -26.0018  -14.6115   21.7296 C   0  0  0  0  0  0  0  0  0  0  0  0
  -26.4804  -16.5416   20.1590 C   0  0  0  0  0  0  0  0  0  0  0  0
  -27.3417  -14.2737   19.6199 C   0  0  0  0  0  0  0  0  0  0  0  0
  -28.0780  -35.6956   19.6791 C   0  0  1  0  0  0  0  0  0  0  0  0
  -25.6038  -32.8229   19.9221 C   0  0  1  0  0  0  0  0  0  0  0  0
  -27.1522  -13.8310   21.0779 C   0  0  2  0  0  0  0  0  0  0  0  0
  -20.8922  -29.4223   25.0446 C   0  0  0  0  0  0  0  0  0  0  0  0
  -26.3128  -33.1858   24.4747 C   0  0  0  0  0  0  0  0  0  0  0  0
  -24.8056  -31.7992   25.9149 C   0  0  0  0  0  0  0  0  0  0  0  0
  -23.9214  -33.8446   24.7936 C   0  0  0  0  0  0  0  0  0  0  0  0
  -21.2031  -28.5924   21.3444 C   0  0  0  0  0  0  0  0  0  0  0  0
  -28.6162  -26.2947   18.0835 C   0  0  0  0  0  0  0  0  0  1  0  0
  -24.4208  -31.7895   23.4083 C   0  0  1  0  0  0  0  0  0  0  0  0
  -21.2832  -29.6707   23.5960 C   0  0  2  0  0  0  0  0  0  0  0  0
  -24.8773  -32.6436   24.6247 C   0  0  0  0  0  0  0  0  0  0  0  0
  -25.7016  -11.8387   21.1801 N   0  0  0  0  0  0  0  0  0  0  0  0
  -26.9522  -12.3307   21.1917 N   0  0  0  0  0  0  0  0  0  0  0  0
  -25.3359  -32.0265   21.1213 N   0  0  0  0  0  0  0  0  0  0  0  0
  -27.5131  -15.7260   19.5052 N   0  0  0  0  0  0  0  0  0  0  0  0
  -28.6732  -22.4064   15.1294 N   0  0  0  0  0  0  0  0  0  0  0  0
  -29.2299  -11.6971   21.3365 N   0  0  0  0  0  0  0  0  0  0  0  0
  -27.0356   -7.7565   21.5669 N   0  0  0  0  0  0  0  0  0  0  0  0
  -28.7939  -23.9800   17.5032 N   0  0  0  0  0  0  0  0  0  0  0  0
  -28.5552  -17.6449   18.5150 N   0  0  0  0  0  0  0  0  0  0  0  0
  -26.9374  -34.8116   19.5695 N   0  0  0  0  0  0  0  0  0  0  0  0
  -23.0556  -31.2854   23.5107 N   0  0  0  0  0  0  0  0  0  0  0  0
  -30.4461  -17.7978   17.0999 N   0  3  0  0  0  0  0  0  0  0  0  0
  -20.8972  -28.4757   22.7935 N   0  3  0  0  0  0  0  0  0  0  0  0
  -29.1082   -8.7377   21.5891 O   0  0  0  0  0  0  0  0  0  0  0  0
  -27.7626  -33.0510   20.8507 O   0  0  0  0  0  0  0  0  0  0  0  0
  -23.8186  -33.5789   21.9723 O   0  0  0  0  0  0  0  0  0  0  0  0
  -29.0001  -24.6182   19.7564 O   0  0  0  0  0  0  0  0  0  0  0  0
  -23.6003  -29.0383   23.3349 O   0  0  0  0  0  0  0  0  0  0  0  0
  -29.4159  -15.5267   18.1662 O   0  0  0  0  0  0  0  0  0  0  0  0
  -21.5127   -7.0475   21.3947 O   0  0  0  0  0  0  0  0  0  0  0  0
  -28.6698  -27.2164   19.1716 O   0  0  0  0  0  0  0  0  0  1  0  0
  -21.5056   -3.0374   25.1793 F   0  0  0  0  0  0  0  0  0  0  0  0
  -19.5011   -6.8839   23.2840 F   0  0  0  0  0  0  0  0  0  0  0  0
  1  2  1  0  0  0  0
  1  6  2  0  0  0  0
  2  7  2  0  0  0  0
  3 10  2  0  0  0  0
  3 18  1  0  0  0  0
  4 11  1  0  0  0  0
  4 18  2  0  0  0  0
  5  9  2  0  0  0  0
  5 19  1  0  0  0  0
  6 21  1  0  0  0  0
  7 23  1  0  0  0  0
  8 12  2  0  0  0  0
  8 22  1  0  0  0  0
  9 25  1  0  0  0  0
 10 27  1  0  0  0  0
 11 27  2  0  0  0  0
 12 28  1  0  0  0  0
 13 14  2  0  0  0  0
 13 29  1  0  0  0  0
 14 30  1  0  0  0  0
 15 19  2  0  0  0  0
 15 26  1  0  0  0  0
 16 24  1  0  0  0  0
 16 28  2  0  0  0  0
 17 30  2  0  0  0  0
 17 31  1  0  0  0  0
 18 32  1  0  0  0  0
 19 34  1  0  0  0  0
 20 32  1  0  0  0  0
 20 33  2  0  0  0  0
 20 35  1  0  0  0  0
 21 23  2  0  0  0  0
 21 41  1  0  0  0  0
 22 24  2  0  0  0  0
 22 42  1  0  0  0  0
 23 50  1  0  0  0  0
 24 43  1  0  0  0  0
 25 26  2  0  0  0  0
 25 69  1  0  0  0  0
 26 66  1  0  0  0  0
 27 81  1  0  0  0  0
 28 82  1  0  0  0  0
 29 31  2  0  0  0  0
 29 81  1  0  0  0  0
 30 83  1  0  0  0  0
 31 84  1  0  0  0  0
 32 62  2  0  0  0  0
 33 63  1  0  0  0  0
 33 67  1  0  0  0  0
 34 70  1  0  0  0  0
 34 73  2  0  0  0  0
 35 68  1  0  0  0  0
 35 75  2  0  0  0  0
 36 51  1  0  0  0  0
 36 71  1  0  0  0  0
 36 76  2  0  0  0  0
 37 59  1  0  0  0  0
 37 64  1  0  0  0  0
 37 77  2  0  0  0  0
 38 58  1  0  0  0  0
 38 69  1  0  0  0  0
 38 78  2  0  0  0  0
 39 60  1  0  0  0  0
 39 72  1  0  0  0  0
 39 79  2  0  0  0  0
 40 65  1  0  0  0  0
 40 70  1  0  0  0  0
 40 80  2  0  0  0  0
 41 44  1  0  0  0  0
 42 51  1  0  0  0  0
 43 64  1  0  0  0  0
 44 46  1  0  0  0  0
 45 47  1  0  0  0  0
 45 48  1  0  0  0  0
 46 50  1  0  0  0  0
 47 52  1  0  0  0  0
 48 65  1  0  0  0  0
 49 52  1  0  0  0  0
 49 65  1  0  0  0  0
 50 71  1  0  0  0  0
 51 64  1  0  0  0  0
 52 63  1  0  0  0  0
 53 60  1  0  0  0  0
 54 61  1  0  0  0  0
 55 61  1  0  0  0  0
 56 61  1  0  0  0  0
 57 74  1  0  0  0  0
 58 82  1  0  0  0  0
 59 61  1  0  0  0  0
 59 72  1  0  0  0  0
 60 74  1  0  0  0  0
 62 63  1  0  0  0  0
M  CHG  2  73   1  74   1
M  ISO  4  40 100  58 101  70 100  82 101
M  END
> <Batch ID>
0085

> <Smiles>
CNC(C)C(=O)NC(C(=O)N1Cc2cc([101O:1][101CH2:1]C(=O)Nc3ccc(C(=N)[100NH:0][100C:0](=O)N4CCCC(n5nc(-c6ccc(Oc7ccc(F)cc7F)cc6)c(C(N)=O)c5N)C4)cc3N)ccc2CC1C(=O)NC1CCCc2ccccc21)C(C)(C)C

> <Shape>
0.239

> <Color>
0.088

> <Negative vol penalty>
0.000

$$$$

  -OEChem-04052300153D

 92102  0     1  0  0  0  0  0999 V2000
  -31.7653  -35.2414   18.0284 C   0  0  0  0  0  0  0  0  0  0  0  0
  -32.6834  -34.1962   18.0248 C   0  0  0  0  0  0  0  0  0  0  0  0
  -22.9293   -9.9133   20.0174 C   0  0  0  0  0  0  0  0  0  0  0  0
  -23.6590   -9.9733   22.3198 C   0  0  0  0  0  0  0  0  0  0  0  0
  -30.6423  -35.1784   18.8524 C   0  0  0  0  0  0  0  0  0  0  0  0
  -32.4796  -33.0878   18.8460 C   0  0  0  0  0  0  0  0  0  0  0  0
  -33.9307  -27.2691   17.6039 C   0  0  0  0  0  0  0  0  0  0  0  0
  -22.1333   -8.8029   20.2986 C   0  0  0  0  0  0  0  0  0  0  0  0
  -22.8630   -8.8629   22.6010 C   0  0  0  0  0  0  0  0  0  0  0  0
  -35.0172  -26.4750   17.9683 C   0  0  0  0  0  0  0  0  0  0  0  0
  -23.0179   -5.5131   22.1700 C   0  0  0  0  0  0  0  0  0  0  0  0
  -23.5793   -4.4900   22.9339 C   0  0  0  0  0  0  0  0  0  0  0  0
  -34.7967  -22.2596   19.1060 C   0  0  0  0  0  0  0  0  0  0  0  0
  -35.2049  -20.9060   16.7043 C   0  0  0  0  0  0  0  0  0  0  0  0
  -33.7354  -25.5732   19.8021 C   0  0  0  0  0  0  0  0  0  0  0  0
  -30.8414  -19.6373   21.3101 C   0  0  0  0  0  0  0  0  0  0  0  0
  -31.3245  -17.4116   20.5040 C   0  0  0  0  0  0  0  0  0  0  0  0
  -29.6791  -17.7358   22.2431 C   0  0  0  0  0  0  0  0  0  0  0  0
  -21.8650   -4.7992   24.6080 C   0  0  0  0  0  0  0  0  0  0  0  0
  -23.6922  -10.4985   21.0280 C   0  0  0  0  0  0  0  0  0  0  0  0
  -34.1195  -21.0570   18.8571 C   0  0  0  0  0  0  0  0  0  0  0  0
  -34.3195  -20.3714   17.6522 C   0  0  0  0  0  0  0  0  0  0  0  0
  -24.1439  -13.0006   20.8205 C   0  0  0  0  0  0  0  0  0  0  0  0
  -30.4197  -34.0643   19.6770 C   0  0  0  0  0  0  0  0  0  0  0  0
  -32.7401  -27.2292   18.3437 C   0  0  0  0  0  0  0  0  0  0  0  0
  -31.3533  -33.0105   19.6828 C   0  0  0  0  0  0  0  0  0  0  0  0
  -32.6344  -26.3659   19.4435 C   0  0  0  0  0  0  0  0  0  0  0  0
  -31.5509  -18.7874   20.4617 C   0  0  0  0  0  0  0  0  0  0  0  0
  -35.6728  -22.7792   18.1543 C   0  0  0  0  0  0  0  0  0  0  0  0
  -29.9055  -19.1115   22.2009 C   0  0  0  0  0  0  0  0  0  0  0  0
  -30.3886  -16.8858   21.3947 C   0  0  0  0  0  0  0  0  0  0  0  0
  -22.1001   -8.2777   21.5904 C   0  0  0  0  0  0  0  0  0  0  0  0
  -34.9206  -25.6291   19.0693 C   0  0  0  0  0  0  0  0  0  0  0  0
  -21.8800   -6.1794   22.6251 C   0  0  0  0  0  0  0  0  0  0  0  0
  -23.0029   -4.1330   24.1529 C   0  0  0  0  0  0  0  0  0  0  0  0
  -35.8774  -22.1031   16.9554 C   0  0  0  0  0  0  0  0  0  0  0  0
  -21.3036   -5.8224   23.8441 C   0  0  0  0  0  0  0  0  0  0  0  0
  -24.5151  -11.6451   20.7380 C   0  0  0  0  0  0  0  0  0  0  0  0
  -25.2719  -13.6889   20.4460 C   0  0  0  0  0  0  0  0  0  0  0  0
  -32.7376  -18.6737   18.3526 C   0  0  0  0  0  0  0  0  0  0  0  0
  -33.5901  -19.1261   17.4250 C   0  0  0  0  0  0  0  0  0  0  0  0
  -33.1949  -20.5058   19.8898 C   0  0  0  0  0  0  0  0  0  0  0  0
  -22.8914  -13.5852   21.2018 C   0  0  0  0  0  0  0  0  0  0  0  0
  -31.0841  -29.3431   20.0445 C   0  0  0  0  0  0  0  0  0  0  0  0
  -28.9339  -26.9218   20.2348 C   0  0  0  0  0  0  0  0  0  0  0  0
  -28.3327  -23.5646   20.1119 C   0  0  0  0  0  0  0  0  0  0  0  0
  -30.7753  -14.5069   20.6617 C   0  0  0  0  0  0  0  0  0  0  0  0
  -29.2158  -34.0627   20.5855 C   0  0  0  0  0  0  0  0  0  0  0  0
  -31.5681  -28.0722   17.9216 C   0  0  0  0  0  0  0  0  0  0  0  0
  -31.3714  -26.2710   20.2586 C   0  0  0  0  0  0  0  0  0  0  0  0
  -28.8792  -32.6841   21.1481 C   0  0  0  0  0  0  0  0  0  0  0  0
  -29.5888  -12.0562   18.3674 C   0  0  0  0  0  0  0  0  0  0  0  0
  -30.1382  -31.9981   21.6688 C   0  0  0  0  0  0  0  0  0  0  0  0
  -28.1325  -11.8423   18.7864 C   0  0  0  0  0  0  0  0  0  0  0  0
  -30.4973  -12.2904   19.5731 C   0  0  0  0  0  0  0  0  0  0  0  0
  -28.6055  -13.1462   20.8990 C   0  0  0  0  0  0  0  0  0  0  0  0
  -31.1543  -31.7801   20.5412 C   0  0  1  0  0  0  0  0  0  0  0  0
  -30.5798  -28.3315   19.0545 C   0  0  1  0  0  0  0  0  0  0  0  0
  -27.6415  -12.9708   19.7143 C   0  0  2  0  0  0  0  0  0  0  0  0
  -26.4825  -21.8850   20.3421 C   0  0  0  0  0  0  0  0  0  0  0  0
  -28.9982  -27.2698   23.2654 C   0  0  0  0  0  0  0  0  0  0  0  0
  -27.9188  -25.0208   23.4768 C   0  0  0  0  0  0  0  0  0  0  0  0
  -26.7219  -26.8719   22.3091 C   0  0  0  0  0  0  0  0  0  0  0  0
  -28.7043  -22.6024   17.3380 C   0  0  0  0  0  0  0  0  0  0  0  0
  -28.7005  -25.7714   21.1841 C   0  0  1  0  0  0  0  0  0  0  0  0
  -27.2757  -22.7567   19.3810 C   0  0  2  0  0  0  0  0  0  0  0  0
  -28.1095  -26.2365   22.5449 C   0  0  0  0  0  0  0  0  0  0  0  0
  -25.7799  -11.4801   20.3419 N   0  0  0  0  0  0  0  0  0  0  0  0
  -26.2134  -12.7408   20.1722 N   0  0  0  0  0  0  0  0  0  0  0  0
  -32.4924  -19.3161   19.5637 N   0  0  0  0  0  0  0  0  0  0  0  0
  -30.2553  -27.1198   19.8099 N   0  0  0  0  0  0  0  0  0  0  0  0
  -29.9719  -13.3760   20.4039 N   0  0  0  0  0  0  0  0  0  0  0  0
  -29.1878  -19.9705   23.0590 N   0  0  0  0  0  0  0  0  0  0  0  0
  -25.5403  -15.0066   20.3273 N   0  0  0  0  0  0  0  0  0  0  0  0
  -21.8371  -12.7330   21.5574 N   0  0  0  0  0  0  0  0  0  0  0  0
  -30.1578  -15.4884   21.4362 N   0  0  0  0  0  0  0  0  0  0  0  0
  -36.3480  -23.9802   18.4081 N   0  0  0  0  0  0  0  0  0  1  0  0
  -30.7680  -30.6497   19.7243 N   0  0  0  0  0  0  0  0  0  0  0  0
  -27.8667  -24.8129   20.4667 N   0  0  0  0  0  0  0  0  0  0  0  0
  -27.9110  -21.8745   18.3616 N   0  3  0  0  0  0  0  0  0  0  0  0
  -33.0678  -21.1043   20.9574 O   0  0  0  0  0  0  0  0  0  0  0  0
  -22.7076  -14.8260   21.2106 O   0  0  0  0  0  0  0  0  0  0  0  0
  -31.7121  -28.9660   21.0269 O   0  0  0  0  0  0  0  0  0  0  0  0
  -27.9778  -27.6146   19.8777 O   0  0  0  0  0  0  0  0  0  0  0  0
  -29.4580  -23.1303   20.3481 O   0  0  0  0  0  0  0  0  0  0  0  0
  -31.9165  -14.6099   20.2046 O   0  0  0  0  0  0  0  0  0  0  0  0
  -33.8176  -18.4731   16.2341 O   0  0  0  0  0  0  0  0  0  0  0  0
  -21.3233   -7.1944   21.8652 O   0  0  0  0  0  0  0  0  0  0  0  0
  -35.9798  -24.8534   19.4275 O   0  0  0  0  0  0  0  0  0  1  0  0
  -23.5413   -3.1494   24.8856 F   0  0  0  0  0  0  0  0  0  0  0  0
  -36.7184  -22.5928   16.0332 F   0  0  0  0  0  0  0  0  0  0  0  0
  -20.2097   -6.4580   24.2860 F   0  0  0  0  0  0  0  0  0  0  0  0
  1  2  1  0  0  0  0
  1  5  2  0  0  0  0
  2  6  2  0  0  0  0
  3  8  2  0  0  0  0
  3 20  1  0  0  0  0
  4  9  1  0  0  0  0
  4 20  2  0  0  0  0
  5 24  1  0  0  0  0
  6 26  1  0  0  0  0
  7 10  2  0  0  0  0
  7 25  1  0  0  0  0
  8 32  1  0  0  0  0
  9 32  2  0  0  0  0
 10 33  1  0  0  0  0
 11 12  2  0  0  0  0
 11 34  1  0  0  0  0
 12 35  1  0  0  0  0
 13 21  2  0  0  0  0
 13 29  1  0  0  0  0
 14 22  2  0  0  0  0
 14 36  1  0  0  0  0
 15 27  1  0  0  0  0
 15 33  2  0  0  0  0
 16 28  1  0  0  0  0
 16 30  2  0  0  0  0
 17 28  2  0  0  0  0
 17 31  1  0  0  0  0
 18 30  1  0  0  0  0
 18 31  2  0  0  0  0
 19 35  2  0  0  0  0
 19 37  1  0  0  0  0
 20 38  1  0  0  0  0
 21 22  1  0  0  0  0
 21 42  1  0  0  0  0
 22 41  1  0  0  0  0
 23 38  1  0  0  0  0
 23 39  2  0  0  0  0
 23 43  1  0  0  0  0
 24 26  2  0  0  0  0
 24 48  1  0  0  0  0
 25 27  2  0  0  0  0
 25 49  1  0  0  0  0
 26 57  1  0  0  0  0
 27 50  1  0  0  0  0
 28 70  1  0  0  0  0
 29 36  2  0  0  0  0
 29 77  1  0  0  0  0
 30 73  1  0  0  0  0
 31 76  1  0  0  0  0
 32 88  1  0  0  0  0
 33 89  1  0  0  0  0
 34 37  2  0  0  0  0
 34 88  1  0  0  0  0
 35 90  1  0  0  0  0
 36 91  1  0  0  0  0
 37 92  1  0  0  0  0
 38 68  2  0  0  0  0
 39 69  1  0  0  0  0
 39 74  1  0  0  0  0
 40 41  2  0  0  0  0
 40 70  1  0  0  0  0
 41 87  1  0  0  0  0
 42 70  1  0  0  0  0
 42 81  2  0  0  0  0
 43 75  1  0  0  0  0
 43 82  2  0  0  0  0
 44 58  1  0  0  0  0
 44 78  1  0  0  0  0
 44 83  2  0  0  0  0
 45 65  1  0  0  0  0
 45 71  1  0  0  0  0
 45 84  2  0  0  0  0
 46 66  1  0  0  0  0
 46 79  1  0  0  0  0
 46 85  2  0  0  0  0
 47 72  1  0  0  0  0
 47 76  1  0  0  0  0
 47 86  2  0  0  0  0
 48 51  1  0  0  0  0
 49 58  1  0  0  0  0
 50 71  1  0  0  0  0
 51 53  1  0  0  0  0
 52 54  1  0  0  0  0
 52 55  1  0  0  0  0
 53 57  1  0  0  0  0
 54 59  1  0  0  0  0
 55 72  1  0  0  0  0
 56 59  1  0  0  0  0
 56 72  1  0  0  0  0
 57 78  1  0  0  0  0
 58 71  1  0  0  0  0
 59 69  1  0  0  0  0
 60 66  1  0  0  0  0
 61 67  1  0  0  0  0
 62 67  1  0  0  0  0
 63 67  1  0  0  0  0
 64 80  1  0  0  0  0
 65 67  1  0  0  0  0
 65 79  1  0  0  0  0
 66 80  1  0  0  0  0
 68 69  1  0  0  0  0
 77 89  1  0  0  0  0
M  CHG  1  80   1
M  ISO  4  47 100  76 100  77 101  89 101
M  END
> <Batch ID>
0085

> <Smiles>
CNC(C)C(=O)NC(C(=O)N1Cc2cc([101O:1][101NH:1]c3cc4c(cc3F)C(=O)CN(c3cc(N)cc([100NH:0][100C:0](=O)N5CCCC(n6nc(-c7ccc(Oc8ccc(F)cc8F)cc7)c(C(N)=O)c6N)C5)c3)C4=O)ccc2CC1C(=O)NC1CCCc2ccccc21)C(C)(C)C

> <Shape>
0.242

> <Color>
0.187

> <Negative vol penalty>
0.000

$$$$

  -OEChem-04052300153D

 87 96  0     1  0  0  0  0  0999 V2000
  -28.3916  -11.4633   19.5435 C   0  0  0  0  0  0  0  0  0  0  0  0
  -28.6313  -12.8104   19.2920 C   0  0  0  0  0  0  0  0  0  0  0  0
  -20.9538  -28.8551   21.1353 C   0  0  0  0  0  0  0  0  0  0  0  0
  -22.1326  -26.8570   21.8098 C   0  0  0  0  0  0  0  0  0  0  0  0
  -27.1166  -11.0413   19.9180 C   0  0  0  0  0  0  0  0  0  0  0  0
  -27.5958  -13.7363   19.4138 C   0  0  0  0  0  0  0  0  0  0  0  0
  -29.0128  -17.9215   21.8878 C   0  0  0  0  0  0  0  0  0  0  0  0
  -19.7399  -28.1778   21.2500 C   0  0  0  0  0  0  0  0  0  0  0  0
  -20.9187  -26.1796   21.9245 C   0  0  0  0  0  0  0  0  0  0  0  0
  -29.7586  -18.8601   21.1761 C   0  0  0  0  0  0  0  0  0  0  0  0
  -18.6839  -24.7050   19.8601 C   0  0  0  0  0  0  0  0  0  0  0  0
  -18.6045  -23.4213   19.3201 C   0  0  0  0  0  0  0  0  0  0  0  0
  -27.7669  -20.1790   20.8399 C   0  0  0  0  0  0  0  0  0  0  0  0
  -30.7500  -24.4269   19.8989 C   0  0  0  0  0  0  0  0  0  0  0  0
  -31.2281  -22.8030   21.6226 C   0  0  0  0  0  0  0  0  0  0  0  0
  -29.7466  -24.6546   22.0848 C   0  0  0  0  0  0  0  0  0  0  0  0
  -18.0764  -22.5350   21.5047 C   0  0  0  0  0  0  0  0  0  0  0  0
  -22.1502  -28.1948   21.4152 C   0  0  0  0  0  0  0  0  0  0  0  0
  -23.8056  -30.0458   21.9991 C   0  0  0  0  0  0  0  0  0  0  0  0
  -26.0672  -11.9639   20.0538 C   0  0  0  0  0  0  0  0  0  0  0  0
  -27.6341  -18.0994   22.0719 C   0  0  0  0  0  0  0  0  0  0  0  0
  -26.3052  -13.3261   19.7891 C   0  0  0  0  0  0  0  0  0  0  0  0
  -27.0063  -19.2424   21.5566 C   0  0  0  0  0  0  0  0  0  0  0  0
  -31.4033  -23.2685   20.3194 C   0  0  0  0  0  0  0  0  0  0  0  0
  -29.9217  -25.1200   20.7816 C   0  0  0  0  0  0  0  0  0  0  0  0
  -19.7223  -26.8400   21.6446 C   0  0  0  0  0  0  0  0  0  0  0  0
  -29.1352  -19.9876   20.6495 C   0  0  0  0  0  0  0  0  0  0  0  0
  -18.4596  -24.9036   21.2224 C   0  0  0  0  0  0  0  0  0  0  0  0
  -18.3008  -22.3364   20.1424 C   0  0  0  0  0  0  0  0  0  0  0  0
  -30.3998  -23.4961   22.5053 C   0  0  0  0  0  0  0  0  0  0  0  0
  -18.1558  -23.8187   22.0447 C   0  0  0  0  0  0  0  0  0  0  0  0
  -23.4045  -28.8938   21.2963 C   0  0  0  0  0  0  0  0  0  0  0  0
  -25.0689  -30.3117   21.5301 C   0  0  0  0  0  0  0  0  0  0  0  0
  -32.0399  -21.2336   19.0401 C   0  0  0  0  0  0  0  0  0  0  0  0
  -33.1316  -20.5532   18.2543 C   0  0  0  0  0  0  0  0  0  0  0  0
  -34.5709  -22.5853   18.7737 C   0  0  0  0  0  0  0  0  0  0  0  0
  -30.9553  -20.4687   19.2615 C   0  0  0  0  0  0  0  0  0  1  0  0
  -23.0995  -30.8073   22.9876 C   0  0  0  0  0  0  0  0  0  0  0  0
  -25.0312  -16.4823   21.2273 C   0  0  0  0  0  0  0  0  0  0  0  0
  -23.5331  -18.6979   23.0628 C   0  0  0  0  0  0  0  0  0  0  0  0
  -22.5480  -21.4367   24.8448 C   0  0  0  0  0  0  0  0  0  0  0  0
  -29.3229  -26.8937   19.0958 C   0  0  0  0  0  0  0  0  0  0  0  0
  -24.6945  -11.4539   20.4150 C   0  0  0  0  0  0  0  0  0  0  0  0
  -26.8486  -17.0912   22.8649 C   0  0  0  0  0  0  0  0  0  0  0  0
  -25.5326  -19.4903   21.7438 C   0  0  0  0  0  0  0  0  0  0  0  0
  -34.4844  -21.2143   18.1713 C   0  0  0  0  0  0  0  0  0  0  0  0
  -33.2998  -23.3867   18.8207 C   0  0  0  0  0  0  0  0  0  0  0  0
  -23.7420  -12.5500   20.8856 C   0  0  0  0  0  0  0  0  0  0  0  0
  -27.8105  -29.7700   17.6410 C   0  0  0  0  0  0  0  0  0  0  0  0
  -23.8075  -13.7525   19.9494 C   0  0  0  0  0  0  0  0  0  0  0  0
  -26.5486  -29.9802   18.4811 C   0  0  0  0  0  0  0  0  0  0  0  0
  -28.1123  -28.2871   17.4322 C   0  0  0  0  0  0  0  0  0  0  0  0
  -26.9136  -27.6973   19.5021 C   0  0  0  0  0  0  0  0  0  0  0  0
  -25.2137  -14.3641   19.9346 C   0  0  1  0  0  0  0  0  0  0  0  0
  -25.3560  -17.1154   22.5506 C   0  0  1  0  0  0  0  0  0  0  0  0
  -26.6051  -29.1749   19.7941 C   0  0  2  0  0  0  0  0  0  0  0  0
  -20.4944  -22.5838   25.7191 C   0  0  0  0  0  0  0  0  0  0  0  0
  -22.9149  -19.7245   20.2568 C   0  0  0  0  0  0  0  0  0  0  0  0
  -21.5334  -21.5340   21.2987 C   0  0  0  0  0  0  0  0  0  0  0  0
  -20.9018  -19.1425   21.6218 C   0  0  0  0  0  0  0  0  0  0  0  0
  -23.4445  -21.1555   27.6512 C   0  0  0  0  0  0  0  0  0  0  0  0
  -22.9319  -20.0606   22.8166 C   0  0  1  0  0  0  0  0  0  0  0  0
  -21.6009  -21.5854   26.0218 C   0  0  2  0  0  0  0  0  0  0  0  0
  -22.0979  -20.1123   21.5055 C   0  0  0  0  0  0  0  0  0  0  0  0
  -24.3373  -28.4580   20.4454 N   0  0  0  0  0  0  0  0  0  0  0  0
  -25.3370  -29.3408   20.6104 N   0  0  0  0  0  0  0  0  0  0  0  0
  -32.2484  -22.5618   19.4195 N   0  0  0  0  0  0  0  0  0  0  0  0
  -24.8065  -18.4724   22.5211 N   0  0  0  0  0  0  0  0  0  0  0  0
  -28.1546  -27.5894   18.7191 N   0  0  0  0  0  0  0  0  0  0  0  0
  -25.9653  -31.2789   21.8186 N   0  0  0  0  0  0  0  0  0  0  0  0
  -21.8109  -30.3952   23.3537 N   0  0  0  0  0  0  0  0  0  0  0  0
  -29.2579  -26.2968   20.3544 N   0  0  0  0  0  0  0  0  0  0  0  0
  -25.4296  -15.1634   21.1216 N   0  0  0  0  0  0  0  0  0  0  0  0
  -22.1768  -20.3969   24.0188 N   0  0  0  0  0  0  0  0  0  0  0  0
  -22.3416  -22.0556   27.2264 N   0  3  0  0  0  0  0  0  0  0  0  0
  -32.9549  -19.4690   17.6963 O   0  0  0  0  0  0  0  0  0  0  0  0
  -35.6506  -23.0671   19.1152 O   0  0  0  0  0  0  0  0  0  0  0  0
  -23.5900  -31.8327   23.5181 O   0  0  0  0  0  0  0  0  0  0  0  0
  -24.4599  -17.1412   20.3663 O   0  0  0  0  0  0  0  0  0  0  0  0
  -22.8994  -17.8667   23.7179 O   0  0  0  0  0  0  0  0  0  0  0  0
  -23.5177  -22.1720   24.6731 O   0  0  0  0  0  0  0  0  0  0  0  0
  -30.3182  -26.8549   18.3679 O   0  0  0  0  0  0  0  0  0  0  0  0
  -18.5380  -26.1787   21.7568 O   0  0  0  0  0  0  0  0  0  0  0  0
  -29.8607  -20.9050   19.9539 O   0  0  0  0  0  0  0  0  0  1  0  0
  -18.2230  -21.1040   19.6234 F   0  0  0  0  0  0  0  0  0  0  0  0
  -30.2304  -23.0487   23.7565 F   0  0  0  0  0  0  0  0  0  0  0  0
  -17.9382  -24.0035   23.3540 F   0  0  0  0  0  0  0  0  0  0  0  0
  1  2  1  0  0  0  0
  1  5  2  0  0  0  0
  2  6  2  0  0  0  0
  3  8  2  0  0  0  0
  3 18  1  0  0  0  0
  4  9  1  0  0  0  0
  4 18  2  0  0  0  0
  5 20  1  0  0  0  0
  6 22  1  0  0  0  0
  7 10  2  0  0  0  0
  7 21  1  0  0  0  0
  8 26  1  0  0  0  0
  9 26  2  0  0  0  0
 10 27  1  0  0  0  0
 11 12  2  0  0  0  0
 11 28  1  0  0  0  0
 12 29  1  0  0  0  0
 13 23  1  0  0  0  0
 13 27  2  0  0  0  0
 14 24  2  0  0  0  0
 14 25  1  0  0  0  0
 15 24  1  0  0  0  0
 15 30  2  0  0  0  0
 16 25  2  0  0  0  0
 16 30  1  0  0  0  0
 17 29  2  0  0  0  0
 17 31  1  0  0  0  0
 18 32  1  0  0  0  0
 19 32  1  0  0  0  0
 19 33  2  0  0  0  0
 19 38  1  0  0  0  0
 20 22  2  0  0  0  0
 20 43  1  0  0  0  0
 21 23  2  0  0  0  0
 21 44  1  0  0  0  0
 22 54  1  0  0  0  0
 23 45  1  0  0  0  0
 24 67  1  0  0  0  0
 25 72  1  0  0  0  0
 26 83  1  0  0  0  0
 27 84  1  0  0  0  0
 28 31  2  0  0  0  0
 28 83  1  0  0  0  0
 29 85  1  0  0  0  0
 30 86  1  0  0  0  0
 31 87  1  0  0  0  0
 32 65  2  0  0  0  0
 33 66  1  0  0  0  0
 33 70  1  0  0  0  0
 34 35  1  0  0  0  0
 34 37  2  0  0  0  0
 34 67  1  0  0  0  0
 35 46  1  0  0  0  0
 35 76  2  0  0  0  0
 36 46  1  0  0  0  0
 36 47  1  0  0  0  0
 36 77  2  0  0  0  0
 37 84  1  0  0  0  0
 38 71  1  0  0  0  0
 38 78  2  0  0  0  0
 39 55  1  0  0  0  0
 39 73  1  0  0  0  0
 39 79  2  0  0  0  0
 40 62  1  0  0  0  0
 40 68  1  0  0  0  0
 40 80  2  0  0  0  0
 41 63  1  0  0  0  0
 41 74  1  0  0  0  0
 41 81  2  0  0  0  0
 42 69  1  0  0  0  0
 42 72  1  0  0  0  0
 42 82  2  0  0  0  0
 43 48  1  0  0  0  0
 44 55  1  0  0  0  0
 45 68  1  0  0  0  0
 47 67  1  0  0  0  0
 48 50  1  0  0  0  0
 49 51  1  0  0  0  0
 49 52  1  0  0  0  0
 50 54  1  0  0  0  0
 51 56  1  0  0  0  0
 52 69  1  0  0  0  0
 53 56  1  0  0  0  0
 53 69  1  0  0  0  0
 54 73  1  0  0  0  0
 55 68  1  0  0  0  0
 56 66  1  0  0  0  0
 57 63  1  0  0  0  0
 58 64  1  0  0  0  0
 59 64  1  0  0  0  0
 60 64  1  0  0  0  0
 61 75  1  0  0  0  0
 62 64  1  0  0  0  0
 62 74  1  0  0  0  0
 63 75  1  0  0  0  0
 65 66  1  0  0  0  0
M  CHG  1  75   1
M  ISO  4  37 101  42 100  72 100  84 101
M  END
> <Batch ID>
0085

> <Smiles>
CNC(C)C(=O)NC(C(=O)N1Cc2cc([101O:1][101CH:1]=C3C(=O)CC(=O)CN3c3cc(F)cc([100NH:0][100C:0](=O)N4CCCC(n5nc(-c6ccc(Oc7ccc(F)cc7F)cc6)c(C(N)=O)c5N)C4)c3)ccc2CC1C(=O)NC1CCCc2ccccc21)C(C)(C)C

> <Shape>
0.212

> <Color>
0.064

> <Negative vol penalty>
0.000

$$$$

  -OEChem-04052300153D

 84 92  0     1  0  0  0  0  0999 V2000
  -21.6792  -11.0617   19.9793 C   0  0  0  0  0  0  0  0  0  0  0  0
  -21.4870  -12.2890   20.6056 C   0  0  0  0  0  0  0  0  0  0  0  0
  -18.1427  -27.4870   24.8459 C   0  0  0  0  0  0  0  0  0  0  0  0
  -27.3939  -25.3434   24.3319 C   0  0  0  0  0  0  0  0  0  0  0  0
  -29.3140  -26.4378   23.3560 C   0  0  0  0  0  0  0  0  0  0  0  0
  -18.5255  -28.4681   23.9313 C   0  0  0  0  0  0  0  0  0  0  0  0
  -22.9710  -10.5764   19.7808 C   0  0  0  0  0  0  0  0  0  0  0  0
  -22.5867  -13.0312   21.0348 C   0  0  0  0  0  0  0  0  0  0  0  0
  -23.1171  -19.1322   21.0872 C   0  0  0  0  0  0  0  0  0  0  0  0
  -18.9340  -26.3520   25.0232 C   0  0  0  0  0  0  0  0  0  0  0  0
  -28.0297  -24.1091   24.1987 C   0  0  0  0  0  0  0  0  0  0  0  0
  -29.9498  -25.2035   23.2228 C   0  0  0  0  0  0  0  0  0  0  0  0
  -22.9547  -20.0791   22.0974 C   0  0  0  0  0  0  0  0  0  0  0  0
  -29.2931  -20.7095   24.4472 C   0  0  0  0  0  0  0  0  0  0  0  0
  -29.2433  -19.8339   25.5319 C   0  0  0  0  0  0  0  0  0  0  0  0
  -20.4907  -27.1792   23.3711 C   0  0  0  0  0  0  0  0  0  0  0  0
  -25.3334  -20.0508   22.4979 C   0  0  0  0  0  0  0  0  0  0  0  0
  -30.3682  -21.4722   26.9059 C   0  0  0  0  0  0  0  0  0  0  0  0
  -28.0360  -26.5078   23.9105 C   0  0  0  0  0  0  0  0  0  0  0  0
  -19.6995  -28.3142   23.1939 C   0  0  0  0  0  0  0  0  0  0  0  0
  -27.4415  -28.6572   25.1491 C   0  0  0  0  0  0  0  0  0  0  0  0
  -24.0875  -11.3174   20.1992 C   0  0  0  0  0  0  0  0  0  0  0  0
  -24.3896  -18.6284   20.7816 C   0  0  0  0  0  0  0  0  0  0  0  0
  -23.8947  -12.5546   20.8430 C   0  0  0  0  0  0  0  0  0  0  0  0
  -25.5095  -19.0993   21.4816 C   0  0  0  0  0  0  0  0  0  0  0  0
  -20.1080  -26.1981   24.2858 C   0  0  0  0  0  0  0  0  0  0  0  0
  -29.3076  -24.0391   23.6442 C   0  0  0  0  0  0  0  0  0  0  0  0
  -24.0626  -20.5365   22.8049 C   0  0  0  0  0  0  0  0  0  0  0  0
  -29.8805  -21.9664   24.5918 C   0  0  0  0  0  0  0  0  0  0  0  0
  -29.7808  -20.2153   26.7612 C   0  0  0  0  0  0  0  0  0  0  0  0
  -30.4180  -22.3477   25.8212 C   0  0  0  0  0  0  0  0  0  0  0  0
  -27.3795  -27.7831   24.0474 C   0  0  0  0  0  0  0  0  0  0  0  0
  -26.6522  -29.7216   24.7877 C   0  0  0  0  0  0  0  0  0  0  0  0
  -22.6419  -23.4297   24.2883 C   0  0  0  0  0  0  0  0  0  0  0  0
  -23.3678  -22.6715   23.4603 C   0  0  0  0  0  0  0  0  0  1  0  0
  -20.1059  -29.3599   22.2202 C   0  0  0  0  0  0  0  0  0  0  0  0
  -28.1493  -28.5195   26.3883 C   0  0  0  0  0  0  0  0  0  0  0  0
  -22.1007  -24.7384   23.8186 C   0  0  0  0  0  0  0  0  0  0  0  0
  -25.7435  -15.7538   20.8647 C   0  0  0  0  0  0  0  0  0  0  0  0
  -28.2213  -17.3096   19.4638 C   0  0  0  0  0  0  0  0  0  0  0  0
  -29.8514  -20.2564   18.9113 C   0  0  0  0  0  0  0  0  0  0  0  0
  -22.0615  -30.3397   21.0628 C   0  0  0  0  0  0  0  0  0  0  0  0
  -25.4629  -10.7298   20.0054 C   0  0  0  0  0  0  0  0  0  0  0  0
  -24.5512  -17.6270   19.6709 C   0  0  0  0  0  0  0  0  0  0  0  0
  -26.8996  -18.6053   21.1784 C   0  0  0  0  0  0  0  0  0  0  0  0
  -26.5879  -11.7509   20.1534 C   0  0  0  0  0  0  0  0  0  0  0  0
  -25.1199  -32.1068   20.9224 C   0  0  0  0  0  0  0  0  0  0  0  0
  -26.3718  -12.6068   21.3974 C   0  0  0  0  0  0  0  0  0  0  0  0
  -26.0514  -31.2886   21.8209 C   0  0  0  0  0  0  0  0  0  0  0  0
  -24.1797  -31.2124   20.1156 C   0  0  0  0  0  0  0  0  0  0  0  0
  -24.3458  -29.4246   21.7991 C   0  0  0  0  0  0  0  0  0  0  0  0
  -25.0632  -13.4004   21.3005 C   0  0  1  0  0  0  0  0  0  0  0  0
  -25.8287  -16.8020   19.7915 C   0  0  1  0  0  0  0  0  0  0  0  0
  -25.2643  -30.2824   22.6843 C   0  0  1  0  0  0  0  0  0  0  0  0
  -31.8681  -21.2060   17.7586 C   0  0  0  0  0  0  0  0  0  0  0  0
  -30.0052  -16.2018   21.6775 C   0  0  0  0  0  0  0  0  0  0  0  0
  -31.7296  -17.9026   21.0434 C   0  0  0  0  0  0  0  0  0  0  0  0
  -31.0291  -16.1652   19.3962 C   0  0  0  0  0  0  0  0  0  0  0  0
  -28.1898  -21.9866   17.1779 C   0  0  0  0  0  0  0  0  0  0  0  0
  -29.4397  -18.0478   19.9633 C   0  0  1  0  0  0  0  0  0  0  0  0
  -30.3856  -20.8889   17.6388 C   0  0  2  0  0  0  0  0  0  0  0  0
  -30.5246  -17.0874   20.5274 C   0  0  0  0  0  0  0  0  0  0  0  0
  -26.6114  -28.2515   23.0601 N   0  0  0  0  0  0  0  0  0  0  0  0
  -26.1834  -29.4315   23.5402 N   0  0  0  0  0  0  0  0  0  0  0  0
  -27.0052  -17.6218   20.0879 N   0  0  0  0  0  0  0  0  0  0  0  0
  -23.4655  -30.2963   21.0066 N   0  0  0  0  0  0  0  0  0  0  0  0
  -26.3203  -30.8681   25.4186 N   0  0  0  0  0  0  0  0  0  0  0  0
  -28.9133  -27.3630   26.5964 N   0  0  0  0  0  0  0  0  0  0  0  0
  -20.9115  -25.0455   24.4662 N   0  0  0  0  0  0  0  0  0  0  0  0
  -21.4761  -29.4549   21.9753 N   0  0  0  0  0  0  0  0  0  0  0  0
  -25.2301  -14.5460   20.4320 N   0  0  0  0  0  0  0  0  0  0  0  0
  -29.8959  -18.8795   18.8548 N   0  0  0  0  0  0  0  0  0  0  0  0
  -29.6565  -22.1548   17.3440 N   0  3  0  0  0  0  0  0  0  0  0  0
  -19.2395  -30.0352   21.6714 O   0  0  0  0  0  0  0  0  0  0  0  0
  -28.0924  -29.3884   27.2912 O   0  0  0  0  0  0  0  0  0  0  0  0
  -22.6860  -25.3995   22.9689 O   0  0  0  0  0  0  0  0  0  0  0  0
  -26.1173  -16.0205   22.0008 O   0  0  0  0  0  0  0  0  0  0  0  0
  -28.3428  -16.4914   18.5487 O   0  0  0  0  0  0  0  0  0  0  0  0
  -29.4397  -20.9178   19.8618 O   0  0  0  0  0  0  0  0  0  0  0  0
  -21.3888  -31.1247   20.3872 O   0  0  0  0  0  0  0  0  0  0  0  0
  -29.9285  -22.8348   23.5142 O   0  0  0  0  0  0  0  0  0  0  0  0
  -23.9069  -21.4603   23.7919 O   0  0  0  0  0  0  0  0  0  1  0  0
  -29.7315  -19.3750   27.8032 F   0  0  0  0  0  0  0  0  0  0  0  0
  -30.9825  -23.5544   25.9665 F   0  0  0  0  0  0  0  0  0  0  0  0
  1  2  1  0  0  0  0
  1  7  2  0  0  0  0
  2  8  2  0  0  0  0
  3  6  1  0  0  0  0
  3 10  2  0  0  0  0
  4 11  2  0  0  0  0
  4 19  1  0  0  0  0
  5 12  1  0  0  0  0
  5 19  2  0  0  0  0
  6 20  2  0  0  0  0
  7 22  1  0  0  0  0
  8 24  1  0  0  0  0
  9 13  2  0  0  0  0
  9 23  1  0  0  0  0
 10 26  1  0  0  0  0
 11 27  1  0  0  0  0
 12 27  2  0  0  0  0
 13 28  1  0  0  0  0
 14 15  2  0  0  0  0
 14 29  1  0  0  0  0
 15 30  1  0  0  0  0
 16 20  1  0  0  0  0
 16 26  2  0  0  0  0
 17 25  1  0  0  0  0
 17 28  2  0  0  0  0
 18 30  2  0  0  0  0
 18 31  1  0  0  0  0
 19 32  1  0  0  0  0
 20 36  1  0  0  0  0
 21 32  1  0  0  0  0
 21 33  2  0  0  0  0
 21 37  1  0  0  0  0
 22 24  2  0  0  0  0
 22 43  1  0  0  0  0
 23 25  2  0  0  0  0
 23 44  1  0  0  0  0
 24 52  1  0  0  0  0
 25 45  1  0  0  0  0
 26 69  1  0  0  0  0
 27 81  1  0  0  0  0
 28 82  1  0  0  0  0
 29 31  2  0  0  0  0
 29 81  1  0  0  0  0
 30 83  1  0  0  0  0
 31 84  1  0  0  0  0
 32 63  2  0  0  0  0
 33 64  1  0  0  0  0
 33 67  1  0  0  0  0
 34 35  2  0  0  0  0
 34 38  1  0  0  0  0
 35 82  1  0  0  0  0
 36 70  1  0  0  0  0
 36 74  2  0  0  0  0
 37 68  1  0  0  0  0
 37 75  2  0  0  0  0
 38 69  1  0  0  0  0
 38 76  2  0  0  0  0
 39 53  1  0  0  0  0
 39 71  1  0  0  0  0
 39 77  2  0  0  0  0
 40 60  1  0  0  0  0
 40 65  1  0  0  0  0
 40 78  2  0  0  0  0
 41 61  1  0  0  0  0
 41 72  1  0  0  0  0
 41 79  2  0  0  0  0
 42 66  1  0  0  0  0
 42 70  1  0  0  0  0
 42 80  2  0  0  0  0
 43 46  1  0  0  0  0
 44 53  1  0  0  0  0
 45 65  1  0  0  0  0
 46 48  1  0  0  0  0
 47 49  1  0  0  0  0
 47 50  1  0  0  0  0
 48 52  1  0  0  0  0
 49 54  1  0  0  0  0
 50 66  1  0  0  0  0
 51 54  1  0  0  0  0
 51 66  1  0  0  0  0
 52 71  1  0  0  0  0
 53 65  1  0  0  0  0
 54 64  1  0  0  0  0
 55 61  1  0  0  0  0
 56 62  1  0  0  0  0
 57 62  1  0  0  0  0
 58 62  1  0  0  0  0
 59 73  1  0  0  0  0
 60 62  1  0  0  0  0
 60 72  1  0  0  0  0
 61 73  1  0  0  0  0
 63 64  1  0  0  0  0
M  CHG  1  73   1
M  ISO  4  35 101  42 100  70 100  82 101
M  END
> <Batch ID>
0085

> <Smiles>
CNC(C)C(=O)NC(C(=O)N1Cc2cc([101O:1][101CH:1]=CC(=O)Nc3cccc(C(=O)[100NH:0][100C:0](=O)N4CCCC(n5nc(-c6ccc(Oc7ccc(F)cc7F)cc6)c(C(N)=O)c5N)C4)c3)ccc2CC1C(=O)NC1CCCc2ccccc21)C(C)(C)C

> <Shape>
0.205

> <Color>
0.069

> <Negative vol penalty>
0.000

$$$$

  -OEChem-04052300153D

 85 94  0     1  0  0  0  0  0999 V2000
  -23.0143  -33.4336   13.3279 C   0  0  0  0  0  0  0  0  0  0  0  0
  -23.1790  -32.2099   13.9691 C   0  0  0  0  0  0  0  0  0  0  0  0
  -30.6091  -20.9248   21.5400 C   0  0  0  0  0  0  0  0  0  0  0  0
  -24.2936   -9.8760   21.9871 C   0  0  0  0  0  0  0  0  0  0  0  0
  -24.5441  -11.2064   23.9882 C   0  0  0  0  0  0  0  0  0  0  0  0
  -23.7186  -34.5521   13.7716 C   0  0  0  0  0  0  0  0  0  0  0  0
  -24.0490  -32.1039   15.0536 C   0  0  0  0  0  0  0  0  0  0  0  0
  -23.3706  -28.5320   19.9819 C   0  0  0  0  0  0  0  0  0  0  0  0
  -29.4773  -21.7225   21.7080 C   0  0  0  0  0  0  0  0  0  0  0  0
  -30.4703  -19.5828   21.1859 C   0  0  0  0  0  0  0  0  0  0  0  0
  -23.8445   -8.8029   22.7567 C   0  0  0  0  0  0  0  0  0  0  0  0
  -24.0950  -10.1332   24.7578 C   0  0  0  0  0  0  0  0  0  0  0  0
  -23.9007  -27.2872   20.3182 C   0  0  0  0  0  0  0  0  0  0  0  0
  -20.9789   -7.8594   24.2837 C   0  0  0  0  0  0  0  0  0  0  0  0
  -19.8566   -7.1640   23.8339 C   0  0  0  0  0  0  0  0  0  0  0  0
  -25.6483  -28.3774   21.5740 C   0  0  0  0  0  0  0  0  0  0  0  0
  -25.1362  -22.7491   22.4593 C   0  0  0  0  0  0  0  0  0  0  0  0
  -28.0677  -19.8360   21.1681 C   0  0  0  0  0  0  0  0  0  0  0  0
  -21.1633   -5.1357   23.7092 C   0  0  0  0  0  0  0  0  0  0  0  0
  -24.6434  -11.0777   22.6028 C   0  0  0  0  0  0  0  0  0  0  0  0
  -24.3262  -13.2042   21.2298 C   0  0  0  0  0  0  0  0  0  0  0  0
  -24.5903  -34.4619   14.8682 C   0  0  0  0  0  0  0  0  0  0  0  0
  -23.9827  -29.7111   20.4308 C   0  0  0  0  0  0  0  0  0  0  0  0
  -24.7666  -33.2220   15.5115 C   0  0  0  0  0  0  0  0  0  0  0  0
  -25.1225  -29.6359   21.2440 C   0  0  0  0  0  0  0  0  0  0  0  0
  -25.5899  -23.6120   21.4312 C   0  0  0  0  0  0  0  0  0  0  0  0
  -28.2066  -21.1781   21.5221 C   0  0  0  0  0  0  0  0  0  0  0  0
  -29.1996  -19.0384   21.0000 C   0  0  0  0  0  0  0  0  0  0  0  0
  -23.7452   -8.9315   24.1421 C   0  0  0  0  0  0  0  0  0  0  0  0
  -25.0414  -27.2098   21.1120 C   0  0  0  0  0  0  0  0  0  0  0  0
  -22.1935   -7.1930   24.4461 C   0  0  0  0  0  0  0  0  0  0  0  0
  -19.9487   -5.8021   23.5468 C   0  0  0  0  0  0  0  0  0  0  0  0
  -22.2857   -5.8311   24.1589 C   0  0  0  0  0  0  0  0  0  0  0  0
  -25.1080  -12.1864   21.8084 C   0  0  0  0  0  0  0  0  0  0  0  0
  -26.7887  -23.1115   20.9734 C   0  0  0  0  0  0  0  0  0  0  0  0
  -25.2329  -14.0079   20.5830 C   0  0  0  0  0  0  0  0  0  0  0  0
  -26.0717  -21.7477   22.5984 C   0  0  0  0  0  0  0  0  0  0  0  0
  -22.9072  -13.4052   21.2733 C   0  0  0  0  0  0  0  0  0  0  0  0
  -25.3507  -32.2074   19.0161 C   0  0  0  0  0  0  0  0  0  0  0  0
  -25.4818  -33.3582   22.0461 C   0  0  0  0  0  0  0  0  0  0  0  0
  -25.5290  -32.7023   25.3949 C   0  0  0  0  0  0  0  0  0  0  0  0
  -30.0788  -16.7461   20.4354 C   0  0  0  0  0  0  0  0  0  0  0  0
  -25.3658  -35.6875   15.2817 C   0  0  0  0  0  0  0  0  0  0  0  0
  -23.3831  -31.0456   20.0813 C   0  0  0  0  0  0  0  0  0  0  0  0
  -25.8055  -30.8716   21.7684 C   0  0  0  0  0  0  0  0  0  0  0  0
  -25.9840  -35.5764   16.6731 C   0  0  0  0  0  0  0  0  0  0  0  0
  -30.1420  -13.2907   19.5790 C   0  0  0  0  0  0  0  0  0  0  0  0
  -26.6798  -34.2295   16.8421 C   0  0  0  0  0  0  0  0  0  0  0  0
  -28.7736  -12.7791   20.0350 C   0  0  0  0  0  0  0  0  0  0  0  0
  -30.7017  -14.3425   20.5351 C   0  0  0  0  0  0  0  0  0  0  0  0
  -28.4326  -14.9560   21.2727 C   0  0  0  0  0  0  0  0  0  0  0  0
  -25.6824  -33.0726   16.7070 C   0  0  1  0  0  0  0  0  0  0  0  0
  -24.3857  -32.1922   20.1677 C   0  0  1  0  0  0  0  0  0  0  0  0
  -27.7990  -13.9419   20.3064 C   0  0  2  0  0  0  0  0  0  0  0  0
  -27.6827  -23.6254   19.9113 C   0  0  0  0  0  0  0  0  0  0  0  0
  -25.6798  -33.8449   27.6240 C   0  0  0  0  0  0  0  0  0  0  0  0
  -28.4712  -33.7942   21.6177 C   0  0  0  0  0  0  0  0  0  0  0  0
  -28.7233  -34.0175   24.0986 C   0  0  0  0  0  0  0  0  0  0  0  0
  -27.3117  -35.6433   22.8388 C   0  0  0  0  0  0  0  0  0  0  0  0
  -22.8823  -31.6750   26.2306 C   0  0  0  0  0  0  0  0  0  0  0  0
  -24.8871  -24.8429   20.9390 C   0  0  0  0  0  0  0  0  0  1  0  0
  -26.4787  -33.2803   23.1771 C   0  0  1  0  0  0  0  0  0  0  0  0
  -24.7490  -33.3035   26.5501 C   0  0  2  0  0  0  0  0  0  0  0  0
  -27.7347  -34.1604   22.9217 C   0  0  0  0  0  0  0  0  0  0  0  0
  -26.4110  -12.3282   21.5516 N   0  0  0  0  0  0  0  0  0  0  0  0
  -27.0719  -21.9783   21.6903 N   0  0  0  0  0  0  0  0  0  0  0  0
  -26.4550  -13.4444   20.8045 N   0  0  0  0  0  0  0  0  0  0  0  0
  -25.1849  -32.1530   21.3941 N   0  0  0  0  0  0  0  0  0  0  0  0
  -29.7257  -15.4148   20.7413 N   0  0  0  0  0  0  0  0  0  0  0  0
  -25.0960  -15.1345   19.8520 N   0  0  0  0  0  0  0  0  0  0  0  0
  -22.1234  -12.4848   21.9825 N   0  0  0  0  0  0  0  0  0  0  0  0
  -29.0592  -17.6749   20.6409 N   0  0  0  0  0  0  0  0  0  0  0  0
  -24.9097  -32.9269   17.9220 N   0  0  0  0  0  0  0  0  0  0  0  0
  -25.7460  -33.6227   24.3913 N   0  0  0  0  0  0  0  0  0  0  0  0
  -23.8651  -32.2755   27.1689 N   0  3  0  0  0  0  0  0  0  0  0  0
  -22.3491  -14.3632   20.6866 O   0  0  0  0  0  0  0  0  0  0  0  0
  -26.4171  -31.6116   19.1137 O   0  0  0  0  0  0  0  0  0  0  0  0
  -24.9796  -34.4471   21.7566 O   0  0  0  0  0  0  0  0  0  0  0  0
  -25.9111  -31.5342   25.3854 O   0  0  0  0  0  0  0  0  0  0  0  0
  -31.1943  -17.0369   19.9958 O   0  0  0  0  0  0  0  0  0  0  0  0
  -26.1025  -20.7067   23.4219 O   0  0  0  0  0  0  0  0  0  0  0  0
  -23.3067   -7.8846   24.8934 O   0  0  0  0  0  0  0  0  0  0  0  0
  -25.5612  -25.9960   21.4412 O   0  0  0  0  0  0  0  0  0  1  0  0
  -18.8704   -5.1341   23.1164 F   0  0  0  0  0  0  0  0  0  0  0  0
  -23.4495   -5.1852   24.3142 F   0  0  0  0  0  0  0  0  0  0  0  0
  1  2  1  0  0  0  0
  1  6  2  0  0  0  0
  2  7  2  0  0  0  0
  3  9  2  0  0  0  0
  3 10  1  0  0  0  0
  4 11  2  0  0  0  0
  4 20  1  0  0  0  0
  5 12  1  0  0  0  0
  5 20  2  0  0  0  0
  6 22  1  0  0  0  0
  7 24  1  0  0  0  0
  8 13  2  0  0  0  0
  8 23  1  0  0  0  0
  9 27  1  0  0  0  0
 10 28  2  0  0  0  0
 11 29  1  0  0  0  0
 12 29  2  0  0  0  0
 13 30  1  0  0  0  0
 14 15  2  0  0  0  0
 14 31  1  0  0  0  0
 15 32  1  0  0  0  0
 16 25  1  0  0  0  0
 16 30  2  0  0  0  0
 17 26  1  0  0  0  0
 17 37  2  0  0  0  0
 18 27  2  0  0  0  0
 18 28  1  0  0  0  0
 19 32  2  0  0  0  0
 19 33  1  0  0  0  0
 20 34  1  0  0  0  0
 21 34  1  0  0  0  0
 21 36  2  0  0  0  0
 21 38  1  0  0  0  0
 22 24  2  0  0  0  0
 22 43  1  0  0  0  0
 23 25  2  0  0  0  0
 23 44  1  0  0  0  0
 24 52  1  0  0  0  0
 25 45  1  0  0  0  0
 26 35  2  0  0  0  0
 26 61  1  0  0  0  0
 27 66  1  0  0  0  0
 28 72  1  0  0  0  0
 29 82  1  0  0  0  0
 30 83  1  0  0  0  0
 31 33  2  0  0  0  0
 31 82  1  0  0  0  0
 32 84  1  0  0  0  0
 33 85  1  0  0  0  0
 34 65  2  0  0  0  0
 35 55  1  0  0  0  0
 35 66  1  0  0  0  0
 36 67  1  0  0  0  0
 36 70  1  0  0  0  0
 37 66  1  0  0  0  0
 37 81  1  0  0  0  0
 38 71  1  0  0  0  0
 38 76  2  0  0  0  0
 39 53  1  0  0  0  0
 39 73  1  0  0  0  0
 39 77  2  0  0  0  0
 40 62  1  0  0  0  0
 40 68  1  0  0  0  0
 40 78  2  0  0  0  0
 41 63  1  0  0  0  0
 41 74  1  0  0  0  0
 41 79  2  0  0  0  0
 42 69  1  0  0  0  0
 42 72  1  0  0  0  0
 42 80  2  0  0  0  0
 43 46  1  0  0  0  0
 44 53  1  0  0  0  0
 45 68  1  0  0  0  0
 46 48  1  0  0  0  0
 47 49  1  0  0  0  0
 47 50  1  0  0  0  0
 48 52  1  0  0  0  0
 49 54  1  0  0  0  0
 50 69  1  0  0  0  0
 51 54  1  0  0  0  0
 51 69  1  0  0  0  0
 52 73  1  0  0  0  0
 53 68  1  0  0  0  0
 54 67  1  0  0  0  0
 56 63  1  0  0  0  0
 57 64  1  0  0  0  0
 58 64  1  0  0  0  0
 59 64  1  0  0  0  0
 60 75  1  0  0  0  0
 61 83  1  0  0  0  0
 62 64  1  0  0  0  0
 62 74  1  0  0  0  0
 63 75  1  0  0  0  0
 65 67  1  0  0  0  0
M  CHG  1  75   1
M  ISO  4  42 100  61 101  72 100  83 101
M  END
> <Batch ID>
0085

> <Smiles>
CNC(C)C(=O)NC(C(=O)N1Cc2cc([101O:1][101CH2:1]C3=C(C)N(c4cccc([100NH:0][100C:0](=O)N5CCCC(n6nc(-c7ccc(Oc8ccc(F)cc8F)cc7)c(C(N)=O)c6N)C5)c4)C(=O)C3)ccc2CC1C(=O)NC1CCCc2ccccc21)C(C)(C)C

> <Shape>
0.249

> <Color>
0.119

> <Negative vol penalty>
0.000

$$$$

  -OEChem-04052300153D

 83 92  0     1  0  0  0  0  0999 V2000
  -31.0962  -32.3699   14.7052 C   0  0  0  0  0  0  0  0  0  0  0  0
  -30.8771  -31.0391   15.0466 C   0  0  0  0  0  0  0  0  0  0  0  0
  -22.9040  -10.2199   19.9262 C   0  0  0  0  0  0  0  0  0  0  0  0
  -24.0642   -9.7928   22.0019 C   0  0  0  0  0  0  0  0  0  0  0  0
  -30.9338  -33.3699   15.6631 C   0  0  0  0  0  0  0  0  0  0  0  0
  -30.4965  -30.7075   16.3464 C   0  0  0  0  0  0  0  0  0  0  0  0
  -31.1901  -18.7243   23.0460 C   0  0  0  0  0  0  0  0  0  0  0  0
  -26.7266  -26.1876   18.0388 C   0  0  0  0  0  0  0  0  0  0  0  0
  -30.3628  -19.8496   23.1216 C   0  0  0  0  0  0  0  0  0  0  0  0
  -22.1751   -9.0422   20.0913 C   0  0  0  0  0  0  0  0  0  0  0  0
  -23.3353   -8.6150   22.1670 C   0  0  0  0  0  0  0  0  0  0  0  0
  -26.9621  -24.8990   18.5160 C   0  0  0  0  0  0  0  0  0  0  0  0
  -20.2411   -7.7261   23.1949 C   0  0  0  0  0  0  0  0  0  0  0  0
  -19.7064   -7.4682   24.4571 C   0  0  0  0  0  0  0  0  0  0  0  0
  -28.7905  -18.8695   21.5414 C   0  0  0  0  0  0  0  0  0  0  0  0
  -26.7235  -25.6999   20.7789 C   0  0  0  0  0  0  0  0  0  0  0  0
  -20.9875   -5.4236   24.5820 C   0  0  0  0  0  0  0  0  0  0  0  0
  -23.8486  -10.5952   20.8815 C   0  0  0  0  0  0  0  0  0  0  0  0
  -29.6243  -17.7690   21.4894 C   0  0  0  0  0  0  0  0  0  0  0  0
  -24.2566  -13.0969   21.1693 C   0  0  0  0  0  0  0  0  0  0  0  0
  -30.8042  -17.6845   22.2210 C   0  0  0  0  0  0  0  0  0  0  0  0
  -30.5416  -33.0513   16.9728 C   0  0  0  0  0  0  0  0  0  0  0  0
  -26.4982  -27.2459   18.9300 C   0  0  0  0  0  0  0  0  0  0  0  0
  -30.3299  -31.7041   17.3231 C   0  0  0  0  0  0  0  0  0  0  0  0
  -26.4828  -27.0005   20.3104 C   0  0  0  0  0  0  0  0  0  0  0  0
  -29.1729  -19.9214   22.3750 C   0  0  0  0  0  0  0  0  0  0  0  0
  -22.3907   -8.2398   21.2117 C   0  0  0  0  0  0  0  0  0  0  0  0
  -26.9634  -24.6555   19.8864 C   0  0  0  0  0  0  0  0  0  0  0  0
  -21.1489   -6.8327   22.6261 C   0  0  0  0  0  0  0  0  0  0  0  0
  -20.0797   -6.3170   25.1507 C   0  0  0  0  0  0  0  0  0  0  0  0
  -21.5221   -5.6815   23.3197 C   0  0  0  0  0  0  0  0  0  0  0  0
  -24.6023  -11.8113   20.7113 C   0  0  0  0  0  0  0  0  0  0  0  0
  -25.2925  -13.8986   20.7562 C   0  0  0  0  0  0  0  0  0  0  0  0
  -29.4779  -16.5389   20.7078 C   0  0  0  0  0  0  0  0  0  0  0  0
  -28.6211  -22.0092   21.6250 C   0  0  0  0  0  0  0  0  0  0  0  0
  -23.1023  -13.5277   21.9026 C   0  0  0  0  0  0  0  0  0  0  0  0
  -27.9786  -29.9797   19.5925 C   0  0  0  0  0  0  0  0  0  0  0  0
  -25.3883  -30.4730   21.4818 C   0  0  0  0  0  0  0  0  0  0  0  0
  -22.8036  -29.1330   23.2624 C   0  0  0  0  0  0  0  0  0  0  0  0
  -30.9360  -14.4841   20.4533 C   0  0  0  0  0  0  0  0  0  0  0  0
  -30.4247  -34.1622   17.9861 C   0  0  0  0  0  0  0  0  0  0  0  0
  -26.2193  -28.6251   18.3984 C   0  0  0  0  0  0  0  0  0  0  0  0
  -31.4927  -16.3969   21.9451 C   0  0  0  0  0  0  0  0  0  0  0  0
  -26.2227  -28.0983   21.3082 C   0  0  0  0  0  0  0  0  0  0  0  0
  -29.6555  -33.7622   19.2425 C   0  0  0  0  0  0  0  0  0  0  0  0
  -29.1171  -13.0099   17.5877 C   0  0  0  0  0  0  0  0  0  0  0  0
  -30.1367  -32.4083   19.7546 C   0  0  0  0  0  0  0  0  0  0  0  0
  -27.7834  -12.6027   18.2108 C   0  0  0  0  0  0  0  0  0  0  0  0
  -30.2492  -12.9903   18.6099 C   0  0  0  0  0  0  0  0  0  0  0  0
  -28.6414  -13.4107   20.4458 C   0  0  0  0  0  0  0  0  0  0  0  0
  -29.8920  -31.3069   18.7161 C   0  0  1  0  0  0  0  0  0  0  0  0
  -26.5083  -29.7265   19.4135 C   0  0  1  0  0  0  0  0  0  0  0  0
  -27.4751  -13.4635   19.4474 C   0  0  2  0  0  0  0  0  0  0  0  0
  -20.8771  -29.7851   24.7323 C   0  0  0  0  0  0  0  0  0  0  0  0
  -27.3223  -30.9830   23.7861 C   0  0  0  0  0  0  0  0  0  0  0  0
  -25.4058  -30.6835   25.3690 C   0  0  0  0  0  0  0  0  0  0  0  0
  -25.3662  -32.5389   23.7022 C   0  0  0  0  0  0  0  0  0  0  0  0
  -20.8306  -27.9590   21.3948 C   0  0  0  0  0  0  0  0  0  0  0  0
  -27.8165  -23.2745   21.6245 C   0  0  0  0  0  0  0  0  0  1  0  0
  -25.0355  -30.1590   22.9157 C   0  0  1  0  0  0  0  0  0  0  0  0
  -21.3269  -29.4814   23.3117 C   0  0  2  0  0  0  0  0  0  0  0  0
  -25.7893  -31.0706   23.9248 C   0  0  0  0  0  0  0  0  0  0  0  0
  -25.7667  -11.7928   20.0572 N   0  0  0  0  0  0  0  0  0  0  0  0
  -28.3657  -21.0602   22.4693 N   0  0  0  0  0  0  0  0  0  0  0  0
  -26.1616  -13.0767   20.1011 N   0  0  0  0  0  0  0  0  0  0  0  0
  -30.5544  -15.6903   21.0686 N   0  0  0  0  0  0  0  0  0  0  0  0
  -25.9615  -29.4309   20.7394 N   0  0  0  0  0  0  0  0  0  0  0  0
  -29.9154  -13.7682   19.8038 N   0  0  0  0  0  0  0  0  0  0  0  0
  -25.5355  -15.2194   20.8930 N   0  0  0  0  0  0  0  0  0  0  0  0
  -22.1347  -12.5738   22.2463 N   0  0  0  0  0  0  0  0  0  0  0  0
  -28.4996  -30.9125   18.7162 N   0  0  0  0  0  0  0  0  0  0  0  0
  -23.5818  -30.2420   23.0059 N   0  0  0  0  0  0  0  0  0  0  0  0
  -20.5098  -28.3487   22.7920 N   0  3  0  0  0  0  0  0  0  0  0  0
  -28.5773  -16.3642   19.9065 O   0  0  0  0  0  0  0  0  0  0  0  0
  -22.9260  -14.7261   22.2287 O   0  0  0  0  0  0  0  0  0  0  0  0
  -28.5944  -29.3746   20.4622 O   0  0  0  0  0  0  0  0  0  0  0  0
  -25.1571  -31.5992   21.0349 O   0  0  0  0  0  0  0  0  0  0  0  0
  -23.2249  -27.9918   23.4377 O   0  0  0  0  0  0  0  0  0  0  0  0
  -32.1154  -14.1133   20.4482 O   0  0  0  0  0  0  0  0  0  0  0  0
  -21.6794   -7.0906   21.3732 O   0  0  0  0  0  0  0  0  0  0  0  0
  -27.1959  -23.3864   20.3594 O   0  0  0  0  0  0  0  0  0  1  0  0
  -19.5673   -6.0703   26.3634 F   0  0  0  0  0  0  0  0  0  0  0  0
  -22.3947   -4.8202   22.7789 F   0  0  0  0  0  0  0  0  0  0  0  0
  1  2  1  0  0  0  0
  1  5  2  0  0  0  0
  2  6  2  0  0  0  0
  3 10  2  0  0  0  0
  3 18  1  0  0  0  0
  4 11  1  0  0  0  0
  4 18  2  0  0  0  0
  5 22  1  0  0  0  0
  6 24  1  0  0  0  0
  7  9  2  0  0  0  0
  7 21  1  0  0  0  0
  8 12  2  0  0  0  0
  8 23  1  0  0  0  0
  9 26  1  0  0  0  0
 10 27  1  0  0  0  0
 11 27  2  0  0  0  0
 12 28  1  0  0  0  0
 13 14  2  0  0  0  0
 13 29  1  0  0  0  0
 14 30  1  0  0  0  0
 15 19  1  0  0  0  0
 15 26  2  0  0  0  0
 16 25  1  0  0  0  0
 16 28  2  0  0  0  0
 17 30  2  0  0  0  0
 17 31  1  0  0  0  0
 18 32  1  0  0  0  0
 19 21  2  0  0  0  0
 19 34  1  0  0  0  0
 20 32  1  0  0  0  0
 20 33  2  0  0  0  0
 20 36  1  0  0  0  0
 21 43  1  0  0  0  0
 22 24  2  0  0  0  0
 22 41  1  0  0  0  0
 23 25  2  0  0  0  0
 23 42  1  0  0  0  0
 24 51  1  0  0  0  0
 25 44  1  0  0  0  0
 26 64  1  0  0  0  0
 27 80  1  0  0  0  0
 28 81  1  0  0  0  0
 29 31  2  0  0  0  0
 29 80  1  0  0  0  0
 30 82  1  0  0  0  0
 31 83  1  0  0  0  0
 32 63  2  0  0  0  0
 33 65  1  0  0  0  0
 33 69  1  0  0  0  0
 34 66  1  0  0  0  0
 34 74  2  0  0  0  0
 35 59  1  0  0  0  0
 35 64  2  0  0  0  0
 36 70  1  0  0  0  0
 36 75  2  0  0  0  0
 37 52  1  0  0  0  0
 37 71  1  0  0  0  0
 37 76  2  0  0  0  0
 38 60  1  0  0  0  0
 38 67  1  0  0  0  0
 38 77  2  0  0  0  0
 39 61  1  0  0  0  0
 39 72  1  0  0  0  0
 39 78  2  0  0  0  0
 40 66  1  0  0  0  0
 40 68  1  0  0  0  0
 40 79  2  0  0  0  0
 41 45  1  0  0  0  0
 42 52  1  0  0  0  0
 43 66  1  0  0  0  0
 44 67  1  0  0  0  0
 45 47  1  0  0  0  0
 46 48  1  0  0  0  0
 46 49  1  0  0  0  0
 47 51  1  0  0  0  0
 48 53  1  0  0  0  0
 49 68  1  0  0  0  0
 50 53  1  0  0  0  0
 50 68  1  0  0  0  0
 51 71  1  0  0  0  0
 52 67  1  0  0  0  0
 53 65  1  0  0  0  0
 54 61  1  0  0  0  0
 55 62  1  0  0  0  0
 56 62  1  0  0  0  0
 57 62  1  0  0  0  0
 58 73  1  0  0  0  0
 59 81  1  0  0  0  0
 60 62  1  0  0  0  0
 60 72  1  0  0  0  0
 61 73  1  0  0  0  0
 63 65  1  0  0  0  0
M  CHG  1  73   1
M  ISO  4  40 100  59 101  66 100  81 101
M  END
> <Batch ID>
0085

> <Smiles>
CNC(C)C(=O)NC(C(=O)N1Cc2cc([101O:1][101CH2:1]C=Nc3ccc4c(c3)C(=O)[100N:0]([100C:0](=O)N3CCCC(n5nc(-c6ccc(Oc7ccc(F)cc7F)cc6)c(C(N)=O)c5N)C3)C4)ccc2CC1C(=O)NC1CCCc2ccccc21)C(C)(C)C

> <Shape>
0.341

> <Color>
0.190

> <Negative vol penalty>
0.000

$$$$

  -OEChem-04052300153D

 92102  0     1  0  0  0  0  0999 V2000
  -29.5883  -36.2063   22.7259 C   0  0  0  0  0  0  0  0  0  0  0  0
  -29.3033  -34.8607   22.5175 C   0  0  0  0  0  0  0  0  0  0  0  0
  -25.2925  -17.3814   16.5438 C   0  0  0  0  0  0  0  0  0  0  0  0
  -31.4819  -22.2250   19.3338 C   0  0  0  0  0  0  0  0  0  0  0  0
  -24.9858   -7.3750   20.5323 C   0  0  0  0  0  0  0  0  0  0  0  0
  -23.5461   -8.8039   19.2198 C   0  0  0  0  0  0  0  0  0  0  0  0
  -25.7822  -18.5519   17.1231 C   0  0  0  0  0  0  0  0  0  0  0  0
  -28.8564  -36.9358   23.6618 C   0  0  0  0  0  0  0  0  0  0  0  0
  -28.2868  -34.2435   23.2456 C   0  0  0  0  0  0  0  0  0  0  0  0
  -25.3109  -31.3421   20.3525 C   0  0  0  0  0  0  0  0  0  0  0  0
  -30.8047  -23.4186   19.5832 C   0  0  0  0  0  0  0  0  0  0  0  0
  -25.9530  -16.1707   16.7525 C   0  0  0  0  0  0  0  0  0  0  0  0
  -30.7819  -21.1083   18.8770 C   0  0  0  0  0  0  0  0  0  0  0  0
  -23.8820   -6.9320   21.2609 C   0  0  0  0  0  0  0  0  0  0  0  0
  -22.4422   -8.3608   19.9483 C   0  0  0  0  0  0  0  0  0  0  0  0
  -25.8021  -30.0887   19.9897 C   0  0  0  0  0  0  0  0  0  0  0  0
  -21.3380   -4.7438   20.8448 C   0  0  0  0  0  0  0  0  0  0  0  0
  -21.2253   -3.3740   21.0819 C   0  0  0  0  0  0  0  0  0  0  0  0
  -27.5929  -17.3010   18.1199 C   0  0  0  0  0  0  0  0  0  0  0  0
  -24.4754  -29.0720   21.7290 C   0  0  0  0  0  0  0  0  0  0  0  0
  -28.7274  -22.3788   18.9192 C   0  0  0  0  0  0  0  0  0  0  0  0
  -21.2797   -3.7816   23.4627 C   0  0  0  0  0  0  0  0  0  0  0  0
  -24.8179   -8.3110   19.5118 C   0  0  0  0  0  0  0  0  0  0  0  0
  -26.9324  -18.5117   17.9112 C   0  0  0  0  0  0  0  0  0  0  0  0
  -26.4779   -8.2084   17.5775 C   0  0  0  0  0  0  0  0  0  0  0  0
  -27.8240  -36.3297   24.3949 C   0  0  0  0  0  0  0  0  0  0  0  0
  -24.4051  -31.4712   21.4152 C   0  0  0  0  0  0  0  0  0  0  0  0
  -27.5413  -34.9653   24.1932 C   0  0  0  0  0  0  0  0  0  0  0  0
  -23.9723  -30.3278   22.1017 C   0  0  0  0  0  0  0  0  0  0  0  0
  -29.4274  -23.4955   19.3760 C   0  0  0  0  0  0  0  0  0  0  0  0
  -27.1032  -16.1305   17.5406 C   0  0  0  0  0  0  0  0  0  0  0  0
  -29.4046  -21.1852   18.6697 C   0  0  0  0  0  0  0  0  0  0  0  0
  -22.6102   -7.4248   20.9689 C   0  0  0  0  0  0  0  0  0  0  0  0
  -25.3866  -28.9538   20.6798 C   0  0  0  0  0  0  0  0  0  0  0  0
  -21.4217   -5.6327   21.9165 C   0  0  0  0  0  0  0  0  0  0  0  0
  -21.1961   -2.8928   22.3909 C   0  0  0  0  0  0  0  0  0  0  0  0
  -21.3925   -5.1516   23.2255 C   0  0  0  0  0  0  0  0  0  0  0  0
  -25.9579   -8.7696   18.7592 C   0  0  0  0  0  0  0  0  0  0  0  0
  -27.5525   -9.0041   17.2635 C   0  0  0  0  0  0  0  0  0  0  0  0
  -27.7914  -26.3636   20.0762 C   0  0  0  0  0  0  0  0  0  0  0  0
  -29.1750  -25.8873   20.0600 C   0  0  0  0  0  0  0  0  0  0  0  0
  -27.2141  -27.5217   20.3963 C   0  0  0  0  0  0  0  0  0  1  0  0
  -27.4533  -19.7550   18.5277 C   0  0  0  0  0  0  0  0  0  0  0  0
  -26.0297   -7.0697   16.8304 C   0  0  0  0  0  0  0  0  0  0  0  0
  -24.4430  -32.9523   24.2274 C   0  0  0  0  0  0  0  0  0  0  0  0
  -21.3499  -31.9816   24.3414 C   0  0  0  0  0  0  0  0  0  0  0  0
  -18.9633  -29.7809   23.2888 C   0  0  0  0  0  0  0  0  0  0  0  0
  -28.9265  -14.6850   18.5063 C   0  0  0  0  0  0  0  0  0  0  0  0
  -27.0918  -37.1471   25.4296 C   0  0  0  0  0  0  0  0  0  0  0  0
  -23.8641  -32.8273   21.7769 C   0  0  0  0  0  0  0  0  0  0  0  0
  -22.9858  -30.4103   23.2368 C   0  0  0  0  0  0  0  0  0  0  0  0
  -27.3462  -25.0034   19.5900 C   0  0  0  0  0  0  0  0  0  0  0  0
  -25.7818  -36.5134   25.8910 C   0  0  0  0  0  0  0  0  0  0  0  0
  -30.8612  -11.8035   19.3006 C   0  0  0  0  0  0  0  0  0  0  0  0
  -25.9838  -35.0328   26.1971 C   0  0  0  0  0  0  0  0  0  0  0  0
  -29.8723  -10.6469   19.1385 C   0  0  0  0  0  0  0  0  0  0  0  0
  -30.1899  -13.0464   19.8823 C   0  0  0  0  0  0  0  0  0  0  0  0
  -27.9993  -12.3384   19.0053 C   0  0  0  0  0  0  0  0  0  0  0  0
  -26.4297  -34.2666   24.9458 C   0  0  1  0  0  0  0  0  0  0  0  0
  -23.3404  -32.8994   23.2079 C   0  0  1  0  0  0  0  0  0  0  0  0
  -28.6150  -11.0850   18.3621 C   0  0  2  0  0  0  0  0  0  0  0  0
  -16.5360  -29.2168   23.5847 C   0  0  0  0  0  0  0  0  0  0  0  0
  -21.9746  -30.7257   27.0511 C   0  0  0  0  0  0  0  0  0  0  0  0
  -19.8578  -29.4042   26.8485 C   0  0  0  0  0  0  0  0  0  0  0  0
  -19.7678  -31.8958   26.9275 C   0  0  0  0  0  0  0  0  0  0  0  0
  -18.3840  -30.2574   20.4258 C   0  0  0  0  0  0  0  0  0  0  0  0
  -20.6331  -30.7523   24.8453 C   0  0  1  0  0  0  0  0  0  0  0  0
  -17.5541  -29.9966   22.7672 C   0  0  2  0  0  0  0  0  0  0  0  0
  -20.5784  -30.6928   26.3980 C   0  0  0  0  0  0  0  0  0  0  0  0
  -26.6455   -9.8391   19.1682 N   0  0  0  0  0  0  0  0  0  0  0  0
  -27.6087   -9.9563   18.2384 N   0  0  0  0  0  0  0  0  0  0  0  0
  -28.7600  -24.6730   19.6218 N   0  0  0  0  0  0  0  0  0  0  0  0
  -22.4905  -31.7592   23.5569 N   0  0  0  0  0  0  0  0  0  0  0  0
  -29.0094  -13.4046   19.0931 N   0  0  0  0  0  0  0  0  0  0  0  0
  -28.4453   -8.9752   16.2514 N   0  0  0  0  0  0  0  0  0  0  0  0
  -26.6305  -20.3884   19.3677 N   0  0  0  0  0  0  0  0  0  0  0  0
  -24.9099   -6.3654   17.2934 N   0  0  0  0  0  0  0  0  0  0  0  0
  -27.7734  -14.9001   17.7521 N   0  0  0  0  0  0  0  0  0  0  0  0
  -25.3013  -34.0241   24.0727 N   0  0  0  0  0  0  0  0  0  0  0  0
  -19.3242  -30.7500   24.2008 N   0  0  0  0  0  0  0  0  0  0  0  0
  -28.7251  -20.1002   18.2260 N   0  3  0  0  0  0  0  0  0  0  0  0
  -17.4541  -29.5552   21.3473 N   0  3  0  0  0  0  0  0  0  0  0  0
  -30.2537  -26.3693   20.3367 O   0  0  0  0  0  0  0  0  0  0  0  0
  -26.6150   -6.6783   15.7923 O   0  0  0  0  0  0  0  0  0  0  0  0
  -24.5091  -32.0857   25.0913 O   0  0  0  0  0  0  0  0  0  0  0  0
  -20.9098  -33.0980   24.6272 O   0  0  0  0  0  0  0  0  0  0  0  0
  -19.6716  -28.8442   22.9263 O   0  0  0  0  0  0  0  0  0  0  0  0
  -29.8259  -15.5191   18.6388 O   0  0  0  0  0  0  0  0  0  0  0  0
  -21.5328   -6.9925   21.6795 O   0  0  0  0  0  0  0  0  0  0  0  0
  -25.8650  -27.7293   20.3282 O   0  0  0  0  0  0  0  0  0  1  0  0
  -21.0863   -1.5774   22.6185 F   0  0  0  0  0  0  0  0  0  0  0  0
  -21.4713   -6.0007   24.2592 F   0  0  0  0  0  0  0  0  0  0  0  0
  1  2  1  0  0  0  0
  1  8  2  0  0  0  0
  2  9  2  0  0  0  0
  3  7  2  0  0  0  0
  3 12  1  0  0  0  0
  4 11  2  0  0  0  0
  4 13  1  0  0  0  0
  5 14  2  0  0  0  0
  5 23  1  0  0  0  0
  6 15  1  0  0  0  0
  6 23  2  0  0  0  0
  7 24  1  0  0  0  0
  8 26  1  0  0  0  0
  9 28  1  0  0  0  0
 10 16  2  0  0  0  0
 10 27  1  0  0  0  0
 11 30  1  0  0  0  0
 12 31  2  0  0  0  0
 13 32  2  0  0  0  0
 14 33  1  0  0  0  0
 15 33  2  0  0  0  0
 16 34  1  0  0  0  0
 17 18  2  0  0  0  0
 17 35  1  0  0  0  0
 18 36  1  0  0  0  0
 19 24  2  0  0  0  0
 19 31  1  0  0  0  0
 20 29  1  0  0  0  0
 20 34  2  0  0  0  0
 21 30  2  0  0  0  0
 21 32  1  0  0  0  0
 22 36  2  0  0  0  0
 22 37  1  0  0  0  0
 23 38  1  0  0  0  0
 24 43  1  0  0  0  0
 25 38  1  0  0  0  0
 25 39  2  0  0  0  0
 25 44  1  0  0  0  0
 26 28  2  0  0  0  0
 26 49  1  0  0  0  0
 27 29  2  0  0  0  0
 27 50  1  0  0  0  0
 28 59  1  0  0  0  0
 29 51  1  0  0  0  0
 30 72  1  0  0  0  0
 31 78  1  0  0  0  0
 32 81  1  0  0  0  0
 33 89  1  0  0  0  0
 34 90  1  0  0  0  0
 35 37  2  0  0  0  0
 35 89  1  0  0  0  0
 36 91  1  0  0  0  0
 37 92  1  0  0  0  0
 38 70  2  0  0  0  0
 39 71  1  0  0  0  0
 39 75  1  0  0  0  0
 40 41  1  0  0  0  0
 40 42  2  0  0  0  0
 40 52  1  0  0  0  0
 41 72  1  0  0  0  0
 41 83  2  0  0  0  0
 42 90  1  0  0  0  0
 43 76  1  0  0  0  0
 43 81  2  0  0  0  0
 44 77  1  0  0  0  0
 44 84  2  0  0  0  0
 45 60  1  0  0  0  0
 45 79  1  0  0  0  0
 45 85  2  0  0  0  0
 46 67  1  0  0  0  0
 46 73  1  0  0  0  0
 46 86  2  0  0  0  0
 47 68  1  0  0  0  0
 47 80  1  0  0  0  0
 47 87  2  0  0  0  0
 48 74  1  0  0  0  0
 48 78  1  0  0  0  0
 48 88  2  0  0  0  0
 49 53  1  0  0  0  0
 50 60  1  0  0  0  0
 51 73  1  0  0  0  0
 52 72  1  0  0  0  0
 53 55  1  0  0  0  0
 54 56  1  0  0  0  0
 54 57  1  0  0  0  0
 55 59  1  0  0  0  0
 56 61  1  0  0  0  0
 57 74  1  0  0  0  0
 58 61  1  0  0  0  0
 58 74  1  0  0  0  0
 59 79  1  0  0  0  0
 60 73  1  0  0  0  0
 61 71  1  0  0  0  0
 62 68  1  0  0  0  0
 63 69  1  0  0  0  0
 64 69  1  0  0  0  0
 65 69  1  0  0  0  0
 66 82  1  0  0  0  0
 67 69  1  0  0  0  0
 67 80  1  0  0  0  0
 68 82  1  0  0  0  0
 70 71  1  0  0  0  0
M  CHG  2  81   1  82   1
M  ISO  4  42 101  48 100  78 100  90 101
M  END
> <Batch ID>
0085

> <Smiles>
CNC(C)C(=O)NC(C(=O)N1Cc2cc([101O:1][101CH:1]=C3CN(c4cccc(NC(=N)c5cccc([100NH:0][100C:0](=O)N6CCCC(n7nc(-c8ccc(Oc9ccc(F)cc9F)cc8)c(C(N)=O)c7N)C6)c5)c4)C3=O)ccc2CC1C(=O)NC1CCCc2ccccc21)C(C)(C)C

> <Shape>
0.271

> <Color>
0.062

> <Negative vol penalty>
0.000

$$$$

  -OEChem-04052300153D

 85 94  0     1  0  0  0  0  0999 V2000
  -27.5127  -37.7857   22.3646 C   0  0  0  0  0  0  0  0  0  0  0  0
  -28.0488  -36.7465   21.6108 C   0  0  0  0  0  0  0  0  0  0  0  0
  -24.0426  -10.2194   22.8579 C   0  0  0  0  0  0  0  0  0  0  0  0
  -23.2433  -12.4991   22.8273 C   0  0  0  0  0  0  0  0  0  0  0  0
  -26.7288  -37.5023   23.4823 C   0  0  0  0  0  0  0  0  0  0  0  0
  -27.8021  -35.4233   21.9750 C   0  0  0  0  0  0  0  0  0  0  0  0
  -26.8733  -28.9245   19.1081 C   0  0  0  0  0  0  0  0  0  0  0  0
  -28.0233  -19.9578   20.5176 C   0  0  0  0  0  0  0  0  0  0  0  0
  -30.4144  -19.6824   20.7275 C   0  0  0  0  0  0  0  0  0  0  0  0
  -27.8995  -18.6142   20.1641 C   0  0  0  0  0  0  0  0  0  0  0  0
  -30.2906  -18.3387   20.3740 C   0  0  0  0  0  0  0  0  0  0  0  0
  -23.3619   -9.9968   24.0548 C   0  0  0  0  0  0  0  0  0  0  0  0
  -22.5625  -12.2765   24.0242 C   0  0  0  0  0  0  0  0  0  0  0  0
  -27.3569  -27.6212   19.2146 C   0  0  0  0  0  0  0  0  0  0  0  0
  -20.1870   -9.3716   25.0357 C   0  0  0  0  0  0  0  0  0  0  0  0
  -19.4525   -8.1917   25.1540 C   0  0  0  0  0  0  0  0  0  0  0  0
  -25.9228  -27.2510   21.1186 C   0  0  0  0  0  0  0  0  0  0  0  0
  -20.8028   -7.5410   27.0488 C   0  0  0  0  0  0  0  0  0  0  0  0
  -23.9833  -11.4706   22.2441 C   0  0  0  0  0  0  0  0  0  0  0  0
  -24.1957  -11.5119   19.7023 C   0  0  0  0  0  0  0  0  0  0  0  0
  -26.4645  -36.1749   23.8547 C   0  0  0  0  0  0  0  0  0  0  0  0
  -25.9172  -29.4051   20.0144 C   0  0  0  0  0  0  0  0  0  0  0  0
  -27.0151  -35.1219   23.0994 C   0  0  0  0  0  0  0  0  0  0  0  0
  -25.4268  -28.5599   21.0200 C   0  0  0  0  0  0  0  0  0  0  0  0
  -29.2807  -20.4919   20.7993 C   0  0  0  0  0  0  0  0  0  0  0  0
  -29.0332  -17.8047   20.0923 C   0  0  0  0  0  0  0  0  0  0  0  0
  -22.6218  -11.0253   24.6380 C   0  0  0  0  0  0  0  0  0  0  0  0
  -26.8838  -26.7851   20.2217 C   0  0  0  0  0  0  0  0  0  0  0  0
  -21.2295   -9.6361   25.9240 C   0  0  0  0  0  0  0  0  0  0  0  0
  -19.7603   -7.2764   26.1605 C   0  0  0  0  0  0  0  0  0  0  0  0
  -21.5373   -8.7209   26.9306 C   0  0  0  0  0  0  0  0  0  0  0  0
  -24.6868  -11.7014   21.0080 C   0  0  0  0  0  0  0  0  0  0  0  0
  -25.2418  -11.8687   18.8869 C   0  0  0  0  0  0  0  0  0  0  0  0
  -29.0053  -24.0828   21.2888 C   0  0  0  0  0  0  0  0  0  0  0  0
  -30.1843  -23.7946   22.1170 C   0  0  0  0  0  0  0  0  0  0  0  0
  -28.5182  -22.8280   20.6808 C   0  0  0  0  0  0  0  0  0  0  0  0
  -28.4541  -25.2970   21.1108 C   0  0  0  0  0  0  0  0  0  1  0  0
  -22.9090  -11.0545   19.2656 C   0  0  0  0  0  0  0  0  0  0  0  0
  -25.8414  -31.7455   22.1639 C   0  0  0  0  0  0  0  0  0  0  0  0
  -22.7275  -30.8755   22.4271 C   0  0  0  0  0  0  0  0  0  0  0  0
  -20.3537  -28.4536   22.0447 C   0  0  0  0  0  0  0  0  0  0  0  0
  -29.9311  -15.4997   19.6155 C   0  0  0  0  0  0  0  0  0  0  0  0
  -25.6506  -35.9182   25.0982 C   0  0  0  0  0  0  0  0  0  0  0  0
  -25.3860  -30.8049   19.8696 C   0  0  0  0  0  0  0  0  0  0  0  0
  -24.3855  -29.0212   22.0056 C   0  0  0  0  0  0  0  0  0  0  0  0
  -30.4706  -22.3236   22.0453 C   0  0  0  0  0  0  0  0  0  0  0  0
  -25.1270  -34.4878   25.1989 C   0  0  0  0  0  0  0  0  0  0  0  0
  -30.0269  -12.0371   18.7918 C   0  0  0  0  0  0  0  0  0  0  0  0
  -26.2360  -33.4898   24.8813 C   0  0  0  0  0  0  0  0  0  0  0  0
  -28.6218  -11.5422   19.1421 C   0  0  0  0  0  0  0  0  0  0  0  0
  -30.5200  -13.0913   19.7815 C   0  0  0  0  0  0  0  0  0  0  0  0
  -28.2061  -13.7321   20.3332 C   0  0  0  0  0  0  0  0  0  0  0  0
  -26.7496  -33.6734   23.4481 C   0  0  1  0  0  0  0  0  0  0  0  0
  -24.7915  -31.3550   21.1624 C   0  0  1  0  0  0  0  0  0  0  0  0
  -27.6405  -12.7163   19.3272 C   0  0  2  0  0  0  0  0  0  0  0  0
  -17.9036  -28.0265   22.3790 C   0  0  0  0  0  0  0  0  0  0  0  0
  -23.1874  -30.6027   25.4311 C   0  0  0  0  0  0  0  0  0  0  0  0
  -21.0574  -29.2940   25.5678 C   0  0  0  0  0  0  0  0  0  0  0  0
  -21.0140  -31.6673   24.8009 C   0  0  0  0  0  0  0  0  0  0  0  0
  -19.9312  -27.9408   19.1607 C   0  0  0  0  0  0  0  0  0  0  0  0
  -21.9611  -29.8886   23.2741 C   0  0  1  0  0  0  0  0  0  0  0  0
  -18.9776  -28.4841   21.4044 C   0  0  2  0  0  0  0  0  0  0  0  0
  -21.8260  -30.3548   24.7513 C   0  0  0  0  0  0  0  0  0  0  0  0
  -25.9468  -12.1440   21.0258 N   0  0  0  0  0  0  0  0  0  0  0  0
  -26.2565  -12.2355   19.7213 N   0  0  0  0  0  0  0  0  0  0  0  0
  -29.4045  -21.8338   21.1520 N   0  0  0  0  0  0  0  0  0  0  0  0
  -23.9019  -30.4002   21.8266 N   0  0  0  0  0  0  0  0  0  0  0  0
  -29.5415  -14.1743   19.9022 N   0  0  0  0  0  0  0  0  0  0  0  0
  -25.3836  -11.9011   17.5448 N   0  0  0  0  0  0  0  0  0  0  0  0
  -21.9505  -10.7306   20.2354 N   0  0  0  0  0  0  0  0  0  0  0  0
  -28.9078  -16.4397   19.7331 N   0  0  0  0  0  0  0  0  0  0  0  0
  -25.8265  -33.0854   22.5012 N   0  0  0  0  0  0  0  0  0  0  0  0
  -20.6871  -29.6723   22.5969 N   0  0  0  0  0  0  0  0  0  0  0  0
  -18.9413  -27.5911   20.2118 N   0  3  0  0  0  0  0  0  0  0  0  0
  -30.8234  -24.6132   22.7552 O   0  0  0  0  0  0  0  0  0  0  0  0
  -27.5573  -22.7169   19.9395 O   0  0  0  0  0  0  0  0  0  0  0  0
  -22.6234  -10.9207   18.0515 O   0  0  0  0  0  0  0  0  0  0  0  0
  -26.6072  -30.8938   22.5997 O   0  0  0  0  0  0  0  0  0  0  0  0
  -22.2961  -32.0238   22.2969 O   0  0  0  0  0  0  0  0  0  0  0  0
  -21.0605  -27.4482   22.0572 O   0  0  0  0  0  0  0  0  0  0  0  0
  -31.0806  -15.7765   19.2633 O   0  0  0  0  0  0  0  0  0  0  0  0
  -21.9573  -10.8083   25.8058 O   0  0  0  0  0  0  0  0  0  0  0  0
  -27.3546  -25.5128   20.3282 O   0  0  0  0  0  0  0  0  0  1  0  0
  -19.0539   -6.1442   26.2749 F   0  0  0  0  0  0  0  0  0  0  0  0
  -22.5369   -8.9701   27.7876 F   0  0  0  0  0  0  0  0  0  0  0  0
  1  2  1  0  0  0  0
  1  5  2  0  0  0  0
  2  6  2  0  0  0  0
  3 12  2  0  0  0  0
  3 19  1  0  0  0  0
  4 13  1  0  0  0  0
  4 19  2  0  0  0  0
  5 21  1  0  0  0  0
  6 23  1  0  0  0  0
  7 14  2  0  0  0  0
  7 22  1  0  0  0  0
  8 10  2  0  0  0  0
  8 25  1  0  0  0  0
  9 11  1  0  0  0  0
  9 25  2  0  0  0  0
 10 26  1  0  0  0  0
 11 26  2  0  0  0  0
 12 27  1  0  0  0  0
 13 27  2  0  0  0  0
 14 28  1  0  0  0  0
 15 16  2  0  0  0  0
 15 29  1  0  0  0  0
 16 30  1  0  0  0  0
 17 24  1  0  0  0  0
 17 28  2  0  0  0  0
 18 30  2  0  0  0  0
 18 31  1  0  0  0  0
 19 32  1  0  0  0  0
 20 32  1  0  0  0  0
 20 33  2  0  0  0  0
 20 38  1  0  0  0  0
 21 23  2  0  0  0  0
 21 43  1  0  0  0  0
 22 24  2  0  0  0  0
 22 44  1  0  0  0  0
 23 53  1  0  0  0  0
 24 45  1  0  0  0  0
 25 66  1  0  0  0  0
 26 71  1  0  0  0  0
 27 82  1  0  0  0  0
 28 83  1  0  0  0  0
 29 31  2  0  0  0  0
 29 82  1  0  0  0  0
 30 84  1  0  0  0  0
 31 85  1  0  0  0  0
 32 64  2  0  0  0  0
 33 65  1  0  0  0  0
 33 69  1  0  0  0  0
 34 35  1  0  0  0  0
 34 36  1  0  0  0  0
 34 37  2  0  0  0  0
 35 46  1  0  0  0  0
 35 75  2  0  0  0  0
 36 66  1  0  0  0  0
 36 76  2  0  0  0  0
 37 83  1  0  0  0  0
 38 70  1  0  0  0  0
 38 77  2  0  0  0  0
 39 54  1  0  0  0  0
 39 72  1  0  0  0  0
 39 78  2  0  0  0  0
 40 61  1  0  0  0  0
 40 67  1  0  0  0  0
 40 79  2  0  0  0  0
 41 62  1  0  0  0  0
 41 73  1  0  0  0  0
 41 80  2  0  0  0  0
 42 68  1  0  0  0  0
 42 71  1  0  0  0  0
 42 81  2  0  0  0  0
 43 47  1  0  0  0  0
 44 54  1  0  0  0  0
 45 67  1  0  0  0  0
 46 66  1  0  0  0  0
 47 49  1  0  0  0  0
 48 50  1  0  0  0  0
 48 51  1  0  0  0  0
 49 53  1  0  0  0  0
 50 55  1  0  0  0  0
 51 68  1  0  0  0  0
 52 55  1  0  0  0  0
 52 68  1  0  0  0  0
 53 72  1  0  0  0  0
 54 67  1  0  0  0  0
 55 65  1  0  0  0  0
 56 62  1  0  0  0  0
 57 63  1  0  0  0  0
 58 63  1  0  0  0  0
 59 63  1  0  0  0  0
 60 74  1  0  0  0  0
 61 63  1  0  0  0  0
 61 73  1  0  0  0  0
 62 74  1  0  0  0  0
 64 65  1  0  0  0  0
M  CHG  1  74   1
M  ISO  4  37 101  42 100  71 100  83 101
M  END
> <Batch ID>
0085

> <Smiles>
CNC(C)C(=O)NC(C(=O)N1Cc2cc([101O:1][101CH:1]=C3C(=O)CN(c4ccc([100NH:0][100C:0](=O)N5CCCC(n6nc(-c7ccc(Oc8ccc(F)cc8F)cc7)c(C(N)=O)c6N)C5)cc4)C3=O)ccc2CC1C(=O)NC1CCCc2ccccc21)C(C)(C)C

> <Shape>
0.310

> <Color>
0.088

> <Negative vol penalty>
0.000

$$$$

  -OEChem-04052300153D

 88 97  0     1  0  0  0  0  0999 V2000
  -26.6636  -37.6808   19.9948 C   0  0  0  0  0  0  0  0  0  0  0  0
  -27.3284  -36.4696   19.8324 C   0  0  0  0  0  0  0  0  0  0  0  0
  -23.3467   -9.6879   20.0775 C   0  0  0  0  0  0  0  0  0  0  0  0
  -23.9955   -9.9698   22.3876 C   0  0  0  0  0  0  0  0  0  0  0  0
  -25.6579  -37.7997   20.9531 C   0  0  0  0  0  0  0  0  0  0  0  0
  -26.9886  -35.3767   20.6290 C   0  0  0  0  0  0  0  0  0  0  0  0
  -26.9978  -29.4776   18.9841 C   0  0  0  0  0  0  0  0  0  0  0  0
  -22.7284   -8.4796   20.3985 C   0  0  0  0  0  0  0  0  0  0  0  0
  -23.3772   -8.7614   22.7087 C   0  0  0  0  0  0  0  0  0  0  0  0
  -27.9230  -28.4521   19.1745 C   0  0  0  0  0  0  0  0  0  0  0  0
  -20.2368   -7.6418   23.2611 C   0  0  0  0  0  0  0  0  0  0  0  0
  -19.4368   -7.6083   24.4032 C   0  0  0  0  0  0  0  0  0  0  0  0
  -30.4383  -18.4396   20.3500 C   0  0  0  0  0  0  0  0  0  0  0  0
  -26.7010  -27.7194   21.1211 C   0  0  0  0  0  0  0  0  0  0  0  0
  -28.7159  -18.5763   22.0386 C   0  0  0  0  0  0  0  0  0  0  0  0
  -20.8559   -5.8960   25.3472 C   0  0  0  0  0  0  0  0  0  0  0  0
  -23.9803  -10.4331   21.0720 C   0  0  0  0  0  0  0  0  0  0  0  0
  -30.4448  -19.8304   20.2439 C   0  0  0  0  0  0  0  0  0  0  0  0
  -24.0374  -12.9628   20.7482 C   0  0  0  0  0  0  0  0  0  0  0  0
  -25.2989  -36.7050   21.7552 C   0  0  0  0  0  0  0  0  0  0  0  0
  -25.9216  -29.6386   19.8685 C   0  0  0  0  0  0  0  0  0  0  0  0
  -25.9780  -35.4814   21.5998 C   0  0  0  0  0  0  0  0  0  0  0  0
  -25.7622  -28.7461   20.9382 C   0  0  0  0  0  0  0  0  0  0  0  0
  -29.5868  -20.5942   21.0352 C   0  0  0  0  0  0  0  0  0  0  0  0
  -29.5739  -17.8125   21.2473 C   0  0  0  0  0  0  0  0  0  0  0  0
  -28.7223  -19.9671   21.9326 C   0  0  0  0  0  0  0  0  0  0  0  0
  -22.7436   -8.0163   21.7141 C   0  0  0  0  0  0  0  0  0  0  0  0
  -27.7763  -27.5746   20.2449 C   0  0  0  0  0  0  0  0  0  0  0  0
  -21.3464   -6.8023   23.1620 C   0  0  0  0  0  0  0  0  0  0  0  0
  -19.7463   -6.7355   25.4462 C   0  0  0  0  0  0  0  0  0  0  0  0
  -21.6560   -5.9295   24.2050 C   0  0  0  0  0  0  0  0  0  0  0  0
  -24.6197  -11.6811   20.7409 C   0  0  0  0  0  0  0  0  0  0  0  0
  -25.0525  -13.8033   20.3615 C   0  0  0  0  0  0  0  0  0  0  0  0
  -29.0171  -24.2255   20.5856 C   0  0  0  0  0  0  0  0  0  0  0  0
  -28.5088  -22.8280   20.5602 C   0  0  0  0  0  0  0  0  0  0  0  0
  -28.2231  -25.2849   20.4122 C   0  0  0  0  0  0  0  0  0  1  0  0
  -31.3600  -20.4515   19.2941 C   0  0  0  0  0  0  0  0  0  0  0  0
  -22.6987  -13.3582   21.0755 C   0  0  0  0  0  0  0  0  0  0  0  0
  -24.9702  -31.9353   21.8493 C   0  0  0  0  0  0  0  0  0  0  0  0
  -22.3868  -30.0088   22.2193 C   0  0  0  0  0  0  0  0  0  0  0  0
  -21.0672  -26.8664   22.0435 C   0  0  0  0  0  0  0  0  0  0  0  0
  -30.3503  -15.4937   20.6419 C   0  0  0  0  0  0  0  0  0  0  0  0
  -24.2379  -36.8950   22.8101 C   0  0  0  0  0  0  0  0  0  0  0  0
  -24.9173  -30.7334   19.6338 C   0  0  0  0  0  0  0  0  0  0  0  0
  -24.6128  -28.8636   21.9044 C   0  0  0  0  0  0  0  0  0  0  0  0
  -30.4821  -24.2369   20.8492 C   0  0  0  0  0  0  0  0  0  0  0  0
  -23.6808  -35.5831   23.3569 C   0  0  0  0  0  0  0  0  0  0  0  0
  -29.6272  -12.7819   18.4509 C   0  0  0  0  0  0  0  0  0  0  0  0
  -24.8148  -34.6169   23.6843 C   0  0  0  0  0  0  0  0  0  0  0  0
  -28.2121  -12.3592   18.8520 C   0  0  0  0  0  0  0  0  0  0  0  0
  -30.7695  -22.8040   21.2659 C   0  0  0  0  0  0  0  0  0  0  0  0
  -30.4546  -13.2131   19.6606 C   0  0  0  0  0  0  0  0  0  0  0  0
  -28.4166  -13.8184   20.9053 C   0  0  0  0  0  0  0  0  0  0  0  0
  -25.6209  -34.2661   22.4278 C   0  0  1  0  0  0  0  0  0  0  0  0
  -24.1476  -31.1184   20.8935 C   0  0  1  0  0  0  0  0  0  0  0  0
  -27.5245  -13.4373   19.7125 C   0  0  2  0  0  0  0  0  0  0  0  0
  -32.8263  -20.2028   19.4855 C   0  0  0  0  0  0  0  0  0  0  0  0
  -18.9389  -25.5984   22.4435 C   0  0  0  0  0  0  0  0  0  0  0  0
  -22.8792  -30.1363   25.2279 C   0  0  0  0  0  0  0  0  0  0  0  0
  -21.3734  -28.1530   25.4880 C   0  0  0  0  0  0  0  0  0  0  0  0
  -20.4746  -30.2857   24.5570 C   0  0  0  0  0  0  0  0  0  0  0  0
  -20.8954  -26.0318   19.2092 C   0  0  0  0  0  0  0  0  0  0  0  0
  -22.0243  -28.8727   23.1450 C   0  0  1  0  0  0  0  0  0  0  0  0
  -19.7828  -26.3465   21.4233 C   0  0  2  0  0  0  0  0  0  0  0  0
  -21.7107  -29.3606   24.5876 C   0  0  0  0  0  0  0  0  0  0  0  0
  -25.9050  -11.7008   20.3780 N   0  0  0  0  0  0  0  0  0  0  0  0
  -26.1387  -13.0051   20.1537 N   0  0  0  0  0  0  0  0  0  0  0  0
  -29.5933  -22.0194   20.9245 N   0  0  0  0  0  0  0  0  0  0  0  0
  -23.6608  -29.9541   21.6363 N   0  0  0  0  0  0  0  0  0  0  0  0
  -29.7424  -14.2389   20.4257 N   0  0  0  0  0  0  0  0  0  0  0  0
  -27.8427  -20.7197   22.7432 N   0  0  0  0  0  0  0  0  0  0  0  0
  -25.1130  -15.1400   20.1821 N   0  0  0  0  0  0  0  0  0  0  0  0
  -21.7826  -12.3669   21.4530 N   0  0  0  0  0  0  0  0  0  0  0  0
  -29.5652  -16.3997   21.3542 N   0  0  0  0  0  0  0  0  0  0  0  0
  -24.9074  -33.2972   21.6238 N   0  0  0  0  0  0  0  0  0  0  0  0
  -20.9256  -28.1584   22.5037 N   0  0  0  0  0  0  0  0  0  0  0  0
  -20.0895  -25.4200   20.2970 N   0  3  0  0  0  0  0  0  0  0  0  0
  -27.3587  -22.5390   20.2748 O   0  0  0  0  0  0  0  0  0  0  0  0
  -31.0175  -21.1665   18.3527 O   0  0  0  0  0  0  0  0  0  0  0  0
  -22.3214  -14.5532   21.0186 O   0  0  0  0  0  0  0  0  0  0  0  0
  -25.6130  -31.3719   22.7274 O   0  0  0  0  0  0  0  0  0  0  0  0
  -21.5671  -30.9077   22.0153 O   0  0  0  0  0  0  0  0  0  0  0  0
  -22.0923  -26.1924   22.1160 O   0  0  0  0  0  0  0  0  0  0  0  0
  -31.4730  -15.7553   20.2024 O   0  0  0  0  0  0  0  0  0  0  0  0
  -22.1402   -6.8373   22.0278 O   0  0  0  0  0  0  0  0  0  0  0  0
  -28.6783  -26.5733   20.4335 O   0  0  0  0  0  0  0  0  0  1  0  0
  -18.9788   -6.7045   26.5436 F   0  0  0  0  0  0  0  0  0  0  0  0
  -22.7213   -5.1214   24.1160 F   0  0  0  0  0  0  0  0  0  0  0  0
  1  2  1  0  0  0  0
  1  5  2  0  0  0  0
  2  6  2  0  0  0  0
  3  8  2  0  0  0  0
  3 17  1  0  0  0  0
  4  9  1  0  0  0  0
  4 17  2  0  0  0  0
  5 20  1  0  0  0  0
  6 22  1  0  0  0  0
  7 10  2  0  0  0  0
  7 21  1  0  0  0  0
  8 27  1  0  0  0  0
  9 27  2  0  0  0  0
 10 28  1  0  0  0  0
 11 12  2  0  0  0  0
 11 29  1  0  0  0  0
 12 30  1  0  0  0  0
 13 18  1  0  0  0  0
 13 25  2  0  0  0  0
 14 23  1  0  0  0  0
 14 28  2  0  0  0  0
 15 25  1  0  0  0  0
 15 26  2  0  0  0  0
 16 30  2  0  0  0  0
 16 31  1  0  0  0  0
 17 32  1  0  0  0  0
 18 24  2  0  0  0  0
 18 37  1  0  0  0  0
 19 32  1  0  0  0  0
 19 33  2  0  0  0  0
 19 38  1  0  0  0  0
 20 22  2  0  0  0  0
 20 43  1  0  0  0  0
 21 23  2  0  0  0  0
 21 44  1  0  0  0  0
 22 54  1  0  0  0  0
 23 45  1  0  0  0  0
 24 26  1  0  0  0  0
 24 68  1  0  0  0  0
 25 74  1  0  0  0  0
 26 71  1  0  0  0  0
 27 85  1  0  0  0  0
 28 86  1  0  0  0  0
 29 31  2  0  0  0  0
 29 85  1  0  0  0  0
 30 87  1  0  0  0  0
 31 88  1  0  0  0  0
 32 66  2  0  0  0  0
 33 67  1  0  0  0  0
 33 72  1  0  0  0  0
 34 35  1  0  0  0  0
 34 36  2  0  0  0  0
 34 46  1  0  0  0  0
 35 68  1  0  0  0  0
 35 78  2  0  0  0  0
 36 86  1  0  0  0  0
 37 57  1  0  0  0  0
 37 79  2  0  0  0  0
 38 73  1  0  0  0  0
 38 80  2  0  0  0  0
 39 55  1  0  0  0  0
 39 75  1  0  0  0  0
 39 81  2  0  0  0  0
 40 63  1  0  0  0  0
 40 69  1  0  0  0  0
 40 82  2  0  0  0  0
 41 64  1  0  0  0  0
 41 76  1  0  0  0  0
 41 83  2  0  0  0  0
 42 70  1  0  0  0  0
 42 74  1  0  0  0  0
 42 84  2  0  0  0  0
 43 47  1  0  0  0  0
 44 55  1  0  0  0  0
 45 69  1  0  0  0  0
 46 51  1  0  0  0  0
 47 49  1  0  0  0  0
 48 50  1  0  0  0  0
 48 52  1  0  0  0  0
 49 54  1  0  0  0  0
 50 56  1  0  0  0  0
 51 68  1  0  0  0  0
 52 70  1  0  0  0  0
 53 56  1  0  0  0  0
 53 70  1  0  0  0  0
 54 75  1  0  0  0  0
 55 69  1  0  0  0  0
 56 67  1  0  0  0  0
 58 64  1  0  0  0  0
 59 65  1  0  0  0  0
 60 65  1  0  0  0  0
 61 65  1  0  0  0  0
 62 77  1  0  0  0  0
 63 65  1  0  0  0  0
 63 76  1  0  0  0  0
 64 77  1  0  0  0  0
 66 67  1  0  0  0  0
M  CHG  1  77   1
M  ISO  4  36 101  42 100  74 100  86 101
M  END
> <Batch ID>
0085

> <Smiles>
CNC(C)C(=O)NC(C(=O)N1Cc2cc([101O:1][101CH:1]=C3CCN(c4c(N)cc([100NH:0][100C:0](=O)N5CCCC(n6nc(-c7ccc(Oc8ccc(F)cc8F)cc7)c(C(N)=O)c6N)C5)cc4C(C)=O)C3=O)ccc2CC1C(=O)NC1CCCc2ccccc21)C(C)(C)C

> <Shape>
0.394

> <Color>
0.202

> <Negative vol penalty>
0.000

$$$$

  -OEChem-04052300153D

 87 96  0     1  0  0  0  0  0999 V2000
  -34.5820  -31.8517   32.1276 C   0  0  0  0  0  0  0  0  0  0  0  0
  -34.4349  -30.5339   31.7064 C   0  0  0  0  0  0  0  0  0  0  0  0
  -23.0323   -9.9854   19.9296 C   0  0  0  0  0  0  0  0  0  0  0  0
  -23.8600   -9.8718   22.1966 C   0  0  0  0  0  0  0  0  0  0  0  0
  -33.5749  -32.7810   31.8706 C   0  0  0  0  0  0  0  0  0  0  0  0
  -33.2800  -30.1445   31.0290 C   0  0  0  0  0  0  0  0  0  0  0  0
  -32.8648  -25.9942   26.5448 C   0  0  0  0  0  0  0  0  0  0  0  0
  -32.1976  -16.4656   22.5800 C   0  0  0  0  0  0  0  0  0  0  0  0
  -32.8258  -17.2993   23.5052 C   0  0  0  0  0  0  0  0  0  0  0  0
  -22.2782   -8.8323   20.1472 C   0  0  0  0  0  0  0  0  0  0  0  0
  -23.1058   -8.7188   22.4142 C   0  0  0  0  0  0  0  0  0  0  0  0
  -32.4902  -24.6513   26.5413 C   0  0  0  0  0  0  0  0  0  0  0  0
  -19.8849   -7.9391   23.0762 C   0  0  0  0  0  0  0  0  0  0  0  0
  -19.1625   -7.8540   24.2663 C   0  0  0  0  0  0  0  0  0  0  0  0
  -30.2483  -25.2845   25.9154 C   0  0  0  0  0  0  0  0  0  0  0  0
  -30.0458  -17.3182   23.2728 C   0  0  0  0  0  0  0  0  0  0  0  0
  -20.3948   -5.8660   24.8721 C   0  0  0  0  0  0  0  0  0  0  0  0
  -23.8232  -10.5051   20.9543 C   0  0  0  0  0  0  0  0  0  0  0  0
  -24.2009  -13.0280   20.9437 C   0  0  0  0  0  0  0  0  0  0  0  0
  -32.4113  -32.4050   31.1812 C   0  0  0  0  0  0  0  0  0  0  0  0
  -31.9297  -26.9948   26.2437 C   0  0  0  0  0  0  0  0  0  0  0  0
  -32.2558  -31.0693   30.7637 C   0  0  0  0  0  0  0  0  0  0  0  0
  -30.6142  -26.6392   25.9132 C   0  0  0  0  0  0  0  0  0  0  0  0
  -30.6740  -18.1518   24.1980 C   0  0  0  0  0  0  0  0  0  0  0  0
  -30.8075  -16.4751   22.4637 C   0  0  0  0  0  0  0  0  0  0  0  0
  -32.0640  -18.1424   24.3142 C   0  0  0  0  0  0  0  0  0  0  0  0
  -22.3149   -8.1990   21.3895 C   0  0  0  0  0  0  0  0  0  0  0  0
  -31.1811  -24.2964   26.2295 C   0  0  0  0  0  0  0  0  0  0  0  0
  -20.8622   -6.9876   22.7839 C   0  0  0  0  0  0  0  0  0  0  0  0
  -19.4175   -6.8175   25.1643 C   0  0  0  0  0  0  0  0  0  0  0  0
  -21.1171   -5.9511   23.6818 C   0  0  0  0  0  0  0  0  0  0  0  0
  -24.6029  -11.6959   20.7300 C   0  0  0  0  0  0  0  0  0  0  0  0
  -25.2934  -13.7784   20.5833 C   0  0  0  0  0  0  0  0  0  0  0  0
  -28.3482  -20.6207   26.7000 C   0  0  0  0  0  0  0  0  0  0  0  0
  -28.9307  -18.4465   25.8571 C   0  0  0  0  0  0  0  0  0  0  0  0
  -29.2381  -21.2251   25.9014 C   0  0  0  0  0  0  0  0  0  0  0  0
  -28.1816  -19.1962   26.6708 C   0  0  0  0  0  0  0  0  0  0  0  0
  -30.0623  -20.4001   24.9436 C   0  0  0  0  0  0  0  0  0  0  0  0
  -22.9517  -13.5412   21.4251 C   0  0  0  0  0  0  0  0  0  0  0  0
  -30.6979  -29.4626   27.8236 C   0  0  0  0  0  0  0  0  0  0  0  0
  -29.3218  -30.1100   24.9584 C   0  0  0  0  0  0  0  0  0  0  0  0
  -28.2457  -28.9525   21.9337 C   0  0  0  0  0  0  0  0  0  0  0  0
  -30.7781  -14.7364   20.6410 C   0  0  0  0  0  0  0  0  0  0  0  0
  -31.3293  -33.4338   30.9682 C   0  0  0  0  0  0  0  0  0  0  0  0
  -32.3563  -28.4370   26.2256 C   0  0  0  0  0  0  0  0  0  0  0  0
  -29.5773  -27.6739   25.5629 C   0  0  0  0  0  0  0  0  0  0  0  0
  -30.3015  -33.0277   29.9151 C   0  0  0  0  0  0  0  0  0  0  0  0
  -29.5561  -12.4548   18.1960 C   0  0  0  0  0  0  0  0  0  0  0  0
  -29.8508  -31.5874   30.1366 C   0  0  0  0  0  0  0  0  0  0  0  0
  -28.1254  -12.1635   18.6549 C   0  0  0  0  0  0  0  0  0  0  0  0
  -30.5100  -12.6128   19.3787 C   0  0  0  0  0  0  0  0  0  0  0  0
  -28.6565  -13.2974   20.8502 C   0  0  0  0  0  0  0  0  0  0  0  0
  -31.0285  -30.6143   30.0043 C   0  0  1  0  0  0  0  0  0  0  0  0
  -31.1925  -29.4067   26.4059 C   0  0  1  0  0  0  0  0  0  0  0  0
  -27.6465  -13.1946   19.6956 C   0  0  2  0  0  0  0  0  0  0  0  0
  -27.1288  -29.7108   19.8183 C   0  0  0  0  0  0  0  0  0  0  0  0
  -26.6370  -30.1867   26.4063 C   0  0  0  0  0  0  0  0  0  0  0  0
  -25.5094  -29.9931   24.1794 C   0  0  0  0  0  0  0  0  0  0  0  0
  -26.9434  -31.9715   24.6815 C   0  0  0  0  0  0  0  0  0  0  0  0
  -30.5836  -28.1877   20.2879 C   0  0  0  0  0  0  0  0  0  0  0  0
  -29.4550  -22.6945   25.8973 C   0  0  0  0  0  0  0  0  0  1  0  0
  -28.0289  -29.7234   24.2817 C   0  0  1  0  0  0  0  0  0  0  0  0
  -28.4552  -29.4735   20.5233 C   0  0  2  0  0  0  0  0  0  0  0  0
  -26.7985  -30.4490   24.8957 C   0  0  0  0  0  0  0  0  0  0  0  0
  -25.8531  -11.6022   20.2694 N   0  0  0  0  0  0  0  0  0  0  0  0
  -26.2461  -12.8849   20.1906 N   0  0  0  0  0  0  0  0  0  0  0  0
  -29.8866  -18.9926   25.0013 N   0  0  0  0  0  0  0  0  0  0  0  0
  -30.0416  -29.0710   25.5651 N   0  0  0  0  0  0  0  0  0  0  0  0
  -29.9935  -13.6083   20.3206 N   0  0  0  0  0  0  0  0  0  0  0  0
  -32.7211  -18.9768   25.2461 N   0  0  0  0  0  0  0  0  0  0  0  0
  -25.5224  -15.1087   20.5671 N   0  0  0  0  0  0  0  0  0  0  0  0
  -21.9361  -12.6315   21.7495 N   0  0  0  0  0  0  0  0  0  0  0  0
  -30.1699  -15.6304   21.5216 N   0  0  0  0  0  0  0  0  0  0  0  0
  -31.3482  -30.3943   28.6100 N   0  0  0  0  0  0  0  0  0  0  0  0
  -28.2222  -29.9756   22.8578 N   0  0  0  0  0  0  0  0  0  0  0  0
  -29.2451  -28.4962   19.7221 N   0  3  0  0  0  0  0  0  0  0  0  0
  -30.8505  -20.9621   24.1810 O   0  0  0  0  0  0  0  0  0  0  0  0
  -22.7365  -14.7709   21.5478 O   0  0  0  0  0  0  0  0  0  0  0  0
  -29.7923  -28.7167   28.1774 O   0  0  0  0  0  0  0  0  0  0  0  0
  -29.6833  -31.2893   24.9430 O   0  0  0  0  0  0  0  0  0  0  0  0
  -28.1123  -27.7578   22.1895 O   0  0  0  0  0  0  0  0  0  0  0  0
  -31.8953  -14.9112   20.1477 O   0  0  0  0  0  0  0  0  0  0  0  0
  -27.2327  -18.6908   27.5257 O   0  0  0  0  0  0  0  0  0  0  0  0
  -21.5790   -7.0739   21.6022 O   0  0  0  0  0  0  0  0  0  0  0  0
  -30.8126  -22.9864   26.2260 O   0  0  0  0  0  0  0  0  0  1  0  0
  -18.7248   -6.7368   26.3079 F   0  0  0  0  0  0  0  0  0  0  0  0
  -22.0556   -5.0348   23.4071 F   0  0  0  0  0  0  0  0  0  0  0  0
  1  2  1  0  0  0  0
  1  5  2  0  0  0  0
  2  6  2  0  0  0  0
  3 10  2  0  0  0  0
  3 18  1  0  0  0  0
  4 11  1  0  0  0  0
  4 18  2  0  0  0  0
  5 20  1  0  0  0  0
  6 22  1  0  0  0  0
  7 12  2  0  0  0  0
  7 21  1  0  0  0  0
  8  9  2  0  0  0  0
  8 25  1  0  0  0  0
  9 26  1  0  0  0  0
 10 27  1  0  0  0  0
 11 27  2  0  0  0  0
 12 28  1  0  0  0  0
 13 14  2  0  0  0  0
 13 29  1  0  0  0  0
 14 30  1  0  0  0  0
 15 23  1  0  0  0  0
 15 28  2  0  0  0  0
 16 24  1  0  0  0  0
 16 25  2  0  0  0  0
 17 30  2  0  0  0  0
 17 31  1  0  0  0  0
 18 32  1  0  0  0  0
 19 32  1  0  0  0  0
 19 33  2  0  0  0  0
 19 39  1  0  0  0  0
 20 22  2  0  0  0  0
 20 44  1  0  0  0  0
 21 23  2  0  0  0  0
 21 45  1  0  0  0  0
 22 53  1  0  0  0  0
 23 46  1  0  0  0  0
 24 26  2  0  0  0  0
 24 67  1  0  0  0  0
 25 73  1  0  0  0  0
 26 70  1  0  0  0  0
 27 84  1  0  0  0  0
 28 85  1  0  0  0  0
 29 31  2  0  0  0  0
 29 84  1  0  0  0  0
 30 86  1  0  0  0  0
 31 87  1  0  0  0  0
 32 65  2  0  0  0  0
 33 66  1  0  0  0  0
 33 71  1  0  0  0  0
 34 36  2  0  0  0  0
 34 37  1  0  0  0  0
 35 37  2  0  0  0  0
 35 67  1  0  0  0  0
 36 38  1  0  0  0  0
 36 61  1  0  0  0  0
 37 83  1  0  0  0  0
 38 67  1  0  0  0  0
 38 77  2  0  0  0  0
 39 72  1  0  0  0  0
 39 78  2  0  0  0  0
 40 54  1  0  0  0  0
 40 74  1  0  0  0  0
 40 79  2  0  0  0  0
 41 62  1  0  0  0  0
 41 68  1  0  0  0  0
 41 80  2  0  0  0  0
 42 63  1  0  0  0  0
 42 75  1  0  0  0  0
 42 81  2  0  0  0  0
 43 69  1  0  0  0  0
 43 73  1  0  0  0  0
 43 82  2  0  0  0  0
 44 47  1  0  0  0  0
 45 54  1  0  0  0  0
 46 68  1  0  0  0  0
 47 49  1  0  0  0  0
 48 50  1  0  0  0  0
 48 51  1  0  0  0  0
 49 53  1  0  0  0  0
 50 55  1  0  0  0  0
 51 69  1  0  0  0  0
 52 55  1  0  0  0  0
 52 69  1  0  0  0  0
 53 74  1  0  0  0  0
 54 68  1  0  0  0  0
 55 66  1  0  0  0  0
 56 63  1  0  0  0  0
 57 64  1  0  0  0  0
 58 64  1  0  0  0  0
 59 64  1  0  0  0  0
 60 76  1  0  0  0  0
 61 85  1  0  0  0  0
 62 64  1  0  0  0  0
 62 75  1  0  0  0  0
 63 76  1  0  0  0  0
 65 66  1  0  0  0  0
M  CHG  1  76   1
M  ISO  4  43 100  61 101  73 100  85 101
M  END
> <Batch ID>
0085

> <Smiles>
CNC(C)C(=O)NC(C(=O)N1Cc2cc([101O:1][101CH2:1]C3=CC(=O)CN(c4cc([100NH:0][100C:0](=O)N5CCCC(n6nc(-c7ccc(Oc8ccc(F)cc8F)cc7)c(C(N)=O)c6N)C5)ccc4N)C3=O)ccc2CC1C(=O)NC1CCCc2ccccc21)C(C)(C)C

> <Shape>
0.223

> <Color>
0.185

> <Negative vol penalty>
0.000

$$$$

  -OEChem-04052300153D

 83 91  0     1  0  0  0  0  0999 V2000
  -28.2036  -33.9910   25.1235 C   0  0  0  0  0  0  0  0  0  0  0  0
  -28.3157  -32.6490   24.7745 C   0  0  0  0  0  0  0  0  0  0  0  0
  -23.9291  -11.9275   23.7189 C   0  0  0  0  0  0  0  0  0  0  0  0
  -23.2166  -14.0765   22.8756 C   0  0  0  0  0  0  0  0  0  0  0  0
  -30.6868  -19.8546   18.6019 C   0  0  0  0  0  0  0  0  0  0  0  0
  -26.9434  -34.5659   25.2821 C   0  0  0  0  0  0  0  0  0  0  0  0
  -27.1675  -31.8808   24.5849 C   0  0  0  0  0  0  0  0  0  0  0  0
  -27.4267  -28.9912   20.4342 C   0  0  0  0  0  0  0  0  0  0  0  0
  -30.5148  -18.4768   18.7348 C   0  0  0  0  0  0  0  0  0  0  0  0
  -23.2230  -12.1567   24.8997 C   0  0  0  0  0  0  0  0  0  0  0  0
  -22.5104  -14.3058   24.0565 C   0  0  0  0  0  0  0  0  0  0  0  0
  -28.1850  -27.8243   20.5171 C   0  0  0  0  0  0  0  0  0  0  0  0
  -21.3127  -12.0206   27.9896 C   0  0  0  0  0  0  0  0  0  0  0  0
  -20.5355  -10.9776   28.4934 C   0  0  0  0  0  0  0  0  0  0  0  0
  -28.3119  -20.1165   18.2440 C   0  0  0  0  0  0  0  0  0  0  0  0
  -26.1663  -26.5422   20.8341 C   0  0  0  0  0  0  0  0  0  0  0  0
  -19.2355  -10.9629   26.4570 C   0  0  0  0  0  0  0  0  0  0  0  0
  -23.9260  -12.8874   22.7068 C   0  0  0  0  0  0  0  0  0  0  0  0
  -29.5853  -20.6745   18.3565 C   0  0  0  0  0  0  0  0  0  0  0  0
  -24.1771  -12.0336   20.3161 C   0  0  0  0  0  0  0  0  0  0  0  0
  -25.7791  -33.8068   25.0850 C   0  0  0  0  0  0  0  0  0  0  0  0
  -26.0310  -28.9437   20.5617 C   0  0  0  0  0  0  0  0  0  0  0  0
  -25.8905  -32.4457   24.7424 C   0  0  0  0  0  0  0  0  0  0  0  0
  -25.3924  -27.7097   20.7499 C   0  0  0  0  0  0  0  0  0  0  0  0
  -29.2414  -17.9188   18.6223 C   0  0  0  0  0  0  0  0  0  0  0  0
  -22.5136  -13.3458   25.0685 C   0  0  0  0  0  0  0  0  0  0  0  0
  -27.5551  -26.5998   20.7200 C   0  0  0  0  0  0  0  0  0  0  0  0
  -21.0513  -12.5348   26.7196 C   0  0  0  0  0  0  0  0  0  0  0  0
  -19.4969  -10.4487   27.7271 C   0  0  0  0  0  0  0  0  0  0  0  0
  -28.1399  -18.7387   18.3769 C   0  0  0  0  0  0  0  0  0  0  0  0
  -20.0127  -12.0059   25.9533 C   0  0  0  0  0  0  0  0  0  0  0  0
  -24.6557  -12.6515   21.4870 C   0  0  0  0  0  0  0  0  0  0  0  0
  -25.2478  -12.0520   19.4560 C   0  0  0  0  0  0  0  0  0  0  0  0
  -28.7537  -23.3604   19.8259 C   0  0  0  0  0  0  0  0  0  0  0  0
  -29.7690  -22.1452   18.2144 C   0  0  0  0  0  0  0  0  0  0  0  0
  -22.8807  -11.4915   20.0314 C   0  0  0  0  0  0  0  0  0  0  0  0
  -23.9219  -30.1672   22.6010 C   0  0  0  0  0  0  0  0  0  0  0  0
  -21.7701  -28.9159   20.5210 C   0  0  0  0  0  0  0  0  0  0  0  0
  -21.0836  -26.6115   18.0992 C   0  0  0  0  0  0  0  0  0  0  0  0
  -30.0590  -15.5664   19.0016 C   0  0  0  0  0  0  0  0  0  0  0  0
  -24.4392  -34.4601   25.3141 C   0  0  0  0  0  0  0  0  0  0  0  0
  -25.2251  -30.2082   20.4432 C   0  0  0  0  0  0  0  0  0  0  0  0
  -23.8951  -27.6022   20.8728 C   0  0  0  0  0  0  0  0  0  0  0  0
  -23.2697  -33.6728   24.7286 C   0  0  0  0  0  0  0  0  0  0  0  0
  -30.0367  -12.0326   19.4369 C   0  0  0  0  0  0  0  0  0  0  0  0
  -23.3878  -32.1950   25.0879 C   0  0  0  0  0  0  0  0  0  0  0  0
  -28.6089  -11.7334   19.8996 C   0  0  0  0  0  0  0  0  0  0  0  0
  -30.5544  -13.3503   20.0109 C   0  0  0  0  0  0  0  0  0  0  0  0
  -28.2584  -14.2126   20.2427 C   0  0  0  0  0  0  0  0  0  0  0  0
  -24.6682  -31.5860   24.5038 C   0  0  1  0  0  0  0  0  0  0  0  0
  -23.8526  -30.1059   21.1013 C   0  0  1  0  0  0  0  0  0  0  0  0
  -27.6699  -12.9273   19.6382 C   0  0  2  0  0  0  0  0  0  0  0  0
  -19.2269  -25.8073   16.6148 C   0  0  0  0  0  0  0  0  0  0  0  0
  -20.4942  -27.4862   22.8954 C   0  0  0  0  0  0  0  0  0  0  0  0
  -19.2991  -26.0028   21.2707 C   0  0  0  0  0  0  0  0  0  0  0  0
  -18.8658  -28.4594   21.2658 C   0  0  0  0  0  0  0  0  0  0  0  0
  -22.5963  -27.2857   15.6465 C   0  0  0  0  0  0  0  0  0  0  0  0
  -27.6740  -24.2521   20.3596 C   0  0  0  0  0  0  0  0  0  1  0  0
  -21.0673  -27.5873   20.3800 C   0  0  1  0  0  0  0  0  0  0  0  0
  -20.4176  -26.7449   16.7416 C   0  0  2  0  0  0  0  0  0  0  0  0
  -19.9600  -27.3858   21.4526 C   0  0  0  0  0  0  0  0  0  0  0  0
  -25.9311  -13.0344   21.3836 N   0  0  0  0  0  0  0  0  0  0  0  0
  -28.7389  -22.9725   18.5919 N   0  0  0  0  0  0  0  0  0  0  0  0
  -26.2631  -12.6560   20.1375 N   0  0  0  0  0  0  0  0  0  0  0  0
  -23.1514  -28.8674   20.7565 N   0  0  0  0  0  0  0  0  0  0  0  0
  -29.6157  -14.4364   19.7209 N   0  0  0  0  0  0  0  0  0  0  0  0
  -25.4104  -11.6102   18.1908 N   0  0  0  0  0  0  0  0  0  0  0  0
  -21.8965  -11.5551   21.0272 N   0  0  0  0  0  0  0  0  0  0  0  0
  -29.0701  -16.5187   18.7573 N   0  0  0  0  0  0  0  0  0  0  0  0
  -24.5030  -31.3213   23.0906 N   0  0  0  0  0  0  0  0  0  0  0  0
  -20.5853  -27.5245   19.0044 N   0  0  0  0  0  0  0  0  0  0  0  0
  -30.8359  -22.6628   17.7161 N   0  3  0  0  0  0  0  0  0  0  0  0
  -21.3864  -26.4238   15.6556 N   0  3  0  0  0  0  0  0  0  0  0  0
  -22.6081  -10.9516   18.9324 O   0  0  0  0  0  0  0  0  0  0  0  0
  -23.4795  -29.2369   23.2648 O   0  0  0  0  0  0  0  0  0  0  0  0
  -21.1187  -29.9585   20.4186 O   0  0  0  0  0  0  0  0  0  0  0  0
  -21.9557  -25.7780   18.3343 O   0  0  0  0  0  0  0  0  0  0  0  0
  -31.2232  -15.6682   18.6061 O   0  0  0  0  0  0  0  0  0  0  0  0
  -21.8243  -13.5697   26.2206 O   0  0  0  0  0  0  0  0  0  0  0  0
  -28.2930  -25.4594   20.8020 O   0  0  0  0  0  0  0  0  0  1  0  0
  -18.7517   -9.4461   28.2103 F   0  0  0  0  0  0  0  0  0  0  0  0
  -26.9111  -18.2135   18.2663 F   0  0  0  0  0  0  0  0  0  0  0  0
  -19.7575  -12.4949   24.7320 F   0  0  0  0  0  0  0  0  0  0  0  0
  1  2  1  0  0  0  0
  1  6  2  0  0  0  0
  2  7  2  0  0  0  0
  3 10  2  0  0  0  0
  3 18  1  0  0  0  0
  4 11  1  0  0  0  0
  4 18  2  0  0  0  0
  5  9  2  0  0  0  0
  5 19  1  0  0  0  0
  6 21  1  0  0  0  0
  7 23  1  0  0  0  0
  8 12  2  0  0  0  0
  8 22  1  0  0  0  0
  9 25  1  0  0  0  0
 10 26  1  0  0  0  0
 11 26  2  0  0  0  0
 12 27  1  0  0  0  0
 13 14  2  0  0  0  0
 13 28  1  0  0  0  0
 14 29  1  0  0  0  0
 15 19  2  0  0  0  0
 15 30  1  0  0  0  0
 16 24  1  0  0  0  0
 16 27  2  0  0  0  0
 17 29  2  0  0  0  0
 17 31  1  0  0  0  0
 18 32  1  0  0  0  0
 19 35  1  0  0  0  0
 20 32  1  0  0  0  0
 20 33  2  0  0  0  0
 20 36  1  0  0  0  0
 21 23  2  0  0  0  0
 21 41  1  0  0  0  0
 22 24  2  0  0  0  0
 22 42  1  0  0  0  0
 23 50  1  0  0  0  0
 24 43  1  0  0  0  0
 25 30  2  0  0  0  0
 25 69  1  0  0  0  0
 26 79  1  0  0  0  0
 27 80  1  0  0  0  0
 28 31  2  0  0  0  0
 28 79  1  0  0  0  0
 29 81  1  0  0  0  0
 30 82  1  0  0  0  0
 31 83  1  0  0  0  0
 32 62  2  0  0  0  0
 33 64  1  0  0  0  0
 33 67  1  0  0  0  0
 34 58  1  0  0  0  0
 34 63  2  0  0  0  0
 35 63  1  0  0  0  0
 35 72  2  0  0  0  0
 36 68  1  0  0  0  0
 36 74  2  0  0  0  0
 37 51  1  0  0  0  0
 37 70  1  0  0  0  0
 37 75  2  0  0  0  0
 38 59  1  0  0  0  0
 38 65  1  0  0  0  0
 38 76  2  0  0  0  0
 39 60  1  0  0  0  0
 39 71  1  0  0  0  0
 39 77  2  0  0  0  0
 40 66  1  0  0  0  0
 40 69  1  0  0  0  0
 40 78  2  0  0  0  0
 41 44  1  0  0  0  0
 42 51  1  0  0  0  0
 43 65  1  0  0  0  0
 44 46  1  0  0  0  0
 45 47  1  0  0  0  0
 45 48  1  0  0  0  0
 46 50  1  0  0  0  0
 47 52  1  0  0  0  0
 48 66  1  0  0  0  0
 49 52  1  0  0  0  0
 49 66  1  0  0  0  0
 50 70  1  0  0  0  0
 51 65  1  0  0  0  0
 52 64  1  0  0  0  0
 53 60  1  0  0  0  0
 54 61  1  0  0  0  0
 55 61  1  0  0  0  0
 56 61  1  0  0  0  0
 57 73  1  0  0  0  0
 58 80  1  0  0  0  0
 59 61  1  0  0  0  0
 59 71  1  0  0  0  0
 60 73  1  0  0  0  0
 62 64  1  0  0  0  0
M  CHG  2  72   1  73   1
M  ISO  4  40 100  58 101  69 100  80 101
M  END
> <Batch ID>
0085

> <Smiles>
CNC(C)C(=O)NC(C(=O)N1Cc2cc([101O:1][101CH:1]=CNC(=N)c3ccc([100NH:0][100C:0](=O)N4CCCC(n5nc(-c6ccc(Oc7ccc(F)cc7F)cc6)c(C(N)=O)c5N)C4)c(F)c3)ccc2CC1C(=O)NC1CCCc2ccccc21)C(C)(C)C

> <Shape>
0.274

> <Color>
0.084

> <Negative vol penalty>
0.000

$$$$

  -OEChem-04052300153D

 84 93  0     1  0  0  0  0  0999 V2000
  -28.7829  -36.5098   18.4007 C   0  0  0  0  0  0  0  0  0  0  0  0
  -28.7569  -35.1520   18.0985 C   0  0  0  0  0  0  0  0  0  0  0  0
  -25.4268  -18.8269   17.2833 C   0  0  0  0  0  0  0  0  0  0  0  0
  -24.4527   -9.0706   21.7565 C   0  0  0  0  0  0  0  0  0  0  0  0
  -23.2459  -10.4108   20.1488 C   0  0  0  0  0  0  0  0  0  0  0  0
  -28.5871  -36.9342   19.7142 C   0  0  0  0  0  0  0  0  0  0  0  0
  -28.5363  -34.2179   19.1099 C   0  0  0  0  0  0  0  0  0  0  0  0
  -25.5039  -28.9188   18.6297 C   0  0  0  0  0  0  0  0  0  0  0  0
  -25.8223  -20.0324   17.8629 C   0  0  0  0  0  0  0  0  0  0  0  0
  -26.0408  -17.6344   17.6663 C   0  0  0  0  0  0  0  0  0  0  0  0
  -23.2452   -8.6645   22.3244 C   0  0  0  0  0  0  0  0  0  0  0  0
  -22.0383  -10.0047   20.7167 C   0  0  0  0  0  0  0  0  0  0  0  0
  -25.9344  -27.6041   18.4564 C   0  0  0  0  0  0  0  0  0  0  0  0
  -20.7929   -6.4401   21.6377 C   0  0  0  0  0  0  0  0  0  0  0  0
  -20.6392   -5.0859   21.9344 C   0  0  0  0  0  0  0  0  0  0  0  0
  -25.8036  -27.2536   20.8395 C   0  0  0  0  0  0  0  0  0  0  0  0
  -28.4549  -22.8337   20.3675 C   0  0  0  0  0  0  0  0  0  0  0  0
  -27.4457  -18.8529   19.2084 C   0  0  0  0  0  0  0  0  0  0  0  0
  -20.3140   -5.6335   24.2649 C   0  0  0  0  0  0  0  0  0  0  0  0
  -26.4024  -22.3316   19.5895 C   0  0  0  0  0  0  0  0  0  0  0  0
  -24.4531   -9.9438   20.6687 C   0  0  0  0  0  0  0  0  0  0  0  0
  -26.4003   -9.7376   19.0338 C   0  0  0  0  0  0  0  0  0  0  0  0
  -28.3544  -36.0053   20.7407 C   0  0  0  0  0  0  0  0  0  0  0  0
  -25.2300  -29.4149   19.9123 C   0  0  0  0  0  0  0  0  0  0  0  0
  -28.3386  -34.6302   20.4387 C   0  0  0  0  0  0  0  0  0  0  0  0
  -25.3673  -28.5742   21.0261 C   0  0  0  0  0  0  0  0  0  0  0  0
  -27.1405  -23.3301   20.1859 C   0  0  0  0  0  0  0  0  0  0  0  0
  -26.8318  -20.0454   18.8254 C   0  0  0  0  0  0  0  0  0  0  0  0
  -27.0502  -17.6474   18.6288 C   0  0  0  0  0  0  0  0  0  0  0  0
  -22.0380   -9.1315   21.8045 C   0  0  0  0  0  0  0  0  0  0  0  0
  -26.0871  -26.7722   19.5617 C   0  0  0  0  0  0  0  0  0  0  0  0
  -20.7074   -7.3911   22.6546 C   0  0  0  0  0  0  0  0  0  0  0  0
  -20.3997   -4.6826   23.2480 C   0  0  0  0  0  0  0  0  0  0  0  0
  -20.4679   -6.9877   23.9682 C   0  0  0  0  0  0  0  0  0  0  0  0
  -25.7001  -10.3642   20.0820 C   0  0  0  0  0  0  0  0  0  0  0  0
  -27.5139  -10.5200   18.8488 C   0  0  0  0  0  0  0  0  0  0  0  0
  -28.4801  -21.5470   19.8764 C   0  0  0  0  0  0  0  0  0  0  0  0
  -26.0734   -8.5541   18.2933 C   0  0  0  0  0  0  0  0  0  0  0  0
  -26.4235  -31.7415   21.7196 C   0  0  0  0  0  0  0  0  0  0  0  0
  -23.9714  -30.9411   23.6865 C   0  0  0  0  0  0  0  0  0  0  0  0
  -21.7357  -28.5767   24.7152 C   0  0  0  0  0  0  0  0  0  0  0  0
  -28.6910  -16.2725   19.9569 C   0  0  0  0  0  0  0  0  0  0  0  0
  -28.1953  -36.5091   22.1533 C   0  0  0  0  0  0  0  0  0  0  0  0
  -24.7408  -30.8274   20.0798 C   0  0  0  0  0  0  0  0  0  0  0  0
  -25.0668  -29.0523   22.4224 C   0  0  0  0  0  0  0  0  0  0  0  0
  -27.5949  -35.4768   23.1042 C   0  0  0  0  0  0  0  0  0  0  0  0
  -30.4643  -13.4547   21.2188 C   0  0  0  0  0  0  0  0  0  0  0  0
  -28.2793  -34.1253   22.9261 C   0  0  0  0  0  0  0  0  0  0  0  0
  -29.5101  -12.2845   20.9696 C   0  0  0  0  0  0  0  0  0  0  0  0
  -29.7129  -14.7255   21.6114 C   0  0  0  0  0  0  0  0  0  0  0  0
  -27.6881  -13.9537   20.4394 C   0  0  0  0  0  0  0  0  0  0  0  0
  -28.0775  -33.5878   21.5042 C   0  0  1  0  0  0  0  0  0  0  0  0
  -24.9844  -31.3820   21.4800 C   0  0  1  0  0  0  0  0  0  0  0  0
  -28.3944  -12.6685   19.9779 C   0  0  2  0  0  0  0  0  0  0  0  0
  -19.8834  -28.2033   26.3665 C   0  0  0  0  0  0  0  0  0  0  0  0
  -26.0274  -30.6371   25.9204 C   0  0  0  0  0  0  0  0  0  0  0  0
  -24.3096  -29.3765   27.2351 C   0  0  0  0  0  0  0  0  0  0  0  0
  -23.8984  -31.7554   26.6071 C   0  0  0  0  0  0  0  0  0  0  0  0
  -19.7600  -28.0935   22.5654 C   0  0  0  0  0  0  0  0  0  0  0  0
  -26.6424  -24.6919   20.5716 C   0  0  0  0  0  0  0  0  0  1  0  0
  -23.7881  -29.9661   24.8244 C   0  0  1  0  0  0  0  0  0  0  0  0
  -20.2382  -28.6429   24.9546 C   0  0  2  0  0  0  0  0  0  0  0  0
  -24.5135  -30.4250   26.1207 C   0  0  0  0  0  0  0  0  0  0  0  0
  -26.3172  -11.4601   20.5316 N   0  0  0  0  0  0  0  0  0  0  0  0
  -27.2271  -21.2526   19.4058 N   0  0  0  0  0  0  0  0  0  0  0  0
  -27.4170  -11.5282   19.7622 N   0  0  0  0  0  0  0  0  0  0  0  0
  -24.5974  -30.4432   22.5350 N   0  0  0  0  0  0  0  0  0  0  0  0
  -28.6748  -15.0294   20.6241 N   0  0  0  0  0  0  0  0  0  0  0  0
  -28.5569  -10.4370   17.9957 N   0  0  0  0  0  0  0  0  0  0  0  0
  -24.8916   -7.8715   18.6125 N   0  0  0  0  0  0  0  0  0  0  0  0
  -27.6739  -16.4358   19.0169 N   0  0  0  0  0  0  0  0  0  0  0  0
  -26.7483  -33.0347   21.3569 N   0  0  0  0  0  0  0  0  0  0  0  0
  -22.3488  -29.7835   24.9777 N   0  0  0  0  0  0  0  0  0  0  0  0
  -19.5203  -27.7593   23.9929 N   0  3  0  0  0  0  0  0  0  0  0  0
  -26.8156   -8.1058   17.3869 O   0  0  0  0  0  0  0  0  0  0  0  0
  -27.1827  -30.9078   22.1995 O   0  0  0  0  0  0  0  0  0  0  0  0
  -23.5673  -32.0998   23.8120 O   0  0  0  0  0  0  0  0  0  0  0  0
  -22.3053  -27.5553   24.3371 O   0  0  0  0  0  0  0  0  0  0  0  0
  -29.5605  -17.1184   20.1817 O   0  0  0  0  0  0  0  0  0  0  0  0
  -29.4719  -20.6665   19.8161 O   0  0  0  0  0  0  0  0  0  0  0  0
  -20.8595   -8.7352   22.3583 O   0  0  0  0  0  0  0  0  0  0  0  0
  -26.5078  -25.4887   19.3955 O   0  0  0  0  0  0  0  0  0  1  0  0
  -20.2505   -3.3822   23.5325 F   0  0  0  0  0  0  0  0  0  0  0  0
  -20.3834   -7.8967   24.9493 F   0  0  0  0  0  0  0  0  0  0  0  0
  1  2  1  0  0  0  0
  1  6  2  0  0  0  0
  2  7  2  0  0  0  0
  3  9  2  0  0  0  0
  3 10  1  0  0  0  0
  4 11  2  0  0  0  0
  4 21  1  0  0  0  0
  5 12  1  0  0  0  0
  5 21  2  0  0  0  0
  6 23  1  0  0  0  0
  7 25  1  0  0  0  0
  8 13  2  0  0  0  0
  8 24  1  0  0  0  0
  9 28  1  0  0  0  0
 10 29  2  0  0  0  0
 11 30  1  0  0  0  0
 12 30  2  0  0  0  0
 13 31  1  0  0  0  0
 14 15  2  0  0  0  0
 14 32  1  0  0  0  0
 15 33  1  0  0  0  0
 16 26  1  0  0  0  0
 16 31  2  0  0  0  0
 17 27  1  0  0  0  0
 17 37  2  0  0  0  0
 18 28  2  0  0  0  0
 18 29  1  0  0  0  0
 19 33  2  0  0  0  0
 19 34  1  0  0  0  0
 20 27  2  0  0  0  0
 20 65  1  0  0  0  0
 21 35  1  0  0  0  0
 22 35  1  0  0  0  0
 22 36  2  0  0  0  0
 22 38  1  0  0  0  0
 23 25  2  0  0  0  0
 23 43  1  0  0  0  0
 24 26  2  0  0  0  0
 24 44  1  0  0  0  0
 25 52  1  0  0  0  0
 26 45  1  0  0  0  0
 27 60  1  0  0  0  0
 28 65  1  0  0  0  0
 29 71  1  0  0  0  0
 30 81  1  0  0  0  0
 31 82  1  0  0  0  0
 32 34  2  0  0  0  0
 32 81  1  0  0  0  0
 33 83  1  0  0  0  0
 34 84  1  0  0  0  0
 35 64  2  0  0  0  0
 36 66  1  0  0  0  0
 36 69  1  0  0  0  0
 37 65  1  0  0  0  0
 37 80  1  0  0  0  0
 38 70  1  0  0  0  0
 38 75  2  0  0  0  0
 39 53  1  0  0  0  0
 39 72  1  0  0  0  0
 39 76  2  0  0  0  0
 40 61  1  0  0  0  0
 40 67  1  0  0  0  0
 40 77  2  0  0  0  0
 41 62  1  0  0  0  0
 41 73  1  0  0  0  0
 41 78  2  0  0  0  0
 42 68  1  0  0  0  0
 42 71  1  0  0  0  0
 42 79  2  0  0  0  0
 43 46  1  0  0  0  0
 44 53  1  0  0  0  0
 45 67  1  0  0  0  0
 46 48  1  0  0  0  0
 47 49  1  0  0  0  0
 47 50  1  0  0  0  0
 48 52  1  0  0  0  0
 49 54  1  0  0  0  0
 50 68  1  0  0  0  0
 51 54  1  0  0  0  0
 51 68  1  0  0  0  0
 52 72  1  0  0  0  0
 53 67  1  0  0  0  0
 54 66  1  0  0  0  0
 55 62  1  0  0  0  0
 56 63  1  0  0  0  0
 57 63  1  0  0  0  0
 58 63  1  0  0  0  0
 59 74  1  0  0  0  0
 60 82  1  0  0  0  0
 61 63  1  0  0  0  0
 61 73  1  0  0  0  0
 62 74  1  0  0  0  0
 64 66  1  0  0  0  0
M  CHG  1  74   1
M  ISO  4  42 100  60 101  71 100  82 101
M  END
> <Batch ID>
0085

> <Smiles>
CNC(C)C(=O)NC(C(=O)N1Cc2cc([101O:1][101CH2:1]C3=CN(c4cccc([100NH:0][100C:0](=O)N5CCCC(n6nc(-c7ccc(Oc8ccc(F)cc8F)cc7)c(C(N)=O)c6N)C5)c4)C(=O)C3)ccc2CC1C(=O)NC1CCCc2ccccc21)C(C)(C)C

> <Shape>
0.256

> <Color>
0.114

> <Negative vol penalty>
0.000

$$$$

  -OEChem-04052300153D

 86 95  0     1  0  0  0  0  0999 V2000
  -26.9409  -36.4453   21.4566 C   0  0  0  0  0  0  0  0  0  0  0  0
  -27.7539  -35.3168   21.4269 C   0  0  0  0  0  0  0  0  0  0  0  0
  -23.6246   -9.7573   21.9416 C   0  0  0  0  0  0  0  0  0  0  0  0
  -24.4728  -11.0913   23.7686 C   0  0  0  0  0  0  0  0  0  0  0  0
  -25.6016  -36.3287   21.8265 C   0  0  0  0  0  0  0  0  0  0  0  0
  -27.2283  -34.0711   21.7682 C   0  0  0  0  0  0  0  0  0  0  0  0
  -28.7406  -28.6503   19.3528 C   0  0  0  0  0  0  0  0  0  0  0  0
  -31.7411  -19.2854   19.6185 C   0  0  0  0  0  0  0  0  0  0  0  0
  -31.2696  -17.9915   19.3970 C   0  0  0  0  0  0  0  0  0  0  0  0
  -23.1273   -8.8256   22.8528 C   0  0  0  0  0  0  0  0  0  0  0  0
  -23.9755  -10.1597   24.6798 C   0  0  0  0  0  0  0  0  0  0  0  0
  -29.5970  -27.6378   19.7831 C   0  0  0  0  0  0  0  0  0  0  0  0
  -24.3367   -6.2905   24.7330 C   0  0  0  0  0  0  0  0  0  0  0  0
  -24.5565   -4.9398   24.4629 C   0  0  0  0  0  0  0  0  0  0  0  0
  -27.7224  -26.4752   20.7594 C   0  0  0  0  0  0  0  0  0  0  0  0
  -29.4784  -20.0462   19.9910 C   0  0  0  0  0  0  0  0  0  0  0  0
  -22.1708   -4.5614   24.4142 C   0  0  0  0  0  0  0  0  0  0  0  0
  -24.2974  -10.8901   22.3995 C   0  0  0  0  0  0  0  0  0  0  0  0
  -24.1439  -12.9806   20.9455 C   0  0  0  0  0  0  0  0  0  0  0  0
  -25.0570  -35.0795   22.1632 C   0  0  0  0  0  0  0  0  0  0  0  0
  -27.3679  -28.5881   19.6326 C   0  0  0  0  0  0  0  0  0  0  0  0
  -25.8809  -33.9379   22.1443 C   0  0  0  0  0  0  0  0  0  0  0  0
  -26.8503  -27.4869   20.3294 C   0  0  0  0  0  0  0  0  0  0  0  0
  -30.8455  -20.3128   19.9156 C   0  0  0  0  0  0  0  0  0  0  0  0
  -29.9026  -17.7249   19.4724 C   0  0  0  0  0  0  0  0  0  0  0  0
  -29.0069  -18.7522   19.7694 C   0  0  0  0  0  0  0  0  0  0  0  0
  -23.3027   -9.0268   24.2219 C   0  0  0  0  0  0  0  0  0  0  0  0
  -29.0885  -26.5515   20.4890 C   0  0  0  0  0  0  0  0  0  0  0  0
  -23.0339   -6.7766   24.8439 C   0  0  0  0  0  0  0  0  0  0  0  0
  -23.4735   -4.0753   24.3034 C   0  0  0  0  0  0  0  0  0  0  0  0
  -21.9510   -5.9121   24.6844 C   0  0  0  0  0  0  0  0  0  0  0  0
  -24.8118  -11.8526   21.4587 C   0  0  0  0  0  0  0  0  0  0  0  0
  -25.0547  -13.5630   20.0984 C   0  0  0  0  0  0  0  0  0  0  0  0
  -32.6312  -23.3842   20.7163 C   0  0  0  0  0  0  0  0  0  0  0  0
  -31.4872  -23.8862   20.2559 C   0  0  0  0  0  0  0  0  0  0  0  0
  -32.5522  -21.9175   20.6624 C   0  0  0  0  0  0  0  0  0  0  0  0
  -30.6160  -22.7615   19.8628 C   0  0  0  0  0  0  0  0  0  0  0  0
  -22.8186  -13.4591   21.2108 C   0  0  0  0  0  0  0  0  0  0  0  0
  -25.3306  -30.3877   21.2803 C   0  0  0  0  0  0  0  0  0  0  0  0
  -23.1338  -28.3448   20.0463 C   0  0  0  0  0  0  0  0  0  0  0  0
  -22.4531  -25.2683   18.7353 C   0  0  0  0  0  0  0  0  0  0  0  0
  -30.2220  -15.2835   18.9398 C   0  0  0  0  0  0  0  0  0  0  0  0
  -23.6158  -35.0104   22.6023 C   0  0  0  0  0  0  0  0  0  0  0  0
  -26.4533  -29.6751   19.1383 C   0  0  0  0  0  0  0  0  0  0  0  0
  -25.3812  -27.3627   20.6377 C   0  0  0  0  0  0  0  0  0  0  0  0
  -23.0417  -33.5960   22.5876 C   0  0  0  0  0  0  0  0  0  0  0  0
  -29.4833  -11.8520   18.3429 C   0  0  0  0  0  0  0  0  0  0  0  0
  -24.0114  -32.6194   23.2453 C   0  0  0  0  0  0  0  0  0  0  0  0
  -28.1472  -11.6390   19.0581 C   0  0  0  0  0  0  0  0  0  0  0  0
  -30.3916  -12.8102   19.1114 C   0  0  0  0  0  0  0  0  0  0  0  0
  -28.4462  -13.8883   20.1709 C   0  0  0  0  0  0  0  0  0  0  0  0
  -25.3413  -32.5654   22.4838 C   0  0  1  0  0  0  0  0  0  0  0  0
  -25.1496  -29.7631   19.9258 C   0  0  1  0  0  0  0  0  0  0  0  0
  -27.4718  -12.9811   19.4019 C   0  0  2  0  0  0  0  0  0  0  0  0
  -20.5591  -23.8773   17.8549 C   0  0  0  0  0  0  0  0  0  0  0  0
  -22.1702  -27.8554   22.8997 C   0  0  0  0  0  0  0  0  0  0  0  0
  -20.9786  -25.8146   22.0731 C   0  0  0  0  0  0  0  0  0  0  0  0
  -20.3444  -28.0650   21.2036 C   0  0  0  0  0  0  0  0  0  0  0  0
  -23.7085  -25.0405   16.0649 C   0  0  0  0  0  0  0  0  0  0  0  0
  -31.0817  -25.3084   20.1184 C   0  0  0  0  0  0  0  0  0  1  0  0
  -22.5346  -27.0291   20.4809 C   0  0  1  0  0  0  0  0  0  0  0  0
  -21.6743  -24.8490   17.5016 C   0  0  2  0  0  0  0  0  0  0  0  0
  -21.5350  -27.1940   21.6604 C   0  0  0  0  0  0  0  0  0  0  0  0
  -26.0513  -11.7242   20.9777 N   0  0  0  0  0  0  0  0  0  0  0  0
  -26.1693  -12.7789   20.1533 N   0  0  0  0  0  0  0  0  0  0  0  0
  -31.3158  -21.6023   20.1365 N   0  0  0  0  0  0  0  0  0  0  0  0
  -24.5285  -28.4542   20.1387 N   0  0  0  0  0  0  0  0  0  0  0  0
  -29.6862  -14.0613   19.3981 N   0  0  0  0  0  0  0  0  0  0  0  0
  -27.6182  -18.5042   19.8510 N   0  0  0  0  0  0  0  0  0  0  0  0
  -25.0029  -14.6642   19.3192 N   0  0  0  0  0  0  0  0  0  0  0  0
  -22.0158  -12.7405   22.1072 N   0  0  0  0  0  0  0  0  0  0  0  0
  -29.4476  -16.4026   19.2438 N   0  0  0  0  0  0  0  0  0  0  0  0
  -25.2059  -31.7639   21.2864 N   0  0  0  0  0  0  0  0  0  0  0  0
  -21.9533  -26.4302   19.2843 N   0  0  0  0  0  0  0  0  0  0  0  0
  -22.5784  -24.1891   16.5177 N   0  3  0  0  0  0  0  0  0  0  0  0
  -33.4500  -21.1768   21.0290 O   0  0  0  0  0  0  0  0  0  0  0  0
  -29.4970  -22.8906   19.3926 O   0  0  0  0  0  0  0  0  0  0  0  0
  -22.3541  -14.4840   20.6565 O   0  0  0  0  0  0  0  0  0  0  0  0
  -25.5646  -29.6739   22.2484 O   0  0  0  0  0  0  0  0  0  0  0  0
  -22.3923  -29.2399   19.6331 O   0  0  0  0  0  0  0  0  0  0  0  0
  -23.4070  -24.6272   19.1706 O   0  0  0  0  0  0  0  0  0  0  0  0
  -31.2755  -15.3307   18.2995 O   0  0  0  0  0  0  0  0  0  0  0  0
  -22.8174   -8.1180   25.1113 O   0  0  0  0  0  0  0  0  0  0  0  0
  -29.9224  -25.5622   20.9106 O   0  0  0  0  0  0  0  0  0  1  0  0
  -23.6847   -2.7786   24.0425 F   0  0  0  0  0  0  0  0  0  0  0  0
  -20.6972   -6.3735   24.7886 F   0  0  0  0  0  0  0  0  0  0  0  0
  1  2  1  0  0  0  0
  1  5  2  0  0  0  0
  2  6  2  0  0  0  0
  3 10  2  0  0  0  0
  3 18  1  0  0  0  0
  4 11  1  0  0  0  0
  4 18  2  0  0  0  0
  5 20  1  0  0  0  0
  6 22  1  0  0  0  0
  7 12  2  0  0  0  0
  7 21  1  0  0  0  0
  8  9  2  0  0  0  0
  8 24  1  0  0  0  0
  9 25  1  0  0  0  0
 10 27  1  0  0  0  0
 11 27  2  0  0  0  0
 12 28  1  0  0  0  0
 13 14  2  0  0  0  0
 13 29  1  0  0  0  0
 14 30  1  0  0  0  0
 15 23  1  0  0  0  0
 15 28  2  0  0  0  0
 16 24  2  0  0  0  0
 16 26  1  0  0  0  0
 17 30  2  0  0  0  0
 17 31  1  0  0  0  0
 18 32  1  0  0  0  0
 19 32  1  0  0  0  0
 19 33  2  0  0  0  0
 19 38  1  0  0  0  0
 20 22  2  0  0  0  0
 20 43  1  0  0  0  0
 21 23  2  0  0  0  0
 21 44  1  0  0  0  0
 22 52  1  0  0  0  0
 23 45  1  0  0  0  0
 24 66  1  0  0  0  0
 25 26  2  0  0  0  0
 25 72  1  0  0  0  0
 26 69  1  0  0  0  0
 27 83  1  0  0  0  0
 28 84  1  0  0  0  0
 29 31  2  0  0  0  0
 29 83  1  0  0  0  0
 30 85  1  0  0  0  0
 31 86  1  0  0  0  0
 32 64  2  0  0  0  0
 33 65  1  0  0  0  0
 33 70  1  0  0  0  0
 34 35  2  0  0  0  0
 34 36  1  0  0  0  0
 35 37  1  0  0  0  0
 35 60  1  0  0  0  0
 36 66  1  0  0  0  0
 36 76  2  0  0  0  0
 37 66  1  0  0  0  0
 37 77  2  0  0  0  0
 38 71  1  0  0  0  0
 38 78  2  0  0  0  0
 39 53  1  0  0  0  0
 39 73  1  0  0  0  0
 39 79  2  0  0  0  0
 40 61  1  0  0  0  0
 40 67  1  0  0  0  0
 40 80  2  0  0  0  0
 41 62  1  0  0  0  0
 41 74  1  0  0  0  0
 41 81  2  0  0  0  0
 42 68  1  0  0  0  0
 42 72  1  0  0  0  0
 42 82  2  0  0  0  0
 43 46  1  0  0  0  0
 44 53  1  0  0  0  0
 45 67  1  0  0  0  0
 46 48  1  0  0  0  0
 47 49  1  0  0  0  0
 47 50  1  0  0  0  0
 48 52  1  0  0  0  0
 49 54  1  0  0  0  0
 50 68  1  0  0  0  0
 51 54  1  0  0  0  0
 51 68  1  0  0  0  0
 52 73  1  0  0  0  0
 53 67  1  0  0  0  0
 54 65  1  0  0  0  0
 55 62  1  0  0  0  0
 56 63  1  0  0  0  0
 57 63  1  0  0  0  0
 58 63  1  0  0  0  0
 59 75  1  0  0  0  0
 60 84  1  0  0  0  0
 61 63  1  0  0  0  0
 61 74  1  0  0  0  0
 62 75  1  0  0  0  0
 64 65  1  0  0  0  0
M  CHG  1  75   1
M  ISO  4  42 100  60 101  72 100  84 101
M  END
> <Batch ID>
0085

> <Smiles>
CNC(C)C(=O)NC(C(=O)N1Cc2cc([101O:1][101CH2:1]C3=CC(=O)N(c4ccc([100NH:0][100C:0](=O)N5CCCC(n6nc(-c7ccc(Oc8ccc(F)cc8F)cc7)c(C(N)=O)c6N)C5)c(N)c4)C3=O)ccc2CC1C(=O)NC1CCCc2ccccc21)C(C)(C)C

> <Shape>
0.300

> <Color>
0.127

> <Negative vol penalty>
0.000

$$$$

  -OEChem-04052300153D

 85 94  0     1  0  0  0  0  0999 V2000
  -18.0258  -12.2484   24.4558 C   0  0  0  0  0  0  0  0  0  0  0  0
  -19.3161  -12.6979   24.7175 C   0  0  0  0  0  0  0  0  0  0  0  0
  -32.6519  -17.4897   23.4573 C   0  0  0  0  0  0  0  0  0  0  0  0
  -23.0735   -9.8699   19.9415 C   0  0  0  0  0  0  0  0  0  0  0  0
  -23.8315   -9.8778   22.2355 C   0  0  0  0  0  0  0  0  0  0  0  0
  -17.0060  -13.1662   24.2075 C   0  0  0  0  0  0  0  0  0  0  0  0
  -19.5876  -14.0656   24.7300 C   0  0  0  0  0  0  0  0  0  0  0  0
  -23.5879  -16.9921   28.3270 C   0  0  0  0  0  0  0  0  0  0  0  0
  -31.8541  -18.3575   24.2030 C   0  0  0  0  0  0  0  0  0  0  0  0
  -32.0640  -16.6055   22.5527 C   0  0  0  0  0  0  0  0  0  0  0  0
  -22.3285   -8.7175   20.1916 C   0  0  0  0  0  0  0  0  0  0  0  0
  -23.0864   -8.7254   22.4856 C   0  0  0  0  0  0  0  0  0  0  0  0
  -24.8922  -17.4356   28.1126 C   0  0  0  0  0  0  0  0  0  0  0  0
  -19.3784   -7.9243   21.6410 C   0  0  0  0  0  0  0  0  0  0  0  0
  -18.0719   -7.8788   21.1546 C   0  0  0  0  0  0  0  0  0  0  0  0
  -24.0505  -19.6306   27.5714 C   0  0  0  0  0  0  0  0  0  0  0  0
  -29.8805  -17.4567   23.1398 C   0  0  0  0  0  0  0  0  0  0  0  0
  -18.6311   -5.9344   19.8342 C   0  0  0  0  0  0  0  0  0  0  0  0
  -23.8251  -10.4500   20.9634 C   0  0  0  0  0  0  0  0  0  0  0  0
  -24.1691  -12.9748   20.8420 C   0  0  0  0  0  0  0  0  0  0  0  0
  -17.2631  -14.5461   24.2265 C   0  0  0  0  0  0  0  0  0  0  0  0
  -22.5026  -17.8631   28.1543 C   0  0  0  0  0  0  0  0  0  0  0  0
  -18.5705  -15.0027   24.4804 C   0  0  0  0  0  0  0  0  0  0  0  0
  -22.7336  -19.1963   27.7866 C   0  0  0  0  0  0  0  0  0  0  0  0
  -30.4684  -18.3410   24.0443 C   0  0  0  0  0  0  0  0  0  0  0  0
  -30.6783  -16.5889   22.3940 C   0  0  0  0  0  0  0  0  0  0  0  0
  -22.3349   -8.1453   21.4637 C   0  0  0  0  0  0  0  0  0  0  0  0
  -25.1235  -18.7542   27.7319 C   0  0  0  0  0  0  0  0  0  0  0  0
  -20.3113   -6.9749   21.2238 C   0  0  0  0  0  0  0  0  0  0  0  0
  -17.6982   -6.8839   20.2513 C   0  0  0  0  0  0  0  0  0  0  0  0
  -19.9377   -5.9799   20.3205 C   0  0  0  0  0  0  0  0  0  0  0  0
  -24.5953  -11.6401   20.7055 C   0  0  0  0  0  0  0  0  0  0  0  0
  -25.2621  -13.7232   20.4791 C   0  0  0  0  0  0  0  0  0  0  0  0
  -28.9181  -21.0172   25.9672 C   0  0  0  0  0  0  0  0  0  0  0  0
  -27.9269  -20.1283   25.9530 C   0  0  0  0  0  0  0  0  0  0  0  0
  -30.0608  -20.4535   25.2345 C   0  0  0  0  0  0  0  0  0  0  0  0
  -28.3779  -18.9481   25.1901 C   0  0  0  0  0  0  0  0  0  0  0  0
  -22.8987  -13.4920   21.2595 C   0  0  0  0  0  0  0  0  0  0  0  0
  -19.9702  -17.9381   26.2346 C   0  0  0  0  0  0  0  0  0  0  0  0
  -19.1427  -20.4825   28.0686 C   0  0  0  0  0  0  0  0  0  0  0  0
  -20.1356  -23.0029   30.1443 C   0  0  0  0  0  0  0  0  0  0  0  0
  -30.7290  -14.7644   20.6577 C   0  0  0  0  0  0  0  0  0  0  0  0
  -16.1385  -15.4985   23.9057 C   0  0  0  0  0  0  0  0  0  0  0  0
  -21.1035  -17.3764   28.4154 C   0  0  0  0  0  0  0  0  0  0  0  0
  -21.6042  -20.1767   27.6076 C   0  0  0  0  0  0  0  0  0  0  0  0
  -16.4297  -16.9422   24.3072 C   0  0  0  0  0  0  0  0  0  0  0  0
  -29.6146  -12.3499   18.2901 C   0  0  0  0  0  0  0  0  0  0  0  0
  -17.8291  -17.3496   23.8573 C   0  0  0  0  0  0  0  0  0  0  0  0
  -28.1744  -12.0598   18.7187 C   0  0  0  0  0  0  0  0  0  0  0  0
  -30.5289  -12.5788   19.4924 C   0  0  0  0  0  0  0  0  0  0  0  0
  -28.6214  -13.3057   20.8715 C   0  0  0  0  0  0  0  0  0  0  0  0
  -18.8992  -16.4791   24.5272 C   0  0  1  0  0  0  0  0  0  0  0  0
  -20.0390  -18.2115   27.7104 C   0  0  1  0  0  0  0  0  0  0  0  0
  -27.6494  -13.1325   19.6930 C   0  0  2  0  0  0  0  0  0  0  0  0
  -19.2366  -24.9443   31.4557 C   0  0  0  0  0  0  0  0  0  0  0  0
  -18.8606  -22.0901   25.4906 C   0  0  0  0  0  0  0  0  0  0  0  0
  -18.9063  -24.1788   26.8703 C   0  0  0  0  0  0  0  0  0  0  0  0
  -17.0732  -22.5168   27.1869 C   0  0  0  0  0  0  0  0  0  0  0  0
  -21.0681  -21.8531   32.7070 C   0  0  0  0  0  0  0  0  0  0  0  0
  -26.5755  -20.2293   26.5607 C   0  0  0  0  0  0  0  0  0  1  0  0
  -19.3992  -21.9691   28.0128 C   0  0  1  0  0  0  0  0  0  0  0  0
  -19.6049  -23.4692   31.4880 C   0  0  2  0  0  0  0  0  0  0  0  0
  -18.5812  -22.6700   26.8915 C   0  0  0  0  0  0  0  0  0  0  0  0
  -25.8605  -11.5429   20.2884 N   0  0  0  0  0  0  0  0  0  0  0  0
  -26.2385  -12.8261   20.1595 N   0  0  0  0  0  0  0  0  0  0  0  0
  -29.6738  -19.2065   24.7876 N   0  0  0  0  0  0  0  0  0  0  0  0
  -20.2539  -19.6513   27.8685 N   0  0  0  0  0  0  0  0  0  0  0  0
  -29.9701  -13.6106   20.3686 N   0  0  0  0  0  0  0  0  0  0  0  0
  -25.4737  -15.0544   20.4054 N   0  0  0  0  0  0  0  0  0  0  0  0
  -21.8857  -12.5838   21.5965 N   0  0  0  0  0  0  0  0  0  0  0  0
  -30.0817  -15.6905   21.4749 N   0  0  0  0  0  0  0  0  0  0  0  0
  -19.1165  -16.9068   25.8926 N   0  0  0  0  0  0  0  0  0  0  0  0
  -19.1345  -22.4797   29.3536 N   0  0  0  0  0  0  0  0  0  0  0  0
  -20.6307  -23.2641   32.5495 N   0  3  0  0  0  0  0  0  0  0  0  0
  -31.1235  -21.0346   25.0858 O   0  0  0  0  0  0  0  0  0  0  0  0
  -27.6932  -17.9581   24.9872 O   0  0  0  0  0  0  0  0  0  0  0  0
  -22.6634  -14.7228   21.3158 O   0  0  0  0  0  0  0  0  0  0  0  0
  -20.6408  -18.6140   25.4630 O   0  0  0  0  0  0  0  0  0  0  0  0
  -17.9998  -20.0739   28.2889 O   0  0  0  0  0  0  0  0  0  0  0  0
  -21.3191  -23.0970   29.8265 O   0  0  0  0  0  0  0  0  0  0  0  0
  -31.8587  -14.9319   20.1909 O   0  0  0  0  0  0  0  0  0  0  0  0
  -21.6078   -7.0210   21.7082 O   0  0  0  0  0  0  0  0  0  0  0  0
  -26.3955  -19.1895   27.5214 O   0  0  0  0  0  0  0  0  0  1  0  0
  -16.4431   -6.8394   19.7856 F   0  0  0  0  0  0  0  0  0  0  0  0
  -20.8292   -5.0644   19.9170 F   0  0  0  0  0  0  0  0  0  0  0  0
  1  2  1  0  0  0  0
  1  6  2  0  0  0  0
  2  7  2  0  0  0  0
  3  9  2  0  0  0  0
  3 10  1  0  0  0  0
  4 11  2  0  0  0  0
  4 19  1  0  0  0  0
  5 12  1  0  0  0  0
  5 19  2  0  0  0  0
  6 21  1  0  0  0  0
  7 23  1  0  0  0  0
  8 13  2  0  0  0  0
  8 22  1  0  0  0  0
  9 25  1  0  0  0  0
 10 26  2  0  0  0  0
 11 27  1  0  0  0  0
 12 27  2  0  0  0  0
 13 28  1  0  0  0  0
 14 15  2  0  0  0  0
 14 29  1  0  0  0  0
 15 30  1  0  0  0  0
 16 24  1  0  0  0  0
 16 28  2  0  0  0  0
 17 25  2  0  0  0  0
 17 26  1  0  0  0  0
 18 30  2  0  0  0  0
 18 31  1  0  0  0  0
 19 32  1  0  0  0  0
 20 32  1  0  0  0  0
 20 33  2  0  0  0  0
 20 38  1  0  0  0  0
 21 23  2  0  0  0  0
 21 43  1  0  0  0  0
 22 24  2  0  0  0  0
 22 44  1  0  0  0  0
 23 52  1  0  0  0  0
 24 45  1  0  0  0  0
 25 66  1  0  0  0  0
 26 71  1  0  0  0  0
 27 82  1  0  0  0  0
 28 83  1  0  0  0  0
 29 31  2  0  0  0  0
 29 82  1  0  0  0  0
 30 84  1  0  0  0  0
 31 85  1  0  0  0  0
 32 64  2  0  0  0  0
 33 65  1  0  0  0  0
 33 69  1  0  0  0  0
 34 35  2  0  0  0  0
 34 36  1  0  0  0  0
 35 37  1  0  0  0  0
 35 60  1  0  0  0  0
 36 66  1  0  0  0  0
 36 75  2  0  0  0  0
 37 66  1  0  0  0  0
 37 76  2  0  0  0  0
 38 70  1  0  0  0  0
 38 77  2  0  0  0  0
 39 53  1  0  0  0  0
 39 72  1  0  0  0  0
 39 78  2  0  0  0  0
 40 61  1  0  0  0  0
 40 67  1  0  0  0  0
 40 79  2  0  0  0  0
 41 62  1  0  0  0  0
 41 73  1  0  0  0  0
 41 80  2  0  0  0  0
 42 68  1  0  0  0  0
 42 71  1  0  0  0  0
 42 81  2  0  0  0  0
 43 46  1  0  0  0  0
 44 53  1  0  0  0  0
 45 67  1  0  0  0  0
 46 48  1  0  0  0  0
 47 49  1  0  0  0  0
 47 50  1  0  0  0  0
 48 52  1  0  0  0  0
 49 54  1  0  0  0  0
 50 68  1  0  0  0  0
 51 54  1  0  0  0  0
 51 68  1  0  0  0  0
 52 72  1  0  0  0  0
 53 67  1  0  0  0  0
 54 65  1  0  0  0  0
 55 62  1  0  0  0  0
 56 63  1  0  0  0  0
 57 63  1  0  0  0  0
 58 63  1  0  0  0  0
 59 74  1  0  0  0  0
 60 83  1  0  0  0  0
 61 63  1  0  0  0  0
 61 73  1  0  0  0  0
 62 74  1  0  0  0  0
 64 65  1  0  0  0  0
M  CHG  1  74   1
M  ISO  4  42 100  60 101  71 100  83 101
M  END
> <Batch ID>
0085

> <Smiles>
CNC(C)C(=O)NC(C(=O)N1Cc2cc([101O:1][101CH2:1]C3=CC(=O)N(c4cccc([100NH:0][100C:0](=O)N5CCCC(n6nc(-c7ccc(Oc8ccc(F)cc8F)cc7)c(C(N)=O)c6N)C5)c4)C3=O)ccc2CC1C(=O)NC1CCCc2ccccc21)C(C)(C)C

> <Shape>
0.145

> <Color>
0.187

> <Negative vol penalty>
0.000

$$$$

  -OEChem-04052300153D

 86 95  0     1  0  0  0  0  0999 V2000
  -21.6533   -8.9232   24.5335 C   0  0  0  0  0  0  0  0  0  0  0  0
  -22.3395  -10.1098   24.7713 C   0  0  0  0  0  0  0  0  0  0  0  0
  -22.8753  -30.8714   23.4869 C   0  0  0  0  0  0  0  0  0  0  0  0
  -22.7859  -31.7928   21.2553 C   0  0  0  0  0  0  0  0  0  0  0  0
  -21.6813   -8.3453   23.2650 C   0  0  0  0  0  0  0  0  0  0  0  0
  -23.0551  -10.7186   23.7409 C   0  0  0  0  0  0  0  0  0  0  0  0
  -23.7926  -16.7284   22.8220 C   0  0  0  0  0  0  0  0  0  0  0  0
  -31.1706  -22.2793   18.5897 C   0  0  0  0  0  0  0  0  0  0  0  0
  -31.7454  -23.2463   17.7651 C   0  0  0  0  0  0  0  0  0  0  0  0
  -21.4820  -30.8868   23.5492 C   0  0  0  0  0  0  0  0  0  0  0  0
  -21.3925  -31.8082   21.3175 C   0  0  0  0  0  0  0  0  0  0  0  0
  -24.8324  -17.6040   23.1318 C   0  0  0  0  0  0  0  0  0  0  0  0
  -18.9160  -29.0127   22.3931 C   0  0  0  0  0  0  0  0  0  0  0  0
  -18.2769  -27.8788   22.8943 C   0  0  0  0  0  0  0  0  0  0  0  0
  -25.7115  -17.3396   20.9009 C   0  0  0  0  0  0  0  0  0  0  0  0
  -29.6921  -23.9495   19.5179 C   0  0  0  0  0  0  0  0  0  0  0  0
  -17.2983  -29.2096   24.6574 C   0  0  0  0  0  0  0  0  0  0  0  0
  -23.5273  -31.3245   22.3400 C   0  0  0  0  0  0  0  0  0  0  0  0
  -25.8629  -31.9848   23.1252 C   0  0  0  0  0  0  0  0  0  0  0  0
  -22.3896   -8.9525   22.2160 C   0  0  0  0  0  0  0  0  0  0  0  0
  -23.7105  -16.1423   21.5507 C   0  0  0  0  0  0  0  0  0  0  0  0
  -23.0937  -10.1476   22.4575 C   0  0  0  0  0  0  0  0  0  0  0  0
  -24.6683  -16.4589   20.5768 C   0  0  0  0  0  0  0  0  0  0  0  0
  -30.1439  -22.6308   19.4661 C   0  0  0  0  0  0  0  0  0  0  0  0
  -31.2936  -24.5650   17.8169 C   0  0  0  0  0  0  0  0  0  0  0  0
  -30.2669  -24.9166   18.6934 C   0  0  0  0  0  0  0  0  0  0  0  0
  -20.7405  -31.3552   22.4645 C   0  0  0  0  0  0  0  0  0  0  0  0
  -25.7937  -17.9075   22.1721 C   0  0  0  0  0  0  0  0  0  0  0  0
  -18.7463  -30.2452   23.0240 C   0  0  0  0  0  0  0  0  0  0  0  0
  -17.4680  -27.9772   24.0264 C   0  0  0  0  0  0  0  0  0  0  0  0
  -17.9374  -30.3436   24.1561 C   0  0  0  0  0  0  0  0  0  0  0  0
  -24.9667  -31.3093   22.2754 C   0  0  0  0  0  0  0  0  0  0  0  0
  -27.1067  -31.6485   22.6495 C   0  0  0  0  0  0  0  0  0  0  0  0
  -30.2292  -20.5229   20.7936 C   0  0  0  0  0  0  0  0  0  0  0  0
  -28.2275  -21.6691   20.7424 C   0  0  0  0  0  0  0  0  0  0  0  0
  -25.5951  -32.8398   24.2445 C   0  0  0  0  0  0  0  0  0  0  0  0
  -23.7995  -13.1641   20.4436 C   0  0  0  0  0  0  0  0  0  0  0  0
  -23.0948  -14.6053   17.6244 C   0  0  0  0  0  0  0  0  0  0  0  0
  -23.1724  -17.4349   15.7180 C   0  0  0  0  0  0  0  0  0  0  0  0
  -28.7774  -26.7538   19.5823 C   0  0  0  0  0  0  0  0  0  0  0  0
  -22.4296   -8.2655   20.8739 C   0  0  0  0  0  0  0  0  0  0  0  0
  -22.5676  -15.2206   21.2239 C   0  0  0  0  0  0  0  0  0  0  0  0
  -24.6137  -15.8721   19.1907 C   0  0  0  0  0  0  0  0  0  0  0  0
  -29.2220  -19.6335   21.4645 C   0  0  0  0  0  0  0  0  0  0  0  0
  -22.9029   -9.1712   19.7399 C   0  0  0  0  0  0  0  0  0  0  0  0
  -28.5999  -30.3427   18.2359 C   0  0  0  0  0  0  0  0  0  0  0  0
  -24.1506   -9.9427   20.1582 C   0  0  0  0  0  0  0  0  0  0  0  0
  -28.3649  -31.0931   19.5447 C   0  0  0  0  0  0  0  0  0  0  0  0
  -29.2638  -28.9895   18.4573 C   0  0  0  0  0  0  0  0  0  0  0  0
  -27.4853  -28.7862   20.2041 C   0  0  0  0  0  0  0  0  0  0  0  0
  -23.8608  -10.8512   21.3591 C   0  0  1  0  0  0  0  0  0  0  0  0
  -28.0639  -20.5669   21.7557 C   0  0  2  0  0  0  0  0  0  0  0  0
  -22.8712  -14.2817   20.0605 C   0  0  1  0  0  0  0  0  0  0  0  0
  -27.9341  -30.1693   20.7011 C   0  0  2  0  0  0  0  0  0  0  0  0
  -22.5566  -18.2944   13.4422 C   0  0  0  0  0  0  0  0  0  0  0  0
  -25.5146  -13.1784   16.4334 C   0  0  0  0  0  0  0  0  0  0  0  0
  -25.4144  -14.7687   14.5023 C   0  0  0  0  0  0  0  0  0  0  0  0
  -23.5012  -13.2321   14.9509 C   0  0  0  0  0  0  0  0  0  0  0  0
  -21.3044  -19.4319   16.8501 C   0  0  0  0  0  0  0  0  0  0  0  0
  -23.9028  -15.1945   16.4935 C   0  0  1  0  0  0  0  0  0  0  0  0
  -22.1035  -18.1165   14.8829 C   0  0  2  0  0  0  0  0  0  0  0  0
  -24.5857  -14.1031   15.6217 C   0  0  0  0  0  0  0  0  0  0  0  0
  -25.5882  -30.5977   21.3313 N   0  0  0  0  0  0  0  0  0  0  0  0
  -26.8884  -30.8243   21.5849 N   0  0  0  0  0  0  0  0  0  0  0  0
  -29.5516  -21.6369   20.3105 N   0  0  0  0  0  0  0  0  0  0  0  0
  -23.4806  -14.9715   18.9216 N   0  0  0  0  0  0  0  0  0  0  0  0
  -28.5378  -28.1394   19.4120 N   0  0  0  0  0  0  0  0  0  0  0  0
  -31.8918  -25.5287   16.9742 N   0  0  0  0  0  0  0  0  0  0  0  0
  -28.3550  -31.9803   23.0421 N   0  0  0  0  0  0  0  0  0  0  0  0
  -25.4469  -34.2145   24.0149 N   0  0  0  0  0  0  0  0  0  0  0  0
  -29.7910  -26.2498   18.7630 N   0  0  0  0  0  0  0  0  0  0  0  0
  -23.1578  -12.0425   20.9334 N   0  0  0  0  0  0  0  0  0  0  0  0
  -22.9964  -16.0679   15.7559 N   0  0  0  0  0  0  0  0  0  0  0  0
  -26.7769  -19.9175   21.5769 N   0  0  0  0  0  0  0  0  0  1  0  0
  -21.7853  -19.4597   15.4448 N   0  3  0  0  0  0  0  0  0  0  0  0
  -31.4166  -20.2358   20.7292 O   0  0  0  0  0  0  0  0  0  0  0  0
  -27.3187  -22.4160   20.4048 O   0  0  0  0  0  0  0  0  0  0  0  0
  -25.5067  -32.4001   25.4160 O   0  0  0  0  0  0  0  0  0  0  0  0
  -25.0084  -13.3080   20.3038 O   0  0  0  0  0  0  0  0  0  0  0  0
  -22.1514  -13.8537   17.3659 O   0  0  0  0  0  0  0  0  0  0  0  0
  -24.0754  -18.0530   16.2775 O   0  0  0  0  0  0  0  0  0  0  0  0
  -28.1416  -26.0819   20.3973 O   0  0  0  0  0  0  0  0  0  0  0  0
  -19.3809  -31.3702   22.5247 O   0  0  0  0  0  0  0  0  0  0  0  0
  -26.8100  -18.7613   22.4720 O   0  0  0  0  0  0  0  0  0  1  0  0
  -16.8531  -26.8884   24.5067 F   0  0  0  0  0  0  0  0  0  0  0  0
  -17.7697  -31.5250   24.7659 F   0  0  0  0  0  0  0  0  0  0  0  0
  1  2  1  0  0  0  0
  1  5  2  0  0  0  0
  2  6  2  0  0  0  0
  3 10  2  0  0  0  0
  3 18  1  0  0  0  0
  4 11  1  0  0  0  0
  4 18  2  0  0  0  0
  5 20  1  0  0  0  0
  6 22  1  0  0  0  0
  7 12  2  0  0  0  0
  7 21  1  0  0  0  0
  8  9  2  0  0  0  0
  8 24  1  0  0  0  0
  9 25  1  0  0  0  0
 10 27  1  0  0  0  0
 11 27  2  0  0  0  0
 12 28  1  0  0  0  0
 13 14  2  0  0  0  0
 13 29  1  0  0  0  0
 14 30  1  0  0  0  0
 15 23  1  0  0  0  0
 15 28  2  0  0  0  0
 16 24  2  0  0  0  0
 16 26  1  0  0  0  0
 17 30  2  0  0  0  0
 17 31  1  0  0  0  0
 18 32  1  0  0  0  0
 19 32  1  0  0  0  0
 19 33  2  0  0  0  0
 19 36  1  0  0  0  0
 20 22  2  0  0  0  0
 20 41  1  0  0  0  0
 21 23  2  0  0  0  0
 21 42  1  0  0  0  0
 22 51  1  0  0  0  0
 23 43  1  0  0  0  0
 24 65  1  0  0  0  0
 25 26  2  0  0  0  0
 25 68  1  0  0  0  0
 26 71  1  0  0  0  0
 27 83  1  0  0  0  0
 28 84  1  0  0  0  0
 29 31  2  0  0  0  0
 29 83  1  0  0  0  0
 30 85  1  0  0  0  0
 31 86  1  0  0  0  0
 32 63  2  0  0  0  0
 33 64  1  0  0  0  0
 33 69  1  0  0  0  0
 34 44  1  0  0  0  0
 34 65  1  0  0  0  0
 34 76  2  0  0  0  0
 35 52  1  0  0  0  0
 35 65  1  0  0  0  0
 35 77  2  0  0  0  0
 36 70  1  0  0  0  0
 36 78  2  0  0  0  0
 37 53  1  0  0  0  0
 37 72  1  0  0  0  0
 37 79  2  0  0  0  0
 38 60  1  0  0  0  0
 38 66  1  0  0  0  0
 38 80  2  0  0  0  0
 39 61  1  0  0  0  0
 39 73  1  0  0  0  0
 39 81  2  0  0  0  0
 40 67  1  0  0  0  0
 40 71  1  0  0  0  0
 40 82  2  0  0  0  0
 41 45  1  0  0  0  0
 42 53  1  0  0  0  0
 43 66  1  0  0  0  0
 44 52  1  0  0  0  0
 45 47  1  0  0  0  0
 46 48  1  0  0  0  0
 46 49  1  0  0  0  0
 47 51  1  0  0  0  0
 48 54  1  0  0  0  0
 49 67  1  0  0  0  0
 50 54  1  0  0  0  0
 50 67  1  0  0  0  0
 51 72  1  0  0  0  0
 52 74  1  0  0  0  0
 53 66  1  0  0  0  0
 54 64  1  0  0  0  0
 55 61  1  0  0  0  0
 56 62  1  0  0  0  0
 57 62  1  0  0  0  0
 58 62  1  0  0  0  0
 59 75  1  0  0  0  0
 60 62  1  0  0  0  0
 60 73  1  0  0  0  0
 61 75  1  0  0  0  0
 63 64  1  0  0  0  0
 74 84  1  0  0  0  0
M  CHG  1  75   1
M  ISO  4  40 100  71 100  74 101  84 101
M  END
> <Batch ID>
0085

> <Smiles>
CNC(C)C(=O)NC(C(=O)N1Cc2cc([101O:1][101NH:1]C3CC(=O)N(c4ccc(N)c([100NH:0][100C:0](=O)N5CCCC(n6nc(-c7ccc(Oc8ccc(F)cc8F)cc7)c(C(N)=O)c6N)C5)c4)C3=O)ccc2CC1C(=O)NC1CCCc2ccccc21)C(C)(C)C

> <Shape>
0.254

> <Color>
0.059

> <Negative vol penalty>
0.000

$$$$

  -OEChem-04052300153D

 86 95  0     1  0  0  0  0  0999 V2000
  -27.5077  -37.7897   22.3521 C   0  0  0  0  0  0  0  0  0  0  0  0
  -28.0437  -36.7506   21.5981 C   0  0  0  0  0  0  0  0  0  0  0  0
  -24.0447  -10.2335   22.8723 C   0  0  0  0  0  0  0  0  0  0  0  0
  -23.2488  -12.5145   22.8422 C   0  0  0  0  0  0  0  0  0  0  0  0
  -26.7261  -37.5062   23.4712 C   0  0  0  0  0  0  0  0  0  0  0  0
  -27.7992  -35.4273   21.9636 C   0  0  0  0  0  0  0  0  0  0  0  0
  -26.8729  -28.9255   19.1028 C   0  0  0  0  0  0  0  0  0  0  0  0
  -28.0342  -19.9639   20.5170 C   0  0  0  0  0  0  0  0  0  0  0  0
  -27.9081  -18.6202   20.1646 C   0  0  0  0  0  0  0  0  0  0  0  0
  -23.3663  -10.0126   24.0709 C   0  0  0  0  0  0  0  0  0  0  0  0
  -22.5704  -12.2936   24.0408 C   0  0  0  0  0  0  0  0  0  0  0  0
  -27.3581  -27.6228   19.2093 C   0  0  0  0  0  0  0  0  0  0  0  0
  -20.1927   -9.3929   25.0594 C   0  0  0  0  0  0  0  0  0  0  0  0
  -19.4566   -8.2143   25.1800 C   0  0  0  0  0  0  0  0  0  0  0  0
  -25.9277  -27.2523   21.1161 C   0  0  0  0  0  0  0  0  0  0  0  0
  -30.2994  -18.3422   20.3695 C   0  0  0  0  0  0  0  0  0  0  0  0
  -20.8102   -7.5626   27.0722 C   0  0  0  0  0  0  0  0  0  0  0  0
  -23.9860  -11.4844   22.2579 C   0  0  0  0  0  0  0  0  0  0  0  0
  -24.1927  -11.5239   19.7156 C   0  0  0  0  0  0  0  0  0  0  0  0
  -26.4639  -36.1787   23.8450 C   0  0  0  0  0  0  0  0  0  0  0  0
  -25.9178  -29.4057   20.0103 C   0  0  0  0  0  0  0  0  0  0  0  0
  -27.0144  -35.1258   23.0896 C   0  0  0  0  0  0  0  0  0  0  0  0
  -25.4301  -28.5606   21.0173 C   0  0  0  0  0  0  0  0  0  0  0  0
  -29.2928  -20.4968   20.7956 C   0  0  0  0  0  0  0  0  0  0  0  0
  -29.0407  -17.8094   20.0909 C   0  0  0  0  0  0  0  0  0  0  0  0
  -22.6292  -11.0426   24.6551 C   0  0  0  0  0  0  0  0  0  0  0  0
  -26.8877  -26.7869   20.2178 C   0  0  0  0  0  0  0  0  0  0  0  0
  -21.2376   -9.6564   25.9452 C   0  0  0  0  0  0  0  0  0  0  0  0
  -19.7653   -7.2991   26.1864 C   0  0  0  0  0  0  0  0  0  0  0  0
  -30.4254  -19.6860   20.7219 C   0  0  0  0  0  0  0  0  0  0  0  0
  -21.5463   -8.7413   26.9516 C   0  0  0  0  0  0  0  0  0  0  0  0
  -24.6869  -11.7134   21.0201 C   0  0  0  0  0  0  0  0  0  0  0  0
  -25.2375  -11.8785   18.8977 C   0  0  0  0  0  0  0  0  0  0  0  0
  -29.0141  -24.0877   21.2832 C   0  0  0  0  0  0  0  0  0  0  0  0
  -30.1949  -23.8014   22.1095 C   0  0  0  0  0  0  0  0  0  0  0  0
  -28.5274  -22.8320   20.6768 C   0  0  0  0  0  0  0  0  0  0  0  0
  -28.4612  -25.3012   21.1052 C   0  0  0  0  0  0  0  0  0  1  0  0
  -22.9042  -11.0682   19.2821 C   0  0  0  0  0  0  0  0  0  0  0  0
  -25.8430  -31.7474   22.1584 C   0  0  0  0  0  0  0  0  0  0  0  0
  -22.7305  -30.8741   22.4275 C   0  0  0  0  0  0  0  0  0  0  0  0
  -20.3588  -28.4492   22.0508 C   0  0  0  0  0  0  0  0  0  0  0  0
  -29.9340  -15.5028   19.6135 C   0  0  0  0  0  0  0  0  0  0  0  0
  -25.6524  -35.9219   25.0901 C   0  0  0  0  0  0  0  0  0  0  0  0
  -25.3848  -30.8047   19.8655 C   0  0  0  0  0  0  0  0  0  0  0  0
  -24.3899  -29.0213   22.0044 C   0  0  0  0  0  0  0  0  0  0  0  0
  -30.4827  -22.3308   22.0383 C   0  0  0  0  0  0  0  0  0  0  0  0
  -25.1306  -34.4910   25.1927 C   0  0  0  0  0  0  0  0  0  0  0  0
  -30.0226  -12.0396   18.7917 C   0  0  0  0  0  0  0  0  0  0  0  0
  -26.2402  -33.4940   24.8739 C   0  0  0  0  0  0  0  0  0  0  0  0
  -28.6175  -11.5470   19.1455 C   0  0  0  0  0  0  0  0  0  0  0  0
  -30.5195  -13.0935   19.7796 C   0  0  0  0  0  0  0  0  0  0  0  0
  -28.2079  -13.7382   20.3361 C   0  0  0  0  0  0  0  0  0  0  0  0
  -26.7511  -33.6773   23.4397 C   0  0  1  0  0  0  0  0  0  0  0  0
  -24.7919  -31.3550   21.1590 C   0  0  1  0  0  0  0  0  0  0  0  0
  -27.6385  -12.7227   19.3320 C   0  0  2  0  0  0  0  0  0  0  0  0
  -17.9098  -28.0195   22.3896 C   0  0  0  0  0  0  0  0  0  0  0  0
  -23.1959  -30.6038   25.4308 C   0  0  0  0  0  0  0  0  0  0  0  0
  -21.0676  -29.2928   25.5721 C   0  0  0  0  0  0  0  0  0  0  0  0
  -21.0202  -31.6656   24.8037 C   0  0  0  0  0  0  0  0  0  0  0  0
  -19.9320  -27.9340   19.1679 C   0  0  0  0  0  0  0  0  0  0  0  0
  -21.9667  -29.8869   23.2765 C   0  0  1  0  0  0  0  0  0  0  0  0
  -18.9816  -28.4776   21.4129 C   0  0  2  0  0  0  0  0  0  0  0  0
  -21.8336  -30.3539   24.7536 C   0  0  0  0  0  0  0  0  0  0  0  0
  -25.9477  -12.1540   21.0348 N   0  0  0  0  0  0  0  0  0  0  0  0
  -26.2546  -12.2443   19.7295 N   0  0  0  0  0  0  0  0  0  0  0  0
  -29.4157  -21.8391   21.1472 N   0  0  0  0  0  0  0  0  0  0  0  0
  -23.9045  -30.3997   21.8253 N   0  0  0  0  0  0  0  0  0  0  0  0
  -29.5430  -14.1781   19.9019 N   0  0  0  0  0  0  0  0  0  0  0  0
  -25.3763  -11.9100   17.5552 N   0  0  0  0  0  0  0  0  0  0  0  0
  -21.9474  -10.7464   20.2543 N   0  0  0  0  0  0  0  0  0  0  0  0
  -28.9124  -16.4444   19.7329 N   0  0  0  0  0  0  0  0  0  0  0  0
  -25.8271  -33.0876   22.4947 N   0  0  0  0  0  0  0  0  0  0  0  0
  -20.6918  -29.6686   22.6017 N   0  0  0  0  0  0  0  0  0  0  0  0
  -18.9443  -27.5838   20.2210 N   0  3  0  0  0  0  0  0  0  0  0  0
  -30.8341  -24.6212   22.7461 O   0  0  0  0  0  0  0  0  0  0  0  0
  -27.5654  -22.7193   19.9373 O   0  0  0  0  0  0  0  0  0  0  0  0
  -22.6157  -10.9342   18.0687 O   0  0  0  0  0  0  0  0  0  0  0  0
  -26.6105  -30.8969   22.5934 O   0  0  0  0  0  0  0  0  0  0  0  0
  -22.2976  -32.0218   22.2973 O   0  0  0  0  0  0  0  0  0  0  0  0
  -21.0668  -27.4446   22.0628 O   0  0  0  0  0  0  0  0  0  0  0  0
  -31.0831  -15.7775   19.2585 O   0  0  0  0  0  0  0  0  0  0  0  0
  -21.9669  -10.8274   25.8246 O   0  0  0  0  0  0  0  0  0  0  0  0
  -27.3602  -25.5152   20.3244 O   0  0  0  0  0  0  0  0  0  1  0  0
  -19.0574   -6.1680   26.3031 F   0  0  0  0  0  0  0  0  0  0  0  0
  -31.6403  -20.1876   20.9869 F   0  0  0  0  0  0  0  0  0  0  0  0
  -22.5482   -8.9895   27.8062 F   0  0  0  0  0  0  0  0  0  0  0  0
  1  2  1  0  0  0  0
  1  5  2  0  0  0  0
  2  6  2  0  0  0  0
  3 10  2  0  0  0  0
  3 18  1  0  0  0  0
  4 11  1  0  0  0  0
  4 18  2  0  0  0  0
  5 20  1  0  0  0  0
  6 22  1  0  0  0  0
  7 12  2  0  0  0  0
  7 21  1  0  0  0  0
  8  9  2  0  0  0  0
  8 24  1  0  0  0  0
  9 25  1  0  0  0  0
 10 26  1  0  0  0  0
 11 26  2  0  0  0  0
 12 27  1  0  0  0  0
 13 14  2  0  0  0  0
 13 28  1  0  0  0  0
 14 29  1  0  0  0  0
 15 23  1  0  0  0  0
 15 27  2  0  0  0  0
 16 25  2  0  0  0  0
 16 30  1  0  0  0  0
 17 29  2  0  0  0  0
 17 31  1  0  0  0  0
 18 32  1  0  0  0  0
 19 32  1  0  0  0  0
 19 33  2  0  0  0  0
 19 38  1  0  0  0  0
 20 22  2  0  0  0  0
 20 43  1  0  0  0  0
 21 23  2  0  0  0  0
 21 44  1  0  0  0  0
 22 53  1  0  0  0  0
 23 45  1  0  0  0  0
 24 30  2  0  0  0  0
 24 66  1  0  0  0  0
 25 71  1  0  0  0  0
 26 82  1  0  0  0  0
 27 83  1  0  0  0  0
 28 31  2  0  0  0  0
 28 82  1  0  0  0  0
 29 84  1  0  0  0  0
 30 85  1  0  0  0  0
 31 86  1  0  0  0  0
 32 64  2  0  0  0  0
 33 65  1  0  0  0  0
 33 69  1  0  0  0  0
 34 35  1  0  0  0  0
 34 36  1  0  0  0  0
 34 37  2  0  0  0  0
 35 46  1  0  0  0  0
 35 75  2  0  0  0  0
 36 66  1  0  0  0  0
 36 76  2  0  0  0  0
 37 83  1  0  0  0  0
 38 70  1  0  0  0  0
 38 77  2  0  0  0  0
 39 54  1  0  0  0  0
 39 72  1  0  0  0  0
 39 78  2  0  0  0  0
 40 61  1  0  0  0  0
 40 67  1  0  0  0  0
 40 79  2  0  0  0  0
 41 62  1  0  0  0  0
 41 73  1  0  0  0  0
 41 80  2  0  0  0  0
 42 68  1  0  0  0  0
 42 71  1  0  0  0  0
 42 81  2  0  0  0  0
 43 47  1  0  0  0  0
 44 54  1  0  0  0  0
 45 67  1  0  0  0  0
 46 66  1  0  0  0  0
 47 49  1  0  0  0  0
 48 50  1  0  0  0  0
 48 51  1  0  0  0  0
 49 53  1  0  0  0  0
 50 55  1  0  0  0  0
 51 68  1  0  0  0  0
 52 55  1  0  0  0  0
 52 68  1  0  0  0  0
 53 72  1  0  0  0  0
 54 67  1  0  0  0  0
 55 65  1  0  0  0  0
 56 62  1  0  0  0  0
 57 63  1  0  0  0  0
 58 63  1  0  0  0  0
 59 63  1  0  0  0  0
 60 74  1  0  0  0  0
 61 63  1  0  0  0  0
 61 73  1  0  0  0  0
 62 74  1  0  0  0  0
 64 65  1  0  0  0  0
M  CHG  1  74   1
M  ISO  4  37 101  42 100  71 100  83 101
M  END
> <Batch ID>
0085

> <Smiles>
CNC(C)C(=O)NC(C(=O)N1Cc2cc([101O:1][101CH:1]=C3C(=O)CN(c4ccc([100NH:0][100C:0](=O)N5CCCC(n6nc(-c7ccc(Oc8ccc(F)cc8F)cc7)c(C(N)=O)c6N)C5)cc4F)C3=O)ccc2CC1C(=O)NC1CCCc2ccccc21)C(C)(C)C

> <Shape>
0.309

> <Color>
0.088

> <Negative vol penalty>
0.000

$$$$

  -OEChem-04052300153D

 86 95  0     1  0  0  0  0  0999 V2000
  -31.9851  -34.5085   25.1805 C   0  0  0  0  0  0  0  0  0  0  0  0
  -31.9241  -33.1445   25.4473 C   0  0  0  0  0  0  0  0  0  0  0  0
  -22.6720  -10.2146   20.2428 C   0  0  0  0  0  0  0  0  0  0  0  0
  -24.2137   -9.6396   22.0119 C   0  0  0  0  0  0  0  0  0  0  0  0
  -32.5645  -17.6626   23.3900 C   0  0  0  0  0  0  0  0  0  0  0  0
  -30.8087  -35.2456   25.0514 C   0  0  0  0  0  0  0  0  0  0  0  0
  -30.6866  -32.5170   25.5863 C   0  0  0  0  0  0  0  0  0  0  0  0
  -30.4334  -28.0563   23.0310 C   0  0  0  0  0  0  0  0  0  0  0  0
  -31.9901  -16.7374   22.5184 C   0  0  0  0  0  0  0  0  0  0  0  0
  -21.9194   -9.0755   20.5285 C   0  0  0  0  0  0  0  0  0  0  0  0
  -23.4610   -8.5005   22.2976 C   0  0  0  0  0  0  0  0  0  0  0  0
  -31.0414  -26.9349   23.5939 C   0  0  0  0  0  0  0  0  0  0  0  0
  -20.6022   -7.7526   23.9372 C   0  0  0  0  0  0  0  0  0  0  0  0
  -20.3302   -7.4767   25.2771 C   0  0  0  0  0  0  0  0  0  0  0  0
  -30.3764  -18.5650   23.8743 C   0  0  0  0  0  0  0  0  0  0  0  0
  -28.9052  -26.2148   24.4520 C   0  0  0  0  0  0  0  0  0  0  0  0
  -21.4731   -5.3579   25.0727 C   0  0  0  0  0  0  0  0  0  0  0  0
  -23.8193  -10.4966   20.9845 C   0  0  0  0  0  0  0  0  0  0  0  0
  -31.7577  -18.5764   24.0680 C   0  0  0  0  0  0  0  0  0  0  0  0
  -24.1652  -13.0118   20.7356 C   0  0  0  0  0  0  0  0  0  0  0  0
  -29.5561  -34.6250   25.1792 C   0  0  0  0  0  0  0  0  0  0  0  0
  -29.0560  -28.2714   23.1833 C   0  0  0  0  0  0  0  0  0  0  0  0
  -29.4924  -33.2468   25.4601 C   0  0  0  0  0  0  0  0  0  0  0  0
  -28.2815  -27.3371   23.8860 C   0  0  0  0  0  0  0  0  0  0  0  0
  -30.6088  -16.7260   22.3247 C   0  0  0  0  0  0  0  0  0  0  0  0
  -29.8019  -17.6398   23.0026 C   0  0  0  0  0  0  0  0  0  0  0  0
  -22.3138   -8.2185   21.5558 C   0  0  0  0  0  0  0  0  0  0  0  0
  -30.2777  -26.0152   24.3064 C   0  0  0  0  0  0  0  0  0  0  0  0
  -21.3096   -6.8312   23.1649 C   0  0  0  0  0  0  0  0  0  0  0  0
  -20.7657   -6.2793   25.8449 C   0  0  0  0  0  0  0  0  0  0  0  0
  -21.7450   -5.6339   23.7327 C   0  0  0  0  0  0  0  0  0  0  0  0
  -24.5975  -11.6728   20.6896 C   0  0  0  0  0  0  0  0  0  0  0  0
  -25.2704  -13.7420   20.3725 C   0  0  0  0  0  0  0  0  0  0  0  0
  -32.6651  -22.0796   25.3643 C   0  0  0  0  0  0  0  0  0  0  0  0
  -32.1039  -22.8908   24.4398 C   0  0  0  0  0  0  0  0  0  0  0  0
  -31.6100  -21.7034   23.7078 C   0  0  0  0  0  0  0  0  0  0  0  0
  -32.3657  -19.5545   24.9900 C   0  0  0  0  0  0  0  0  0  0  0  0
  -22.8797  -13.5475   21.0762 C   0  0  0  0  0  0  0  0  0  0  0  0
  -27.1908  -30.5291   24.4755 C   0  0  0  0  0  0  0  0  0  0  0  0
  -24.8311  -28.6272   23.1087 C   0  0  0  0  0  0  0  0  0  0  0  0
  -22.5787  -31.1365   23.6277 C   0  0  0  0  0  0  0  0  0  0  0  0
  -30.7259  -14.8079   20.6957 C   0  0  0  0  0  0  0  0  0  0  0  0
  -28.3125  -35.4724   25.0784 C   0  0  0  0  0  0  0  0  0  0  0  0
  -28.4142  -29.4721   22.5423 C   0  0  0  0  0  0  0  0  0  0  0  0
  -26.7997  -27.5206   24.0742 C   0  0  0  0  0  0  0  0  0  0  0  0
  -27.0373  -34.6599   24.8682 C   0  0  0  0  0  0  0  0  0  0  0  0
  -29.7026  -12.2622   18.4264 C   0  0  0  0  0  0  0  0  0  0  0  0
  -26.9917  -33.4789   25.8324 C   0  0  0  0  0  0  0  0  0  0  0  0
  -28.2477  -11.9921   18.8167 C   0  0  0  0  0  0  0  0  0  0  0  0
  -30.5713  -12.5603   19.6472 C   0  0  0  0  0  0  0  0  0  0  0  0
  -28.6131  -13.3571   20.9120 C   0  0  0  0  0  0  0  0  0  0  0  0
  -28.1687  -32.5255   25.5930 C   0  0  1  0  0  0  0  0  0  0  0  0
  -27.0606  -29.8370   23.1483 C   0  0  1  0  0  0  0  0  0  0  0  0
  -27.6858  -13.1157   19.7097 C   0  0  2  0  0  0  0  0  0  0  0  0
  -20.2253  -31.8153   23.0813 C   0  0  0  0  0  0  0  0  0  0  0  0
  -25.7038  -29.3638   20.2801 C   0  0  0  0  0  0  0  0  0  0  0  0
  -23.6941  -30.8484   20.1225 C   0  0  0  0  0  0  0  0  0  0  0  0
  -23.4055  -28.3915   20.4431 C   0  0  0  0  0  0  0  0  0  0  0  0
  -21.8069  -31.1877   26.4844 C   0  0  0  0  0  0  0  0  0  0  0  0
  -32.0180  -24.3985   24.1903 C   0  0  0  0  0  0  0  0  0  1  0  0
  -24.2461  -29.8020   22.3655 C   0  0  1  0  0  0  0  0  0  0  0  0
  -21.1302  -31.1123   24.0812 C   0  0  2  0  0  0  0  0  0  0  0  0
  -24.2814  -29.6050   20.8236 C   0  0  0  0  0  0  0  0  0  0  0  0
  -25.8774  -11.5564   20.3257 N   0  0  0  0  0  0  0  0  0  0  0  0
  -26.2588  -12.8315   20.1398 N   0  0  0  0  0  0  0  0  0  0  0  0
  -32.1641  -20.9009   24.6860 N   0  0  0  0  0  0  0  0  0  0  0  0
  -26.2088  -28.6597   23.3599 N   0  0  0  0  0  0  0  0  0  0  0  0
  -29.9792  -13.6376   20.4433 N   0  0  0  0  0  0  0  0  0  0  0  0
  -28.4005  -17.6459   22.8227 N   0  0  0  0  0  0  0  0  0  0  0  0
  -25.4833  -15.0677   20.2327 N   0  0  0  0  0  0  0  0  0  0  0  0
  -22.6228  -13.8670   22.4165 N   0  0  0  0  0  0  0  0  0  0  0  0
  -30.0477  -15.7761   21.4356 N   0  0  0  0  0  0  0  0  0  0  0  0
  -27.9223  -31.7005   24.4298 N   0  0  0  0  0  0  0  0  0  0  0  0
  -22.9086  -30.0054   22.9115 N   0  0  0  0  0  0  0  0  0  0  0  0
  -20.9891  -31.7907   25.4006 N   0  3  0  0  0  0  0  0  0  0  0  0
  -30.9897  -21.5198   22.6827 O   0  0  0  0  0  0  0  0  0  0  0  0
  -33.0371  -19.1438   25.9329 O   0  0  0  0  0  0  0  0  0  0  0  0
  -21.9796  -13.7219   20.2201 O   0  0  0  0  0  0  0  0  0  0  0  0
  -26.6651  -30.0376   25.4674 O   0  0  0  0  0  0  0  0  0  0  0  0
  -24.0906  -27.7013   23.4515 O   0  0  0  0  0  0  0  0  0  0  0  0
  -23.3402  -32.0676   23.8801 O   0  0  0  0  0  0  0  0  0  0  0  0
  -31.8719  -14.9526   20.2626 O   0  0  0  0  0  0  0  0  0  0  0  0
  -21.5795   -7.1070   21.8350 O   0  0  0  0  0  0  0  0  0  0  0  0
  -30.8686  -24.9196   24.8563 O   0  0  0  0  0  0  0  0  0  1  0  0
  -20.5058   -6.0151   27.1320 F   0  0  0  0  0  0  0  0  0  0  0  0
  -22.4261   -4.7453   22.9962 F   0  0  0  0  0  0  0  0  0  0  0  0
  1  2  1  0  0  0  0
  1  6  2  0  0  0  0
  2  7  2  0  0  0  0
  3 10  2  0  0  0  0
  3 18  1  0  0  0  0
  4 11  1  0  0  0  0
  4 18  2  0  0  0  0
  5  9  2  0  0  0  0
  5 19  1  0  0  0  0
  6 21  1  0  0  0  0
  7 23  1  0  0  0  0
  8 12  2  0  0  0  0
  8 22  1  0  0  0  0
  9 25  1  0  0  0  0
 10 27  1  0  0  0  0
 11 27  2  0  0  0  0
 12 28  1  0  0  0  0
 13 14  2  0  0  0  0
 13 29  1  0  0  0  0
 14 30  1  0  0  0  0
 15 19  2  0  0  0  0
 15 26  1  0  0  0  0
 16 24  1  0  0  0  0
 16 28  2  0  0  0  0
 17 30  2  0  0  0  0
 17 31  1  0  0  0  0
 18 32  1  0  0  0  0
 19 37  1  0  0  0  0
 20 32  1  0  0  0  0
 20 33  2  0  0  0  0
 20 38  1  0  0  0  0
 21 23  2  0  0  0  0
 21 43  1  0  0  0  0
 22 24  2  0  0  0  0
 22 44  1  0  0  0  0
 23 52  1  0  0  0  0
 24 45  1  0  0  0  0
 25 26  2  0  0  0  0
 25 72  1  0  0  0  0
 26 69  1  0  0  0  0
 27 83  1  0  0  0  0
 28 84  1  0  0  0  0
 29 31  2  0  0  0  0
 29 83  1  0  0  0  0
 30 85  1  0  0  0  0
 31 86  1  0  0  0  0
 32 64  2  0  0  0  0
 33 65  1  0  0  0  0
 33 70  1  0  0  0  0
 34 35  2  0  0  0  0
 34 66  1  0  0  0  0
 35 36  1  0  0  0  0
 35 60  1  0  0  0  0
 36 66  1  0  0  0  0
 36 76  2  0  0  0  0
 37 66  1  0  0  0  0
 37 77  2  0  0  0  0
 38 71  1  0  0  0  0
 38 78  2  0  0  0  0
 39 53  1  0  0  0  0
 39 73  1  0  0  0  0
 39 79  2  0  0  0  0
 40 61  1  0  0  0  0
 40 67  1  0  0  0  0
 40 80  2  0  0  0  0
 41 62  1  0  0  0  0
 41 74  1  0  0  0  0
 41 81  2  0  0  0  0
 42 68  1  0  0  0  0
 42 72  1  0  0  0  0
 42 82  2  0  0  0  0
 43 46  1  0  0  0  0
 44 53  1  0  0  0  0
 45 67  1  0  0  0  0
 46 48  1  0  0  0  0
 47 49  1  0  0  0  0
 47 50  1  0  0  0  0
 48 52  1  0  0  0  0
 49 54  1  0  0  0  0
 50 68  1  0  0  0  0
 51 54  1  0  0  0  0
 51 68  1  0  0  0  0
 52 73  1  0  0  0  0
 53 67  1  0  0  0  0
 54 65  1  0  0  0  0
 55 62  1  0  0  0  0
 56 63  1  0  0  0  0
 57 63  1  0  0  0  0
 58 63  1  0  0  0  0
 59 75  1  0  0  0  0
 60 84  1  0  0  0  0
 61 63  1  0  0  0  0
 61 74  1  0  0  0  0
 62 75  1  0  0  0  0
 64 65  1  0  0  0  0
M  CHG  1  75   1
M  ISO  4  42 100  60 101  72 100  84 101
M  END
> <Batch ID>
0085

> <Smiles>
CNC(C)C(=O)NC(C(=O)N1Cc2cc([101O:1][101CH2:1]C3=CN(C(=O)c4ccc([100NH:0][100C:0](=O)N5CCCC(n6nc(-c7ccc(Oc8ccc(F)cc8F)cc7)c(C(N)=O)c6N)C5)c(N)c4)C3=O)ccc2CC1C(=O)NC1CCCc2ccccc21)C(C)(C)C

> <Shape>
0.292

> <Color>
0.185

> <Negative vol penalty>
0.000

$$$$

  -OEChem-04052300153D

 84 93  0     1  0  0  0  0  0999 V2000
  -16.4037  -29.0572   23.7209 C   0  0  0  0  0  0  0  0  0  0  0  0
  -17.2422  -27.9570   23.5727 C   0  0  0  0  0  0  0  0  0  0  0  0
  -23.1473   -9.7717   20.6153 C   0  0  0  0  0  0  0  0  0  0  0  0
  -23.7128  -10.4110   22.8755 C   0  0  0  0  0  0  0  0  0  0  0  0
  -16.9405  -30.3439   23.7394 C   0  0  0  0  0  0  0  0  0  0  0  0
  -18.6180  -28.1430   23.4418 C   0  0  0  0  0  0  0  0  0  0  0  0
  -23.0461  -24.4878   25.5720 C   0  0  0  0  0  0  0  0  0  0  0  0
  -31.7960  -17.2716   22.0193 C   0  0  0  0  0  0  0  0  0  0  0  0
  -32.2947  -18.3848   22.6958 C   0  0  0  0  0  0  0  0  0  0  0  0
  -22.4003   -8.7004   21.1052 C   0  0  0  0  0  0  0  0  0  0  0  0
  -22.9658   -9.3397   23.3654 C   0  0  0  0  0  0  0  0  0  0  0  0
  -23.8184  -23.4983   24.9652 C   0  0  0  0  0  0  0  0  0  0  0  0
  -19.7093   -8.6175   23.9081 C   0  0  0  0  0  0  0  0  0  0  0  0
  -18.8578   -8.8621   24.9854 C   0  0  0  0  0  0  0  0  0  0  0  0
  -25.5765  -25.1074   24.5925 C   0  0  0  0  0  0  0  0  0  0  0  0
  -29.5599  -18.1705   22.1886 C   0  0  0  0  0  0  0  0  0  0  0  0
  -20.0587   -7.2326   26.3045 C   0  0  0  0  0  0  0  0  0  0  0  0
  -23.8036  -10.6270   21.5005 C   0  0  0  0  0  0  0  0  0  0  0  0
  -24.1211  -13.0409   20.7393 C   0  0  0  0  0  0  0  0  0  0  0  0
  -18.3245  -30.5451   23.6183 C   0  0  0  0  0  0  0  0  0  0  0  0
  -23.5296  -25.7993   25.6839 C   0  0  0  0  0  0  0  0  0  0  0  0
  -19.1736  -29.4336   23.4573 C   0  0  0  0  0  0  0  0  0  0  0  0
  -24.8094  -26.1112   25.2034 C   0  0  0  0  0  0  0  0  0  0  0  0
  -30.0586  -19.2837   22.8651 C   0  0  0  0  0  0  0  0  0  0  0  0
  -30.4286  -17.1644   21.7656 C   0  0  0  0  0  0  0  0  0  0  0  0
  -31.4260  -19.3908   23.1187 C   0  0  0  0  0  0  0  0  0  0  0  0
  -22.3095   -8.4844   22.4802 C   0  0  0  0  0  0  0  0  0  0  0  0
  -25.0826  -23.8087   24.4728 C   0  0  0  0  0  0  0  0  0  0  0  0
  -20.7355   -7.6804   24.0289 C   0  0  0  0  0  0  0  0  0  0  0  0
  -19.0325   -8.1697   26.1836 C   0  0  0  0  0  0  0  0  0  0  0  0
  -20.9101   -6.9880   25.2271 C   0  0  0  0  0  0  0  0  0  0  0  0
  -24.5758  -11.7334   20.9951 C   0  0  0  0  0  0  0  0  0  0  0  0
  -25.2299  -13.7053   20.2748 C   0  0  0  0  0  0  0  0  0  0  0  0
  -27.8759  -21.6263   23.9331 C   0  0  0  0  0  0  0  0  0  0  0  0
  -29.1971  -21.1279   24.3172 C   0  0  0  0  0  0  0  0  0  0  0  0
  -27.0540  -22.5508   24.4301 C   0  0  0  0  0  0  0  0  0  1  0  0
  -22.8134  -13.6045   20.9066 C   0  0  0  0  0  0  0  0  0  0  0  0
  -22.5996  -28.6342   24.5873 C   0  0  0  0  0  0  0  0  0  0  0  0
  -25.0146  -29.7167   26.4630 C   0  0  0  0  0  0  0  0  0  0  0  0
  -27.9722  -29.0705   28.0384 C   0  0  0  0  0  0  0  0  0  0  0  0
  -30.6482  -14.9497   20.5854 C   0  0  0  0  0  0  0  0  0  0  0  0
  -18.8536  -31.9573   23.5965 C   0  0  0  0  0  0  0  0  0  0  0  0
  -22.6950  -26.8491   26.3650 C   0  0  0  0  0  0  0  0  0  0  0  0
  -25.3827  -27.4993   25.3171 C   0  0  0  0  0  0  0  0  0  0  0  0
  -27.8764  -20.6551   22.7749 C   0  0  0  0  0  0  0  0  0  0  0  0
  -20.3598  -32.0471   23.8279 C   0  0  0  0  0  0  0  0  0  0  0  0
  -29.7672  -11.9585   18.8667 C   0  0  0  0  0  0  0  0  0  0  0  0
  -21.0938  -31.0214   22.9700 C   0  0  0  0  0  0  0  0  0  0  0  0
  -28.3007  -11.7409   19.2461 C   0  0  0  0  0  0  0  0  0  0  0  0
  -30.5757  -12.5285   20.0308 C   0  0  0  0  0  0  0  0  0  0  0  0
  -28.5507  -13.5253   21.0182 C   0  0  0  0  0  0  0  0  0  0  0  0
  -20.6737  -29.5931   23.3374 C   0  0  1  0  0  0  0  0  0  0  0  0
  -23.0785  -28.2702   25.9642 C   0  0  1  0  0  0  0  0  0  0  0  0
  -27.6820  -13.0132   19.8577 C   0  0  2  0  0  0  0  0  0  0  0  0
  -29.7247  -30.1632   29.4638 C   0  0  0  0  0  0  0  0  0  0  0  0
  -26.1044  -31.1649   24.0084 C   0  0  0  0  0  0  0  0  0  0  0  0
  -28.2819  -31.4267   25.2160 C   0  0  0  0  0  0  0  0  0  0  0  0
  -26.2153  -32.4819   26.1316 C   0  0  0  0  0  0  0  0  0  0  0  0
  -27.5040  -27.1800   30.2668 C   0  0  0  0  0  0  0  0  0  0  0  0
  -26.4893  -29.9722   26.2657 C   0  0  1  0  0  0  0  0  0  0  0  0
  -28.4405  -29.3487   29.4553 C   0  0  2  0  0  0  0  0  0  0  0  0
  -26.7614  -31.2356   25.4014 C   0  0  0  0  0  0  0  0  0  0  0  0
  -25.8723  -11.5746   20.7161 N   0  0  0  0  0  0  0  0  0  0  0  0
  -26.2418  -12.7909   20.2801 N   0  0  0  0  0  0  0  0  0  0  0  0
  -29.1834  -20.2638   23.2723 N   0  0  0  0  0  0  0  0  0  0  0  0
  -24.5257  -28.4924   25.9855 N   0  0  0  0  0  0  0  0  0  0  0  0
  -29.9319  -13.7344   20.5564 N   0  0  0  0  0  0  0  0  0  0  0  0
  -31.9527  -20.5085   23.8042 N   0  0  0  0  0  0  0  0  0  0  0  0
  -25.4282  -14.9767   19.8664 N   0  0  0  0  0  0  0  0  0  0  0  0
  -21.7889  -12.7821   21.3947 N   0  0  0  0  0  0  0  0  0  0  0  0
  -29.9226  -16.0350   21.0756 N   0  0  0  0  0  0  0  0  0  0  0  0
  -21.3272  -29.1723   24.5582 N   0  0  0  0  0  0  0  0  0  0  0  0
  -27.0768  -30.0231   27.6001 N   0  0  0  0  0  0  0  0  0  0  0  0
  -28.6903  -28.0700   30.1788 N   0  3  0  0  0  0  0  0  0  0  0  0
  -29.9820  -21.3719   25.2098 O   0  0  0  0  0  0  0  0  0  0  0  0
  -22.5571  -14.7976   20.6158 O   0  0  0  0  0  0  0  0  0  0  0  0
  -23.3309  -28.4424   23.6229 O   0  0  0  0  0  0  0  0  0  0  0  0
  -24.3233  -30.5688   27.0266 O   0  0  0  0  0  0  0  0  0  0  0  0
  -28.3644  -28.1066   27.3843 O   0  0  0  0  0  0  0  0  0  0  0  0
  -31.8101  -15.0280   20.1782 O   0  0  0  0  0  0  0  0  0  0  0  0
  -21.5805   -7.4393   22.9586 O   0  0  0  0  0  0  0  0  0  0  0  0
  -25.8383  -22.8448   23.8796 O   0  0  0  0  0  0  0  0  0  1  0  0
  -18.2157   -8.4058   27.2186 F   0  0  0  0  0  0  0  0  0  0  0  0
  -21.8949   -6.0874   25.3495 F   0  0  0  0  0  0  0  0  0  0  0  0
  1  2  1  0  0  0  0
  1  5  2  0  0  0  0
  2  6  2  0  0  0  0
  3 10  2  0  0  0  0
  3 18  1  0  0  0  0
  4 11  1  0  0  0  0
  4 18  2  0  0  0  0
  5 20  1  0  0  0  0
  6 22  1  0  0  0  0
  7 12  2  0  0  0  0
  7 21  1  0  0  0  0
  8  9  2  0  0  0  0
  8 25  1  0  0  0  0
  9 26  1  0  0  0  0
 10 27  1  0  0  0  0
 11 27  2  0  0  0  0
 12 28  1  0  0  0  0
 13 14  2  0  0  0  0
 13 29  1  0  0  0  0
 14 30  1  0  0  0  0
 15 23  1  0  0  0  0
 15 28  2  0  0  0  0
 16 24  1  0  0  0  0
 16 25  2  0  0  0  0
 17 30  2  0  0  0  0
 17 31  1  0  0  0  0
 18 32  1  0  0  0  0
 19 32  1  0  0  0  0
 19 33  2  0  0  0  0
 19 37  1  0  0  0  0
 20 22  2  0  0  0  0
 20 42  1  0  0  0  0
 21 23  2  0  0  0  0
 21 43  1  0  0  0  0
 22 52  1  0  0  0  0
 23 44  1  0  0  0  0
 24 26  2  0  0  0  0
 24 65  1  0  0  0  0
 25 71  1  0  0  0  0
 26 68  1  0  0  0  0
 27 81  1  0  0  0  0
 28 82  1  0  0  0  0
 29 31  2  0  0  0  0
 29 81  1  0  0  0  0
 30 83  1  0  0  0  0
 31 84  1  0  0  0  0
 32 63  2  0  0  0  0
 33 64  1  0  0  0  0
 33 69  1  0  0  0  0
 34 35  1  0  0  0  0
 34 36  2  0  0  0  0
 34 45  1  0  0  0  0
 35 65  1  0  0  0  0
 35 75  2  0  0  0  0
 36 82  1  0  0  0  0
 37 70  1  0  0  0  0
 37 76  2  0  0  0  0
 38 53  1  0  0  0  0
 38 72  1  0  0  0  0
 38 77  2  0  0  0  0
 39 60  1  0  0  0  0
 39 66  1  0  0  0  0
 39 78  2  0  0  0  0
 40 61  1  0  0  0  0
 40 73  1  0  0  0  0
 40 79  2  0  0  0  0
 41 67  1  0  0  0  0
 41 71  1  0  0  0  0
 41 80  2  0  0  0  0
 42 46  1  0  0  0  0
 43 53  1  0  0  0  0
 44 66  1  0  0  0  0
 45 65  1  0  0  0  0
 46 48  1  0  0  0  0
 47 49  1  0  0  0  0
 47 50  1  0  0  0  0
 48 52  1  0  0  0  0
 49 54  1  0  0  0  0
 50 67  1  0  0  0  0
 51 54  1  0  0  0  0
 51 67  1  0  0  0  0
 52 72  1  0  0  0  0
 53 66  1  0  0  0  0
 54 64  1  0  0  0  0
 55 61  1  0  0  0  0
 56 62  1  0  0  0  0
 57 62  1  0  0  0  0
 58 62  1  0  0  0  0
 59 74  1  0  0  0  0
 60 62  1  0  0  0  0
 60 73  1  0  0  0  0
 61 74  1  0  0  0  0
 63 64  1  0  0  0  0
M  CHG  1  74   1
M  ISO  4  36 101  41 100  71 100  82 101
M  END
> <Batch ID>
0085

> <Smiles>
CNC(C)C(=O)NC(C(=O)N1Cc2cc([101O:1][101CH:1]=C3CN(c4cc([100NH:0][100C:0](=O)N5CCCC(n6nc(-c7ccc(Oc8ccc(F)cc8F)cc7)c(C(N)=O)c6N)C5)ccc4N)C3=O)ccc2CC1C(=O)NC1CCCc2ccccc21)C(C)(C)C

> <Shape>
0.256

> <Color>
0.205

> <Negative vol penalty>
0.000

$$$$

  -OEChem-04052300153D

 85 93  0     1  0  0  0  0  0999 V2000
  -16.4984  -25.5562   21.8647 C   0  0  0  0  0  0  0  0  0  0  0  0
  -17.7741  -25.0035   21.8132 C   0  0  0  0  0  0  0  0  0  0  0  0
  -33.2483  -16.9708   23.0810 C   0  0  0  0  0  0  0  0  0  0  0  0
  -22.8703  -10.1897   20.1680 C   0  0  0  0  0  0  0  0  0  0  0  0
  -23.7401  -10.1593   22.4218 C   0  0  0  0  0  0  0  0  0  0  0  0
  -32.5683  -17.9156   23.8494 C   0  0  0  0  0  0  0  0  0  0  0  0
  -16.3361  -26.9038   22.1833 C   0  0  0  0  0  0  0  0  0  0  0  0
  -18.8884  -25.7985   22.0792 C   0  0  0  0  0  0  0  0  0  0  0  0
  -22.2203  -23.5143   25.1328 C   0  0  0  0  0  0  0  0  0  0  0  0
  -32.5403  -16.1307   22.2215 C   0  0  0  0  0  0  0  0  0  0  0  0
  -22.0399   -9.1116   20.4739 C   0  0  0  0  0  0  0  0  0  0  0  0
  -22.9097   -9.0812   22.7277 C   0  0  0  0  0  0  0  0  0  0  0  0
  -23.0521  -22.5522   24.5615 C   0  0  0  0  0  0  0  0  0  0  0  0
  -19.1077   -8.6029   22.0790 C   0  0  0  0  0  0  0  0  0  0  0  0
  -17.7795   -8.6677   21.6578 C   0  0  0  0  0  0  0  0  0  0  0  0
  -30.4723  -17.1801   22.8992 C   0  0  0  0  0  0  0  0  0  0  0  0
  -24.8343  -24.1735   24.4408 C   0  0  0  0  0  0  0  0  0  0  0  0
  -18.0979   -6.6645   20.3452 C   0  0  0  0  0  0  0  0  0  0  0  0
  -23.7205  -10.7135   21.1419 C   0  0  0  0  0  0  0  0  0  0  0  0
  -31.1804  -18.0203   23.7586 C   0  0  0  0  0  0  0  0  0  0  0  0
  -24.2797  -13.1959   20.9605 C   0  0  0  0  0  0  0  0  0  0  0  0
  -17.4483  -27.7134   22.4628 C   0  0  0  0  0  0  0  0  0  0  0  0
  -22.6867  -24.8183   25.3527 C   0  0  0  0  0  0  0  0  0  0  0  0
  -18.7409  -27.1586   22.4005 C   0  0  0  0  0  0  0  0  0  0  0  0
  -24.0072  -25.1496   25.0174 C   0  0  0  0  0  0  0  0  0  0  0  0
  -31.1523  -16.2353   22.1307 C   0  0  0  0  0  0  0  0  0  0  0  0
  -22.0595   -8.5573   21.7538 C   0  0  0  0  0  0  0  0  0  0  0  0
  -24.3584  -22.8826   24.2127 C   0  0  0  0  0  0  0  0  0  0  0  0
  -19.9310   -7.5689   21.6331 C   0  0  0  0  0  0  0  0  0  0  0  0
  -17.2746   -7.6986   20.7910 C   0  0  0  0  0  0  0  0  0  0  0  0
  -19.4261   -6.5997   20.7663 C   0  0  0  0  0  0  0  0  0  0  0  0
  -24.5790  -11.8269   20.8263 C   0  0  0  0  0  0  0  0  0  0  0  0
  -25.4150  -13.8392   20.5319 C   0  0  0  0  0  0  0  0  0  0  0  0
  -26.3276  -21.6242   24.3095 C   0  0  0  0  0  0  0  0  0  1  0  0
  -30.4577  -19.0268   24.5774 C   0  0  0  0  0  0  0  0  0  0  0  0
  -23.0824  -13.8294   21.4306 C   0  0  0  0  0  0  0  0  0  0  0  0
  -27.2001  -20.7182   23.8522 C   0  0  0  0  0  0  0  0  0  0  0  0
  -28.4359  -20.4400   24.6463 C   0  0  0  0  0  0  0  0  0  0  0  0
  -21.8632  -27.7024   24.3001 C   0  0  0  0  0  0  0  0  0  0  0  0
  -24.0757  -28.6929   26.4555 C   0  0  0  0  0  0  0  0  0  0  0  0
  -26.8628  -27.9694   28.2873 C   0  0  0  0  0  0  0  0  0  0  0  0
  -30.9545  -14.3915   20.4255 C   0  0  0  0  0  0  0  0  0  0  0  0
  -17.2262  -29.1760   22.7561 C   0  0  0  0  0  0  0  0  0  0  0  0
  -21.7853  -25.8372   25.9945 C   0  0  0  0  0  0  0  0  0  0  0  0
  -24.5625  -26.5299   25.2515 C   0  0  0  0  0  0  0  0  0  0  0  0
  -18.4339  -29.8601   23.3915 C   0  0  0  0  0  0  0  0  0  0  0  0
  -29.5139  -12.0558   18.1569 C   0  0  0  0  0  0  0  0  0  0  0  0
  -19.7110  -29.4922   22.6429 C   0  0  0  0  0  0  0  0  0  0  0  0
  -28.0769  -11.9007   18.6602 C   0  0  0  0  0  0  0  0  0  0  0  0
  -30.5039  -12.2177   19.3090 C   0  0  0  0  0  0  0  0  0  0  0  0
  -28.7397  -13.1292   20.7670 C   0  0  0  0  0  0  0  0  0  0  0  0
  -19.9726  -27.9826   22.7070 C   0  0  1  0  0  0  0  0  0  0  0  0
  -22.2031  -27.2746   25.6998 C   0  0  1  0  0  0  0  0  0  0  0  0
  -27.6983  -13.0282   19.6405 C   0  0  2  0  0  0  0  0  0  0  0  0
  -28.4612  -28.9921   29.9294 C   0  0  0  0  0  0  0  0  0  0  0  0
  -25.4014  -30.2505   24.1914 C   0  0  0  0  0  0  0  0  0  0  0  0
  -27.4466  -30.4523   25.6213 C   0  0  0  0  0  0  0  0  0  0  0  0
  -25.2960  -31.4682   26.3732 C   0  0  0  0  0  0  0  0  0  0  0  0
  -26.1794  -25.9793   30.3686 C   0  0  0  0  0  0  0  0  0  0  0  0
  -25.5620  -28.9544   26.4186 C   0  0  1  0  0  0  0  0  0  0  0  0
  -27.1865  -28.1812   29.7552 C   0  0  2  0  0  0  0  0  0  0  0  0
  -25.9157  -30.2558   25.6448 C   0  0  0  0  0  0  0  0  0  0  0  0
  -25.8081  -11.6121   20.3496 N   0  0  0  0  0  0  0  0  0  0  0  0
  -26.2911  -12.8547   20.1804 N   0  0  0  0  0  0  0  0  0  0  0  0
  -23.6403  -27.4928   25.8758 N   0  0  0  0  0  0  0  0  0  0  0  0
  -30.0831  -13.3063   20.1936 N   0  0  0  0  0  0  0  0  0  0  0  0
  -25.7394  -15.1453   20.4251 N   0  0  0  0  0  0  0  0  0  0  0  0
  -22.0114  -13.0195   21.8322 N   0  0  0  0  0  0  0  0  0  0  0  0
  -30.4334  -15.3819   21.2574 N   0  0  0  0  0  0  0  0  0  0  0  0
  -29.2484  -19.4776   24.0501 N   0  0  0  0  0  0  0  0  0  0  0  0
  -20.5176  -27.6185   23.9973 N   0  0  0  0  0  0  0  0  0  0  0  0
  -26.0132  -28.9428   27.8059 N   0  0  0  0  0  0  0  0  0  0  0  0
  -27.3661  -26.8701   30.4405 N   0  3  0  0  0  0  0  0  0  0  0  0
  -30.9609  -19.4158   25.6279 O   0  0  0  0  0  0  0  0  0  0  0  0
  -22.9599  -15.0770   21.4772 O   0  0  0  0  0  0  0  0  0  0  0  0
  -28.6740  -21.0139   25.7051 O   0  0  0  0  0  0  0  0  0  0  0  0
  -22.7555  -28.0819   23.5508 O   0  0  0  0  0  0  0  0  0  0  0  0
  -23.3292  -29.5195   26.9858 O   0  0  0  0  0  0  0  0  0  0  0  0
  -27.3210  -27.0359   27.6321 O   0  0  0  0  0  0  0  0  0  0  0  0
  -32.0697  -14.4517   19.9013 O   0  0  0  0  0  0  0  0  0  0  0  0
  -27.0071  -20.0267   22.6741 O   0  0  0  0  0  0  0  0  0  0  0  0
  -21.2492   -7.5054   22.0527 O   0  0  0  0  0  0  0  0  0  0  0  0
  -25.1722  -21.9456   23.6543 O   0  0  0  0  0  0  0  0  0  1  0  0
  -15.9987   -7.7601   20.3879 F   0  0  0  0  0  0  0  0  0  0  0  0
  -20.2119   -5.6033   20.3356 F   0  0  0  0  0  0  0  0  0  0  0  0
  1  2  1  0  0  0  0
  1  7  2  0  0  0  0
  2  8  2  0  0  0  0
  3  6  2  0  0  0  0
  3 10  1  0  0  0  0
  4 11  2  0  0  0  0
  4 19  1  0  0  0  0
  5 12  1  0  0  0  0
  5 19  2  0  0  0  0
  6 20  1  0  0  0  0
  7 22  1  0  0  0  0
  8 24  1  0  0  0  0
  9 13  2  0  0  0  0
  9 23  1  0  0  0  0
 10 26  2  0  0  0  0
 11 27  1  0  0  0  0
 12 27  2  0  0  0  0
 13 28  1  0  0  0  0
 14 15  2  0  0  0  0
 14 29  1  0  0  0  0
 15 30  1  0  0  0  0
 16 20  2  0  0  0  0
 16 26  1  0  0  0  0
 17 25  1  0  0  0  0
 17 28  2  0  0  0  0
 18 30  2  0  0  0  0
 18 31  1  0  0  0  0
 19 32  1  0  0  0  0
 20 35  1  0  0  0  0
 21 32  1  0  0  0  0
 21 33  2  0  0  0  0
 21 36  1  0  0  0  0
 22 24  2  0  0  0  0
 22 43  1  0  0  0  0
 23 25  2  0  0  0  0
 23 44  1  0  0  0  0
 24 52  1  0  0  0  0
 25 45  1  0  0  0  0
 26 69  1  0  0  0  0
 27 82  1  0  0  0  0
 28 83  1  0  0  0  0
 29 31  2  0  0  0  0
 29 82  1  0  0  0  0
 30 84  1  0  0  0  0
 31 85  1  0  0  0  0
 32 63  2  0  0  0  0
 33 64  1  0  0  0  0
 33 67  1  0  0  0  0
 34 37  2  0  0  0  0
 34 83  1  0  0  0  0
 35 70  1  0  0  0  0
 35 74  2  0  0  0  0
 36 68  1  0  0  0  0
 36 75  2  0  0  0  0
 37 38  1  0  0  0  0
 37 81  1  0  0  0  0
 38 70  1  0  0  0  0
 38 76  2  0  0  0  0
 39 53  1  0  0  0  0
 39 71  1  0  0  0  0
 39 77  2  0  0  0  0
 40 60  1  0  0  0  0
 40 65  1  0  0  0  0
 40 78  2  0  0  0  0
 41 61  1  0  0  0  0
 41 72  1  0  0  0  0
 41 79  2  0  0  0  0
 42 66  1  0  0  0  0
 42 69  1  0  0  0  0
 42 80  2  0  0  0  0
 43 46  1  0  0  0  0
 44 53  1  0  0  0  0
 45 65  1  0  0  0  0
 46 48  1  0  0  0  0
 47 49  1  0  0  0  0
 47 50  1  0  0  0  0
 48 52  1  0  0  0  0
 49 54  1  0  0  0  0
 50 66  1  0  0  0  0
 51 54  1  0  0  0  0
 51 66  1  0  0  0  0
 52 71  1  0  0  0  0
 53 65  1  0  0  0  0
 54 64  1  0  0  0  0
 55 61  1  0  0  0  0
 56 62  1  0  0  0  0
 57 62  1  0  0  0  0
 58 62  1  0  0  0  0
 59 73  1  0  0  0  0
 60 62  1  0  0  0  0
 60 72  1  0  0  0  0
 61 73  1  0  0  0  0
 63 64  1  0  0  0  0
M  CHG  1  73   1
M  ISO  4  34 101  42 100  69 100  83 101
M  END
> <Batch ID>
0085

> <Smiles>
CNC(C)C(=O)NC(C(=O)N1Cc2cc([101O:1][101CH2:1]C(=O)C(=O)NC(=O)c3cccc([100NH:0][100C:0](=O)N4CCCC(n5nc(-c6ccc(Oc7ccc(F)cc7F)cc6)c(C(N)=O)c5N)C4)c3)ccc2CC1C(=O)NC1CCCc2ccccc21)C(C)(C)C

> <Shape>
0.239

> <Color>
0.183

> <Negative vol penalty>
0.000

$$$$

  -OEChem-04052300153D

 84 93  0     1  0  0  0  0  0999 V2000
  -27.3783  -37.7506   23.8460 C   0  0  0  0  0  0  0  0  0  0  0  0
  -27.9648  -36.8071   23.0086 C   0  0  0  0  0  0  0  0  0  0  0  0
  -24.1859   -9.2995   22.2135 C   0  0  0  0  0  0  0  0  0  0  0  0
  -22.9231  -11.2834   21.6598 C   0  0  0  0  0  0  0  0  0  0  0  0
  -26.4957  -37.3416   24.8447 C   0  0  0  0  0  0  0  0  0  0  0  0
  -27.6698  -35.4538   23.1702 C   0  0  0  0  0  0  0  0  0  0  0  0
  -26.9110  -29.4153   19.3918 C   0  0  0  0  0  0  0  0  0  0  0  0
  -26.2998  -19.4060   19.1256 C   0  0  0  0  0  0  0  0  0  0  0  0
  -26.5644  -18.0444   18.9786 C   0  0  0  0  0  0  0  0  0  0  0  0
  -23.3208   -9.0459   23.2778 C   0  0  0  0  0  0  0  0  0  0  0  0
  -22.0579  -11.0298   22.7241 C   0  0  0  0  0  0  0  0  0  0  0  0
  -27.3662  -28.0978   19.3639 C   0  0  0  0  0  0  0  0  0  0  0  0
  -20.2302   -7.7480   23.7209 C   0  0  0  0  0  0  0  0  0  0  0  0
  -19.7721   -6.4410   23.8866 C   0  0  0  0  0  0  0  0  0  0  0  0
  -25.7657  -27.5151   21.0721 C   0  0  0  0  0  0  0  0  0  0  0  0
  -28.8456  -18.4116   19.6847 C   0  0  0  0  0  0  0  0  0  0  0  0
  -20.7712   -6.3696   26.0852 C   0  0  0  0  0  0  0  0  0  0  0  0
  -23.9871  -10.4183   21.4045 C   0  0  0  0  0  0  0  0  0  0  0  0
  -24.7521  -10.2291   18.9782 C   0  0  0  0  0  0  0  0  0  0  0  0
  -26.1822  -35.9836   25.0125 C   0  0  0  0  0  0  0  0  0  0  0  0
  -25.8855  -29.7956   20.2693 C   0  0  0  0  0  0  0  0  0  0  0  0
  -26.7831  -35.0262   24.1730 C   0  0  0  0  0  0  0  0  0  0  0  0
  -25.2975  -28.8374   21.1073 C   0  0  0  0  0  0  0  0  0  0  0  0
  -27.3081  -20.2704   19.5521 C   0  0  0  0  0  0  0  0  0  0  0  0
  -27.8373  -17.5472   19.2582 C   0  0  0  0  0  0  0  0  0  0  0  0
  -22.2568   -9.9110   23.5331 C   0  0  0  0  0  0  0  0  0  0  0  0
  -26.7956  -27.1481   20.2062 C   0  0  0  0  0  0  0  0  0  0  0  0
  -20.9588   -8.3658   24.7373 C   0  0  0  0  0  0  0  0  0  0  0  0
  -20.0426   -5.7518   25.0688 C   0  0  0  0  0  0  0  0  0  0  0  0
  -28.5810  -19.7732   19.8317 C   0  0  0  0  0  0  0  0  0  0  0  0
  -21.2293   -7.6766   25.9194 C   0  0  0  0  0  0  0  0  0  0  0  0
  -24.8808  -10.6812   20.3052 C   0  0  0  0  0  0  0  0  0  0  0  0
  -25.8475  -10.7468   18.3314 C   0  0  0  0  0  0  0  0  0  0  0  0
  -26.6694  -23.5750   19.8071 C   0  0  0  0  0  0  0  0  0  0  0  0
  -25.9252  -22.3530   19.4998 C   0  0  0  0  0  0  0  0  0  0  0  0
  -26.3437  -24.8791   19.8622 C   0  0  0  0  0  0  0  0  0  1  0  0
  -23.7334   -9.4141   18.3835 C   0  0  0  0  0  0  0  0  0  0  0  0
  -25.6518  -31.8329   22.6980 C   0  0  0  0  0  0  0  0  0  0  0  0
  -22.5157  -31.0131   22.5759 C   0  0  0  0  0  0  0  0  0  0  0  0
  -20.1531  -28.7222   21.6721 C   0  0  0  0  0  0  0  0  0  0  0  0
  -29.3136  -15.5077   19.3439 C   0  0  0  0  0  0  0  0  0  0  0  0
  -25.2589  -35.5851   26.1365 C   0  0  0  0  0  0  0  0  0  0  0  0
  -25.3875  -31.2149   20.2681 C   0  0  0  0  0  0  0  0  0  0  0  0
  -24.1798  -29.1901   22.0533 C   0  0  0  0  0  0  0  0  0  0  0  0
  -27.9078  -22.7348   20.0196 C   0  0  0  0  0  0  0  0  0  0  0  0
  -24.7098  -34.1674   26.0001 C   0  0  0  0  0  0  0  0  0  0  0  0
  -30.3676  -12.1136   19.1285 C   0  0  0  0  0  0  0  0  0  0  0  0
  -25.8291  -33.1929   25.6477 C   0  0  0  0  0  0  0  0  0  0  0  0
  -29.0676  -11.3201   19.2790 C   0  0  0  0  0  0  0  0  0  0  0  0
  -30.3753  -13.3618   20.0093 C   0  0  0  0  0  0  0  0  0  0  0  0
  -27.9134  -13.4510   19.9957 C   0  0  0  0  0  0  0  0  0  0  0  0
  -26.4690  -33.5514   24.3010 C   0  0  1  0  0  0  0  0  0  0  0  0
  -24.6890  -31.6041   21.5674 C   0  0  1  0  0  0  0  0  0  0  0  0
  -27.8320  -12.2195   19.0791 C   0  0  2  0  0  0  0  0  0  0  0  0
  -17.6776  -28.3154   21.7361 C   0  0  0  0  0  0  0  0  0  0  0  0
  -22.7064  -30.3347   25.5446 C   0  0  0  0  0  0  0  0  0  0  0  0
  -20.5556  -29.0725   25.3230 C   0  0  0  0  0  0  0  0  0  0  0  0
  -20.6109  -31.5266   24.8793 C   0  0  0  0  0  0  0  0  0  0  0  0
  -19.9788  -28.6052   18.7200 C   0  0  0  0  0  0  0  0  0  0  0  0
  -21.6650  -29.9422   23.2149 C   0  0  1  0  0  0  0  0  0  0  0  0
  -18.8391  -28.8709   20.9266 C   0  0  2  0  0  0  0  0  0  0  0  0
  -21.4068  -30.2125   24.7241 C   0  0  0  0  0  0  0  0  0  0  0  0
  -25.9720  -11.4284   20.4918 N   0  0  0  0  0  0  0  0  0  0  0  0
  -26.5390  -11.4499   19.2736 N   0  0  0  0  0  0  0  0  0  0  0  0
  -27.0443  -21.6128   19.6962 N   0  0  0  0  0  0  0  0  0  0  0  0
  -23.7320  -30.5922   22.0197 N   0  0  0  0  0  0  0  0  0  0  0  0
  -29.1773  -14.1672   19.7625 N   0  0  0  0  0  0  0  0  0  0  0  0
  -26.2771  -10.6647   17.0542 N   0  0  0  0  0  0  0  0  0  0  0  0
  -22.6788   -8.9674   19.1913 N   0  0  0  0  0  0  0  0  0  0  0  0
  -28.1059  -16.1640   19.1087 N   0  0  0  0  0  0  0  0  0  0  0  0
  -25.6250  -33.1165   23.2088 N   0  0  0  0  0  0  0  0  0  0  0  0
  -20.4527  -29.8487   22.4087 N   0  0  0  0  0  0  0  0  0  0  0  0
  -18.8959  -28.1444   19.6267 N   0  3  0  0  0  0  0  0  0  0  0  0
  -24.7813  -22.0992   19.1844 O   0  0  0  0  0  0  0  0  0  0  0  0
  -23.7663   -9.0780   17.1754 O   0  0  0  0  0  0  0  0  0  0  0  0
  -26.3652  -30.9125   23.0797 O   0  0  0  0  0  0  0  0  0  0  0  0
  -22.1125  -32.1788   22.5641 O   0  0  0  0  0  0  0  0  0  0  0  0
  -20.8427  -27.7068   21.6104 O   0  0  0  0  0  0  0  0  0  0  0  0
  -30.4206  -16.0264   19.1781 O   0  0  0  0  0  0  0  0  0  0  0  0
  -21.4123   -9.6637   24.5715 O   0  0  0  0  0  0  0  0  0  0  0  0
  -27.2384  -25.8616   20.1816 O   0  0  0  0  0  0  0  0  0  1  0  0
  -19.6013   -4.4972   25.2284 F   0  0  0  0  0  0  0  0  0  0  0  0
  -29.5580  -20.5949   20.2417 F   0  0  0  0  0  0  0  0  0  0  0  0
  -21.9278   -8.2654   26.8999 F   0  0  0  0  0  0  0  0  0  0  0  0
  1  2  1  0  0  0  0
  1  5  2  0  0  0  0
  2  6  2  0  0  0  0
  3 10  2  0  0  0  0
  3 18  1  0  0  0  0
  4 11  1  0  0  0  0
  4 18  2  0  0  0  0
  5 20  1  0  0  0  0
  6 22  1  0  0  0  0
  7 12  2  0  0  0  0
  7 21  1  0  0  0  0
  8  9  2  0  0  0  0
  8 24  1  0  0  0  0
  9 25  1  0  0  0  0
 10 26  1  0  0  0  0
 11 26  2  0  0  0  0
 12 27  1  0  0  0  0
 13 14  2  0  0  0  0
 13 28  1  0  0  0  0
 14 29  1  0  0  0  0
 15 23  1  0  0  0  0
 15 27  2  0  0  0  0
 16 25  2  0  0  0  0
 16 30  1  0  0  0  0
 17 29  2  0  0  0  0
 17 31  1  0  0  0  0
 18 32  1  0  0  0  0
 19 32  1  0  0  0  0
 19 33  2  0  0  0  0
 19 37  1  0  0  0  0
 20 22  2  0  0  0  0
 20 42  1  0  0  0  0
 21 23  2  0  0  0  0
 21 43  1  0  0  0  0
 22 52  1  0  0  0  0
 23 44  1  0  0  0  0
 24 30  2  0  0  0  0
 24 65  1  0  0  0  0
 25 70  1  0  0  0  0
 26 80  1  0  0  0  0
 27 81  1  0  0  0  0
 28 31  2  0  0  0  0
 28 80  1  0  0  0  0
 29 82  1  0  0  0  0
 30 83  1  0  0  0  0
 31 84  1  0  0  0  0
 32 63  2  0  0  0  0
 33 64  1  0  0  0  0
 33 68  1  0  0  0  0
 34 35  1  0  0  0  0
 34 36  2  0  0  0  0
 34 45  1  0  0  0  0
 35 65  1  0  0  0  0
 35 74  2  0  0  0  0
 36 81  1  0  0  0  0
 37 69  1  0  0  0  0
 37 75  2  0  0  0  0
 38 53  1  0  0  0  0
 38 71  1  0  0  0  0
 38 76  2  0  0  0  0
 39 60  1  0  0  0  0
 39 66  1  0  0  0  0
 39 77  2  0  0  0  0
 40 61  1  0  0  0  0
 40 72  1  0  0  0  0
 40 78  2  0  0  0  0
 41 67  1  0  0  0  0
 41 70  1  0  0  0  0
 41 79  2  0  0  0  0
 42 46  1  0  0  0  0
 43 53  1  0  0  0  0
 44 66  1  0  0  0  0
 45 65  1  0  0  0  0
 46 48  1  0  0  0  0
 47 49  1  0  0  0  0
 47 50  1  0  0  0  0
 48 52  1  0  0  0  0
 49 54  1  0  0  0  0
 50 67  1  0  0  0  0
 51 54  1  0  0  0  0
 51 67  1  0  0  0  0
 52 71  1  0  0  0  0
 53 66  1  0  0  0  0
 54 64  1  0  0  0  0
 55 61  1  0  0  0  0
 56 62  1  0  0  0  0
 57 62  1  0  0  0  0
 58 62  1  0  0  0  0
 59 73  1  0  0  0  0
 60 62  1  0  0  0  0
 60 72  1  0  0  0  0
 61 73  1  0  0  0  0
 63 64  1  0  0  0  0
M  CHG  1  73   1
M  ISO  4  36 101  41 100  70 100  81 101
M  END
> <Batch ID>
0085

> <Smiles>
CNC(C)C(=O)NC(C(=O)N1Cc2cc([101O:1][101CH:1]=C3CN(c4ccc([100NH:0][100C:0](=O)N5CCCC(n6nc(-c7ccc(Oc8ccc(F)cc8F)cc7)c(C(N)=O)c6N)C5)cc4F)C3=O)ccc2CC1C(=O)NC1CCCc2ccccc21)C(C)(C)C

> <Shape>
0.297

> <Color>
0.088

> <Negative vol penalty>
0.000

$$$$

  -OEChem-04052300153D

 81 89  0     1  0  0  0  0  0999 V2000
  -15.0817  -22.5343   22.9702 C   0  0  0  0  0  0  0  0  0  0  0  0
  -16.2850  -21.8361   22.9745 C   0  0  0  0  0  0  0  0  0  0  0  0
  -23.0776   -9.8622   19.9446 C   0  0  0  0  0  0  0  0  0  0  0  0
  -23.8313   -9.8804   22.2399 C   0  0  0  0  0  0  0  0  0  0  0  0
  -15.0769  -23.9140   23.1709 C   0  0  0  0  0  0  0  0  0  0  0  0
  -17.4844  -22.5174   23.1784 C   0  0  0  0  0  0  0  0  0  0  0  0
  -22.4387  -20.4488   26.1249 C   0  0  0  0  0  0  0  0  0  0  0  0
  -31.1464  -17.6993   20.5861 C   0  0  0  0  0  0  0  0  0  0  0  0
  -31.3146  -19.0839   20.5873 C   0  0  0  0  0  0  0  0  0  0  0  0
  -22.3338   -8.7098   20.1979 C   0  0  0  0  0  0  0  0  0  0  0  0
  -23.0874   -8.7280   22.4933 C   0  0  0  0  0  0  0  0  0  0  0  0
  -23.6326  -19.8882   25.6733 C   0  0  0  0  0  0  0  0  0  0  0  0
  -19.8580   -7.9311   23.0908 C   0  0  0  0  0  0  0  0  0  0  0  0
  -19.0979   -7.8962   24.2598 C   0  0  0  0  0  0  0  0  0  0  0  0
  -29.5111  -17.8963   22.3536 C   0  0  0  0  0  0  0  0  0  0  0  0
  -24.6884  -22.0537   25.7949 C   0  0  0  0  0  0  0  0  0  0  0  0
  -20.3384   -5.9630   25.0087 C   0  0  0  0  0  0  0  0  0  0  0  0
  -23.8265  -10.4475   20.9656 C   0  0  0  0  0  0  0  0  0  0  0  0
  -29.6792  -19.2810   22.3548 C   0  0  0  0  0  0  0  0  0  0  0  0
  -24.1672  -12.9722   20.8346 C   0  0  0  0  0  0  0  0  0  0  0  0
  -16.2760  -24.6112   23.3870 C   0  0  0  0  0  0  0  0  0  0  0  0
  -22.3575  -21.8204   26.4049 C   0  0  0  0  0  0  0  0  0  0  0  0
  -17.4958  -23.9080   23.3808 C   0  0  0  0  0  0  0  0  0  0  0  0
  -23.4930  -22.6288   26.2523 C   0  0  0  0  0  0  0  0  0  0  0  0
  -30.2446  -17.1055   21.4692 C   0  0  0  0  0  0  0  0  0  0  0  0
  -30.5810  -19.8748   21.4716 C   0  0  0  0  0  0  0  0  0  0  0  0
  -22.3386   -8.1427   21.4723 C   0  0  0  0  0  0  0  0  0  0  0  0
  -24.7570  -20.6912   25.5055 C   0  0  0  0  0  0  0  0  0  0  0  0
  -20.8583   -6.9819   22.8807 C   0  0  0  0  0  0  0  0  0  0  0  0
  -19.3381   -6.9122   25.2188 C   0  0  0  0  0  0  0  0  0  0  0  0
  -21.0985   -5.9979   23.8396 C   0  0  0  0  0  0  0  0  0  0  0  0
  -24.5956  -11.6376   20.7043 C   0  0  0  0  0  0  0  0  0  0  0  0
  -25.2599  -13.7206   20.4708 C   0  0  0  0  0  0  0  0  0  0  0  0
  -28.8886  -20.0835   23.3030 C   0  0  0  0  0  0  0  0  0  0  0  0
  -27.5484  -20.1498   23.3316 C   0  0  0  0  0  0  0  0  0  0  0  0
  -22.8953  -13.4893   21.2477 C   0  0  0  0  0  0  0  0  0  0  0  0
  -20.6666  -24.2501   25.2468 C   0  0  0  0  0  0  0  0  0  0  0  0
  -22.0626  -25.8748   27.6827 C   0  0  0  0  0  0  0  0  0  0  0  0
  -24.6627  -26.1337   29.8780 C   0  0  0  0  0  0  0  0  0  0  0  0
  -30.7250  -14.7702   20.6555 C   0  0  0  0  0  0  0  0  0  0  0  0
  -16.2249  -26.1095   23.5521 C   0  0  0  0  0  0  0  0  0  0  0  0
  -21.0696  -22.4049   26.9168 C   0  0  0  0  0  0  0  0  0  0  0  0
  -23.4637  -24.1032   26.5586 C   0  0  0  0  0  0  0  0  0  0  0  0
  -17.5056  -26.7021   24.1343 C   0  0  0  0  0  0  0  0  0  0  0  0
  -29.6184  -12.3447   18.2955 C   0  0  0  0  0  0  0  0  0  0  0  0
  -18.7292  -26.1266   23.4282 C   0  0  0  0  0  0  0  0  0  0  0  0
  -28.1778  -12.0543   18.7225 C   0  0  0  0  0  0  0  0  0  0  0  0
  -30.5301  -12.5797   19.4985 C   0  0  0  0  0  0  0  0  0  0  0  0
  -28.6190  -13.3095   20.8712 C   0  0  0  0  0  0  0  0  0  0  0  0
  -18.8153  -24.6081   23.6234 C   0  0  1  0  0  0  0  0  0  0  0  0
  -20.9598  -23.9080   26.6802 C   0  0  1  0  0  0  0  0  0  0  0  0
  -27.6495  -13.1301   19.6916 C   0  0  2  0  0  0  0  0  0  0  0  0
  -25.5468  -27.5886   31.7217 C   0  0  0  0  0  0  0  0  0  0  0  0
  -22.9942  -27.9199   25.6187 C   0  0  0  0  0  0  0  0  0  0  0  0
  -24.6202  -28.7864   27.3139 C   0  0  0  0  0  0  0  0  0  0  0  0
  -22.1696  -28.9047   27.7646 C   0  0  0  0  0  0  0  0  0  0  0  0
  -24.5055  -23.9314   31.8488 C   0  0  0  0  0  0  0  0  0  0  0  0
  -26.7888  -20.9912   24.3065 C   0  0  0  0  0  0  0  0  0  1  0  0
  -23.3385  -26.6645   27.8484 C   0  0  1  0  0  0  0  0  0  0  0  0
  -24.6957  -26.3766   31.3762 C   0  0  2  0  0  0  0  0  0  0  0  0
  -23.2810  -28.0415   27.1287 C   0  0  0  0  0  0  0  0  0  0  0  0
  -25.8616  -11.5405   20.2899 N   0  0  0  0  0  0  0  0  0  0  0  0
  -26.2381  -12.8237   20.1566 N   0  0  0  0  0  0  0  0  0  0  0  0
  -22.1795  -24.6289   27.0503 N   0  0  0  0  0  0  0  0  0  0  0  0
  -29.9682  -13.6143   20.3696 N   0  0  0  0  0  0  0  0  0  0  0  0
  -30.7714  -21.2754   21.4514 N   0  0  0  0  0  0  0  0  0  0  0  0
  -25.4697  -15.0519   20.3921 N   0  0  0  0  0  0  0  0  0  0  0  0
  -21.8830  -12.5811   21.5865 N   0  0  0  0  0  0  0  0  0  0  0  0
  -30.0749  -15.6987   21.4678 N   0  0  0  0  0  0  0  0  0  0  0  0
  -19.3192  -24.2959   24.9437 N   0  0  0  0  0  0  0  0  0  0  0  0
  -23.5818  -26.7505   29.2843 N   0  0  0  0  0  0  0  0  0  0  0  0
  -25.2590  -25.1904   32.0809 N   0  3  0  0  0  0  0  0  0  0  0  0
  -22.6582  -14.7200   21.2986 O   0  0  0  0  0  0  0  0  0  0  0  0
  -21.5940  -24.4585   24.4735 O   0  0  0  0  0  0  0  0  0  0  0  0
  -21.0025  -26.3429   28.1054 O   0  0  0  0  0  0  0  0  0  0  0  0
  -25.5129  -25.4668   29.2925 O   0  0  0  0  0  0  0  0  0  0  0  0
  -31.8553  -14.9374   20.1901 O   0  0  0  0  0  0  0  0  0  0  0  0
  -21.6126   -7.0183   21.7199 O   0  0  0  0  0  0  0  0  0  0  0  0
  -25.9234  -20.1466   25.0642 O   0  0  0  0  0  0  0  0  0  1  0  0
  -18.6092   -6.8798   26.3420 F   0  0  0  0  0  0  0  0  0  0  0  0
  -22.0589   -5.0840   23.6439 F   0  0  0  0  0  0  0  0  0  0  0  0
  1  2  1  0  0  0  0
  1  5  2  0  0  0  0
  2  6  2  0  0  0  0
  3 10  2  0  0  0  0
  3 18  1  0  0  0  0
  4 11  1  0  0  0  0
  4 18  2  0  0  0  0
  5 21  1  0  0  0  0
  6 23  1  0  0  0  0
  7 12  2  0  0  0  0
  7 22  1  0  0  0  0
  8  9  2  0  0  0  0
  8 25  1  0  0  0  0
  9 26  1  0  0  0  0
 10 27  1  0  0  0  0
 11 27  2  0  0  0  0
 12 28  1  0  0  0  0
 13 14  2  0  0  0  0
 13 29  1  0  0  0  0
 14 30  1  0  0  0  0
 15 19  1  0  0  0  0
 15 25  2  0  0  0  0
 16 24  1  0  0  0  0
 16 28  2  0  0  0  0
 17 30  2  0  0  0  0
 17 31  1  0  0  0  0
 18 32  1  0  0  0  0
 19 26  2  0  0  0  0
 19 34  1  0  0  0  0
 20 32  1  0  0  0  0
 20 33  2  0  0  0  0
 20 36  1  0  0  0  0
 21 23  2  0  0  0  0
 21 41  1  0  0  0  0
 22 24  2  0  0  0  0
 22 42  1  0  0  0  0
 23 50  1  0  0  0  0
 24 43  1  0  0  0  0
 25 69  1  0  0  0  0
 26 66  1  0  0  0  0
 27 78  1  0  0  0  0
 28 79  1  0  0  0  0
 29 31  2  0  0  0  0
 29 78  1  0  0  0  0
 30 80  1  0  0  0  0
 31 81  1  0  0  0  0
 32 62  2  0  0  0  0
 33 63  1  0  0  0  0
 33 67  1  0  0  0  0
 34 35  2  0  0  0  0
 35 58  1  0  0  0  0
 36 68  1  0  0  0  0
 36 73  2  0  0  0  0
 37 51  1  0  0  0  0
 37 70  1  0  0  0  0
 37 74  2  0  0  0  0
 38 59  1  0  0  0  0
 38 64  1  0  0  0  0
 38 75  2  0  0  0  0
 39 60  1  0  0  0  0
 39 71  1  0  0  0  0
 39 76  2  0  0  0  0
 40 65  1  0  0  0  0
 40 69  1  0  0  0  0
 40 77  2  0  0  0  0
 41 44  1  0  0  0  0
 42 51  1  0  0  0  0
 43 64  1  0  0  0  0
 44 46  1  0  0  0  0
 45 47  1  0  0  0  0
 45 48  1  0  0  0  0
 46 50  1  0  0  0  0
 47 52  1  0  0  0  0
 48 65  1  0  0  0  0
 49 52  1  0  0  0  0
 49 65  1  0  0  0  0
 50 70  1  0  0  0  0
 51 64  1  0  0  0  0
 52 63  1  0  0  0  0
 53 60  1  0  0  0  0
 54 61  1  0  0  0  0
 55 61  1  0  0  0  0
 56 61  1  0  0  0  0
 57 72  1  0  0  0  0
 58 79  1  0  0  0  0
 59 61  1  0  0  0  0
 59 71  1  0  0  0  0
 60 72  1  0  0  0  0
 62 63  1  0  0  0  0
M  CHG  1  72   1
M  ISO  4  40 100  58 101  69 100  79 101
M  END
> <Batch ID>
0085

> <Smiles>
CNC(C)C(=O)NC(C(=O)N1Cc2cc([101O:1][101CH2:1]C=Cc3cc([100NH:0][100C:0](=O)N4CCCC(n5nc(-c6ccc(Oc7ccc(F)cc7F)cc6)c(C(N)=O)c5N)C4)ccc3N)ccc2CC1C(=O)NC1CCCc2ccccc21)C(C)(C)C

> <Shape>
0.190

> <Color>
0.192

> <Negative vol penalty>
0.000

$$$$

  -OEChem-04052300153D

 90 99  0     1  0  0  0  0  0999 V2000
  -29.4829  -35.4982   17.9790 C   0  0  0  0  0  0  0  0  0  0  0  0
  -29.5957  -34.1994   18.4647 C   0  0  0  0  0  0  0  0  0  0  0  0
  -29.3171  -11.0029   16.6315 C   0  0  0  0  0  0  0  0  0  0  0  0
  -30.2809  -13.1993   16.3412 C   0  0  0  0  0  0  0  0  0  0  0  0
  -28.5232  -36.3589   18.5100 C   0  0  0  0  0  0  0  0  0  0  0  0
  -28.7494  -33.7610   19.4827 C   0  0  0  0  0  0  0  0  0  0  0  0
  -26.8726  -29.1422   18.5945 C   0  0  0  0  0  0  0  0  0  0  0  0
  -29.6617  -10.6783   15.3195 C   0  0  0  0  0  0  0  0  0  0  0  0
  -30.6256  -12.8746   15.0292 C   0  0  0  0  0  0  0  0  0  0  0  0
  -27.7131  -28.0563   18.8354 C   0  0  0  0  0  0  0  0  0  0  0  0
  -32.4360   -9.7311   13.6344 C   0  0  0  0  0  0  0  0  0  0  0  0
  -33.0209   -8.4853   13.4072 C   0  0  0  0  0  0  0  0  0  0  0  0
  -26.1372  -21.9192   20.9653 C   0  0  0  0  0  0  0  0  0  0  0  0
  -27.0880  -19.8429   20.1767 C   0  0  0  0  0  0  0  0  0  0  0  0
  -26.6208  -27.6887   20.9546 C   0  0  0  0  0  0  0  0  0  0  0  0
  -24.9411  -19.8445   21.2847 C   0  0  0  0  0  0  0  0  0  0  0  0
  -31.1975   -7.8978   11.9350 C   0  0  0  0  0  0  0  0  0  0  0  0
  -29.6266  -12.2635   17.1424 C   0  0  0  0  0  0  0  0  0  0  0  0
  -27.1698  -21.2266   20.3332 C   0  0  0  0  0  0  0  0  0  0  0  0
  -30.0509  -12.4101   19.6536 C   0  0  0  0  0  0  0  0  0  0  0  0
  -27.6584  -35.9278   19.5282 C   0  0  0  0  0  0  0  0  0  0  0  0
  -25.9055  -29.5169   19.5383 C   0  0  0  0  0  0  0  0  0  0  0  0
  -27.7782  -34.6173   20.0287 C   0  0  0  0  0  0  0  0  0  0  0  0
  -25.7676  -28.7782   20.7222 C   0  0  0  0  0  0  0  0  0  0  0  0
  -25.0228  -21.2281   21.4412 C   0  0  0  0  0  0  0  0  0  0  0  0
  -25.9736  -19.1519   20.6525 C   0  0  0  0  0  0  0  0  0  0  0  0
  -30.3160  -11.6141   14.5183 C   0  0  0  0  0  0  0  0  0  0  0  0
  -27.5892  -27.3311   20.0169 C   0  0  0  0  0  0  0  0  0  0  0  0
  -31.2317  -10.0601   13.0121 C   0  0  0  0  0  0  0  0  0  0  0  0
  -32.4017   -7.5687   12.5575 C   0  0  0  0  0  0  0  0  0  0  0  0
  -30.6126   -9.1435   12.1623 C   0  0  0  0  0  0  0  0  0  0  0  0
  -29.2704  -12.5996   18.4974 C   0  0  0  0  0  0  0  0  0  0  0  0
  -29.2702  -12.8889   20.6772 C   0  0  0  0  0  0  0  0  0  0  0  0
  -22.8098  -23.4629   23.2774 C   0  0  0  0  0  0  0  0  0  0  0  0
  -21.9338  -22.5537   22.8546 C   0  0  0  0  0  0  0  0  0  0  0  0
  -24.1461  -23.0807   22.7995 C   0  0  0  0  0  0  0  0  0  0  0  0
  -22.6637  -21.5444   22.0630 C   0  0  0  0  0  0  0  0  0  0  0  0
  -29.0795  -24.1198   19.5422 C   0  0  0  0  0  0  0  0  0  0  0  0
  -28.3614  -21.9657   19.8241 C   0  0  0  0  0  0  0  0  0  0  0  0
  -31.3642  -11.8513   19.7901 C   0  0  0  0  0  0  0  0  0  0  0  0
  -25.3644  -32.1173   21.2844 C   0  0  0  0  0  0  0  0  0  0  0  0
  -22.6616  -30.5254   22.1107 C   0  0  0  0  0  0  0  0  0  0  0  0
  -21.0466  -27.5378   22.4460 C   0  0  0  0  0  0  0  0  0  0  0  0
  -24.8552  -16.9089   20.9071 C   0  0  0  0  0  0  0  0  0  0  0  0
  -26.6682  -36.9093   20.1035 C   0  0  0  0  0  0  0  0  0  0  0  0
  -24.9888  -30.6743   19.2515 C   0  0  0  0  0  0  0  0  0  0  0  0
  -24.7318  -29.1271   21.7584 C   0  0  0  0  0  0  0  0  0  0  0  0
  -25.5609  -36.2490   20.9210 C   0  0  0  0  0  0  0  0  0  0  0  0
  -24.6857  -13.4997   21.9197 C   0  0  0  0  0  0  0  0  0  0  0  0
  -26.1477  -35.2179   21.8799 C   0  0  0  0  0  0  0  0  0  0  0  0
  -25.9165  -12.8660   21.2672 C   0  0  0  0  0  0  0  0  0  0  0  0
  -24.0509  -14.5606   21.0223 C   0  0  0  0  0  0  0  0  0  0  0  0
  -26.2017  -14.9669   19.8917 C   0  0  0  0  0  0  0  0  0  0  0  0
  -26.8620  -34.0970   21.1151 C   0  0  1  0  0  0  0  0  0  0  0  0
  -24.3822  -31.2827   20.5122 C   0  0  1  0  0  0  0  0  0  0  0  0
  -26.9135  -13.9380   20.7852 C   0  0  2  0  0  0  0  0  0  0  0  0
  -20.4721  -22.4950   23.0830 C   0  0  0  0  0  0  0  0  0  0  0  0
  -18.8584  -26.5528   23.1803 C   0  0  0  0  0  0  0  0  0  0  0  0
  -23.4494  -30.9554   25.0269 C   0  0  0  0  0  0  0  0  0  0  0  0
  -21.7988  -29.1832   25.6616 C   0  0  0  0  0  0  0  0  0  0  0  0
  -21.0158  -31.2726   24.5462 C   0  0  0  0  0  0  0  0  0  0  0  0
  -20.5278  -26.3969   19.7649 C   0  0  0  0  0  0  0  0  0  0  0  0
  -28.8780  -25.5451   19.1194 C   0  0  0  0  0  0  0  0  0  1  0  0
  -22.2859  -29.5501   23.2001 C   0  0  1  0  0  0  0  0  0  0  0  0
  -19.6663  -27.0840   22.0064 C   0  0  2  0  0  0  0  0  0  0  0  0
  -22.1584  -30.2347   24.5903 C   0  0  0  0  0  0  0  0  0  0  0  0
  -28.0847  -13.1553   18.7611 N   0  0  0  0  0  0  0  0  0  0  0  0
  -28.1202  -23.2636   19.4268 N   0  0  0  0  0  0  0  0  0  0  0  0
  -28.1144  -13.3190   20.0946 N   0  0  0  0  0  0  0  0  0  0  0  0
  -23.9898  -21.9209   22.0736 N   0  0  0  0  0  0  0  0  0  0  0  0
  -23.8633  -30.2709   21.4348 N   0  0  0  0  0  0  0  0  0  0  0  0
  -25.0538  -15.5443   20.6083 N   0  0  0  0  0  0  0  0  0  0  0  0
  -29.4664  -12.9796   22.0097 N   0  0  0  0  0  0  0  0  0  0  0  0
  -32.0249  -11.4081   18.6362 N   0  0  0  0  0  0  0  0  0  0  0  0
  -25.8906  -17.7463   20.4931 N   0  0  0  0  0  0  0  0  0  0  0  0
  -25.8989  -33.1681   20.5636 N   0  0  0  0  0  0  0  0  0  0  0  0
  -21.0696  -28.8827   22.7488 N   0  0  0  0  0  0  0  0  0  0  0  0
  -19.7768  -26.0043   20.9851 N   0  3  0  0  0  0  0  0  0  0  0  0
  -25.1588  -23.7186   23.0376 O   0  0  0  0  0  0  0  0  0  0  0  0
  -22.1401  -20.5806   21.5274 O   0  0  0  0  0  0  0  0  0  0  0  0
  -29.4448  -21.3884   19.7918 O   0  0  0  0  0  0  0  0  0  0  0  0
  -31.9283  -11.7331   20.9042 O   0  0  0  0  0  0  0  0  0  0  0  0
  -25.6175  -31.8300   22.4485 O   0  0  0  0  0  0  0  0  0  0  0  0
  -21.9126  -31.4740   21.8637 O   0  0  0  0  0  0  0  0  0  0  0  0
  -22.0073  -26.7746   22.5173 O   0  0  0  0  0  0  0  0  0  0  0  0
  -23.8542  -17.3020   21.5116 O   0  0  0  0  0  0  0  0  0  0  0  0
  -30.6527  -11.2976   13.2381 O   0  0  0  0  0  0  0  0  0  0  0  0
  -28.4088  -26.2711   20.2549 O   0  0  0  0  0  0  0  0  0  1  0  0
  -32.9643   -6.3731   12.3381 F   0  0  0  0  0  0  0  0  0  0  0  0
  -29.4562   -9.4544   11.5607 F   0  0  0  0  0  0  0  0  0  0  0  0
  1  2  1  0  0  0  0
  1  5  2  0  0  0  0
  2  6  2  0  0  0  0
  3  8  2  0  0  0  0
  3 18  1  0  0  0  0
  4  9  1  0  0  0  0
  4 18  2  0  0  0  0
  5 21  1  0  0  0  0
  6 23  1  0  0  0  0
  7 10  2  0  0  0  0
  7 22  1  0  0  0  0
  8 27  1  0  0  0  0
  9 27  2  0  0  0  0
 10 28  1  0  0  0  0
 11 12  2  0  0  0  0
 11 29  1  0  0  0  0
 12 30  1  0  0  0  0
 13 19  2  0  0  0  0
 13 25  1  0  0  0  0
 14 19  1  0  0  0  0
 14 26  2  0  0  0  0
 15 24  1  0  0  0  0
 15 28  2  0  0  0  0
 16 25  2  0  0  0  0
 16 26  1  0  0  0  0
 17 30  2  0  0  0  0
 17 31  1  0  0  0  0
 18 32  1  0  0  0  0
 19 39  1  0  0  0  0
 20 32  1  0  0  0  0
 20 33  2  0  0  0  0
 20 40  1  0  0  0  0
 21 23  2  0  0  0  0
 21 45  1  0  0  0  0
 22 24  2  0  0  0  0
 22 46  1  0  0  0  0
 23 54  1  0  0  0  0
 24 47  1  0  0  0  0
 25 70  1  0  0  0  0
 26 75  1  0  0  0  0
 27 87  1  0  0  0  0
 28 88  1  0  0  0  0
 29 31  2  0  0  0  0
 29 87  1  0  0  0  0
 30 89  1  0  0  0  0
 31 90  1  0  0  0  0
 32 67  2  0  0  0  0
 33 69  1  0  0  0  0
 33 73  1  0  0  0  0
 34 35  2  0  0  0  0
 34 36  1  0  0  0  0
 35 37  1  0  0  0  0
 35 57  1  0  0  0  0
 36 70  1  0  0  0  0
 36 79  2  0  0  0  0
 37 70  1  0  0  0  0
 37 80  2  0  0  0  0
 38 63  1  0  0  0  0
 38 68  2  0  0  0  0
 39 68  1  0  0  0  0
 39 81  2  0  0  0  0
 40 74  1  0  0  0  0
 40 82  2  0  0  0  0
 41 55  1  0  0  0  0
 41 76  1  0  0  0  0
 41 83  2  0  0  0  0
 42 64  1  0  0  0  0
 42 71  1  0  0  0  0
 42 84  2  0  0  0  0
 43 65  1  0  0  0  0
 43 77  1  0  0  0  0
 43 85  2  0  0  0  0
 44 72  1  0  0  0  0
 44 75  1  0  0  0  0
 44 86  2  0  0  0  0
 45 48  1  0  0  0  0
 46 55  1  0  0  0  0
 47 71  1  0  0  0  0
 48 50  1  0  0  0  0
 49 51  1  0  0  0  0
 49 52  1  0  0  0  0
 50 54  1  0  0  0  0
 51 56  1  0  0  0  0
 52 72  1  0  0  0  0
 53 56  1  0  0  0  0
 53 72  1  0  0  0  0
 54 76  1  0  0  0  0
 55 71  1  0  0  0  0
 56 69  1  0  0  0  0
 58 65  1  0  0  0  0
 59 66  1  0  0  0  0
 60 66  1  0  0  0  0
 61 66  1  0  0  0  0
 62 78  1  0  0  0  0
 63 88  1  0  0  0  0
 64 66  1  0  0  0  0
 64 77  1  0  0  0  0
 65 78  1  0  0  0  0
 67 69  1  0  0  0  0
M  CHG  1  78   1
M  ISO  4  44 100  63 101  75 100  88 101
M  END
> <Batch ID>
0085

> <Smiles>
CNC(C)C(=O)NC(C(=O)N1Cc2cc([101O:1][101CH:1]=CNC(=O)c3cc([100NH:0][100C:0](=O)N4CCCC(n5nc(-c6ccc(Oc7ccc(F)cc7F)cc6)c(C(N)=O)c5N)C4)cc(N4C(=O)C=C(C)C4=O)c3)ccc2CC1C(=O)NC1CCCc2ccccc21)C(C)(C)C

> <Shape>
0.233

> <Color>
0.080

> <Negative vol penalty>
0.000

$$$$

  -OEChem-04052300153D

 86 95  0     1  0  0  0  0  0999 V2000
  -17.9558  -30.8826   23.4828 C   0  0  0  0  0  0  0  0  0  0  0  0
  -19.1135  -30.1265   23.3292 C   0  0  0  0  0  0  0  0  0  0  0  0
  -23.3939   -9.5719   20.0979 C   0  0  0  0  0  0  0  0  0  0  0  0
  -23.6604  -10.1352   22.4321 C   0  0  0  0  0  0  0  0  0  0  0  0
  -16.8006  -30.2908   23.9919 C   0  0  0  0  0  0  0  0  0  0  0  0
  -19.1169  -28.7785   23.6857 C   0  0  0  0  0  0  0  0  0  0  0  0
  -22.2076  -24.2546   20.9492 C   0  0  0  0  0  0  0  0  0  0  0  0
  -22.6842   -8.4257   20.4555 C   0  0  0  0  0  0  0  0  0  0  0  0
  -22.9506   -8.9890   22.7898 C   0  0  0  0  0  0  0  0  0  0  0  0
  -23.4152  -23.6270   21.2515 C   0  0  0  0  0  0  0  0  0  0  0  0
  -19.7208   -8.0051   22.9346 C   0  0  0  0  0  0  0  0  0  0  0  0
  -18.7414   -8.1321   23.9196 C   0  0  0  0  0  0  0  0  0  0  0  0
  -22.2118  -21.8722   22.3880 C   0  0  0  0  0  0  0  0  0  0  0  0
  -28.9245  -18.3230   22.7339 C   0  0  0  0  0  0  0  0  0  0  0  0
  -30.5779  -19.6252   23.9203 C   0  0  0  0  0  0  0  0  0  0  0  0
  -31.2295  -17.6003   22.7747 C   0  0  0  0  0  0  0  0  0  0  0  0
  -19.9160   -6.5296   25.2941 C   0  0  0  0  0  0  0  0  0  0  0  0
  -23.8821  -10.4267   21.0862 C   0  0  0  0  0  0  0  0  0  0  0  0
  -24.0910  -12.8929   20.4681 C   0  0  0  0  0  0  0  0  0  0  0  0
  -16.7871  -28.9324   24.3457 C   0  0  0  0  0  0  0  0  0  0  0  0
  -20.9915  -23.7005   21.3741 C   0  0  0  0  0  0  0  0  0  0  0  0
  -17.9608  -28.1683   24.2012 C   0  0  0  0  0  0  0  0  0  0  0  0
  -20.9899  -22.4934   22.0875 C   0  0  0  0  0  0  0  0  0  0  0  0
  -29.2584  -19.4320   23.5112 C   0  0  0  0  0  0  0  0  0  0  0  0
  -29.9100  -17.4072   22.3656 C   0  0  0  0  0  0  0  0  0  0  0  0
  -22.4625   -8.1342   21.8014 C   0  0  0  0  0  0  0  0  0  0  0  0
  -23.4177  -22.4371   21.9735 C   0  0  0  0  0  0  0  0  0  0  0  0
  -20.7978   -7.1403   23.1293 C   0  0  0  0  0  0  0  0  0  0  0  0
  -18.8390   -7.3944   25.0994 C   0  0  0  0  0  0  0  0  0  0  0  0
  -31.5634  -18.7093   23.5521 C   0  0  0  0  0  0  0  0  0  0  0  0
  -20.8954   -6.4026   24.3090 C   0  0  0  0  0  0  0  0  0  0  0  0
  -24.6159  -11.6106   20.7174 C   0  0  0  0  0  0  0  0  0  0  0  0
  -25.1883  -13.6589   20.1589 C   0  0  0  0  0  0  0  0  0  0  0  0
  -26.3733  -21.6191   23.8313 C   0  0  0  0  0  0  0  0  0  0  0  0
  -27.0857  -21.9405   25.0756 C   0  0  0  0  0  0  0  0  0  0  0  0
  -27.1388  -20.6041   23.0795 C   0  0  0  0  0  0  0  0  0  0  0  0
  -25.2180  -22.1569   23.4401 C   0  0  0  0  0  0  0  0  0  1  0  0
  -22.7329  -13.3506   20.5122 C   0  0  0  0  0  0  0  0  0  0  0  0
  -18.6402  -24.6526   23.2894 C   0  0  0  0  0  0  0  0  0  0  0  0
  -17.2086  -21.9389   22.2367 C   0  0  0  0  0  0  0  0  0  0  0  0
  -17.5455  -18.8127   20.9099 C   0  0  0  0  0  0  0  0  0  0  0  0
  -30.4278  -15.2769   21.1245 C   0  0  0  0  0  0  0  0  0  0  0  0
  -15.5280  -28.3486   24.9361 C   0  0  0  0  0  0  0  0  0  0  0  0
  -19.6959  -24.3758   21.0168 C   0  0  0  0  0  0  0  0  0  0  0  0
  -19.7104  -21.8467   22.5492 C   0  0  0  0  0  0  0  0  0  0  0  0
  -28.3399  -21.1194   25.1338 C   0  0  0  0  0  0  0  0  0  0  0  0
  -15.5075  -26.8222   24.9388 C   0  0  0  0  0  0  0  0  0  0  0  0
  -29.9734  -12.3206   19.1930 C   0  0  0  0  0  0  0  0  0  0  0  0
  -16.8326  -26.2714   25.4560 C   0  0  0  0  0  0  0  0  0  0  0  0
  -28.4959  -11.9778   19.3969 C   0  0  0  0  0  0  0  0  0  0  0  0
  -30.6045  -12.8881   20.4632 C   0  0  0  0  0  0  0  0  0  0  0  0
  -28.4132  -13.6836   21.2598 C   0  0  0  0  0  0  0  0  0  0  0  0
  -17.9969  -26.6970   24.5534 C   0  0  1  0  0  0  0  0  0  0  0  0
  -18.5464  -23.9916   21.9434 C   0  0  1  0  0  0  0  0  0  0  0  0
  -27.7175  -13.1691   19.9890 C   0  0  2  0  0  0  0  0  0  0  0  0
  -16.1977  -16.8198   20.1964 C   0  0  0  0  0  0  0  0  0  0  0  0
  -16.8156  -21.1609   25.1607 C   0  0  0  0  0  0  0  0  0  0  0  0
  -16.3592  -18.8185   24.4037 C   0  0  0  0  0  0  0  0  0  0  0  0
  -14.8593  -20.6757   23.6802 C   0  0  0  0  0  0  0  0  0  0  0  0
  -18.4889  -19.0305   18.1132 C   0  0  0  0  0  0  0  0  0  0  0  0
  -17.1796  -20.4998   22.6916 C   0  0  1  0  0  0  0  0  0  0  0  0
  -16.8378  -18.1269   19.7553 C   0  0  2  0  0  0  0  0  0  0  0  0
  -16.3278  -20.3016   23.9772 C   0  0  0  0  0  0  0  0  0  0  0  0
  -25.9433  -11.5609   20.5784 N   0  0  0  0  0  0  0  0  0  0  0  0
  -26.2618  -12.8215   20.2383 N   0  0  0  0  0  0  0  0  0  0  0  0
  -28.2745  -20.3468   23.8795 N   0  0  0  0  0  0  0  0  0  0  0  0
  -18.4699  -22.5487   22.1807 N   0  0  0  0  0  0  0  0  0  0  0  0
  -29.8157  -14.0158   20.9642 N   0  0  0  0  0  0  0  0  0  0  0  0
  -25.3299  -14.9604   19.8294 N   0  0  0  0  0  0  0  0  0  0  0  0
  -21.7289  -12.4321   20.8477 N   0  0  0  0  0  0  0  0  0  0  0  0
  -29.5712  -16.2803   21.5763 N   0  0  0  0  0  0  0  0  0  0  0  0
  -18.0270  -25.8893   23.3529 N   0  0  0  0  0  0  0  0  0  0  0  0
  -16.7240  -19.7188   21.5467 N   0  0  0  0  0  0  0  0  0  0  0  0
  -17.8027  -17.8311   18.6586 N   0  3  0  0  0  0  0  0  0  0  0  0
  -26.7195  -22.7404   25.9193 O   0  0  0  0  0  0  0  0  0  0  0  0
  -26.8250  -20.1199   22.0061 O   0  0  0  0  0  0  0  0  0  0  0  0
  -22.4174  -14.5350   20.2456 O   0  0  0  0  0  0  0  0  0  0  0  0
  -19.2244  -24.0822   24.2033 O   0  0  0  0  0  0  0  0  0  0  0  0
  -16.1518  -22.4992   21.9350 O   0  0  0  0  0  0  0  0  0  0  0  0
  -18.7094  -18.5665   21.2186 O   0  0  0  0  0  0  0  0  0  0  0  0
  -31.6172  -15.4602   20.8531 O   0  0  0  0  0  0  0  0  0  0  0  0
  -21.7697   -7.0159   22.1507 O   0  0  0  0  0  0  0  0  0  0  0  0
  -24.5951  -21.8228   22.2705 O   0  0  0  0  0  0  0  0  0  1  0  0
  -17.8993   -7.5176   26.0458 F   0  0  0  0  0  0  0  0  0  0  0  0
  -32.8304  -18.8942   23.9454 F   0  0  0  0  0  0  0  0  0  0  0  0
  -21.9283   -5.5710   24.5023 F   0  0  0  0  0  0  0  0  0  0  0  0
  1  2  1  0  0  0  0
  1  5  2  0  0  0  0
  2  6  2  0  0  0  0
  3  8  2  0  0  0  0
  3 18  1  0  0  0  0
  4  9  1  0  0  0  0
  4 18  2  0  0  0  0
  5 20  1  0  0  0  0
  6 22  1  0  0  0  0
  7 10  2  0  0  0  0
  7 21  1  0  0  0  0
  8 26  1  0  0  0  0
  9 26  2  0  0  0  0
 10 27  1  0  0  0  0
 11 12  2  0  0  0  0
 11 28  1  0  0  0  0
 12 29  1  0  0  0  0
 13 23  1  0  0  0  0
 13 27  2  0  0  0  0
 14 24  2  0  0  0  0
 14 25  1  0  0  0  0
 15 24  1  0  0  0  0
 15 30  2  0  0  0  0
 16 25  2  0  0  0  0
 16 30  1  0  0  0  0
 17 29  2  0  0  0  0
 17 31  1  0  0  0  0
 18 32  1  0  0  0  0
 19 32  1  0  0  0  0
 19 33  2  0  0  0  0
 19 38  1  0  0  0  0
 20 22  2  0  0  0  0
 20 43  1  0  0  0  0
 21 23  2  0  0  0  0
 21 44  1  0  0  0  0
 22 53  1  0  0  0  0
 23 45  1  0  0  0  0
 24 66  1  0  0  0  0
 25 71  1  0  0  0  0
 26 82  1  0  0  0  0
 27 83  1  0  0  0  0
 28 31  2  0  0  0  0
 28 82  1  0  0  0  0
 29 84  1  0  0  0  0
 30 85  1  0  0  0  0
 31 86  1  0  0  0  0
 32 64  2  0  0  0  0
 33 65  1  0  0  0  0
 33 69  1  0  0  0  0
 34 35  1  0  0  0  0
 34 36  1  0  0  0  0
 34 37  2  0  0  0  0
 35 46  1  0  0  0  0
 35 75  2  0  0  0  0
 36 66  1  0  0  0  0
 36 76  2  0  0  0  0
 37 83  1  0  0  0  0
 38 70  1  0  0  0  0
 38 77  2  0  0  0  0
 39 54  1  0  0  0  0
 39 72  1  0  0  0  0
 39 78  2  0  0  0  0
 40 61  1  0  0  0  0
 40 67  1  0  0  0  0
 40 79  2  0  0  0  0
 41 62  1  0  0  0  0
 41 73  1  0  0  0  0
 41 80  2  0  0  0  0
 42 68  1  0  0  0  0
 42 71  1  0  0  0  0
 42 81  2  0  0  0  0
 43 47  1  0  0  0  0
 44 54  1  0  0  0  0
 45 67  1  0  0  0  0
 46 66  1  0  0  0  0
 47 49  1  0  0  0  0
 48 50  1  0  0  0  0
 48 51  1  0  0  0  0
 49 53  1  0  0  0  0
 50 55  1  0  0  0  0
 51 68  1  0  0  0  0
 52 55  1  0  0  0  0
 52 68  1  0  0  0  0
 53 72  1  0  0  0  0
 54 67  1  0  0  0  0
 55 65  1  0  0  0  0
 56 62  1  0  0  0  0
 57 63  1  0  0  0  0
 58 63  1  0  0  0  0
 59 63  1  0  0  0  0
 60 74  1  0  0  0  0
 61 63  1  0  0  0  0
 61 73  1  0  0  0  0
 62 74  1  0  0  0  0
 64 65  1  0  0  0  0
M  CHG  1  74   1
M  ISO  4  37 101  42 100  71 100  83 101
M  END
> <Batch ID>
0085

> <Smiles>
CNC(C)C(=O)NC(C(=O)N1Cc2cc([101O:1][101CH:1]=C3C(=O)CN(c4cc(F)cc([100NH:0][100C:0](=O)N5CCCC(n6nc(-c7ccc(Oc8ccc(F)cc8F)cc7)c(C(N)=O)c6N)C5)c4)C3=O)ccc2CC1C(=O)NC1CCCc2ccccc21)C(C)(C)C

> <Shape>
0.193

> <Color>
0.154

> <Negative vol penalty>
0.000

$$$$

  -OEChem-04052300153D

 84 93  0     1  0  0  0  0  0999 V2000
  -30.2336  -35.6035   24.4632 C   0  0  0  0  0  0  0  0  0  0  0  0
  -30.3805  -34.6704   23.4419 C   0  0  0  0  0  0  0  0  0  0  0  0
  -24.6643   -9.1988   21.8971 C   0  0  0  0  0  0  0  0  0  0  0  0
  -23.1993  -10.0017   20.1518 C   0  0  0  0  0  0  0  0  0  0  0  0
  -29.4033  -35.3234   25.5477 C   0  0  0  0  0  0  0  0  0  0  0  0
  -29.6981  -33.4560   23.5051 C   0  0  0  0  0  0  0  0  0  0  0  0
  -26.5986  -28.5676   19.2845 C   0  0  0  0  0  0  0  0  0  0  0  0
  -23.5338  -19.6067   16.6080 C   0  0  0  0  0  0  0  0  0  0  0  0
  -23.4153  -18.2835   16.1830 C   0  0  0  0  0  0  0  0  0  0  0  0
  -23.5767   -8.6038   22.5364 C   0  0  0  0  0  0  0  0  0  0  0  0
  -22.1116   -9.4066   20.7910 C   0  0  0  0  0  0  0  0  0  0  0  0
  -26.6087  -27.1954   19.0384 C   0  0  0  0  0  0  0  0  0  0  0  0
  -21.7122   -5.8040   22.1932 C   0  0  0  0  0  0  0  0  0  0  0  0
  -21.8717   -4.5019   22.6671 C   0  0  0  0  0  0  0  0  0  0  0  0
  -25.1399  -26.8531   20.9212 C   0  0  0  0  0  0  0  0  0  0  0  0
  -25.3662  -18.9788   18.0520 C   0  0  0  0  0  0  0  0  0  0  0  0
  -21.4022   -5.2613   24.9121 C   0  0  0  0  0  0  0  0  0  0  0  0
  -24.4756   -9.8978   20.7049 C   0  0  0  0  0  0  0  0  0  0  0  0
  -26.4366   -9.9325   19.0736 C   0  0  0  0  0  0  0  0  0  0  0  0
  -28.7029  -34.1089   25.6195 C   0  0  0  0  0  0  0  0  0  0  0  0
  -25.8667  -29.0927   20.3592 C   0  0  0  0  0  0  0  0  0  0  0  0
  -28.8588  -33.1587   24.5923 C   0  0  0  0  0  0  0  0  0  0  0  0
  -25.1202  -28.2326   21.1773 C   0  0  0  0  0  0  0  0  0  0  0  0
  -24.5093  -19.9544   17.5425 C   0  0  0  0  0  0  0  0  0  0  0  0
  -24.2722  -17.3079   16.6925 C   0  0  0  0  0  0  0  0  0  0  0  0
  -25.2477  -17.6555   17.6270 C   0  0  0  0  0  0  0  0  0  0  0  0
  -22.3004   -8.7077   21.9833 C   0  0  0  0  0  0  0  0  0  0  0  0
  -25.8816  -26.3376   19.8586 C   0  0  0  0  0  0  0  0  0  0  0  0
  -21.3977   -6.8348   23.0788 C   0  0  0  0  0  0  0  0  0  0  0  0
  -21.7167   -4.2305   24.0265 C   0  0  0  0  0  0  0  0  0  0  0  0
  -21.2427   -6.5635   24.4382 C   0  0  0  0  0  0  0  0  0  0  0  0
  -25.5986  -10.5132   20.0444 C   0  0  0  0  0  0  0  0  0  0  0  0
  -27.3415  -10.9190   18.7667 C   0  0  0  0  0  0  0  0  0  0  0  0
  -24.8490  -23.1788   18.4807 C   0  0  0  0  0  0  0  0  0  0  0  0
  -23.9497  -22.3894   17.6383 C   0  0  0  0  0  0  0  0  0  0  0  0
  -24.9362  -24.4860   18.7868 C   0  0  0  0  0  0  0  0  0  1  0  0
  -26.4001   -8.6188   18.5005 C   0  0  0  0  0  0  0  0  0  0  0  0
  -26.6005  -30.7078   22.9968 C   0  0  0  0  0  0  0  0  0  0  0  0
  -23.3774  -30.8766   23.3222 C   0  0  0  0  0  0  0  0  0  0  0  0
  -20.3185  -29.5510   22.5926 C   0  0  0  0  0  0  0  0  0  0  0  0
  -27.1462  -16.8824   19.0913 C   0  0  0  0  0  0  0  0  0  0  0  0
  -27.8539  -33.8313   26.8347 C   0  0  0  0  0  0  0  0  0  0  0  0
  -25.8447  -30.5780   20.5951 C   0  0  0  0  0  0  0  0  0  0  0  0
  -24.3018  -28.7482   22.3317 C   0  0  0  0  0  0  0  0  0  0  0  0
  -25.5951  -21.9103   18.8256 C   0  0  0  0  0  0  0  0  0  0  0  0
  -26.8739  -32.6768   26.6423 C   0  0  0  0  0  0  0  0  0  0  0  0
  -29.5074  -14.7398   20.6760 C   0  0  0  0  0  0  0  0  0  0  0  0
  -27.5747  -31.4827   26.0022 C   0  0  0  0  0  0  0  0  0  0  0  0
  -28.8519  -13.3589   20.6001 C   0  0  0  0  0  0  0  0  0  0  0  0
  -28.4784  -15.8436   20.9137 C   0  0  0  0  0  0  0  0  0  0  0  0
  -26.7001  -14.4790   19.8917 C   0  0  0  0  0  0  0  0  0  0  0  0
  -28.1159  -31.8405   24.6127 C   0  0  1  0  0  0  0  0  0  0  0  0
  -25.4774  -30.9500   22.0284 C   0  0  1  0  0  0  0  0  0  0  0  0
  -27.6892  -13.3418   19.5884 C   0  0  2  0  0  0  0  0  0  0  0  0
  -17.8707  -29.8861   23.0323 C   0  0  0  0  0  0  0  0  0  0  0  0
  -23.7254  -29.7222   26.1251 C   0  0  0  0  0  0  0  0  0  0  0  0
  -21.2771  -29.1991   26.1381 C   0  0  0  0  0  0  0  0  0  0  0  0
  -22.0440  -31.5659   25.9576 C   0  0  0  0  0  0  0  0  0  0  0  0
  -19.7378  -29.9479   19.7178 C   0  0  0  0  0  0  0  0  0  0  0  0
  -22.3227  -30.0183   23.9779 C   0  0  1  0  0  0  0  0  0  0  0  0
  -19.0335  -30.1931   22.1016 C   0  0  2  0  0  0  0  0  0  0  0  0
  -22.3592  -30.1161   25.5292 C   0  0  0  0  0  0  0  0  0  0  0  0
  -25.9409  -11.7711   20.3351 N   0  0  0  0  0  0  0  0  0  0  0  0
  -27.0040  -11.9889   19.5423 N   0  0  0  0  0  0  0  0  0  0  0  0
  -24.6280  -21.2599   17.9592 N   0  0  0  0  0  0  0  0  0  0  0  0
  -24.3173  -30.2075   22.5255 N   0  0  0  0  0  0  0  0  0  0  0  0
  -27.4096  -15.7678   19.9154 N   0  0  0  0  0  0  0  0  0  0  0  0
  -24.1328  -15.9733   16.2495 N   0  0  0  0  0  0  0  0  0  0  0  0
  -28.3852  -10.9671   17.9118 N   0  0  0  0  0  0  0  0  0  0  0  0
  -25.4043   -7.7304   18.9287 N   0  0  0  0  0  0  0  0  0  0  0  0
  -26.1297  -16.6820   18.1579 N   0  0  0  0  0  0  0  0  0  0  0  0
  -27.0448  -31.8475   23.6395 N   0  0  0  0  0  0  0  0  0  0  0  0
  -21.0494  -30.4115   23.3841 N   0  0  0  0  0  0  0  0  0  0  0  0
  -18.6911  -29.6919   20.7405 N   0  3  0  0  0  0  0  0  0  0  0  0
  -22.9961  -22.6375   16.9300 O   0  0  0  0  0  0  0  0  0  0  0  0
  -27.2362   -8.2383   17.6462 O   0  0  0  0  0  0  0  0  0  0  0  0
  -27.0309  -29.5708   23.1506 O   0  0  0  0  0  0  0  0  0  0  0  0
  -23.3635  -32.0965   23.5043 O   0  0  0  0  0  0  0  0  0  0  0  0
  -20.6397  -28.3999   22.3058 O   0  0  0  0  0  0  0  0  0  0  0  0
  -27.7942  -17.9278   19.1870 O   0  0  0  0  0  0  0  0  0  0  0  0
  -21.2389   -8.1269   22.6067 O   0  0  0  0  0  0  0  0  0  0  0  0
  -25.8902  -24.9976   19.6210 O   0  0  0  0  0  0  0  0  0  1  0  0
  -21.8685   -2.9797   24.4812 F   0  0  0  0  0  0  0  0  0  0  0  0
  -20.9394   -7.5495   25.2936 F   0  0  0  0  0  0  0  0  0  0  0  0
  1  2  1  0  0  0  0
  1  5  2  0  0  0  0
  2  6  2  0  0  0  0
  3 10  2  0  0  0  0
  3 18  1  0  0  0  0
  4 11  1  0  0  0  0
  4 18  2  0  0  0  0
  5 20  1  0  0  0  0
  6 22  1  0  0  0  0
  7 12  2  0  0  0  0
  7 21  1  0  0  0  0
  8  9  2  0  0  0  0
  8 24  1  0  0  0  0
  9 25  1  0  0  0  0
 10 27  1  0  0  0  0
 11 27  2  0  0  0  0
 12 28  1  0  0  0  0
 13 14  2  0  0  0  0
 13 29  1  0  0  0  0
 14 30  1  0  0  0  0
 15 23  1  0  0  0  0
 15 28  2  0  0  0  0
 16 24  2  0  0  0  0
 16 26  1  0  0  0  0
 17 30  2  0  0  0  0
 17 31  1  0  0  0  0
 18 32  1  0  0  0  0
 19 32  1  0  0  0  0
 19 33  2  0  0  0  0
 19 37  1  0  0  0  0
 20 22  2  0  0  0  0
 20 42  1  0  0  0  0
 21 23  2  0  0  0  0
 21 43  1  0  0  0  0
 22 52  1  0  0  0  0
 23 44  1  0  0  0  0
 24 65  1  0  0  0  0
 25 26  2  0  0  0  0
 25 68  1  0  0  0  0
 26 71  1  0  0  0  0
 27 81  1  0  0  0  0
 28 82  1  0  0  0  0
 29 31  2  0  0  0  0
 29 81  1  0  0  0  0
 30 83  1  0  0  0  0
 31 84  1  0  0  0  0
 32 63  2  0  0  0  0
 33 64  1  0  0  0  0
 33 69  1  0  0  0  0
 34 35  1  0  0  0  0
 34 36  2  0  0  0  0
 34 45  1  0  0  0  0
 35 65  1  0  0  0  0
 35 75  2  0  0  0  0
 36 82  1  0  0  0  0
 37 70  1  0  0  0  0
 37 76  2  0  0  0  0
 38 53  1  0  0  0  0
 38 72  1  0  0  0  0
 38 77  2  0  0  0  0
 39 60  1  0  0  0  0
 39 66  1  0  0  0  0
 39 78  2  0  0  0  0
 40 61  1  0  0  0  0
 40 73  1  0  0  0  0
 40 79  2  0  0  0  0
 41 67  1  0  0  0  0
 41 71  1  0  0  0  0
 41 80  2  0  0  0  0
 42 46  1  0  0  0  0
 43 53  1  0  0  0  0
 44 66  1  0  0  0  0
 45 65  1  0  0  0  0
 46 48  1  0  0  0  0
 47 49  1  0  0  0  0
 47 50  1  0  0  0  0
 48 52  1  0  0  0  0
 49 54  1  0  0  0  0
 50 67  1  0  0  0  0
 51 54  1  0  0  0  0
 51 67  1  0  0  0  0
 52 72  1  0  0  0  0
 53 66  1  0  0  0  0
 54 64  1  0  0  0  0
 55 61  1  0  0  0  0
 56 62  1  0  0  0  0
 57 62  1  0  0  0  0
 58 62  1  0  0  0  0
 59 74  1  0  0  0  0
 60 62  1  0  0  0  0
 60 73  1  0  0  0  0
 61 74  1  0  0  0  0
 63 64  1  0  0  0  0
M  CHG  1  74   1
M  ISO  4  36 101  41 100  71 100  82 101
M  END
> <Batch ID>
0085

> <Smiles>
CNC(C)C(=O)NC(C(=O)N1Cc2cc([101O:1][101CH:1]=C3CN(c4ccc(N)c([100NH:0][100C:0](=O)N5CCCC(n6nc(-c7ccc(Oc8ccc(F)cc8F)cc7)c(C(N)=O)c6N)C5)c4)C3=O)ccc2CC1C(=O)NC1CCCc2ccccc21)C(C)(C)C

> <Shape>
0.257

> <Color>
0.096

> <Negative vol penalty>
0.000

$$$$

  -OEChem-04052300153D

 85 94  0     1  0  0  0  0  0999 V2000
  -21.7034  -32.5947   24.7714 C   0  0  0  0  0  0  0  0  0  0  0  0
  -22.9082  -31.9095   24.8909 C   0  0  0  0  0  0  0  0  0  0  0  0
  -23.1014   -9.8891   19.9440 C   0  0  0  0  0  0  0  0  0  0  0  0
  -23.8503   -9.9186   22.2408 C   0  0  0  0  0  0  0  0  0  0  0  0
  -20.6665  -32.0524   24.0132 C   0  0  0  0  0  0  0  0  0  0  0  0
  -23.0765  -30.6810   24.2531 C   0  0  0  0  0  0  0  0  0  0  0  0
  -28.2345  -28.4927   21.7807 C   0  0  0  0  0  0  0  0  0  0  0  0
  -29.5950  -19.3805   22.3538 C   0  0  0  0  0  0  0  0  0  0  0  0
  -29.4429  -17.9939   22.3539 C   0  0  0  0  0  0  0  0  0  0  0  0
  -22.3693   -8.7292   20.1975 C   0  0  0  0  0  0  0  0  0  0  0  0
  -23.1182   -8.7587   22.4944 C   0  0  0  0  0  0  0  0  0  0  0  0
  -29.1954  -27.5996   22.2526 C   0  0  0  0  0  0  0  0  0  0  0  0
  -19.8963   -7.9283   23.0867 C   0  0  0  0  0  0  0  0  0  0  0  0
  -19.1343   -7.8869   24.2542 C   0  0  0  0  0  0  0  0  0  0  0  0
  -28.0885  -25.8015   21.0860 C   0  0  0  0  0  0  0  0  0  0  0  0
  -31.0845  -17.8138   20.5904 C   0  0  0  0  0  0  0  0  0  0  0  0
  -20.3939   -5.9681   25.0083 C   0  0  0  0  0  0  0  0  0  0  0  0
  -23.8419  -10.4838   20.9656 C   0  0  0  0  0  0  0  0  0  0  0  0
  -24.1559  -13.0118   20.8317 C   0  0  0  0  0  0  0  0  0  0  0  0
  -20.8256  -30.8212   23.3579 C   0  0  0  0  0  0  0  0  0  0  0  0
  -27.1853  -28.0442   20.9655 C   0  0  0  0  0  0  0  0  0  0  0  0
  -22.0404  -30.1211   23.4865 C   0  0  0  0  0  0  0  0  0  0  0  0
  -27.1169  -26.6914   20.6030 C   0  0  0  0  0  0  0  0  0  0  0  0
  -30.4918  -19.9837   21.4720 C   0  0  0  0  0  0  0  0  0  0  0  0
  -30.1877  -17.2106   21.4722 C   0  0  0  0  0  0  0  0  0  0  0  0
  -22.3777   -8.1640   21.4727 C   0  0  0  0  0  0  0  0  0  0  0  0
  -29.1209  -26.2533   21.9076 C   0  0  0  0  0  0  0  0  0  0  0  0
  -20.9071   -6.9895   22.8799 C   0  0  0  0  0  0  0  0  0  0  0  0
  -19.3831   -6.9069   25.2151 C   0  0  0  0  0  0  0  0  0  0  0  0
  -31.2365  -19.2003   20.5903 C   0  0  0  0  0  0  0  0  0  0  0  0
  -21.1559   -6.0094   23.8407 C   0  0  0  0  0  0  0  0  0  0  0  0
  -24.5988  -11.6816   20.7041 C   0  0  0  0  0  0  0  0  0  0  0  0
  -25.2413  -13.7713   20.4689 C   0  0  0  0  0  0  0  0  0  0  0  0
  -30.7709  -23.3471   21.4243 C   0  0  0  0  0  0  0  0  0  0  0  0
  -30.0589  -22.3347   22.2050 C   0  0  0  0  0  0  0  0  0  0  0  0
  -22.8778  -13.5159   21.2415 C   0  0  0  0  0  0  0  0  0  0  0  0
  -30.8090  -24.7002   21.4500 C   0  0  0  0  0  0  0  0  0  1  0  0
  -24.0179  -27.9721   21.2228 C   0  0  0  0  0  0  0  0  0  0  0  0
  -24.1827  -26.9164   18.1601 C   0  0  0  0  0  0  0  0  0  0  0  0
  -26.0111  -25.3892   15.7164 C   0  0  0  0  0  0  0  0  0  0  0  0
  -30.6945  -14.8794   20.6628 C   0  0  0  0  0  0  0  0  0  0  0  0
  -19.6599  -30.2526   22.5883 C   0  0  0  0  0  0  0  0  0  0  0  0
  -26.1718  -29.0250   20.4428 C   0  0  0  0  0  0  0  0  0  0  0  0
  -26.0221  -26.1630   19.7139 C   0  0  0  0  0  0  0  0  0  0  0  0
  -31.4073  -22.2383   20.6178 C   0  0  0  0  0  0  0  0  0  0  0  0
  -20.0502  -29.1242   21.6371 C   0  0  0  0  0  0  0  0  0  0  0  0
  -29.6186  -12.4389   18.3042 C   0  0  0  0  0  0  0  0  0  0  0  0
  -20.9664  -28.1271   22.3393 C   0  0  0  0  0  0  0  0  0  0  0  0
  -28.1802  -12.1337   18.7288 C   0  0  0  0  0  0  0  0  0  0  0  0
  -30.5253  -12.6853   19.5087 C   0  0  0  0  0  0  0  0  0  0  0  0
  -28.6038  -13.3966   20.8765 C   0  0  0  0  0  0  0  0  0  0  0  0
  -22.2700  -28.7977   22.7893 C   0  0  1  0  0  0  0  0  0  0  0  0
  -24.8559  -28.3667   20.0397 C   0  0  1  0  0  0  0  0  0  0  0  0
  -27.6386  -13.2052   19.6952 C   0  0  2  0  0  0  0  0  0  0  0  0
  -31.6342  -25.5404   20.5278 C   0  0  0  0  0  0  0  0  0  0  0  0
  -25.8643  -24.6329   13.3281 C   0  0  0  0  0  0  0  0  0  0  0  0
  -22.4808  -24.5349   19.0214 C   0  0  0  0  0  0  0  0  0  0  0  0
  -23.1587  -23.3753   16.9086 C   0  0  0  0  0  0  0  0  0  0  0  0
  -21.8672  -25.5067   16.8002 C   0  0  0  0  0  0  0  0  0  0  0  0
  -28.2300  -27.1673   14.8954 C   0  0  0  0  0  0  0  0  0  0  0  0
  -24.2959  -25.5633   17.5003 C   0  0  1  0  0  0  0  0  0  0  0  0
  -26.2639  -25.7610   14.2664 C   0  0  2  0  0  0  0  0  0  0  0  0
  -22.9703  -24.7543   17.5760 C   0  0  0  0  0  0  0  0  0  0  0  0
  -25.8666  -11.5975   20.2924 N   0  0  0  0  0  0  0  0  0  0  0  0
  -26.2297  -12.8844   20.1579 N   0  0  0  0  0  0  0  0  0  0  0  0
  -30.6398  -21.3513   21.4740 N   0  0  0  0  0  0  0  0  0  0  0  0
  -25.0513  -27.1600   19.2334 N   0  0  0  0  0  0  0  0  0  0  0  0
  -29.9506  -13.7151   20.3771 N   0  0  0  0  0  0  0  0  0  0  0  0
  -25.4371  -15.1046   20.3887 N   0  0  0  0  0  0  0  0  0  0  0  0
  -21.8745  -12.5974   21.5796 N   0  0  0  0  0  0  0  0  0  0  0  0
  -30.0329  -15.8021   21.4724 N   0  0  0  0  0  0  0  0  0  0  0  0
  -23.1660  -28.9660   21.6653 N   0  0  0  0  0  0  0  0  0  0  0  0
  -24.7689  -25.8096   16.1423 N   0  0  0  0  0  0  0  0  0  0  0  0
  -27.7080  -26.0607   14.0528 N   0  3  0  0  0  0  0  0  0  0  0  0
  -29.2638  -22.3577   23.1213 O   0  0  0  0  0  0  0  0  0  0  0  0
  -22.6274  -14.7441   21.2901 O   0  0  0  0  0  0  0  0  0  0  0  0
  -24.1346  -26.8487   21.6981 O   0  0  0  0  0  0  0  0  0  0  0  0
  -23.3591  -27.7300   17.7341 O   0  0  0  0  0  0  0  0  0  0  0  0
  -26.8319  -24.7830   16.4014 O   0  0  0  0  0  0  0  0  0  0  0  0
  -31.8239  -15.0580   20.1994 O   0  0  0  0  0  0  0  0  0  0  0  0
  -21.6633   -7.0323   21.7205 O   0  0  0  0  0  0  0  0  0  0  0  0
  -30.0573  -25.3793   22.3674 O   0  0  0  0  0  0  0  0  0  1  0  0
  -18.6523   -6.8683   26.3369 F   0  0  0  0  0  0  0  0  0  0  0  0
  -32.1011  -19.7694   19.7378 F   0  0  0  0  0  0  0  0  0  0  0  0
  -22.1264   -5.1056   23.6482 F   0  0  0  0  0  0  0  0  0  0  0  0
  1  2  1  0  0  0  0
  1  5  2  0  0  0  0
  2  6  2  0  0  0  0
  3 10  2  0  0  0  0
  3 18  1  0  0  0  0
  4 11  1  0  0  0  0
  4 18  2  0  0  0  0
  5 20  1  0  0  0  0
  6 22  1  0  0  0  0
  7 12  2  0  0  0  0
  7 21  1  0  0  0  0
  8  9  2  0  0  0  0
  8 24  1  0  0  0  0
  9 25  1  0  0  0  0
 10 26  1  0  0  0  0
 11 26  2  0  0  0  0
 12 27  1  0  0  0  0
 13 14  2  0  0  0  0
 13 28  1  0  0  0  0
 14 29  1  0  0  0  0
 15 23  1  0  0  0  0
 15 27  2  0  0  0  0
 16 25  2  0  0  0  0
 16 30  1  0  0  0  0
 17 29  2  0  0  0  0
 17 31  1  0  0  0  0
 18 32  1  0  0  0  0
 19 32  1  0  0  0  0
 19 33  2  0  0  0  0
 19 36  1  0  0  0  0
 20 22  2  0  0  0  0
 20 42  1  0  0  0  0
 21 23  2  0  0  0  0
 21 43  1  0  0  0  0
 22 52  1  0  0  0  0
 23 44  1  0  0  0  0
 24 30  2  0  0  0  0
 24 66  1  0  0  0  0
 25 71  1  0  0  0  0
 26 81  1  0  0  0  0
 27 82  1  0  0  0  0
 28 31  2  0  0  0  0
 28 81  1  0  0  0  0
 29 83  1  0  0  0  0
 30 84  1  0  0  0  0
 31 85  1  0  0  0  0
 32 64  2  0  0  0  0
 33 65  1  0  0  0  0
 33 69  1  0  0  0  0
 34 35  1  0  0  0  0
 34 37  2  0  0  0  0
 34 45  1  0  0  0  0
 35 66  1  0  0  0  0
 35 75  2  0  0  0  0
 36 70  1  0  0  0  0
 36 76  2  0  0  0  0
 37 55  1  0  0  0  0
 37 82  1  0  0  0  0
 38 53  1  0  0  0  0
 38 72  1  0  0  0  0
 38 77  2  0  0  0  0
 39 61  1  0  0  0  0
 39 67  1  0  0  0  0
 39 78  2  0  0  0  0
 40 62  1  0  0  0  0
 40 73  1  0  0  0  0
 40 79  2  0  0  0  0
 41 68  1  0  0  0  0
 41 71  1  0  0  0  0
 41 80  2  0  0  0  0
 42 46  1  0  0  0  0
 43 53  1  0  0  0  0
 44 67  1  0  0  0  0
 45 66  1  0  0  0  0
 46 48  1  0  0  0  0
 47 49  1  0  0  0  0
 47 50  1  0  0  0  0
 48 52  1  0  0  0  0
 49 54  1  0  0  0  0
 50 68  1  0  0  0  0
 51 54  1  0  0  0  0
 51 68  1  0  0  0  0
 52 72  1  0  0  0  0
 53 67  1  0  0  0  0
 54 65  1  0  0  0  0
 56 62  1  0  0  0  0
 57 63  1  0  0  0  0
 58 63  1  0  0  0  0
 59 63  1  0  0  0  0
 60 74  1  0  0  0  0
 61 63  1  0  0  0  0
 61 73  1  0  0  0  0
 62 74  1  0  0  0  0
 64 65  1  0  0  0  0
M  CHG  1  74   1
M  ISO  4  37 101  41 100  71 100  82 101
M  END
> <Batch ID>
0085

> <Smiles>
CNC(C)C(=O)NC(C(=O)N1Cc2cc([101O:1][101C:1](C)=C3CN(c4ccc([100NH:0][100C:0](=O)N5CCCC(n6nc(-c7ccc(Oc8ccc(F)cc8F)cc7)c(C(N)=O)c6N)C5)cc4F)C3=O)ccc2CC1C(=O)NC1CCCc2ccccc21)C(C)(C)C

> <Shape>
0.296

> <Color>
0.208

> <Negative vol penalty>
0.000

$$$$

  -OEChem-04052300153D

 86 95  0     1  0  0  0  0  0999 V2000
  -30.8464  -31.5516   25.3029 C   0  0  0  0  0  0  0  0  0  0  0  0
  -30.1522  -30.4857   24.7396 C   0  0  0  0  0  0  0  0  0  0  0  0
  -21.0982   -6.8710   18.7504 C   0  0  0  0  0  0  0  0  0  0  0  0
  -23.4698   -6.4104   18.7473 C   0  0  0  0  0  0  0  0  0  0  0  0
  -27.6122  -17.9964   21.2372 C   0  0  0  0  0  0  0  0  0  0  0  0
  -30.1514  -32.6689   25.7640 C   0  0  0  0  0  0  0  0  0  0  0  0
  -28.7624  -30.5360   24.6380 C   0  0  0  0  0  0  0  0  0  0  0  0
  -27.0880  -28.9927   20.1147 C   0  0  0  0  0  0  0  0  0  0  0  0
  -27.5630  -19.3902   21.2555 C   0  0  0  0  0  0  0  0  0  0  0  0
  -20.9268   -5.9959   17.6778 C   0  0  0  0  0  0  0  0  0  0  0  0
  -23.2985   -5.5353   17.6747 C   0  0  0  0  0  0  0  0  0  0  0  0
  -27.0478  -27.6180   19.8858 C   0  0  0  0  0  0  0  0  0  0  0  0
  -20.7337   -2.6549   17.1951 C   0  0  0  0  0  0  0  0  0  0  0  0
  -19.6707   -1.7539   17.2570 C   0  0  0  0  0  0  0  0  0  0  0  0
  -26.1173  -17.9685   19.3395 C   0  0  0  0  0  0  0  0  0  0  0  0
  -24.6806  -27.6161   20.3502 C   0  0  0  0  0  0  0  0  0  0  0  0
  -18.7476   -2.7042   15.2366 C   0  0  0  0  0  0  0  0  0  0  0  0
  -22.3697   -7.0783   19.2851 C   0  0  0  0  0  0  0  0  0  0  0  0
  -26.8894  -17.2855   20.2791 C   0  0  0  0  0  0  0  0  0  0  0  0
  -22.4886   -7.6691   21.7639 C   0  0  0  0  0  0  0  0  0  0  0  0
  -28.7531  -32.7371   25.6592 C   0  0  0  0  0  0  0  0  0  0  0  0
  -25.9250  -29.6887   20.4744 C   0  0  0  0  0  0  0  0  0  0  0  0
  -28.0479  -31.6547   25.0993 C   0  0  0  0  0  0  0  0  0  0  0  0
  -24.7083  -29.0000   20.5807 C   0  0  0  0  0  0  0  0  0  0  0  0
  -26.7908  -20.0732   20.3159 C   0  0  0  0  0  0  0  0  0  0  0  0
  -22.0269   -5.3280   17.1400 C   0  0  0  0  0  0  0  0  0  0  0  0
  -25.8445  -26.9290   20.0064 C   0  0  0  0  0  0  0  0  0  0  0  0
  -20.8036   -3.5806   16.1540 C   0  0  0  0  0  0  0  0  0  0  0  0
  -18.6776   -1.7785   16.2777 C   0  0  0  0  0  0  0  0  0  0  0  0
  -26.0679  -19.3624   19.3578 C   0  0  0  0  0  0  0  0  0  0  0  0
  -19.8106   -3.6052   15.1747 C   0  0  0  0  0  0  0  0  0  0  0  0
  -22.5475   -7.9825   20.3928 C   0  0  0  0  0  0  0  0  0  0  0  0
  -22.7224   -8.8640   22.3996 C   0  0  0  0  0  0  0  0  0  0  0  0
  -26.6125  -23.4415   20.4422 C   0  0  0  0  0  0  0  0  0  0  0  0
  -27.3323  -22.3726   21.1356 C   0  0  0  0  0  0  0  0  0  0  0  0
  -26.5747  -24.7800   20.5718 C   0  0  0  0  0  0  0  0  0  1  0  0
  -26.9412  -15.8086   20.2588 C   0  0  0  0  0  0  0  0  0  0  0  0
  -22.2445   -6.4104   22.4056 C   0  0  0  0  0  0  0  0  0  0  0  0
  -25.0124  -31.3720   23.0115 C   0  0  0  0  0  0  0  0  0  0  0  0
  -22.4168  -32.0047   21.1717 C   0  0  0  0  0  0  0  0  0  0  0  0
  -20.4006  -31.0630   18.5842 C   0  0  0  0  0  0  0  0  0  0  0  0
  -25.6425  -13.6965   20.4289 C   0  0  0  0  0  0  0  0  0  0  0  0
  -28.0416  -33.9453   26.2146 C   0  0  0  0  0  0  0  0  0  0  0  0
  -25.9799  -31.1760   20.6918 C   0  0  0  0  0  0  0  0  0  0  0  0
  -23.4276  -29.7042   20.9444 C   0  0  0  0  0  0  0  0  0  0  0  0
  -25.9645  -22.3971   19.5623 C   0  0  0  0  0  0  0  0  0  0  0  0
  -26.6008  -34.0806   25.7286 C   0  0  0  0  0  0  0  0  0  0  0  0
  -22.2248  -13.5684   21.8643 C   0  0  0  0  0  0  0  0  0  0  0  0
  -25.8746  -32.7432   25.8326 C   0  0  0  0  0  0  0  0  0  0  0  0
  -21.8980  -12.0892   21.6914 C   0  0  0  0  0  0  0  0  0  0  0  0
  -23.1423  -14.0904   20.7594 C   0  0  0  0  0  0  0  0  0  0  0  0
  -24.0669  -11.8065   20.4358 C   0  0  0  0  0  0  0  0  0  0  0  0
  -26.5423  -31.6826   24.9490 C   0  0  1  0  0  0  0  0  0  0  0  0
  -24.8349  -31.6964   21.5552 C   0  0  1  0  0  0  0  0  0  0  0  0
  -23.1884  -11.2657   21.5731 C   0  0  2  0  0  0  0  0  0  0  0  0
  -18.3360  -31.7617   17.3405 C   0  0  0  0  0  0  0  0  0  0  0  0
  -20.6913  -31.0167   23.4861 C   0  0  0  0  0  0  0  0  0  0  0  0
  -18.7728  -30.8370   21.8876 C   0  0  0  0  0  0  0  0  0  0  0  0
  -19.8198  -33.0571   22.3321 C   0  0  0  0  0  0  0  0  0  0  0  0
  -21.8844  -31.3294   16.0374 C   0  0  0  0  0  0  0  0  0  0  0  0
  -21.0747  -31.3484   20.9546 C   0  0  1  0  0  0  0  0  0  0  0  0
  -19.8537  -31.8388   17.3995 C   0  0  2  0  0  0  0  0  0  0  0  0
  -20.1140  -31.5509   22.1601 C   0  0  0  0  0  0  0  0  0  0  0  0
  -22.7988   -9.2752   20.1696 N   0  0  0  0  0  0  0  0  0  0  0  0
  -22.8998   -9.7847   21.4091 N   0  0  0  0  0  0  0  0  0  0  0  0
  -26.7445  -21.4479   20.3367 N   0  0  0  0  0  0  0  0  0  0  0  0
  -23.5340  -31.1577   21.1532 N   0  0  0  0  0  0  0  0  0  0  0  0
  -24.3289  -13.2426   20.5801 N   0  0  0  0  0  0  0  0  0  0  0  0
  -22.7913   -9.2064   23.7036 N   0  0  0  0  0  0  0  0  0  0  0  0
  -22.0237   -5.2829   21.6029 N   0  0  0  0  0  0  0  0  0  0  0  0
  -25.7911  -15.1359   20.4198 N   0  0  0  0  0  0  0  0  0  0  0  0
  -26.1751  -31.8759   23.5625 N   0  0  0  0  0  0  0  0  0  0  0  0
  -20.5654  -31.8693   19.6906 N   0  0  0  0  0  0  0  0  0  0  0  0
  -28.1322  -15.2356   20.0868 N   0  3  0  0  0  0  0  0  0  0  0  0
  -20.4019  -31.2934   16.1255 N   0  3  0  0  0  0  0  0  0  0  0  0
  -28.1212  -22.3239   22.0563 O   0  0  0  0  0  0  0  0  0  0  0  0
  -22.2066   -6.2922   23.6539 O   0  0  0  0  0  0  0  0  0  0  0  0
  -24.1570  -30.7146   23.5927 O   0  0  0  0  0  0  0  0  0  0  0  0
  -22.4725  -33.2248   21.3441 O   0  0  0  0  0  0  0  0  0  0  0  0
  -20.6527  -29.8612   18.5343 O   0  0  0  0  0  0  0  0  0  0  0  0
  -26.6303  -12.9853   20.2794 O   0  0  0  0  0  0  0  0  0  0  0  0
  -21.8600   -4.4739   16.0935 O   0  0  0  0  0  0  0  0  0  0  0  0
  -25.8026  -25.5871   19.7842 O   0  0  0  0  0  0  0  0  0  1  0  0
  -17.6577   -0.9122   16.3364 F   0  0  0  0  0  0  0  0  0  0  0  0
  -25.3214  -20.0084   18.4508 F   0  0  0  0  0  0  0  0  0  0  0  0
  -19.8730   -4.4914   14.1714 F   0  0  0  0  0  0  0  0  0  0  0  0
  1  2  1  0  0  0  0
  1  6  2  0  0  0  0
  2  7  2  0  0  0  0
  3 10  2  0  0  0  0
  3 18  1  0  0  0  0
  4 11  1  0  0  0  0
  4 18  2  0  0  0  0
  5  9  2  0  0  0  0
  5 19  1  0  0  0  0
  6 21  1  0  0  0  0
  7 23  1  0  0  0  0
  8 12  2  0  0  0  0
  8 22  1  0  0  0  0
  9 25  1  0  0  0  0
 10 26  1  0  0  0  0
 11 26  2  0  0  0  0
 12 27  1  0  0  0  0
 13 14  2  0  0  0  0
 13 28  1  0  0  0  0
 14 29  1  0  0  0  0
 15 19  2  0  0  0  0
 15 30  1  0  0  0  0
 16 24  1  0  0  0  0
 16 27  2  0  0  0  0
 17 29  2  0  0  0  0
 17 31  1  0  0  0  0
 18 32  1  0  0  0  0
 19 37  1  0  0  0  0
 20 32  1  0  0  0  0
 20 33  2  0  0  0  0
 20 38  1  0  0  0  0
 21 23  2  0  0  0  0
 21 43  1  0  0  0  0
 22 24  2  0  0  0  0
 22 44  1  0  0  0  0
 23 53  1  0  0  0  0
 24 45  1  0  0  0  0
 25 30  2  0  0  0  0
 25 66  1  0  0  0  0
 26 82  1  0  0  0  0
 27 83  1  0  0  0  0
 28 31  2  0  0  0  0
 28 82  1  0  0  0  0
 29 84  1  0  0  0  0
 30 85  1  0  0  0  0
 31 86  1  0  0  0  0
 32 64  2  0  0  0  0
 33 65  1  0  0  0  0
 33 69  1  0  0  0  0
 34 35  1  0  0  0  0
 34 36  2  0  0  0  0
 34 46  1  0  0  0  0
 35 66  1  0  0  0  0
 35 76  2  0  0  0  0
 36 83  1  0  0  0  0
 37 71  1  0  0  0  0
 37 74  2  0  0  0  0
 38 70  1  0  0  0  0
 38 77  2  0  0  0  0
 39 54  1  0  0  0  0
 39 72  1  0  0  0  0
 39 78  2  0  0  0  0
 40 61  1  0  0  0  0
 40 67  1  0  0  0  0
 40 79  2  0  0  0  0
 41 62  1  0  0  0  0
 41 73  1  0  0  0  0
 41 80  2  0  0  0  0
 42 68  1  0  0  0  0
 42 71  1  0  0  0  0
 42 81  2  0  0  0  0
 43 47  1  0  0  0  0
 44 54  1  0  0  0  0
 45 67  1  0  0  0  0
 46 66  1  0  0  0  0
 47 49  1  0  0  0  0
 48 50  1  0  0  0  0
 48 51  1  0  0  0  0
 49 53  1  0  0  0  0
 50 55  1  0  0  0  0
 51 68  1  0  0  0  0
 52 55  1  0  0  0  0
 52 68  1  0  0  0  0
 53 72  1  0  0  0  0
 54 67  1  0  0  0  0
 55 65  1  0  0  0  0
 56 62  1  0  0  0  0
 57 63  1  0  0  0  0
 58 63  1  0  0  0  0
 59 63  1  0  0  0  0
 60 75  1  0  0  0  0
 61 63  1  0  0  0  0
 61 73  1  0  0  0  0
 62 75  1  0  0  0  0
 64 65  1  0  0  0  0
M  CHG  2  74   1  75   1
M  ISO  4  36 101  42 100  71 100  83 101
M  END
> <Batch ID>
0085

> <Smiles>
CNC(C)C(=O)NC(C(=O)N1Cc2cc([101O:1][101CH:1]=C3CN(c4ccc(C(=N)[100NH:0][100C:0](=O)N5CCCC(n6nc(-c7ccc(Oc8ccc(F)cc8F)cc7)c(C(N)=O)c6N)C5)cc4F)C3=O)ccc2CC1C(=O)NC1CCCc2ccccc21)C(C)(C)C

> <Shape>
0.236

> <Color>
0.067

> <Negative vol penalty>
0.000

$$$$

  -OEChem-04052300153D

 84 93  0     1  0  0  0  0  0999 V2000
  -29.7129  -30.9245   26.2012 C   0  0  0  0  0  0  0  0  0  0  0  0
  -29.1149  -29.7953   25.6510 C   0  0  0  0  0  0  0  0  0  0  0  0
  -23.3080  -10.6074   22.0112 C   0  0  0  0  0  0  0  0  0  0  0  0
  -24.7083   -8.7660   21.3143 C   0  0  0  0  0  0  0  0  0  0  0  0
  -28.9781  -32.1004   26.3461 C   0  0  0  0  0  0  0  0  0  0  0  0
  -27.7812  -29.8411   25.2465 C   0  0  0  0  0  0  0  0  0  0  0  0
  -27.0491  -27.6914   20.7201 C   0  0  0  0  0  0  0  0  0  0  0  0
  -22.2103   -9.7490   22.0736 C   0  0  0  0  0  0  0  0  0  0  0  0
  -23.6106   -7.9076   21.3767 C   0  0  0  0  0  0  0  0  0  0  0  0
  -27.0071  -26.2985   20.6761 C   0  0  0  0  0  0  0  0  0  0  0  0
  -21.8678   -6.2648   23.7609 C   0  0  0  0  0  0  0  0  0  0  0  0
  -22.0501   -5.0255   24.3744 C   0  0  0  0  0  0  0  0  0  0  0  0
  -27.0310  -16.7973   20.7662 C   0  0  0  0  0  0  0  0  0  0  0  0
  -26.5273  -17.7824   21.6637 C   0  0  0  0  0  0  0  0  0  0  0  0
  -24.5969  -26.3792   20.6154 C   0  0  0  0  0  0  0  0  0  0  0  0
  -21.4384   -3.9168   22.3168 C   0  0  0  0  0  0  0  0  0  0  0  0
  -24.5570  -10.1159   21.6315 C   0  0  0  0  0  0  0  0  0  0  0  0
  -26.5980  -11.2998   22.6012 C   0  0  0  0  0  0  0  0  0  0  0  0
  -27.6376  -32.1636   25.9343 C   0  0  0  0  0  0  0  0  0  0  0  0
  -25.8631  -28.4395   20.7231 C   0  0  0  0  0  0  0  0  0  0  0  0
  -27.0274  -31.0187   25.3873 C   0  0  0  0  0  0  0  0  0  0  0  0
  -24.6267  -27.7815   20.6569 C   0  0  0  0  0  0  0  0  0  0  0  0
  -22.3616   -8.3992   21.7564 C   0  0  0  0  0  0  0  0  0  0  0  0
  -25.7808  -25.6421   20.6267 C   0  0  0  0  0  0  0  0  0  0  0  0
  -21.4706   -6.3301   22.4253 C   0  0  0  0  0  0  0  0  0  0  0  0
  -21.8355   -3.8515   23.6524 C   0  0  0  0  0  0  0  0  0  0  0  0
  -21.2560   -5.1561   21.7033 C   0  0  0  0  0  0  0  0  0  0  0  0
  -25.6912  -11.0021   21.5663 C   0  0  0  0  0  0  0  0  0  0  0  0
  -27.1034  -17.2646   19.4724 C   0  0  0  0  0  0  0  0  0  0  0  0
  -27.4836  -12.1855   22.0375 C   0  0  0  0  0  0  0  0  0  0  0  0
  -26.2340  -18.9654   21.0217 C   0  0  0  0  0  0  0  0  0  0  0  0
  -24.9171  -21.7740   22.8880 C   0  0  0  0  0  0  0  0  0  0  0  0
  -24.9710  -22.2974   21.6607 C   0  0  0  0  0  0  0  0  0  0  0  0
  -25.4158  -20.3838   22.8186 C   0  0  0  0  0  0  0  0  0  0  0  0
  -25.4890  -21.2624   20.7406 C   0  0  0  0  0  0  0  0  0  0  0  0
  -26.6364  -10.8187   23.9513 C   0  0  0  0  0  0  0  0  0  0  0  0
  -27.5645  -16.5668   18.2652 C   0  0  0  0  0  0  0  0  0  0  0  0
  -24.4961  -30.4686   22.7524 C   0  0  0  0  0  0  0  0  0  0  0  0
  -22.3758  -30.8563   20.3282 C   0  0  0  0  0  0  0  0  0  0  0  0
  -20.9214  -29.5762   17.5188 C   0  0  0  0  0  0  0  0  0  0  0  0
  -26.8700  -33.4430   26.1546 C   0  0  0  0  0  0  0  0  0  0  0  0
  -25.9262  -29.9422   20.7440 C   0  0  0  0  0  0  0  0  0  0  0  0
  -23.3252  -28.5393   20.6374 C   0  0  0  0  0  0  0  0  0  0  0  0
  -25.5714  -33.5194   25.3558 C   0  0  0  0  0  0  0  0  0  0  0  0
  -28.8175  -13.3337   17.4174 C   0  0  0  0  0  0  0  0  0  0  0  0
  -24.7902  -32.2152   25.4809 C   0  0  0  0  0  0  0  0  0  0  0  0
  -28.2127  -12.4241   18.4884 C   0  0  0  0  0  0  0  0  0  0  0  0
  -27.8572  -14.4518   17.0198 C   0  0  0  0  0  0  0  0  0  0  0  0
  -26.7487  -14.3511   19.2257 C   0  0  0  0  0  0  0  0  0  0  0  0
  -25.5902  -31.0364   24.9137 C   0  0  1  0  0  0  0  0  0  0  0  0
  -24.6442  -30.5869   21.2618 C   0  0  1  0  0  0  0  0  0  0  0  0
  -27.7045  -13.2405   19.6915 C   0  0  1  0  0  0  0  0  0  0  0  0
  -24.4739  -22.3690   24.1729 C   0  0  0  0  0  0  0  0  0  0  0  0
  -19.1956  -30.1088   15.7766 C   0  0  0  0  0  0  0  0  0  0  0  0
  -20.1625  -30.2153   22.3283 C   0  0  0  0  0  0  0  0  0  0  0  0
  -18.6219  -29.8275   20.3933 C   0  0  0  0  0  0  0  0  0  0  0  0
  -19.6329  -32.0802   20.7484 C   0  0  0  0  0  0  0  0  0  0  0  0
  -22.9211  -29.4720   15.3395 C   0  0  0  0  0  0  0  0  0  0  0  0
  -24.6011  -23.6508   21.1735 C   0  0  0  0  0  0  0  0  0  1  0  0
  -21.0869  -30.1860   19.9178 C   0  0  1  0  0  0  0  0  0  0  0  0
  -20.6679  -30.1823   16.1503 C   0  0  2  0  0  0  0  0  0  0  0  0
  -19.9003  -30.5626   20.8492 C   0  0  0  0  0  0  0  0  0  0  0  0
  -25.9745  -11.6465   20.4312 N   0  0  0  0  0  0  0  0  0  0  0  0
  -27.0693  -12.3580   20.7495 N   0  0  0  0  0  0  0  0  0  0  0  0
  -25.7403  -20.1388   21.5004 N   0  0  0  0  0  0  0  0  0  0  0  0
  -27.3957  -15.1816   18.2001 N   0  0  0  0  0  0  0  0  0  0  0  0
  -23.4390  -30.0068   20.6656 N   0  0  0  0  0  0  0  0  0  0  0  0
  -28.5684  -12.8259   22.5228 N   0  0  0  0  0  0  0  0  0  0  0  0
  -25.6506   -9.9130   24.3661 N   0  0  0  0  0  0  0  0  0  0  0  0
  -25.5333  -31.0361   23.4676 N   0  0  0  0  0  0  0  0  0  0  0  0
  -20.8775  -30.5283   18.5151 N   0  0  0  0  0  0  0  0  0  0  0  0
  -21.4533  -29.4597   15.1101 N   0  3  0  0  0  0  0  0  0  0  0  0
  -25.5008  -19.6373   23.7812 O   0  0  0  0  0  0  0  0  0  0  0  0
  -25.6460  -21.4286   19.5411 O   0  0  0  0  0  0  0  0  0  0  0  0
  -27.5092  -11.1939   24.7704 O   0  0  0  0  0  0  0  0  0  0  0  0
  -28.0827  -17.2674   17.3970 O   0  0  0  0  0  0  0  0  0  0  0  0
  -23.5128  -29.9055   23.2190 O   0  0  0  0  0  0  0  0  0  0  0  0
  -22.4392  -32.0881   20.3418 O   0  0  0  0  0  0  0  0  0  0  0  0
  -21.1333  -28.3774   17.6875 O   0  0  0  0  0  0  0  0  0  0  0  0
  -21.2907   -7.5613   21.8174 O   0  0  0  0  0  0  0  0  0  0  0  0
  -25.7369  -24.2826   20.5843 O   0  0  0  0  0  0  0  0  0  1  0  0
  -22.0122   -2.6615   24.2413 F   0  0  0  0  0  0  0  0  0  0  0  0
  -20.8755   -5.2126   20.4196 F   0  0  0  0  0  0  0  0  0  0  0  0
  -26.5655  -18.8851   19.3437 S   0  0  0  0  0  0  0  0  0  0  0  0
  1  2  1  0  0  0  0
  1  5  2  0  0  0  0
  2  6  2  0  0  0  0
  3  8  2  0  0  0  0
  3 17  1  0  0  0  0
  4  9  1  0  0  0  0
  4 17  2  0  0  0  0
  5 19  1  0  0  0  0
  6 21  1  0  0  0  0
  7 10  2  0  0  0  0
  7 20  1  0  0  0  0
  8 23  1  0  0  0  0
  9 23  2  0  0  0  0
 10 24  1  0  0  0  0
 11 12  2  0  0  0  0
 11 25  1  0  0  0  0
 12 26  1  0  0  0  0
 13 14  1  0  0  0  0
 13 29  2  0  0  0  0
 14 31  2  0  0  0  0
 15 22  1  0  0  0  0
 15 24  2  0  0  0  0
 16 26  2  0  0  0  0
 16 27  1  0  0  0  0
 17 28  1  0  0  0  0
 18 28  1  0  0  0  0
 18 30  2  0  0  0  0
 18 36  1  0  0  0  0
 19 21  2  0  0  0  0
 19 41  1  0  0  0  0
 20 22  2  0  0  0  0
 20 42  1  0  0  0  0
 21 50  1  0  0  0  0
 22 43  1  0  0  0  0
 23 80  1  0  0  0  0
 24 81  1  0  0  0  0
 25 27  2  0  0  0  0
 25 80  1  0  0  0  0
 26 82  1  0  0  0  0
 27 83  1  0  0  0  0
 28 63  2  0  0  0  0
 29 37  1  0  0  0  0
 29 84  1  0  0  0  0
 30 64  1  0  0  0  0
 30 68  1  0  0  0  0
 31 65  1  0  0  0  0
 31 84  1  0  0  0  0
 32 33  2  0  0  0  0
 32 34  1  0  0  0  0
 32 53  1  0  0  0  0
 33 35  1  0  0  0  0
 33 59  1  0  0  0  0
 34 65  1  0  0  0  0
 34 73  2  0  0  0  0
 35 65  1  0  0  0  0
 35 74  2  0  0  0  0
 36 69  1  0  0  0  0
 36 75  2  0  0  0  0
 37 66  1  0  0  0  0
 37 76  2  0  0  0  0
 38 51  1  0  0  0  0
 38 70  1  0  0  0  0
 38 77  2  0  0  0  0
 39 60  1  0  0  0  0
 39 67  1  0  0  0  0
 39 78  2  0  0  0  0
 40 61  1  0  0  0  0
 40 71  1  0  0  0  0
 40 79  2  0  0  0  0
 41 44  1  0  0  0  0
 42 51  1  0  0  0  0
 43 67  1  0  0  0  0
 44 46  1  0  0  0  0
 45 47  1  0  0  0  0
 45 48  1  0  0  0  0
 46 50  1  0  0  0  0
 47 52  1  0  0  0  0
 48 66  1  0  0  0  0
 49 52  1  0  0  0  0
 49 66  1  0  0  0  0
 50 70  1  0  0  0  0
 51 67  1  0  0  0  0
 52 64  1  0  0  0  0
 54 61  1  0  0  0  0
 55 62  1  0  0  0  0
 56 62  1  0  0  0  0
 57 62  1  0  0  0  0
 58 72  1  0  0  0  0
 59 81  1  0  0  0  0
 60 62  1  0  0  0  0
 60 71  1  0  0  0  0
 61 72  1  0  0  0  0
 63 64  1  0  0  0  0
M  CHG  1  72   1
M  ISO  4  29 100  37 100  59 101  81 101
M  END
> <Batch ID>
0085

> <Smiles>
CNC(C)C(=O)NC(C(=O)N1Cc2cc([101O:1][101CH2:1]C3=C(C)C(=O)N(c4cc[100c:0]([100C:0](=O)N5CCCC(n6nc(-c7ccc(Oc8ccc(F)cc8F)cc7)c(C(N)=O)c6N)C5)s4)C3=O)ccc2CC1C(=O)NC1CCCc2ccccc21)C(C)(C)C

> <Shape>
0.244

> <Color>
0.074

> <Negative vol penalty>
0.000

$$$$

  -OEChem-04052300153D

 86 95  0     1  0  0  0  0  0999 V2000
  -26.8110  -36.3970   21.4556 C   0  0  0  0  0  0  0  0  0  0  0  0
  -27.6348  -35.2764   21.4235 C   0  0  0  0  0  0  0  0  0  0  0  0
  -23.6322   -9.7797   21.9601 C   0  0  0  0  0  0  0  0  0  0  0  0
  -24.4986  -11.1086   23.7823 C   0  0  0  0  0  0  0  0  0  0  0  0
  -25.4739  -36.2674   21.8288 C   0  0  0  0  0  0  0  0  0  0  0  0
  -27.1221  -34.0256   21.7657 C   0  0  0  0  0  0  0  0  0  0  0  0
  -28.6806  -28.6204   19.3447 C   0  0  0  0  0  0  0  0  0  0  0  0
  -31.7715  -19.2844   19.5998 C   0  0  0  0  0  0  0  0  0  0  0  0
  -31.3114  -17.9865   19.3783 C   0  0  0  0  0  0  0  0  0  0  0  0
  -23.1339   -8.8513   22.8740 C   0  0  0  0  0  0  0  0  0  0  0  0
  -24.0003  -10.1802   24.6963 C   0  0  0  0  0  0  0  0  0  0  0  0
  -29.5478  -27.6161   19.7725 C   0  0  0  0  0  0  0  0  0  0  0  0
  -20.4711   -8.5707   24.9388 C   0  0  0  0  0  0  0  0  0  0  0  0
  -19.1724   -8.1009   24.7430 C   0  0  0  0  0  0  0  0  0  0  0  0
  -27.6870  -26.4352   20.7531 C   0  0  0  0  0  0  0  0  0  0  0  0
  -29.5029  -20.0244   19.9775 C   0  0  0  0  0  0  0  0  0  0  0  0
  -20.0175   -5.8460   24.5474 C   0  0  0  0  0  0  0  0  0  0  0  0
  -24.3146  -10.9084   22.4142 C   0  0  0  0  0  0  0  0  0  0  0  0
  -24.1665  -12.9996   20.9608 C   0  0  0  0  0  0  0  0  0  0  0  0
  -24.9421  -35.0128   22.1664 C   0  0  0  0  0  0  0  0  0  0  0  0
  -27.3092  -28.5449   19.6279 C   0  0  0  0  0  0  0  0  0  0  0  0
  -25.7770  -33.8793   22.1451 C   0  0  0  0  0  0  0  0  0  0  0  0
  -26.8040  -27.4385   20.3257 C   0  0  0  0  0  0  0  0  0  0  0  0
  -30.8673  -20.3034   19.8995 C   0  0  0  0  0  0  0  0  0  0  0  0
  -29.9469  -17.7074   19.4563 C   0  0  0  0  0  0  0  0  0  0  0  0
  -23.3180   -9.0515   24.2421 C   0  0  0  0  0  0  0  0  0  0  0  0
  -29.0516  -26.5247   20.4793 C   0  0  0  0  0  0  0  0  0  0  0  0
  -21.5430   -7.6781   24.9389 C   0  0  0  0  0  0  0  0  0  0  0  0
  -18.9456   -6.7386   24.5473 C   0  0  0  0  0  0  0  0  0  0  0  0
  -29.0427  -18.7264   19.7559 C   0  0  0  0  0  0  0  0  0  0  0  0
  -21.3162   -6.3158   24.7433 C   0  0  0  0  0  0  0  0  0  0  0  0
  -24.8300  -11.8675   21.4706 C   0  0  0  0  0  0  0  0  0  0  0  0
  -25.0764  -13.5762   20.1088 C   0  0  0  0  0  0  0  0  0  0  0  0
  -32.6252  -23.3917   20.6967 C   0  0  0  0  0  0  0  0  0  0  0  0
  -31.4753  -23.8827   20.2394 C   0  0  0  0  0  0  0  0  0  0  0  0
  -32.5603  -21.9243   20.6425 C   0  0  0  0  0  0  0  0  0  0  0  0
  -30.6141  -22.7499   19.8481 C   0  0  0  0  0  0  0  0  0  0  0  0
  -22.8457  -13.4865   21.2332 C   0  0  0  0  0  0  0  0  0  0  0  0
  -25.2589  -30.3243   21.2813 C   0  0  0  0  0  0  0  0  0  0  0  0
  -23.0787  -28.2606   20.0521 C   0  0  0  0  0  0  0  0  0  0  0  0
  -22.4246  -25.1781   18.7417 C   0  0  0  0  0  0  0  0  0  0  0  0
  -30.2482  -15.2640   18.9223 C   0  0  0  0  0  0  0  0  0  0  0  0
  -23.5028  -34.9298   22.6091 C   0  0  0  0  0  0  0  0  0  0  0  0
  -26.3830  -29.6232   19.1363 C   0  0  0  0  0  0  0  0  0  0  0  0
  -25.3371  -27.3000   20.6375 C   0  0  0  0  0  0  0  0  0  0  0  0
  -22.9423  -33.5099   22.5954 C   0  0  0  0  0  0  0  0  0  0  0  0
  -29.4846  -11.8372   18.3298 C   0  0  0  0  0  0  0  0  0  0  0  0
  -23.9231  -32.5425   23.2503 C   0  0  0  0  0  0  0  0  0  0  0  0
  -28.1510  -11.6327   19.0521 C   0  0  0  0  0  0  0  0  0  0  0  0
  -30.4030  -12.7897   19.0933 C   0  0  0  0  0  0  0  0  0  0  0  0
  -28.4702  -13.8801   20.1630 C   0  0  0  0  0  0  0  0  0  0  0  0
  -25.2515  -32.5016   22.4855 C   0  0  1  0  0  0  0  0  0  0  0  0
  -25.0805  -29.6983   19.9270 C   0  0  1  0  0  0  0  0  0  0  0  0
  -27.4860  -12.9791   19.3994 C   0  0  2  0  0  0  0  0  0  0  0  0
  -20.5418  -23.7692   17.8657 C   0  0  0  0  0  0  0  0  0  0  0  0
  -22.1270  -27.7611   22.9077 C   0  0  0  0  0  0  0  0  0  0  0  0
  -20.9532  -25.7091   22.0834 C   0  0  0  0  0  0  0  0  0  0  0  0
  -20.2951  -27.9535   21.2162 C   0  0  0  0  0  0  0  0  0  0  0  0
  -23.6754  -24.9632   16.0681 C   0  0  0  0  0  0  0  0  0  0  0  0
  -31.0558  -25.3010   20.1033 C   0  0  0  0  0  0  0  0  0  1  0  0
  -22.4933  -26.9391   20.4878 C   0  0  1  0  0  0  0  0  0  0  0  0
  -21.6467  -24.7517   17.5098 C   0  0  2  0  0  0  0  0  0  0  0  0
  -21.4951  -27.0940   21.6698 C   0  0  0  0  0  0  0  0  0  0  0  0
  -26.0660  -11.7312   20.9830 N   0  0  0  0  0  0  0  0  0  0  0  0
  -26.1863  -12.7851   20.1578 N   0  0  0  0  0  0  0  0  0  0  0  0
  -31.3257  -21.5974   20.1197 N   0  0  0  0  0  0  0  0  0  0  0  0
  -24.4726  -28.3834   20.1411 N   0  0  0  0  0  0  0  0  0  0  0  0
  -29.7071  -14.0453   19.3836 N   0  0  0  0  0  0  0  0  0  0  0  0
  -25.0274  -14.6777   19.3298 N   0  0  0  0  0  0  0  0  0  0  0  0
  -22.0432  -12.7731   22.1340 N   0  0  0  0  0  0  0  0  0  0  0  0
  -29.4824  -16.3880   19.2303 N   0  0  0  0  0  0  0  0  0  0  0  0
  -25.1209  -31.6992   21.2882 N   0  0  0  0  0  0  0  0  0  0  0  0
  -21.9149  -26.3349   19.2924 N   0  0  0  0  0  0  0  0  0  0  0  0
  -22.5547  -24.1008   16.5235 N   0  3  0  0  0  0  0  0  0  0  0  0
  -33.4661  -21.1922   21.0067 O   0  0  0  0  0  0  0  0  0  0  0  0
  -29.4927  -22.8683   19.3807 O   0  0  0  0  0  0  0  0  0  0  0  0
  -22.3847  -14.5143   20.6812 O   0  0  0  0  0  0  0  0  0  0  0  0
  -25.5022  -29.6124   22.2486 O   0  0  0  0  0  0  0  0  0  0  0  0
  -22.3277  -29.1486   19.6410 O   0  0  0  0  0  0  0  0  0  0  0  0
  -23.3857  -24.5461   19.1745 O   0  0  0  0  0  0  0  0  0  0  0  0
  -31.2984  -15.3045   18.2763 O   0  0  0  0  0  0  0  0  0  0  0  0
  -22.8317   -8.1459   25.1343 O   0  0  0  0  0  0  0  0  0  0  0  0
  -29.8960  -25.5434   20.8986 O   0  0  0  0  0  0  0  0  0  1  0  0
  -17.6982   -6.2875   24.3608 F   0  0  0  0  0  0  0  0  0  0  0  0
  -27.7288  -18.4701   19.8321 F   0  0  0  0  0  0  0  0  0  0  0  0
  -22.3418   -5.4533   24.7435 F   0  0  0  0  0  0  0  0  0  0  0  0
  1  2  1  0  0  0  0
  1  5  2  0  0  0  0
  2  6  2  0  0  0  0
  3 10  2  0  0  0  0
  3 18  1  0  0  0  0
  4 11  1  0  0  0  0
  4 18  2  0  0  0  0
  5 20  1  0  0  0  0
  6 22  1  0  0  0  0
  7 12  2  0  0  0  0
  7 21  1  0  0  0  0
  8  9  2  0  0  0  0
  8 24  1  0  0  0  0
  9 25  1  0  0  0  0
 10 26  1  0  0  0  0
 11 26  2  0  0  0  0
 12 27  1  0  0  0  0
 13 14  2  0  0  0  0
 13 28  1  0  0  0  0
 14 29  1  0  0  0  0
 15 23  1  0  0  0  0
 15 27  2  0  0  0  0
 16 24  2  0  0  0  0
 16 30  1  0  0  0  0
 17 29  2  0  0  0  0
 17 31  1  0  0  0  0
 18 32  1  0  0  0  0
 19 32  1  0  0  0  0
 19 33  2  0  0  0  0
 19 38  1  0  0  0  0
 20 22  2  0  0  0  0
 20 43  1  0  0  0  0
 21 23  2  0  0  0  0
 21 44  1  0  0  0  0
 22 52  1  0  0  0  0
 23 45  1  0  0  0  0
 24 66  1  0  0  0  0
 25 30  2  0  0  0  0
 25 71  1  0  0  0  0
 26 82  1  0  0  0  0
 27 83  1  0  0  0  0
 28 31  2  0  0  0  0
 28 82  1  0  0  0  0
 29 84  1  0  0  0  0
 30 85  1  0  0  0  0
 31 86  1  0  0  0  0
 32 64  2  0  0  0  0
 33 65  1  0  0  0  0
 33 69  1  0  0  0  0
 34 35  2  0  0  0  0
 34 36  1  0  0  0  0
 35 37  1  0  0  0  0
 35 60  1  0  0  0  0
 36 66  1  0  0  0  0
 36 75  2  0  0  0  0
 37 66  1  0  0  0  0
 37 76  2  0  0  0  0
 38 70  1  0  0  0  0
 38 77  2  0  0  0  0
 39 53  1  0  0  0  0
 39 72  1  0  0  0  0
 39 78  2  0  0  0  0
 40 61  1  0  0  0  0
 40 67  1  0  0  0  0
 40 79  2  0  0  0  0
 41 62  1  0  0  0  0
 41 73  1  0  0  0  0
 41 80  2  0  0  0  0
 42 68  1  0  0  0  0
 42 71  1  0  0  0  0
 42 81  2  0  0  0  0
 43 46  1  0  0  0  0
 44 53  1  0  0  0  0
 45 67  1  0  0  0  0
 46 48  1  0  0  0  0
 47 49  1  0  0  0  0
 47 50  1  0  0  0  0
 48 52  1  0  0  0  0
 49 54  1  0  0  0  0
 50 68  1  0  0  0  0
 51 54  1  0  0  0  0
 51 68  1  0  0  0  0
 52 72  1  0  0  0  0
 53 67  1  0  0  0  0
 54 65  1  0  0  0  0
 55 62  1  0  0  0  0
 56 63  1  0  0  0  0
 57 63  1  0  0  0  0
 58 63  1  0  0  0  0
 59 74  1  0  0  0  0
 60 83  1  0  0  0  0
 61 63  1  0  0  0  0
 61 73  1  0  0  0  0
 62 74  1  0  0  0  0
 64 65  1  0  0  0  0
M  CHG  1  74   1
M  ISO  4  42 100  60 101  71 100  83 101
M  END
> <Batch ID>
0085

> <Smiles>
CNC(C)C(=O)NC(C(=O)N1Cc2cc([101O:1][101CH2:1]C3=CC(=O)N(c4ccc([100NH:0][100C:0](=O)N5CCCC(n6nc(-c7ccc(Oc8ccc(F)cc8F)cc7)c(C(N)=O)c6N)C5)c(F)c4)C3=O)ccc2CC1C(=O)NC1CCCc2ccccc21)C(C)(C)C

> <Shape>
0.295

> <Color>
0.132

> <Negative vol penalty>
0.000

$$$$

  -OEChem-04052300153D

 85 93  0     1  0  0  0  0  0999 V2000
  -15.3860  -24.4162   21.3372 C   0  0  0  0  0  0  0  0  0  0  0  0
  -16.7110  -23.9936   21.3713 C   0  0  0  0  0  0  0  0  0  0  0  0
  -23.0604   -9.8897   19.9433 C   0  0  0  0  0  0  0  0  0  0  0  0
  -23.8333   -9.8789   22.2323 C   0  0  0  0  0  0  0  0  0  0  0  0
  -15.0685  -25.7371   21.6507 C   0  0  0  0  0  0  0  0  0  0  0  0
  -17.7195  -24.8920   21.7179 C   0  0  0  0  0  0  0  0  0  0  0  0
  -21.0463  -22.9133   24.9832 C   0  0  0  0  0  0  0  0  0  0  0  0
  -22.3108   -8.7398   20.1910 C   0  0  0  0  0  0  0  0  0  0  0  0
  -23.0837   -8.7290   22.4800 C   0  0  0  0  0  0  0  0  0  0  0  0
  -22.0071  -22.0455   24.4659 C   0  0  0  0  0  0  0  0  0  0  0  0
  -19.8541   -7.9478   23.0965 C   0  0  0  0  0  0  0  0  0  0  0  0
  -19.1036   -7.9059   24.2714 C   0  0  0  0  0  0  0  0  0  0  0  0
  -29.9289  -17.4189   23.1451 C   0  0  0  0  0  0  0  0  0  0  0  0
  -31.9140  -18.3027   24.2011 C   0  0  0  0  0  0  0  0  0  0  0  0
  -23.6225  -23.8371   24.4771 C   0  0  0  0  0  0  0  0  0  0  0  0
  -32.1042  -16.5603   22.5384 C   0  0  0  0  0  0  0  0  0  0  0  0
  -20.3370   -5.9566   24.9897 C   0  0  0  0  0  0  0  0  0  0  0  0
  -23.8217  -10.4593   20.9640 C   0  0  0  0  0  0  0  0  0  0  0  0
  -30.5272  -18.2943   24.0514 C   0  0  0  0  0  0  0  0  0  0  0  0
  -24.1786  -12.9829   20.8563 C   0  0  0  0  0  0  0  0  0  0  0  0
  -16.0726  -26.6497   22.0107 C   0  0  0  0  0  0  0  0  0  0  0  0
  -21.3639  -24.2545   25.2415 C   0  0  0  0  0  0  0  0  0  0  0  0
  -17.4153  -26.2268   22.0352 C   0  0  0  0  0  0  0  0  0  0  0  0
  -22.6646  -24.7192   25.0001 C   0  0  0  0  0  0  0  0  0  0  0  0
  -30.7174  -16.5519   22.3886 C   0  0  0  0  0  0  0  0  0  0  0  0
  -22.3224   -8.1594   21.4593 C   0  0  0  0  0  0  0  0  0  0  0  0
  -23.2946  -22.5081   24.2100 C   0  0  0  0  0  0  0  0  0  0  0  0
  -20.8460   -6.9941   22.8681 C   0  0  0  0  0  0  0  0  0  0  0  0
  -19.3451   -6.9103   25.2181 C   0  0  0  0  0  0  0  0  0  0  0  0
  -32.7025  -17.4357   23.4446 C   0  0  0  0  0  0  0  0  0  0  0  0
  -21.0875   -5.9985   23.8147 C   0  0  0  0  0  0  0  0  0  0  0  0
  -24.5968  -11.6468   20.7086 C   0  0  0  0  0  0  0  0  0  0  0  0
  -25.2734  -13.7276   20.4911 C   0  0  0  0  0  0  0  0  0  0  0  0
  -26.3484  -20.6409   24.0282 C   0  0  0  0  0  0  0  0  0  0  0  0
  -25.3685  -21.4504   24.4365 C   0  0  0  0  0  0  0  0  0  1  0  0
  -29.6880  -19.2158   24.8590 C   0  0  0  0  0  0  0  0  0  0  0  0
  -22.9138  -13.5042   21.2854 C   0  0  0  0  0  0  0  0  0  0  0  0
  -27.5577  -20.4547   24.8751 C   0  0  0  0  0  0  0  0  0  0  0  0
  -20.3304  -27.0549   24.1492 C   0  0  0  0  0  0  0  0  0  0  0  0
  -22.2803  -28.2343   26.4578 C   0  0  0  0  0  0  0  0  0  0  0  0
  -24.9940  -27.7690   28.4744 C   0  0  0  0  0  0  0  0  0  0  0  0
  -30.7469  -14.7382   20.6404 C   0  0  0  0  0  0  0  0  0  0  0  0
  -15.6859  -28.0794   22.2954 C   0  0  0  0  0  0  0  0  0  0  0  0
  -20.3235  -25.1711   25.8246 C   0  0  0  0  0  0  0  0  0  0  0  0
  -23.0620  -26.1449   25.2792 C   0  0  0  0  0  0  0  0  0  0  0  0
  -16.7729  -28.8724   23.0165 C   0  0  0  0  0  0  0  0  0  0  0  0
  -29.6040  -12.3449   18.2649 C   0  0  0  0  0  0  0  0  0  0  0  0
  -18.1286  -28.6421   22.3562 C   0  0  0  0  0  0  0  0  0  0  0  0
  -28.1650  -12.0599   18.7010 C   0  0  0  0  0  0  0  0  0  0  0  0
  -30.5273  -12.5612   19.4626 C   0  0  0  0  0  0  0  0  0  0  0  0
  -28.6328  -13.2896   20.8588 C   0  0  0  0  0  0  0  0  0  0  0  0
  -18.5347  -27.1653   22.4305 C   0  0  1  0  0  0  0  0  0  0  0  0
  -20.6148  -26.6462   25.5669 C   0  0  1  0  0  0  0  0  0  0  0  0
  -27.6522  -13.1291   19.6856 C   0  0  2  0  0  0  0  0  0  0  0  0
  -26.3661  -28.9256   30.2285 C   0  0  0  0  0  0  0  0  0  0  0  0
  -23.5956  -29.9429   24.2989 C   0  0  0  0  0  0  0  0  0  0  0  0
  -25.5078  -30.3295   25.8680 C   0  0  0  0  0  0  0  0  0  0  0  0
  -23.2201  -31.1178   26.4744 C   0  0  0  0  0  0  0  0  0  0  0  0
  -24.3720  -25.6961   30.4930 C   0  0  0  0  0  0  0  0  0  0  0  0
  -23.7322  -28.6425   26.5252 C   0  0  1  0  0  0  0  0  0  0  0  0
  -25.1937  -27.9943   29.9622 C   0  0  2  0  0  0  0  0  0  0  0  0
  -24.0062  -29.9817   25.7844 C   0  0  0  0  0  0  0  0  0  0  0  0
  -25.8586  -11.5455   20.2825 N   0  0  0  0  0  0  0  0  0  0  0  0
  -26.2428  -12.8274   20.1593 N   0  0  0  0  0  0  0  0  0  0  0  0
  -22.0077  -27.0040   25.8431 N   0  0  0  0  0  0  0  0  0  0  0  0
  -29.9798  -13.5904   20.3490 N   0  0  0  0  0  0  0  0  0  0  0  0
  -25.4917  -15.0581   20.4244 N   0  0  0  0  0  0  0  0  0  0  0  0
  -21.8982  -12.5994   21.6233 N   0  0  0  0  0  0  0  0  0  0  0  0
  -30.1100  -15.6626   21.4678 N   0  0  0  0  0  0  0  0  0  0  0  0
  -28.4683  -19.5779   24.2887 N   0  0  0  0  0  0  0  0  0  0  0  0
  -19.0238  -26.8415   23.7535 N   0  0  0  0  0  0  0  0  0  0  0  0
  -24.0863  -28.6591   27.9403 N   0  0  0  0  0  0  0  0  0  0  0  0
  -25.4561  -26.6994   30.6516 N   0  3  0  0  0  0  0  0  0  0  0  0
  -30.1122  -19.6180   25.9390 O   0  0  0  0  0  0  0  0  0  0  0  0
  -22.6856  -14.7359   21.3511 O   0  0  0  0  0  0  0  0  0  0  0  0
  -27.6979  -21.0205   25.9545 O   0  0  0  0  0  0  0  0  0  0  0  0
  -21.2295  -27.5302   23.4655 O   0  0  0  0  0  0  0  0  0  0  0  0
  -21.4206  -28.9762   26.9393 O   0  0  0  0  0  0  0  0  0  0  0  0
  -25.5869  -26.8936   27.8477 O   0  0  0  0  0  0  0  0  0  0  0  0
  -31.8743  -14.9026   20.1673 O   0  0  0  0  0  0  0  0  0  0  0  0
  -21.5908   -7.0375   21.7014 O   0  0  0  0  0  0  0  0  0  0  0  0
  -24.2342  -21.6634   23.7045 O   0  0  0  0  0  0  0  0  0  1  0  0
  -18.6253   -6.8711   26.3471 F   0  0  0  0  0  0  0  0  0  0  0  0
  -34.0339  -17.4416   23.5905 F   0  0  0  0  0  0  0  0  0  0  0  0
  -22.0399   -5.0802   23.6014 F   0  0  0  0  0  0  0  0  0  0  0  0
  1  2  1  0  0  0  0
  1  5  2  0  0  0  0
  2  6  2  0  0  0  0
  3  8  2  0  0  0  0
  3 18  1  0  0  0  0
  4  9  1  0  0  0  0
  4 18  2  0  0  0  0
  5 21  1  0  0  0  0
  6 23  1  0  0  0  0
  7 10  2  0  0  0  0
  7 22  1  0  0  0  0
  8 26  1  0  0  0  0
  9 26  2  0  0  0  0
 10 27  1  0  0  0  0
 11 12  2  0  0  0  0
 11 28  1  0  0  0  0
 12 29  1  0  0  0  0
 13 19  2  0  0  0  0
 13 25  1  0  0  0  0
 14 19  1  0  0  0  0
 14 30  2  0  0  0  0
 15 24  1  0  0  0  0
 15 27  2  0  0  0  0
 16 25  2  0  0  0  0
 16 30  1  0  0  0  0
 17 29  2  0  0  0  0
 17 31  1  0  0  0  0
 18 32  1  0  0  0  0
 19 36  1  0  0  0  0
 20 32  1  0  0  0  0
 20 33  2  0  0  0  0
 20 37  1  0  0  0  0
 21 23  2  0  0  0  0
 21 43  1  0  0  0  0
 22 24  2  0  0  0  0
 22 44  1  0  0  0  0
 23 52  1  0  0  0  0
 24 45  1  0  0  0  0
 25 69  1  0  0  0  0
 26 81  1  0  0  0  0
 27 82  1  0  0  0  0
 28 31  2  0  0  0  0
 28 81  1  0  0  0  0
 29 83  1  0  0  0  0
 30 84  1  0  0  0  0
 31 85  1  0  0  0  0
 32 63  2  0  0  0  0
 33 64  1  0  0  0  0
 33 67  1  0  0  0  0
 34 35  2  0  0  0  0
 34 38  1  0  0  0  0
 35 82  1  0  0  0  0
 36 70  1  0  0  0  0
 36 74  2  0  0  0  0
 37 68  1  0  0  0  0
 37 75  2  0  0  0  0
 38 70  1  0  0  0  0
 38 76  2  0  0  0  0
 39 53  1  0  0  0  0
 39 71  1  0  0  0  0
 39 77  2  0  0  0  0
 40 60  1  0  0  0  0
 40 65  1  0  0  0  0
 40 78  2  0  0  0  0
 41 61  1  0  0  0  0
 41 72  1  0  0  0  0
 41 79  2  0  0  0  0
 42 66  1  0  0  0  0
 42 69  1  0  0  0  0
 42 80  2  0  0  0  0
 43 46  1  0  0  0  0
 44 53  1  0  0  0  0
 45 65  1  0  0  0  0
 46 48  1  0  0  0  0
 47 49  1  0  0  0  0
 47 50  1  0  0  0  0
 48 52  1  0  0  0  0
 49 54  1  0  0  0  0
 50 66  1  0  0  0  0
 51 54  1  0  0  0  0
 51 66  1  0  0  0  0
 52 71  1  0  0  0  0
 53 65  1  0  0  0  0
 54 64  1  0  0  0  0
 55 61  1  0  0  0  0
 56 62  1  0  0  0  0
 57 62  1  0  0  0  0
 58 62  1  0  0  0  0
 59 73  1  0  0  0  0
 60 62  1  0  0  0  0
 60 72  1  0  0  0  0
 61 73  1  0  0  0  0
 63 64  1  0  0  0  0
M  CHG  1  73   1
M  ISO  4  35 101  42 100  69 100  82 101
M  END
> <Batch ID>
0085

> <Smiles>
CNC(C)C(=O)NC(C(=O)N1Cc2cc([101O:1][101CH:1]=CC(=O)NC(=O)c3cc(F)cc([100NH:0][100C:0](=O)N4CCCC(n5nc(-c6ccc(Oc7ccc(F)cc7F)cc6)c(C(N)=O)c5N)C4)c3)ccc2CC1C(=O)NC1CCCc2ccccc21)C(C)(C)C

> <Shape>
0.231

> <Color>
0.188

> <Negative vol penalty>
0.000

$$$$

  -OEChem-04052300153D

 86 95  0     1  0  0  0  0  0999 V2000
  -32.5548  -31.1786   22.1114 C   0  0  0  0  0  0  0  0  0  0  0  0
  -31.6980  -30.1311   21.7886 C   0  0  0  0  0  0  0  0  0  0  0  0
  -22.6147  -11.1506   19.5977 C   0  0  0  0  0  0  0  0  0  0  0  0
  -23.1660  -10.2059   21.7519 C   0  0  0  0  0  0  0  0  0  0  0  0
  -30.3426  -19.0517   18.5359 C   0  0  0  0  0  0  0  0  0  0  0  0
  -28.4248  -17.7661   17.8243 C   0  0  0  0  0  0  0  0  0  0  0  0
  -32.1872  -32.1023   23.0889 C   0  0  0  0  0  0  0  0  0  0  0  0
  -30.4735  -30.0062   22.4439 C   0  0  0  0  0  0  0  0  0  0  0  0
  -26.6642  -28.9884   19.2661 C   0  0  0  0  0  0  0  0  0  0  0  0
  -29.5496  -20.1972   18.6034 C   0  0  0  0  0  0  0  0  0  0  0  0
  -27.6318  -18.9116   17.8918 C   0  0  0  0  0  0  0  0  0  0  0  0
  -21.5080  -10.3060   19.5105 C   0  0  0  0  0  0  0  0  0  0  0  0
  -22.0593   -9.3614   21.6648 C   0  0  0  0  0  0  0  0  0  0  0  0
  -26.5472  -27.6753   18.8124 C   0  0  0  0  0  0  0  0  0  0  0  0
  -19.5857   -6.7047   21.8480 C   0  0  0  0  0  0  0  0  0  0  0  0
  -19.7630   -5.3658   22.1965 C   0  0  0  0  0  0  0  0  0  0  0  0
  -24.8092  -27.2753   20.4368 C   0  0  0  0  0  0  0  0  0  0  0  0
  -21.4227   -5.1327   20.4564 C   0  0  0  0  0  0  0  0  0  0  0  0
  -23.4437  -11.1005   20.7183 C   0  0  0  0  0  0  0  0  0  0  0  0
  -29.7802  -17.8361   18.1462 C   0  0  0  0  0  0  0  0  0  0  0  0
  -24.6292  -13.2648   21.3650 C   0  0  0  0  0  0  0  0  0  0  0  0
  -30.9534  -31.9942   23.7497 C   0  0  0  0  0  0  0  0  0  0  0  0
  -25.8609  -29.4523   20.3177 C   0  0  0  0  0  0  0  0  0  0  0  0
  -30.0897  -30.9286   23.4321 C   0  0  0  0  0  0  0  0  0  0  0  0
  -24.9162  -28.5955   20.9003 C   0  0  0  0  0  0  0  0  0  0  0  0
  -28.1942  -20.1272   18.2814 C   0  0  0  0  0  0  0  0  0  0  0  0
  -21.2303   -9.4114   20.5441 C   0  0  0  0  0  0  0  0  0  0  0  0
  -25.6216  -26.8177   19.3996 C   0  0  0  0  0  0  0  0  0  0  0  0
  -20.3269   -7.2576   20.8037 C   0  0  0  0  0  0  0  0  0  0  0  0
  -20.6815   -4.5798   21.5007 C   0  0  0  0  0  0  0  0  0  0  0  0
  -21.2454   -6.4716   20.1079 C   0  0  0  0  0  0  0  0  0  0  0  0
  -24.5874  -11.9723   20.8087 C   0  0  0  0  0  0  0  0  0  0  0  0
  -25.9338  -13.6645   21.2073 C   0  0  0  0  0  0  0  0  0  0  0  0
  -26.6052  -23.4535   18.6344 C   0  0  0  0  0  0  0  0  0  0  0  0
  -27.8079  -22.5833   18.7242 C   0  0  0  0  0  0  0  0  0  0  0  0
  -26.6046  -24.7266   19.0368 C   0  0  0  0  0  0  0  0  0  1  0  0
  -30.6247  -16.6161   18.0741 C   0  0  0  0  0  0  0  0  0  0  0  0
  -23.5824  -14.0353   21.9702 C   0  0  0  0  0  0  0  0  0  0  0  0
  -26.4172  -30.5691   23.2412 C   0  0  0  0  0  0  0  0  0  0  0  0
  -23.2215  -31.1252   23.2148 C   0  0  0  0  0  0  0  0  0  0  0  0
  -20.1547  -30.3406   21.9397 C   0  0  0  0  0  0  0  0  0  0  0  0
  -30.5533  -14.1451   18.1862 C   0  0  0  0  0  0  0  0  0  0  0  0
  -30.6203  -32.9896   24.8327 C   0  0  0  0  0  0  0  0  0  0  0  0
  -25.9808  -30.8794   20.7777 C   0  0  0  0  0  0  0  0  0  0  0  0
  -24.0159  -29.0507   22.0186 C   0  0  0  0  0  0  0  0  0  0  0  0
  -25.4574  -22.6912   18.0710 C   0  0  0  0  0  0  0  0  0  0  0  0
  -29.1424  -33.0020   25.2150 C   0  0  0  0  0  0  0  0  0  0  0  0
  -30.0379  -11.0466   19.8083 C   0  0  0  0  0  0  0  0  0  0  0  0
  -28.6279  -31.5784   25.4036 C   0  0  0  0  0  0  0  0  0  0  0  0
  -28.5790  -11.1177   20.2675 C   0  0  0  0  0  0  0  0  0  0  0  0
  -25.9515  -21.2542   18.0942 C   0  0  0  0  0  0  0  0  0  0  0  0
  -30.2348  -11.6998   18.4409 C   0  0  0  0  0  0  0  0  0  0  0  0
  -28.2668  -13.1380   18.7826 C   0  0  0  0  0  0  0  0  0  0  0  0
  -28.7422  -30.7737   24.1033 C   0  0  1  0  0  0  0  0  0  0  0  0
  -25.4703  -31.0938   22.1992 C   0  0  1  0  0  0  0  0  0  0  0  0
  -28.0296  -12.5561   20.1855 C   0  0  1  0  0  0  0  0  0  0  0  0
  -17.7259  -30.9390   22.1407 C   0  0  0  0  0  0  0  0  0  0  0  0
  -23.0531  -29.5544   25.8252 C   0  0  0  0  0  0  0  0  0  0  0  0
  -20.5810  -29.3707   25.4739 C   0  0  0  0  0  0  0  0  0  0  0  0
  -21.6359  -31.6138   25.7536 C   0  0  0  0  0  0  0  0  0  0  0  0
  -20.0155  -31.2099   19.1141 C   0  0  0  0  0  0  0  0  0  0  0  0
  -21.9955  -30.3344   23.6027 C   0  0  1  0  0  0  0  0  0  0  0  0
  -19.0310  -31.2129   21.4096 C   0  0  2  0  0  0  0  0  0  0  0  0
  -21.8345  -30.2089   25.1441 C   0  0  0  0  0  0  0  0  0  0  0  0
  -25.7712  -11.5772   20.3329 N   0  0  0  0  0  0  0  0  0  0  0  0
  -26.5692  -12.6276   20.5898 N   0  0  0  0  0  0  0  0  0  0  0  0
  -27.3823  -21.3019   18.3512 N   0  0  0  0  0  0  0  0  0  0  0  0
  -24.1754  -30.4531   22.4375 N   0  0  0  0  0  0  0  0  0  0  0  0
  -29.6972  -13.0615   18.4493 N   0  0  0  0  0  0  0  0  0  0  0  0
  -26.5878  -14.7982   21.5378 N   0  0  0  0  0  0  0  0  0  0  0  0
  -22.3008  -13.4738   22.0512 N   0  0  0  0  0  0  0  0  0  0  0  0
  -29.9535  -15.4072   18.2598 N   0  0  0  0  0  0  0  0  0  0  0  0
  -27.6776  -31.1332   23.1912 N   0  0  0  0  0  0  0  0  0  0  0  0
  -20.8680  -30.9753   22.9345 N   0  0  0  0  0  0  0  0  0  0  0  0
  -18.8184  -30.9576   19.9568 N   0  3  0  0  0  0  0  0  0  0  0  0
  -28.9042  -22.9901   19.0713 O   0  0  0  0  0  0  0  0  0  0  0  0
  -31.8213  -16.7310   17.8234 O   0  0  0  0  0  0  0  0  0  0  0  0
  -23.7740  -15.1939   22.4110 O   0  0  0  0  0  0  0  0  0  0  0  0
  -26.0322  -29.7167   24.0330 O   0  0  0  0  0  0  0  0  0  0  0  0
  -23.3256  -32.2983   23.5816 O   0  0  0  0  0  0  0  0  0  0  0  0
  -20.3751  -29.2080   21.5164 O   0  0  0  0  0  0  0  0  0  0  0  0
  -31.7561  -14.0040   17.9443 O   0  0  0  0  0  0  0  0  0  0  0  0
  -20.1504   -8.5873   20.4595 O   0  0  0  0  0  0  0  0  0  0  0  0
  -25.5057  -25.5353   18.9591 O   0  0  0  0  0  0  0  0  0  1  0  0
  -20.8527   -3.2944   21.8364 F   0  0  0  0  0  0  0  0  0  0  0  0
  -21.9613   -6.9975   19.1045 F   0  0  0  0  0  0  0  0  0  0  0  0
  1  2  1  0  0  0  0
  1  7  2  0  0  0  0
  2  8  2  0  0  0  0
  3 12  2  0  0  0  0
  3 19  1  0  0  0  0
  4 13  1  0  0  0  0
  4 19  2  0  0  0  0
  5 10  2  0  0  0  0
  5 20  1  0  0  0  0
  6 11  1  0  0  0  0
  6 20  2  0  0  0  0
  7 22  1  0  0  0  0
  8 24  1  0  0  0  0
  9 14  2  0  0  0  0
  9 23  1  0  0  0  0
 10 26  1  0  0  0  0
 11 26  2  0  0  0  0
 12 27  1  0  0  0  0
 13 27  2  0  0  0  0
 14 28  1  0  0  0  0
 15 16  2  0  0  0  0
 15 29  1  0  0  0  0
 16 30  1  0  0  0  0
 17 25  1  0  0  0  0
 17 28  2  0  0  0  0
 18 30  2  0  0  0  0
 18 31  1  0  0  0  0
 19 32  1  0  0  0  0
 20 37  1  0  0  0  0
 21 32  1  0  0  0  0
 21 33  2  0  0  0  0
 21 38  1  0  0  0  0
 22 24  2  0  0  0  0
 22 43  1  0  0  0  0
 23 25  2  0  0  0  0
 23 44  1  0  0  0  0
 24 54  1  0  0  0  0
 25 45  1  0  0  0  0
 26 67  1  0  0  0  0
 27 83  1  0  0  0  0
 28 84  1  0  0  0  0
 29 31  2  0  0  0  0
 29 83  1  0  0  0  0
 30 85  1  0  0  0  0
 31 86  1  0  0  0  0
 32 65  2  0  0  0  0
 33 66  1  0  0  0  0
 33 70  1  0  0  0  0
 34 35  1  0  0  0  0
 34 36  2  0  0  0  0
 34 46  1  0  0  0  0
 35 67  1  0  0  0  0
 35 76  2  0  0  0  0
 36 84  1  0  0  0  0
 37 72  1  0  0  0  0
 37 77  2  0  0  0  0
 38 71  1  0  0  0  0
 38 78  2  0  0  0  0
 39 55  1  0  0  0  0
 39 73  1  0  0  0  0
 39 79  2  0  0  0  0
 40 62  1  0  0  0  0
 40 68  1  0  0  0  0
 40 80  2  0  0  0  0
 41 63  1  0  0  0  0
 41 74  1  0  0  0  0
 41 81  2  0  0  0  0
 42 69  1  0  0  0  0
 42 72  1  0  0  0  0
 42 82  2  0  0  0  0
 43 47  1  0  0  0  0
 44 55  1  0  0  0  0
 45 68  1  0  0  0  0
 46 51  1  0  0  0  0
 47 49  1  0  0  0  0
 48 50  1  0  0  0  0
 48 52  1  0  0  0  0
 49 54  1  0  0  0  0
 50 56  1  0  0  0  0
 51 67  1  0  0  0  0
 52 69  1  0  0  0  0
 53 56  1  0  0  0  0
 53 69  1  0  0  0  0
 54 73  1  0  0  0  0
 55 68  1  0  0  0  0
 56 66  1  0  0  0  0
 57 63  1  0  0  0  0
 58 64  1  0  0  0  0
 59 64  1  0  0  0  0
 60 64  1  0  0  0  0
 61 75  1  0  0  0  0
 62 64  1  0  0  0  0
 62 74  1  0  0  0  0
 63 75  1  0  0  0  0
 65 66  1  0  0  0  0
M  CHG  1  75   1
M  ISO  4  36 101  42 100  72 100  84 101
M  END
> <Batch ID>
0085

> <Smiles>
CNC(C)C(=O)NC(C(=O)N1Cc2cc([101O:1][101CH:1]=C3CCN(c4ccc(C(=O)[100NH:0][100C:0](=O)N5CCCC(n6nc(-c7ccc(Oc8ccc(F)cc8F)cc7)c(C(N)=O)c6N)C5)cc4)C3=O)ccc2CC1C(=O)NC1CCCc2ccccc21)C(C)(C)C

> <Shape>
0.256

> <Color>
0.133

> <Negative vol penalty>
0.000

$$$$

  -OEChem-04052300153D

 84 92  0     1  0  0  0  0  0999 V2000
  -28.5502  -36.5485   25.1766 C   0  0  0  0  0  0  0  0  0  0  0  0
  -29.0054  -35.6339   24.2323 C   0  0  0  0  0  0  0  0  0  0  0  0
  -23.9843   -8.9280   21.0942 C   0  0  0  0  0  0  0  0  0  0  0  0
  -23.1790  -11.2019   20.9597 C   0  0  0  0  0  0  0  0  0  0  0  0
  -30.4900  -18.5303   21.4892 C   0  0  0  0  0  0  0  0  0  0  0  0
  -28.2616  -18.8093   20.5985 C   0  0  0  0  0  0  0  0  0  0  0  0
  -27.5228  -36.1941   26.0500 C   0  0  0  0  0  0  0  0  0  0  0  0
  -28.4341  -34.3639   24.1616 C   0  0  0  0  0  0  0  0  0  0  0  0
  -26.8087  -29.2286   19.4389 C   0  0  0  0  0  0  0  0  0  0  0  0
  -30.5051  -17.2105   21.0383 C   0  0  0  0  0  0  0  0  0  0  0  0
  -28.2767  -17.4894   20.1475 C   0  0  0  0  0  0  0  0  0  0  0  0
  -22.9861   -8.6294   22.0216 C   0  0  0  0  0  0  0  0  0  0  0  0
  -22.1808  -10.9032   21.8871 C   0  0  0  0  0  0  0  0  0  0  0  0
  -26.9930  -27.8630   19.2266 C   0  0  0  0  0  0  0  0  0  0  0  0
  -19.6779   -7.9316   21.9828 C   0  0  0  0  0  0  0  0  0  0  0  0
  -18.9676   -6.7435   21.8107 C   0  0  0  0  0  0  0  0  0  0  0  0
  -25.1704  -27.3888   20.7340 C   0  0  0  0  0  0  0  0  0  0  0  0
  -19.7134   -5.9834   23.9794 C   0  0  0  0  0  0  0  0  0  0  0  0
  -24.0808  -10.2143   20.5632 C   0  0  0  0  0  0  0  0  0  0  0  0
  -29.3682  -19.3297   21.2694 C   0  0  0  0  0  0  0  0  0  0  0  0
  -25.0319  -10.4125   18.2045 C   0  0  0  0  0  0  0  0  0  0  0  0
  -26.9321  -34.9224   25.9835 C   0  0  0  0  0  0  0  0  0  0  0  0
  -25.8092  -29.6849   20.3103 C   0  0  0  0  0  0  0  0  0  0  0  0
  -27.3988  -33.9916   25.0358 C   0  0  0  0  0  0  0  0  0  0  0  0
  -24.9738  -28.7607   20.9537 C   0  0  0  0  0  0  0  0  0  0  0  0
  -29.3985  -16.6900   20.3674 C   0  0  0  0  0  0  0  0  0  0  0  0
  -22.0844   -9.6169   22.4181 C   0  0  0  0  0  0  0  0  0  0  0  0
  -26.1757  -26.9428   19.8764 C   0  0  0  0  0  0  0  0  0  0  0  0
  -20.4061   -8.1455   23.1531 C   0  0  0  0  0  0  0  0  0  0  0  0
  -18.9853   -5.7695   22.8090 C   0  0  0  0  0  0  0  0  0  0  0  0
  -20.4238   -7.1715   24.1514 C   0  0  0  0  0  0  0  0  0  0  0  0
  -25.1120  -10.5235   19.6056 C   0  0  0  0  0  0  0  0  0  0  0  0
  -26.2637  -10.8231   17.7566 C   0  0  0  0  0  0  0  0  0  0  0  0
  -27.4572  -23.6335   20.3779 C   0  0  0  0  0  0  0  0  0  0  0  0
  -27.2141  -24.9408   20.4966 C   0  0  0  0  0  0  0  0  0  1  0  0
  -29.3521  -20.7349   21.7497 C   0  0  0  0  0  0  0  0  0  0  0  0
  -23.9416   -9.9772   17.3815 C   0  0  0  0  0  0  0  0  0  0  0  0
  -28.4067  -22.9681   21.3105 C   0  0  0  0  0  0  0  0  0  0  0  0
  -25.7824  -31.3536   23.0156 C   0  0  0  0  0  0  0  0  0  0  0  0
  -22.5675  -31.2362   22.5999 C   0  0  0  0  0  0  0  0  0  0  0  0
  -19.8805  -29.6468   21.2212 C   0  0  0  0  0  0  0  0  0  0  0  0
  -30.4480  -14.4226   20.0458 C   0  0  0  0  0  0  0  0  0  0  0  0
  -25.8567  -34.5685   26.9800 C   0  0  0  0  0  0  0  0  0  0  0  0
  -25.6058  -31.1620   20.5080 C   0  0  0  0  0  0  0  0  0  0  0  0
  -23.8731  -29.1997   21.8834 C   0  0  0  0  0  0  0  0  0  0  0  0
  -25.0496  -33.3323   26.5918 C   0  0  0  0  0  0  0  0  0  0  0  0
  -30.8592  -11.0176   19.0899 C   0  0  0  0  0  0  0  0  0  0  0  0
  -25.9780  -32.2060   26.1488 C   0  0  0  0  0  0  0  0  0  0  0  0
  -29.4246  -10.4960   18.9802 C   0  0  0  0  0  0  0  0  0  0  0  0
  -31.0152  -12.0110   20.2399 C   0  0  0  0  0  0  0  0  0  0  0  0
  -28.6278  -12.6068   20.1189 C   0  0  0  0  0  0  0  0  0  0  0  0
  -26.7876  -32.6128   24.9116 C   0  0  1  0  0  0  0  0  0  0  0  0
  -24.8920  -31.4974   21.8139 C   0  0  1  0  0  0  0  0  0  0  0  0
  -28.4066  -11.6523   18.9341 C   0  0  2  0  0  0  0  0  0  0  0  0
  -17.3772  -29.7634   21.0894 C   0  0  0  0  0  0  0  0  0  0  0  0
  -22.3685  -30.1119   25.4295 C   0  0  0  0  0  0  0  0  0  0  0  0
  -20.0358  -29.3744   24.8975 C   0  0  0  0  0  0  0  0  0  0  0  0
  -20.6160  -31.8001   24.8521 C   0  0  0  0  0  0  0  0  0  0  0  0
  -19.9357  -29.9962   18.2829 C   0  0  0  0  0  0  0  0  0  0  0  0
  -21.4697  -30.2868   23.0154 C   0  0  1  0  0  0  0  0  0  0  0  0
  -18.6900  -30.1738   20.4405 C   0  0  2  0  0  0  0  0  0  0  0  0
  -21.1444  -30.3846   24.5327 C   0  0  0  0  0  0  0  0  0  0  0  0
  -26.3007  -10.9695   20.0204 N   0  0  0  0  0  0  0  0  0  0  0  0
  -26.9789  -11.1423   18.8732 N   0  0  0  0  0  0  0  0  0  0  0  0
  -23.7180  -30.6544   22.0490 N   0  0  0  0  0  0  0  0  0  0  0  0
  -30.0208  -13.0804   20.1280 N   0  0  0  0  0  0  0  0  0  0  0  0
  -26.7940  -10.9386   16.5205 N   0  0  0  0  0  0  0  0  0  0  0  0
  -22.7472   -9.5903   18.0044 N   0  0  0  0  0  0  0  0  0  0  0  0
  -29.4149  -15.3492   19.9095 N   0  0  0  0  0  0  0  0  0  0  0  0
  -28.5329  -21.6080   21.0348 N   0  0  0  0  0  0  0  0  0  0  0  0
  -25.9689  -32.5269   23.7213 N   0  0  0  0  0  0  0  0  0  0  0  0
  -20.3354  -30.5670   22.1418 N   0  0  0  0  0  0  0  0  0  0  0  0
  -18.7103  -29.6468   19.0467 N   0  3  0  0  0  0  0  0  0  0  0  0
  -30.0596  -21.0483   22.7033 O   0  0  0  0  0  0  0  0  0  0  0  0
  -24.0296   -9.9171   16.1316 O   0  0  0  0  0  0  0  0  0  0  0  0
  -28.9869  -23.5772   22.2034 O   0  0  0  0  0  0  0  0  0  0  0  0
  -26.2634  -30.2588   23.2836 O   0  0  0  0  0  0  0  0  0  0  0  0
  -22.4071  -32.4498   22.7519 O   0  0  0  0  0  0  0  0  0  0  0  0
  -20.3568  -28.5291   21.0357 O   0  0  0  0  0  0  0  0  0  0  0  0
  -31.6438  -14.7253   20.0655 O   0  0  0  0  0  0  0  0  0  0  0  0
  -21.1101   -9.3258   23.3228 O   0  0  0  0  0  0  0  0  0  0  0  0
  -26.3539  -25.6093   19.6714 O   0  0  0  0  0  0  0  0  0  1  0  0
  -18.3019   -4.6293   22.6442 F   0  0  0  0  0  0  0  0  0  0  0  0
  -21.1206   -7.3718   25.2784 F   0  0  0  0  0  0  0  0  0  0  0  0
  1  2  1  0  0  0  0
  1  7  2  0  0  0  0
  2  8  2  0  0  0  0
  3 12  2  0  0  0  0
  3 19  1  0  0  0  0
  4 13  1  0  0  0  0
  4 19  2  0  0  0  0
  5 10  2  0  0  0  0
  5 20  1  0  0  0  0
  6 11  1  0  0  0  0
  6 20  2  0  0  0  0
  7 22  1  0  0  0  0
  8 24  1  0  0  0  0
  9 14  2  0  0  0  0
  9 23  1  0  0  0  0
 10 26  1  0  0  0  0
 11 26  2  0  0  0  0
 12 27  1  0  0  0  0
 13 27  2  0  0  0  0
 14 28  1  0  0  0  0
 15 16  2  0  0  0  0
 15 29  1  0  0  0  0
 16 30  1  0  0  0  0
 17 25  1  0  0  0  0
 17 28  2  0  0  0  0
 18 30  2  0  0  0  0
 18 31  1  0  0  0  0
 19 32  1  0  0  0  0
 20 36  1  0  0  0  0
 21 32  1  0  0  0  0
 21 33  2  0  0  0  0
 21 37  1  0  0  0  0
 22 24  2  0  0  0  0
 22 43  1  0  0  0  0
 23 25  2  0  0  0  0
 23 44  1  0  0  0  0
 24 52  1  0  0  0  0
 25 45  1  0  0  0  0
 26 69  1  0  0  0  0
 27 81  1  0  0  0  0
 28 82  1  0  0  0  0
 29 31  2  0  0  0  0
 29 81  1  0  0  0  0
 30 83  1  0  0  0  0
 31 84  1  0  0  0  0
 32 63  2  0  0  0  0
 33 64  1  0  0  0  0
 33 67  1  0  0  0  0
 34 35  2  0  0  0  0
 34 38  1  0  0  0  0
 35 82  1  0  0  0  0
 36 70  1  0  0  0  0
 36 74  2  0  0  0  0
 37 68  1  0  0  0  0
 37 75  2  0  0  0  0
 38 70  1  0  0  0  0
 38 76  2  0  0  0  0
 39 53  1  0  0  0  0
 39 71  1  0  0  0  0
 39 77  2  0  0  0  0
 40 60  1  0  0  0  0
 40 65  1  0  0  0  0
 40 78  2  0  0  0  0
 41 61  1  0  0  0  0
 41 72  1  0  0  0  0
 41 79  2  0  0  0  0
 42 66  1  0  0  0  0
 42 69  1  0  0  0  0
 42 80  2  0  0  0  0
 43 46  1  0  0  0  0
 44 53  1  0  0  0  0
 45 65  1  0  0  0  0
 46 48  1  0  0  0  0
 47 49  1  0  0  0  0
 47 50  1  0  0  0  0
 48 52  1  0  0  0  0
 49 54  1  0  0  0  0
 50 66  1  0  0  0  0
 51 54  1  0  0  0  0
 51 66  1  0  0  0  0
 52 71  1  0  0  0  0
 53 65  1  0  0  0  0
 54 64  1  0  0  0  0
 55 61  1  0  0  0  0
 56 62  1  0  0  0  0
 57 62  1  0  0  0  0
 58 62  1  0  0  0  0
 59 73  1  0  0  0  0
 60 62  1  0  0  0  0
 60 72  1  0  0  0  0
 61 73  1  0  0  0  0
 63 64  1  0  0  0  0
M  CHG  1  73   1
M  ISO  4  35 101  42 100  69 100  82 101
M  END
> <Batch ID>
0085

> <Smiles>
CNC(C)C(=O)NC(C(=O)N1Cc2cc([101O:1][101CH:1]=CC(=O)NC(=O)c3ccc([100NH:0][100C:0](=O)N4CCCC(n5nc(-c6ccc(Oc7ccc(F)cc7F)cc6)c(C(N)=O)c5N)C4)cc3)ccc2CC1C(=O)NC1CCCc2ccccc21)C(C)(C)C

> <Shape>
0.284

> <Color>
0.083

> <Negative vol penalty>
0.000

$$$$

  -OEChem-04052300153D

 85 94  0     1  0  0  0  0  0999 V2000
  -29.7355  -30.0365   26.6552 C   0  0  0  0  0  0  0  0  0  0  0  0
  -29.2962  -29.1756   25.6546 C   0  0  0  0  0  0  0  0  0  0  0  0
  -24.8749   -8.4146   21.0627 C   0  0  0  0  0  0  0  0  0  0  0  0
  -23.1881   -9.7073   19.9134 C   0  0  0  0  0  0  0  0  0  0  0  0
  -28.8240  -30.8603   27.3142 C   0  0  0  0  0  0  0  0  0  0  0  0
  -27.9447  -29.1372   25.3132 C   0  0  0  0  0  0  0  0  0  0  0  0
  -27.2062  -29.1158   20.3033 C   0  0  0  0  0  0  0  0  0  0  0  0
  -23.9227   -7.4412   21.3653 C   0  0  0  0  0  0  0  0  0  0  0  0
  -22.2360   -8.7339   20.2160 C   0  0  0  0  0  0  0  0  0  0  0  0
  -27.4017  -27.9074   19.6361 C   0  0  0  0  0  0  0  0  0  0  0  0
  -21.4271   -7.0094   23.6036 C   0  0  0  0  0  0  0  0  0  0  0  0
  -21.4059   -6.5070   24.9046 C   0  0  0  0  0  0  0  0  0  0  0  0
  -25.0177  -27.5395   19.6166 C   0  0  0  0  0  0  0  0  0  0  0  0
  -27.3537  -20.2134   16.3400 C   0  0  0  0  0  0  0  0  0  0  0  0
  -27.3570  -19.3959   18.6135 C   0  0  0  0  0  0  0  0  0  0  0  0
  -21.8356   -4.2868   24.0541 C   0  0  0  0  0  0  0  0  0  0  0  0
  -24.5076   -9.5477   20.3368 C   0  0  0  0  0  0  0  0  0  0  0  0
  -26.3132  -10.6133   18.8836 C   0  0  0  0  0  0  0  0  0  0  0  0
  -27.4622  -30.8390   26.9741 C   0  0  0  0  0  0  0  0  0  0  0  0
  -25.9136  -29.5406   20.6425 C   0  0  0  0  0  0  0  0  0  0  0  0
  -27.0139  -29.9605   25.9693 C   0  0  0  0  0  0  0  0  0  0  0  0
  -24.8083  -28.7549   20.2859 C   0  0  0  0  0  0  0  0  0  0  0  0
  -27.5617  -17.8454   16.7720 C   0  0  0  0  0  0  0  0  0  0  0  0
  -27.2865  -20.4577   17.7117 C   0  0  0  0  0  0  0  0  0  0  0  0
  -27.4912  -18.9072   15.8702 C   0  0  0  0  0  0  0  0  0  0  0  0
  -27.4946  -18.0897   18.1436 C   0  0  0  0  0  0  0  0  0  0  0  0
  -22.6033   -7.6008   20.9419 C   0  0  0  0  0  0  0  0  0  0  0  0
  -26.3076  -27.1176   19.2952 C   0  0  0  0  0  0  0  0  0  0  0  0
  -21.6525   -6.1506   22.5278 C   0  0  0  0  0  0  0  0  0  0  0  0
  -21.6102   -5.1457   25.1299 C   0  0  0  0  0  0  0  0  0  0  0  0
  -21.8567   -4.7893   22.7531 C   0  0  0  0  0  0  0  0  0  0  0  0
  -25.4905  -10.5538   20.0244 C   0  0  0  0  0  0  0  0  0  0  0  0
  -27.0632  -11.7503   19.0600 C   0  0  0  0  0  0  0  0  0  0  0  0
  -26.8581  -23.6008   18.8650 C   0  0  0  0  0  0  0  0  0  0  0  0
  -27.0626  -22.2645   19.4255 C   0  0  0  0  0  0  0  0  0  0  0  0
  -26.6665  -24.8086   19.3957 C   0  0  0  0  0  0  0  0  0  1  0  0
  -26.3922   -9.7206   17.7644 C   0  0  0  0  0  0  0  0  0  0  0  0
  -24.3974  -30.1557   23.3677 C   0  0  0  0  0  0  0  0  0  0  0  0
  -22.0404  -31.1583   21.3772 C   0  0  0  0  0  0  0  0  0  0  0  0
  -20.5915  -30.9994   18.2914 C   0  0  0  0  0  0  0  0  0  0  0  0
  -27.5138  -17.1185   20.4680 C   0  0  0  0  0  0  0  0  0  0  0  0
  -26.5071  -31.7137   27.7471 C   0  0  0  0  0  0  0  0  0  0  0  0
  -25.7177  -30.8596   21.3386 C   0  0  0  0  0  0  0  0  0  0  0  0
  -23.3988  -29.1757   20.6092 C   0  0  0  0  0  0  0  0  0  0  0  0
  -26.9571  -23.0050   17.4794 C   0  0  0  0  0  0  0  0  0  0  0  0
  -25.1507  -31.8832   27.0677 C   0  0  0  0  0  0  0  0  0  0  0  0
  -27.6182  -14.7346   23.1106 C   0  0  0  0  0  0  0  0  0  0  0  0
  -24.6202  -30.5349   26.5908 C   0  0  0  0  0  0  0  0  0  0  0  0
  -27.1417  -13.4393   22.4494 C   0  0  0  0  0  0  0  0  0  0  0  0
  -26.8754  -15.9546   22.5687 C   0  0  0  0  0  0  0  0  0  0  0  0
  -26.4113  -14.7948   20.4454 C   0  0  0  0  0  0  0  0  0  0  0  0
  -25.5597  -29.9080   25.5536 C   0  0  1  0  0  0  0  0  0  0  0  0
  -24.3933  -30.9474   22.0906 C   0  0  1  0  0  0  0  0  0  0  0  0
  -27.1762  -13.5455   20.9122 C   0  0  2  0  0  0  0  0  0  0  0  0
  -27.7100  -16.4434   16.2674 C   0  0  0  0  0  0  0  0  0  0  0  0
  -18.6555  -31.9034   16.9753 C   0  0  0  0  0  0  0  0  0  0  0  0
  -20.1525  -29.2846   22.8720 C   0  0  0  0  0  0  0  0  0  0  0  0
  -18.5405  -29.5036   20.9689 C   0  0  0  0  0  0  0  0  0  0  0  0
  -19.1741  -31.5145   22.3022 C   0  0  0  0  0  0  0  0  0  0  0  0
  -22.3831  -32.2586   16.3005 C   0  0  0  0  0  0  0  0  0  0  0  0
  -20.8561  -30.5040   20.7078 C   0  0  1  0  0  0  0  0  0  0  0  0
  -20.1197  -32.0868   17.3429 C   0  0  2  0  0  0  0  0  0  0  0  0
  -19.7073  -30.1925   21.7082 C   0  0  0  0  0  0  0  0  0  0  0  0
  -25.6983  -11.5719   20.8636 N   0  0  0  0  0  0  0  0  0  0  0  0
  -26.6602  -12.2818   20.2496 N   0  0  0  0  0  0  0  0  0  0  0  0
  -27.1514  -21.7455   18.1759 N   0  0  0  0  0  0  0  0  0  0  0  0
  -23.2595  -30.4705   21.2961 N   0  0  0  0  0  0  0  0  0  0  0  0
  -26.9545  -15.9916   21.1068 N   0  0  0  0  0  0  0  0  0  0  0  0
  -27.5571  -18.6807   14.4776 N   0  0  0  0  0  0  0  0  0  0  0  0
  -28.0216  -12.3372   18.3121 N   0  0  0  0  0  0  0  0  0  0  0  0
  -25.5499   -8.6006   17.7423 N   0  0  0  0  0  0  0  0  0  0  0  0
  -27.5657  -17.0265   19.0775 N   0  0  0  0  0  0  0  0  0  0  0  0
  -25.3789  -30.5366   24.2626 N   0  0  0  0  0  0  0  0  0  0  0  0
  -20.4701  -31.3839   19.6100 N   0  0  0  0  0  0  0  0  0  0  0  0
  -20.9252  -32.0658   16.0892 N   0  3  0  0  0  0  0  0  0  0  0  0
  -27.1173  -21.8010   20.5456 O   0  0  0  0  0  0  0  0  0  0  0  0
  -27.1978   -9.9017   16.8200 O   0  0  0  0  0  0  0  0  0  0  0  0
  -23.5702  -29.2662   23.5297 O   0  0  0  0  0  0  0  0  0  0  0  0
  -21.8911  -32.2433   21.9447 O   0  0  0  0  0  0  0  0  0  0  0  0
  -21.0210  -29.9158   17.9016 O   0  0  0  0  0  0  0  0  0  0  0  0
  -27.9418  -18.0818   21.1089 O   0  0  0  0  0  0  0  0  0  0  0  0
  -21.6740   -6.6511   21.2368 O   0  0  0  0  0  0  0  0  0  0  0  0
  -26.4956  -25.9373   18.6444 O   0  0  0  0  0  0  0  0  0  1  0  0
  -21.5913   -4.6635   26.3794 F   0  0  0  0  0  0  0  0  0  0  0  0
  -22.0748   -3.9595   21.7237 F   0  0  0  0  0  0  0  0  0  0  0  0
  1  2  1  0  0  0  0
  1  5  2  0  0  0  0
  2  6  2  0  0  0  0
  3  8  2  0  0  0  0
  3 17  1  0  0  0  0
  4  9  1  0  0  0  0
  4 17  2  0  0  0  0
  5 19  1  0  0  0  0
  6 21  1  0  0  0  0
  7 10  2  0  0  0  0
  7 20  1  0  0  0  0
  8 27  1  0  0  0  0
  9 27  2  0  0  0  0
 10 28  1  0  0  0  0
 11 12  2  0  0  0  0
 11 29  1  0  0  0  0
 12 30  1  0  0  0  0
 13 22  1  0  0  0  0
 13 28  2  0  0  0  0
 14 24  1  0  0  0  0
 14 25  2  0  0  0  0
 15 24  2  0  0  0  0
 15 26  1  0  0  0  0
 16 30  2  0  0  0  0
 16 31  1  0  0  0  0
 17 32  1  0  0  0  0
 18 32  1  0  0  0  0
 18 33  2  0  0  0  0
 18 37  1  0  0  0  0
 19 21  2  0  0  0  0
 19 42  1  0  0  0  0
 20 22  2  0  0  0  0
 20 43  1  0  0  0  0
 21 52  1  0  0  0  0
 22 44  1  0  0  0  0
 23 25  1  0  0  0  0
 23 26  2  0  0  0  0
 23 55  1  0  0  0  0
 24 66  1  0  0  0  0
 25 69  1  0  0  0  0
 26 72  1  0  0  0  0
 27 82  1  0  0  0  0
 28 83  1  0  0  0  0
 29 31  2  0  0  0  0
 29 82  1  0  0  0  0
 30 84  1  0  0  0  0
 31 85  1  0  0  0  0
 32 64  2  0  0  0  0
 33 65  1  0  0  0  0
 33 70  1  0  0  0  0
 34 35  1  0  0  0  0
 34 36  2  0  0  0  0
 34 45  1  0  0  0  0
 35 66  1  0  0  0  0
 35 76  2  0  0  0  0
 36 83  1  0  0  0  0
 37 71  1  0  0  0  0
 37 77  2  0  0  0  0
 38 53  1  0  0  0  0
 38 73  1  0  0  0  0
 38 78  2  0  0  0  0
 39 61  1  0  0  0  0
 39 67  1  0  0  0  0
 39 79  2  0  0  0  0
 40 62  1  0  0  0  0
 40 74  1  0  0  0  0
 40 80  2  0  0  0  0
 41 68  1  0  0  0  0
 41 72  1  0  0  0  0
 41 81  2  0  0  0  0
 42 46  1  0  0  0  0
 43 53  1  0  0  0  0
 44 67  1  0  0  0  0
 45 66  1  0  0  0  0
 46 48  1  0  0  0  0
 47 49  1  0  0  0  0
 47 50  1  0  0  0  0
 48 52  1  0  0  0  0
 49 54  1  0  0  0  0
 50 68  1  0  0  0  0
 51 54  1  0  0  0  0
 51 68  1  0  0  0  0
 52 73  1  0  0  0  0
 53 67  1  0  0  0  0
 54 65  1  0  0  0  0
 56 62  1  0  0  0  0
 57 63  1  0  0  0  0
 58 63  1  0  0  0  0
 59 63  1  0  0  0  0
 60 75  1  0  0  0  0
 61 63  1  0  0  0  0
 61 74  1  0  0  0  0
 62 75  1  0  0  0  0
 64 65  1  0  0  0  0
M  CHG  1  75   1
M  ISO  4  36 101  41 100  72 100  83 101
M  END
> <Batch ID>
0085

> <Smiles>
CNC(C)C(=O)NC(C(=O)N1Cc2cc([101O:1][101CH:1]=C3CN(c4cc(N)c(C)c([100NH:0][100C:0](=O)N5CCCC(n6nc(-c7ccc(Oc8ccc(F)cc8F)cc7)c(C(N)=O)c6N)C5)c4)C3=O)ccc2CC1C(=O)NC1CCCc2ccccc21)C(C)(C)C

> <Shape>
0.261

> <Color>
0.109

> <Negative vol penalty>
0.000

$$$$

  -OEChem-04052300153D

 88 97  0     1  0  0  0  0  0999 V2000
  -28.8114  -36.9830   20.8845 C   0  0  0  0  0  0  0  0  0  0  0  0
  -28.7082  -35.5981   20.9686 C   0  0  0  0  0  0  0  0  0  0  0  0
  -24.7431   -8.6890   21.6465 C   0  0  0  0  0  0  0  0  0  0  0  0
  -23.4416   -9.4822   19.7720 C   0  0  0  0  0  0  0  0  0  0  0  0
  -27.1251  -21.1498   19.3352 C   0  0  0  0  0  0  0  0  0  0  0  0
  -28.1726  -37.7870   21.8276 C   0  0  0  0  0  0  0  0  0  0  0  0
  -27.9671  -35.0165   21.9966 C   0  0  0  0  0  0  0  0  0  0  0  0
  -24.9772  -31.2722   20.3575 C   0  0  0  0  0  0  0  0  0  0  0  0
  -27.2364  -22.4366   19.8617 C   0  0  0  0  0  0  0  0  0  0  0  0
  -23.7034   -7.8312   22.0054 C   0  0  0  0  0  0  0  0  0  0  0  0
  -22.4019   -8.6243   20.1308 C   0  0  0  0  0  0  0  0  0  0  0  0
  -25.5797  -30.0406   20.1047 C   0  0  0  0  0  0  0  0  0  0  0  0
  -22.4860   -4.8388   21.0071 C   0  0  0  0  0  0  0  0  0  0  0  0
  -22.8160   -3.5267   21.3464 C   0  0  0  0  0  0  0  0  0  0  0  0
  -29.4869  -21.1537   18.8263 C   0  0  0  0  0  0  0  0  0  0  0  0
  -24.8020  -29.2290   22.2391 C   0  0  0  0  0  0  0  0  0  0  0  0
  -21.8660   -3.8558   23.5432 C   0  0  0  0  0  0  0  0  0  0  0  0
  -24.6121   -9.5146   20.5298 C   0  0  0  0  0  0  0  0  0  0  0  0
  -28.2504  -20.5083   18.8176 C   0  0  0  0  0  0  0  0  0  0  0  0
  -26.7600  -10.1203   19.2939 C   0  0  0  0  0  0  0  0  0  0  0  0
  -27.4152  -37.2151   22.8620 C   0  0  0  0  0  0  0  0  0  0  0  0
  -24.2907  -31.4954   21.5597 C   0  0  0  0  0  0  0  0  0  0  0  0
  -27.3186  -35.8135   22.9552 C   0  0  0  0  0  0  0  0  0  0  0  0
  -24.1895  -30.4635   22.5036 C   0  0  0  0  0  0  0  0  0  0  0  0
  -28.4729  -23.0821   19.8704 C   0  0  0  0  0  0  0  0  0  0  0  0
  -22.5329   -7.7987   21.2475 C   0  0  0  0  0  0  0  0  0  0  0  0
  -25.4946  -29.0197   21.0468 C   0  0  0  0  0  0  0  0  0  0  0  0
  -21.8460   -5.6594   21.9359 C   0  0  0  0  0  0  0  0  0  0  0  0
  -22.5060   -3.0352   22.6144 C   0  0  0  0  0  0  0  0  0  0  0  0
  -29.5982  -22.4406   19.3527 C   0  0  0  0  0  0  0  0  0  0  0  0
  -21.5359   -5.1679   23.2039 C   0  0  0  0  0  0  0  0  0  0  0  0
  -25.6855  -10.4014   20.1590 C   0  0  0  0  0  0  0  0  0  0  0  0
  -27.4959  -11.2798   19.2724 C   0  0  0  0  0  0  0  0  0  0  0  0
  -28.0503  -26.5050   21.0171 C   0  0  0  0  0  0  0  0  0  0  0  0
  -29.4400  -26.2605   21.4271 C   0  0  0  0  0  0  0  0  0  0  0  0
  -27.5145  -25.2936   20.3637 C   0  0  0  0  0  0  0  0  0  0  0  0
  -27.3768  -27.6400   21.2042 C   0  0  0  0  0  0  0  0  0  1  0  0
  -28.1334  -19.1447   18.2597 C   0  0  0  0  0  0  0  0  0  0  0  0
  -27.0654   -8.9186   18.5739 C   0  0  0  0  0  0  0  0  0  0  0  0
  -24.6482  -33.4879   24.0103 C   0  0  0  0  0  0  0  0  0  0  0  0
  -21.8330  -32.1932   24.9700 C   0  0  0  0  0  0  0  0  0  0  0  0
  -19.6660  -29.5594   24.8527 C   0  0  0  0  0  0  0  0  0  0  0  0
  -27.5267  -16.7770   18.7094 C   0  0  0  0  0  0  0  0  0  0  0  0
  -26.7817  -38.1237   23.8856 C   0  0  0  0  0  0  0  0  0  0  0  0
  -23.6235  -32.8208   21.8056 C   0  0  0  0  0  0  0  0  0  0  0  0
  -23.4466  -30.6456   23.8011 C   0  0  0  0  0  0  0  0  0  0  0  0
  -29.8160  -24.8630   21.0315 C   0  0  0  0  0  0  0  0  0  0  0  0
  -25.7065  -37.4389   24.7255 C   0  0  0  0  0  0  0  0  0  0  0  0
  -27.2579  -15.4066   22.1457 C   0  0  0  0  0  0  0  0  0  0  0  0
  -26.1976  -36.0811   25.2174 C   0  0  0  0  0  0  0  0  0  0  0  0
  -26.8349  -13.9722   21.8484 C   0  0  0  0  0  0  0  0  0  0  0  0
  -26.7303  -16.3922   21.1038 C   0  0  0  0  0  0  0  0  0  0  0  0
  -26.6688  -14.5784   19.4060 C   0  0  0  0  0  0  0  0  0  0  0  0
  -26.5033  -35.1458   24.0412 C   0  0  1  0  0  0  0  0  0  0  0  0
  -23.3885  -33.1060   23.2857 C   0  0  1  0  0  0  0  0  0  0  0  0
  -27.2412  -13.5786   20.4211 C   0  0  2  0  0  0  0  0  0  0  0  0
  -17.4662  -28.7759   25.7718 C   0  0  0  0  0  0  0  0  0  0  0  0
  -23.1727  -31.5717   27.6400 C   0  0  0  0  0  0  0  0  0  0  0  0
  -21.2951  -29.9913   28.1350 C   0  0  0  0  0  0  0  0  0  0  0  0
  -20.8278  -32.4217   27.8223 C   0  0  0  0  0  0  0  0  0  0  0  0
  -18.4638  -29.3978   22.1532 C   0  0  0  0  0  0  0  0  0  0  0  0
  -21.4346  -31.0081   25.8160 C   0  0  1  0  0  0  0  0  0  0  0  0
  -18.1654  -29.4988   24.6310 C   0  0  2  0  0  0  0  0  0  0  0  0
  -21.6983  -31.2451   27.3298 C   0  0  0  0  0  0  0  0  0  0  0  0
  -25.7311  -11.6420   20.6516 N   0  0  0  0  0  0  0  0  0  0  0  0
  -26.8432  -12.1508   20.0943 N   0  0  0  0  0  0  0  0  0  0  0  0
  -28.5806  -24.3672   20.3971 N   0  0  0  0  0  0  0  0  0  0  0  0
  -22.8165  -31.9615   23.9980 N   0  0  0  0  0  0  0  0  0  0  0  0
  -27.0336  -15.9613   19.7322 N   0  0  0  0  0  0  0  0  0  0  0  0
  -28.6313  -11.6291   18.6310 N   0  0  0  0  0  0  0  0  0  0  0  0
  -26.2037   -7.8216   18.7089 N   0  0  0  0  0  0  0  0  0  0  0  0
  -27.7044  -18.1665   19.0722 N   0  0  0  0  0  0  0  0  0  0  0  0
  -25.2776  -34.6046   23.4942 N   0  0  0  0  0  0  0  0  0  0  0  0
  -20.0415  -30.7234   25.4894 N   0  0  0  0  0  0  0  0  0  0  0  0
  -28.4680  -18.9706   16.9814 N   0  3  0  0  0  0  0  0  0  0  0  0
  -17.8580  -28.7813   23.3614 N   0  3  0  0  0  0  0  0  0  0  0  0
  -30.1662  -27.0591   21.9934 O   0  0  0  0  0  0  0  0  0  0  0  0
  -26.3918  -25.1623   19.9082 O   0  0  0  0  0  0  0  0  0  0  0  0
  -28.0815   -8.8152   17.8457 O   0  0  0  0  0  0  0  0  0  0  0  0
  -25.0206  -32.8200   24.9678 O   0  0  0  0  0  0  0  0  0  0  0  0
  -21.2865  -33.2827   25.1598 O   0  0  0  0  0  0  0  0  0  0  0  0
  -20.4283  -28.6622   24.4999 O   0  0  0  0  0  0  0  0  0  0  0  0
  -27.7786  -16.4133   17.5657 O   0  0  0  0  0  0  0  0  0  0  0  0
  -21.5183   -6.9616   21.5973 O   0  0  0  0  0  0  0  0  0  0  0  0
  -26.0824  -27.8168   20.8029 O   0  0  0  0  0  0  0  0  0  1  0  0
  -22.8216   -1.7747   22.9396 F   0  0  0  0  0  0  0  0  0  0  0  0
  -30.7914  -23.0520   19.3547 F   0  0  0  0  0  0  0  0  0  0  0  0
  -20.9201   -5.9512   24.1000 F   0  0  0  0  0  0  0  0  0  0  0  0
  1  2  1  0  0  0  0
  1  6  2  0  0  0  0
  2  7  2  0  0  0  0
  3 10  2  0  0  0  0
  3 18  1  0  0  0  0
  4 11  1  0  0  0  0
  4 18  2  0  0  0  0
  5  9  2  0  0  0  0
  5 19  1  0  0  0  0
  6 21  1  0  0  0  0
  7 23  1  0  0  0  0
  8 12  2  0  0  0  0
  8 22  1  0  0  0  0
  9 25  1  0  0  0  0
 10 26  1  0  0  0  0
 11 26  2  0  0  0  0
 12 27  1  0  0  0  0
 13 14  2  0  0  0  0
 13 28  1  0  0  0  0
 14 29  1  0  0  0  0
 15 19  2  0  0  0  0
 15 30  1  0  0  0  0
 16 24  1  0  0  0  0
 16 27  2  0  0  0  0
 17 29  2  0  0  0  0
 17 31  1  0  0  0  0
 18 32  1  0  0  0  0
 19 38  1  0  0  0  0
 20 32  1  0  0  0  0
 20 33  2  0  0  0  0
 20 39  1  0  0  0  0
 21 23  2  0  0  0  0
 21 44  1  0  0  0  0
 22 24  2  0  0  0  0
 22 45  1  0  0  0  0
 23 54  1  0  0  0  0
 24 46  1  0  0  0  0
 25 30  2  0  0  0  0
 25 67  1  0  0  0  0
 26 84  1  0  0  0  0
 27 85  1  0  0  0  0
 28 31  2  0  0  0  0
 28 84  1  0  0  0  0
 29 86  1  0  0  0  0
 30 87  1  0  0  0  0
 31 88  1  0  0  0  0
 32 65  2  0  0  0  0
 33 66  1  0  0  0  0
 33 70  1  0  0  0  0
 34 35  1  0  0  0  0
 34 36  1  0  0  0  0
 34 37  2  0  0  0  0
 35 47  1  0  0  0  0
 35 77  2  0  0  0  0
 36 67  1  0  0  0  0
 36 78  2  0  0  0  0
 37 85  1  0  0  0  0
 38 72  1  0  0  0  0
 38 75  2  0  0  0  0
 39 71  1  0  0  0  0
 39 79  2  0  0  0  0
 40 55  1  0  0  0  0
 40 73  1  0  0  0  0
 40 80  2  0  0  0  0
 41 62  1  0  0  0  0
 41 68  1  0  0  0  0
 41 81  2  0  0  0  0
 42 63  1  0  0  0  0
 42 74  1  0  0  0  0
 42 82  2  0  0  0  0
 43 69  1  0  0  0  0
 43 72  1  0  0  0  0
 43 83  2  0  0  0  0
 44 48  1  0  0  0  0
 45 55  1  0  0  0  0
 46 68  1  0  0  0  0
 47 67  1  0  0  0  0
 48 50  1  0  0  0  0
 49 51  1  0  0  0  0
 49 52  1  0  0  0  0
 50 54  1  0  0  0  0
 51 56  1  0  0  0  0
 52 69  1  0  0  0  0
 53 56  1  0  0  0  0
 53 69  1  0  0  0  0
 54 73  1  0  0  0  0
 55 68  1  0  0  0  0
 56 66  1  0  0  0  0
 57 63  1  0  0  0  0
 58 64  1  0  0  0  0
 59 64  1  0  0  0  0
 60 64  1  0  0  0  0
 61 76  1  0  0  0  0
 62 64  1  0  0  0  0
 62 74  1  0  0  0  0
 63 76  1  0  0  0  0
 65 66  1  0  0  0  0
M  CHG  2  75   1  76   1
M  ISO  4  37 101  43 100  72 100  85 101
M  END
> <Batch ID>
0085

> <Smiles>
CNC(C)C(=O)NC(C(=O)N1Cc2cc([101O:1][101CH:1]=C3C(=O)CN(c4ccc(C(=N)[100NH:0][100C:0](=O)N5CCCC(n6nc(-c7ccc(Oc8ccc(F)cc8F)cc7)c(C(N)=O)c6N)C5)cc4F)C3=O)ccc2CC1C(=O)NC1CCCc2ccccc21)C(C)(C)C

> <Shape>
0.297

> <Color>
0.069

> <Negative vol penalty>
0.000

$$$$

  -OEChem-04052300153D

 87 96  0     1  0  0  0  0  0999 V2000
  -22.6682  -18.1221   26.2333 C   0  0  0  0  0  0  0  0  0  0  0  0
  -23.4222  -18.7616   25.2546 C   0  0  0  0  0  0  0  0  0  0  0  0
  -26.5014  -12.4100   20.4919 C   0  0  0  0  0  0  0  0  0  0  0  0
  -25.2600  -13.9671   21.8599 C   0  0  0  0  0  0  0  0  0  0  0  0
  -21.3485  -18.5109   26.4599 C   0  0  0  0  0  0  0  0  0  0  0  0
  -22.8567  -19.7896   24.5011 C   0  0  0  0  0  0  0  0  0  0  0  0
  -25.9504  -23.7689   24.0127 C   0  0  0  0  0  0  0  0  0  0  0  0
  -30.9596  -21.5345   14.6838 C   0  0  0  0  0  0  0  0  0  0  0  0
  -30.5568  -20.9098   15.8641 C   0  0  0  0  0  0  0  0  0  0  0  0
  -25.3341  -11.6822   20.2609 C   0  0  0  0  0  0  0  0  0  0  0  0
  -24.0927  -13.2393   21.6290 C   0  0  0  0  0  0  0  0  0  0  0  0
  -26.9818  -23.6630   23.0807 C   0  0  0  0  0  0  0  0  0  0  0  0
  -23.4435   -9.4180   21.9111 C   0  0  0  0  0  0  0  0  0  0  0  0
  -23.5153   -8.0290   22.0156 C   0  0  0  0  0  0  0  0  0  0  0  0
  -25.6828  -24.9485   21.5061 C   0  0  0  0  0  0  0  0  0  0  0  0
  -31.4532  -23.5511   15.9194 C   0  0  0  0  0  0  0  0  0  0  0  0
  -22.8213   -7.8197   19.7109 C   0  0  0  0  0  0  0  0  0  0  0  0
  -26.4644  -13.5524   21.2914 C   0  0  0  0  0  0  0  0  0  0  0  0
  -28.8528  -13.8431   22.1392 C   0  0  0  0  0  0  0  0  0  0  0  0
  -20.7696  -19.5506   25.7154 C   0  0  0  0  0  0  0  0  0  0  0  0
  -24.7710  -24.4573   23.6940 C   0  0  0  0  0  0  0  0  0  0  0  0
  -21.5276  -20.1917   24.7170 C   0  0  0  0  0  0  0  0  0  0  0  0
  -24.6390  -25.0639   22.4367 C   0  0  0  0  0  0  0  0  0  0  0  0
  -31.0503  -22.9265   17.0997 C   0  0  0  0  0  0  0  0  0  0  0  0
  -31.4079  -22.8551   14.7114 C   0  0  0  0  0  0  0  0  0  0  0  0
  -30.6021  -21.6058   17.0721 C   0  0  0  0  0  0  0  0  0  0  0  0
  -24.1297  -12.0969   20.8294 C   0  0  0  0  0  0  0  0  0  0  0  0
  -26.8470  -24.2503   21.8261 C   0  0  0  0  0  0  0  0  0  0  0  0
  -23.0605  -10.0079   20.7065 C   0  0  0  0  0  0  0  0  0  0  0  0
  -23.2042   -7.2298   20.9156 C   0  0  0  0  0  0  0  0  0  0  0  0
  -22.7494   -9.2088   19.6064 C   0  0  0  0  0  0  0  0  0  0  0  0
  -27.6700  -14.3043   21.5308 C   0  0  0  0  0  0  0  0  0  0  0  0
  -29.6909  -14.9312   22.1292 C   0  0  0  0  0  0  0  0  0  0  0  0
  -30.1384  -24.6153   20.4225 C   0  0  0  0  0  0  0  0  0  0  0  0
  -31.4368  -25.1625   20.7797 C   0  0  0  0  0  0  0  0  0  0  0  0
  -29.9432  -23.8978   19.1047 C   0  0  0  0  0  0  0  0  0  0  0  0
  -31.6194  -26.2682   21.5193 C   0  0  0  0  0  0  0  0  0  0  0  0
  -29.0750  -24.6605   21.2444 C   0  0  0  0  0  0  0  0  0  1  0  0
  -29.1660  -12.5469   22.6661 C   0  0  0  0  0  0  0  0  0  0  0  0
  -21.7031  -23.6605   23.4560 C   0  0  0  0  0  0  0  0  0  0  0  0
  -21.3097  -26.8516   23.0271 C   0  0  0  0  0  0  0  0  0  0  0  0
  -22.6651  -29.8359   22.0763 C   0  0  0  0  0  0  0  0  0  0  0  0
  -29.7169  -19.6404   18.3904 C   0  0  0  0  0  0  0  0  0  0  0  0
  -19.3245  -19.9040   25.9638 C   0  0  0  0  0  0  0  0  0  0  0  0
  -23.6786  -24.5855   24.7200 C   0  0  0  0  0  0  0  0  0  0  0  0
  -23.4013  -25.8313   22.0525 C   0  0  0  0  0  0  0  0  0  0  0  0
  -32.5892  -24.4113   20.1944 C   0  0  0  0  0  0  0  0  0  0  0  0
  -18.9184  -21.2541   25.3787 C   0  0  0  0  0  0  0  0  0  0  0  0
  -28.7684  -19.6813   22.1083 C   0  0  0  0  0  0  0  0  0  0  0  0
  -19.4259  -21.3898   23.9466 C   0  0  0  0  0  0  0  0  0  0  0  0
  -29.2095  -18.2724   22.4980 C   0  0  0  0  0  0  0  0  0  0  0  0
  -32.3913  -24.2948   18.6929 C   0  0  0  0  0  0  0  0  0  0  0  0
  -29.4938  -20.1917   20.8697 C   0  0  0  0  0  0  0  0  0  0  0  0
  -28.8596  -17.9384   19.9887 C   0  0  0  0  0  0  0  0  0  0  0  0
  -20.9573  -21.3278   23.8959 C   0  0  1  0  0  0  0  0  0  0  0  0
  -22.3119  -24.8711   24.1052 C   0  0  1  0  0  0  0  0  0  0  0  0
  -29.4561  -17.3590   21.2809 C   0  0  2  0  0  0  0  0  0  0  0  0
  -22.0876  -32.2620   21.7972 C   0  0  0  0  0  0  0  0  0  0  0  0
  -19.7945  -26.1933   20.4618 C   0  0  0  0  0  0  0  0  0  0  0  0
  -20.0783  -28.5809   19.7640 C   0  0  0  0  0  0  0  0  0  0  0  0
  -18.7869  -28.0311   21.8262 C   0  0  0  0  0  0  0  0  0  0  0  0
  -24.6966  -30.6674   24.0614 C   0  0  0  0  0  0  0  0  0  0  0  0
  -21.3023  -27.7771   21.8344 C   0  0  1  0  0  0  0  0  0  0  0  0
  -22.6501  -31.2041   22.7338 C   0  0  2  0  0  0  0  0  0  0  0  0
  -20.0131  -27.6296   20.9778 C   0  0  0  0  0  0  0  0  0  0  0  0
  -27.7459  -15.5856   21.1615 N   0  0  0  0  0  0  0  0  0  0  0  0
  -28.9864  -15.9389   21.5389 N   0  0  0  0  0  0  0  0  0  0  0  0
  -31.1054  -23.6695   18.3393 N   0  0  0  0  0  0  0  0  0  0  0  0
  -22.3586  -25.9231   23.0878 N   0  0  0  0  0  0  0  0  0  0  0  0
  -29.3816  -19.2832   19.7194 N   0  0  0  0  0  0  0  0  0  0  0  0
  -31.8148  -23.4866   13.5178 N   0  0  0  0  0  0  0  0  0  0  0  0
  -30.9542  -15.1148   22.5681 N   0  0  0  0  0  0  0  0  0  0  0  0
  -28.8793  -12.2861   24.0129 N   0  0  0  0  0  0  0  0  0  0  0  0
  -30.1872  -20.9496   18.2579 N   0  0  0  0  0  0  0  0  0  0  0  0
  -21.5283  -22.5906   24.3129 N   0  0  0  0  0  0  0  0  0  0  0  0
  -21.5206  -29.1208   22.3590 N   0  0  0  0  0  0  0  0  0  0  0  0
  -24.0312  -31.6071   23.1227 N   0  3  0  0  0  0  0  0  0  0  0  0
  -28.8029  -23.5833   18.7584 O   0  0  0  0  0  0  0  0  0  0  0  0
  -29.6998  -11.6521   21.9676 O   0  0  0  0  0  0  0  0  0  0  0  0
  -21.4120  -23.6950   22.2662 O   0  0  0  0  0  0  0  0  0  0  0  0
  -20.4218  -26.9537   23.8772 O   0  0  0  0  0  0  0  0  0  0  0  0
  -23.5972  -29.4424   21.3784 O   0  0  0  0  0  0  0  0  0  0  0  0
  -29.6057  -18.8424   17.4574 O   0  0  0  0  0  0  0  0  0  0  0  0
  -22.9904  -11.3872   20.6041 O   0  0  0  0  0  0  0  0  0  0  0  0
  -27.8519  -24.1478   20.9143 O   0  0  0  0  0  0  0  0  0  1  0  0
  -23.2747   -5.8959   21.0156 F   0  0  0  0  0  0  0  0  0  0  0  0
  -22.3820   -9.7698   18.4462 F   0  0  0  0  0  0  0  0  0  0  0  0
  1  2  1  0  0  0  0
  1  5  2  0  0  0  0
  2  6  2  0  0  0  0
  3 10  2  0  0  0  0
  3 18  1  0  0  0  0
  4 11  1  0  0  0  0
  4 18  2  0  0  0  0
  5 20  1  0  0  0  0
  6 22  1  0  0  0  0
  7 12  2  0  0  0  0
  7 21  1  0  0  0  0
  8  9  2  0  0  0  0
  8 25  1  0  0  0  0
  9 26  1  0  0  0  0
 10 27  1  0  0  0  0
 11 27  2  0  0  0  0
 12 28  1  0  0  0  0
 13 14  2  0  0  0  0
 13 29  1  0  0  0  0
 14 30  1  0  0  0  0
 15 23  1  0  0  0  0
 15 28  2  0  0  0  0
 16 24  1  0  0  0  0
 16 25  2  0  0  0  0
 17 30  2  0  0  0  0
 17 31  1  0  0  0  0
 18 32  1  0  0  0  0
 19 32  1  0  0  0  0
 19 33  2  0  0  0  0
 19 39  1  0  0  0  0
 20 22  2  0  0  0  0
 20 44  1  0  0  0  0
 21 23  2  0  0  0  0
 21 45  1  0  0  0  0
 22 55  1  0  0  0  0
 23 46  1  0  0  0  0
 24 26  2  0  0  0  0
 24 68  1  0  0  0  0
 25 71  1  0  0  0  0
 26 74  1  0  0  0  0
 27 84  1  0  0  0  0
 28 85  1  0  0  0  0
 29 31  2  0  0  0  0
 29 84  1  0  0  0  0
 30 86  1  0  0  0  0
 31 87  1  0  0  0  0
 32 66  2  0  0  0  0
 33 67  1  0  0  0  0
 33 72  1  0  0  0  0
 34 35  1  0  0  0  0
 34 36  1  0  0  0  0
 34 38  2  0  0  0  0
 35 37  2  0  0  0  0
 35 47  1  0  0  0  0
 36 68  1  0  0  0  0
 36 78  2  0  0  0  0
 38 85  1  0  0  0  0
 39 73  1  0  0  0  0
 39 79  2  0  0  0  0
 40 56  1  0  0  0  0
 40 75  1  0  0  0  0
 40 80  2  0  0  0  0
 41 63  1  0  0  0  0
 41 69  1  0  0  0  0
 41 81  2  0  0  0  0
 42 64  1  0  0  0  0
 42 76  1  0  0  0  0
 42 82  2  0  0  0  0
 43 70  1  0  0  0  0
 43 74  1  0  0  0  0
 43 83  2  0  0  0  0
 44 48  1  0  0  0  0
 45 56  1  0  0  0  0
 46 69  1  0  0  0  0
 47 52  1  0  0  0  0
 48 50  1  0  0  0  0
 49 51  1  0  0  0  0
 49 53  1  0  0  0  0
 50 55  1  0  0  0  0
 51 57  1  0  0  0  0
 52 68  1  0  0  0  0
 53 70  1  0  0  0  0
 54 57  1  0  0  0  0
 54 70  1  0  0  0  0
 55 75  1  0  0  0  0
 56 69  1  0  0  0  0
 57 67  1  0  0  0  0
 58 64  1  0  0  0  0
 59 65  1  0  0  0  0
 60 65  1  0  0  0  0
 61 65  1  0  0  0  0
 62 77  1  0  0  0  0
 63 65  1  0  0  0  0
 63 76  1  0  0  0  0
 64 77  1  0  0  0  0
 66 67  1  0  0  0  0
M  CHG  1  77   1
M  ISO  4  38 101  43 100  74 100  85 101
M  END
> <Batch ID>
0085

> <Smiles>
C=C1CCN(c2cc(N)ccc2[100NH:0][100C:0](=O)N2CCCC(n3nc(-c4ccc(Oc5ccc(F)cc5F)cc4)c(C(N)=O)c3N)C2)C(=O)C1=[101CH:1][101O:1]c1ccc2c(c1)CN(C(=O)C(NC(=O)C(C)NC)C(C)(C)C)C(C(=O)NC1CCCc3ccccc31)C2

> <Shape>
0.227

> <Color>
0.056

> <Negative vol penalty>
0.000

$$$$

  -OEChem-04052300153D

 87 96  0     1  0  0  0  0  0999 V2000
  -26.3743  -36.1866   16.4152 C   0  0  0  0  0  0  0  0  0  0  0  0
  -26.5911  -34.8128   16.3820 C   0  0  0  0  0  0  0  0  0  0  0  0
  -24.0357   -9.1059   20.3296 C   0  0  0  0  0  0  0  0  0  0  0  0
  -22.9813  -11.0607   21.2804 C   0  0  0  0  0  0  0  0  0  0  0  0
  -26.3753  -36.8621   17.6348 C   0  0  0  0  0  0  0  0  0  0  0  0
  -26.8102  -34.1139   17.5686 C   0  0  0  0  0  0  0  0  0  0  0  0
  -25.0223  -28.4005   18.8596 C   0  0  0  0  0  0  0  0  0  0  0  0
  -23.0184   -8.3049   20.8480 C   0  0  0  0  0  0  0  0  0  0  0  0
  -21.9639  -10.2597   21.7989 C   0  0  0  0  0  0  0  0  0  0  0  0
  -25.6909  -27.1776   18.8231 C   0  0  0  0  0  0  0  0  0  0  0  0
  -19.8248   -7.5168   20.0651 C   0  0  0  0  0  0  0  0  0  0  0  0
  -19.2716   -6.5484   19.2274 C   0  0  0  0  0  0  0  0  0  0  0  0
  -26.1588  -27.3700   21.1818 C   0  0  0  0  0  0  0  0  0  0  0  0
  -28.7024  -18.6383   19.1137 C   0  0  0  0  0  0  0  0  0  0  0  0
  -30.2978  -18.7729   20.9228 C   0  0  0  0  0  0  0  0  0  0  0  0
  -19.9513   -4.8218   20.7746 C   0  0  0  0  0  0  0  0  0  0  0  0
  -24.0173  -10.4839   20.5458 C   0  0  0  0  0  0  0  0  0  0  0  0
  -25.0976  -11.9404   18.7517 C   0  0  0  0  0  0  0  0  0  0  0  0
  -26.5850  -36.1696   18.8378 C   0  0  0  0  0  0  0  0  0  0  0  0
  -24.9262  -29.1238   20.0571 C   0  0  0  0  0  0  0  0  0  0  0  0
  -26.8154  -34.7810   18.8054 C   0  0  0  0  0  0  0  0  0  0  0  0
  -25.4863  -28.6006   21.2313 C   0  0  0  0  0  0  0  0  0  0  0  0
  -29.5677  -20.7858   19.8038 C   0  0  0  0  0  0  0  0  0  0  0  0
  -29.4776  -18.0122   20.0897 C   0  0  0  0  0  0  0  0  0  0  0  0
  -28.7475  -20.0251   18.9707 C   0  0  0  0  0  0  0  0  0  0  0  0
  -21.9824   -8.8817   21.5827 C   0  0  0  0  0  0  0  0  0  0  0  0
  -26.2618  -26.6636   19.9837 C   0  0  0  0  0  0  0  0  0  0  0  0
  -20.4413   -7.1377   21.2576 C   0  0  0  0  0  0  0  0  0  0  0  0
  -19.3349   -5.2009   19.5821 C   0  0  0  0  0  0  0  0  0  0  0  0
  -30.3429  -20.1598   20.7799 C   0  0  0  0  0  0  0  0  0  0  0  0
  -20.5045   -5.7902   21.6123 C   0  0  0  0  0  0  0  0  0  0  0  0
  -25.0683  -11.3118   20.0110 C   0  0  0  0  0  0  0  0  0  0  0  0
  -26.3007  -12.6027   18.7265 C   0  0  0  0  0  0  0  0  0  0  0  0
  -28.9946  -24.3704   19.6243 C   0  0  0  0  0  0  0  0  0  0  0  0
  -30.4352  -24.3203   19.3394 C   0  0  0  0  0  0  0  0  0  0  0  0
  -28.4919  -22.9982   19.8382 C   0  0  0  0  0  0  0  0  0  0  0  0
  -28.2553  -25.4781   19.6814 C   0  0  0  0  0  0  0  0  0  1  0  0
  -24.1245  -11.9271   17.6989 C   0  0  0  0  0  0  0  0  0  0  0  0
  -25.9240  -31.9770   21.0406 C   0  0  0  0  0  0  0  0  0  0  0  0
  -24.1985  -31.2362   23.6856 C   0  0  0  0  0  0  0  0  0  0  0  0
  -22.8298  -28.8196   25.6690 C   0  0  0  0  0  0  0  0  0  0  0  0
  -30.1381  -15.8260   21.1529 C   0  0  0  0  0  0  0  0  0  0  0  0
  -26.6242  -36.9503   20.1276 C   0  0  0  0  0  0  0  0  0  0  0  0
  -24.1786  -30.4286   20.0855 C   0  0  0  0  0  0  0  0  0  0  0  0
  -25.3935  -29.3282   22.5468 C   0  0  0  0  0  0  0  0  0  0  0  0
  -30.8782  -22.8872   19.3674 C   0  0  0  0  0  0  0  0  0  0  0  0
  -26.4916  -36.0770   21.3725 C   0  0  0  0  0  0  0  0  0  0  0  0
  -30.2727  -12.3376   21.8530 C   0  0  0  0  0  0  0  0  0  0  0  0
  -27.4087  -34.8621   21.2726 C   0  0  0  0  0  0  0  0  0  0  0  0
  -28.9331  -11.8115   21.3326 C   0  0  0  0  0  0  0  0  0  0  0  0
  -30.1329  -13.7243   22.4787 C   0  0  0  0  0  0  0  0  0  0  0  0
  -28.1444  -14.2017   21.1049 C   0  0  0  0  0  0  0  0  0  0  0  0
  -27.0321  -33.9838   20.0733 C   0  0  1  0  0  0  0  0  0  0  0  0
  -24.5863  -31.3256   21.2502 C   0  0  1  0  0  0  0  0  0  0  0  0
  -28.2465  -12.8354   20.4075 C   0  0  2  0  0  0  0  0  0  0  0  0
  -21.5098  -28.5196   27.7820 C   0  0  0  0  0  0  0  0  0  0  0  0
  -26.7015  -31.8214   25.3295 C   0  0  0  0  0  0  0  0  0  0  0  0
  -25.6371  -30.6180   27.2497 C   0  0  0  0  0  0  0  0  0  0  0  0
  -24.5742  -32.6777   26.3275 C   0  0  0  0  0  0  0  0  0  0  0  0
  -20.5989  -27.5145   24.2273 C   0  0  0  0  0  0  0  0  0  0  0  0
  -24.4895  -30.5339   24.9899 C   0  0  1  0  0  0  0  0  0  0  0  0
  -21.4436  -28.6761   26.2708 C   0  0  2  0  0  0  0  0  0  0  0  0
  -25.3542  -31.3997   25.9491 C   0  0  0  0  0  0  0  0  0  0  0  0
  -26.1655  -11.5529   20.7334 N   0  0  0  0  0  0  0  0  0  0  0  0
  -26.8957  -12.3403   19.9254 N   0  0  0  0  0  0  0  0  0  0  0  0
  -29.6267  -22.1719   19.6779 N   0  0  0  0  0  0  0  0  0  0  0  0
  -24.6578  -30.6032   22.5219 N   0  0  0  0  0  0  0  0  0  0  0  0
  -29.4781  -14.6417   21.5435 N   0  0  0  0  0  0  0  0  0  0  0  0
  -27.9540  -20.6387   17.9752 N   0  0  0  0  0  0  0  0  0  0  0  0
  -26.8970  -13.3779   17.7960 N   0  0  0  0  0  0  0  0  0  0  0  0
  -22.9437  -11.1964   17.8897 N   0  0  0  0  0  0  0  0  0  0  0  0
  -29.4324  -16.6035   20.2353 N   0  0  0  0  0  0  0  0  0  0  0  0
  -25.8624  -33.1877   20.3774 N   0  0  0  0  0  0  0  0  0  0  0  0
  -23.1963  -30.1427   25.5402 N   0  0  0  0  0  0  0  0  0  0  0  0
  -20.7540  -27.4825   25.7044 N   0  3  0  0  0  0  0  0  0  0  0  0
  -31.1509  -25.2817   19.1172 O   0  0  0  0  0  0  0  0  0  0  0  0
  -27.3416  -22.6884   20.0949 O   0  0  0  0  0  0  0  0  0  0  0  0
  -24.3040  -12.5313   16.6144 O   0  0  0  0  0  0  0  0  0  0  0  0
  -26.9368  -31.4230   21.4515 O   0  0  0  0  0  0  0  0  0  0  0  0
  -23.5800  -32.3034   23.6983 O   0  0  0  0  0  0  0  0  0  0  0  0
  -23.5202  -27.8545   25.3489 O   0  0  0  0  0  0  0  0  0  0  0  0
  -31.2595  -16.1147   21.5786 O   0  0  0  0  0  0  0  0  0  0  0  0
  -20.9893   -8.1004   22.0886 O   0  0  0  0  0  0  0  0  0  0  0  0
  -26.9155  -25.4705   19.9508 O   0  0  0  0  0  0  0  0  0  1  0  0
  -18.8022   -4.2712   18.7783 F   0  0  0  0  0  0  0  0  0  0  0  0
  -31.1351  -20.8802   21.5868 F   0  0  0  0  0  0  0  0  0  0  0  0
  -21.0945   -5.4200   22.7572 F   0  0  0  0  0  0  0  0  0  0  0  0
  1  2  1  0  0  0  0
  1  5  2  0  0  0  0
  2  6  2  0  0  0  0
  3  8  2  0  0  0  0
  3 17  1  0  0  0  0
  4  9  1  0  0  0  0
  4 17  2  0  0  0  0
  5 19  1  0  0  0  0
  6 21  1  0  0  0  0
  7 10  2  0  0  0  0
  7 20  1  0  0  0  0
  8 26  1  0  0  0  0
  9 26  2  0  0  0  0
 10 27  1  0  0  0  0
 11 12  2  0  0  0  0
 11 28  1  0  0  0  0
 12 29  1  0  0  0  0
 13 22  1  0  0  0  0
 13 27  2  0  0  0  0
 14 24  1  0  0  0  0
 14 25  2  0  0  0  0
 15 24  2  0  0  0  0
 15 30  1  0  0  0  0
 16 29  2  0  0  0  0
 16 31  1  0  0  0  0
 17 32  1  0  0  0  0
 18 32  1  0  0  0  0
 18 33  2  0  0  0  0
 18 38  1  0  0  0  0
 19 21  2  0  0  0  0
 19 43  1  0  0  0  0
 20 22  2  0  0  0  0
 20 44  1  0  0  0  0
 21 53  1  0  0  0  0
 22 45  1  0  0  0  0
 23 25  1  0  0  0  0
 23 30  2  0  0  0  0
 23 66  1  0  0  0  0
 24 72  1  0  0  0  0
 25 69  1  0  0  0  0
 26 83  1  0  0  0  0
 27 84  1  0  0  0  0
 28 31  2  0  0  0  0
 28 83  1  0  0  0  0
 29 85  1  0  0  0  0
 30 86  1  0  0  0  0
 31 87  1  0  0  0  0
 32 64  2  0  0  0  0
 33 65  1  0  0  0  0
 33 70  1  0  0  0  0
 34 35  1  0  0  0  0
 34 36  1  0  0  0  0
 34 37  2  0  0  0  0
 35 46  1  0  0  0  0
 35 76  2  0  0  0  0
 36 66  1  0  0  0  0
 36 77  2  0  0  0  0
 37 84  1  0  0  0  0
 38 71  1  0  0  0  0
 38 78  2  0  0  0  0
 39 54  1  0  0  0  0
 39 73  1  0  0  0  0
 39 79  2  0  0  0  0
 40 61  1  0  0  0  0
 40 67  1  0  0  0  0
 40 80  2  0  0  0  0
 41 62  1  0  0  0  0
 41 74  1  0  0  0  0
 41 81  2  0  0  0  0
 42 68  1  0  0  0  0
 42 72  1  0  0  0  0
 42 82  2  0  0  0  0
 43 47  1  0  0  0  0
 44 54  1  0  0  0  0
 45 67  1  0  0  0  0
 46 66  1  0  0  0  0
 47 49  1  0  0  0  0
 48 50  1  0  0  0  0
 48 51  1  0  0  0  0
 49 53  1  0  0  0  0
 50 55  1  0  0  0  0
 51 68  1  0  0  0  0
 52 55  1  0  0  0  0
 52 68  1  0  0  0  0
 53 73  1  0  0  0  0
 54 67  1  0  0  0  0
 55 65  1  0  0  0  0
 56 62  1  0  0  0  0
 57 63  1  0  0  0  0
 58 63  1  0  0  0  0
 59 63  1  0  0  0  0
 60 75  1  0  0  0  0
 61 63  1  0  0  0  0
 61 74  1  0  0  0  0
 62 75  1  0  0  0  0
 64 65  1  0  0  0  0
M  CHG  1  75   1
M  ISO  4  37 101  42 100  72 100  84 101
M  END
> <Batch ID>
0085

> <Smiles>
CNC(C)C(=O)NC(C(=O)N1Cc2cc([101O:1][101CH:1]=C3C(=O)CN(c4c(N)cc([100NH:0][100C:0](=O)N5CCCC(n6nc(-c7ccc(Oc8ccc(F)cc8F)cc7)c(C(N)=O)c6N)C5)cc4F)C3=O)ccc2CC1C(=O)NC1CCCc2ccccc21)C(C)(C)C

> <Shape>
0.290

> <Color>
0.102

> <Negative vol penalty>
0.000

$$$$

  -OEChem-04052300153D

 87 96  0     1  0  0  0  0  0999 V2000
  -18.4506  -24.2476   22.9590 C   0  0  0  0  0  0  0  0  0  0  0  0
  -19.7137  -24.2164   22.3767 C   0  0  0  0  0  0  0  0  0  0  0  0
  -24.7250  -15.6893   21.4620 C   0  0  0  0  0  0  0  0  0  0  0  0
  -25.3194  -14.4358   19.4840 C   0  0  0  0  0  0  0  0  0  0  0  0
  -17.8051  -25.4675   23.1562 C   0  0  0  0  0  0  0  0  0  0  0  0
  -20.3316  -25.4053   21.9903 C   0  0  0  0  0  0  0  0  0  0  0  0
  -25.2049  -25.5944   23.3540 C   0  0  0  0  0  0  0  0  0  0  0  0
  -32.5409  -21.4426   17.8595 C   0  0  0  0  0  0  0  0  0  0  0  0
  -32.7643  -20.4210   16.9366 C   0  0  0  0  0  0  0  0  0  0  0  0
  -23.8443  -14.6757   21.8397 C   0  0  0  0  0  0  0  0  0  0  0  0
  -24.4387  -13.4222   19.8617 C   0  0  0  0  0  0  0  0  0  0  0  0
  -26.1124  -24.8780   22.5749 C   0  0  0  0  0  0  0  0  0  0  0  0
  -24.4061  -10.8351   22.0357 C   0  0  0  0  0  0  0  0  0  0  0  0
  -24.8559   -9.5184   21.9387 C   0  0  0  0  0  0  0  0  0  0  0  0
  -30.3315  -21.7862   16.9443 C   0  0  0  0  0  0  0  0  0  0  0  0
  -26.7342  -26.9130   21.4386 C   0  0  0  0  0  0  0  0  0  0  0  0
  -23.0674   -9.0214   20.3923 C   0  0  0  0  0  0  0  0  0  0  0  0
  -25.4625  -15.5694   20.2841 C   0  0  0  0  0  0  0  0  0  0  0  0
  -30.5549  -20.7645   16.0213 C   0  0  0  0  0  0  0  0  0  0  0  0
  -27.7340  -16.7291   20.2308 C   0  0  0  0  0  0  0  0  0  0  0  0
  -18.4194  -26.6727   22.7808 C   0  0  0  0  0  0  0  0  0  0  0  0
  -25.0471  -26.9761   23.1735 C   0  0  0  0  0  0  0  0  0  0  0  0
  -19.6931  -26.6424   22.1814 C   0  0  0  0  0  0  0  0  0  0  0  0
  -25.8259  -27.6451   22.2185 C   0  0  0  0  0  0  0  0  0  0  0  0
  -31.3244  -22.1252   17.8634 C   0  0  0  0  0  0  0  0  0  0  0  0
  -31.7714  -20.0819   16.0174 C   0  0  0  0  0  0  0  0  0  0  0  0
  -23.7011  -13.5422   21.0396 C   0  0  0  0  0  0  0  0  0  0  0  0
  -26.8751  -25.5367   21.6151 C   0  0  0  0  0  0  0  0  0  0  0  0
  -23.2869  -11.2450   21.3111 C   0  0  0  0  0  0  0  0  0  0  0  0
  -24.1866   -8.6115   21.1170 C   0  0  0  0  0  0  0  0  0  0  0  0
  -22.6176  -10.3382   20.4893 C   0  0  0  0  0  0  0  0  0  0  0  0
  -26.3720  -16.6163   19.8932 C   0  0  0  0  0  0  0  0  0  0  0  0
  -28.1447  -17.8880   19.6187 C   0  0  0  0  0  0  0  0  0  0  0  0
  -30.0337  -24.5766   20.2159 C   0  0  0  0  0  0  0  0  0  0  0  0
  -31.4642  -24.9107   20.2471 C   0  0  0  0  0  0  0  0  0  0  0  0
  -29.8159  -23.4523   19.2833 C   0  0  0  0  0  0  0  0  0  0  0  0
  -29.0806  -25.1898   20.9178 C   0  0  0  0  0  0  0  0  0  1  0  0
  -29.4971  -20.4333   15.0746 C   0  0  0  0  0  0  0  0  0  0  0  0
  -28.5547  -15.8635   21.0264 C   0  0  0  0  0  0  0  0  0  0  0  0
  -28.2057  -21.1581   15.0806 C   0  0  0  0  0  0  0  0  0  0  0  0
  -22.6426  -28.8646   22.3044 C   0  0  0  0  0  0  0  0  0  0  0  0
  -24.7476  -31.2242   23.0280 C   0  0  0  0  0  0  0  0  0  0  0  0
  -27.9989  -32.1931   23.3983 C   0  0  0  0  0  0  0  0  0  0  0  0
  -17.6625  -27.9633   22.9707 C   0  0  0  0  0  0  0  0  0  0  0  0
  -24.0833  -27.7389   24.0403 C   0  0  0  0  0  0  0  0  0  0  0  0
  -25.7089  -29.1306   21.9994 C   0  0  0  0  0  0  0  0  0  0  0  0
  -32.1912  -23.9864   19.3155 C   0  0  0  0  0  0  0  0  0  0  0  0
  -18.5440  -29.2060   22.8760 C   0  0  0  0  0  0  0  0  0  0  0  0
  -25.4957  -21.5663   17.3928 C   0  0  0  0  0  0  0  0  0  0  0  0
  -19.4636  -29.1170   21.6623 C   0  0  0  0  0  0  0  0  0  0  0  0
  -25.5712  -20.3043   18.2516 C   0  0  0  0  0  0  0  0  0  0  0  0
  -25.9044  -21.2853   15.9504 C   0  0  0  0  0  0  0  0  0  0  0  0
  -27.3381  -19.3970   16.6766 C   0  0  0  0  0  0  0  0  0  0  0  0
  -20.4064  -27.9126   21.7716 C   0  0  1  0  0  0  0  0  0  0  0  0
  -23.6337  -29.0569   23.4173 C   0  0  1  0  0  0  0  0  0  0  0  0
  -26.9590  -19.6473   18.1467 C   0  0  2  0  0  0  0  0  0  0  0  0
  -29.4066  -34.1933   23.9593 C   0  0  0  0  0  0  0  0  0  0  0  0
  -24.2408  -32.3594   20.2415 C   0  0  0  0  0  0  0  0  0  0  0  0
  -26.3140  -33.7385   20.5023 C   0  0  0  0  0  0  0  0  0  0  0  0
  -24.3910  -34.0746   22.0553 C   0  0  0  0  0  0  0  0  0  0  0  0
  -29.1560  -30.8578   25.7725 C   0  0  0  0  0  0  0  0  0  0  0  0
  -25.8023  -31.9873   22.2637 C   0  0  1  0  0  0  0  0  0  0  0  0
  -28.7016  -32.9606   24.5035 C   0  0  2  0  0  0  0  0  0  0  0  0
  -25.1881  -33.0117   21.2683 C   0  0  0  0  0  0  0  0  0  0  0  0
  -25.9458  -17.6233   19.1263 N   0  0  0  0  0  0  0  0  0  0  0  0
  -29.6128  -19.4969   14.1746 N   0  0  0  0  0  0  0  0  0  0  0  0
  -27.0463  -18.3800   18.9770 N   0  0  0  0  0  0  0  0  0  0  0  0
  -31.1020  -23.1454   18.7855 N   0  0  0  0  0  0  0  0  0  0  0  0
  -27.2090  -20.6294   15.8889 N   0  0  0  0  0  0  0  0  0  0  0  0
  -24.7482  -29.8314   22.8674 N   0  0  0  0  0  0  0  0  0  0  0  0
  -32.0181  -19.0446   15.0906 N   0  0  0  0  0  0  0  0  0  0  0  0
  -29.3344  -18.5242   19.5722 N   0  0  0  0  0  0  0  0  0  0  0  0
  -27.9734  -14.7149   21.5805 N   0  0  0  0  0  0  0  0  0  0  0  0
  -21.4915  -28.2013   22.6846 N   0  0  0  0  0  0  0  0  0  0  0  0
  -26.6824  -32.5808   23.2646 N   0  0  0  0  0  0  0  0  0  0  0  0
  -29.7152  -32.0958   25.1711 N   0  3  0  0  0  0  0  0  0  0  0  0
  -31.9753  -25.7915   20.9171 O   0  0  0  0  0  0  0  0  0  0  0  0
  -28.7444  -22.9315   19.0267 O   0  0  0  0  0  0  0  0  0  0  0  0
  -29.7635  -16.1103   21.2533 O   0  0  0  0  0  0  0  0  0  0  0  0
  -28.1552  -22.1515   14.3672 O   0  0  0  0  0  0  0  0  0  0  0  0
  -22.9023  -29.2880   21.1842 O   0  0  0  0  0  0  0  0  0  0  0  0
  -23.9569  -31.8405   23.7468 O   0  0  0  0  0  0  0  0  0  0  0  0
  -28.5625  -31.3380   22.7189 O   0  0  0  0  0  0  0  0  0  0  0  0
  -22.8420  -12.5528   21.4079 O   0  0  0  0  0  0  0  0  0  0  0  0
  -27.7611  -24.8397   20.8528 O   0  0  0  0  0  0  0  0  0  1  0  0
  -24.6196   -7.3475   21.0227 F   0  0  0  0  0  0  0  0  0  0  0  0
  -21.5425  -10.7264   19.7898 F   0  0  0  0  0  0  0  0  0  0  0  0
  1  2  1  0  0  0  0
  1  5  2  0  0  0  0
  2  6  2  0  0  0  0
  3 10  2  0  0  0  0
  3 18  1  0  0  0  0
  4 11  1  0  0  0  0
  4 18  2  0  0  0  0
  5 21  1  0  0  0  0
  6 23  1  0  0  0  0
  7 12  2  0  0  0  0
  7 22  1  0  0  0  0
  8  9  2  0  0  0  0
  8 25  1  0  0  0  0
  9 26  1  0  0  0  0
 10 27  1  0  0  0  0
 11 27  2  0  0  0  0
 12 28  1  0  0  0  0
 13 14  2  0  0  0  0
 13 29  1  0  0  0  0
 14 30  1  0  0  0  0
 15 19  1  0  0  0  0
 15 25  2  0  0  0  0
 16 24  1  0  0  0  0
 16 28  2  0  0  0  0
 17 30  2  0  0  0  0
 17 31  1  0  0  0  0
 18 32  1  0  0  0  0
 19 26  2  0  0  0  0
 19 38  1  0  0  0  0
 20 32  1  0  0  0  0
 20 33  2  0  0  0  0
 20 39  1  0  0  0  0
 21 23  2  0  0  0  0
 21 44  1  0  0  0  0
 22 24  2  0  0  0  0
 22 45  1  0  0  0  0
 23 54  1  0  0  0  0
 24 46  1  0  0  0  0
 25 68  1  0  0  0  0
 26 71  1  0  0  0  0
 27 84  1  0  0  0  0
 28 85  1  0  0  0  0
 29 31  2  0  0  0  0
 29 84  1  0  0  0  0
 30 86  1  0  0  0  0
 31 87  1  0  0  0  0
 32 65  2  0  0  0  0
 33 67  1  0  0  0  0
 33 72  1  0  0  0  0
 34 35  1  0  0  0  0
 34 36  1  0  0  0  0
 34 37  2  0  0  0  0
 35 47  1  0  0  0  0
 35 77  2  0  0  0  0
 36 68  1  0  0  0  0
 36 78  2  0  0  0  0
 37 85  1  0  0  0  0
 38 40  1  0  0  0  0
 38 66  2  0  0  0  0
 39 73  1  0  0  0  0
 39 79  2  0  0  0  0
 40 69  1  0  0  0  0
 40 80  2  0  0  0  0
 41 55  1  0  0  0  0
 41 74  1  0  0  0  0
 41 81  2  0  0  0  0
 42 62  1  0  0  0  0
 42 70  1  0  0  0  0
 42 82  2  0  0  0  0
 43 63  1  0  0  0  0
 43 75  1  0  0  0  0
 43 83  2  0  0  0  0
 44 48  1  0  0  0  0
 45 55  1  0  0  0  0
 46 70  1  0  0  0  0
 47 68  1  0  0  0  0
 48 50  1  0  0  0  0
 49 51  1  0  0  0  0
 49 52  1  0  0  0  0
 50 54  1  0  0  0  0
 51 56  1  0  0  0  0
 52 69  1  0  0  0  0
 53 56  1  0  0  0  0
 53 69  1  0  0  0  0
 54 74  1  0  0  0  0
 55 70  1  0  0  0  0
 56 67  1  0  0  0  0
 57 63  1  0  0  0  0
 58 64  1  0  0  0  0
 59 64  1  0  0  0  0
 60 64  1  0  0  0  0
 61 76  1  0  0  0  0
 62 64  1  0  0  0  0
 62 75  1  0  0  0  0
 63 76  1  0  0  0  0
 65 67  1  0  0  0  0
M  CHG  1  76   1
M  ISO  4  37 101  38 100  40 100  85 101
M  END
> <Batch ID>
0085

> <Smiles>
CNC(C)C(=O)NC(C(=O)N1Cc2cc([101O:1][101CH:1]=C3C(=O)CN(c4ccc(N)c([100C:0](=N)[100C:0](=O)N5CCCC(n6nc(-c7ccc(Oc8ccc(F)cc8F)cc7)c(C(N)=O)c6N)C5)c4)C3=O)ccc2CC1C(=O)NC1CCCc2ccccc21)C(C)(C)C

> <Shape>
0.249

> <Color>
0.061

> <Negative vol penalty>
0.000

$$$$

  -OEChem-04052300153D

 85 93  0     1  0  0  0  0  0999 V2000
  -32.5628  -30.8417   23.6634 C   0  0  0  0  0  0  0  0  0  0  0  0
  -31.7259  -29.9297   23.0285 C   0  0  0  0  0  0  0  0  0  0  0  0
  -23.2329   -9.6458   19.8846 C   0  0  0  0  0  0  0  0  0  0  0  0
  -24.2218   -9.3499   22.0690 C   0  0  0  0  0  0  0  0  0  0  0  0
  -32.0640  -31.6512   24.6831 C   0  0  0  0  0  0  0  0  0  0  0  0
  -30.3897  -29.8260   23.4136 C   0  0  0  0  0  0  0  0  0  0  0  0
  -27.2389  -29.6011   19.4555 C   0  0  0  0  0  0  0  0  0  0  0  0
  -22.6198   -8.3977   19.9930 C   0  0  0  0  0  0  0  0  0  0  0  0
  -23.6087   -8.1017   22.1774 C   0  0  0  0  0  0  0  0  0  0  0  0
  -27.1352  -28.3789   18.7928 C   0  0  0  0  0  0  0  0  0  0  0  0
  -20.5398   -6.8911   22.9098 C   0  0  0  0  0  0  0  0  0  0  0  0
  -19.9138   -6.5809   24.1171 C   0  0  0  0  0  0  0  0  0  0  0  0
  -28.1657  -19.9752   15.2971 C   0  0  0  0  0  0  0  0  0  0  0  0
  -28.2016  -18.6144   17.2930 C   0  0  0  0  0  0  0  0  0  0  0  0
  -25.0862  -27.9164   19.9788 C   0  0  0  0  0  0  0  0  0  0  0  0
  -27.6554  -17.6177   15.1611 C   0  0  0  0  0  0  0  0  0  0  0  0
  -21.3852   -4.6846   24.3929 C   0  0  0  0  0  0  0  0  0  0  0  0
  -24.0339  -10.1219   20.9226 C   0  0  0  0  0  0  0  0  0  0  0  0
  -28.3597  -19.8539   16.6730 C   0  0  0  0  0  0  0  0  0  0  0  0
  -24.1450  -12.6535   21.2163 C   0  0  0  0  0  0  0  0  0  0  0  0
  -30.7186  -31.5641   25.0744 C   0  0  0  0  0  0  0  0  0  0  0  0
  -26.2710  -29.9860   20.3945 C   0  0  0  0  0  0  0  0  0  0  0  0
  -29.8727  -30.6341   24.4404 C   0  0  0  0  0  0  0  0  0  0  0  0
  -25.1785  -29.1451   20.6502 C   0  0  0  0  0  0  0  0  0  0  0  0
  -27.8135  -18.8571   14.5411 C   0  0  0  0  0  0  0  0  0  0  0  0
  -22.8077   -7.6256   21.1394 C   0  0  0  0  0  0  0  0  0  0  0  0
  -26.0603  -27.5350   19.0565 C   0  0  0  0  0  0  0  0  0  0  0  0
  -21.5884   -6.0979   22.4440 C   0  0  0  0  0  0  0  0  0  0  0  0
  -27.8494  -17.4963   16.5370 C   0  0  0  0  0  0  0  0  0  0  0  0
  -20.3365   -5.4777   24.8586 C   0  0  0  0  0  0  0  0  0  0  0  0
  -22.0111   -4.9947   23.1855 C   0  0  0  0  0  0  0  0  0  0  0  0
  -24.6680  -11.4110   20.8110 C   0  0  0  0  0  0  0  0  0  0  0  0
  -25.1259  -13.5600   20.8959 C   0  0  0  0  0  0  0  0  0  0  0  0
  -26.9603  -24.2368   17.9821 C   0  0  0  0  0  0  0  0  0  0  0  0
  -26.9669  -25.4342   18.5712 C   0  0  0  0  0  0  0  0  0  1  0  0
  -28.7331  -21.0379   17.4739 C   0  0  0  0  0  0  0  0  0  0  0  0
  -22.8851  -12.9609   21.8279 C   0  0  0  0  0  0  0  0  0  0  0  0
  -28.0922  -23.3161   18.2067 C   0  0  0  0  0  0  0  0  0  0  0  0
  -26.2978  -30.6349   23.5060 C   0  0  0  0  0  0  0  0  0  0  0  0
  -23.2120  -31.4736   22.9610 C   0  0  0  0  0  0  0  0  0  0  0  0
  -20.4206  -31.1502   21.0245 C   0  0  0  0  0  0  0  0  0  0  0  0
  -28.8597  -15.4896   17.2165 C   0  0  0  0  0  0  0  0  0  0  0  0
  -30.2367  -32.4267   26.2139 C   0  0  0  0  0  0  0  0  0  0  0  0
  -26.3831  -31.3195   21.0811 C   0  0  0  0  0  0  0  0  0  0  0  0
  -24.1020  -29.5208   21.6343 C   0  0  0  0  0  0  0  0  0  0  0  0
  -28.7158  -32.5186   26.3072 C   0  0  0  0  0  0  0  0  0  0  0  0
  -29.9163  -12.8727   19.4510 C   0  0  0  0  0  0  0  0  0  0  0  0
  -28.0883  -31.1345   26.1756 C   0  0  0  0  0  0  0  0  0  0  0  0
  -28.5974  -12.3372   20.0076 C   0  0  0  0  0  0  0  0  0  0  0  0
  -29.7710  -13.3179   17.9993 C   0  0  0  0  0  0  0  0  0  0  0  0
  -27.3594  -13.7885   18.3391 C   0  0  0  0  0  0  0  0  0  0  0  0
  -28.4113  -30.5096   24.8131 C   0  0  1  0  0  0  0  0  0  0  0  0
  -25.6125  -31.3810   22.3963 C   0  0  1  0  0  0  0  0  0  0  0  0
  -27.4607  -13.3564   19.8120 C   0  0  1  0  0  0  0  0  0  0  0  0
  -18.0418  -31.9304   20.8517 C   0  0  0  0  0  0  0  0  0  0  0  0
  -22.4291  -29.5796   25.2216 C   0  0  0  0  0  0  0  0  0  0  0  0
  -20.0709  -29.6683   24.3854 C   0  0  0  0  0  0  0  0  0  0  0  0
  -21.1831  -31.7479   25.1985 C   0  0  0  0  0  0  0  0  0  0  0  0
  -20.9030  -32.4093   18.3900 C   0  0  0  0  0  0  0  0  0  0  0  0
  -21.8873  -30.7500   22.9849 C   0  0  1  0  0  0  0  0  0  0  0  0
  -19.4810  -32.1843   20.4311 C   0  0  2  0  0  0  0  0  0  0  0  0
  -21.4137  -30.4282   24.4304 C   0  0  0  0  0  0  0  0  0  0  0  0
  -25.8865  -11.5149   20.2739 N   0  0  0  0  0  0  0  0  0  0  0  0
  -26.1373  -12.8335   20.3395 N   0  0  0  0  0  0  0  0  0  0  0  0
  -24.2595  -30.8321   22.2848 N   0  0  0  0  0  0  0  0  0  0  0  0
  -28.6600  -14.2560   17.8444 N   0  0  0  0  0  0  0  0  0  0  0  0
  -27.6167  -18.9798   13.1499 N   0  0  0  0  0  0  0  0  0  0  0  0
  -25.2134  -14.8995   21.0387 N   0  0  0  0  0  0  0  0  0  0  0  0
  -21.9946  -11.9104   22.0878 N   0  0  0  0  0  0  0  0  0  0  0  0
  -27.8939  -22.0836   17.4862 N   0  0  0  0  0  0  0  0  0  0  0  0
  -27.5747  -31.0853   23.7819 N   0  0  0  0  0  0  0  0  0  0  0  0
  -20.9576  -31.5752   22.2213 N   0  0  0  0  0  0  0  0  0  0  0  0
  -29.8881  -20.9982   18.1378 N   0  3  0  0  0  0  0  0  0  0  0  0
  -19.5483  -32.1517   18.9427 N   0  3  0  0  0  0  0  0  0  0  0  0
  -22.5520  -14.1346   22.1197 O   0  0  0  0  0  0  0  0  0  0  0  0
  -29.0744  -23.5327   18.8964 O   0  0  0  0  0  0  0  0  0  0  0  0
  -25.7110  -29.7195   24.0711 O   0  0  0  0  0  0  0  0  0  0  0  0
  -23.3118  -32.5709   23.5156 O   0  0  0  0  0  0  0  0  0  0  0  0
  -20.6518  -30.0715   20.4827 O   0  0  0  0  0  0  0  0  0  0  0  0
  -29.9390  -15.8689   16.7635 O   0  0  0  0  0  0  0  0  0  0  0  0
  -22.2094   -6.4076   21.2456 O   0  0  0  0  0  0  0  0  0  0  0  0
  -25.9571  -26.3412   18.4115 O   0  0  0  0  0  0  0  0  0  1  0  0
  -27.6907  -16.2536   17.1587 O   0  0  0  0  0  0  0  0  0  0  0  0
  -19.7363   -5.1809   26.0187 F   0  0  0  0  0  0  0  0  0  0  0  0
  -23.0188   -4.2298   22.7437 F   0  0  0  0  0  0  0  0  0  0  0  0
  1  2  1  0  0  0  0
  1  5  2  0  0  0  0
  2  6  2  0  0  0  0
  3  8  2  0  0  0  0
  3 18  1  0  0  0  0
  4  9  1  0  0  0  0
  4 18  2  0  0  0  0
  5 21  1  0  0  0  0
  6 23  1  0  0  0  0
  7 10  2  0  0  0  0
  7 22  1  0  0  0  0
  8 26  1  0  0  0  0
  9 26  2  0  0  0  0
 10 27  1  0  0  0  0
 11 12  2  0  0  0  0
 11 28  1  0  0  0  0
 12 30  1  0  0  0  0
 13 19  1  0  0  0  0
 13 25  2  0  0  0  0
 14 19  2  0  0  0  0
 14 29  1  0  0  0  0
 15 24  1  0  0  0  0
 15 27  2  0  0  0  0
 16 25  1  0  0  0  0
 16 29  2  0  0  0  0
 17 30  2  0  0  0  0
 17 31  1  0  0  0  0
 18 32  1  0  0  0  0
 19 36  1  0  0  0  0
 20 32  1  0  0  0  0
 20 33  2  0  0  0  0
 20 37  1  0  0  0  0
 21 23  2  0  0  0  0
 21 43  1  0  0  0  0
 22 24  2  0  0  0  0
 22 44  1  0  0  0  0
 23 52  1  0  0  0  0
 24 45  1  0  0  0  0
 25 67  1  0  0  0  0
 26 81  1  0  0  0  0
 27 82  1  0  0  0  0
 28 31  2  0  0  0  0
 28 81  1  0  0  0  0
 29 83  1  0  0  0  0
 30 84  1  0  0  0  0
 31 85  1  0  0  0  0
 32 63  2  0  0  0  0
 33 64  1  0  0  0  0
 33 68  1  0  0  0  0
 34 35  2  0  0  0  0
 34 38  1  0  0  0  0
 35 82  1  0  0  0  0
 36 70  1  0  0  0  0
 36 73  2  0  0  0  0
 37 69  1  0  0  0  0
 37 75  2  0  0  0  0
 38 70  1  0  0  0  0
 38 76  2  0  0  0  0
 39 53  1  0  0  0  0
 39 71  1  0  0  0  0
 39 77  2  0  0  0  0
 40 60  1  0  0  0  0
 40 65  1  0  0  0  0
 40 78  2  0  0  0  0
 41 61  1  0  0  0  0
 41 72  1  0  0  0  0
 41 79  2  0  0  0  0
 42 66  1  0  0  0  0
 42 80  2  0  0  0  0
 42 83  1  0  0  0  0
 43 46  1  0  0  0  0
 44 53  1  0  0  0  0
 45 65  1  0  0  0  0
 46 48  1  0  0  0  0
 47 49  1  0  0  0  0
 47 50  1  0  0  0  0
 48 52  1  0  0  0  0
 49 54  1  0  0  0  0
 50 66  1  0  0  0  0
 51 54  1  0  0  0  0
 51 66  1  0  0  0  0
 52 71  1  0  0  0  0
 53 65  1  0  0  0  0
 54 64  1  0  0  0  0
 55 61  1  0  0  0  0
 56 62  1  0  0  0  0
 57 62  1  0  0  0  0
 58 62  1  0  0  0  0
 59 74  1  0  0  0  0
 60 62  1  0  0  0  0
 60 72  1  0  0  0  0
 61 74  1  0  0  0  0
 63 64  1  0  0  0  0
M  CHG  2  73   1  74   1
M  ISO  4  35 101  42 100  82 101  83 100
M  END
> <Batch ID>
0085

> <Smiles>
CNC(C)C(=O)NC(C(=O)N1Cc2cc([101O:1][101CH:1]=CC(=O)NC(=N)c3cc(N)cc([100O:0][100C:0](=O)N4CCCC(n5nc(-c6ccc(Oc7ccc(F)cc7F)cc6)c(C(N)=O)c5N)C4)c3)ccc2CC1C(=O)NC1CCCc2ccccc21)C(C)(C)C

> <Shape>
0.278

> <Color>
0.171

> <Negative vol penalty>
0.000

$$$$

  -OEChem-04052300153D

 86 95  0     1  0  0  0  0  0999 V2000
  -32.5244  -31.0388   15.5600 C   0  0  0  0  0  0  0  0  0  0  0  0
  -31.6985  -29.9195   15.5839 C   0  0  0  0  0  0  0  0  0  0  0  0
  -23.2684   -9.8358   22.6769 C   0  0  0  0  0  0  0  0  0  0  0  0
  -23.9437   -9.5145   20.3795 C   0  0  0  0  0  0  0  0  0  0  0  0
  -29.3343  -19.2246   19.0353 C   0  0  0  0  0  0  0  0  0  0  0  0
  -27.9205  -17.4133   18.2888 C   0  0  0  0  0  0  0  0  0  0  0  0
  -32.7852  -31.7366   16.7385 C   0  0  0  0  0  0  0  0  0  0  0  0
  -31.1338  -29.4967   16.7867 C   0  0  0  0  0  0  0  0  0  0  0  0
  -25.6170  -26.9560   17.5714 C   0  0  0  0  0  0  0  0  0  0  0  0
  -28.3142  -20.1348   18.7590 C   0  0  0  0  0  0  0  0  0  0  0  0
  -26.9003  -18.3235   18.0125 C   0  0  0  0  0  0  0  0  0  0  0  0
  -22.4103   -8.7406   22.5779 C   0  0  0  0  0  0  0  0  0  0  0  0
  -23.0855   -8.4192   20.2805 C   0  0  0  0  0  0  0  0  0  0  0  0
  -25.2055  -25.6311   17.7089 C   0  0  0  0  0  0  0  0  0  0  0  0
  -22.6559   -5.3691   22.6505 C   0  0  0  0  0  0  0  0  0  0  0  0
  -22.6583   -4.4470   23.6970 C   0  0  0  0  0  0  0  0  0  0  0  0
  -25.2320  -25.8781   20.1084 C   0  0  0  0  0  0  0  0  0  0  0  0
  -20.3145   -4.8842   24.0877 C   0  0  0  0  0  0  0  0  0  0  0  0
  -24.0351  -10.2228   21.5777 C   0  0  0  0  0  0  0  0  0  0  0  0
  -29.1375  -17.8638   18.8002 C   0  0  0  0  0  0  0  0  0  0  0  0
  -24.5709  -12.6843   21.9796 C   0  0  0  0  0  0  0  0  0  0  0  0
  -32.2156  -31.3278   17.9547 C   0  0  0  0  0  0  0  0  0  0  0  0
  -25.8500  -27.7501   18.7035 C   0  0  0  0  0  0  0  0  0  0  0  0
  -31.3883  -30.1888   17.9829 C   0  0  0  0  0  0  0  0  0  0  0  0
  -25.6439  -27.2136   19.9825 C   0  0  0  0  0  0  0  0  0  0  0  0
  -27.0972  -19.6843   18.2476 C   0  0  0  0  0  0  0  0  0  0  0  0
  -22.3189   -8.0323   21.3797 C   0  0  0  0  0  0  0  0  0  0  0  0
  -25.0157  -25.0910   18.9775 C   0  0  0  0  0  0  0  0  0  0  0  0
  -21.4828   -6.0489   22.3226 C   0  0  0  0  0  0  0  0  0  0  0  0
  -21.4876   -4.2045   24.4156 C   0  0  0  0  0  0  0  0  0  0  0  0
  -20.3121   -5.8064   23.0412 C   0  0  0  0  0  0  0  0  0  0  0  0
  -24.9213  -11.3543   21.6792 C   0  0  0  0  0  0  0  0  0  0  0  0
  -25.7624  -13.3671   21.9555 C   0  0  0  0  0  0  0  0  0  0  0  0
  -25.9171  -21.8179   18.7074 C   0  0  0  0  0  0  0  0  0  0  0  0
  -30.2240  -16.8943   19.0943 C   0  0  0  0  0  0  0  0  0  0  0  0
  -23.2835  -13.2517   22.2558 C   0  0  0  0  0  0  0  0  0  0  0  0
  -28.3809  -29.2464   19.9116 C   0  0  0  0  0  0  0  0  0  0  0  0
  -26.2037  -30.4012   22.0208 C   0  0  0  0  0  0  0  0  0  0  0  0
  -23.1944  -30.0127   23.5830 C   0  0  0  0  0  0  0  0  0  0  0  0
  -30.6702  -14.5271   19.6608 C   0  0  0  0  0  0  0  0  0  0  0  0
  -32.5646  -32.0860   19.2109 C   0  0  0  0  0  0  0  0  0  0  0  0
  -26.2678  -29.1855   18.5378 C   0  0  0  0  0  0  0  0  0  0  0  0
  -25.8608  -28.0302   21.2294 C   0  0  0  0  0  0  0  0  0  0  0  0
  -31.6266  -31.7936   20.3792 C   0  0  0  0  0  0  0  0  0  0  0  0
  -24.1845  -21.3267   16.3949 C   0  0  0  0  0  0  0  0  0  0  0  0
  -30.5303  -11.6717   21.7402 C   0  0  0  0  0  0  0  0  0  0  0  0
  -31.4008  -30.2916   20.5196 C   0  0  0  0  0  0  0  0  0  0  0  0
  -23.7690  -22.3235   17.4525 C   0  0  0  0  0  0  0  0  0  0  0  0
  -29.0296  -11.4458   21.9430 C   0  0  0  0  0  0  0  0  0  0  0  0
  -24.9783  -20.1981   17.0335 C   0  0  0  0  0  0  0  0  0  0  0  0
  -30.8464  -12.1443   20.3219 C   0  0  0  0  0  0  0  0  0  0  0  0
  -28.5854  -13.0840   20.0713 C   0  0  0  0  0  0  0  0  0  0  0  0
  -30.7373  -29.7137   19.2637 C   0  0  1  0  0  0  0  0  0  0  0  0
  -25.0137  -22.8876   18.1027 C   0  0  1  0  0  0  0  0  0  1  0  0
  -26.9720  -29.7487   19.7684 C   0  0  1  0  0  0  0  0  0  0  0  0
  -28.2082  -12.6748   21.5043 C   0  0  1  0  0  0  0  0  0  0  0  0
  -21.7026  -31.0997   25.2831 C   0  0  0  0  0  0  0  0  0  0  0  0
  -28.0191  -29.3916   24.2557 C   0  0  0  0  0  0  0  0  0  0  0  0
  -26.0919  -29.6332   25.8356 C   0  0  0  0  0  0  0  0  0  0  0  0
  -27.0062  -31.6403   24.6701 C   0  0  0  0  0  0  0  0  0  0  0  0
  -21.0139  -30.3671   21.6136 C   0  0  0  0  0  0  0  0  0  0  0  0
  -25.6640  -29.9482   23.3559 C   0  0  1  0  0  0  0  0  0  0  0  0
  -22.0434  -30.9769   23.8060 C   0  0  2  0  0  0  0  0  0  0  0  0
  -26.6930  -30.1371   24.5061 C   0  0  0  0  0  0  0  0  0  0  0  0
  -26.2327  -11.1993   21.4788 N   0  0  0  0  0  0  0  0  0  0  0  0
  -26.7168  -12.4408   21.6535 N   0  0  0  0  0  0  0  0  0  0  0  0
  -26.0393  -20.6296   17.9614 N   0  0  0  0  0  0  0  0  0  0  0  0
  -26.2751  -29.4267   21.0153 N   0  0  0  0  0  0  0  0  0  0  0  0
  -30.0352  -13.3161   19.9872 N   0  0  0  0  0  0  0  0  0  0  0  0
  -26.0763  -14.6635   22.1633 N   0  0  0  0  0  0  0  0  0  0  0  0
  -22.5274  -13.7461   21.1842 N   0  0  0  0  0  0  0  0  0  0  0  0
  -29.8082  -15.5978   19.3985 N   0  0  0  0  0  0  0  0  0  0  0  0
  -29.3221  -30.0162   19.2551 N   0  0  0  0  0  0  0  0  0  0  0  0
  -24.4088  -30.6651   23.5533 N   0  0  0  0  0  0  0  0  0  0  0  0
  -20.8283  -30.5098   23.0806 N   0  3  0  0  0  0  0  0  0  0  0  0
  -26.5110  -22.0593   19.7615 O   0  0  0  0  0  0  0  0  0  0  0  0
  -31.3924  -17.2641   19.0172 O   0  0  0  0  0  0  0  0  0  0  0  0
  -22.8244  -13.3332   23.4203 O   0  0  0  0  0  0  0  0  0  0  0  0
  -28.5981  -28.2361   20.5702 O   0  0  0  0  0  0  0  0  0  0  0  0
  -26.5425  -31.5781   21.8733 O   0  0  0  0  0  0  0  0  0  0  0  0
  -23.0328  -28.8014   23.4521 O   0  0  0  0  0  0  0  0  0  0  0  0
  -31.8985  -14.6546   19.6418 O   0  0  0  0  0  0  0  0  0  0  0  0
  -21.4818   -6.9635   21.2828 O   0  0  0  0  0  0  0  0  0  0  0  0
  -24.6147  -23.7979   19.1145 O   0  0  0  0  0  0  0  0  0  1  0  0
  -21.4897   -3.3178   25.4196 F   0  0  0  0  0  0  0  0  0  0  0  0
  -19.1818   -6.4555   22.7300 F   0  0  0  0  0  0  0  0  0  0  0  0
  1  2  1  0  0  0  0
  1  7  2  0  0  0  0
  2  8  2  0  0  0  0
  3 12  2  0  0  0  0
  3 19  1  0  0  0  0
  4 13  1  0  0  0  0
  4 19  2  0  0  0  0
  5 10  2  0  0  0  0
  5 20  1  0  0  0  0
  6 11  1  0  0  0  0
  6 20  2  0  0  0  0
  7 22  1  0  0  0  0
  8 24  1  0  0  0  0
  9 14  2  0  0  0  0
  9 23  1  0  0  0  0
 10 26  1  0  0  0  0
 11 26  2  0  0  0  0
 12 27  1  0  0  0  0
 13 27  2  0  0  0  0
 14 28  1  0  0  0  0
 15 16  2  0  0  0  0
 15 29  1  0  0  0  0
 16 30  1  0  0  0  0
 17 25  1  0  0  0  0
 17 28  2  0  0  0  0
 18 30  2  0  0  0  0
 18 31  1  0  0  0  0
 19 32  1  0  0  0  0
 20 35  1  0  0  0  0
 21 32  1  0  0  0  0
 21 33  2  0  0  0  0
 21 36  1  0  0  0  0
 22 24  2  0  0  0  0
 22 41  1  0  0  0  0
 23 25  2  0  0  0  0
 23 42  1  0  0  0  0
 24 53  1  0  0  0  0
 25 43  1  0  0  0  0
 26 67  1  0  0  0  0
 27 83  1  0  0  0  0
 28 84  1  0  0  0  0
 29 31  2  0  0  0  0
 29 83  1  0  0  0  0
 30 85  1  0  0  0  0
 31 86  1  0  0  0  0
 32 65  2  0  0  0  0
 33 66  1  0  0  0  0
 33 70  1  0  0  0  0
 34 54  1  0  0  0  0
 34 67  1  0  0  0  0
 34 76  2  0  0  0  0
 35 72  1  0  0  0  0
 35 77  2  0  0  0  0
 36 71  1  0  0  0  0
 36 78  2  0  0  0  0
 37 55  1  0  0  0  0
 37 73  1  0  0  0  0
 37 79  2  0  0  0  0
 38 62  1  0  0  0  0
 38 68  1  0  0  0  0
 38 80  2  0  0  0  0
 39 63  1  0  0  0  0
 39 74  1  0  0  0  0
 39 81  2  0  0  0  0
 40 69  1  0  0  0  0
 40 72  1  0  0  0  0
 40 82  2  0  0  0  0
 41 44  1  0  0  0  0
 42 55  1  0  0  0  0
 43 68  1  0  0  0  0
 44 47  1  0  0  0  0
 45 48  1  0  0  0  0
 45 50  1  0  0  0  0
 46 49  1  0  0  0  0
 46 51  1  0  0  0  0
 47 53  1  0  0  0  0
 48 54  1  0  0  0  0
 49 56  1  0  0  0  0
 50 67  1  0  0  0  0
 51 69  1  0  0  0  0
 52 56  1  0  0  0  0
 52 69  1  0  0  0  0
 53 73  1  0  0  0  0
 54 84  1  0  0  0  0
 55 68  1  0  0  0  0
 56 66  1  0  0  0  0
 57 63  1  0  0  0  0
 58 64  1  0  0  0  0
 59 64  1  0  0  0  0
 60 64  1  0  0  0  0
 61 75  1  0  0  0  0
 62 64  1  0  0  0  0
 62 74  1  0  0  0  0
 63 75  1  0  0  0  0
 65 66  1  0  0  0  0
M  CHG  1  75   1
M  ISO  4  40 100  54 101  72 100  84 101
M  END
> <Batch ID>
0085

> <Smiles>
CNC(C)C(=O)NC(C(=O)N1Cc2cc([101O:1][101CH:1]3CCCN(c4ccc(C(=O)[100NH:0][100C:0](=O)N5CCCC(n6nc(-c7ccc(Oc8ccc(F)cc8F)cc7)c(C(N)=O)c6N)C5)cc4)C3=O)ccc2CC1C(=O)NC1CCCc2ccccc21)C(C)(C)C

> <Shape>
0.260

> <Color>
0.131

> <Negative vol penalty>
0.000

$$$$

  -OEChem-04052300153D

 84 93  0     1  0  0  0  0  0999 V2000
  -30.8419  -33.8364   25.7025 C   0  0  0  0  0  0  0  0  0  0  0  0
  -30.8966  -33.0949   24.5266 C   0  0  0  0  0  0  0  0  0  0  0  0
  -24.1647  -18.2842   16.2983 C   0  0  0  0  0  0  0  0  0  0  0  0
  -24.6852   -9.1379   21.9737 C   0  0  0  0  0  0  0  0  0  0  0  0
  -23.3495  -10.0290   20.1685 C   0  0  0  0  0  0  0  0  0  0  0  0
  -29.8814  -33.5393   26.6685 C   0  0  0  0  0  0  0  0  0  0  0  0
  -29.9915  -32.0551   24.3166 C   0  0  0  0  0  0  0  0  0  0  0  0
  -26.3964  -28.7571   19.0712 C   0  0  0  0  0  0  0  0  0  0  0  0
  -24.3094  -19.6032   16.7280 C   0  0  0  0  0  0  0  0  0  0  0  0
  -24.9580  -17.2792   16.8518 C   0  0  0  0  0  0  0  0  0  0  0  0
  -23.5394   -8.5922   22.5523 C   0  0  0  0  0  0  0  0  0  0  0  0
  -22.2036   -9.4833   20.7470 C   0  0  0  0  0  0  0  0  0  0  0  0
  -26.1652  -27.4801   18.5616 C   0  0  0  0  0  0  0  0  0  0  0  0
  -21.5576   -5.8925   22.0864 C   0  0  0  0  0  0  0  0  0  0  0  0
  -21.6290   -4.5797   22.5524 C   0  0  0  0  0  0  0  0  0  0  0  0
  -24.4986  -27.1084   20.2656 C   0  0  0  0  0  0  0  0  0  0  0  0
  -26.0410  -18.9125   18.2648 C   0  0  0  0  0  0  0  0  0  0  0  0
  -21.0877   -5.3412   24.7804 C   0  0  0  0  0  0  0  0  0  0  0  0
  -24.5903   -9.8563   20.7818 C   0  0  0  0  0  0  0  0  0  0  0  0
  -26.6285   -9.8077   19.2485 C   0  0  0  0  0  0  0  0  0  0  0  0
  -28.9579  -32.5016   26.4660 C   0  0  0  0  0  0  0  0  0  0  0  0
  -25.6870  -29.2160   20.1904 C   0  0  0  0  0  0  0  0  0  0  0  0
  -29.0187  -31.7430   25.2814 C   0  0  0  0  0  0  0  0  0  0  0  0
  -24.7209  -28.3926   20.7859 C   0  0  0  0  0  0  0  0  0  0  0  0
  -25.2476  -19.9174   17.7112 C   0  0  0  0  0  0  0  0  0  0  0  0
  -25.8962  -17.5934   17.8350 C   0  0  0  0  0  0  0  0  0  0  0  0
  -22.2985   -8.7649   21.9389 C   0  0  0  0  0  0  0  0  0  0  0  0
  -25.2182  -26.6545   19.1606 C   0  0  0  0  0  0  0  0  0  0  0  0
  -21.2514   -6.9297   22.9674 C   0  0  0  0  0  0  0  0  0  0  0  0
  -21.3940   -4.3041   23.8994 C   0  0  0  0  0  0  0  0  0  0  0  0
  -21.0164   -6.6540   24.3144 C   0  0  0  0  0  0  0  0  0  0  0  0
  -25.7736  -10.4207   20.1839 C   0  0  0  0  0  0  0  0  0  0  0  0
  -27.5952  -10.7505   18.9974 C   0  0  0  0  0  0  0  0  0  0  0  0
  -25.5948  -23.1006   18.7479 C   0  0  0  0  0  0  0  0  0  0  0  0
  -26.2015  -21.8100   19.0559 C   0  0  0  0  0  0  0  0  0  0  0  0
  -24.7687  -22.3801   17.7849 C   0  0  0  0  0  0  0  0  0  0  0  0
  -25.7335  -24.3730   19.1622 C   0  0  0  0  0  0  0  0  0  1  0  0
  -26.5553   -8.5027   18.6591 C   0  0  0  0  0  0  0  0  0  0  0  0
  -26.4819  -30.1386   23.1265 C   0  0  0  0  0  0  0  0  0  0  0  0
  -23.3349  -30.9012   23.3185 C   0  0  0  0  0  0  0  0  0  0  0  0
  -20.1549  -30.3853   22.1925 C   0  0  0  0  0  0  0  0  0  0  0  0
  -27.6797  -16.7130   19.3811 C   0  0  0  0  0  0  0  0  0  0  0  0
  -27.9682  -32.1869   27.5596 C   0  0  0  0  0  0  0  0  0  0  0  0
  -25.9291  -30.6060   20.7115 C   0  0  0  0  0  0  0  0  0  0  0  0
  -23.9181  -28.8456   21.9770 C   0  0  0  0  0  0  0  0  0  0  0  0
  -26.8061  -31.3122   27.0962 C   0  0  0  0  0  0  0  0  0  0  0  0
  -29.8510  -14.4405   21.0540 C   0  0  0  0  0  0  0  0  0  0  0  0
  -27.3188  -30.1370   26.2700 C   0  0  0  0  0  0  0  0  0  0  0  0
  -29.1326  -13.0949   20.9303 C   0  0  0  0  0  0  0  0  0  0  0  0
  -28.8676  -15.5923   21.2541 C   0  0  0  0  0  0  0  0  0  0  0  0
  -27.0763  -14.3277   20.1309 C   0  0  0  0  0  0  0  0  0  0  0  0
  -28.0384  -30.6235   25.0062 C   0  0  1  0  0  0  0  0  0  0  0  0
  -25.5155  -30.7778   22.1699 C   0  0  1  0  0  0  0  0  0  0  0  0
  -28.0216  -13.1452   19.8631 C   0  0  2  0  0  0  0  0  0  0  0  0
  -17.7875  -31.1284   22.5675 C   0  0  0  0  0  0  0  0  0  0  0  0
  -23.2081  -29.2092   25.8544 C   0  0  0  0  0  0  0  0  0  0  0  0
  -20.7134  -29.2048   25.6433 C   0  0  0  0  0  0  0  0  0  0  0  0
  -21.9320  -31.3570   25.9685 C   0  0  0  0  0  0  0  0  0  0  0  0
  -19.9155  -31.4096   19.4262 C   0  0  0  0  0  0  0  0  0  0  0  0
  -22.0820  -30.1722   23.7401 C   0  0  1  0  0  0  0  0  0  0  0  0
  -19.0647  -31.3553   21.7739 C   0  0  2  0  0  0  0  0  0  0  0  0
  -22.0002  -29.9762   25.2803 C   0  0  0  0  0  0  0  0  0  0  0  0
  -26.1630  -11.6573   20.5055 N   0  0  0  0  0  0  0  0  0  0  0  0
  -27.2733  -11.8288   19.7680 N   0  0  0  0  0  0  0  0  0  0  0  0
  -25.3894  -21.2176   18.1346 N   0  0  0  0  0  0  0  0  0  0  0  0
  -24.1956  -30.2106   22.4537 N   0  0  0  0  0  0  0  0  0  0  0  0
  -27.8468  -15.5791   20.2040 N   0  0  0  0  0  0  0  0  0  0  0  0
  -28.6808  -10.7540   18.1950 N   0  0  0  0  0  0  0  0  0  0  0  0
  -25.4968   -7.6614   19.0280 N   0  0  0  0  0  0  0  0  0  0  0  0
  -26.7018  -16.5721   18.3970 N   0  0  0  0  0  0  0  0  0  0  0  0
  -27.0780  -31.0267   24.0014 N   0  0  0  0  0  0  0  0  0  0  0  0
  -20.9646  -30.9191   23.1726 N   0  0  0  0  0  0  0  0  0  0  0  0
  -18.7536  -31.1913   20.3257 N   0  3  0  0  0  0  0  0  0  0  0  0
  -27.0655  -21.4174   19.8118 O   0  0  0  0  0  0  0  0  0  0  0  0
  -23.8944  -22.6793   16.9988 O   0  0  0  0  0  0  0  0  0  0  0  0
  -27.4126   -8.0887   17.8423 O   0  0  0  0  0  0  0  0  0  0  0  0
  -26.6716  -28.9290   23.0755 O   0  0  0  0  0  0  0  0  0  0  0  0
  -23.5387  -32.0442   23.7354 O   0  0  0  0  0  0  0  0  0  0  0  0
  -20.2737  -29.2647   21.7019 O   0  0  0  0  0  0  0  0  0  0  0  0
  -28.3732  -17.7237   19.5203 O   0  0  0  0  0  0  0  0  0  0  0  0
  -21.1802   -8.2323   22.5031 O   0  0  0  0  0  0  0  0  0  0  0  0
  -24.9911  -25.4074   18.6657 O   0  0  0  0  0  0  0  0  0  1  0  0
  -21.4610   -3.0432   24.3464 F   0  0  0  0  0  0  0  0  0  0  0  0
  -20.7207   -7.6461   25.1654 F   0  0  0  0  0  0  0  0  0  0  0  0
  1  2  1  0  0  0  0
  1  6  2  0  0  0  0
  2  7  2  0  0  0  0
  3  9  2  0  0  0  0
  3 10  1  0  0  0  0
  4 11  2  0  0  0  0
  4 19  1  0  0  0  0
  5 12  1  0  0  0  0
  5 19  2  0  0  0  0
  6 21  1  0  0  0  0
  7 23  1  0  0  0  0
  8 13  2  0  0  0  0
  8 22  1  0  0  0  0
  9 25  1  0  0  0  0
 10 26  2  0  0  0  0
 11 27  1  0  0  0  0
 12 27  2  0  0  0  0
 13 28  1  0  0  0  0
 14 15  2  0  0  0  0
 14 29  1  0  0  0  0
 15 30  1  0  0  0  0
 16 24  1  0  0  0  0
 16 28  2  0  0  0  0
 17 25  2  0  0  0  0
 17 26  1  0  0  0  0
 18 30  2  0  0  0  0
 18 31  1  0  0  0  0
 19 32  1  0  0  0  0
 20 32  1  0  0  0  0
 20 33  2  0  0  0  0
 20 38  1  0  0  0  0
 21 23  2  0  0  0  0
 21 43  1  0  0  0  0
 22 24  2  0  0  0  0
 22 44  1  0  0  0  0
 23 52  1  0  0  0  0
 24 45  1  0  0  0  0
 25 65  1  0  0  0  0
 26 70  1  0  0  0  0
 27 81  1  0  0  0  0
 28 82  1  0  0  0  0
 29 31  2  0  0  0  0
 29 81  1  0  0  0  0
 30 83  1  0  0  0  0
 31 84  1  0  0  0  0
 32 63  2  0  0  0  0
 33 64  1  0  0  0  0
 33 68  1  0  0  0  0
 34 35  1  0  0  0  0
 34 36  1  0  0  0  0
 34 37  2  0  0  0  0
 35 65  1  0  0  0  0
 35 74  2  0  0  0  0
 36 65  1  0  0  0  0
 36 75  2  0  0  0  0
 37 82  1  0  0  0  0
 38 69  1  0  0  0  0
 38 76  2  0  0  0  0
 39 53  1  0  0  0  0
 39 71  1  0  0  0  0
 39 77  2  0  0  0  0
 40 60  1  0  0  0  0
 40 66  1  0  0  0  0
 40 78  2  0  0  0  0
 41 61  1  0  0  0  0
 41 72  1  0  0  0  0
 41 79  2  0  0  0  0
 42 67  1  0  0  0  0
 42 70  1  0  0  0  0
 42 80  2  0  0  0  0
 43 46  1  0  0  0  0
 44 53  1  0  0  0  0
 45 66  1  0  0  0  0
 46 48  1  0  0  0  0
 47 49  1  0  0  0  0
 47 50  1  0  0  0  0
 48 52  1  0  0  0  0
 49 54  1  0  0  0  0
 50 67  1  0  0  0  0
 51 54  1  0  0  0  0
 51 67  1  0  0  0  0
 52 71  1  0  0  0  0
 53 66  1  0  0  0  0
 54 64  1  0  0  0  0
 55 61  1  0  0  0  0
 56 62  1  0  0  0  0
 57 62  1  0  0  0  0
 58 62  1  0  0  0  0
 59 73  1  0  0  0  0
 60 62  1  0  0  0  0
 60 72  1  0  0  0  0
 61 73  1  0  0  0  0
 63 64  1  0  0  0  0
M  CHG  1  73   1
M  ISO  4  37 101  42 100  70 100  82 101
M  END
> <Batch ID>
0085

> <Smiles>
CNC(C)C(=O)NC(C(=O)N1Cc2cc([101O:1][101CH:1]=C3C(=O)N(c4cccc([100NH:0][100C:0](=O)N5CCCC(n6nc(-c7ccc(Oc8ccc(F)cc8F)cc7)c(C(N)=O)c6N)C5)c4)C3=O)ccc2CC1C(=O)NC1CCCc2ccccc21)C(C)(C)C

> <Shape>
0.249

> <Color>
0.093

> <Negative vol penalty>
0.000

$$$$

  -OEChem-04052300153D

 86 95  0     1  0  0  0  0  0999 V2000
  -19.1400  -24.2150   22.4660 C   0  0  0  0  0  0  0  0  0  0  0  0
  -20.3536  -24.4634   21.8328 C   0  0  0  0  0  0  0  0  0  0  0  0
  -30.9185  -20.8968   18.1130 C   0  0  0  0  0  0  0  0  0  0  0  0
  -24.4374   -9.3786   22.1010 C   0  0  0  0  0  0  0  0  0  0  0  0
  -23.5478   -9.6948   19.8771 C   0  0  0  0  0  0  0  0  0  0  0  0
  -30.2492  -19.6975   17.8692 C   0  0  0  0  0  0  0  0  0  0  0  0
  -18.3307  -25.2793   22.8614 C   0  0  0  0  0  0  0  0  0  0  0  0
  -20.7581  -25.7762   21.5936 C   0  0  0  0  0  0  0  0  0  0  0  0
  -25.6231  -26.5542   22.7648 C   0  0  0  0  0  0  0  0  0  0  0  0
  -30.1958  -22.0796   18.2689 C   0  0  0  0  0  0  0  0  0  0  0  0
  -23.1818   -8.9630   22.5442 C   0  0  0  0  0  0  0  0  0  0  0  0
  -22.2922   -9.2792   20.3203 C   0  0  0  0  0  0  0  0  0  0  0  0
  -26.5773  -26.1020   21.8545 C   0  0  0  0  0  0  0  0  0  0  0  0
  -21.2963   -6.1593   22.4130 C   0  0  0  0  0  0  0  0  0  0  0  0
  -21.2373   -5.0249   23.2224 C   0  0  0  0  0  0  0  0  0  0  0  0
  -28.1345  -20.8639   17.9371 C   0  0  0  0  0  0  0  0  0  0  0  0
  -26.8096  -28.3435   20.9936 C   0  0  0  0  0  0  0  0  0  0  0  0
  -20.2366   -6.3362   24.9876 C   0  0  0  0  0  0  0  0  0  0  0  0
  -24.6204   -9.7445   20.7675 C   0  0  0  0  0  0  0  0  0  0  0  0
  -28.8572  -19.6811   17.7812 C   0  0  0  0  0  0  0  0  0  0  0  0
  -26.9436   -9.3672   19.7836 C   0  0  0  0  0  0  0  0  0  0  0  0
  -18.7300  -26.6060   22.6356 C   0  0  0  0  0  0  0  0  0  0  0  0
  -25.2463  -27.9048   22.7890 C   0  0  0  0  0  0  0  0  0  0  0  0
  -19.9527  -26.8592   21.9851 C   0  0  0  0  0  0  0  0  0  0  0  0
  -25.8522  -28.8108   21.9070 C   0  0  0  0  0  0  0  0  0  0  0  0
  -28.8038  -22.0632   18.1809 C   0  0  0  0  0  0  0  0  0  0  0  0
  -22.1092   -8.9133   21.6539 C   0  0  0  0  0  0  0  0  0  0  0  0
  -27.1686  -26.9961   20.9668 C   0  0  0  0  0  0  0  0  0  0  0  0
  -20.8254   -7.3823   22.8909 C   0  0  0  0  0  0  0  0  0  0  0  0
  -20.7074   -5.1133   24.5096 C   0  0  0  0  0  0  0  0  0  0  0  0
  -20.2956   -7.4707   24.1782 C   0  0  0  0  0  0  0  0  0  0  0  0
  -25.9170  -10.1745   20.3092 C   0  0  0  0  0  0  0  0  0  0  0  0
  -27.9606  -10.2459   19.5008 C   0  0  0  0  0  0  0  0  0  0  0  0
  -26.7353  -25.7805   18.2867 C   0  0  0  0  0  0  0  0  0  0  0  0
  -27.7242  -25.5891   19.1677 C   0  0  0  0  0  0  0  0  0  1  0  0
  -28.5312  -24.3294   19.1580 C   0  0  0  0  0  0  0  0  0  0  0  0
  -28.1471  -18.4108   17.5235 C   0  0  0  0  0  0  0  0  0  0  0  0
  -26.9749   -7.9498   19.5699 C   0  0  0  0  0  0  0  0  0  0  0  0
  -22.5327  -29.4857   22.2987 C   0  0  0  0  0  0  0  0  0  0  0  0
  -24.2970  -32.0319   23.2612 C   0  0  0  0  0  0  0  0  0  0  0  0
  -27.3805  -33.4474   23.6286 C   0  0  0  0  0  0  0  0  0  0  0  0
  -27.6901  -16.1035   18.3260 C   0  0  0  0  0  0  0  0  0  0  0  0
  -17.7996  -27.7227   23.0384 C   0  0  0  0  0  0  0  0  0  0  0  0
  -24.2350  -28.3817   23.7951 C   0  0  0  0  0  0  0  0  0  0  0  0
  -25.4975  -30.2746   21.9062 C   0  0  0  0  0  0  0  0  0  0  0  0
  -26.3227  -24.7444   17.3028 C   0  0  0  0  0  0  0  0  0  0  0  0
  -18.4745  -29.0911   23.0843 C   0  0  0  0  0  0  0  0  0  0  0  0
  -29.8124  -14.4168   20.8575 C   0  0  0  0  0  0  0  0  0  0  0  0
  -19.3179  -29.3127   21.8327 C   0  0  0  0  0  0  0  0  0  0  0  0
  -29.0806  -13.0871   21.0030 C   0  0  0  0  0  0  0  0  0  0  0  0
  -26.7002  -23.3506   17.7821 C   0  0  0  0  0  0  0  0  0  0  0  0
  -28.8612  -15.5669   20.5296 C   0  0  0  0  0  0  0  0  0  0  0  0
  -27.2767  -13.9681   19.4765 C   0  0  0  0  0  0  0  0  0  0  0  0
  -20.4376  -28.2700   21.7302 C   0  0  1  0  0  0  0  0  0  0  0  0
  -23.5519  -29.6827   23.3850 C   0  0  1  0  0  0  0  0  0  0  0  0
  -28.2355  -12.8012   19.7535 C   0  0  2  0  0  0  0  0  0  0  0  0
  -28.5013  -35.5528   24.4085 C   0  0  0  0  0  0  0  0  0  0  0  0
  -23.4477  -33.4343   20.6879 C   0  0  0  0  0  0  0  0  0  0  0  0
  -25.2999  -35.0783   21.0548 C   0  0  0  0  0  0  0  0  0  0  0  0
  -23.4509  -34.8935   22.7190 C   0  0  0  0  0  0  0  0  0  0  0  0
  -28.8756  -32.0078   25.7385 C   0  0  0  0  0  0  0  0  0  0  0  0
  -25.1729  -33.0484   22.5695 C   0  0  1  0  0  0  0  0  0  0  0  0
  -28.0275  -34.1621   24.8012 C   0  0  2  0  0  0  0  0  0  0  0  0
  -24.3483  -34.0858   21.7562 C   0  0  0  0  0  0  0  0  0  0  0  0
  -26.2514  -11.4667   20.3587 N   0  0  0  0  0  0  0  0  0  0  0  0
  -27.4995  -11.4780   19.8606 N   0  0  0  0  0  0  0  0  0  0  0  0
  -28.0568  -23.2876   18.3423 N   0  0  0  0  0  0  0  0  0  0  0  0
  -24.4987  -30.6911   22.9044 N   0  0  0  0  0  0  0  0  0  0  0  0
  -27.9830  -15.2511   19.3947 N   0  0  0  0  0  0  0  0  0  0  0  0
  -29.1954  -10.0771   18.9821 N   0  0  0  0  0  0  0  0  0  0  0  0
  -25.8446   -7.1968   19.9158 N   0  0  0  0  0  0  0  0  0  0  0  0
  -28.3012  -17.4127   18.4073 N   0  0  0  0  0  0  0  0  0  0  0  0
  -21.5221  -28.6029   22.6287 N   0  0  0  0  0  0  0  0  0  0  0  0
  -26.0147  -33.6350   23.6067 N   0  0  0  0  0  0  0  0  0  0  0  0
  -27.4001  -18.3344   16.4224 N   0  3  0  0  0  0  0  0  0  0  0  0
  -29.2010  -33.3882   25.2961 N   0  3  0  0  0  0  0  0  0  0  0  0
  -29.5292  -24.2863   19.8787 O   0  0  0  0  0  0  0  0  0  0  0  0
  -27.9818   -7.3661   19.1019 O   0  0  0  0  0  0  0  0  0  0  0  0
  -22.6534  -30.0910   21.2400 O   0  0  0  0  0  0  0  0  0  0  0  0
  -23.4693  -32.4129   24.0927 O   0  0  0  0  0  0  0  0  0  0  0  0
  -28.0230  -32.7915   22.8116 O   0  0  0  0  0  0  0  0  0  0  0  0
  -26.9564  -15.8359   17.3804 O   0  0  0  0  0  0  0  0  0  0  0  0
  -20.8839   -8.5075   22.0859 O   0  0  0  0  0  0  0  0  0  0  0  0
  -28.0998  -26.5572   20.0768 O   0  0  0  0  0  0  0  0  0  1  0  0
  -20.6495   -4.0235   25.2862 F   0  0  0  0  0  0  0  0  0  0  0  0
  -19.8406   -8.6426   24.6424 F   0  0  0  0  0  0  0  0  0  0  0  0
  1  2  1  0  0  0  0
  1  7  2  0  0  0  0
  2  8  2  0  0  0  0
  3  6  1  0  0  0  0
  3 10  2  0  0  0  0
  4 11  2  0  0  0  0
  4 19  1  0  0  0  0
  5 12  1  0  0  0  0
  5 19  2  0  0  0  0
  6 20  2  0  0  0  0
  7 22  1  0  0  0  0
  8 24  1  0  0  0  0
  9 13  2  0  0  0  0
  9 23  1  0  0  0  0
 10 26  1  0  0  0  0
 11 27  1  0  0  0  0
 12 27  2  0  0  0  0
 13 28  1  0  0  0  0
 14 15  2  0  0  0  0
 14 29  1  0  0  0  0
 15 30  1  0  0  0  0
 16 20  1  0  0  0  0
 16 26  2  0  0  0  0
 17 25  1  0  0  0  0
 17 28  2  0  0  0  0
 18 30  2  0  0  0  0
 18 31  1  0  0  0  0
 19 32  1  0  0  0  0
 20 37  1  0  0  0  0
 21 32  1  0  0  0  0
 21 33  2  0  0  0  0
 21 38  1  0  0  0  0
 22 24  2  0  0  0  0
 22 43  1  0  0  0  0
 23 25  2  0  0  0  0
 23 44  1  0  0  0  0
 24 54  1  0  0  0  0
 25 45  1  0  0  0  0
 26 67  1  0  0  0  0
 27 83  1  0  0  0  0
 28 84  1  0  0  0  0
 29 31  2  0  0  0  0
 29 83  1  0  0  0  0
 30 85  1  0  0  0  0
 31 86  1  0  0  0  0
 32 65  2  0  0  0  0
 33 66  1  0  0  0  0
 33 70  1  0  0  0  0
 34 35  2  0  0  0  0
 34 46  1  0  0  0  0
 35 36  1  0  0  0  0
 35 84  1  0  0  0  0
 36 67  1  0  0  0  0
 36 77  2  0  0  0  0
 37 72  1  0  0  0  0
 37 75  2  0  0  0  0
 38 71  1  0  0  0  0
 38 78  2  0  0  0  0
 39 55  1  0  0  0  0
 39 73  1  0  0  0  0
 39 79  2  0  0  0  0
 40 62  1  0  0  0  0
 40 68  1  0  0  0  0
 40 80  2  0  0  0  0
 41 63  1  0  0  0  0
 41 74  1  0  0  0  0
 41 81  2  0  0  0  0
 42 69  1  0  0  0  0
 42 72  1  0  0  0  0
 42 82  2  0  0  0  0
 43 47  1  0  0  0  0
 44 55  1  0  0  0  0
 45 68  1  0  0  0  0
 46 51  1  0  0  0  0
 47 49  1  0  0  0  0
 48 50  1  0  0  0  0
 48 52  1  0  0  0  0
 49 54  1  0  0  0  0
 50 56  1  0  0  0  0
 51 67  1  0  0  0  0
 52 69  1  0  0  0  0
 53 56  1  0  0  0  0
 53 69  1  0  0  0  0
 54 73  1  0  0  0  0
 55 68  1  0  0  0  0
 56 66  1  0  0  0  0
 57 63  1  0  0  0  0
 58 64  1  0  0  0  0
 59 64  1  0  0  0  0
 60 64  1  0  0  0  0
 61 76  1  0  0  0  0
 62 64  1  0  0  0  0
 62 74  1  0  0  0  0
 63 76  1  0  0  0  0
 65 66  1  0  0  0  0
M  CHG  2  75   1  76   1
M  ISO  4  35 101  42 100  72 100  84 101
M  END
> <Batch ID>
0085

> <Smiles>
CNC(C)C(=O)NC(C(=O)N1Cc2cc([101O:1][101C:1]3=CCCN(c4cccc(C(=N)[100NH:0][100C:0](=O)N5CCCC(n6nc(-c7ccc(Oc8ccc(F)cc8F)cc7)c(C(N)=O)c6N)C5)c4)C3=O)ccc2CC1C(=O)NC1CCCc2ccccc21)C(C)(C)C

> <Shape>
0.290

> <Color>
0.113

> <Negative vol penalty>
0.000

$$$$

  -OEChem-04052300153D

 85 93  0     1  0  0  0  0  0999 V2000
  -31.9502  -37.5615   26.2736 C   0  0  0  0  0  0  0  0  0  0  0  0
  -32.0699  -36.2081   26.5727 C   0  0  0  0  0  0  0  0  0  0  0  0
  -23.0767   -9.8677   19.9373 C   0  0  0  0  0  0  0  0  0  0  0  0
  -23.8373   -9.8702   22.2305 C   0  0  0  0  0  0  0  0  0  0  0  0
  -31.0748  -37.9780   25.2715 C   0  0  0  0  0  0  0  0  0  0  0  0
  -31.3135  -35.2705   25.8705 C   0  0  0  0  0  0  0  0  0  0  0  0
  -33.0072  -29.5948   24.3139 C   0  0  0  0  0  0  0  0  0  0  0  0
  -32.6520  -17.4873   23.4609 C   0  0  0  0  0  0  0  0  0  0  0  0
  -32.0621  -16.6054   22.5555 C   0  0  0  0  0  0  0  0  0  0  0  0
  -22.3334   -8.7137   20.1851 C   0  0  0  0  0  0  0  0  0  0  0  0
  -23.0940   -8.7162   22.4783 C   0  0  0  0  0  0  0  0  0  0  0  0
  -32.7525  -28.3495   24.8869 C   0  0  0  0  0  0  0  0  0  0  0  0
  -19.8663   -7.9158   23.0801 C   0  0  0  0  0  0  0  0  0  0  0  0
  -19.1097   -7.8730   24.2512 C   0  0  0  0  0  0  0  0  0  0  0  0
  -30.9174  -28.0266   23.3548 C   0  0  0  0  0  0  0  0  0  0  0  0
  -30.4698  -18.3369   24.0553 C   0  0  0  0  0  0  0  0  0  0  0  0
  -20.3522   -5.9346   24.9831 C   0  0  0  0  0  0  0  0  0  0  0  0
  -23.8287  -10.4459   20.9600 C   0  0  0  0  0  0  0  0  0  0  0  0
  -24.1695  -12.9715   20.8452 C   0  0  0  0  0  0  0  0  0  0  0  0
  -30.3144  -37.0442   24.5501 C   0  0  0  0  0  0  0  0  0  0  0  0
  -32.2107  -30.0708   23.2625 C   0  0  0  0  0  0  0  0  0  0  0  0
  -30.4261  -35.6750   24.8588 C   0  0  0  0  0  0  0  0  0  0  0  0
  -31.1657  -29.2771   22.7685 C   0  0  0  0  0  0  0  0  0  0  0  0
  -31.8559  -18.3530   24.2109 C   0  0  0  0  0  0  0  0  0  0  0  0
  -30.6761  -16.5892   22.3999 C   0  0  0  0  0  0  0  0  0  0  0  0
  -22.3420   -8.1380   21.4555 C   0  0  0  0  0  0  0  0  0  0  0  0
  -31.7057  -27.5665   24.4093 C   0  0  0  0  0  0  0  0  0  0  0  0
  -20.8658   -6.9678   22.8605 C   0  0  0  0  0  0  0  0  0  0  0  0
  -19.3527   -6.8825   25.2027 C   0  0  0  0  0  0  0  0  0  0  0  0
  -29.8799  -17.4550   23.1498 C   0  0  0  0  0  0  0  0  0  0  0  0
  -21.1087   -5.9773   23.8120 C   0  0  0  0  0  0  0  0  0  0  0  0
  -24.5972  -11.6376   20.7046 C   0  0  0  0  0  0  0  0  0  0  0  0
  -25.2612  -13.7221   20.4832 C   0  0  0  0  0  0  0  0  0  0  0  0
  -31.9047  -24.0242   24.9150 C   0  0  0  0  0  0  0  0  0  0  0  0
  -32.0840  -25.2585   24.4398 C   0  0  0  0  0  0  0  0  0  1  0  0
  -32.8233  -20.6154   24.5281 C   0  0  0  0  0  0  0  0  0  0  0  0
  -22.8989  -13.4859   21.2656 C   0  0  0  0  0  0  0  0  0  0  0  0
  -32.6194  -22.8769   24.2973 C   0  0  0  0  0  0  0  0  0  0  0  0
  -30.2915  -32.5720   22.8572 C   0  0  0  0  0  0  0  0  0  0  0  0
  -30.1484  -31.4746   19.8080 C   0  0  0  0  0  0  0  0  0  0  0  0
  -30.4591  -28.8419   17.6588 C   0  0  0  0  0  0  0  0  0  0  0  0
  -30.7270  -14.7696   20.6584 C   0  0  0  0  0  0  0  0  0  0  0  0
  -29.3466  -37.5461   23.5080 C   0  0  0  0  0  0  0  0  0  0  0  0
  -32.5153  -31.4046   22.6376 C   0  0  0  0  0  0  0  0  0  0  0  0
  -30.2940  -29.7337   21.6282 C   0  0  0  0  0  0  0  0  0  0  0  0
  -28.8586  -36.4576   22.5554 C   0  0  0  0  0  0  0  0  0  0  0  0
  -29.6129  -12.3603   18.2854 C   0  0  0  0  0  0  0  0  0  0  0  0
  -28.4500  -35.2109   23.3338 C   0  0  0  0  0  0  0  0  0  0  0  0
  -28.1735  -12.0673   18.7148 C   0  0  0  0  0  0  0  0  0  0  0  0
  -30.5283  -12.5870   19.4872 C   0  0  0  0  0  0  0  0  0  0  0  0
  -28.6215  -13.3077   20.8706 C   0  0  0  0  0  0  0  0  0  0  0  0
  -29.6408  -34.6255   24.1024 C   0  0  1  0  0  0  0  0  0  0  0  0
  -31.3180  -32.0124   21.9133 C   0  0  1  0  0  0  0  0  0  0  0  0
  -27.6483  -13.1366   19.6927 C   0  0  2  0  0  0  0  0  0  0  0  0
  -30.2434  -28.2449   15.2309 C   0  0  0  0  0  0  0  0  0  0  0  0
  -27.1090  -31.4981   20.0748 C   0  0  0  0  0  0  0  0  0  0  0  0
  -26.9893  -30.0351   18.0466 C   0  0  0  0  0  0  0  0  0  0  0  0
  -27.9696  -32.3226   17.8762 C   0  0  0  0  0  0  0  0  0  0  0  0
  -33.3057  -28.0517   17.4807 C   0  0  0  0  0  0  0  0  0  0  0  0
  -32.4919  -19.3050   25.1867 C   0  0  0  0  0  0  0  0  0  0  0  0
  -29.2656  -30.5039   19.0614 C   0  0  1  0  0  0  0  0  0  0  0  0
  -31.1854  -28.7043   16.3329 C   0  0  2  0  0  0  0  0  0  0  0  0
  -27.8484  -31.0819   18.7875 C   0  0  0  0  0  0  0  0  0  0  0  0
  -25.8620  -11.5432   20.2857 N   0  0  0  0  0  0  0  0  0  0  0  0
  -32.2833  -21.7115   24.9467 N   0  0  0  0  0  0  0  0  0  0  0  0
  -26.2384  -12.8272   20.1600 N   0  0  0  0  0  0  0  0  0  0  0  0
  -30.6276  -31.0479   21.0546 N   0  0  0  0  0  0  0  0  0  0  0  0
  -29.9692  -13.6157   20.3670 N   0  0  0  0  0  0  0  0  0  0  0  0
  -25.4711  -15.0538   20.4129 N   0  0  0  0  0  0  0  0  0  0  0  0
  -21.8875  -12.5756   21.6013 N   0  0  0  0  0  0  0  0  0  0  0  0
  -30.0796  -15.6927   21.4790 N   0  0  0  0  0  0  0  0  0  0  0  0
  -30.5087  -33.8911   23.2069 N   0  0  0  0  0  0  0  0  0  0  0  0
  -29.9997  -30.1265   17.8585 N   0  0  0  0  0  0  0  0  0  0  0  0
  -32.2920  -27.7128   16.4489 N   0  3  0  0  0  0  0  0  0  0  0  0
  -22.6622  -14.7163   21.3256 O   0  0  0  0  0  0  0  0  0  0  0  0
  -33.3845  -23.0125   23.3487 O   0  0  0  0  0  0  0  0  0  0  0  0
  -29.3699  -31.8602   23.2387 O   0  0  0  0  0  0  0  0  0  0  0  0
  -30.4093  -32.5682   19.3004 O   0  0  0  0  0  0  0  0  0  0  0  0
  -30.3107  -27.9028   18.4376 O   0  0  0  0  0  0  0  0  0  0  0  0
  -31.8559  -14.9398   20.1908 O   0  0  0  0  0  0  0  0  0  0  0  0
  -21.6166   -7.0121   21.6977 O   0  0  0  0  0  0  0  0  0  0  0  0
  -31.4545  -26.3509   24.9671 O   0  0  0  0  0  0  0  0  0  1  0  0
  -18.6271   -6.8425   26.3279 F   0  0  0  0  0  0  0  0  0  0  0  0
  -28.5468  -17.4491   23.0073 F   0  0  0  0  0  0  0  0  0  0  0  0
  -22.0684   -5.0646   23.6072 F   0  0  0  0  0  0  0  0  0  0  0  0
  1  2  1  0  0  0  0
  1  5  2  0  0  0  0
  2  6  2  0  0  0  0
  3 10  2  0  0  0  0
  3 18  1  0  0  0  0
  4 11  1  0  0  0  0
  4 18  2  0  0  0  0
  5 20  1  0  0  0  0
  6 22  1  0  0  0  0
  7 12  2  0  0  0  0
  7 21  1  0  0  0  0
  8  9  2  0  0  0  0
  8 24  1  0  0  0  0
  9 25  1  0  0  0  0
 10 26  1  0  0  0  0
 11 26  2  0  0  0  0
 12 27  1  0  0  0  0
 13 14  2  0  0  0  0
 13 28  1  0  0  0  0
 14 29  1  0  0  0  0
 15 23  1  0  0  0  0
 15 27  2  0  0  0  0
 16 24  2  0  0  0  0
 16 30  1  0  0  0  0
 17 29  2  0  0  0  0
 17 31  1  0  0  0  0
 18 32  1  0  0  0  0
 19 32  1  0  0  0  0
 19 33  2  0  0  0  0
 19 37  1  0  0  0  0
 20 22  2  0  0  0  0
 20 43  1  0  0  0  0
 21 23  2  0  0  0  0
 21 44  1  0  0  0  0
 22 52  1  0  0  0  0
 23 45  1  0  0  0  0
 24 60  1  0  0  0  0
 25 30  2  0  0  0  0
 25 71  1  0  0  0  0
 26 81  1  0  0  0  0
 27 82  1  0  0  0  0
 28 31  2  0  0  0  0
 28 81  1  0  0  0  0
 29 83  1  0  0  0  0
 30 84  1  0  0  0  0
 31 85  1  0  0  0  0
 32 64  2  0  0  0  0
 33 66  1  0  0  0  0
 33 69  1  0  0  0  0
 34 35  2  0  0  0  0
 34 38  1  0  0  0  0
 35 82  1  0  0  0  0
 36 60  1  0  0  0  0
 36 65  2  0  0  0  0
 37 70  1  0  0  0  0
 37 75  2  0  0  0  0
 38 65  1  0  0  0  0
 38 76  2  0  0  0  0
 39 53  1  0  0  0  0
 39 72  1  0  0  0  0
 39 77  2  0  0  0  0
 40 61  1  0  0  0  0
 40 67  1  0  0  0  0
 40 78  2  0  0  0  0
 41 62  1  0  0  0  0
 41 73  1  0  0  0  0
 41 79  2  0  0  0  0
 42 68  1  0  0  0  0
 42 71  1  0  0  0  0
 42 80  2  0  0  0  0
 43 46  1  0  0  0  0
 44 53  1  0  0  0  0
 45 67  1  0  0  0  0
 46 48  1  0  0  0  0
 47 49  1  0  0  0  0
 47 50  1  0  0  0  0
 48 52  1  0  0  0  0
 49 54  1  0  0  0  0
 50 68  1  0  0  0  0
 51 54  1  0  0  0  0
 51 68  1  0  0  0  0
 52 72  1  0  0  0  0
 53 67  1  0  0  0  0
 54 66  1  0  0  0  0
 55 62  1  0  0  0  0
 56 63  1  0  0  0  0
 57 63  1  0  0  0  0
 58 63  1  0  0  0  0
 59 74  1  0  0  0  0
 61 63  1  0  0  0  0
 61 73  1  0  0  0  0
 62 74  1  0  0  0  0
 64 66  1  0  0  0  0
M  CHG  1  74   1
M  ISO  4  35 101  42 100  71 100  82 101
M  END
> <Batch ID>
0085

> <Smiles>
CNC(C)C(=O)NC(C(=O)N1Cc2cc([101O:1][101CH:1]=CC(=O)NC=Cc3ccc([100NH:0][100C:0](=O)N4CCCC(n5nc(-c6ccc(Oc7ccc(F)cc7F)cc6)c(C(N)=O)c5N)C4)c(F)c3)ccc2CC1C(=O)NC1CCCc2ccccc21)C(C)(C)C

> <Shape>
0.182

> <Color>
0.187

> <Negative vol penalty>
0.000

$$$$

  -OEChem-04052300153D

 89 98  0     1  0  0  0  0  0999 V2000
  -16.4340  -29.3731   23.0416 C   0  0  0  0  0  0  0  0  0  0  0  0
  -21.6180  -11.9666   20.3686 C   0  0  0  0  0  0  0  0  0  0  0  0
  -21.5378  -13.2578   20.8803 C   0  0  0  0  0  0  0  0  0  0  0  0
  -30.0623  -28.3621   23.8517 C   0  0  0  0  0  0  0  0  0  0  0  0
  -28.6124  -26.4862   24.3164 C   0  0  0  0  0  0  0  0  0  0  0  0
  -22.8640  -11.3762   20.1616 C   0  0  0  0  0  0  0  0  0  0  0  0
  -22.7036  -13.9590   21.1863 C   0  0  0  0  0  0  0  0  0  0  0  0
  -22.5770  -18.7486   19.5468 C   0  0  0  0  0  0  0  0  0  0  0  0
  -30.8487  -28.0274   24.9541 C   0  0  0  0  0  0  0  0  0  0  0  0
  -29.3988  -26.1515   25.4188 C   0  0  0  0  0  0  0  0  0  0  0  0
  -21.8393  -19.6604   20.3006 C   0  0  0  0  0  0  0  0  0  0  0  0
  -30.7127  -28.3891   28.3119 C   0  0  0  0  0  0  0  0  0  0  0  0
  -31.1053  -29.4211   29.1642 C   0  0  0  0  0  0  0  0  0  0  0  0
  -23.8754  -20.4536   21.3226 C   0  0  0  0  0  0  0  0  0  0  0  0
  -18.0541  -26.8542   22.5905 C   0  0  0  0  0  0  0  0  0  0  0  0
  -19.2962  -28.8852   22.1797 C   0  0  0  0  0  0  0  0  0  0  0  0
  -20.4669  -26.8405   22.7140 C   0  0  0  0  0  0  0  0  0  0  0  0
  -33.4235  -28.9126   28.7121 C   0  0  0  0  0  0  0  0  0  0  0  0
  -28.9442  -27.5915   23.5329 C   0  0  0  0  0  0  0  0  0  0  0  0
  -28.2882  -27.4873   21.0698 C   0  0  0  0  0  0  0  0  0  0  0  0
  -24.0459  -12.0741   20.4562 C   0  0  0  0  0  0  0  0  0  0  0  0
  -23.9706  -18.6749   19.6834 C   0  0  0  0  0  0  0  0  0  0  0  0
  -23.9665  -13.3768   20.9844 C   0  0  0  0  0  0  0  0  0  0  0  0
  -24.6287  -19.5418   20.5674 C   0  0  0  0  0  0  0  0  0  0  0  0
  -18.0779  -28.2128   22.2755 C   0  0  0  0  0  0  0  0  0  0  0  0
  -19.2486  -26.1680   22.8098 C   0  0  0  0  0  0  0  0  0  0  0  0
  -20.4907  -28.1991   22.3989 C   0  0  0  0  0  0  0  0  0  0  0  0
  -30.5169  -26.9221   25.7376 C   0  0  0  0  0  0  0  0  0  0  0  0
  -22.4881  -20.5110   21.1908 C   0  0  0  0  0  0  0  0  0  0  0  0
  -31.6755  -27.6188   27.6597 C   0  0  0  0  0  0  0  0  0  0  0  0
  -32.4607  -29.6829   29.3643 C   0  0  0  0  0  0  0  0  0  0  0  0
  -33.0309  -27.8806   27.8598 C   0  0  0  0  0  0  0  0  0  0  0  0
  -28.1311  -27.9370   22.3946 C   0  0  0  0  0  0  0  0  0  0  0  0
  -27.2726  -28.0994   20.3768 C   0  0  0  0  0  0  0  0  0  0  0  0
  -19.0645  -22.0653   23.7578 C   0  0  0  0  0  0  0  0  0  0  0  0
  -18.5591  -24.3589   24.2692 C   0  0  0  0  0  0  0  0  0  0  0  0
  -19.7307  -22.4065   22.6466 C   0  0  0  0  0  0  0  0  0  0  0  0
  -18.4720  -23.0665   24.5972 C   0  0  0  0  0  0  0  0  0  0  0  0
  -19.8782  -23.8635   22.2826 C   0  0  0  0  0  0  0  0  0  0  0  0
  -15.9338  -29.8977   24.1201 C   0  0  0  0  0  0  0  0  0  0  0  0
  -29.2646  -26.5958   20.5154 C   0  0  0  0  0  0  0  0  0  0  0  0
  -26.0176  -16.4278   20.6129 C   0  0  0  0  0  0  0  0  0  0  0  0
  -28.2313  -18.6093   19.6842 C   0  0  0  0  0  0  0  0  0  0  0  0
  -29.0065  -21.8805   19.0968 C   0  0  0  0  0  0  0  0  0  0  0  0
  -21.9292  -30.2277   21.9966 C   0  0  0  0  0  0  0  0  0  0  0  0
  -25.3688  -11.3768   20.2601 C   0  0  0  0  0  0  0  0  0  0  0  0
  -24.7547  -17.7043   18.8433 C   0  0  0  0  0  0  0  0  0  0  0  0
  -26.1251  -19.5164   20.7362 C   0  0  0  0  0  0  0  0  0  0  0  0
  -26.5637  -12.3268   20.2583 C   0  0  0  0  0  0  0  0  0  0  0  0
  -24.5555  -32.0427   20.4201 C   0  0  0  0  0  0  0  0  0  0  0  0
  -26.4666  -13.3090   21.4214 C   0  0  0  0  0  0  0  0  0  0  0  0
  -25.7835  -31.1520   20.6216 C   0  0  0  0  0  0  0  0  0  0  0  0
  -23.6244  -32.0074   21.6307 C   0  0  0  0  0  0  0  0  0  0  0  0
  -24.4466  -29.7732   22.2643 C   0  0  0  0  0  0  0  0  0  0  0  0
  -25.2091  -14.1788   21.3054 C   0  0  1  0  0  0  0  0  0  0  0  0
  -26.1163  -17.3617   19.4401 C   0  0  1  0  0  0  0  0  0  0  0  0
  -25.3817  -29.7255   21.0449 C   0  0  2  0  0  0  0  0  0  0  0  0
  -30.9055  -23.3574   18.3827 C   0  0  0  0  0  0  0  0  0  0  0  0
  -29.4890  -18.3251   22.4496 C   0  0  0  0  0  0  0  0  0  0  0  0
  -30.7421  -20.4498   22.0215 C   0  0  0  0  0  0  0  0  0  0  0  0
  -31.1292  -18.4608   20.5666 C   0  0  0  0  0  0  0  0  0  0  0  0
  -27.5277  -22.8264   16.7140 C   0  0  0  0  0  0  0  0  0  0  0  0
  -20.3560  -21.4101   21.7398 C   0  0  0  0  0  0  0  0  0  1  0  0
  -28.9615  -19.7453   20.3590 C   0  0  1  0  0  0  0  0  0  0  0  0
  -29.6953  -22.5579   17.9258 C   0  0  2  0  0  0  0  0  0  0  0  0
  -30.0520  -19.2447   21.3477 C   0  0  0  0  0  0  0  0  0  0  0  0
  -27.0973  -28.7707   22.5370 N   0  0  0  0  0  0  0  0  0  0  0  0
  -16.8798  -28.9009   22.0567 N   0  0  0  0  0  0  0  0  0  0  0  0
  -26.5956  -28.8497   21.2927 N   0  0  0  0  0  0  0  0  0  0  0  0
  -19.2247  -24.8000   23.1261 N   0  0  0  0  0  0  0  0  0  0  0  0
  -26.8470  -18.5455   19.8972 N   0  0  0  0  0  0  0  0  0  0  0  0
  -23.2830  -30.6245   21.9709 N   0  0  0  0  0  0  0  0  0  0  0  0
  -26.9016  -28.0638   19.0793 N   0  0  0  0  0  0  0  0  0  0  0  0
  -30.2373  -26.0562   21.3681 N   0  0  0  0  0  0  0  0  0  0  0  0
  -21.7286  -28.8817   22.3008 N   0  0  0  0  0  0  0  0  0  0  0  0
  -25.4058  -15.2232   20.3230 N   0  0  0  0  0  0  0  0  0  0  0  0
  -29.4704  -20.5964   19.2889 N   0  0  0  0  0  0  0  0  0  0  0  0
  -28.7533  -23.4841   17.2359 N   0  3  0  0  0  0  0  0  0  0  0  0
  -20.5264  -24.1771   21.2826 O   0  0  0  0  0  0  0  0  0  0  0  0
  -29.2843  -26.2997   19.2966 O   0  0  0  0  0  0  0  0  0  0  0  0
  -26.4648  -16.7738   21.7001 O   0  0  0  0  0  0  0  0  0  0  0  0
  -28.8648  -17.8123   18.9878 O   0  0  0  0  0  0  0  0  0  0  0  0
  -28.1459  -22.4364   19.7756 O   0  0  0  0  0  0  0  0  0  0  0  0
  -21.0166  -31.0169   21.7390 O   0  0  0  0  0  0  0  0  0  0  0  0
  -17.8242  -22.5985   25.7143 O   0  0  0  0  0  0  0  0  0  0  0  0
  -31.2842  -26.5951   26.8132 O   0  0  0  0  0  0  0  0  0  0  0  0
  -21.7704  -21.4014   21.9283 O   0  0  0  0  0  0  0  0  0  1  0  0
  -32.8375  -30.6749   30.1817 F   0  0  0  0  0  0  0  0  0  0  0  0
  -33.9605  -27.1447   27.2351 F   0  0  0  0  0  0  0  0  0  0  0  0
  1 40  2  0  0  0  0
  1 68  2  0  0  0  0
  2  3  1  0  0  0  0
  2  6  2  0  0  0  0
  3  7  2  0  0  0  0
  4  9  2  0  0  0  0
  4 19  1  0  0  0  0
  5 10  1  0  0  0  0
  5 19  2  0  0  0  0
  6 21  1  0  0  0  0
  7 23  1  0  0  0  0
  8 11  2  0  0  0  0
  8 22  1  0  0  0  0
  9 28  1  0  0  0  0
 10 28  2  0  0  0  0
 11 29  1  0  0  0  0
 12 13  2  0  0  0  0
 12 30  1  0  0  0  0
 13 31  1  0  0  0  0
 14 24  1  0  0  0  0
 14 29  2  0  0  0  0
 15 25  2  0  0  0  0
 15 26  1  0  0  0  0
 16 25  1  0  0  0  0
 16 27  2  0  0  0  0
 17 26  2  0  0  0  0
 17 27  1  0  0  0  0
 18 31  2  0  0  0  0
 18 32  1  0  0  0  0
 19 33  1  0  0  0  0
 20 33  1  0  0  0  0
 20 34  2  0  0  0  0
 20 41  1  0  0  0  0
 21 23  2  0  0  0  0
 21 46  1  0  0  0  0
 22 24  2  0  0  0  0
 22 47  1  0  0  0  0
 23 55  1  0  0  0  0
 24 48  1  0  0  0  0
 25 68  1  0  0  0  0
 26 70  1  0  0  0  0
 27 75  1  0  0  0  0
 28 86  1  0  0  0  0
 29 87  1  0  0  0  0
 30 32  2  0  0  0  0
 30 86  1  0  0  0  0
 31 88  1  0  0  0  0
 32 89  1  0  0  0  0
 33 67  2  0  0  0  0
 34 69  1  0  0  0  0
 34 73  1  0  0  0  0
 35 37  2  0  0  0  0
 35 38  1  0  0  0  0
 36 38  2  0  0  0  0
 36 70  1  0  0  0  0
 37 39  1  0  0  0  0
 37 63  1  0  0  0  0
 38 85  1  0  0  0  0
 39 70  1  0  0  0  0
 39 79  2  0  0  0  0
 41 74  1  0  0  0  0
 41 80  2  0  0  0  0
 42 56  1  0  0  0  0
 42 76  1  0  0  0  0
 42 81  2  0  0  0  0
 43 64  1  0  0  0  0
 43 71  1  0  0  0  0
 43 82  2  0  0  0  0
 44 65  1  0  0  0  0
 44 77  1  0  0  0  0
 44 83  2  0  0  0  0
 45 72  1  0  0  0  0
 45 75  1  0  0  0  0
 45 84  2  0  0  0  0
 46 49  1  0  0  0  0
 47 56  1  0  0  0  0
 48 71  1  0  0  0  0
 49 51  1  0  0  0  0
 50 52  1  0  0  0  0
 50 53  1  0  0  0  0
 51 55  1  0  0  0  0
 52 57  1  0  0  0  0
 53 72  1  0  0  0  0
 54 57  1  0  0  0  0
 54 72  1  0  0  0  0
 55 76  1  0  0  0  0
 56 71  1  0  0  0  0
 57 69  1  0  0  0  0
 58 65  1  0  0  0  0
 59 66  1  0  0  0  0
 60 66  1  0  0  0  0
 61 66  1  0  0  0  0
 62 78  1  0  0  0  0
 63 87  1  0  0  0  0
 64 66  1  0  0  0  0
 64 77  1  0  0  0  0
 65 78  1  0  0  0  0
 67 69  1  0  0  0  0
M  CHG  1  78   1
M  ISO  4  45 100  63 101  75 100  87 101
M  END
> <Batch ID>
0085

> <Smiles>
C=C=Nc1cc([100NH:0][100C:0](=O)N2CCCC(n3nc(-c4ccc(Oc5ccc(F)cc5F)cc4)c(C(N)=O)c3N)C2)cc(N2CC(=O)C=C([101CH2:1][101O:1]c3ccc4c(c3)CN(C(=O)C(NC(=O)C(C)NC)C(C)(C)C)C(C(=O)NC3CCCc5ccccc53)C4)C2=O)c1

> <Shape>
0.255

> <Color>
0.085

> <Negative vol penalty>
0.000

$$$$

  -OEChem-04052300153D

 82 90  0     1  0  0  0  0  0999 V2000
  -24.1317  -11.9884   20.6127 C   0  0  0  0  0  0  0  0  0  0  0  0
  -23.7353  -13.2687   20.9859 C   0  0  0  0  0  0  0  0  0  0  0  0
  -18.2467  -27.7011   22.9149 C   0  0  0  0  0  0  0  0  0  0  0  0
  -30.8639  -29.2031   23.7648 C   0  0  0  0  0  0  0  0  0  0  0  0
  -29.7864  -27.3657   24.9049 C   0  0  0  0  0  0  0  0  0  0  0  0
  -18.3104  -26.5614   22.1134 C   0  0  0  0  0  0  0  0  0  0  0  0
  -25.4845  -11.7041   20.4311 C   0  0  0  0  0  0  0  0  0  0  0  0
  -24.6915  -14.2650   21.1787 C   0  0  0  0  0  0  0  0  0  0  0  0
  -23.3729  -18.6628   19.0419 C   0  0  0  0  0  0  0  0  0  0  0  0
  -19.3724  -28.5108   23.0669 C   0  0  0  0  0  0  0  0  0  0  0  0
  -32.0367  -28.9586   24.4790 C   0  0  0  0  0  0  0  0  0  0  0  0
  -30.9593  -27.1211   25.6191 C   0  0  0  0  0  0  0  0  0  0  0  0
  -22.4348  -19.4426   19.7168 C   0  0  0  0  0  0  0  0  0  0  0  0
  -33.7813  -25.7847   27.4814 C   0  0  0  0  0  0  0  0  0  0  0  0
  -34.2050  -24.4611   27.6003 C   0  0  0  0  0  0  0  0  0  0  0  0
  -20.6256  -27.0406   21.6160 C   0  0  0  0  0  0  0  0  0  0  0  0
  -24.2140  -20.8217   20.5840 C   0  0  0  0  0  0  0  0  0  0  0  0
  -34.3639  -24.2960   25.1952 C   0  0  0  0  0  0  0  0  0  0  0  0
  -29.7386  -28.4068   23.9778 C   0  0  0  0  0  0  0  0  0  0  0  0
  -19.4999  -26.2311   21.4640 C   0  0  0  0  0  0  0  0  0  0  0  0
  -28.1553  -28.1070   22.0002 C   0  0  0  0  0  0  0  0  0  0  0  0
  -26.4571  -12.7000   20.6123 C   0  0  0  0  0  0  0  0  0  0  0  0
  -24.7417  -18.9504   19.1419 C   0  0  0  0  0  0  0  0  0  0  0  0
  -26.0587  -13.9934   21.0005 C   0  0  0  0  0  0  0  0  0  0  0  0
  -25.1672  -20.0455   19.9073 C   0  0  0  0  0  0  0  0  0  0  0  0
  -20.5618  -28.1805   22.4174 C   0  0  0  0  0  0  0  0  0  0  0  0
  -32.0845  -27.9175   25.4062 C   0  0  0  0  0  0  0  0  0  0  0  0
  -22.8554  -20.5205   20.4903 C   0  0  0  0  0  0  0  0  0  0  0  0
  -33.6489  -26.3640   26.2194 C   0  0  0  0  0  0  0  0  0  0  0  0
  -34.4964  -23.7168   26.4572 C   0  0  0  0  0  0  0  0  0  0  0  0
  -33.9402  -25.6196   25.0763 C   0  0  0  0  0  0  0  0  0  0  0  0
  -28.5266  -28.6593   23.2407 C   0  0  0  0  0  0  0  0  0  0  0  0
  -26.9270  -28.6598   21.7320 C   0  0  0  0  0  0  0  0  0  0  0  0
  -20.9869  -23.4302   21.3691 C   0  0  0  0  0  0  0  0  0  0  0  0
  -19.5665  -25.0141   20.6087 C   0  0  0  0  0  0  0  0  0  0  0  0
  -28.8580  -27.1772   21.1649 C   0  0  0  0  0  0  0  0  0  0  0  0
  -27.2863  -17.3948   20.2415 C   0  0  0  0  0  0  0  0  0  0  0  0
  -28.8851  -19.9374   19.0162 C   0  0  0  0  0  0  0  0  0  0  0  0
  -28.8212  -23.2125   18.0589 C   0  0  0  0  0  0  0  0  0  0  0  0
  -21.8110  -30.1688   23.3298 C   0  0  0  0  0  0  0  0  0  0  0  0
  -27.9110  -12.3328   20.4504 C   0  0  0  0  0  0  0  0  0  0  0  0
  -25.7390  -18.1158   18.3861 C   0  0  0  0  0  0  0  0  0  0  0  0
  -26.6237  -20.4086   20.0308 C   0  0  0  0  0  0  0  0  0  0  0  0
  -28.8324  -13.5417   20.3097 C   0  0  0  0  0  0  0  0  0  0  0  0
  -24.4581  -32.4552   23.9950 C   0  0  0  0  0  0  0  0  0  0  0  0
  -28.4989  -14.5927   21.3638 C   0  0  0  0  0  0  0  0  0  0  0  0
  -25.7220  -31.6261   23.7560 C   0  0  0  0  0  0  0  0  0  0  0  0
  -23.3467  -31.6239   24.6334 C   0  0  0  0  0  0  0  0  0  0  0  0
  -24.2819  -29.5504   23.6874 C   0  0  0  0  0  0  0  0  0  0  0  0
  -27.0643  -15.1074   21.1950 C   0  0  1  0  0  0  0  0  0  0  0  0
  -27.1453  -18.1879   18.9731 C   0  0  1  0  0  0  0  0  0  0  0  0
  -25.4074  -30.3283   22.9862 C   0  0  2  0  0  0  0  0  0  0  0  0
  -30.2912  -25.0230   17.1321 C   0  0  0  0  0  0  0  0  0  0  0  0
  -30.1846  -20.2812   21.7554 C   0  0  0  0  0  0  0  0  0  0  0  0
  -30.8691  -22.5880   21.0639 C   0  0  0  0  0  0  0  0  0  0  0  0
  -31.7324  -20.6067   19.8182 C   0  0  0  0  0  0  0  0  0  0  0  0
  -27.1447  -23.4938   15.6363 C   0  0  0  0  0  0  0  0  0  0  0  0
  -22.2701  -22.6562   21.3577 C   0  0  0  0  0  0  0  0  0  1  0  0
  -29.3128  -21.2861   19.5427 C   0  0  1  0  0  0  0  0  0  0  0  0
  -29.3157  -23.9042   16.8013 C   0  0  2  0  0  0  0  0  0  0  0  0
  -30.4974  -21.1828   20.5445 C   0  0  0  0  0  0  0  0  0  0  0  0
  -27.6085  -29.4987   23.7269 N   0  0  0  0  0  0  0  0  0  0  0  0
  -20.7691  -24.3592   20.4956 N   0  0  0  0  0  0  0  0  0  0  0  0
  -26.6481  -29.4781   22.7869 N   0  0  0  0  0  0  0  0  0  0  0  0
  -27.5609  -19.5585   19.2781 N   0  0  0  0  0  0  0  0  0  0  0  0
  -23.1006  -30.4128   23.8476 N   0  0  0  0  0  0  0  0  0  0  0  0
  -26.0690  -28.5211   20.6990 N   0  0  0  0  0  0  0  0  0  0  0  0
  -30.1085  -26.7092   21.5910 N   0  0  0  0  0  0  0  0  0  0  0  0
  -21.7051  -29.0032   22.5717 N   0  0  0  0  0  0  0  0  0  0  0  0
  -26.9917  -16.0521   20.1011 N   0  0  0  0  0  0  0  0  0  0  0  0
  -29.5903  -22.1118   18.3724 N   0  0  0  0  0  0  0  0  0  0  0  0
  -18.5539  -24.5807   19.9444 N   0  3  0  0  0  0  0  0  0  0  0  0
  -28.1705  -24.4870   16.0464 N   0  3  0  0  0  0  0  0  0  0  0  0
  -28.3981  -26.7861   20.0654 O   0  0  0  0  0  0  0  0  0  0  0  0
  -27.6377  -17.9590   21.2709 O   0  0  0  0  0  0  0  0  0  0  0  0
  -29.6940  -19.2487   18.3894 O   0  0  0  0  0  0  0  0  0  0  0  0
  -27.8521  -23.6111   18.7012 O   0  0  0  0  0  0  0  0  0  0  0  0
  -20.8764  -30.9512   23.5205 O   0  0  0  0  0  0  0  0  0  0  0  0
  -33.2289  -27.6784   26.1031 O   0  0  0  0  0  0  0  0  0  0  0  0
  -21.9419  -21.2829   21.1507 O   0  0  0  0  0  0  0  0  0  1  0  0
  -34.9047  -22.4462   26.5716 F   0  0  0  0  0  0  0  0  0  0  0  0
  -33.8160  -26.1710   23.8613 F   0  0  0  0  0  0  0  0  0  0  0  0
  1  2  1  0  0  0  0
  1  7  2  0  0  0  0
  2  8  2  0  0  0  0
  3  6  2  0  0  0  0
  3 10  1  0  0  0  0
  4 11  2  0  0  0  0
  4 19  1  0  0  0  0
  5 12  1  0  0  0  0
  5 19  2  0  0  0  0
  6 20  1  0  0  0  0
  7 22  1  0  0  0  0
  8 24  1  0  0  0  0
  9 13  2  0  0  0  0
  9 23  1  0  0  0  0
 10 26  2  0  0  0  0
 11 27  1  0  0  0  0
 12 27  2  0  0  0  0
 13 28  1  0  0  0  0
 14 15  2  0  0  0  0
 14 29  1  0  0  0  0
 15 30  1  0  0  0  0
 16 20  2  0  0  0  0
 16 26  1  0  0  0  0
 17 25  1  0  0  0  0
 17 28  2  0  0  0  0
 18 30  2  0  0  0  0
 18 31  1  0  0  0  0
 19 32  1  0  0  0  0
 20 35  1  0  0  0  0
 21 32  1  0  0  0  0
 21 33  2  0  0  0  0
 21 36  1  0  0  0  0
 22 24  2  0  0  0  0
 22 41  1  0  0  0  0
 23 25  2  0  0  0  0
 23 42  1  0  0  0  0
 24 50  1  0  0  0  0
 25 43  1  0  0  0  0
 26 69  1  0  0  0  0
 27 79  1  0  0  0  0
 28 80  1  0  0  0  0
 29 31  2  0  0  0  0
 29 79  1  0  0  0  0
 30 81  1  0  0  0  0
 31 82  1  0  0  0  0
 32 62  2  0  0  0  0
 33 64  1  0  0  0  0
 33 67  1  0  0  0  0
 34 58  1  0  0  0  0
 34 63  2  0  0  0  0
 35 63  1  0  0  0  0
 35 72  2  0  0  0  0
 36 68  1  0  0  0  0
 36 74  2  0  0  0  0
 37 51  1  0  0  0  0
 37 70  1  0  0  0  0
 37 75  2  0  0  0  0
 38 59  1  0  0  0  0
 38 65  1  0  0  0  0
 38 76  2  0  0  0  0
 39 60  1  0  0  0  0
 39 71  1  0  0  0  0
 39 77  2  0  0  0  0
 40 66  1  0  0  0  0
 40 69  1  0  0  0  0
 40 78  2  0  0  0  0
 41 44  1  0  0  0  0
 42 51  1  0  0  0  0
 43 65  1  0  0  0  0
 44 46  1  0  0  0  0
 45 47  1  0  0  0  0
 45 48  1  0  0  0  0
 46 50  1  0  0  0  0
 47 52  1  0  0  0  0
 48 66  1  0  0  0  0
 49 52  1  0  0  0  0
 49 66  1  0  0  0  0
 50 70  1  0  0  0  0
 51 65  1  0  0  0  0
 52 64  1  0  0  0  0
 53 60  1  0  0  0  0
 54 61  1  0  0  0  0
 55 61  1  0  0  0  0
 56 61  1  0  0  0  0
 57 73  1  0  0  0  0
 58 80  1  0  0  0  0
 59 61  1  0  0  0  0
 59 71  1  0  0  0  0
 60 73  1  0  0  0  0
 62 64  1  0  0  0  0
M  CHG  2  72   1  73   1
M  ISO  4  40 100  58 101  69 100  80 101
M  END
> <Batch ID>
0085

> <Smiles>
CNC(C)C(=O)NC(C(=O)N1Cc2cc([101O:1][101CH:1]=CNC(=N)c3cccc([100NH:0][100C:0](=O)N4CCCC(n5nc(-c6ccc(Oc7ccc(F)cc7F)cc6)c(C(N)=O)c5N)C4)c3)ccc2CC1C(=O)NC1CCCc2ccccc21)C(C)(C)C

> <Shape>
0.231

> <Color>
0.070

> <Negative vol penalty>
0.000

$$$$

  -OEChem-04052300153D

 87 96  0     1  0  0  0  0  0999 V2000
  -27.8563  -31.1467   28.0990 C   0  0  0  0  0  0  0  0  0  0  0  0
  -27.8648  -30.1964   27.0830 C   0  0  0  0  0  0  0  0  0  0  0  0
  -24.5459  -10.0423   22.4168 C   0  0  0  0  0  0  0  0  0  0  0  0
  -24.6059  -11.5642   24.2922 C   0  0  0  0  0  0  0  0  0  0  0  0
  -26.6971  -31.8761   28.3600 C   0  0  0  0  0  0  0  0  0  0  0  0
  -26.7137  -29.9743   26.3280 C   0  0  0  0  0  0  0  0  0  0  0  0
  -27.6766  -29.6518   21.3667 C   0  0  0  0  0  0  0  0  0  0  0  0
  -30.0369  -21.4590   21.1614 C   0  0  0  0  0  0  0  0  0  0  0  0
  -29.9937  -20.0842   20.9299 C   0  0  0  0  0  0  0  0  0  0  0  0
  -24.1483   -9.0104   23.2669 C   0  0  0  0  0  0  0  0  0  0  0  0
  -24.2083  -10.5323   25.1423 C   0  0  0  0  0  0  0  0  0  0  0  0
  -28.2072  -28.4508   20.8979 C   0  0  0  0  0  0  0  0  0  0  0  0
  -22.7683   -6.0617   24.8843 C   0  0  0  0  0  0  0  0  0  0  0  0
  -21.7261   -5.2374   24.4603 C   0  0  0  0  0  0  0  0  0  0  0  0
  -26.0158  -27.7857   20.1397 C   0  0  0  0  0  0  0  0  0  0  0  0
  -27.6259  -21.5555   21.0393 C   0  0  0  0  0  0  0  0  0  0  0  0
  -20.2579   -7.1527   24.3457 C   0  0  0  0  0  0  0  0  0  0  0  0
  -24.7748  -11.3192   22.9295 C   0  0  0  0  0  0  0  0  0  0  0  0
  -24.3537  -13.2800   21.3529 C   0  0  0  0  0  0  0  0  0  0  0  0
  -25.5341  -31.6696   27.6015 C   0  0  0  0  0  0  0  0  0  0  0  0
  -26.3074  -29.9245   21.2352 C   0  0  0  0  0  0  0  0  0  0  0  0
  -25.5375  -30.7007   26.5799 C   0  0  0  0  0  0  0  0  0  0  0  0
  -25.4708  -28.9920   20.6055 C   0  0  0  0  0  0  0  0  0  0  0  0
  -28.8531  -22.1947   21.2162 C   0  0  0  0  0  0  0  0  0  0  0  0
  -27.5826  -20.1807   20.8078 C   0  0  0  0  0  0  0  0  0  0  0  0
  -28.7665  -19.4451   20.7531 C   0  0  0  0  0  0  0  0  0  0  0  0
  -23.9795   -9.2554   24.6297 C   0  0  0  0  0  0  0  0  0  0  0  0
  -27.3763  -27.5162   20.2869 C   0  0  0  0  0  0  0  0  0  0  0  0
  -22.5553   -7.4316   25.0391 C   0  0  0  0  0  0  0  0  0  0  0  0
  -20.4709   -5.7828   24.1910 C   0  0  0  0  0  0  0  0  0  0  0  0
  -21.3001   -7.9770   24.7698 C   0  0  0  0  0  0  0  0  0  0  0  0
  -25.1861  -12.3855   22.0519 C   0  0  0  0  0  0  0  0  0  0  0  0
  -25.2226  -14.0927   20.6666 C   0  0  0  0  0  0  0  0  0  0  0  0
  -24.3694  -18.4695   21.1012 C   0  0  0  0  0  0  0  0  0  0  0  0
  -24.4615  -18.7134   19.6436 C   0  0  0  0  0  0  0  0  0  0  0  0
  -23.3384  -17.8545   21.6822 C   0  0  0  0  0  0  0  0  0  0  0  0
  -28.9801  -24.3245   20.3955 C   0  0  0  0  0  0  0  0  0  0  0  0
  -22.9229  -13.3685   21.3263 C   0  0  0  0  0  0  0  0  0  0  0  0
  -23.9210  -30.4571   23.2662 C   0  0  0  0  0  0  0  0  0  0  0  0
  -22.2616  -31.0718   20.5477 C   0  0  0  0  0  0  0  0  0  0  0  0
  -21.9374  -30.6038   17.1827 C   0  0  0  0  0  0  0  0  0  0  0  0
  -29.8441  -17.1899   20.4376 C   0  0  0  0  0  0  0  0  0  0  0  0
  -24.2912  -32.4488   27.9517 C   0  0  0  0  0  0  0  0  0  0  0  0
  -25.7554  -31.2362   21.7222 C   0  0  0  0  0  0  0  0  0  0  0  0
  -23.9976  -29.2454   20.4215 C   0  0  0  0  0  0  0  0  0  0  0  0
  -25.5972  -19.0223   21.7466 C   0  0  0  0  0  0  0  0  0  0  0  0
  -25.7457  -19.4239   19.3272 C   0  0  0  0  0  0  0  0  0  0  0  0
  -23.2251  -32.4181   26.8596 C   0  0  0  0  0  0  0  0  0  0  0  0
  -30.2114  -13.6877   19.9114 C   0  0  0  0  0  0  0  0  0  0  0  0
  -23.0265  -30.9951   26.3472 C   0  0  0  0  0  0  0  0  0  0  0  0
  -28.8682  -13.1103   20.3638 C   0  0  0  0  0  0  0  0  0  0  0  0
  -30.6461  -14.8636   20.7843 C   0  0  0  0  0  0  0  0  0  0  0  0
  -28.3066  -15.3555   21.3791 C   0  0  0  0  0  0  0  0  0  0  0  0
  -24.3161  -30.4486   25.7228 C   0  0  1  0  0  0  0  0  0  0  0  0
  -24.2555  -31.1882   21.9969 C   0  0  1  0  0  0  0  0  0  0  0  0
  -27.7958  -14.2101   20.4899 C   0  0  2  0  0  0  0  0  0  0  0  0
  -20.4606  -31.2017   15.2439 C   0  0  0  0  0  0  0  0  0  0  0  0
  -20.1940  -29.0395   21.4989 C   0  0  0  0  0  0  0  0  0  0  0  0
  -19.2868  -28.9748   19.1663 C   0  0  0  0  0  0  0  0  0  0  0  0
  -19.2300  -31.1032   20.4662 C   0  0  0  0  0  0  0  0  0  0  0  0
  -24.1428  -31.9941   15.7820 C   0  0  0  0  0  0  0  0  0  0  0  0
  -29.0252  -25.8182   20.5186 C   0  0  0  0  0  0  0  0  0  1  0  0
  -21.4402  -30.2466   19.5868 C   0  0  1  0  0  0  0  0  0  0  0  0
  -21.6936  -31.5828   16.0485 C   0  0  2  0  0  0  0  0  0  0  0  0
  -20.0651  -29.8351   20.1846 C   0  0  0  0  0  0  0  0  0  0  0  0
  -26.4842  -12.6085   21.8300 N   0  0  0  0  0  0  0  0  0  0  0  0
  -28.8971  -23.5797   21.4491 N   0  0  0  0  0  0  0  0  0  0  0  0
  -26.4740  -13.6524   20.9837 N   0  0  0  0  0  0  0  0  0  0  0  0
  -26.3287  -19.5541   20.6301 N   0  0  3  0  0  0  0  0  0  0  0  0
  -23.5042  -30.5398   20.9201 N   0  0  0  0  0  0  0  0  0  0  0  0
  -29.5821  -15.8675   20.8540 N   0  0  0  0  0  0  0  0  0  0  0  0
  -25.0308  -15.1337   19.8289 N   0  0  0  0  0  0  0  0  0  0  0  0
  -22.1827  -12.4556   22.0899 N   0  0  0  0  0  0  0  0  0  0  0  0
  -28.7477  -18.0478   20.5185 N   0  0  0  0  0  0  0  0  0  0  0  0
  -24.5064  -30.9952   24.3964 N   0  0  0  0  0  0  0  0  0  0  0  0
  -21.3480  -31.0246   18.3561 N   0  0  0  0  0  0  0  0  0  0  0  0
  -22.8652  -31.6111   15.1278 N   0  3  0  0  0  0  0  0  0  0  0  0
  -23.6210  -18.3859   18.8212 O   0  0  0  0  0  0  0  0  0  0  0  0
  -22.3183  -14.2211   20.6327 O   0  0  0  0  0  0  0  0  0  0  0  0
  -23.1850  -29.4782   23.2237 O   0  0  0  0  0  0  0  0  0  0  0  0
  -21.8201  -32.1521   20.9473 O   0  0  0  0  0  0  0  0  0  0  0  0
  -22.5828  -29.5675   17.0411 O   0  0  0  0  0  0  0  0  0  0  0  0
  -30.9516  -17.5292   20.0131 O   0  0  0  0  0  0  0  0  0  0  0  0
  -23.5913   -8.2488   25.4594 O   0  0  0  0  0  0  0  0  0  0  0  0
  -27.8914  -26.3429   19.8289 O   0  0  0  0  0  0  0  0  0  1  0  0
  -19.4706   -4.9913   23.7823 F   0  0  0  0  0  0  0  0  0  0  0  0
  -21.0898   -9.2924   24.9155 F   0  0  0  0  0  0  0  0  0  0  0  0
  1  2  1  0  0  0  0
  1  5  2  0  0  0  0
  2  6  2  0  0  0  0
  3 10  2  0  0  0  0
  3 18  1  0  0  0  0
  4 11  1  0  0  0  0
  4 18  2  0  0  0  0
  5 20  1  0  0  0  0
  6 22  1  0  0  0  0
  7 12  2  0  0  0  0
  7 21  1  0  0  0  0
  8  9  2  0  0  0  0
  8 24  1  0  0  0  0
  9 26  1  0  0  0  0
 10 27  1  0  0  0  0
 11 27  2  0  0  0  0
 12 28  1  0  0  0  0
 13 14  2  0  0  0  0
 13 29  1  0  0  0  0
 14 30  1  0  0  0  0
 15 23  1  0  0  0  0
 15 28  2  0  0  0  0
 16 24  2  0  0  0  0
 16 25  1  0  0  0  0
 17 30  2  0  0  0  0
 17 31  1  0  0  0  0
 18 32  1  0  0  0  0
 19 32  1  0  0  0  0
 19 33  2  0  0  0  0
 19 38  1  0  0  0  0
 20 22  2  0  0  0  0
 20 43  1  0  0  0  0
 21 23  2  0  0  0  0
 21 44  1  0  0  0  0
 22 54  1  0  0  0  0
 23 45  1  0  0  0  0
 24 67  1  0  0  0  0
 25 26  2  0  0  0  0
 25 69  1  0  0  0  0
 26 74  1  0  0  0  0
 27 84  1  0  0  0  0
 28 85  1  0  0  0  0
 29 31  2  0  0  0  0
 29 84  1  0  0  0  0
 30 86  1  0  0  0  0
 31 87  1  0  0  0  0
 32 66  2  0  0  0  0
 33 68  1  0  0  0  0
 33 72  1  0  0  0  0
 34 35  1  0  0  0  0
 34 36  2  0  0  0  0
 34 46  1  0  0  0  0
 35 47  1  0  0  0  0
 35 78  2  0  0  0  0
 37 62  1  0  0  0  0
 37 67  2  0  0  0  0
 38 73  1  0  0  0  0
 38 79  2  0  0  0  0
 39 55  1  0  0  0  0
 39 75  1  0  0  0  0
 39 80  2  0  0  0  0
 40 63  1  0  0  0  0
 40 70  1  0  0  0  0
 40 81  2  0  0  0  0
 41 64  1  0  0  0  0
 41 76  1  0  0  0  0
 41 82  2  0  0  0  0
 42 71  1  0  0  0  0
 42 74  1  0  0  0  0
 42 83  2  0  0  0  0
 43 48  1  0  0  0  0
 44 55  1  0  0  0  0
 45 70  1  0  0  0  0
 46 69  1  0  0  0  0
 47 69  1  0  0  0  0
 48 50  1  0  0  0  0
 49 51  1  0  0  0  0
 49 52  1  0  0  0  0
 50 54  1  0  0  0  0
 51 56  1  0  0  0  0
 52 71  1  0  0  0  0
 53 56  1  0  0  0  0
 53 71  1  0  0  0  0
 54 75  1  0  0  0  0
 55 70  1  0  0  0  0
 56 68  1  0  0  0  0
 57 64  1  0  0  0  0
 58 65  1  0  0  0  0
 59 65  1  0  0  0  0
 60 65  1  0  0  0  0
 61 77  1  0  0  0  0
 62 85  1  0  0  0  0
 63 65  1  0  0  0  0
 63 76  1  0  0  0  0
 64 77  1  0  0  0  0
 66 68  1  0  0  0  0
M  CHG  1  77   1
M  ISO  4  42 100  62 101  74 100  85 101
M  END
> <Batch ID>
0085

> <Smiles>
C=C1CN(c2cc(N=C[101CH2:1][101O:1]c3ccc4c(c3)CN(C(=O)C(NC(=O)C(C)NC)C(C)(C)C)C(C(=O)NC3CCCc5ccccc53)C4)ccc2[100NH:0][100C:0](=O)N2CCCC(n3nc(-c4ccc(Oc5ccc(F)cc5F)cc4)c(C(N)=O)c3N)C2)CC1=O

> <Shape>
0.282

> <Color>
0.133

> <Negative vol penalty>
0.000

$$$$

  -OEChem-04052300153D

 85 94  0     1  0  0  0  0  0999 V2000
  -24.6356  -38.2985   19.7176 C   0  0  0  0  0  0  0  0  0  0  0  0
  -25.5904  -37.3901   20.1634 C   0  0  0  0  0  0  0  0  0  0  0  0
  -22.8715  -10.2130   20.5788 C   0  0  0  0  0  0  0  0  0  0  0  0
  -24.6024   -8.7286   21.3772 C   0  0  0  0  0  0  0  0  0  0  0  0
  -23.3081  -38.1681   20.1233 C   0  0  0  0  0  0  0  0  0  0  0  0
  -25.2182  -36.3513   21.0160 C   0  0  0  0  0  0  0  0  0  0  0  0
  -26.2920  -29.4720   19.1683 C   0  0  0  0  0  0  0  0  0  0  0  0
  -29.5121  -19.3168   20.3610 C   0  0  0  0  0  0  0  0  0  0  0  0
  -27.1048  -19.1243   20.2917 C   0  0  0  0  0  0  0  0  0  0  0  0
  -29.6243  -17.9269   20.3263 C   0  0  0  0  0  0  0  0  0  0  0  0
  -27.2169  -17.7344   20.2570 C   0  0  0  0  0  0  0  0  0  0  0  0
  -21.9774   -9.6653   21.4987 C   0  0  0  0  0  0  0  0  0  0  0  0
  -23.7084   -8.1809   22.2972 C   0  0  0  0  0  0  0  0  0  0  0  0
  -26.6559  -28.1387   18.9787 C   0  0  0  0  0  0  0  0  0  0  0  0
  -21.1738   -5.9434   22.2792 C   0  0  0  0  0  0  0  0  0  0  0  0
  -21.1423   -4.5546   22.4044 C   0  0  0  0  0  0  0  0  0  0  0  0
  -25.5553  -27.5333   21.0451 C   0  0  0  0  0  0  0  0  0  0  0  0
  -21.7506   -4.7508   24.7343 C   0  0  0  0  0  0  0  0  0  0  0  0
  -24.1840   -9.7446   20.5180 C   0  0  0  0  0  0  0  0  0  0  0  0
  -24.9833  -10.3223   18.1654 C   0  0  0  0  0  0  0  0  0  0  0  0
  -22.9177  -37.1216   20.9735 C   0  0  0  0  0  0  0  0  0  0  0  0
  -25.5442  -29.8390   20.2906 C   0  0  0  0  0  0  0  0  0  0  0  0
  -23.8844  -36.2076   21.4345 C   0  0  0  0  0  0  0  0  0  0  0  0
  -25.1771  -28.8652   21.2340 C   0  0  0  0  0  0  0  0  0  0  0  0
  -28.2524  -19.9155   20.3438 C   0  0  0  0  0  0  0  0  0  0  0  0
  -28.4767  -17.1357   20.2742 C   0  0  0  0  0  0  0  0  0  0  0  0
  -22.3958   -8.6493   22.3579 C   0  0  0  0  0  0  0  0  0  0  0  0
  -26.2887  -27.1718   19.9149 C   0  0  0  0  0  0  0  0  0  0  0  0
  -21.4937   -6.7360   23.3816 C   0  0  0  0  0  0  0  0  0  0  0  0
  -21.4307   -3.9582   23.6319 C   0  0  0  0  0  0  0  0  0  0  0  0
  -21.7821   -6.1397   24.6091 C   0  0  0  0  0  0  0  0  0  0  0  0
  -25.1079  -10.3096   19.5675 C   0  0  0  0  0  0  0  0  0  0  0  0
  -26.1118  -10.9706   17.7263 C   0  0  0  0  0  0  0  0  0  0  0  0
  -27.7558  -24.1648   20.5444 C   0  0  0  0  0  0  0  0  0  0  0  0
  -28.6431  -23.4390   21.5082 C   0  0  0  0  0  0  0  0  0  0  0  0
  -23.9408   -9.7954   17.3340 C   0  0  0  0  0  0  0  0  0  0  0  0
  -23.8447  -32.5912   22.1914 C   0  0  0  0  0  0  0  0  0  0  0  0
  -22.0028  -30.1421   22.3320 C   0  0  0  0  0  0  0  0  0  0  0  0
  -20.0769  -27.3606   21.8947 C   0  0  0  0  0  0  0  0  0  0  0  0
  -29.7641  -14.9704   20.2497 C   0  0  0  0  0  0  0  0  0  0  0  0
  -21.4798  -37.0492   21.4228 C   0  0  0  0  0  0  0  0  0  0  0  0
  -25.1828  -31.2731   20.5669 C   0  0  0  0  0  0  0  0  0  0  0  0
  -24.4025  -29.3116   22.4438 C   0  0  0  0  0  0  0  0  0  0  0  0
  -27.3131  -23.3997   19.3398 C   0  0  0  0  0  0  0  0  0  0  0  0
  -29.1635  -22.0981   21.0684 C   0  0  0  0  0  0  0  0  0  0  0  0
  -21.0977  -35.7006   22.0275 C   0  0  0  0  0  0  0  0  0  0  0  0
  -30.6723  -11.7871   18.9387 C   0  0  0  0  0  0  0  0  0  0  0  0
  -22.1568  -35.2439   23.0257 C   0  0  0  0  0  0  0  0  0  0  0  0
  -29.3364  -11.0503   18.8179 C   0  0  0  0  0  0  0  0  0  0  0  0
  -26.9971  -21.9645   19.7359 C   0  0  0  0  0  0  0  0  0  0  0  0
  -30.7188  -12.6773   20.1793 C   0  0  0  0  0  0  0  0  0  0  0  0
  -28.2638  -12.8822   20.1892 C   0  0  0  0  0  0  0  0  0  0  0  0
  -23.5151  -35.0529   22.3402 C   0  0  1  0  0  0  0  0  0  0  0  0
  -23.8084  -31.4299   21.2420 C   0  0  1  0  0  0  0  0  0  0  0  0
  -28.1451  -12.0229   18.9199 C   0  0  2  0  0  0  0  0  0  0  0  0
  -17.8406  -26.3977   22.5023 C   0  0  0  0  0  0  0  0  0  0  0  0
  -23.0207  -29.5651   25.1489 C   0  0  0  0  0  0  0  0  0  0  0  0
  -21.2193  -27.8405   25.3701 C   0  0  0  0  0  0  0  0  0  0  0  0
  -20.6147  -30.2360   25.0258 C   0  0  0  0  0  0  0  0  0  0  0  0
  -19.2587  -27.1690   19.0570 C   0  0  0  0  0  0  0  0  0  0  0  0
  -21.5874  -28.9144   23.1024 C   0  0  1  0  0  0  0  0  0  0  0  0
  -18.6279  -27.1944   21.4737 C   0  0  2  0  0  0  0  0  0  0  0  0
  -21.6294  -29.1376   24.6406 C   0  0  0  0  0  0  0  0  0  0  0  0
  -26.2272  -10.9025   19.9912 N   0  0  0  0  0  0  0  0  0  0  0  0
  -27.4471  -25.3962   20.7729 N   0  0  0  0  0  0  0  0  0  1  0  0
  -26.8164  -11.2939   18.8485 N   0  0  0  0  0  0  0  0  0  0  0  0
  -28.1397  -21.3094   20.3805 N   0  0  3  0  0  0  0  0  0  0  0  0
  -23.3671  -30.2793   22.0485 N   0  0  0  0  0  0  0  0  0  0  0  0
  -29.5618  -13.5748   20.2063 N   0  0  0  0  0  0  0  0  0  0  0  0
  -26.5603  -11.2900   16.4937 N   0  0  0  0  0  0  0  0  0  0  0  0
  -22.8533   -9.1596   17.9485 N   0  0  0  0  0  0  0  0  0  0  0  0
  -28.5907  -15.7238   20.2389 N   0  0  0  0  0  0  0  0  0  0  0  0
  -23.5401  -33.8056   21.6067 N   0  0  0  0  0  0  0  0  0  0  0  0
  -20.2754  -28.5351   22.5893 N   0  0  0  0  0  0  0  0  0  0  0  0
  -18.5467  -26.4838   20.1663 N   0  3  0  0  0  0  0  0  0  0  0  0
  -28.9549  -23.9914   22.5528 O   0  0  0  0  0  0  0  0  0  0  0  0
  -23.9806   -9.8711   16.0826 O   0  0  0  0  0  0  0  0  0  0  0  0
  -24.1267  -32.4006   23.3686 O   0  0  0  0  0  0  0  0  0  0  0  0
  -21.1440  -30.9617   21.9945 O   0  0  0  0  0  0  0  0  0  0  0  0
  -20.9450  -26.5297   21.6368 O   0  0  0  0  0  0  0  0  0  0  0  0
  -30.8956  -15.4620   20.2656 O   0  0  0  0  0  0  0  0  0  0  0  0
  -21.5237   -8.1147   23.2558 O   0  0  0  0  0  0  0  0  0  0  0  0
  -26.6434  -25.8713   19.7213 O   0  0  0  0  0  0  0  0  0  1  0  0
  -21.3990   -2.6246   23.7524 F   0  0  0  0  0  0  0  0  0  0  0  0
  -22.0890   -6.8959   25.6720 F   0  0  0  0  0  0  0  0  0  0  0  0
  1  2  1  0  0  0  0
  1  5  2  0  0  0  0
  2  6  2  0  0  0  0
  3 12  2  0  0  0  0
  3 19  1  0  0  0  0
  4 13  1  0  0  0  0
  4 19  2  0  0  0  0
  5 21  1  0  0  0  0
  6 23  1  0  0  0  0
  7 14  2  0  0  0  0
  7 22  1  0  0  0  0
  8 10  2  0  0  0  0
  8 25  1  0  0  0  0
  9 11  1  0  0  0  0
  9 25  2  0  0  0  0
 10 26  1  0  0  0  0
 11 26  2  0  0  0  0
 12 27  1  0  0  0  0
 13 27  2  0  0  0  0
 14 28  1  0  0  0  0
 15 16  2  0  0  0  0
 15 29  1  0  0  0  0
 16 30  1  0  0  0  0
 17 24  1  0  0  0  0
 17 28  2  0  0  0  0
 18 30  2  0  0  0  0
 18 31  1  0  0  0  0
 19 32  1  0  0  0  0
 20 32  1  0  0  0  0
 20 33  2  0  0  0  0
 20 36  1  0  0  0  0
 21 23  2  0  0  0  0
 21 41  1  0  0  0  0
 22 24  2  0  0  0  0
 22 42  1  0  0  0  0
 23 53  1  0  0  0  0
 24 43  1  0  0  0  0
 25 67  1  0  0  0  0
 26 72  1  0  0  0  0
 27 82  1  0  0  0  0
 28 83  1  0  0  0  0
 29 31  2  0  0  0  0
 29 82  1  0  0  0  0
 30 84  1  0  0  0  0
 31 85  1  0  0  0  0
 32 64  2  0  0  0  0
 33 66  1  0  0  0  0
 33 70  1  0  0  0  0
 34 35  1  0  0  0  0
 34 44  1  0  0  0  0
 34 65  2  0  0  0  0
 35 45  1  0  0  0  0
 35 76  2  0  0  0  0
 36 71  1  0  0  0  0
 36 77  2  0  0  0  0
 37 54  1  0  0  0  0
 37 73  1  0  0  0  0
 37 78  2  0  0  0  0
 38 61  1  0  0  0  0
 38 68  1  0  0  0  0
 38 79  2  0  0  0  0
 39 62  1  0  0  0  0
 39 74  1  0  0  0  0
 39 80  2  0  0  0  0
 40 69  1  0  0  0  0
 40 72  1  0  0  0  0
 40 81  2  0  0  0  0
 41 46  1  0  0  0  0
 42 54  1  0  0  0  0
 43 68  1  0  0  0  0
 44 50  1  0  0  0  0
 45 67  1  0  0  0  0
 46 48  1  0  0  0  0
 47 49  1  0  0  0  0
 47 51  1  0  0  0  0
 48 53  1  0  0  0  0
 49 55  1  0  0  0  0
 50 67  1  0  0  0  0
 51 69  1  0  0  0  0
 52 55  1  0  0  0  0
 52 69  1  0  0  0  0
 53 73  1  0  0  0  0
 54 68  1  0  0  0  0
 55 66  1  0  0  0  0
 56 62  1  0  0  0  0
 57 63  1  0  0  0  0
 58 63  1  0  0  0  0
 59 63  1  0  0  0  0
 60 75  1  0  0  0  0
 61 63  1  0  0  0  0
 61 74  1  0  0  0  0
 62 75  1  0  0  0  0
 64 66  1  0  0  0  0
 65 83  1  0  0  0  0
M  CHG  1  75   1
M  ISO  4  40 100  65 101  72 100  83 101
M  END
> <Batch ID>
0085

> <Smiles>
CNC(C)C(=O)NC(C(=O)N1Cc2cc([101O:1][101N:1]=C3CCN(c4ccc([100NH:0][100C:0](=O)N5CCCC(n6nc(-c7ccc(Oc8ccc(F)cc8F)cc7)c(C(N)=O)c6N)C5)cc4)CC3=O)ccc2CC1C(=O)NC1CCCc2ccccc21)C(C)(C)C

> <Shape>
0.318

> <Color>
0.114

> <Negative vol penalty>
0.000

$$$$

  -OEChem-04052300153D

 85 94  0     1  0  0  0  0  0999 V2000
  -28.9639  -36.9426   19.5723 C   0  0  0  0  0  0  0  0  0  0  0  0
  -29.2454  -35.5809   19.5283 C   0  0  0  0  0  0  0  0  0  0  0  0
  -23.7423   -8.7798   19.7191 C   0  0  0  0  0  0  0  0  0  0  0  0
  -23.3146  -10.2918   21.5543 C   0  0  0  0  0  0  0  0  0  0  0  0
  -28.0157  -37.4286   20.4715 C   0  0  0  0  0  0  0  0  0  0  0  0
  -28.5796  -34.7045   20.3844 C   0  0  0  0  0  0  0  0  0  0  0  0
  -26.8870  -28.9458   19.1687 C   0  0  0  0  0  0  0  0  0  0  0  0
  -30.3953  -19.5896   20.7444 C   0  0  0  0  0  0  0  0  0  0  0  0
  -30.3182  -18.2230   20.4760 C   0  0  0  0  0  0  0  0  0  0  0  0
  -22.9823   -7.7964   20.3522 C   0  0  0  0  0  0  0  0  0  0  0  0
  -22.5544   -9.3084   22.1873 C   0  0  0  0  0  0  0  0  0  0  0  0
  -27.4637  -27.7140   19.4752 C   0  0  0  0  0  0  0  0  0  0  0  0
  -19.4395   -8.0224   21.9340 C   0  0  0  0  0  0  0  0  0  0  0  0
  -18.2158   -8.4048   22.4833 C   0  0  0  0  0  0  0  0  0  0  0  0
  -26.0344  -27.5330   21.4100 C   0  0  0  0  0  0  0  0  0  0  0  0
  -29.9283  -23.7396   21.6188 C   0  0  0  0  0  0  0  0  0  0  0  0
  -28.1865  -19.8968   19.8150 C   0  0  0  0  0  0  0  0  0  0  0  0
  -18.9762   -7.7024   24.6664 C   0  0  0  0  0  0  0  0  0  0  0  0
  -28.7817  -22.7660   19.9433 C   0  0  0  0  0  0  0  0  0  0  0  0
  -23.9086  -10.0275   20.3202 C   0  0  0  0  0  0  0  0  0  0  0  0
  -24.2382  -12.0175   18.7585 C   0  0  0  0  0  0  0  0  0  0  0  0
  -27.3309  -36.5564   21.3323 C   0  0  0  0  0  0  0  0  0  0  0  0
  -25.8856  -29.4864   19.9880 C   0  0  0  0  0  0  0  0  0  0  0  0
  -27.6223  -35.1794   21.2969 C   0  0  0  0  0  0  0  0  0  0  0  0
  -25.4448  -28.7706   21.1103 C   0  0  0  0  0  0  0  0  0  0  0  0
  -29.0890  -23.9859   20.5043 C   0  0  0  0  0  0  0  0  0  0  0  0
  -29.3294  -20.4265   20.4140 C   0  0  0  0  0  0  0  0  0  0  0  0
  -29.1753  -17.6933   19.8770 C   0  0  0  0  0  0  0  0  0  0  0  0
  -22.3883   -8.0607   21.5862 C   0  0  0  0  0  0  0  0  0  0  0  0
  -27.0395  -27.0088   20.5976 C   0  0  0  0  0  0  0  0  0  0  0  0
  -20.4316   -7.4799   22.7509 C   0  0  0  0  0  0  0  0  0  0  0  0
  -17.9841   -8.2449   23.8495 C   0  0  0  0  0  0  0  0  0  0  0  0
  -28.1094  -18.5302   19.5465 C   0  0  0  0  0  0  0  0  0  0  0  0
  -20.1999   -7.3199   24.1170 C   0  0  0  0  0  0  0  0  0  0  0  0
  -24.6941  -11.0436   19.6670 C   0  0  0  0  0  0  0  0  0  0  0  0
  -25.3628  -12.7347   18.4309 C   0  0  0  0  0  0  0  0  0  0  0  0
  -30.1085  -22.3767   21.7048 C   0  0  0  0  0  0  0  0  0  0  0  0
  -22.9162  -12.2530   18.2558 C   0  0  0  0  0  0  0  0  0  0  0  0
  -25.6076  -32.1157   21.7525 C   0  0  0  0  0  0  0  0  0  0  0  0
  -22.5629  -31.0654   22.1384 C   0  0  0  0  0  0  0  0  0  0  0  0
  -20.3795  -28.4425   22.1266 C   0  0  0  0  0  0  0  0  0  0  0  0
  -30.0699  -15.3384   19.8685 C   0  0  0  0  0  0  0  0  0  0  0  0
  -26.3485  -37.1343   22.3201 C   0  0  0  0  0  0  0  0  0  0  0  0
  -25.2548  -30.8037   19.6287 C   0  0  0  0  0  0  0  0  0  0  0  0
  -24.3587  -29.2979   22.0108 C   0  0  0  0  0  0  0  0  0  0  0  0
  -25.4165  -36.0921   22.9329 C   0  0  0  0  0  0  0  0  0  0  0  0
  -30.2487  -11.8158   19.3824 C   0  0  0  0  0  0  0  0  0  0  0  0
  -26.2069  -34.8670   23.3814 C   0  0  0  0  0  0  0  0  0  0  0  0
  -28.7820  -11.3809   19.3384 C   0  0  0  0  0  0  0  0  0  0  0  0
  -30.4762  -12.9426   20.3884 C   0  0  0  0  0  0  0  0  0  0  0  0
  -28.1333  -13.6744   20.1786 C   0  0  0  0  0  0  0  0  0  0  0  0
  -26.9031  -34.1939   22.1923 C   0  0  1  0  0  0  0  0  0  0  0  0
  -24.6034  -31.4990   20.8202 C   0  0  1  0  0  0  0  0  0  0  0  0
  -27.8430  -12.5857   19.1326 C   0  0  2  0  0  0  0  0  0  0  0  0
  -17.9630  -27.8892   22.5165 C   0  0  0  0  0  0  0  0  0  0  0  0
  -22.9997  -31.2904   25.1498 C   0  0  0  0  0  0  0  0  0  0  0  0
  -20.9702  -29.8622   25.4806 C   0  0  0  0  0  0  0  0  0  0  0  0
  -20.7628  -32.0803   24.3583 C   0  0  0  0  0  0  0  0  0  0  0  0
  -20.0361  -27.4644   19.3546 C   0  0  0  0  0  0  0  0  0  0  0  0
  -28.6201  -25.3274   20.0228 C   0  0  0  0  0  0  0  0  0  1  0  0
  -21.8595  -30.1650   23.1251 C   0  0  1  0  0  0  0  0  0  0  0  0
  -19.0140  -28.2715   21.4859 C   0  0  2  0  0  0  0  0  0  0  0  0
  -21.6699  -30.8402   24.5128 C   0  0  0  0  0  0  0  0  0  0  0  0
  -26.0061  -11.1311   19.9014 N   0  0  0  0  0  0  0  0  0  0  0  0
  -29.4072  -21.7951   20.6810 N   0  0  0  0  0  0  0  0  0  0  0  0
  -26.3843  -12.1685   19.1353 N   0  0  0  0  0  0  0  0  0  0  0  0
  -23.7774  -30.5931   21.6210 N   0  0  0  0  0  0  0  0  0  0  0  0
  -29.5547  -14.0510   20.1293 N   0  0  0  0  0  0  0  0  0  0  0  0
  -25.5678  -13.7879   17.6117 N   0  0  0  0  0  0  0  0  0  0  0  0
  -21.8763  -11.4230   18.6962 N   0  0  0  0  0  0  0  0  0  0  0  0
  -29.1001  -16.3049   19.6043 N   0  0  0  0  0  0  0  0  0  0  0  0
  -25.9547  -33.4130   21.4273 N   0  0  0  0  0  0  0  0  0  0  0  0
  -20.6145  -29.7528   22.4860 N   0  0  0  0  0  0  0  0  0  0  0  0
  -19.0602  -27.2064   20.4445 N   0  3  0  0  0  0  0  0  0  0  0  0
  -22.6677  -13.1617   17.4276 O   0  0  0  0  0  0  0  0  0  0  0  0
  -26.0347  -31.4632   22.6978 O   0  0  0  0  0  0  0  0  0  0  0  0
  -22.0499  -32.1447   21.8324 O   0  0  0  0  0  0  0  0  0  0  0  0
  -21.1581  -27.5067   22.2951 O   0  0  0  0  0  0  0  0  0  0  0  0
  -31.2833  -15.5607   19.8520 O   0  0  0  0  0  0  0  0  0  0  0  0
  -30.8077  -21.6525   22.5703 O   0  0  0  0  0  0  0  0  0  0  0  0
  -21.6463   -7.1014   22.2042 O   0  0  0  0  0  0  0  0  0  0  0  0
  -27.6012  -25.8066   20.8994 O   0  0  0  0  0  0  0  0  0  1  0  0
  -16.8094   -8.6136   24.3771 F   0  0  0  0  0  0  0  0  0  0  0  0
  -27.0067  -18.0322   18.9690 F   0  0  0  0  0  0  0  0  0  0  0  0
  -21.1496   -6.8004   24.9070 F   0  0  0  0  0  0  0  0  0  0  0  0
  1  2  1  0  0  0  0
  1  5  2  0  0  0  0
  2  6  2  0  0  0  0
  3 10  2  0  0  0  0
  3 20  1  0  0  0  0
  4 11  1  0  0  0  0
  4 20  2  0  0  0  0
  5 22  1  0  0  0  0
  6 24  1  0  0  0  0
  7 12  2  0  0  0  0
  7 23  1  0  0  0  0
  8  9  2  0  0  0  0
  8 27  1  0  0  0  0
  9 28  1  0  0  0  0
 10 29  1  0  0  0  0
 11 29  2  0  0  0  0
 12 30  1  0  0  0  0
 13 14  2  0  0  0  0
 13 31  1  0  0  0  0
 14 32  1  0  0  0  0
 15 25  1  0  0  0  0
 15 30  2  0  0  0  0
 16 26  1  0  0  0  0
 16 37  2  0  0  0  0
 17 27  2  0  0  0  0
 17 33  1  0  0  0  0
 18 32  2  0  0  0  0
 18 34  1  0  0  0  0
 19 26  2  0  0  0  0
 19 65  1  0  0  0  0
 20 35  1  0  0  0  0
 21 35  1  0  0  0  0
 21 36  2  0  0  0  0
 21 38  1  0  0  0  0
 22 24  2  0  0  0  0
 22 43  1  0  0  0  0
 23 25  2  0  0  0  0
 23 44  1  0  0  0  0
 24 52  1  0  0  0  0
 25 45  1  0  0  0  0
 26 60  1  0  0  0  0
 27 65  1  0  0  0  0
 28 33  2  0  0  0  0
 28 71  1  0  0  0  0
 29 81  1  0  0  0  0
 30 82  1  0  0  0  0
 31 34  2  0  0  0  0
 31 81  1  0  0  0  0
 32 83  1  0  0  0  0
 33 84  1  0  0  0  0
 34 85  1  0  0  0  0
 35 64  2  0  0  0  0
 36 66  1  0  0  0  0
 36 69  1  0  0  0  0
 37 65  1  0  0  0  0
 37 80  1  0  0  0  0
 38 70  1  0  0  0  0
 38 75  2  0  0  0  0
 39 53  1  0  0  0  0
 39 72  1  0  0  0  0
 39 76  2  0  0  0  0
 40 61  1  0  0  0  0
 40 67  1  0  0  0  0
 40 77  2  0  0  0  0
 41 62  1  0  0  0  0
 41 73  1  0  0  0  0
 41 78  2  0  0  0  0
 42 68  1  0  0  0  0
 42 71  1  0  0  0  0
 42 79  2  0  0  0  0
 43 46  1  0  0  0  0
 44 53  1  0  0  0  0
 45 67  1  0  0  0  0
 46 48  1  0  0  0  0
 47 49  1  0  0  0  0
 47 50  1  0  0  0  0
 48 52  1  0  0  0  0
 49 54  1  0  0  0  0
 50 68  1  0  0  0  0
 51 54  1  0  0  0  0
 51 68  1  0  0  0  0
 52 72  1  0  0  0  0
 53 67  1  0  0  0  0
 54 66  1  0  0  0  0
 55 62  1  0  0  0  0
 56 63  1  0  0  0  0
 57 63  1  0  0  0  0
 58 63  1  0  0  0  0
 59 74  1  0  0  0  0
 60 82  1  0  0  0  0
 61 63  1  0  0  0  0
 61 73  1  0  0  0  0
 62 74  1  0  0  0  0
 64 66  1  0  0  0  0
M  CHG  1  74   1
M  ISO  4  42 100  60 101  71 100  82 101
M  END
> <Batch ID>
0085

> <Smiles>
CNC(C)C(=O)NC(C(=O)N1Cc2cc([101O:1][101CH2:1]C3=CN(c4ccc([100NH:0][100C:0](=O)N5CCCC(n6nc(-c7ccc(Oc8ccc(F)cc8F)cc7)c(C(N)=O)c6N)C5)c(F)c4)C(=O)C3)ccc2CC1C(=O)NC1CCCc2ccccc21)C(C)(C)C

> <Shape>
0.308

> <Color>
0.109

> <Negative vol penalty>
0.000

$$$$

  -OEChem-04052300153D

 87 95  0     1  0  0  0  0  0999 V2000
  -27.0860  -35.6601   23.4190 C   0  0  0  0  0  0  0  0  0  0  0  0
  -27.4567  -34.3382   23.1947 C   0  0  0  0  0  0  0  0  0  0  0  0
  -29.1920  -14.0054   19.9022 C   0  0  0  0  0  0  0  0  0  0  0  0
  -27.8083  -12.1187   19.3000 C   0  0  0  0  0  0  0  0  0  0  0  0
  -27.6422  -18.3836   20.6252 C   0  0  0  0  0  0  0  0  0  0  0  0
  -27.6574  -20.3787   21.9878 C   0  0  0  0  0  0  0  0  0  0  0  0
  -25.7950  -35.9566   23.8544 C   0  0  0  0  0  0  0  0  0  0  0  0
  -26.5370  -33.3117   23.4067 C   0  0  0  0  0  0  0  0  0  0  0  0
  -26.5415  -29.8963   19.6677 C   0  0  0  0  0  0  0  0  0  0  0  0
  -28.4011  -19.0397   19.6561 C   0  0  0  0  0  0  0  0  0  0  0  0
  -28.4163  -21.0348   21.0186 C   0  0  0  0  0  0  0  0  0  0  0  0
  -30.2923  -13.1577   20.0301 C   0  0  0  0  0  0  0  0  0  0  0  0
  -28.9085  -11.2710   19.4278 C   0  0  0  0  0  0  0  0  0  0  0  0
  -27.5744  -28.9599   19.6620 C   0  0  0  0  0  0  0  0  0  0  0  0
  -30.6298   -9.7829   21.9286 C   0  0  0  0  0  0  0  0  0  0  0  0
  -30.4463   -8.5819   22.6138 C   0  0  0  0  0  0  0  0  0  0  0  0
  -26.0947  -27.3306   20.6495 C   0  0  0  0  0  0  0  0  0  0  0  0
  -31.0868   -7.3545   20.6338 C   0  0  0  0  0  0  0  0  0  0  0  0
  -27.9500  -13.4859   19.5372 C   0  0  0  0  0  0  0  0  0  0  0  0
  -27.2703  -19.0531   21.7910 C   0  0  0  0  0  0  0  0  0  0  0  0
  -26.3922  -15.0395   18.2460 C   0  0  0  0  0  0  0  0  0  0  0  0
  -24.8561  -34.9340   24.0626 C   0  0  0  0  0  0  0  0  0  0  0  0
  -25.2784  -29.5596   20.1753 C   0  0  0  0  0  0  0  0  0  0  0  0
  -25.2327  -33.5946   23.8466 C   0  0  0  0  0  0  0  0  0  0  0  0
  -25.0468  -28.2637   20.6582 C   0  0  0  0  0  0  0  0  0  0  0  0
  -28.7882  -20.3652   19.8528 C   0  0  0  0  0  0  0  0  0  0  0  0
  -30.1506  -11.7905   19.7929 C   0  0  0  0  0  0  0  0  0  0  0  0
  -27.3520  -27.6777   20.1556 C   0  0  0  0  0  0  0  0  0  0  0  0
  -31.0416   -9.7697   20.5960 C   0  0  0  0  0  0  0  0  0  0  0  0
  -30.6749   -7.3677   21.9664 C   0  0  0  0  0  0  0  0  0  0  0  0
  -31.2701   -8.5555   19.9486 C   0  0  0  0  0  0  0  0  0  0  0  0
  -26.8129  -14.3611   19.4055 C   0  0  0  0  0  0  0  0  0  0  0  0
  -25.2739  -15.7327   18.6405 C   0  0  0  0  0  0  0  0  0  0  0  0
  -26.4678  -18.3600   22.8149 C   0  0  0  0  0  0  0  0  0  0  0  0
  -26.9612  -15.0428   16.9300 C   0  0  0  0  0  0  0  0  0  0  0  0
  -23.4730  -30.6055   22.5732 C   0  0  0  0  0  0  0  0  0  0  0  0
  -21.2891  -28.5720   21.3013 C   0  0  0  0  0  0  0  0  0  0  0  0
  -29.5198  -22.2997   18.5415 C   0  0  0  0  0  0  0  0  0  0  0  0
  -29.0720  -24.6223   19.3147 C   0  0  0  0  0  0  0  0  0  0  0  0
  -20.6688  -25.7979   19.4128 C   0  0  0  0  0  0  0  0  0  0  0  0
  -26.1581  -16.1763   23.8863 C   0  0  0  0  0  0  0  0  0  0  0  0
  -23.4870  -35.2996   24.5790 C   0  0  0  0  0  0  0  0  0  0  0  0
  -24.1672  -30.5730   20.1498 C   0  0  0  0  0  0  0  0  0  0  0  0
  -23.7031  -27.8460   21.1953 C   0  0  0  0  0  0  0  0  0  0  0  0
  -22.4580  -34.1833   24.4201 C   0  0  0  0  0  0  0  0  0  0  0  0
  -23.6064  -14.0653   22.5634 C   0  0  0  0  0  0  0  0  0  0  0  0
  -23.0386  -32.8518   24.8857 C   0  0  0  0  0  0  0  0  0  0  0  0
  -23.0693  -14.8192   21.3503 C   0  0  0  0  0  0  0  0  0  0  0  0
  -23.9716  -15.0267   23.6857 C   0  0  0  0  0  0  0  0  0  0  0  0
  -24.4978  -16.8227   22.0547 C   0  0  0  0  0  0  0  0  0  0  0  0
  -24.2559  -32.4554   24.0415 C   0  0  1  0  0  0  0  0  0  0  0  0
  -23.0665  -30.2784   21.1642 C   0  0  1  0  0  0  0  0  0  0  0  0
  -23.9998  -15.9510   20.8816 C   0  0  1  0  0  0  0  0  0  0  0  0
  -30.3972  -22.8495   17.4789 C   0  0  0  0  0  0  0  0  0  0  0  0
  -18.7869  -24.3600   18.5833 C   0  0  0  0  0  0  0  0  0  0  0  0
  -21.0334  -27.3141   24.0694 C   0  0  0  0  0  0  0  0  0  0  0  0
  -19.9137  -25.3487   22.9963 C   0  0  0  0  0  0  0  0  0  0  0  0
  -18.8680  -27.6089   22.8534 C   0  0  0  0  0  0  0  0  0  0  0  0
  -28.3853  -17.1804   23.8887 C   0  0  0  0  0  0  0  0  0  0  0  0
  -21.3241  -26.3703   16.5840 C   0  0  0  0  0  0  0  0  0  0  0  0
  -27.9880  -25.3899   20.0234 C   0  0  0  0  0  0  0  0  0  1  0  0
  -20.9436  -27.1155   21.4967 C   0  0  1  0  0  0  0  0  0  0  0  0
  -19.6873  -25.5479   18.2821 C   0  0  2  0  0  0  0  0  0  0  0  0
  -20.2156  -26.8549   22.8457 C   0  0  0  0  0  0  0  0  0  0  0  0
  -26.0262  -14.6016   20.4578 N   0  0  0  0  0  0  0  0  0  0  0  0
  -25.0999  -15.4390   19.9610 N   0  0  0  0  0  0  0  0  0  0  0  0
  -22.6503  -28.8744   21.1549 N   0  0  0  0  0  0  0  0  0  0  0  0
  -24.9176  -16.0446   23.2309 N   0  0  0  0  0  0  0  0  0  0  0  0
  -24.4325  -16.5587   17.9832 N   0  0  0  0  0  0  0  0  0  0  0  0
  -28.1105  -14.2752   16.6971 N   0  0  0  0  0  0  0  0  0  0  0  0
  -23.8332  -31.9261   22.7626 N   0  0  0  0  0  0  0  0  0  0  0  0
  -28.7506  -23.2258   19.1342 N   0  0  0  0  0  0  0  0  0  0  0  0
  -20.1809  -26.7153   20.3192 N   0  0  0  0  0  0  0  0  0  0  0  0
  -27.0031  -17.1988   23.4078 N   0  0  0  0  0  0  0  0  0  0  0  0
  -29.5336  -21.0114   18.8985 N   0  3  0  0  0  0  0  0  0  0  0  0
  -20.4183  -25.2736   17.0127 N   0  3  0  0  0  0  0  0  0  0  0  0
  -25.3780  -18.8597   23.0930 O   0  0  0  0  0  0  0  0  0  0  0  0
  -26.4747  -15.7198   15.9927 O   0  0  0  0  0  0  0  0  0  0  0  0
  -23.4593  -29.7254   23.4258 O   0  0  0  0  0  0  0  0  0  0  0  0
  -20.3840  -29.4096   21.2722 O   0  0  0  0  0  0  0  0  0  0  0  0
  -30.1273  -25.0977   18.9208 O   0  0  0  0  0  0  0  0  0  0  0  0
  -21.7577  -25.2328   19.4867 O   0  0  0  0  0  0  0  0  0  0  0  0
  -26.4877  -15.4621   24.8400 O   0  0  0  0  0  0  0  0  0  0  0  0
  -31.2240  -10.9630   19.9173 O   0  0  0  0  0  0  0  0  0  0  0  0
  -28.3586  -26.7619   20.1517 O   0  0  0  0  0  0  0  0  0  1  0  0
  -30.5002   -6.2144   22.6250 F   0  0  0  0  0  0  0  0  0  0  0  0
  -31.6671   -8.5366   18.6688 F   0  0  0  0  0  0  0  0  0  0  0  0
  1  2  1  0  0  0  0
  1  7  2  0  0  0  0
  2  8  2  0  0  0  0
  3 12  2  0  0  0  0
  3 19  1  0  0  0  0
  4 13  1  0  0  0  0
  4 19  2  0  0  0  0
  5 10  2  0  0  0  0
  5 20  1  0  0  0  0
  6 11  1  0  0  0  0
  6 20  2  0  0  0  0
  7 22  1  0  0  0  0
  8 24  1  0  0  0  0
  9 14  2  0  0  0  0
  9 23  1  0  0  0  0
 10 26  1  0  0  0  0
 11 26  2  0  0  0  0
 12 27  1  0  0  0  0
 13 27  2  0  0  0  0
 14 28  1  0  0  0  0
 15 16  2  0  0  0  0
 15 29  1  0  0  0  0
 16 30  1  0  0  0  0
 17 25  1  0  0  0  0
 17 28  2  0  0  0  0
 18 30  2  0  0  0  0
 18 31  1  0  0  0  0
 19 32  1  0  0  0  0
 20 34  1  0  0  0  0
 21 32  1  0  0  0  0
 21 33  2  0  0  0  0
 21 35  1  0  0  0  0
 22 24  2  0  0  0  0
 22 42  1  0  0  0  0
 23 25  2  0  0  0  0
 23 43  1  0  0  0  0
 24 51  1  0  0  0  0
 25 44  1  0  0  0  0
 26 75  1  0  0  0  0
 27 84  1  0  0  0  0
 28 85  1  0  0  0  0
 29 31  2  0  0  0  0
 29 84  1  0  0  0  0
 30 86  1  0  0  0  0
 31 87  1  0  0  0  0
 32 65  2  0  0  0  0
 33 66  1  0  0  0  0
 33 69  1  0  0  0  0
 34 74  1  0  0  0  0
 34 77  2  0  0  0  0
 35 70  1  0  0  0  0
 35 78  2  0  0  0  0
 36 52  1  0  0  0  0
 36 71  1  0  0  0  0
 36 79  2  0  0  0  0
 37 62  1  0  0  0  0
 37 67  1  0  0  0  0
 37 80  2  0  0  0  0
 38 54  1  0  0  0  0
 38 72  1  0  0  0  0
 38 75  2  0  0  0  0
 39 61  1  0  0  0  0
 39 72  1  0  0  0  0
 39 81  2  0  0  0  0
 40 63  1  0  0  0  0
 40 73  1  0  0  0  0
 40 82  2  0  0  0  0
 41 68  1  0  0  0  0
 41 74  1  0  0  0  0
 41 83  2  0  0  0  0
 42 45  1  0  0  0  0
 43 52  1  0  0  0  0
 44 67  1  0  0  0  0
 45 47  1  0  0  0  0
 46 48  1  0  0  0  0
 46 49  1  0  0  0  0
 47 51  1  0  0  0  0
 48 53  1  0  0  0  0
 49 68  1  0  0  0  0
 50 53  1  0  0  0  0
 50 68  1  0  0  0  0
 51 71  1  0  0  0  0
 52 67  1  0  0  0  0
 53 66  1  0  0  0  0
 55 63  1  0  0  0  0
 56 64  1  0  0  0  0
 57 64  1  0  0  0  0
 58 64  1  0  0  0  0
 59 74  1  0  0  0  0
 60 76  1  0  0  0  0
 61 85  1  0  0  0  0
 62 64  1  0  0  0  0
 62 73  1  0  0  0  0
 63 76  1  0  0  0  0
 65 66  1  0  0  0  0
M  CHG  2  75   1  76   1
M  ISO  4  41 100  61 101  74 100  85 101
M  END
> <Batch ID>
0085

> <Smiles>
CNC(C)C(=O)NC(C(=O)N1Cc2cc([101O:1][101CH2:1]C(=O)NC(C)=Nc3ccc(C(=O)[100N:0](C)[100C:0](=O)N4CCCC(n5nc(-c6ccc(Oc7ccc(F)cc7F)cc6)c(C(N)=O)c5N)C4)cc3)ccc2CC1C(=O)NC1CCCc2ccccc21)C(C)(C)C

> <Shape>
0.280

> <Color>
0.084

> <Negative vol penalty>
0.000

$$$$

  -OEChem-04052300153D

 86 95  0     1  0  0  0  0  0999 V2000
  -20.0165  -23.7533   22.0737 C   0  0  0  0  0  0  0  0  0  0  0  0
  -21.1853  -24.1895   21.4581 C   0  0  0  0  0  0  0  0  0  0  0  0
  -25.2860  -13.6480   19.5819 C   0  0  0  0  0  0  0  0  0  0  0  0
  -26.2761  -12.7110   21.5766 C   0  0  0  0  0  0  0  0  0  0  0  0
  -32.0625  -22.1874   17.4768 C   0  0  0  0  0  0  0  0  0  0  0  0
  -30.1580  -20.7599   17.0618 C   0  0  0  0  0  0  0  0  0  0  0  0
  -19.0899  -24.6821   22.5455 C   0  0  0  0  0  0  0  0  0  0  0  0
  -21.4277  -25.5550   21.3129 C   0  0  0  0  0  0  0  0  0  0  0  0
  -26.1766  -26.8251   22.5295 C   0  0  0  0  0  0  0  0  0  0  0  0
  -31.2052  -23.2610   17.7178 C   0  0  0  0  0  0  0  0  0  0  0  0
  -29.3007  -21.8335   17.3029 C   0  0  0  0  0  0  0  0  0  0  0  0
  -24.2514  -12.7155   19.6575 C   0  0  0  0  0  0  0  0  0  0  0  0
  -25.2415  -11.7786   21.6522 C   0  0  0  0  0  0  0  0  0  0  0  0
  -27.1687  -26.5562   21.5877 C   0  0  0  0  0  0  0  0  0  0  0  0
  -21.5417  -10.3502   19.1222 C   0  0  0  0  0  0  0  0  0  0  0  0
  -21.1645   -9.7011   17.9467 C   0  0  0  0  0  0  0  0  0  0  0  0
  -27.1231  -28.8647   20.8893 C   0  0  0  0  0  0  0  0  0  0  0  0
  -23.3971   -8.8047   17.7252 C   0  0  0  0  0  0  0  0  0  0  0  0
  -26.2984  -13.6457   20.5414 C   0  0  0  0  0  0  0  0  0  0  0  0
  -31.5389  -20.9369   17.1487 C   0  0  0  0  0  0  0  0  0  0  0  0
  -27.4033  -15.8886   21.0476 C   0  0  0  0  0  0  0  0  0  0  0  0
  -19.3256  -26.0598   22.4147 C   0  0  0  0  0  0  0  0  0  0  0  0
  -25.6416  -28.1156   22.6511 C   0  0  0  0  0  0  0  0  0  0  0  0
  -20.5028  -26.5032   21.7822 C   0  0  0  0  0  0  0  0  0  0  0  0
  -26.1260  -29.1480   21.8352 C   0  0  0  0  0  0  0  0  0  0  0  0
  -29.8243  -23.0841   17.6309 C   0  0  0  0  0  0  0  0  0  0  0  0
  -24.2291  -11.7809   20.6927 C   0  0  0  0  0  0  0  0  0  0  0  0
  -27.6401  -27.5754   20.7655 C   0  0  0  0  0  0  0  0  0  0  0  0
  -22.8467  -10.2266   19.5992 C   0  0  0  0  0  0  0  0  0  0  0  0
  -22.0921   -8.9283   17.2482 C   0  0  0  0  0  0  0  0  0  0  0  0
  -23.7743   -9.4539   18.9007 C   0  0  0  0  0  0  0  0  0  0  0  0
  -27.3678  -14.6082   20.4636 C   0  0  0  0  0  0  0  0  0  0  0  0
  -28.6248  -16.3991   20.6820 C   0  0  0  0  0  0  0  0  0  0  0  0
  -27.3281  -26.5099   18.0058 C   0  0  0  0  0  0  0  0  0  0  0  0
  -28.3416  -26.3763   18.8694 C   0  0  0  0  0  0  0  0  0  1  0  0
  -29.2931  -25.2262   18.7683 C   0  0  0  0  0  0  0  0  0  0  0  0
  -32.4518  -19.7935   16.8918 C   0  0  0  0  0  0  0  0  0  0  0  0
  -26.4199  -16.5568   21.8490 C   0  0  0  0  0  0  0  0  0  0  0  0
  -22.7538  -29.3909   22.2793 C   0  0  0  0  0  0  0  0  0  0  0  0
  -24.2111  -32.0554   23.4190 C   0  0  0  0  0  0  0  0  0  0  0  0
  -27.1071  -33.8004   23.8823 C   0  0  0  0  0  0  0  0  0  0  0  0
  -32.5967  -17.3234   16.9313 C   0  0  0  0  0  0  0  0  0  0  0  0
  -18.2727  -27.0255   22.8979 C   0  0  0  0  0  0  0  0  0  0  0  0
  -24.5907  -28.3954   23.6902 C   0  0  0  0  0  0  0  0  0  0  0  0
  -25.5991  -30.5551   21.9399 C   0  0  0  0  0  0  0  0  0  0  0  0
  -27.0322  -25.5042   16.9509 C   0  0  0  0  0  0  0  0  0  0  0  0
  -18.7799  -28.4582   23.0408 C   0  0  0  0  0  0  0  0  0  0  0  0
  -32.6176  -14.1618   18.5125 C   0  0  0  0  0  0  0  0  0  0  0  0
  -19.5781  -28.8675   21.8070 C   0  0  0  0  0  0  0  0  0  0  0  0
  -31.2597  -14.1015   19.2174 C   0  0  0  0  0  0  0  0  0  0  0  0
  -27.5782  -24.1352   17.3285 C   0  0  0  0  0  0  0  0  0  0  0  0
  -32.5217  -14.8556   17.1545 C   0  0  0  0  0  0  0  0  0  0  0  0
  -30.5355  -16.1171   17.8768 C   0  0  0  0  0  0  0  0  0  0  0  0
  -20.8132  -27.9763   21.6284 C   0  0  1  0  0  0  0  0  0  0  0  0
  -23.7531  -29.6310   23.3754 C   0  0  1  0  0  0  0  0  0  0  0  0
  -30.5924  -15.4902   19.2792 C   0  0  1  0  0  0  0  0  0  0  0  0
  -27.9763  -35.9643   24.8094 C   0  0  0  0  0  0  0  0  0  0  0  0
  -23.1745  -33.5249   20.9541 C   0  0  0  0  0  0  0  0  0  0  0  0
  -24.8209  -35.3488   21.4350 C   0  0  0  0  0  0  0  0  0  0  0  0
  -23.0240  -34.8262   23.0845 C   0  0  0  0  0  0  0  0  0  0  0  0
  -28.7845  -32.4043   25.8814 C   0  0  0  0  0  0  0  0  0  0  0  0
  -24.9524  -33.2160   22.8006 C   0  0  1  0  0  0  0  0  0  0  0  0
  -27.6760  -34.5025   25.1021 C   0  0  2  0  0  0  0  0  0  0  0  0
  -24.0017  -34.2021   22.0650 C   0  0  0  0  0  0  0  0  0  0  0  0
  -28.4785  -14.3229   19.7788 N   0  0  0  0  0  0  0  0  0  0  0  0
  -29.2234  -15.4312   19.9302 N   0  0  0  0  0  0  0  0  0  0  0  0
  -28.9382  -24.1956   17.8807 N   0  0  0  0  0  0  0  0  0  0  0  0
  -24.5678  -30.7771   22.9669 N   0  0  0  0  0  0  0  0  0  0  0  0
  -31.8877  -16.1670   17.3007 N   0  0  0  0  0  0  0  0  0  0  0  0
  -29.2346  -17.5769   20.9334 N   0  0  0  0  0  0  0  0  0  0  0  0
  -25.2204  -15.8885   22.1297 N   0  0  0  0  0  0  0  0  0  0  0  0
  -31.9209  -18.5292   17.1491 N   0  0  0  0  0  0  0  0  0  0  0  0
  -21.8592  -28.3722   22.5468 N   0  0  0  0  0  0  0  0  0  0  0  0
  -25.7285  -33.8242   23.8759 N   0  0  0  0  0  0  0  0  0  0  0  0
  -28.9384  -33.8416   25.5385 N   0  3  0  0  0  0  0  0  0  0  0  0
  -30.2962  -25.2520   19.4825 O   0  0  0  0  0  0  0  0  0  0  0  0
  -33.5738  -20.0131   16.4436 O   0  0  0  0  0  0  0  0  0  0  0  0
  -26.5929  -17.7186   22.2891 O   0  0  0  0  0  0  0  0  0  0  0  0
  -22.7907  -30.0798   21.2665 O   0  0  0  0  0  0  0  0  0  0  0  0
  -23.3523  -32.2745   24.2770 O   0  0  0  0  0  0  0  0  0  0  0  0
  -27.8151  -33.2858   23.0194 O   0  0  0  0  0  0  0  0  0  0  0  0
  -33.7466  -17.2883   16.4821 O   0  0  0  0  0  0  0  0  0  0  0  0
  -23.2195  -10.8711   20.7669 O   0  0  0  0  0  0  0  0  0  0  0  0
  -28.6081  -27.3155   19.8449 O   0  0  0  0  0  0  0  0  0  1  0  0
  -21.7293   -8.3037   16.1202 F   0  0  0  0  0  0  0  0  0  0  0  0
  -25.0291   -9.3304   19.3547 F   0  0  0  0  0  0  0  0  0  0  0  0
  1  2  1  0  0  0  0
  1  7  2  0  0  0  0
  2  8  2  0  0  0  0
  3 12  2  0  0  0  0
  3 19  1  0  0  0  0
  4 13  1  0  0  0  0
  4 19  2  0  0  0  0
  5 10  2  0  0  0  0
  5 20  1  0  0  0  0
  6 11  1  0  0  0  0
  6 20  2  0  0  0  0
  7 22  1  0  0  0  0
  8 24  1  0  0  0  0
  9 14  2  0  0  0  0
  9 23  1  0  0  0  0
 10 26  1  0  0  0  0
 11 26  2  0  0  0  0
 12 27  1  0  0  0  0
 13 27  2  0  0  0  0
 14 28  1  0  0  0  0
 15 16  2  0  0  0  0
 15 29  1  0  0  0  0
 16 30  1  0  0  0  0
 17 25  1  0  0  0  0
 17 28  2  0  0  0  0
 18 30  2  0  0  0  0
 18 31  1  0  0  0  0
 19 32  1  0  0  0  0
 20 37  1  0  0  0  0
 21 32  1  0  0  0  0
 21 33  2  0  0  0  0
 21 38  1  0  0  0  0
 22 24  2  0  0  0  0
 22 43  1  0  0  0  0
 23 25  2  0  0  0  0
 23 44  1  0  0  0  0
 24 54  1  0  0  0  0
 25 45  1  0  0  0  0
 26 67  1  0  0  0  0
 27 83  1  0  0  0  0
 28 84  1  0  0  0  0
 29 31  2  0  0  0  0
 29 83  1  0  0  0  0
 30 85  1  0  0  0  0
 31 86  1  0  0  0  0
 32 65  2  0  0  0  0
 33 66  1  0  0  0  0
 33 70  1  0  0  0  0
 34 35  2  0  0  0  0
 34 46  1  0  0  0  0
 35 36  1  0  0  0  0
 35 84  1  0  0  0  0
 36 67  1  0  0  0  0
 36 76  2  0  0  0  0
 37 72  1  0  0  0  0
 37 77  2  0  0  0  0
 38 71  1  0  0  0  0
 38 78  2  0  0  0  0
 39 55  1  0  0  0  0
 39 73  1  0  0  0  0
 39 79  2  0  0  0  0
 40 62  1  0  0  0  0
 40 68  1  0  0  0  0
 40 80  2  0  0  0  0
 41 63  1  0  0  0  0
 41 74  1  0  0  0  0
 41 81  2  0  0  0  0
 42 69  1  0  0  0  0
 42 72  1  0  0  0  0
 42 82  2  0  0  0  0
 43 47  1  0  0  0  0
 44 55  1  0  0  0  0
 45 68  1  0  0  0  0
 46 51  1  0  0  0  0
 47 49  1  0  0  0  0
 48 50  1  0  0  0  0
 48 52  1  0  0  0  0
 49 54  1  0  0  0  0
 50 56  1  0  0  0  0
 51 67  1  0  0  0  0
 52 69  1  0  0  0  0
 53 56  1  0  0  0  0
 53 69  1  0  0  0  0
 54 73  1  0  0  0  0
 55 68  1  0  0  0  0
 56 66  1  0  0  0  0
 57 63  1  0  0  0  0
 58 64  1  0  0  0  0
 59 64  1  0  0  0  0
 60 64  1  0  0  0  0
 61 75  1  0  0  0  0
 62 64  1  0  0  0  0
 62 74  1  0  0  0  0
 63 75  1  0  0  0  0
 65 66  1  0  0  0  0
M  CHG  1  75   1
M  ISO  4  35 101  42 100  72 100  84 101
M  END
> <Batch ID>
0085

> <Smiles>
CNC(C)C(=O)NC(C(=O)N1Cc2cc([101O:1][101C:1]3=CCCN(c4ccc(C(=O)[100NH:0][100C:0](=O)N5CCCC(n6nc(-c7ccc(Oc8ccc(F)cc8F)cc7)c(C(N)=O)c6N)C5)cc4)C3=O)ccc2CC1C(=O)NC1CCCc2ccccc21)C(C)(C)C

> <Shape>
0.258

> <Color>
0.106

> <Negative vol penalty>
0.000

$$$$

  -OEChem-04052300153D

 86 95  0     1  0  0  0  0  0999 V2000
  -26.3684  -36.1887   16.4113 C   0  0  0  0  0  0  0  0  0  0  0  0
  -26.5846  -34.8148   16.3782 C   0  0  0  0  0  0  0  0  0  0  0  0
  -24.0392   -9.0964   20.3239 C   0  0  0  0  0  0  0  0  0  0  0  0
  -22.9863  -11.0500   21.2787 C   0  0  0  0  0  0  0  0  0  0  0  0
  -26.3714  -36.8644   17.6309 C   0  0  0  0  0  0  0  0  0  0  0  0
  -26.8050  -34.1160   17.5646 C   0  0  0  0  0  0  0  0  0  0  0  0
  -25.0163  -28.4037   18.8593 C   0  0  0  0  0  0  0  0  0  0  0  0
  -30.3455  -20.1509   20.7725 C   0  0  0  0  0  0  0  0  0  0  0  0
  -30.3006  -18.7641   20.9147 C   0  0  0  0  0  0  0  0  0  0  0  0
  -23.0230   -8.2947   20.8435 C   0  0  0  0  0  0  0  0  0  0  0  0
  -21.9700  -10.2483   21.7983 C   0  0  0  0  0  0  0  0  0  0  0  0
  -25.6842  -27.1805   18.8222 C   0  0  0  0  0  0  0  0  0  0  0  0
  -19.8280   -7.5068   20.0659 C   0  0  0  0  0  0  0  0  0  0  0  0
  -19.2734   -6.5392   19.2283 C   0  0  0  0  0  0  0  0  0  0  0  0
  -26.1555  -27.3732   21.1801 C   0  0  0  0  0  0  0  0  0  0  0  0
  -28.7023  -18.6305   19.1078 C   0  0  0  0  0  0  0  0  0  0  0  0
  -19.9564   -4.8111   20.7725 C   0  0  0  0  0  0  0  0  0  0  0  0
  -24.0209  -10.4741   20.5415 C   0  0  0  0  0  0  0  0  0  0  0  0
  -25.0976  -11.9326   18.7468 C   0  0  0  0  0  0  0  0  0  0  0  0
  -26.5823  -36.1721   18.8337 C   0  0  0  0  0  0  0  0  0  0  0  0
  -24.9221  -29.1273   20.0568 C   0  0  0  0  0  0  0  0  0  0  0  0
  -26.8121  -34.7833   18.8012 C   0  0  0  0  0  0  0  0  0  0  0  0
  -25.4835  -28.6041   21.2303 C   0  0  0  0  0  0  0  0  0  0  0  0
  -28.7472  -20.0174   18.9657 C   0  0  0  0  0  0  0  0  0  0  0  0
  -29.5687  -20.7776   19.7980 C   0  0  0  0  0  0  0  0  0  0  0  0
  -29.4791  -18.0038   20.0823 C   0  0  0  0  0  0  0  0  0  0  0  0
  -21.9883   -8.8706   21.5807 C   0  0  0  0  0  0  0  0  0  0  0  0
  -26.2565  -26.6664   19.9821 C   0  0  0  0  0  0  0  0  0  0  0  0
  -20.4469   -7.1267   21.2568 C   0  0  0  0  0  0  0  0  0  0  0  0
  -19.3376   -5.1913   19.5816 C   0  0  0  0  0  0  0  0  0  0  0  0
  -20.5110   -5.7788   21.6101 C   0  0  0  0  0  0  0  0  0  0  0  0
  -25.0707  -11.3027   20.0055 C   0  0  0  0  0  0  0  0  0  0  0  0
  -26.3005  -12.5951   18.7199 C   0  0  0  0  0  0  0  0  0  0  0  0
  -28.9951  -24.3621   19.6188 C   0  0  0  0  0  0  0  0  0  0  0  0
  -30.4354  -24.3120   19.3320 C   0  0  0  0  0  0  0  0  0  0  0  0
  -28.4929  -22.9899   19.8336 C   0  0  0  0  0  0  0  0  0  0  0  0
  -28.2491  -25.4801   19.6774 C   0  0  0  0  0  0  0  0  0  1  0  0
  -24.1224  -11.9201   17.6958 C   0  0  0  0  0  0  0  0  0  0  0  0
  -25.9224  -31.9803   21.0383 C   0  0  0  0  0  0  0  0  0  0  0  0
  -24.2001  -31.2408   23.6857 C   0  0  0  0  0  0  0  0  0  0  0  0
  -22.8330  -28.8252   25.6715 C   0  0  0  0  0  0  0  0  0  0  0  0
  -30.1420  -15.8167   21.1421 C   0  0  0  0  0  0  0  0  0  0  0  0
  -26.6237  -36.9531   20.1232 C   0  0  0  0  0  0  0  0  0  0  0  0
  -24.1751  -30.4324   20.0858 C   0  0  0  0  0  0  0  0  0  0  0  0
  -25.3928  -29.3320   22.5457 C   0  0  0  0  0  0  0  0  0  0  0  0
  -30.8785  -22.8790   19.3595 C   0  0  0  0  0  0  0  0  0  0  0  0
  -26.4923  -36.0800   21.3685 C   0  0  0  0  0  0  0  0  0  0  0  0
  -30.2785  -12.3276   21.8386 C   0  0  0  0  0  0  0  0  0  0  0  0
  -27.4087  -34.8648   21.2676 C   0  0  0  0  0  0  0  0  0  0  0  0
  -28.9380  -11.8018   21.3202 C   0  0  0  0  0  0  0  0  0  0  0  0
  -30.1397  -13.7136   22.4658 C   0  0  0  0  0  0  0  0  0  0  0  0
  -28.1485  -14.1921   21.0964 C   0  0  0  0  0  0  0  0  0  0  0  0
  -27.0302  -33.9864   20.0691 C   0  0  1  0  0  0  0  0  0  0  0  0
  -24.5847  -31.3295   21.2498 C   0  0  1  0  0  0  0  0  0  0  0  0
  -28.2495  -12.8265   20.3974 C   0  0  2  0  0  0  0  0  0  0  0  0
  -27.9043  -20.6624   17.9138 C   0  0  0  0  0  0  0  0  0  0  0  0
  -21.5157  -28.5262   27.7863 C   0  0  0  0  0  0  0  0  0  0  0  0
  -26.7056  -31.8252   25.3262 C   0  0  0  0  0  0  0  0  0  0  0  0
  -25.6433  -30.6227   27.2480 C   0  0  0  0  0  0  0  0  0  0  0  0
  -24.5800  -32.6826   26.3268 C   0  0  0  0  0  0  0  0  0  0  0  0
  -20.5996  -27.5208   24.2330 C   0  0  0  0  0  0  0  0  0  0  0  0
  -24.4926  -30.5386   24.9898 C   0  0  1  0  0  0  0  0  0  0  0  0
  -21.4475  -28.6825   26.2751 C   0  0  2  0  0  0  0  0  0  0  0  0
  -25.3589  -31.4043   25.9476 C   0  0  0  0  0  0  0  0  0  0  0  0
  -26.1694  -11.5433   20.7260 N   0  0  0  0  0  0  0  0  0  0  0  0
  -26.8979  -12.3317   19.9174 N   0  0  0  0  0  0  0  0  0  0  0  0
  -29.6274  -22.1637   19.6719 N   0  0  0  0  0  0  0  0  0  0  0  0
  -24.6576  -30.6073   22.5216 N   0  0  0  0  0  0  0  0  0  0  0  0
  -29.4830  -14.6319   21.5329 N   0  0  0  0  0  0  0  0  0  0  0  0
  -26.8950  -13.3713   17.7891 N   0  0  0  0  0  0  0  0  0  0  0  0
  -22.9422  -11.1891   17.8881 N   0  0  0  0  0  0  0  0  0  0  0  0
  -29.4344  -16.5950   20.2266 N   0  0  0  0  0  0  0  0  0  0  0  0
  -25.8605  -33.1909   20.3749 N   0  0  0  0  0  0  0  0  0  0  0  0
  -23.1999  -30.1481   25.5419 N   0  0  0  0  0  0  0  0  0  0  0  0
  -20.7567  -27.4891   25.7099 N   0  3  0  0  0  0  0  0  0  0  0  0
  -31.1507  -25.2734   19.1087 O   0  0  0  0  0  0  0  0  0  0  0  0
  -27.3429  -22.6801   20.0919 O   0  0  0  0  0  0  0  0  0  0  0  0
  -24.2998  -12.5254   16.6115 O   0  0  0  0  0  0  0  0  0  0  0  0
  -26.9356  -31.4259   21.4479 O   0  0  0  0  0  0  0  0  0  0  0  0
  -23.5821  -32.3083   23.6990 O   0  0  0  0  0  0  0  0  0  0  0  0
  -23.5226  -27.8597   25.3507 O   0  0  0  0  0  0  0  0  0  0  0  0
  -31.2641  -16.1051   21.5660 O   0  0  0  0  0  0  0  0  0  0  0  0
  -20.9963   -8.0886   22.0877 O   0  0  0  0  0  0  0  0  0  0  0  0
  -26.9096  -25.4731   19.9485 O   0  0  0  0  0  0  0  0  0  1  0  0
  -18.8036   -4.2623   18.7779 F   0  0  0  0  0  0  0  0  0  0  0  0
  -21.1032   -5.4076   22.7535 F   0  0  0  0  0  0  0  0  0  0  0  0
  1  2  1  0  0  0  0
  1  5  2  0  0  0  0
  2  6  2  0  0  0  0
  3 10  2  0  0  0  0
  3 18  1  0  0  0  0
  4 11  1  0  0  0  0
  4 18  2  0  0  0  0
  5 20  1  0  0  0  0
  6 22  1  0  0  0  0
  7 12  2  0  0  0  0
  7 21  1  0  0  0  0
  8  9  2  0  0  0  0
  8 25  1  0  0  0  0
  9 26  1  0  0  0  0
 10 27  1  0  0  0  0
 11 27  2  0  0  0  0
 12 28  1  0  0  0  0
 13 14  2  0  0  0  0
 13 29  1  0  0  0  0
 14 30  1  0  0  0  0
 15 23  1  0  0  0  0
 15 28  2  0  0  0  0
 16 24  1  0  0  0  0
 16 26  2  0  0  0  0
 17 30  2  0  0  0  0
 17 31  1  0  0  0  0
 18 32  1  0  0  0  0
 19 32  1  0  0  0  0
 19 33  2  0  0  0  0
 19 38  1  0  0  0  0
 20 22  2  0  0  0  0
 20 43  1  0  0  0  0
 21 23  2  0  0  0  0
 21 44  1  0  0  0  0
 22 53  1  0  0  0  0
 23 45  1  0  0  0  0
 24 25  2  0  0  0  0
 24 56  1  0  0  0  0
 25 67  1  0  0  0  0
 26 72  1  0  0  0  0
 27 83  1  0  0  0  0
 28 84  1  0  0  0  0
 29 31  2  0  0  0  0
 29 83  1  0  0  0  0
 30 85  1  0  0  0  0
 31 86  1  0  0  0  0
 32 65  2  0  0  0  0
 33 66  1  0  0  0  0
 33 70  1  0  0  0  0
 34 35  1  0  0  0  0
 34 36  1  0  0  0  0
 34 37  2  0  0  0  0
 35 46  1  0  0  0  0
 35 76  2  0  0  0  0
 36 67  1  0  0  0  0
 36 77  2  0  0  0  0
 37 84  1  0  0  0  0
 38 71  1  0  0  0  0
 38 78  2  0  0  0  0
 39 54  1  0  0  0  0
 39 73  1  0  0  0  0
 39 79  2  0  0  0  0
 40 62  1  0  0  0  0
 40 68  1  0  0  0  0
 40 80  2  0  0  0  0
 41 63  1  0  0  0  0
 41 74  1  0  0  0  0
 41 81  2  0  0  0  0
 42 69  1  0  0  0  0
 42 72  1  0  0  0  0
 42 82  2  0  0  0  0
 43 47  1  0  0  0  0
 44 54  1  0  0  0  0
 45 68  1  0  0  0  0
 46 67  1  0  0  0  0
 47 49  1  0  0  0  0
 48 50  1  0  0  0  0
 48 51  1  0  0  0  0
 49 53  1  0  0  0  0
 50 55  1  0  0  0  0
 51 69  1  0  0  0  0
 52 55  1  0  0  0  0
 52 69  1  0  0  0  0
 53 73  1  0  0  0  0
 54 68  1  0  0  0  0
 55 66  1  0  0  0  0
 57 63  1  0  0  0  0
 58 64  1  0  0  0  0
 59 64  1  0  0  0  0
 60 64  1  0  0  0  0
 61 75  1  0  0  0  0
 62 64  1  0  0  0  0
 62 74  1  0  0  0  0
 63 75  1  0  0  0  0
 65 66  1  0  0  0  0
M  CHG  1  75   1
M  ISO  4  37 101  42 100  72 100  84 101
M  END
> <Batch ID>
0085

> <Smiles>
CNC(C)C(=O)NC(C(=O)N1Cc2cc([101O:1][101CH:1]=C3C(=O)CN(c4ccc([100NH:0][100C:0](=O)N5CCCC(n6nc(-c7ccc(Oc8ccc(F)cc8F)cc7)c(C(N)=O)c6N)C5)cc4C)C3=O)ccc2CC1C(=O)NC1CCCc2ccccc21)C(C)(C)C

> <Shape>
0.290

> <Color>
0.106

> <Negative vol penalty>
0.000

$$$$

  -OEChem-04052300153D

 85 93  0     1  0  0  0  0  0999 V2000
  -29.6085  -35.7609   18.5190 C   0  0  0  0  0  0  0  0  0  0  0  0
  -29.6696  -34.4227   18.8945 C   0  0  0  0  0  0  0  0  0  0  0  0
  -23.3794  -10.1980   21.7791 C   0  0  0  0  0  0  0  0  0  0  0  0
  -22.8918  -12.5617   21.6677 C   0  0  0  0  0  0  0  0  0  0  0  0
  -28.7099  -36.6204   19.1496 C   0  0  0  0  0  0  0  0  0  0  0  0
  -28.8327  -33.9435   19.9016 C   0  0  0  0  0  0  0  0  0  0  0  0
  -26.6984  -29.5090   18.7077 C   0  0  0  0  0  0  0  0  0  0  0  0
  -22.4227  -10.0479   22.7830 C   0  0  0  0  0  0  0  0  0  0  0  0
  -21.9350  -12.4116   22.6716 C   0  0  0  0  0  0  0  0  0  0  0  0
  -27.4895  -28.3677   18.8319 C   0  0  0  0  0  0  0  0  0  0  0  0
  -19.0561   -9.8216   23.0018 C   0  0  0  0  0  0  0  0  0  0  0  0
  -18.1758   -8.7442   22.9025 C   0  0  0  0  0  0  0  0  0  0  0  0
  -30.1588  -19.7419   21.3813 C   0  0  0  0  0  0  0  0  0  0  0  0
  -28.7402  -18.0649   20.3753 C   0  0  0  0  0  0  0  0  0  0  0  0
  -26.4431  -27.8803   20.9501 C   0  0  0  0  0  0  0  0  0  0  0  0
  -30.9696  -17.4832   21.1022 C   0  0  0  0  0  0  0  0  0  0  0  0
  -18.9708   -7.8994   25.0218 C   0  0  0  0  0  0  0  0  0  0  0  0
  -23.6140  -11.4549   21.2215 C   0  0  0  0  0  0  0  0  0  0  0  0
  -28.9428  -19.3768   20.8036 C   0  0  0  0  0  0  0  0  0  0  0  0
  -24.4016  -11.5039   18.7956 C   0  0  0  0  0  0  0  0  0  0  0  0
  -27.8548  -36.1492   20.1583 C   0  0  0  0  0  0  0  0  0  0  0  0
  -25.7799  -29.8510   19.7106 C   0  0  0  0  0  0  0  0  0  0  0  0
  -27.9227  -34.7978   20.5473 C   0  0  0  0  0  0  0  0  0  0  0  0
  -25.6397  -29.0251   20.8350 C   0  0  0  0  0  0  0  0  0  0  0  0
  -31.1722  -18.7951   21.5305 C   0  0  0  0  0  0  0  0  0  0  0  0
  -29.7536  -17.1181   20.5246 C   0  0  0  0  0  0  0  0  0  0  0  0
  -21.7005  -11.1547   23.2292 C   0  0  0  0  0  0  0  0  0  0  0  0
  -27.3640  -27.5547   19.9546 C   0  0  0  0  0  0  0  0  0  0  0  0
  -19.8938   -9.9379   24.1111 C   0  0  0  0  0  0  0  0  0  0  0  0
  -18.1331   -7.7831   23.9125 C   0  0  0  0  0  0  0  0  0  0  0  0
  -19.8511   -8.9768   25.1211 C   0  0  0  0  0  0  0  0  0  0  0  0
  -24.6025  -11.6107   20.1848 C   0  0  0  0  0  0  0  0  0  0  0  0
  -25.6410  -11.7348   18.2507 C   0  0  0  0  0  0  0  0  0  0  0  0
  -28.1734  -24.0809   20.3038 C   0  0  0  0  0  0  0  0  0  0  0  0
  -27.5072  -25.2310   20.1788 C   0  0  0  0  0  0  0  0  0  1  0  0
  -27.8635  -20.3848   20.6461 C   0  0  0  0  0  0  0  0  0  0  0  0
  -23.2018  -11.2214   18.0632 C   0  0  0  0  0  0  0  0  0  0  0  0
  -27.4261  -22.7985   20.4087 C   0  0  0  0  0  0  0  0  0  0  0  0
  -25.4234  -32.3222   21.6778 C   0  0  0  0  0  0  0  0  0  0  0  0
  -22.6688  -30.7999   22.4636 C   0  0  0  0  0  0  0  0  0  0  0  0
  -20.9150  -27.8761   22.6110 C   0  0  0  0  0  0  0  0  0  0  0  0
  -30.4487  -14.7238   20.1630 C   0  0  0  0  0  0  0  0  0  0  0  0
  -26.9331  -37.1267   20.8438 C   0  0  0  0  0  0  0  0  0  0  0  0
  -24.9150  -31.0709   19.5490 C   0  0  0  0  0  0  0  0  0  0  0  0
  -24.6541  -29.3371   21.9303 C   0  0  0  0  0  0  0  0  0  0  0  0
  -25.8185  -36.4555   21.6422 C   0  0  0  0  0  0  0  0  0  0  0  0
  -30.3065  -11.2894   19.2350 C   0  0  0  0  0  0  0  0  0  0  0  0
  -26.3803  -35.3221   22.4946 C   0  0  0  0  0  0  0  0  0  0  0  0
  -28.8090  -10.9739   19.2409 C   0  0  0  0  0  0  0  0  0  0  0  0
  -30.6866  -12.2577   20.3538 C   0  0  0  0  0  0  0  0  0  0  0  0
  -28.4036  -13.1823   20.4010 C   0  0  0  0  0  0  0  0  0  0  0  0
  -27.0138  -34.2347   21.6183 C   0  0  1  0  0  0  0  0  0  0  0  0
  -24.3776  -31.6022   20.8743 C   0  0  1  0  0  0  0  0  0  0  0  0
  -27.9619  -12.2615   19.2517 C   0  0  2  0  0  0  0  0  0  0  0  0
  -18.7023  -26.9407   23.3367 C   0  0  0  0  0  0  0  0  0  0  0  0
  -23.5635  -30.9504   25.3768 C   0  0  0  0  0  0  0  0  0  0  0  0
  -21.8445  -29.2136   25.9217 C   0  0  0  0  0  0  0  0  0  0  0  0
  -21.1359  -31.4228   25.0053 C   0  0  0  0  0  0  0  0  0  0  0  0
  -20.2599  -26.9856   19.8657 C   0  0  0  0  0  0  0  0  0  0  0  0
  -22.2766  -29.7576   23.4828 C   0  0  1  0  0  0  0  0  0  0  0  0
  -19.5010  -27.5270   22.1829 C   0  0  2  0  0  0  0  0  0  0  0  0
  -22.2252  -30.3310   24.9271 C   0  0  0  0  0  0  0  0  0  0  0  0
  -25.8699  -11.8876   20.5028 N   0  0  0  0  0  0  0  0  0  0  0  0
  -26.4765  -11.9568   19.3055 N   0  0  0  0  0  0  0  0  0  0  0  0
  -23.8356  -30.5442   21.7293 N   0  0  0  0  0  0  0  0  0  0  0  0
  -29.8457  -13.4555   20.2987 N   0  0  0  0  0  0  0  0  0  0  0  0
  -32.4020  -19.1641   22.1141 N   0  0  0  0  0  0  0  0  0  0  0  0
  -26.0868  -11.7675   16.9768 N   0  0  0  0  0  0  0  0  0  0  0  0
  -22.0159  -11.0098   18.7795 N   0  0  0  0  0  0  0  0  0  0  0  0
  -29.5477  -15.7856   20.0888 N   0  0  0  0  0  0  0  0  0  0  0  0
  -28.2858  -21.7088   20.5324 N   0  0  0  0  0  0  0  0  0  0  0  0
  -25.9890  -33.4018   21.0265 N   0  0  0  0  0  0  0  0  0  0  0  0
  -21.0152  -29.1889   23.0204 N   0  0  0  0  0  0  0  0  0  0  0  0
  -19.5263  -26.5308   21.0748 N   0  3  0  0  0  0  0  0  0  0  0  0
  -26.6933  -20.0125   20.6519 O   0  0  0  0  0  0  0  0  0  0  0  0
  -23.1853  -11.1423   16.8114 O   0  0  0  0  0  0  0  0  0  0  0  0
  -26.2006  -22.7477   20.3829 O   0  0  0  0  0  0  0  0  0  0  0  0
  -25.6959  -31.9284   22.8058 O   0  0  0  0  0  0  0  0  0  0  0  0
  -21.9621  -31.8005   22.3191 O   0  0  0  0  0  0  0  0  0  0  0  0
  -21.8374  -27.0642   22.5883 O   0  0  0  0  0  0  0  0  0  0  0  0
  -31.6731  -14.8557   20.0888 O   0  0  0  0  0  0  0  0  0  0  0  0
  -20.7667  -11.0086   24.2086 O   0  0  0  0  0  0  0  0  0  0  0  0
  -28.1354  -26.4405   20.0787 O   0  0  0  0  0  0  0  0  0  1  0  0
  -17.2867   -6.7494   23.8177 F   0  0  0  0  0  0  0  0  0  0  0  0
  -20.6526   -9.0838   26.1897 F   0  0  0  0  0  0  0  0  0  0  0  0
  1  2  1  0  0  0  0
  1  5  2  0  0  0  0
  2  6  2  0  0  0  0
  3  8  2  0  0  0  0
  3 18  1  0  0  0  0
  4  9  1  0  0  0  0
  4 18  2  0  0  0  0
  5 21  1  0  0  0  0
  6 23  1  0  0  0  0
  7 10  2  0  0  0  0
  7 22  1  0  0  0  0
  8 27  1  0  0  0  0
  9 27  2  0  0  0  0
 10 28  1  0  0  0  0
 11 12  2  0  0  0  0
 11 29  1  0  0  0  0
 12 30  1  0  0  0  0
 13 19  1  0  0  0  0
 13 25  2  0  0  0  0
 14 19  2  0  0  0  0
 14 26  1  0  0  0  0
 15 24  1  0  0  0  0
 15 28  2  0  0  0  0
 16 25  1  0  0  0  0
 16 26  2  0  0  0  0
 17 30  2  0  0  0  0
 17 31  1  0  0  0  0
 18 32  1  0  0  0  0
 19 36  1  0  0  0  0
 20 32  1  0  0  0  0
 20 33  2  0  0  0  0
 20 37  1  0  0  0  0
 21 23  2  0  0  0  0
 21 43  1  0  0  0  0
 22 24  2  0  0  0  0
 22 44  1  0  0  0  0
 23 52  1  0  0  0  0
 24 45  1  0  0  0  0
 25 67  1  0  0  0  0
 26 70  1  0  0  0  0
 27 82  1  0  0  0  0
 28 83  1  0  0  0  0
 29 31  2  0  0  0  0
 29 82  1  0  0  0  0
 30 84  1  0  0  0  0
 31 85  1  0  0  0  0
 32 63  2  0  0  0  0
 33 64  1  0  0  0  0
 33 68  1  0  0  0  0
 34 35  2  0  0  0  0
 34 38  1  0  0  0  0
 35 83  1  0  0  0  0
 36 71  1  0  0  0  0
 36 75  2  0  0  0  0
 37 69  1  0  0  0  0
 37 76  2  0  0  0  0
 38 71  1  0  0  0  0
 38 77  2  0  0  0  0
 39 53  1  0  0  0  0
 39 72  1  0  0  0  0
 39 78  2  0  0  0  0
 40 60  1  0  0  0  0
 40 65  1  0  0  0  0
 40 79  2  0  0  0  0
 41 61  1  0  0  0  0
 41 73  1  0  0  0  0
 41 80  2  0  0  0  0
 42 66  1  0  0  0  0
 42 70  1  0  0  0  0
 42 81  2  0  0  0  0
 43 46  1  0  0  0  0
 44 53  1  0  0  0  0
 45 65  1  0  0  0  0
 46 48  1  0  0  0  0
 47 49  1  0  0  0  0
 47 50  1  0  0  0  0
 48 52  1  0  0  0  0
 49 54  1  0  0  0  0
 50 66  1  0  0  0  0
 51 54  1  0  0  0  0
 51 66  1  0  0  0  0
 52 72  1  0  0  0  0
 53 65  1  0  0  0  0
 54 64  1  0  0  0  0
 55 61  1  0  0  0  0
 56 62  1  0  0  0  0
 57 62  1  0  0  0  0
 58 62  1  0  0  0  0
 59 74  1  0  0  0  0
 60 62  1  0  0  0  0
 60 73  1  0  0  0  0
 61 74  1  0  0  0  0
 63 64  1  0  0  0  0
M  CHG  1  74   1
M  ISO  4  35 101  42 100  70 100  83 101
M  END
> <Batch ID>
0085

> <Smiles>
CNC(C)C(=O)NC(C(=O)N1Cc2cc([101O:1][101CH:1]=CC(=O)NC(=O)c3cc(N)cc([100NH:0][100C:0](=O)N4CCCC(n5nc(-c6ccc(Oc7ccc(F)cc7F)cc6)c(C(N)=O)c5N)C4)c3)ccc2CC1C(=O)NC1CCCc2ccccc21)C(C)(C)C

> <Shape>
0.273

> <Color>
0.104

> <Negative vol penalty>
0.000

$$$$

  -OEChem-04052300153D

 86 95  0     1  0  0  0  0  0999 V2000
  -19.7531  -34.2552   21.4934 C   0  0  0  0  0  0  0  0  0  0  0  0
  -21.0106  -33.8094   21.0992 C   0  0  0  0  0  0  0  0  0  0  0  0
  -33.5495  -21.5400   18.4035 C   0  0  0  0  0  0  0  0  0  0  0  0
  -27.3864  -11.7722   21.5411 C   0  0  0  0  0  0  0  0  0  0  0  0
  -27.3555  -12.6077   19.2743 C   0  0  0  0  0  0  0  0  0  0  0  0
  -19.0677  -33.5935   22.5113 C   0  0  0  0  0  0  0  0  0  0  0  0
  -21.5839  -32.7022   21.7236 C   0  0  0  0  0  0  0  0  0  0  0  0
  -25.1707  -28.4648   19.1380 C   0  0  0  0  0  0  0  0  0  0  0  0
  -33.1624  -22.8739   18.2753 C   0  0  0  0  0  0  0  0  0  0  0  0
  -32.8108  -20.6737   19.2094 C   0  0  0  0  0  0  0  0  0  0  0  0
  -26.5364  -10.7309   21.1688 C   0  0  0  0  0  0  0  0  0  0  0  0
  -26.5055  -11.5663   18.9021 C   0  0  0  0  0  0  0  0  0  0  0  0
  -26.5546  -28.2991   19.1077 C   0  0  0  0  0  0  0  0  0  0  0  0
  -23.2363  -10.2998   20.5789 C   0  0  0  0  0  0  0  0  0  0  0  0
  -22.1598  -10.0116   21.4178 C   0  0  0  0  0  0  0  0  0  0  0  0
  -26.4069  -26.7749   20.9716 C   0  0  0  0  0  0  0  0  0  0  0  0
  -31.2978  -22.4753   19.7591 C   0  0  0  0  0  0  0  0  0  0  0  0
  -23.0069   -7.7714   21.7353 C   0  0  0  0  0  0  0  0  0  0  0  0
  -27.7959  -12.7107   20.5938 C   0  0  0  0  0  0  0  0  0  0  0  0
  -30.0812  -13.7845   20.9575 C   0  0  0  0  0  0  0  0  0  0  0  0
  -19.6287  -32.4718   23.1419 C   0  0  0  0  0  0  0  0  0  0  0  0
  -24.3943  -27.7941   20.0939 C   0  0  0  0  0  0  0  0  0  0  0  0
  -20.9059  -32.0257   22.7518 C   0  0  0  0  0  0  0  0  0  0  0  0
  -25.0130  -26.9318   21.0103 C   0  0  0  0  0  0  0  0  0  0  0  0
  -32.0366  -23.3416   18.9532 C   0  0  0  0  0  0  0  0  0  0  0  0
  -31.6849  -21.1414   19.8872 C   0  0  0  0  0  0  0  0  0  0  0  0
  -26.0959  -10.6279   19.8494 C   0  0  0  0  0  0  0  0  0  0  0  0
  -27.1733  -27.4563   20.0265 C   0  0  0  0  0  0  0  0  0  0  0  0
  -24.1981   -9.3238   20.3181 C   0  0  0  0  0  0  0  0  0  0  0  0
  -22.0451   -8.7474   21.9960 C   0  0  0  0  0  0  0  0  0  0  0  0
  -24.0834   -8.0596   20.8963 C   0  0  0  0  0  0  0  0  0  0  0  0
  -28.6736  -13.7870   20.9778 C   0  0  0  0  0  0  0  0  0  0  0  0
  -30.4333  -15.0320   21.4116 C   0  0  0  0  0  0  0  0  0  0  0  0
  -31.6791  -26.9495   18.5316 C   0  0  0  0  0  0  0  0  0  0  0  0
  -30.4034  -26.5966   18.7075 C   0  0  0  0  0  0  0  0  0  0  0  0
  -32.5083  -25.7269   18.5930 C   0  0  0  0  0  0  0  0  0  0  0  0
  -30.3537  -25.1327   18.9094 C   0  0  0  0  0  0  0  0  0  0  0  0
  -30.9892  -12.7473   20.5633 C   0  0  0  0  0  0  0  0  0  0  0  0
  -22.4896  -28.6990   22.4724 C   0  0  0  0  0  0  0  0  0  0  0  0
  -21.8647  -25.5216   22.6619 C   0  0  0  0  0  0  0  0  0  0  0  0
  -22.8904  -22.3254   22.0464 C   0  0  0  0  0  0  0  0  0  0  0  0
  -29.7927  -20.5630   21.4464 C   0  0  0  0  0  0  0  0  0  0  0  0
  -18.8702  -31.8179   24.2696 C   0  0  0  0  0  0  0  0  0  0  0  0
  -22.8996  -27.9628   20.0963 C   0  0  0  0  0  0  0  0  0  0  0  0
  -24.2223  -26.1731   22.0436 C   0  0  0  0  0  0  0  0  0  0  0  0
  -19.3861  -30.4256   24.6239 C   0  0  0  0  0  0  0  0  0  0  0  0
  -27.6382  -18.6677   23.5544 C   0  0  0  0  0  0  0  0  0  0  0  0
  -20.9080  -30.4304   24.7269 C   0  0  0  0  0  0  0  0  0  0  0  0
  -27.8313  -17.2287   23.0703 C   0  0  0  0  0  0  0  0  0  0  0  0
  -27.6800  -19.6654   22.3983 C   0  0  0  0  0  0  0  0  0  0  0  0
  -29.0586  -18.1295   21.0530 C   0  0  0  0  0  0  0  0  0  0  0  0
  -21.5503  -30.8133   23.3881 C   0  0  1  0  0  0  0  0  0  0  0  0
  -22.2628  -27.6293   21.4418 C   0  0  1  0  0  0  0  0  0  0  0  0
  -29.0889  -17.0945   22.1894 C   0  0  2  0  0  0  0  0  0  0  0  0
  -32.2875  -28.2826   18.2995 C   0  0  0  0  0  0  0  0  0  0  0  0
  -22.1828  -19.9368   22.3485 C   0  0  0  0  0  0  0  0  0  0  0  0
  -22.5972  -25.6813   25.6196 C   0  0  0  0  0  0  0  0  0  0  0  0
  -22.7974  -23.1857   25.6332 C   0  0  0  0  0  0  0  0  0  0  0  0
  -20.6051  -24.2565   25.1137 C   0  0  0  0  0  0  0  0  0  0  0  0
  -22.8816  -21.8373   19.1274 C   0  0  0  0  0  0  0  0  0  0  0  0
  -29.1686  -27.4217   18.7329 C   0  0  0  0  0  0  0  0  0  1  0  0
  -22.4682  -24.3560   23.4076 C   0  0  1  0  0  0  0  0  0  0  0  0
  -22.1762  -21.1413   21.4201 C   0  0  2  0  0  0  0  0  0  0  0  0
  -22.1324  -24.3855   24.9254 C   0  0  0  0  0  0  0  0  0  0  0  0
  -28.1662  -14.9442   21.4107 N   0  0  0  0  0  0  0  0  0  0  0  0
  -29.2609  -15.6805   21.6667 N   0  0  0  0  0  0  0  0  0  0  0  0
  -31.6510  -24.6713   18.8246 N   0  0  0  0  0  0  0  0  0  0  0  0
  -22.7646  -26.3762   22.0096 N   0  0  0  0  0  0  0  0  0  0  0  0
  -28.9009  -19.4819   21.6105 N   0  0  0  0  0  0  0  0  0  0  0  0
  -31.6284  -15.6265   21.6137 N   0  0  0  0  0  0  0  0  0  0  0  0
  -30.4590  -11.5274   20.1217 N   0  0  0  0  0  0  0  0  0  0  0  0
  -30.9349  -20.2609   20.7057 N   0  0  0  0  0  0  0  0  0  0  0  0
  -21.5262  -29.6896   22.4763 N   0  0  0  0  0  0  0  0  0  0  0  0
  -22.0155  -23.1522   22.7188 N   0  0  0  0  0  0  0  0  0  0  0  0
  -22.8383  -20.7535   20.1425 N   0  3  0  0  0  0  0  0  0  0  0  0
  -33.7218  -25.7135   18.4587 O   0  0  0  0  0  0  0  0  0  0  0  0
  -29.3273  -24.5022   19.1083 O   0  0  0  0  0  0  0  0  0  0  0  0
  -32.2341  -12.8921   20.6172 O   0  0  0  0  0  0  0  0  0  0  0  0
  -23.4655  -28.6299   23.2103 O   0  0  0  0  0  0  0  0  0  0  0  0
  -20.6395  -25.6644   22.6525 O   0  0  0  0  0  0  0  0  0  0  0  0
  -24.1037  -22.4975   21.9520 O   0  0  0  0  0  0  0  0  0  0  0  0
  -29.5734  -21.6674   21.9506 O   0  0  0  0  0  0  0  0  0  0  0  0
  -25.2666   -9.6117   19.4857 O   0  0  0  0  0  0  0  0  0  0  0  0
  -28.5241  -27.2933   19.9995 O   0  0  0  0  0  0  0  0  0  1  0  0
  -21.0121   -8.4713   22.8027 F   0  0  0  0  0  0  0  0  0  0  0  0
  -25.0049   -7.1182   20.6505 F   0  0  0  0  0  0  0  0  0  0  0  0
  1  2  1  0  0  0  0
  1  6  2  0  0  0  0
  2  7  2  0  0  0  0
  3  9  2  0  0  0  0
  3 10  1  0  0  0  0
  4 11  2  0  0  0  0
  4 19  1  0  0  0  0
  5 12  1  0  0  0  0
  5 19  2  0  0  0  0
  6 21  1  0  0  0  0
  7 23  1  0  0  0  0
  8 13  2  0  0  0  0
  8 22  1  0  0  0  0
  9 25  1  0  0  0  0
 10 26  2  0  0  0  0
 11 27  1  0  0  0  0
 12 27  2  0  0  0  0
 13 28  1  0  0  0  0
 14 15  2  0  0  0  0
 14 29  1  0  0  0  0
 15 30  1  0  0  0  0
 16 24  1  0  0  0  0
 16 28  2  0  0  0  0
 17 25  2  0  0  0  0
 17 26  1  0  0  0  0
 18 30  2  0  0  0  0
 18 31  1  0  0  0  0
 19 32  1  0  0  0  0
 20 32  1  0  0  0  0
 20 33  2  0  0  0  0
 20 38  1  0  0  0  0
 21 23  2  0  0  0  0
 21 43  1  0  0  0  0
 22 24  2  0  0  0  0
 22 44  1  0  0  0  0
 23 52  1  0  0  0  0
 24 45  1  0  0  0  0
 25 67  1  0  0  0  0
 26 72  1  0  0  0  0
 27 83  1  0  0  0  0
 28 84  1  0  0  0  0
 29 31  2  0  0  0  0
 29 83  1  0  0  0  0
 30 85  1  0  0  0  0
 31 86  1  0  0  0  0
 32 65  2  0  0  0  0
 33 66  1  0  0  0  0
 33 70  1  0  0  0  0
 34 35  2  0  0  0  0
 34 36  1  0  0  0  0
 34 55  1  0  0  0  0
 35 37  1  0  0  0  0
 35 61  1  0  0  0  0
 36 67  1  0  0  0  0
 36 76  2  0  0  0  0
 37 67  1  0  0  0  0
 37 77  2  0  0  0  0
 38 71  1  0  0  0  0
 38 78  2  0  0  0  0
 39 53  1  0  0  0  0
 39 73  1  0  0  0  0
 39 79  2  0  0  0  0
 40 62  1  0  0  0  0
 40 68  1  0  0  0  0
 40 80  2  0  0  0  0
 41 63  1  0  0  0  0
 41 74  1  0  0  0  0
 41 81  2  0  0  0  0
 42 69  1  0  0  0  0
 42 72  1  0  0  0  0
 42 82  2  0  0  0  0
 43 46  1  0  0  0  0
 44 53  1  0  0  0  0
 45 68  1  0  0  0  0
 46 48  1  0  0  0  0
 47 49  1  0  0  0  0
 47 50  1  0  0  0  0
 48 52  1  0  0  0  0
 49 54  1  0  0  0  0
 50 69  1  0  0  0  0
 51 54  1  0  0  0  0
 51 69  1  0  0  0  0
 52 73  1  0  0  0  0
 53 68  1  0  0  0  0
 54 66  1  0  0  0  0
 56 63  1  0  0  0  0
 57 64  1  0  0  0  0
 58 64  1  0  0  0  0
 59 64  1  0  0  0  0
 60 75  1  0  0  0  0
 61 84  1  0  0  0  0
 62 64  1  0  0  0  0
 62 74  1  0  0  0  0
 63 75  1  0  0  0  0
 65 66  1  0  0  0  0
M  CHG  1  75   1
M  ISO  4  42 100  61 101  72 100  84 101
M  END
> <Batch ID>
0085

> <Smiles>
CNC(C)C(=O)NC(C(=O)N1Cc2cc([101O:1][101CH2:1]C3=C(C)C(=O)N(c4cccc([100NH:0][100C:0](=O)N5CCCC(n6nc(-c7ccc(Oc8ccc(F)cc8F)cc7)c(C(N)=O)c6N)C5)c4)C3=O)ccc2CC1C(=O)NC1CCCc2ccccc21)C(C)(C)C

> <Shape>
0.224

> <Color>
0.083

> <Negative vol penalty>
0.000

$$$$

  -OEChem-04052300153D

 85 94  0     1  0  0  0  0  0999 V2000
  -28.6536  -36.8737   26.7169 C   0  0  0  0  0  0  0  0  0  0  0  0
  -29.4238  -35.9095   26.0747 C   0  0  0  0  0  0  0  0  0  0  0  0
  -23.3810  -10.2999   21.5300 C   0  0  0  0  0  0  0  0  0  0  0  0
  -24.9038   -8.5345   22.1637 C   0  0  0  0  0  0  0  0  0  0  0  0
  -27.2861  -36.6675   26.8941 C   0  0  0  0  0  0  0  0  0  0  0  0
  -28.8272  -34.7379   25.6103 C   0  0  0  0  0  0  0  0  0  0  0  0
  -29.3301  -29.9345   20.3196 C   0  0  0  0  0  0  0  0  0  0  0  0
  -29.1960  -20.1916   21.9752 C   0  0  0  0  0  0  0  0  0  0  0  0
  -28.8887  -20.2956   19.5811 C   0  0  0  0  0  0  0  0  0  0  0  0
  -29.3111  -18.8036   21.9002 C   0  0  0  0  0  0  0  0  0  0  0  0
  -29.0038  -18.9075   19.5060 C   0  0  0  0  0  0  0  0  0  0  0  0
  -22.3751   -9.3568   21.3197 C   0  0  0  0  0  0  0  0  0  0  0  0
  -23.8978   -7.5914   21.9535 C   0  0  0  0  0  0  0  0  0  0  0  0
  -29.4319  -28.5584   20.1203 C   0  0  0  0  0  0  0  0  0  0  0  0
  -21.1773   -6.4451   23.5982 C   0  0  0  0  0  0  0  0  0  0  0  0
  -21.0100   -5.4522   24.5635 C   0  0  0  0  0  0  0  0  0  0  0  0
  -27.0468  -28.3457   20.4121 C   0  0  0  0  0  0  0  0  0  0  0  0
  -21.4592   -3.7590   22.8996 C   0  0  0  0  0  0  0  0  0  0  0  0
  -24.6454   -9.8888   21.9519 C   0  0  0  0  0  0  0  0  0  0  0  0
  -25.9761  -11.5431   23.3662 C   0  0  0  0  0  0  0  0  0  0  0  0
  -26.6706  -35.4970   26.4230 C   0  0  0  0  0  0  0  0  0  0  0  0
  -28.0851  -30.5260   20.5779 C   0  0  0  0  0  0  0  0  0  0  0  0
  -27.4504  -34.5151   25.7826 C   0  0  0  0  0  0  0  0  0  0  0  0
  -26.9315  -29.7298   20.6117 C   0  0  0  0  0  0  0  0  0  0  0  0
  -28.9848  -20.9377   20.8157 C   0  0  0  0  0  0  0  0  0  0  0  0
  -29.2150  -18.1615   20.6656 C   0  0  0  0  0  0  0  0  0  0  0  0
  -22.6335   -8.0026   21.5315 C   0  0  0  0  0  0  0  0  0  0  0  0
  -28.2906  -27.7633   20.1694 C   0  0  0  0  0  0  0  0  0  0  0  0
  -21.4855   -6.0950   22.2836 C   0  0  0  0  0  0  0  0  0  0  0  0
  -21.1510   -4.1092   24.2142 C   0  0  0  0  0  0  0  0  0  0  0  0
  -21.6265   -4.7520   21.9343 C   0  0  0  0  0  0  0  0  0  0  0  0
  -25.6851  -10.8625   22.1687 C   0  0  0  0  0  0  0  0  0  0  0  0
  -27.0428  -12.3494   23.0524 C   0  0  0  0  0  0  0  0  0  0  0  0
  -28.7061  -24.2869   20.9964 C   0  0  0  0  0  0  0  0  0  0  0  0
  -28.9211  -23.1860   21.9295 C   0  0  0  0  0  0  0  0  0  0  0  0
  -28.6670  -23.2717   19.9491 C   0  0  0  0  0  0  0  0  0  0  0  0
  -28.5947  -25.6257   21.0686 C   0  0  0  0  0  0  0  0  0  1  0  0
  -25.3392  -11.4543   24.6476 C   0  0  0  0  0  0  0  0  0  0  0  0
  -26.8376  -32.1594   23.0026 C   0  0  0  0  0  0  0  0  0  0  0  0
  -24.3390  -32.5195   20.9656 C   0  0  0  0  0  0  0  0  0  0  0  0
  -22.6144  -31.3535   18.2614 C   0  0  0  0  0  0  0  0  0  0  0  0
  -29.2411  -16.0472   19.3525 C   0  0  0  0  0  0  0  0  0  0  0  0
  -25.1979  -35.2975   26.6798 C   0  0  0  0  0  0  0  0  0  0  0  0
  -27.9885  -32.0155   20.7642 C   0  0  0  0  0  0  0  0  0  0  0  0
  -25.5686  -30.3187   20.8654 C   0  0  0  0  0  0  0  0  0  0  0  0
  -24.5744  -34.1965   25.8257 C   0  0  0  0  0  0  0  0  0  0  0  0
  -30.0207  -12.4610   18.9763 C   0  0  0  0  0  0  0  0  0  0  0  0
  -25.4527  -32.9494   25.8381 C   0  0  0  0  0  0  0  0  0  0  0  0
  -28.9410  -11.7874   19.8216 C   0  0  0  0  0  0  0  0  0  0  0  0
  -29.5379  -13.7841   18.3896 C   0  0  0  0  0  0  0  0  0  0  0  0
  -27.9348  -14.0643   20.2556 C   0  0  0  0  0  0  0  0  0  0  0  0
  -26.8351  -33.2423   25.2428 C   0  0  1  0  0  0  0  0  0  0  0  0
  -26.7400  -32.4420   21.5301 C   0  0  1  0  0  0  0  0  0  0  0  0
  -28.4053  -12.7496   20.8959 C   0  0  1  0  0  0  0  0  0  0  0  0
  -20.5929  -31.8380   16.8556 C   0  0  0  0  0  0  0  0  0  0  0  0
  -22.5434  -31.4147   23.1712 C   0  0  0  0  0  0  0  0  0  0  0  0
  -20.7731  -31.0325   21.4426 C   0  0  0  0  0  0  0  0  0  0  0  0
  -21.5783  -33.3468   21.9102 C   0  0  0  0  0  0  0  0  0  0  0  0
  -29.7961  -15.9953   21.7731 C   0  0  0  0  0  0  0  0  0  0  0  0
  -24.2527  -31.7138   15.8231 C   0  0  0  0  0  0  0  0  0  0  0  0
  -23.0819  -31.7387   20.6670 C   0  0  1  0  0  0  0  0  0  0  0  0
  -22.0887  -32.0559   17.0225 C   0  0  2  0  0  0  0  0  0  0  0  0
  -22.0199  -31.8715   21.7949 C   0  0  0  0  0  0  0  0  0  0  0  0
  -26.5010  -11.2065   21.1687 N   0  0  0  0  0  0  0  0  0  0  0  0
  -27.3151  -12.1122   21.7371 N   0  0  0  0  0  0  0  0  0  0  0  0
  -28.8710  -22.3057   20.8895 N   0  0  0  0  0  0  0  0  0  0  0  0
  -25.5268  -31.7791   21.0476 N   0  0  0  0  0  0  0  0  0  0  0  0
  -28.9919  -14.6620   19.4255 N   0  0  0  0  0  0  0  0  0  0  0  0
  -27.7650  -13.2311   23.7758 N   0  0  0  0  0  0  0  0  0  0  0  0
  -24.2574  -10.5758   24.7967 N   0  0  0  0  0  0  0  0  0  0  0  0
  -26.7641  -33.2870   23.7980 N   0  0  0  0  0  0  0  0  0  0  0  0
  -22.6226  -32.1896   19.3578 N   0  0  0  0  0  0  0  0  0  0  0  0
  -29.3341  -16.7247   20.5876 N   0  0  0  0  0  0  0  0  0  0  0  0
  -22.7771  -31.5426   15.8046 N   0  3  0  0  0  0  0  0  0  0  0  0
  -29.0793  -23.0849   23.1280 O   0  0  0  0  0  0  0  0  0  0  0  0
  -28.5169  -23.2746   18.7453 O   0  0  0  0  0  0  0  0  0  0  0  0
  -25.7077  -12.1461   25.6270 O   0  0  0  0  0  0  0  0  0  0  0  0
  -26.9684  -31.0038   23.3887 O   0  0  0  0  0  0  0  0  0  0  0  0
  -24.2707  -33.7423   21.1132 O   0  0  0  0  0  0  0  0  0  0  0  0
  -22.9776  -30.1793   18.2577 O   0  0  0  0  0  0  0  0  0  0  0  0
  -29.3977  -16.6259   18.2708 O   0  0  0  0  0  0  0  0  0  0  0  0
  -21.6521   -7.0820   21.3267 O   0  0  0  0  0  0  0  0  0  0  0  0
  -28.3873  -26.4198   19.9759 O   0  0  0  0  0  0  0  0  0  1  0  0
  -20.9918   -3.1558   25.1416 F   0  0  0  0  0  0  0  0  0  0  0  0
  -21.9237   -4.4095   20.6733 F   0  0  0  0  0  0  0  0  0  0  0  0
  1  2  1  0  0  0  0
  1  5  2  0  0  0  0
  2  6  2  0  0  0  0
  3 12  2  0  0  0  0
  3 19  1  0  0  0  0
  4 13  1  0  0  0  0
  4 19  2  0  0  0  0
  5 21  1  0  0  0  0
  6 23  1  0  0  0  0
  7 14  2  0  0  0  0
  7 22  1  0  0  0  0
  8 10  2  0  0  0  0
  8 25  1  0  0  0  0
  9 11  1  0  0  0  0
  9 25  2  0  0  0  0
 10 26  1  0  0  0  0
 11 26  2  0  0  0  0
 12 27  1  0  0  0  0
 13 27  2  0  0  0  0
 14 28  1  0  0  0  0
 15 16  2  0  0  0  0
 15 29  1  0  0  0  0
 16 30  1  0  0  0  0
 17 24  1  0  0  0  0
 17 28  2  0  0  0  0
 18 30  2  0  0  0  0
 18 31  1  0  0  0  0
 19 32  1  0  0  0  0
 20 32  1  0  0  0  0
 20 33  2  0  0  0  0
 20 38  1  0  0  0  0
 21 23  2  0  0  0  0
 21 43  1  0  0  0  0
 22 24  2  0  0  0  0
 22 44  1  0  0  0  0
 23 52  1  0  0  0  0
 24 45  1  0  0  0  0
 25 66  1  0  0  0  0
 26 73  1  0  0  0  0
 27 82  1  0  0  0  0
 28 83  1  0  0  0  0
 29 31  2  0  0  0  0
 29 82  1  0  0  0  0
 30 84  1  0  0  0  0
 31 85  1  0  0  0  0
 32 64  2  0  0  0  0
 33 65  1  0  0  0  0
 33 69  1  0  0  0  0
 34 35  1  0  0  0  0
 34 36  1  0  0  0  0
 34 37  2  0  0  0  0
 35 66  1  0  0  0  0
 35 75  2  0  0  0  0
 36 66  1  0  0  0  0
 36 76  2  0  0  0  0
 37 83  1  0  0  0  0
 38 70  1  0  0  0  0
 38 77  2  0  0  0  0
 39 53  1  0  0  0  0
 39 71  1  0  0  0  0
 39 78  2  0  0  0  0
 40 61  1  0  0  0  0
 40 67  1  0  0  0  0
 40 79  2  0  0  0  0
 41 62  1  0  0  0  0
 41 72  1  0  0  0  0
 41 80  2  0  0  0  0
 42 68  1  0  0  0  0
 42 73  1  0  0  0  0
 42 81  2  0  0  0  0
 43 46  1  0  0  0  0
 44 53  1  0  0  0  0
 45 67  1  0  0  0  0
 46 48  1  0  0  0  0
 47 49  1  0  0  0  0
 47 50  1  0  0  0  0
 48 52  1  0  0  0  0
 49 54  1  0  0  0  0
 50 68  1  0  0  0  0
 51 54  1  0  0  0  0
 51 68  1  0  0  0  0
 52 71  1  0  0  0  0
 53 67  1  0  0  0  0
 54 65  1  0  0  0  0
 55 62  1  0  0  0  0
 56 63  1  0  0  0  0
 57 63  1  0  0  0  0
 58 63  1  0  0  0  0
 59 73  1  0  0  0  0
 60 74  1  0  0  0  0
 61 63  1  0  0  0  0
 61 72  1  0  0  0  0
 62 74  1  0  0  0  0
 64 65  1  0  0  0  0
M  CHG  1  74   1
M  ISO  4  37 101  42 100  73 100  83 101
M  END
> <Batch ID>
0085

> <Smiles>
CNC(C)C(=O)NC(C(=O)N1Cc2cc([101O:1][101CH:1]=C3C(=O)N(c4ccc([100N:0](C)[100C:0](=O)N5CCCC(n6nc(-c7ccc(Oc8ccc(F)cc8F)cc7)c(C(N)=O)c6N)C5)cc4)C3=O)ccc2CC1C(=O)NC1CCCc2ccccc21)C(C)(C)C

> <Shape>
0.308

> <Color>
0.104

> <Negative vol penalty>
0.000

$$$$

  -OEChem-04052300153D

 87 96  0     1  0  0  0  0  0999 V2000
  -26.9366  -38.2345   22.9423 C   0  0  0  0  0  0  0  0  0  0  0  0
  -27.5229  -37.3193   22.0739 C   0  0  0  0  0  0  0  0  0  0  0  0
  -22.8927  -11.7790   22.5449 C   0  0  0  0  0  0  0  0  0  0  0  0
  -22.1784  -13.1201   20.6665 C   0  0  0  0  0  0  0  0  0  0  0  0
  -26.2596  -37.7840   24.0749 C   0  0  0  0  0  0  0  0  0  0  0  0
  -27.4336  -35.9531   22.3383 C   0  0  0  0  0  0  0  0  0  0  0  0
  -26.9708  -29.6373   18.9897 C   0  0  0  0  0  0  0  0  0  0  0  0
  -27.4890  -21.1429   17.2127 C   0  0  0  0  0  0  0  0  0  0  0  0
  -21.6002  -11.8226   23.0675 C   0  0  0  0  0  0  0  0  0  0  0  0
  -20.8858  -13.1637   21.1891 C   0  0  0  0  0  0  0  0  0  0  0  0
  -27.5876  -28.3874   18.9577 C   0  0  0  0  0  0  0  0  0  0  0  0
  -18.6388  -10.2854   22.5199 C   0  0  0  0  0  0  0  0  0  0  0  0
  -26.7839  -20.0184   16.7837 C   0  0  0  0  0  0  0  0  0  0  0  0
  -18.0927   -9.0945   22.9986 C   0  0  0  0  0  0  0  0  0  0  0  0
  -26.3253  -27.7213   20.9025 C   0  0  0  0  0  0  0  0  0  0  0  0
  -28.6547  -19.7909   18.8407 C   0  0  0  0  0  0  0  0  0  0  0  0
  -17.8564  -10.0839   25.1901 C   0  0  0  0  0  0  0  0  0  0  0  0
  -23.1818  -12.4279   21.3444 C   0  0  0  0  0  0  0  0  0  0  0  0
  -25.0444  -11.4248   19.9188 C   0  0  0  0  0  0  0  0  0  0  0  0
  -26.1537  -36.4112   24.3481 C   0  0  0  0  0  0  0  0  0  0  0  0
  -26.0330  -29.9429   19.9865 C   0  0  0  0  0  0  0  0  0  0  0  0
  -26.7558  -35.4839   23.4763 C   0  0  0  0  0  0  0  0  0  0  0  0
  -25.6960  -28.9749   20.9434 C   0  0  0  0  0  0  0  0  0  0  0  0
  -28.4244  -21.0291   18.2411 C   0  0  0  0  0  0  0  0  0  0  0  0
  -27.9495  -18.6664   18.4118 C   0  0  0  0  0  0  0  0  0  0  0  0
  -20.5968  -12.5149   22.3896 C   0  0  0  0  0  0  0  0  0  0  0  0
  -27.2671  -27.4302   19.9159 C   0  0  0  0  0  0  0  0  0  0  0  0
  -18.7938  -11.3755   23.3762 C   0  0  0  0  0  0  0  0  0  0  0  0
  -17.7015   -8.9938   24.3337 C   0  0  0  0  0  0  0  0  0  0  0  0
  -27.0141  -18.7802   17.3833 C   0  0  0  0  0  0  0  0  0  0  0  0
  -18.4025  -11.2748   24.7113 C   0  0  0  0  0  0  0  0  0  0  0  0
  -24.5169  -12.3837   20.8043 C   0  0  0  0  0  0  0  0  0  0  0  0
  -26.3414  -11.8262   19.7111 C   0  0  0  0  0  0  0  0  0  0  0  0
  -30.6364  -24.4019   19.4642 C   0  0  0  0  0  0  0  0  0  0  0  0
  -30.4231  -22.0240   19.1865 C   0  0  0  0  0  0  0  0  0  0  0  0
  -29.4022  -24.6195   18.9904 C   0  0  0  0  0  0  0  0  0  0  0  0
  -31.1577  -23.0701   19.5756 C   0  0  0  0  0  0  0  0  0  0  0  0
  -28.5405  -23.4482   18.5872 C   0  0  0  0  0  0  0  0  0  0  0  0
  -24.4180  -10.2743   19.3361 C   0  0  0  0  0  0  0  0  0  0  0  0
  -25.8654  -32.0869   22.3272 C   0  0  0  0  0  0  0  0  0  0  0  0
  -22.8775  -30.8782   22.6931 C   0  0  0  0  0  0  0  0  0  0  0  0
  -20.7367  -28.2588   22.2434 C   0  0  0  0  0  0  0  0  0  0  0  0
  -29.0792  -17.1263   20.0544 C   0  0  0  0  0  0  0  0  0  0  0  0
  -25.4526  -35.9742   25.6099 C   0  0  0  0  0  0  0  0  0  0  0  0
  -25.3567  -31.2864   19.9913 C   0  0  0  0  0  0  0  0  0  0  0  0
  -24.6807  -29.2461   22.0223 C   0  0  0  0  0  0  0  0  0  0  0  0
  -25.0817  -34.4934   25.6191 C   0  0  0  0  0  0  0  0  0  0  0  0
  -29.9242  -14.1726   21.8541 C   0  0  0  0  0  0  0  0  0  0  0  0
  -26.2614  -33.6448   25.1553 C   0  0  0  0  0  0  0  0  0  0  0  0
  -28.6838  -13.2889   21.7034 C   0  0  0  0  0  0  0  0  0  0  0  0
  -29.5555  -15.6484   21.9945 C   0  0  0  0  0  0  0  0  0  0  0  0
  -27.4370  -15.2884   20.7897 C   0  0  0  0  0  0  0  0  0  0  0  0
  -26.6592  -33.9928   23.7158 C   0  0  1  0  0  0  0  0  0  0  0  0
  -24.7963  -31.6684   21.3578 C   0  0  1  0  0  0  0  0  0  0  0  0
  -27.7608  -13.8002   20.5799 C   0  0  2  0  0  0  0  0  0  0  0  0
  -18.3684  -27.5529   22.6798 C   0  0  0  0  0  0  0  0  0  0  0  0
  -23.5580  -30.4206   25.6321 C   0  0  0  0  0  0  0  0  0  0  0  0
  -21.5824  -28.8897   25.7790 C   0  0  0  0  0  0  0  0  0  0  0  0
  -21.2528  -31.2982   25.2194 C   0  0  0  0  0  0  0  0  0  0  0  0
  -20.1795  -27.9320   19.3553 C   0  0  0  0  0  0  0  0  0  0  0  0
  -28.8178  -25.9775   18.8478 C   0  0  0  0  0  0  0  0  0  1  0  0
  -22.2703  -29.7533   23.4961 C   0  0  1  0  0  0  0  0  0  0  0  0
  -19.3255  -28.1952   21.6877 C   0  0  2  0  0  0  0  0  0  0  0  0
  -22.1864  -30.0857   25.0126 C   0  0  0  0  0  0  0  0  0  0  0  0
  -25.4062  -13.3234   21.1364 N   0  0  0  0  0  0  0  0  0  0  0  0
  -26.5056  -12.9568   20.4560 N   0  0  0  0  0  0  0  0  0  0  0  0
  -29.1341  -22.1614   18.6729 N   0  0  0  0  0  0  0  0  0  0  0  0
  -24.0516  -30.5768   21.9886 N   0  0  0  0  0  0  0  0  0  0  0  0
  -28.6836  -16.0630   20.8933 N   0  0  0  0  0  0  0  0  0  0  0  0
  -27.3461  -11.3187   18.9658 N   0  0  0  0  0  0  0  0  0  0  0  0
  -23.0797  -10.0083   19.6561 N   0  0  0  0  0  0  0  0  0  0  0  0
  -28.1855  -17.4097   19.0222 N   0  0  0  0  0  0  0  0  0  0  0  0
  -25.7393  -33.3875   22.7768 N   0  0  0  0  0  0  0  0  0  0  0  0
  -20.9826  -29.4586   22.8769 N   0  0  0  0  0  0  0  0  0  0  0  0
  -19.3003  -27.3995   20.4279 N   0  3  0  0  0  0  0  0  0  0  0  0
  -27.3910  -23.6481   18.1905 O   0  0  0  0  0  0  0  0  0  0  0  0
  -25.0320   -9.4957   18.5678 O   0  0  0  0  0  0  0  0  0  0  0  0
  -26.7391  -31.2885   22.6448 O   0  0  0  0  0  0  0  0  0  0  0  0
  -22.3263  -31.9818   22.6855 O   0  0  0  0  0  0  0  0  0  0  0  0
  -21.5394  -27.3349   22.1305 O   0  0  0  0  0  0  0  0  0  0  0  0
  -30.1463  -17.7225   20.2218 O   0  0  0  0  0  0  0  0  0  0  0  0
  -32.4295  -22.9700   20.0848 O   0  0  0  0  0  0  0  0  0  0  0  0
  -19.3354  -12.5574   22.8992 O   0  0  0  0  0  0  0  0  0  0  0  0
  -27.8682  -26.2097   19.8874 O   0  0  0  0  0  0  0  0  0  1  0  0
  -17.1756   -7.8506   24.7930 F   0  0  0  0  0  0  0  0  0  0  0  0
  -26.3303  -17.7066   16.9630 F   0  0  0  0  0  0  0  0  0  0  0  0
  -18.5479  -12.3190   25.5385 F   0  0  0  0  0  0  0  0  0  0  0  0
  1  2  1  0  0  0  0
  1  5  2  0  0  0  0
  2  6  2  0  0  0  0
  3  9  2  0  0  0  0
  3 18  1  0  0  0  0
  4 10  1  0  0  0  0
  4 18  2  0  0  0  0
  5 20  1  0  0  0  0
  6 22  1  0  0  0  0
  7 11  2  0  0  0  0
  7 21  1  0  0  0  0
  8 13  2  0  0  0  0
  8 24  1  0  0  0  0
  9 26  1  0  0  0  0
 10 26  2  0  0  0  0
 11 27  1  0  0  0  0
 12 14  2  0  0  0  0
 12 28  1  0  0  0  0
 13 30  1  0  0  0  0
 14 29  1  0  0  0  0
 15 23  1  0  0  0  0
 15 27  2  0  0  0  0
 16 24  2  0  0  0  0
 16 25  1  0  0  0  0
 17 29  2  0  0  0  0
 17 31  1  0  0  0  0
 18 32  1  0  0  0  0
 19 32  1  0  0  0  0
 19 33  2  0  0  0  0
 19 39  1  0  0  0  0
 20 22  2  0  0  0  0
 20 44  1  0  0  0  0
 21 23  2  0  0  0  0
 21 45  1  0  0  0  0
 22 53  1  0  0  0  0
 23 46  1  0  0  0  0
 24 67  1  0  0  0  0
 25 30  2  0  0  0  0
 25 72  1  0  0  0  0
 26 83  1  0  0  0  0
 27 84  1  0  0  0  0
 28 31  2  0  0  0  0
 28 83  1  0  0  0  0
 29 85  1  0  0  0  0
 30 86  1  0  0  0  0
 31 87  1  0  0  0  0
 32 65  2  0  0  0  0
 33 66  1  0  0  0  0
 33 70  1  0  0  0  0
 34 36  2  0  0  0  0
 34 37  1  0  0  0  0
 35 37  2  0  0  0  0
 35 67  1  0  0  0  0
 36 38  1  0  0  0  0
 36 61  1  0  0  0  0
 37 82  1  0  0  0  0
 38 67  1  0  0  0  0
 38 76  2  0  0  0  0
 39 71  1  0  0  0  0
 39 77  2  0  0  0  0
 40 54  1  0  0  0  0
 40 73  1  0  0  0  0
 40 78  2  0  0  0  0
 41 62  1  0  0  0  0
 41 68  1  0  0  0  0
 41 79  2  0  0  0  0
 42 63  1  0  0  0  0
 42 74  1  0  0  0  0
 42 80  2  0  0  0  0
 43 69  1  0  0  0  0
 43 72  1  0  0  0  0
 43 81  2  0  0  0  0
 44 47  1  0  0  0  0
 45 54  1  0  0  0  0
 46 68  1  0  0  0  0
 47 49  1  0  0  0  0
 48 50  1  0  0  0  0
 48 51  1  0  0  0  0
 49 53  1  0  0  0  0
 50 55  1  0  0  0  0
 51 69  1  0  0  0  0
 52 55  1  0  0  0  0
 52 69  1  0  0  0  0
 53 73  1  0  0  0  0
 54 68  1  0  0  0  0
 55 66  1  0  0  0  0
 56 63  1  0  0  0  0
 57 64  1  0  0  0  0
 58 64  1  0  0  0  0
 59 64  1  0  0  0  0
 60 75  1  0  0  0  0
 61 84  1  0  0  0  0
 62 64  1  0  0  0  0
 62 74  1  0  0  0  0
 63 75  1  0  0  0  0
 65 66  1  0  0  0  0
M  CHG  1  75   1
M  ISO  4  43 100  61 101  72 100  84 101
M  END
> <Batch ID>
0085

> <Smiles>
CNC(C)C(=O)NC(C(=O)N1Cc2cc([101O:1][101CH:1]=C3CC(=O)CN(c4ccc(F)c([100NH:0][100C:0](=O)N5CCCC(n6nc(-c7ccc(Oc8ccc(F)cc8F)cc7)c(C(N)=O)c6N)C5)c4)C3=O)ccc2CC1C(=O)NC1CCCc2ccccc21)C(C)(C)C

> <Shape>
0.318

> <Color>
0.085

> <Negative vol penalty>
0.000

$$$$

  -OEChem-04052300153D

 84 92  0     1  0  0  0  0  0999 V2000
  -27.3958  -32.8485   27.4378 C   0  0  0  0  0  0  0  0  0  0  0  0
  -27.5852  -31.7157   26.6528 C   0  0  0  0  0  0  0  0  0  0  0  0
  -32.2652  -18.8038   21.5276 C   0  0  0  0  0  0  0  0  0  0  0  0
  -23.3503   -9.7127   21.3192 C   0  0  0  0  0  0  0  0  0  0  0  0
  -24.1101  -10.6117   23.4291 C   0  0  0  0  0  0  0  0  0  0  0  0
  -31.3995  -19.8188   21.9346 C   0  0  0  0  0  0  0  0  0  0  0  0
  -26.1247  -33.4091   27.5554 C   0  0  0  0  0  0  0  0  0  0  0  0
  -26.5033  -31.1422   25.9857 C   0  0  0  0  0  0  0  0  0  0  0  0
  -27.6017  -29.9172   21.1963 C   0  0  0  0  0  0  0  0  0  0  0  0
  -31.7512  -17.6089   21.0237 C   0  0  0  0  0  0  0  0  0  0  0  0
  -22.7050   -8.6760   21.9932 C   0  0  0  0  0  0  0  0  0  0  0  0
  -23.4646   -9.5750   24.1032 C   0  0  0  0  0  0  0  0  0  0  0  0
  -28.3377  -28.7512   20.9901 C   0  0  0  0  0  0  0  0  0  0  0  0
  -19.8348   -8.2382   23.7263 C   0  0  0  0  0  0  0  0  0  0  0  0
  -18.5356   -7.9184   23.3320 C   0  0  0  0  0  0  0  0  0  0  0  0
  -29.5055  -18.4443   21.3339 C   0  0  0  0  0  0  0  0  0  0  0  0
  -26.3063  -27.5742   20.4357 C   0  0  0  0  0  0  0  0  0  0  0  0
  -19.2527   -5.6766   22.7870 C   0  0  0  0  0  0  0  0  0  0  0  0
  -24.0530  -10.6805   22.0371 C   0  0  0  0  0  0  0  0  0  0  0  0
  -30.0196  -19.6391   21.8377 C   0  0  0  0  0  0  0  0  0  0  0  0
  -24.1841  -13.0072   20.9994 C   0  0  0  0  0  0  0  0  0  0  0  0
  -25.0284  -32.8478   26.8817 C   0  0  0  0  0  0  0  0  0  0  0  0
  -26.2088  -29.9178   21.0341 C   0  0  0  0  0  0  0  0  0  0  0  0
  -25.2161  -31.6950   26.0955 C   0  0  0  0  0  0  0  0  0  0  0  0
  -25.5553  -28.7422   20.6380 C   0  0  0  0  0  0  0  0  0  0  0  0
  -30.3713  -17.4292   20.9269 C   0  0  0  0  0  0  0  0  0  0  0  0
  -22.7621   -8.6072   23.3852 C   0  0  0  0  0  0  0  0  0  0  0  0
  -27.6897  -27.5787   20.6126 C   0  0  0  0  0  0  0  0  0  0  0  0
  -20.8430   -7.2771   23.6508 C   0  0  0  0  0  0  0  0  0  0  0  0
  -18.2446   -6.6377   22.8624 C   0  0  0  0  0  0  0  0  0  0  0  0
  -20.5520   -5.9964   23.1812 C   0  0  0  0  0  0  0  0  0  0  0  0
  -24.7203  -11.7513   21.3413 C   0  0  0  0  0  0  0  0  0  0  0  0
  -25.2099  -13.6547   20.3552 C   0  0  0  0  0  0  0  0  0  0  0  0
  -28.7561  -24.1874   21.0641 C   0  0  0  0  0  0  0  0  0  0  0  0
  -28.1126  -25.3504   21.1837 C   0  0  0  0  0  0  0  0  0  1  0  0
  -29.1018  -20.7138   22.2680 C   0  0  0  0  0  0  0  0  0  0  0  0
  -22.8758  -13.5410   21.2426 C   0  0  0  0  0  0  0  0  0  0  0  0
  -28.3778  -23.0603   21.9393 C   0  0  0  0  0  0  0  0  0  0  0  0
  -23.7282  -30.4652   22.9448 C   0  0  0  0  0  0  0  0  0  0  0  0
  -22.0407  -30.1826   20.1889 C   0  0  0  0  0  0  0  0  0  0  0  0
  -21.8653  -28.9459   17.0130 C   0  0  0  0  0  0  0  0  0  0  0  0
  -30.5708  -15.1084   19.9675 C   0  0  0  0  0  0  0  0  0  0  0  0
  -23.6646  -33.4614   27.0772 C   0  0  0  0  0  0  0  0  0  0  0  0
  -25.4326  -31.1904   21.2344 C   0  0  0  0  0  0  0  0  0  0  0  0
  -24.0642  -28.6951   20.4308 C   0  0  0  0  0  0  0  0  0  0  0  0
  -22.6404  -33.0130   26.0379 C   0  0  0  0  0  0  0  0  0  0  0  0
  -29.6572  -11.9206   18.6712 C   0  0  0  0  0  0  0  0  0  0  0  0
  -22.6965  -31.5001   25.8511 C   0  0  0  0  0  0  0  0  0  0  0  0
  -28.2473  -11.6957   19.2222 C   0  0  0  0  0  0  0  0  0  0  0  0
  -30.5518  -12.6403   19.6789 C   0  0  0  0  0  0  0  0  0  0  0  0
  -28.5932  -13.6690   20.7628 C   0  0  0  0  0  0  0  0  0  0  0  0
  -24.0719  -31.0585   25.3366 C   0  0  1  0  0  0  0  0  0  0  0  0
  -23.9577  -30.9488   21.5408 C   0  0  1  0  0  0  0  0  0  0  0  0
  -27.6365  -13.0050   19.7590 C   0  0  2  0  0  0  0  0  0  0  0  0
  -20.3456  -28.8477   15.0184 C   0  0  0  0  0  0  0  0  0  0  0  0
  -20.3311  -28.0844   21.5977 C   0  0  0  0  0  0  0  0  0  0  0  0
  -19.4929  -27.3606   19.3523 C   0  0  0  0  0  0  0  0  0  0  0  0
  -19.0501  -29.6792   20.1590 C   0  0  0  0  0  0  0  0  0  0  0  0
  -23.8284  -30.3529   15.3026 C   0  0  0  0  0  0  0  0  0  0  0  0
  -21.3902  -29.0407   19.4460 C   0  0  1  0  0  0  0  0  0  0  0  0
  -21.4803  -29.5987   15.6977 C   0  0  2  0  0  0  0  0  0  0  0  0
  -20.0940  -28.5413   20.1445 C   0  0  0  0  0  0  0  0  0  0  0  0
  -25.9882  -11.6073   20.9467 N   0  0  0  0  0  0  0  0  0  0  0  0
  -26.2573  -12.7811   20.3502 N   0  0  0  0  0  0  0  0  0  0  0  0
  -23.3484  -29.9637   20.6450 N   0  0  0  0  0  0  0  0  0  0  0  0
  -29.9105  -13.8735   20.1401 N   0  0  0  0  0  0  0  0  0  0  0  0
  -25.3091  -14.8803   19.7980 N   0  0  0  0  0  0  0  0  0  0  0  0
  -21.9432  -12.7420   21.9180 N   0  0  0  0  0  0  0  0  0  0  0  0
  -29.8501  -16.2152   20.4149 N   0  0  0  0  0  0  0  0  0  0  0  0
  -29.1873  -21.9025   21.6534 N   0  0  0  0  0  0  0  0  0  0  0  0
  -24.1919  -31.3278   23.9197 N   0  0  0  0  0  0  0  0  0  0  0  0
  -21.1905  -29.5051   18.0775 N   0  0  0  0  0  0  0  0  0  0  0  0
  -28.2408  -20.4388   23.2475 N   0  3  0  0  0  0  0  0  0  0  0  0
  -22.6474  -29.6250   14.7713 N   0  3  0  0  0  0  0  0  0  0  0  0
  -22.5384  -14.6861   20.8574 O   0  0  0  0  0  0  0  0  0  0  0  0
  -27.5094  -23.0697   22.7956 O   0  0  0  0  0  0  0  0  0  0  0  0
  -23.1704  -29.3899   23.1299 O   0  0  0  0  0  0  0  0  0  0  0  0
  -21.4144  -31.2327   20.3522 O   0  0  0  0  0  0  0  0  0  0  0  0
  -22.6801  -28.0289   17.0881 O   0  0  0  0  0  0  0  0  0  0  0  0
  -31.6814  -15.1816   19.4353 O   0  0  0  0  0  0  0  0  0  0  0  0
  -22.1322   -7.5959   24.0433 O   0  0  0  0  0  0  0  0  0  0  0  0
  -28.4056  -26.4391   20.4113 O   0  0  0  0  0  0  0  0  0  1  0  0
  -16.9966   -6.3303   22.4853 F   0  0  0  0  0  0  0  0  0  0  0  0
  -21.5161   -5.0686   23.1076 F   0  0  0  0  0  0  0  0  0  0  0  0
  1  2  1  0  0  0  0
  1  7  2  0  0  0  0
  2  8  2  0  0  0  0
  3  6  2  0  0  0  0
  3 10  1  0  0  0  0
  4 11  2  0  0  0  0
  4 19  1  0  0  0  0
  5 12  1  0  0  0  0
  5 19  2  0  0  0  0
  6 20  1  0  0  0  0
  7 22  1  0  0  0  0
  8 24  1  0  0  0  0
  9 13  2  0  0  0  0
  9 23  1  0  0  0  0
 10 26  2  0  0  0  0
 11 27  1  0  0  0  0
 12 27  2  0  0  0  0
 13 28  1  0  0  0  0
 14 15  2  0  0  0  0
 14 29  1  0  0  0  0
 15 30  1  0  0  0  0
 16 20  2  0  0  0  0
 16 26  1  0  0  0  0
 17 25  1  0  0  0  0
 17 28  2  0  0  0  0
 18 30  2  0  0  0  0
 18 31  1  0  0  0  0
 19 32  1  0  0  0  0
 20 36  1  0  0  0  0
 21 32  1  0  0  0  0
 21 33  2  0  0  0  0
 21 37  1  0  0  0  0
 22 24  2  0  0  0  0
 22 43  1  0  0  0  0
 23 25  2  0  0  0  0
 23 44  1  0  0  0  0
 24 52  1  0  0  0  0
 25 45  1  0  0  0  0
 26 69  1  0  0  0  0
 27 81  1  0  0  0  0
 28 82  1  0  0  0  0
 29 31  2  0  0  0  0
 29 81  1  0  0  0  0
 30 83  1  0  0  0  0
 31 84  1  0  0  0  0
 32 63  2  0  0  0  0
 33 64  1  0  0  0  0
 33 67  1  0  0  0  0
 34 35  2  0  0  0  0
 34 38  1  0  0  0  0
 35 82  1  0  0  0  0
 36 70  1  0  0  0  0
 36 73  2  0  0  0  0
 37 68  1  0  0  0  0
 37 75  2  0  0  0  0
 38 70  1  0  0  0  0
 38 76  2  0  0  0  0
 39 53  1  0  0  0  0
 39 71  1  0  0  0  0
 39 77  2  0  0  0  0
 40 60  1  0  0  0  0
 40 65  1  0  0  0  0
 40 78  2  0  0  0  0
 41 61  1  0  0  0  0
 41 72  1  0  0  0  0
 41 79  2  0  0  0  0
 42 66  1  0  0  0  0
 42 69  1  0  0  0  0
 42 80  2  0  0  0  0
 43 46  1  0  0  0  0
 44 53  1  0  0  0  0
 45 65  1  0  0  0  0
 46 48  1  0  0  0  0
 47 49  1  0  0  0  0
 47 50  1  0  0  0  0
 48 52  1  0  0  0  0
 49 54  1  0  0  0  0
 50 66  1  0  0  0  0
 51 54  1  0  0  0  0
 51 66  1  0  0  0  0
 52 71  1  0  0  0  0
 53 65  1  0  0  0  0
 54 64  1  0  0  0  0
 55 61  1  0  0  0  0
 56 62  1  0  0  0  0
 57 62  1  0  0  0  0
 58 62  1  0  0  0  0
 59 74  1  0  0  0  0
 60 62  1  0  0  0  0
 60 72  1  0  0  0  0
 61 74  1  0  0  0  0
 63 64  1  0  0  0  0
M  CHG  2  73   1  74   1
M  ISO  4  35 101  42 100  69 100  82 101
M  END
> <Batch ID>
0085

> <Smiles>
CNC(C)C(=O)NC(C(=O)N1Cc2cc([101O:1][101CH:1]=CC(=O)NC(=N)c3cccc([100NH:0][100C:0](=O)N4CCCC(n5nc(-c6ccc(Oc7ccc(F)cc7F)cc6)c(C(N)=O)c5N)C4)c3)ccc2CC1C(=O)NC1CCCc2ccccc21)C(C)(C)C

> <Shape>
0.315

> <Color>
0.192

> <Negative vol penalty>
0.000

$$$$

  -OEChem-04052300153D

 86 95  0     1  0  0  0  0  0999 V2000
  -27.7850  -36.6255   25.6064 C   0  0  0  0  0  0  0  0  0  0  0  0
  -28.3734  -35.7485   24.7009 C   0  0  0  0  0  0  0  0  0  0  0  0
  -24.1881   -8.6308   21.2356 C   0  0  0  0  0  0  0  0  0  0  0  0
  -23.0597  -10.6798   20.6310 C   0  0  0  0  0  0  0  0  0  0  0  0
  -26.6796  -36.2181   26.3521 C   0  0  0  0  0  0  0  0  0  0  0  0
  -27.8573  -34.4629   24.5414 C   0  0  0  0  0  0  0  0  0  0  0  0
  -26.9437  -29.3918   19.5649 C   0  0  0  0  0  0  0  0  0  0  0  0
  -29.0356  -19.1467   20.4588 C   0  0  0  0  0  0  0  0  0  0  0  0
  -26.9056  -18.8879   19.3484 C   0  0  0  0  0  0  0  0  0  0  0  0
  -29.3071  -17.7941   20.2534 C   0  0  0  0  0  0  0  0  0  0  0  0
  -27.1770  -17.5352   19.1429 C   0  0  0  0  0  0  0  0  0  0  0  0
  -23.1507   -8.3187   22.1141 C   0  0  0  0  0  0  0  0  0  0  0  0
  -22.0222  -10.3676   21.5095 C   0  0  0  0  0  0  0  0  0  0  0  0
  -27.1971  -28.0382   19.3473 C   0  0  0  0  0  0  0  0  0  0  0  0
  -20.0166   -7.0643   21.9223 C   0  0  0  0  0  0  0  0  0  0  0  0
  -19.5233   -5.7597   21.9055 C   0  0  0  0  0  0  0  0  0  0  0  0
  -25.2355  -27.4707   20.6315 C   0  0  0  0  0  0  0  0  0  0  0  0
  -20.1297   -5.5005   24.2297 C   0  0  0  0  0  0  0  0  0  0  0  0
  -24.1427   -9.8114   20.4940 C   0  0  0  0  0  0  0  0  0  0  0  0
  -25.3105   -9.7864   18.2261 C   0  0  0  0  0  0  0  0  0  0  0  0
  -26.1439  -34.9301   26.1946 C   0  0  0  0  0  0  0  0  0  0  0  0
  -25.8385  -29.7954   20.3279 C   0  0  0  0  0  0  0  0  0  0  0  0
  -26.7446  -34.0373   25.2866 C   0  0  0  0  0  0  0  0  0  0  0  0
  -24.9688  -28.8301   20.8552 C   0  0  0  0  0  0  0  0  0  0  0  0
  -27.8348  -19.6936   20.0063 C   0  0  0  0  0  0  0  0  0  0  0  0
  -28.3778  -16.9883   19.5955 C   0  0  0  0  0  0  0  0  0  0  0  0
  -22.0677   -9.1871   22.2511 C   0  0  0  0  0  0  0  0  0  0  0  0
  -26.3446  -27.0773   19.8830 C   0  0  0  0  0  0  0  0  0  0  0  0
  -20.5665   -7.5870   23.0928 C   0  0  0  0  0  0  0  0  0  0  0  0
  -19.5799   -4.9778   23.0592 C   0  0  0  0  0  0  0  0  0  0  0  0
  -20.6231   -6.8051   24.2465 C   0  0  0  0  0  0  0  0  0  0  0  0
  -25.2143  -10.1347   19.5867 C   0  0  0  0  0  0  0  0  0  0  0  0
  -26.5060  -10.3251   17.8174 C   0  0  0  0  0  0  0  0  0  0  0  0
  -27.4998  -21.5926   21.4929 C   0  0  0  0  0  0  0  0  0  0  0  0
  -27.3306  -21.9177   19.1511 C   0  0  0  0  0  0  0  0  0  0  0  0
  -27.2463  -22.8793   21.7709 C   0  0  0  0  0  0  0  0  0  0  0  0
  -27.0605  -23.2277   19.2589 C   0  0  0  0  0  0  0  0  0  0  0  0
  -27.0088  -23.8264   20.6346 C   0  0  0  0  0  0  0  0  0  0  0  0
  -24.4005   -9.0424   17.4051 C   0  0  0  0  0  0  0  0  0  0  0  0
  -25.4540  -31.3979   23.0459 C   0  0  0  0  0  0  0  0  0  0  0  0
  -22.3112  -31.1883   22.2709 C   0  0  0  0  0  0  0  0  0  0  0  0
  -19.8501  -29.5474   20.5687 C   0  0  0  0  0  0  0  0  0  0  0  0
  -29.7963  -14.9139   19.7723 C   0  0  0  0  0  0  0  0  0  0  0  0
  -24.9770  -34.5188   27.0572 C   0  0  0  0  0  0  0  0  0  0  0  0
  -25.5640  -31.2602   20.5310 C   0  0  0  0  0  0  0  0  0  0  0  0
  -23.7573  -29.2118   21.6644 C   0  0  0  0  0  0  0  0  0  0  0  0
  -24.2609  -33.2671   26.5565 C   0  0  0  0  0  0  0  0  0  0  0  0
  -30.8362  -11.5216   19.4762 C   0  0  0  0  0  0  0  0  0  0  0  0
  -25.2708  -32.1817   26.1978 C   0  0  0  0  0  0  0  0  0  0  0  0
  -29.5216  -10.7499   19.3410 C   0  0  0  0  0  0  0  0  0  0  0  0
  -30.7057  -12.6998   20.4398 C   0  0  0  0  0  0  0  0  0  0  0  0
  -28.2837  -12.8478   20.0144 C   0  0  0  0  0  0  0  0  0  0  0  0
  -26.1985  -32.6431   25.0673 C   0  0  1  0  0  0  0  0  0  0  0  0
  -24.6983  -31.5418   21.7552 C   0  0  1  0  0  0  0  0  0  0  0  0
  -28.3480  -11.6906   19.0042 C   0  0  2  0  0  0  0  0  0  0  0  0
  -17.3745  -29.5875   20.1599 C   0  0  0  0  0  0  0  0  0  0  0  0
  -21.8374  -29.9916   25.0374 C   0  0  0  0  0  0  0  0  0  0  0  0
  -19.6050  -29.1931   24.2331 C   0  0  0  0  0  0  0  0  0  0  0  0
  -20.1033  -31.6364   24.3014 C   0  0  0  0  0  0  0  0  0  0  0  0
  -20.2196  -29.9678   17.6626 C   0  0  0  0  0  0  0  0  0  0  0  0
  -21.2071  -30.1949   22.5419 C   0  0  1  0  0  0  0  0  0  0  0  0
  -18.7364  -30.0546   19.6704 C   0  0  2  0  0  0  0  0  0  0  0  0
  -20.7120  -30.2464   24.0149 C   0  0  0  0  0  0  0  0  0  0  0  0
  -26.2651  -10.8400   20.0139 N   0  0  0  0  0  0  0  0  0  0  0  0
  -26.7806  -25.0695   20.8854 N   0  0  0  0  0  0  0  0  0  1  0  0
  -27.0329  -10.9392   18.9154 N   0  0  0  0  0  0  0  0  0  0  0  0
  -27.5618  -21.0484   20.2137 N   0  0  0  0  0  0  0  0  0  0  0  0
  -23.5350  -30.6565   21.8406 N   0  0  0  0  0  0  0  0  0  0  0  0
  -29.5763  -13.5494   20.0560 N   0  0  0  0  0  0  0  0  0  0  0  0
  -27.1474  -10.3287   16.6296 N   0  0  0  0  0  0  0  0  0  0  0  0
  -23.2183   -8.5615   17.9844 N   0  0  0  0  0  0  0  0  0  0  0  0
  -28.6537  -15.6142   19.3868 N   0  0  0  0  0  0  0  0  0  0  0  0
  -25.5207  -32.5595   23.7914 N   0  0  0  0  0  0  0  0  0  0  0  0
  -20.1680  -30.4596   21.5526 N   0  0  0  0  0  0  0  0  0  0  0  0
  -18.9296  -29.5617   18.2773 N   0  3  0  0  0  0  0  0  0  0  0  0
  -24.6366   -8.7970   16.1978 O   0  0  0  0  0  0  0  0  0  0  0  0
  -25.9394  -30.3129   23.3442 O   0  0  0  0  0  0  0  0  0  0  0  0
  -22.0934  -32.3922   22.4281 O   0  0  0  0  0  0  0  0  0  0  0  0
  -20.3820  -28.4501   20.4154 O   0  0  0  0  0  0  0  0  0  0  0  0
  -30.9207  -15.4174   19.8382 O   0  0  0  0  0  0  0  0  0  0  0  0
  -27.2031  -23.3463   23.0648 O   0  0  0  0  0  0  0  0  0  0  0  0
  -26.8395  -23.9957   18.1378 O   0  0  0  0  0  0  0  0  0  0  0  0
  -21.0551   -8.8827   23.1081 O   0  0  0  0  0  0  0  0  0  0  0  0
  -26.5900  -25.7554   19.6727 O   0  0  0  0  0  0  0  0  0  1  0  0
  -19.1047   -3.7256   23.0433 F   0  0  0  0  0  0  0  0  0  0  0  0
  -21.1491   -7.3022   25.3743 F   0  0  0  0  0  0  0  0  0  0  0  0
  1  2  1  0  0  0  0
  1  5  2  0  0  0  0
  2  6  2  0  0  0  0
  3 12  2  0  0  0  0
  3 19  1  0  0  0  0
  4 13  1  0  0  0  0
  4 19  2  0  0  0  0
  5 21  1  0  0  0  0
  6 23  1  0  0  0  0
  7 14  2  0  0  0  0
  7 22  1  0  0  0  0
  8 10  2  0  0  0  0
  8 25  1  0  0  0  0
  9 11  1  0  0  0  0
  9 25  2  0  0  0  0
 10 26  1  0  0  0  0
 11 26  2  0  0  0  0
 12 27  1  0  0  0  0
 13 27  2  0  0  0  0
 14 28  1  0  0  0  0
 15 16  2  0  0  0  0
 15 29  1  0  0  0  0
 16 30  1  0  0  0  0
 17 24  1  0  0  0  0
 17 28  2  0  0  0  0
 18 30  2  0  0  0  0
 18 31  1  0  0  0  0
 19 32  1  0  0  0  0
 20 32  1  0  0  0  0
 20 33  2  0  0  0  0
 20 39  1  0  0  0  0
 21 23  2  0  0  0  0
 21 44  1  0  0  0  0
 22 24  2  0  0  0  0
 22 45  1  0  0  0  0
 23 53  1  0  0  0  0
 24 46  1  0  0  0  0
 25 67  1  0  0  0  0
 26 72  1  0  0  0  0
 27 83  1  0  0  0  0
 28 84  1  0  0  0  0
 29 31  2  0  0  0  0
 29 83  1  0  0  0  0
 30 85  1  0  0  0  0
 31 86  1  0  0  0  0
 32 64  2  0  0  0  0
 33 66  1  0  0  0  0
 33 70  1  0  0  0  0
 34 36  2  0  0  0  0
 34 67  1  0  0  0  0
 35 37  2  0  0  0  0
 35 67  1  0  0  0  0
 36 38  1  0  0  0  0
 36 81  1  0  0  0  0
 37 38  1  0  0  0  0
 37 82  1  0  0  0  0
 38 65  2  0  0  0  0
 39 71  1  0  0  0  0
 39 76  2  0  0  0  0
 40 54  1  0  0  0  0
 40 73  1  0  0  0  0
 40 77  2  0  0  0  0
 41 61  1  0  0  0  0
 41 68  1  0  0  0  0
 41 78  2  0  0  0  0
 42 62  1  0  0  0  0
 42 74  1  0  0  0  0
 42 79  2  0  0  0  0
 43 69  1  0  0  0  0
 43 72  1  0  0  0  0
 43 80  2  0  0  0  0
 44 47  1  0  0  0  0
 45 54  1  0  0  0  0
 46 68  1  0  0  0  0
 47 49  1  0  0  0  0
 48 50  1  0  0  0  0
 48 51  1  0  0  0  0
 49 53  1  0  0  0  0
 50 55  1  0  0  0  0
 51 69  1  0  0  0  0
 52 55  1  0  0  0  0
 52 69  1  0  0  0  0
 53 73  1  0  0  0  0
 54 68  1  0  0  0  0
 55 66  1  0  0  0  0
 56 62  1  0  0  0  0
 57 63  1  0  0  0  0
 58 63  1  0  0  0  0
 59 63  1  0  0  0  0
 60 75  1  0  0  0  0
 61 63  1  0  0  0  0
 61 74  1  0  0  0  0
 62 75  1  0  0  0  0
 64 66  1  0  0  0  0
 65 84  1  0  0  0  0
M  CHG  1  75   1
M  ISO  4  43 100  65 101  72 100  84 101
M  END
> <Batch ID>
0085

> <Smiles>
CNC(C)C(=O)NC(C(=O)N1Cc2cc([101O:1][101N:1]=C3C(=O)CN(c4ccc([100NH:0][100C:0](=O)N5CCCC(n6nc(-c7ccc(Oc8ccc(F)cc8F)cc7)c(C(N)=O)c6N)C5)cc4)CC3=O)ccc2CC1C(=O)NC1CCCc2ccccc21)C(C)(C)C

> <Shape>
0.281

> <Color>
0.076

> <Negative vol penalty>
0.000

$$$$

  -OEChem-04052300153D

 85 94  0     1  0  0  0  0  0999 V2000
  -25.2511  -35.3142   23.8702 C   0  0  0  0  0  0  0  0  0  0  0  0
  -25.9403  -34.1786   23.4571 C   0  0  0  0  0  0  0  0  0  0  0  0
  -26.1353  -13.0256   21.3618 C   0  0  0  0  0  0  0  0  0  0  0  0
  -25.9455  -15.0799   20.1044 C   0  0  0  0  0  0  0  0  0  0  0  0
  -24.0028  -35.1880   24.4784 C   0  0  0  0  0  0  0  0  0  0  0  0
  -25.3820  -32.9158   23.6529 C   0  0  0  0  0  0  0  0  0  0  0  0
  -25.8147  -29.9467   19.5734 C   0  0  0  0  0  0  0  0  0  0  0  0
  -24.7616  -12.8204   21.2340 C   0  0  0  0  0  0  0  0  0  0  0  0
  -24.5717  -14.8746   19.9765 C   0  0  0  0  0  0  0  0  0  0  0  0
  -27.0562  -29.3546   19.3457 C   0  0  0  0  0  0  0  0  0  0  0  0
  -22.6196  -11.7017   18.8689 C   0  0  0  0  0  0  0  0  0  0  0  0
  -22.1848  -10.4230   18.5206 C   0  0  0  0  0  0  0  0  0  0  0  0
  -26.2423  -27.2946   20.3013 C   0  0  0  0  0  0  0  0  0  0  0  0
  -30.4182  -21.6460   21.9456 C   0  0  0  0  0  0  0  0  0  0  0  0
  -20.9257  -10.2905   20.5783 C   0  0  0  0  0  0  0  0  0  0  0  0
  -30.4617  -23.7496   23.0546 C   0  0  0  0  0  0  0  0  0  0  0  0
  -31.1159  -21.8733   24.2079 C   0  0  0  0  0  0  0  0  0  0  0  0
  -26.7272  -14.1554   20.7971 C   0  0  0  0  0  0  0  0  0  0  0  0
  -29.1571  -13.9266   20.0548 C   0  0  0  0  0  0  0  0  0  0  0  0
  -23.4247  -33.9237   24.6730 C   0  0  0  0  0  0  0  0  0  0  0  0
  -24.7793  -29.2192   20.1778 C   0  0  0  0  0  0  0  0  0  0  0  0
  -24.1255  -32.7725   24.2654 C   0  0  0  0  0  0  0  0  0  0  0  0
  -24.9878  -27.8790   20.5333 C   0  0  0  0  0  0  0  0  0  0  0  0
  -30.2000  -23.0187   21.9069 C   0  0  0  0  0  0  0  0  0  0  0  0
  -30.8847  -21.0545   23.1143 C   0  0  0  0  0  0  0  0  0  0  0  0
  -23.9798  -13.7449   20.5413 C   0  0  0  0  0  0  0  0  0  0  0  0
  -27.2710  -28.0292   19.7123 C   0  0  0  0  0  0  0  0  0  0  0  0
  -22.2074  -12.2749   20.0720 C   0  0  0  0  0  0  0  0  0  0  0  0
  -21.3379   -9.7174   19.3752 C   0  0  0  0  0  0  0  0  0  0  0  0
  -21.3605  -11.5693   20.9267 C   0  0  0  0  0  0  0  0  0  0  0  0
  -28.1462  -14.3682   20.9293 C   0  0  0  0  0  0  0  0  0  0  0  0
  -30.3232  -14.3815   20.6204 C   0  0  0  0  0  0  0  0  0  0  0  0
  -28.9880  -25.1868   19.1602 C   0  0  0  0  0  0  0  0  0  0  0  0
  -29.4621  -25.0238   20.5604 C   0  0  0  0  0  0  0  0  0  0  0  0
  -29.0517  -13.1726   18.8399 C   0  0  0  0  0  0  0  0  0  0  0  0
  -28.5302  -26.3473   18.6845 C   0  0  0  0  0  0  0  0  0  1  0  0
  -23.1079  -29.5076   22.8661 C   0  0  0  0  0  0  0  0  0  0  0  0
  -21.4215  -27.0305   21.6243 C   0  0  0  0  0  0  0  0  0  0  0  0
  -21.3407  -24.3493   19.5145 C   0  0  0  0  0  0  0  0  0  0  0  0
  -31.5797  -18.9333   24.2821 C   0  0  0  0  0  0  0  0  0  0  0  0
  -22.0942  -33.8345   25.3777 C   0  0  0  0  0  0  0  0  0  0  0  0
  -23.4376  -29.8644   20.3923 C   0  0  0  0  0  0  0  0  0  0  0  0
  -23.9026  -27.0486   21.1667 C   0  0  0  0  0  0  0  0  0  0  0  0
  -29.0847  -23.8940   18.4286 C   0  0  0  0  0  0  0  0  0  0  0  0
  -21.4052  -32.4827   25.2095 C   0  0  0  0  0  0  0  0  0  0  0  0
  -32.2445  -15.4845   24.8662 C   0  0  0  0  0  0  0  0  0  0  0  0
  -22.3930  -31.3461   25.4528 C   0  0  0  0  0  0  0  0  0  0  0  0
  -31.3656  -14.7669   23.8392 C   0  0  0  0  0  0  0  0  0  0  0  0
  -29.3697  -22.8910   19.5343 C   0  0  0  0  0  0  0  0  0  0  0  0
  -31.5592  -16.7287   25.4285 C   0  0  0  0  0  0  0  0  0  0  0  0
  -30.1907  -16.9595   23.3930 C   0  0  0  0  0  0  0  0  0  0  0  0
  -23.5419  -31.3869   24.4380 C   0  0  1  0  0  0  0  0  0  0  0  0
  -22.6157  -29.1854   21.4836 C   0  0  1  0  0  0  0  0  0  0  0  0
  -30.8649  -15.7363   22.7505 C   0  0  2  0  0  0  0  0  0  0  0  0
  -28.0487  -26.5347   17.2818 C   0  0  0  0  0  0  0  0  0  0  0  0
  -19.8371  -22.4941   18.7432 C   0  0  0  0  0  0  0  0  0  0  0  0
  -21.9162  -25.5442   24.2427 C   0  0  0  0  0  0  0  0  0  0  0  0
  -21.2497  -23.4264   23.0857 C   0  0  0  0  0  0  0  0  0  0  0  0
  -19.6065  -25.2887   23.3185 C   0  0  0  0  0  0  0  0  0  0  0  0
  -21.4081  -25.3027   16.7135 C   0  0  0  0  0  0  0  0  0  0  0  0
  -21.5263  -25.5259   21.6906 C   0  0  1  0  0  0  0  0  0  0  0  0
  -20.3195  -23.9121   18.4798 C   0  0  2  0  0  0  0  0  0  0  0  0
  -21.0960  -24.9623   23.0742 C   0  0  0  0  0  0  0  0  0  0  0  0
  -30.9156  -23.2103   24.2082 N   0  0  0  0  0  0  0  0  0  0  0  0
  -28.6277  -15.0512   21.9713 N   0  0  0  0  0  0  0  0  0  0  0  0
  -29.9541  -15.0420   21.7552 N   0  0  0  0  0  0  0  0  0  0  0  0
  -29.7191  -23.6561   20.7210 N   0  0  0  0  0  0  0  0  0  0  0  0
  -22.6101  -27.7262   21.3616 N   0  0  0  0  0  0  0  0  0  0  0  0
  -31.1155  -17.6021   24.3399 N   0  0  0  0  0  0  0  0  0  0  0  0
  -31.6179  -14.2770   20.2528 N   0  0  0  0  0  0  0  0  0  0  0  0
  -27.7777  -12.7860   18.4020 N   0  0  0  0  0  0  0  0  0  0  0  0
  -31.1163  -19.6584   23.1848 N   0  0  0  0  0  0  0  0  0  0  0  0
  -23.1088  -30.8572   23.1627 N   0  0  0  0  0  0  0  0  0  0  0  0
  -20.7484  -25.0128   20.5681 N   0  0  0  0  0  0  0  0  0  0  0  0
  -20.9130  -23.9605   17.1136 N   0  3  0  0  0  0  0  0  0  0  0  0
  -29.5666  -25.9524   21.3443 O   0  0  0  0  0  0  0  0  0  0  0  0
  -30.0586  -12.8372   18.1713 O   0  0  0  0  0  0  0  0  0  0  0  0
  -23.4594  -28.5989   23.6094 O   0  0  0  0  0  0  0  0  0  0  0  0
  -20.3241  -27.5682   21.7921 O   0  0  0  0  0  0  0  0  0  0  0  0
  -22.5432  -24.1215   19.4012 O   0  0  0  0  0  0  0  0  0  0  0  0
  -32.3544  -19.3877   25.1278 O   0  0  0  0  0  0  0  0  0  0  0  0
  -22.6393  -13.5448   20.4161 O   0  0  0  0  0  0  0  0  0  0  0  0
  -28.4821  -27.4490   19.4917 O   0  0  0  0  0  0  0  0  0  1  0  0
  -20.9192   -8.4900   19.0398 F   0  0  0  0  0  0  0  0  0  0  0  0
  -20.9602  -12.1151   22.0832 F   0  0  0  0  0  0  0  0  0  0  0  0
  1  2  1  0  0  0  0
  1  5  2  0  0  0  0
  2  6  2  0  0  0  0
  3  8  2  0  0  0  0
  3 18  1  0  0  0  0
  4  9  1  0  0  0  0
  4 18  2  0  0  0  0
  5 20  1  0  0  0  0
  6 22  1  0  0  0  0
  7 10  2  0  0  0  0
  7 21  1  0  0  0  0
  8 26  1  0  0  0  0
  9 26  2  0  0  0  0
 10 27  1  0  0  0  0
 11 12  2  0  0  0  0
 11 28  1  0  0  0  0
 12 29  1  0  0  0  0
 13 23  1  0  0  0  0
 13 27  2  0  0  0  0
 14 24  2  0  0  0  0
 14 25  1  0  0  0  0
 15 29  2  0  0  0  0
 15 30  1  0  0  0  0
 16 24  1  0  0  0  0
 16 64  2  0  0  0  0
 17 25  2  0  0  0  0
 17 64  1  0  0  0  0
 18 31  1  0  0  0  0
 19 31  1  0  0  0  0
 19 32  2  0  0  0  0
 19 35  1  0  0  0  0
 20 22  2  0  0  0  0
 20 41  1  0  0  0  0
 21 23  2  0  0  0  0
 21 42  1  0  0  0  0
 22 52  1  0  0  0  0
 23 43  1  0  0  0  0
 24 67  1  0  0  0  0
 25 72  1  0  0  0  0
 26 82  1  0  0  0  0
 27 83  1  0  0  0  0
 28 30  2  0  0  0  0
 28 82  1  0  0  0  0
 29 84  1  0  0  0  0
 30 85  1  0  0  0  0
 31 65  2  0  0  0  0
 32 66  1  0  0  0  0
 32 70  1  0  0  0  0
 33 34  1  0  0  0  0
 33 36  2  0  0  0  0
 33 44  1  0  0  0  0
 34 67  1  0  0  0  0
 34 76  2  0  0  0  0
 35 71  1  0  0  0  0
 35 77  2  0  0  0  0
 36 55  1  0  0  0  0
 36 83  1  0  0  0  0
 37 53  1  0  0  0  0
 37 73  1  0  0  0  0
 37 78  2  0  0  0  0
 38 61  1  0  0  0  0
 38 68  1  0  0  0  0
 38 79  2  0  0  0  0
 39 62  1  0  0  0  0
 39 74  1  0  0  0  0
 39 80  2  0  0  0  0
 40 69  1  0  0  0  0
 40 72  1  0  0  0  0
 40 81  2  0  0  0  0
 41 45  1  0  0  0  0
 42 53  1  0  0  0  0
 43 68  1  0  0  0  0
 44 49  1  0  0  0  0
 45 47  1  0  0  0  0
 46 48  1  0  0  0  0
 46 50  1  0  0  0  0
 47 52  1  0  0  0  0
 48 54  1  0  0  0  0
 49 67  1  0  0  0  0
 50 69  1  0  0  0  0
 51 54  1  0  0  0  0
 51 69  1  0  0  0  0
 52 73  1  0  0  0  0
 53 68  1  0  0  0  0
 54 66  1  0  0  0  0
 56 62  1  0  0  0  0
 57 63  1  0  0  0  0
 58 63  1  0  0  0  0
 59 63  1  0  0  0  0
 60 75  1  0  0  0  0
 61 63  1  0  0  0  0
 61 74  1  0  0  0  0
 62 75  1  0  0  0  0
 65 66  1  0  0  0  0
M  CHG  1  75   1
M  ISO  4  36 101  40 100  72 100  83 101
M  END
> <Batch ID>
0085

> <Smiles>
CNC(C)C(=O)NC(C(=O)N1Cc2cc([101O:1][101C:1](C)=C3CCN(c4cncc([100NH:0][100C:0](=O)N5CCCC(n6nc(-c7ccc(Oc8ccc(F)cc8F)cc7)c(C(N)=O)c6N)C5)c4)C3=O)ccc2CC1C(=O)NC1CCCc2ccccc21)C(C)(C)C

> <Shape>
0.270

> <Color>
0.066

> <Negative vol penalty>
0.000

$$$$
