
  -OEChem-04052300173D

 87 96  0     1  0  0  0  0  0999 V2000
  -27.0636  -35.6835   15.0442 C   0  0  0  0  0  0  0  0  0  0  0  0
  -27.6211  -34.5030   15.5248 C   0  0  0  0  0  0  0  0  0  0  0  0
  -22.7156  -10.1236   20.3334 C   0  0  0  0  0  0  0  0  0  0  0  0
  -24.5807   -8.9586   21.3339 C   0  0  0  0  0  0  0  0  0  0  0  0
  -26.1825  -36.4124   15.8419 C   0  0  0  0  0  0  0  0  0  0  0  0
  -27.2987  -34.0513   16.8041 C   0  0  0  0  0  0  0  0  0  0  0  0
  -26.7177  -28.2299   18.6150 C   0  0  0  0  0  0  0  0  0  0  0  0
  -21.8582   -9.5650   21.2812 C   0  0  0  0  0  0  0  0  0  0  0  0
  -23.7233   -8.4000   22.2818 C   0  0  0  0  0  0  0  0  0  0  0  0
  -27.5858  -27.3622   19.2762 C   0  0  0  0  0  0  0  0  0  0  0  0
  -21.4840   -5.8715   22.4323 C   0  0  0  0  0  0  0  0  0  0  0  0
  -21.6174   -4.5099   22.7043 C   0  0  0  0  0  0  0  0  0  0  0  0
  -26.5431  -27.9290   21.3764 C   0  0  0  0  0  0  0  0  0  0  0  0
  -31.3667  -19.8329   20.3862 C   0  0  0  0  0  0  0  0  0  0  0  0
  -22.1011   -5.0191   25.0160 C   0  0  0  0  0  0  0  0  0  0  0  0
  -28.9289  -18.6154   20.5305 C   0  0  0  0  0  0  0  0  0  0  0  0
  -24.0769   -9.8203   20.3597 C   0  0  0  0  0  0  0  0  0  0  0  0
  -24.8954  -10.2497   17.9820 C   0  0  0  0  0  0  0  0  0  0  0  0
  -25.8417  -35.9643   17.1279 C   0  0  0  0  0  0  0  0  0  0  0  0
  -25.7614  -28.9631   19.3321 C   0  0  0  0  0  0  0  0  0  0  0  0
  -26.4133  -34.7756   17.6203 C   0  0  0  0  0  0  0  0  0  0  0  0
  -25.6623  -28.8034   20.7216 C   0  0  0  0  0  0  0  0  0  0  0  0
  -31.2719  -18.4659   20.1499 C   0  0  0  0  0  0  0  0  0  0  0  0
  -30.0334  -17.8379   20.2215 C   0  0  0  0  0  0  0  0  0  0  0  0
  -22.3620   -8.7033   22.2555 C   0  0  0  0  0  0  0  0  0  0  0  0
  -27.5005  -27.2138   20.6575 C   0  0  0  0  0  0  0  0  0  0  0  0
  -21.6592   -6.8069   23.4521 C   0  0  0  0  0  0  0  0  0  0  0  0
  -21.9259   -4.0837   23.9961 C   0  0  0  0  0  0  0  0  0  0  0  0
  -21.9677   -6.3807   24.7440 C   0  0  0  0  0  0  0  0  0  0  0  0
  -24.9630  -10.3966   19.3805 C   0  0  0  0  0  0  0  0  0  0  0  0
  -30.2025  -20.5211   20.6876 C   0  0  0  0  0  0  0  0  0  0  0  0
  -25.9532  -10.9864   17.5079 C   0  0  0  0  0  0  0  0  0  0  0  0
  -29.3997  -24.2463   21.0415 C   0  0  0  0  0  0  0  0  0  0  0  0
  -29.2368  -22.8065   20.6296 C   0  0  0  0  0  0  0  0  0  0  0  0
  -31.4753  -23.6585   22.2168 C   0  0  0  0  0  0  0  0  0  0  0  0
  -31.9647  -23.7440   23.4618 C   0  0  0  0  0  0  0  0  0  0  0  0
  -28.3241  -25.0457   20.9607 C   0  0  0  0  0  0  0  0  0  1  0  0
  -23.9600   -9.5133   17.1830 C   0  0  0  0  0  0  0  0  0  0  0  0
  -25.1988  -32.0554   19.8063 C   0  0  0  0  0  0  0  0  0  0  0  0
  -22.5472  -30.9436   21.3081 C   0  0  0  0  0  0  0  0  0  0  0  0
  -21.0034  -28.3724   22.9367 C   0  0  0  0  0  0  0  0  0  0  0  0
  -28.7084  -15.6943   20.0377 C   0  0  0  0  0  0  0  0  0  0  0  0
  -24.9215  -36.8108   17.9714 C   0  0  0  0  0  0  0  0  0  0  0  0
  -24.8146  -29.8749   18.6007 C   0  0  0  0  0  0  0  0  0  0  0  0
  -24.6397  -29.5524   21.5350 C   0  0  0  0  0  0  0  0  0  0  0  0
  -30.7084  -24.7572   21.5590 C   0  0  0  0  0  0  0  0  0  0  0  0
  -31.6342  -22.4501   21.3498 C   0  0  0  0  0  0  0  0  0  0  0  0
  -24.3407  -36.0683   19.1720 C   0  0  0  0  0  0  0  0  0  0  0  0
  -30.1806  -12.1868   19.5334 C   0  0  0  0  0  0  0  0  0  0  0  0
  -25.4353  -35.2984   19.9041 C   0  0  0  0  0  0  0  0  0  0  0  0
  -29.0979  -11.5832   18.6419 C   0  0  0  0  0  0  0  0  0  0  0  0
  -30.2021  -13.7087   19.4661 C   0  0  0  0  0  0  0  0  0  0  0  0
  -27.7395  -13.4167   19.7923 C   0  0  0  0  0  0  0  0  0  0  0  0
  -26.0689  -34.2400   18.9931 C   0  0  1  0  0  0  0  0  0  0  0  0
  -24.2198  -30.9593   19.4938 C   0  0  1  0  0  0  0  0  0  0  0  0
  -27.7926  -12.4032   18.6385 C   0  0  2  0  0  0  0  0  0  0  0  0
  -32.5110  -17.6987   19.8232 C   0  0  0  0  0  0  0  0  0  0  0  0
  -18.8516  -27.7746   24.0811 C   0  0  0  0  0  0  0  0  0  0  0  0
  -23.3823  -32.5938   23.7349 C   0  0  0  0  0  0  0  0  0  0  0  0
  -21.7827  -31.2482   25.1130 C   0  0  0  0  0  0  0  0  0  0  0  0
  -20.9335  -32.6467   23.2300 C   0  0  0  0  0  0  0  0  0  0  0  0
  -20.4572  -26.1844   21.0201 C   0  0  0  0  0  0  0  0  0  0  0  0
  -22.2138  -30.5271   22.7203 C   0  0  1  0  0  0  0  0  0  0  0  0
  -19.6249  -27.7586   22.7717 C   0  0  2  0  0  0  0  0  0  0  0  0
  -22.0987  -31.7412   23.6847 C   0  0  0  0  0  0  0  0  0  0  0  0
  -28.9818  -19.9455   20.7663 N   0  0  0  0  0  0  0  0  0  0  0  0
  -25.9832  -11.1659   19.7694 N   0  0  0  0  0  0  0  0  0  0  0  0
  -26.5664  -11.5090   18.6083 N   0  0  0  0  0  0  0  0  0  0  0  0
  -30.3113  -21.9429   20.9346 N   0  0  0  0  0  0  0  0  0  0  0  0
  -23.7407  -30.4366   20.7750 N   0  0  0  0  0  0  0  0  0  0  0  0
  -28.8971  -14.3181   19.7608 N   0  0  0  0  0  0  0  0  0  0  0  0
  -26.4095  -11.2314   16.2612 N   0  0  0  0  0  0  0  0  0  0  0  0
  -24.2478   -8.1755   16.8802 N   0  0  0  0  0  0  0  0  0  0  0  0
  -29.8850  -16.4469   19.9935 N   0  0  0  0  0  0  0  0  0  0  0  0
  -25.2047  -33.0843   18.8839 N   0  0  0  0  0  0  0  0  0  0  0  0
  -21.0036  -29.7172   22.6321 N   0  0  0  0  0  0  0  0  0  0  0  0
  -19.7386  -26.3461   22.3103 N   0  3  0  0  0  0  0  0  0  0  0  0
  -28.2074  -22.4669   20.0428 O   0  0  0  0  0  0  0  0  0  0  0  0
  -22.9083  -10.0312   16.7367 O   0  0  0  0  0  0  0  0  0  0  0  0
  -25.8960  -31.9745   20.8108 O   0  0  0  0  0  0  0  0  0  0  0  0
  -21.7735  -31.6856   20.6979 O   0  0  0  0  0  0  0  0  0  0  0  0
  -21.9815  -27.7246   23.3031 O   0  0  0  0  0  0  0  0  0  0  0  0
  -27.5926  -16.1594   20.2796 O   0  0  0  0  0  0  0  0  0  0  0  0
  -21.5257   -8.1582   23.1807 O   0  0  0  0  0  0  0  0  0  0  0  0
  -28.3471  -26.3680   21.3054 O   0  0  0  0  0  0  0  0  0  1  0  0
  -22.0524   -2.7761   24.2575 F   0  0  0  0  0  0  0  0  0  0  0  0
  -22.1361   -7.2745   25.7281 F   0  0  0  0  0  0  0  0  0  0  0  0
  1  2  1  0  0  0  0
  1  5  2  0  0  0  0
  2  6  2  0  0  0  0
  3  8  2  0  0  0  0
  3 17  1  0  0  0  0
  4  9  1  0  0  0  0
  4 17  2  0  0  0  0
  5 19  1  0  0  0  0
  6 21  1  0  0  0  0
  7 10  2  0  0  0  0
  7 20  1  0  0  0  0
  8 25  1  0  0  0  0
  9 25  2  0  0  0  0
 10 26  1  0  0  0  0
 11 12  2  0  0  0  0
 11 27  1  0  0  0  0
 12 28  1  0  0  0  0
 13 22  1  0  0  0  0
 13 26  2  0  0  0  0
 14 23  2  0  0  0  0
 14 31  1  0  0  0  0
 15 28  2  0  0  0  0
 15 29  1  0  0  0  0
 16 24  2  0  0  0  0
 16 66  1  0  0  0  0
 17 30  1  0  0  0  0
 18 30  1  0  0  0  0
 18 32  2  0  0  0  0
 18 38  1  0  0  0  0
 19 21  2  0  0  0  0
 19 43  1  0  0  0  0
 20 22  2  0  0  0  0
 20 44  1  0  0  0  0
 21 54  1  0  0  0  0
 22 45  1  0  0  0  0
 23 24  1  0  0  0  0
 23 57  1  0  0  0  0
 24 74  1  0  0  0  0
 25 84  1  0  0  0  0
 26 85  1  0  0  0  0
 27 29  2  0  0  0  0
 27 84  1  0  0  0  0
 28 86  1  0  0  0  0
 29 87  1  0  0  0  0
 30 67  2  0  0  0  0
 31 66  2  0  0  0  0
 31 69  1  0  0  0  0
 32 68  1  0  0  0  0
 32 72  1  0  0  0  0
 33 34  1  0  0  0  0
 33 37  2  0  0  0  0
 33 46  1  0  0  0  0
 34 69  1  0  0  0  0
 34 78  2  0  0  0  0
 35 36  2  0  0  0  0
 35 46  1  0  0  0  0
 35 47  1  0  0  0  0
 37 85  1  0  0  0  0
 38 73  1  0  0  0  0
 38 79  2  0  0  0  0
 39 55  1  0  0  0  0
 39 75  1  0  0  0  0
 39 80  2  0  0  0  0
 40 63  1  0  0  0  0
 40 70  1  0  0  0  0
 40 81  2  0  0  0  0
 41 64  1  0  0  0  0
 41 76  1  0  0  0  0
 41 82  2  0  0  0  0
 42 71  1  0  0  0  0
 42 74  1  0  0  0  0
 42 83  2  0  0  0  0
 43 48  1  0  0  0  0
 44 55  1  0  0  0  0
 45 70  1  0  0  0  0
 47 69  1  0  0  0  0
 48 50  1  0  0  0  0
 49 51  1  0  0  0  0
 49 52  1  0  0  0  0
 50 54  1  0  0  0  0
 51 56  1  0  0  0  0
 52 71  1  0  0  0  0
 53 56  1  0  0  0  0
 53 71  1  0  0  0  0
 54 75  1  0  0  0  0
 55 70  1  0  0  0  0
 56 68  1  0  0  0  0
 58 64  1  0  0  0  0
 59 65  1  0  0  0  0
 60 65  1  0  0  0  0
 61 65  1  0  0  0  0
 62 77  1  0  0  0  0
 63 65  1  0  0  0  0
 63 76  1  0  0  0  0
 64 77  1  0  0  0  0
 67 68  1  0  0  0  0
M  CHG  1  77   1
M  ISO  4  37 101  42 100  74 100  85 101
M  END
> <Batch ID>
0086

> <Smiles>
C=C1CC(=[101CH:1][101O:1]c2ccc3c(c2)CN(C(=O)C(NC(=O)C(C)NC)C(C)(C)C)C(C(=O)NC2CCCc4ccccc42)C3)C(=O)N(c2cc(C)c([100NH:0][100C:0](=O)N3CCCC(n4nc(-c5ccc(Oc6ccc(F)cc6F)cc5)c(C(N)=O)c4N)C3)cn2)C1

> <Shape>
0.292

> <Color>
0.109

> <Negative vol penalty>
0.000

$$$$

  -OEChem-04052300173D

 83 91  0     1  0  0  0  0  0999 V2000
  -32.1314  -34.7767   22.5567 C   0  0  0  0  0  0  0  0  0  0  0  0
  -31.8307  -33.4375   22.3299 C   0  0  0  0  0  0  0  0  0  0  0  0
  -23.8928   -9.7848   22.0273 C   0  0  0  0  0  0  0  0  0  0  0  0
  -24.4849  -11.2505   23.8545 C   0  0  0  0  0  0  0  0  0  0  0  0
  -28.7859  -20.5319   20.0759 C   0  0  0  0  0  0  0  0  0  0  0  0
  -31.3189  -35.5403   23.3938 C   0  0  0  0  0  0  0  0  0  0  0  0
  -30.7178  -32.8607   22.9409 C   0  0  0  0  0  0  0  0  0  0  0  0
  -28.0085  -30.0106   19.7501 C   0  0  0  0  0  0  0  0  0  0  0  0
  -28.4834  -19.1858   19.8702 C   0  0  0  0  0  0  0  0  0  0  0  0
  -23.4303   -8.8355   22.9387 C   0  0  0  0  0  0  0  0  0  0  0  0
  -24.0223  -10.3012   24.7658 C   0  0  0  0  0  0  0  0  0  0  0  0
  -28.4992  -28.7384   19.4594 C   0  0  0  0  0  0  0  0  0  0  0  0
  -20.6715   -8.3333   24.8279 C   0  0  0  0  0  0  0  0  0  0  0  0
  -19.4459   -7.7227   24.5621 C   0  0  0  0  0  0  0  0  0  0  0  0
  -26.9486  -27.7852   21.0426 C   0  0  0  0  0  0  0  0  0  0  0  0
  -30.8390  -18.6864   19.6740 C   0  0  0  0  0  0  0  0  0  0  0  0
  -20.5328   -5.5656   24.5059 C   0  0  0  0  0  0  0  0  0  0  0  0
  -24.4202  -10.9923   22.4852 C   0  0  0  0  0  0  0  0  0  0  0  0
  -30.1150  -20.9552   20.0804 C   0  0  0  0  0  0  0  0  0  0  0  0
  -24.1587  -13.0129   20.9502 C   0  0  0  0  0  0  0  0  0  0  0  0
  -30.1900  -34.9752   24.0078 C   0  0  0  0  0  0  0  0  0  0  0  0
  -26.9900  -30.1810   20.6988 C   0  0  0  0  0  0  0  0  0  0  0  0
  -29.8902  -33.6172   23.7881 C   0  0  0  0  0  0  0  0  0  0  0  0
  -26.4450  -29.0604   21.3417 C   0  0  0  0  0  0  0  0  0  0  0  0
  -29.5099  -18.2631   19.6693 C   0  0  0  0  0  0  0  0  0  0  0  0
  -23.4951   -9.0937   24.3079 C   0  0  0  0  0  0  0  0  0  0  0  0
  -27.9712  -27.6257   20.1078 C   0  0  0  0  0  0  0  0  0  0  0  0
  -21.8278   -7.5601   24.9327 C   0  0  0  0  0  0  0  0  0  0  0  0
  -19.3765   -6.3388   24.4011 C   0  0  0  0  0  0  0  0  0  0  0  0
  -31.1415  -20.0325   19.8795 C   0  0  0  0  0  0  0  0  0  0  0  0
  -21.7584   -6.1763   24.7717 C   0  0  0  0  0  0  0  0  0  0  0  0
  -24.8986  -11.9731   21.5443 C   0  0  0  0  0  0  0  0  0  0  0  0
  -25.0618  -13.6581   20.1411 C   0  0  0  0  0  0  0  0  0  0  0  0
  -29.5549  -24.4749   20.6759 C   0  0  0  0  0  0  0  0  0  0  0  0
  -30.4335  -22.3963   20.2979 C   0  0  0  0  0  0  0  0  0  0  0  0
  -22.7784  -13.3643   21.1150 C   0  0  0  0  0  0  0  0  0  0  0  0
  -26.7476  -31.6981   23.4815 C   0  0  0  0  0  0  0  0  0  0  0  0
  -23.6334  -30.8217   23.2445 C   0  0  0  0  0  0  0  0  0  0  0  0
  -21.3176  -28.6792   21.9432 C   0  0  0  0  0  0  0  0  0  0  0  0
  -30.1008  -15.8511   19.2458 C   0  0  0  0  0  0  0  0  0  0  0  0
  -29.3686  -35.8279   24.9420 C   0  0  0  0  0  0  0  0  0  0  0  0
  -26.4533  -31.5574   20.9816 C   0  0  0  0  0  0  0  0  0  0  0  0
  -25.3366  -29.1876   22.3534 C   0  0  0  0  0  0  0  0  0  0  0  0
  -27.9949  -35.2399   25.2541 C   0  0  0  0  0  0  0  0  0  0  0  0
  -29.7420  -12.3468   18.7278 C   0  0  0  0  0  0  0  0  0  0  0  0
  -28.1137  -33.7581   25.5963 C   0  0  0  0  0  0  0  0  0  0  0  0
  -28.3891  -12.0227   19.3655 C   0  0  0  0  0  0  0  0  0  0  0  0
  -30.4998  -13.4133   19.5165 C   0  0  0  0  0  0  0  0  0  0  0  0
  -28.3931  -14.3226   20.4132 C   0  0  0  0  0  0  0  0  0  0  0  0
  -28.6776  -32.9622   24.4132 C   0  0  1  0  0  0  0  0  0  0  0  0
  -25.7697  -31.6644   22.3412 C   0  0  1  0  0  0  0  0  0  0  0  0
  -27.5646  -13.3002   19.6181 C   0  0  2  0  0  0  0  0  0  0  0  0
  -18.8560  -28.1918   21.9602 C   0  0  0  0  0  0  0  0  0  0  0  0
  -23.9001  -29.5844   26.0208 C   0  0  0  0  0  0  0  0  0  0  0  0
  -21.7809  -28.3240   25.5863 C   0  0  0  0  0  0  0  0  0  0  0  0
  -21.7601  -30.8181   25.6296 C   0  0  0  0  0  0  0  0  0  0  0  0
  -21.0895  -29.1341   19.0277 C   0  0  0  0  0  0  0  0  0  0  0  0
  -28.4047  -25.4171   20.8760 C   0  0  0  0  0  0  0  0  0  1  0  0
  -22.8250  -29.6213   23.6737 C   0  0  1  0  0  0  0  0  0  0  0  0
  -19.9858  -28.9298   21.2590 C   0  0  2  0  0  0  0  0  0  0  0  0
  -22.5887  -29.5844   25.2100 C   0  0  0  0  0  0  0  0  0  0  0  0
  -26.1735  -11.9549   21.1465 N   0  0  0  0  0  0  0  0  0  0  0  0
  -29.3410  -23.2164   20.4829 N   0  0  0  0  0  0  0  0  0  0  0  0
  -26.2417  -12.9912   20.2936 N   0  0  0  0  0  0  0  0  0  0  0  0
  -24.8498  -30.5549   22.6003 N   0  0  0  0  0  0  0  0  0  0  0  0
  -29.6582  -14.5956   19.7135 N   0  0  0  0  0  0  0  0  0  0  0  0
  -24.9537  -14.7251   19.3212 N   0  0  0  0  0  0  0  0  0  0  0  0
  -21.9927  -12.5960   21.9849 N   0  0  0  0  0  0  0  0  0  0  0  0
  -29.2024  -16.8958   19.4605 N   0  0  0  0  0  0  0  0  0  0  0  0
  -27.6511  -32.7417   23.4171 N   0  0  0  0  0  0  0  0  0  0  0  0
  -21.6003  -29.6493   22.8814 N   0  0  0  0  0  0  0  0  0  0  0  0
  -20.0375  -28.4724   19.8416 N   0  3  0  0  0  0  0  0  0  0  0  0
  -31.6103  -22.7475   20.2969 O   0  0  0  0  0  0  0  0  0  0  0  0
  -22.2533  -14.3208   20.4963 O   0  0  0  0  0  0  0  0  0  0  0  0
  -26.6860  -30.8417   24.3558 O   0  0  0  0  0  0  0  0  0  0  0  0
  -23.1982  -31.9545   23.4660 O   0  0  0  0  0  0  0  0  0  0  0  0
  -22.0336  -27.7170   21.6750 O   0  0  0  0  0  0  0  0  0  0  0  0
  -31.1843  -15.9844   18.6711 O   0  0  0  0  0  0  0  0  0  0  0  0
  -23.0436   -8.1677   25.1975 O   0  0  0  0  0  0  0  0  0  0  0  0
  -28.4487  -26.3829   19.8263 O   0  0  0  0  0  0  0  0  0  1  0  0
  -18.1993   -5.7524   24.1473 F   0  0  0  0  0  0  0  0  0  0  0  0
  -32.4226  -20.4281   19.8815 F   0  0  0  0  0  0  0  0  0  0  0  0
  -22.8656   -5.4281   24.8724 F   0  0  0  0  0  0  0  0  0  0  0  0
  1  2  1  0  0  0  0
  1  6  2  0  0  0  0
  2  7  2  0  0  0  0
  3 10  2  0  0  0  0
  3 18  1  0  0  0  0
  4 11  1  0  0  0  0
  4 18  2  0  0  0  0
  5  9  2  0  0  0  0
  5 19  1  0  0  0  0
  6 21  1  0  0  0  0
  7 23  1  0  0  0  0
  8 12  2  0  0  0  0
  8 22  1  0  0  0  0
  9 25  1  0  0  0  0
 10 26  1  0  0  0  0
 11 26  2  0  0  0  0
 12 27  1  0  0  0  0
 13 14  2  0  0  0  0
 13 28  1  0  0  0  0
 14 29  1  0  0  0  0
 15 24  1  0  0  0  0
 15 27  2  0  0  0  0
 16 25  2  0  0  0  0
 16 30  1  0  0  0  0
 17 29  2  0  0  0  0
 17 31  1  0  0  0  0
 18 32  1  0  0  0  0
 19 30  2  0  0  0  0
 19 35  1  0  0  0  0
 20 32  1  0  0  0  0
 20 33  2  0  0  0  0
 20 36  1  0  0  0  0
 21 23  2  0  0  0  0
 21 41  1  0  0  0  0
 22 24  2  0  0  0  0
 22 42  1  0  0  0  0
 23 50  1  0  0  0  0
 24 43  1  0  0  0  0
 25 69  1  0  0  0  0
 26 79  1  0  0  0  0
 27 80  1  0  0  0  0
 28 31  2  0  0  0  0
 28 79  1  0  0  0  0
 29 81  1  0  0  0  0
 30 82  1  0  0  0  0
 31 83  1  0  0  0  0
 32 62  2  0  0  0  0
 33 64  1  0  0  0  0
 33 67  1  0  0  0  0
 34 58  1  0  0  0  0
 34 63  2  0  0  0  0
 35 63  1  0  0  0  0
 35 73  2  0  0  0  0
 36 68  1  0  0  0  0
 36 74  2  0  0  0  0
 37 51  1  0  0  0  0
 37 70  1  0  0  0  0
 37 75  2  0  0  0  0
 38 59  1  0  0  0  0
 38 65  1  0  0  0  0
 38 76  2  0  0  0  0
 39 60  1  0  0  0  0
 39 71  1  0  0  0  0
 39 77  2  0  0  0  0
 40 66  1  0  0  0  0
 40 69  1  0  0  0  0
 40 78  2  0  0  0  0
 41 44  1  0  0  0  0
 42 51  1  0  0  0  0
 43 65  1  0  0  0  0
 44 46  1  0  0  0  0
 45 47  1  0  0  0  0
 45 48  1  0  0  0  0
 46 50  1  0  0  0  0
 47 52  1  0  0  0  0
 48 66  1  0  0  0  0
 49 52  1  0  0  0  0
 49 66  1  0  0  0  0
 50 70  1  0  0  0  0
 51 65  1  0  0  0  0
 52 64  1  0  0  0  0
 53 60  1  0  0  0  0
 54 61  1  0  0  0  0
 55 61  1  0  0  0  0
 56 61  1  0  0  0  0
 57 72  1  0  0  0  0
 58 80  1  0  0  0  0
 59 61  1  0  0  0  0
 59 71  1  0  0  0  0
 60 72  1  0  0  0  0
 62 64  1  0  0  0  0
M  CHG  1  72   1
M  ISO  4  40 100  58 101  69 100  80 101
M  END
> <Batch ID>
0086

> <Smiles>
CNC(C)C(=O)NC(C(=O)N1Cc2cc([101O:1][101CH:1]=CNC(=O)c3ccc([100NH:0][100C:0](=O)N4CCCC(n5nc(-c6ccc(Oc7ccc(F)cc7F)cc6)c(C(N)=O)c5N)C4)cc3F)ccc2CC1C(=O)NC1CCCc2ccccc21)C(C)(C)C

> <Shape>
0.303

> <Color>
0.144

> <Negative vol penalty>
0.000

$$$$

  -OEChem-04052300173D

 84 92  0     1  0  0  0  0  0999 V2000
  -32.0160  -34.1868   20.0453 C   0  0  0  0  0  0  0  0  0  0  0  0
  -31.4602  -32.9124   19.9979 C   0  0  0  0  0  0  0  0  0  0  0  0
  -32.2513  -21.3318   21.2102 C   0  0  0  0  0  0  0  0  0  0  0  0
  -24.3942   -9.0312   22.1791 C   0  0  0  0  0  0  0  0  0  0  0  0
  -24.1145   -8.7204   19.7996 C   0  0  0  0  0  0  0  0  0  0  0  0
  -31.9482  -19.9837   21.4003 C   0  0  0  0  0  0  0  0  0  0  0  0
  -31.6187  -35.0830   21.0367 C   0  0  0  0  0  0  0  0  0  0  0  0
  -30.5075  -32.5329   20.9428 C   0  0  0  0  0  0  0  0  0  0  0  0
  -26.5639  -30.1276   18.8673 C   0  0  0  0  0  0  0  0  0  0  0  0
  -31.2760  -22.2047   20.7277 C   0  0  0  0  0  0  0  0  0  0  0  0
  -23.2886   -8.2143   22.4158 C   0  0  0  0  0  0  0  0  0  0  0  0
  -23.0089   -7.9035   20.0363 C   0  0  0  0  0  0  0  0  0  0  0  0
  -26.7443  -28.7889   18.5223 C   0  0  0  0  0  0  0  0  0  0  0  0
  -22.6045   -4.9035   22.4738 C   0  0  0  0  0  0  0  0  0  0  0  0
  -22.7154   -3.9359   23.4724 C   0  0  0  0  0  0  0  0  0  0  0  0
  -29.6946  -20.3811   20.6253 C   0  0  0  0  0  0  0  0  0  0  0  0
  -25.6135  -28.1212   20.5458 C   0  0  0  0  0  0  0  0  0  0  0  0
  -20.8700   -4.9485   24.6584 C   0  0  0  0  0  0  0  0  0  0  0  0
  -24.8071   -9.2842   20.8710 C   0  0  0  0  0  0  0  0  0  0  0  0
  -30.6699  -19.5083   21.1078 C   0  0  0  0  0  0  0  0  0  0  0  0
  -27.2944   -9.7287   20.5196 C   0  0  0  0  0  0  0  0  0  0  0  0
  -30.6535  -34.7176   21.9884 C   0  0  0  0  0  0  0  0  0  0  0  0
  -25.9154  -30.4737   20.0616 C   0  0  0  0  0  0  0  0  0  0  0  0
  -30.0978  -33.4246   21.9487 C   0  0  0  0  0  0  0  0  0  0  0  0
  -25.4238  -29.4651   20.9025 C   0  0  0  0  0  0  0  0  0  0  0  0
  -29.9977  -21.7293   20.4352 C   0  0  0  0  0  0  0  0  0  0  0  0
  -22.5960   -7.6505   21.3444 C   0  0  0  0  0  0  0  0  0  0  0  0
  -26.2717  -27.7855   19.3630 C   0  0  0  0  0  0  0  0  0  0  0  0
  -21.6265   -5.8937   22.5676 C   0  0  0  0  0  0  0  0  0  0  0  0
  -21.8481   -3.9584   24.5646 C   0  0  0  0  0  0  0  0  0  0  0  0
  -20.7593   -5.9161   23.6598 C   0  0  0  0  0  0  0  0  0  0  0  0
  -25.9488  -10.1284   20.6258 C   0  0  0  0  0  0  0  0  0  0  0  0
  -27.9815  -10.8947   20.2857 C   0  0  0  0  0  0  0  0  0  0  0  0
  -30.3550  -18.1023   21.3069 C   0  0  0  0  0  0  0  0  0  0  0  0
  -29.1131  -17.5883   21.4350 C   0  0  0  0  0  0  0  0  0  0  0  0
  -27.5849  -25.8521   19.4549 C   0  0  0  0  0  0  0  0  0  1  0  0
  -27.8717   -8.4204   20.6231 C   0  0  0  0  0  0  0  0  0  0  0  0
  -27.8597  -24.5703   19.1845 C   0  0  0  0  0  0  0  0  0  0  0  0
  -28.9560  -16.1320   21.6226 C   0  0  0  0  0  0  0  0  0  0  0  0
  -29.1363  -23.9758   19.6993 C   0  0  0  0  0  0  0  0  0  0  0  0
  -26.7535  -32.0426   22.6959 C   0  0  0  0  0  0  0  0  0  0  0  0
  -23.6160  -31.6854   23.4383 C   0  0  0  0  0  0  0  0  0  0  0  0
  -20.7177  -29.9359   23.0070 C   0  0  0  0  0  0  0  0  0  0  0  0
  -30.2904  -35.7043   23.0697 C   0  0  0  0  0  0  0  0  0  0  0  0
  -25.7050  -31.9226   20.4063 C   0  0  0  0  0  0  0  0  0  0  0  0
  -24.7029  -29.7840   22.1859 C   0  0  0  0  0  0  0  0  0  0  0  0
  -29.0007  -35.3529   23.8068 C   0  0  0  0  0  0  0  0  0  0  0  0
  -26.3436  -15.5210   19.1258 C   0  0  0  0  0  0  0  0  0  0  0  0
  -28.9888  -33.8758   24.1875 C   0  0  0  0  0  0  0  0  0  0  0  0
  -26.0894  -14.0293   19.3257 C   0  0  0  0  0  0  0  0  0  0  0  0
  -26.6972  -16.2215   20.4368 C   0  0  0  0  0  0  0  0  0  0  0  0
  -27.5863  -14.1004   21.3591 C   0  0  0  0  0  0  0  0  0  0  0  0
  -29.0434  -32.9844   22.9410 C   0  0  1  0  0  0  0  0  0  0  0  0
  -25.4855  -32.1561   21.8978 C   0  0  1  0  0  0  0  0  0  0  0  0
  -27.2749  -13.3668   20.0452 C   0  0  1  0  0  0  0  0  0  0  0  0
  -18.3304  -29.8584   23.7764 C   0  0  0  0  0  0  0  0  0  0  0  0
  -24.5108  -30.4538   26.0826 C   0  0  0  0  0  0  0  0  0  0  0  0
  -22.1925  -29.5525   26.3673 C   0  0  0  0  0  0  0  0  0  0  0  0
  -22.5669  -32.0166   26.2646 C   0  0  0  0  0  0  0  0  0  0  0  0
  -19.6980  -30.3877   20.2656 C   0  0  0  0  0  0  0  0  0  0  0  0
  -22.8001  -30.6386   24.1577 C   0  0  1  0  0  0  0  0  0  0  0  0
  -19.2967  -30.3931   22.7309 C   0  0  2  0  0  0  0  0  0  0  0  0
  -23.0328  -30.6590   25.6949 C   0  0  0  0  0  0  0  0  0  0  0  0
  -25.7884  -11.4455   20.4721 N   0  0  0  0  0  0  0  0  0  0  0  0
  -27.0423  -11.8835   20.2671 N   0  0  0  0  0  0  0  0  0  0  0  0
  -27.7947  -15.5353   21.1348 N   0  0  0  0  0  0  0  0  0  0  0  0
  -24.5275  -31.2154   22.4822 N   0  0  0  0  0  0  0  0  0  0  0  0
  -29.2914  -11.1605   20.0963 N   0  0  0  0  0  0  0  0  0  0  0  0
  -27.0220   -7.3325   20.8659 N   0  0  0  0  0  0  0  0  0  0  0  0
  -29.0080  -22.6159   19.9465 N   0  0  0  0  0  0  0  0  0  0  0  0
  -27.7444  -32.9233   22.3060 N   0  0  0  0  0  0  0  0  0  0  0  0
  -21.4135  -30.8576   23.7604 N   0  0  0  0  0  0  0  0  0  0  0  0
  -18.8504  -29.9169   21.3912 N   0  3  0  0  0  0  0  0  0  0  0  0
  -29.1063   -8.2240   20.5202 O   0  0  0  0  0  0  0  0  0  0  0  0
  -29.8617  -15.5326   22.2049 O   0  0  0  0  0  0  0  0  0  0  0  0
  -30.1352  -24.6692   19.8580 O   0  0  0  0  0  0  0  0  0  0  0  0
  -26.8268  -31.2182   23.5996 O   0  0  0  0  0  0  0  0  0  0  0  0
  -23.4457  -32.8766   23.7094 O   0  0  0  0  0  0  0  0  0  0  0  0
  -21.1645  -28.8663   22.5985 O   0  0  0  0  0  0  0  0  0  0  0  0
  -27.0110  -23.7686   18.4486 O   0  0  0  0  0  0  0  0  0  0  0  0
  -21.5172   -6.8531   21.5751 O   0  0  0  0  0  0  0  0  0  0  0  0
  -26.4471  -26.4780   19.0289 O   0  0  0  0  0  0  0  0  0  1  0  0
  -21.9537   -3.0282   25.5227 F   0  0  0  0  0  0  0  0  0  0  0  0
  -19.8169   -6.8642   23.7548 F   0  0  0  0  0  0  0  0  0  0  0  0
  1  2  1  0  0  0  0
  1  7  2  0  0  0  0
  2  8  2  0  0  0  0
  3  6  1  0  0  0  0
  3 10  2  0  0  0  0
  4 11  2  0  0  0  0
  4 19  1  0  0  0  0
  5 12  1  0  0  0  0
  5 19  2  0  0  0  0
  6 20  2  0  0  0  0
  7 22  1  0  0  0  0
  8 24  1  0  0  0  0
  9 13  2  0  0  0  0
  9 23  1  0  0  0  0
 10 26  1  0  0  0  0
 11 27  1  0  0  0  0
 12 27  2  0  0  0  0
 13 28  1  0  0  0  0
 14 15  2  0  0  0  0
 14 29  1  0  0  0  0
 15 30  1  0  0  0  0
 16 20  1  0  0  0  0
 16 26  2  0  0  0  0
 17 25  1  0  0  0  0
 17 28  2  0  0  0  0
 18 30  2  0  0  0  0
 18 31  1  0  0  0  0
 19 32  1  0  0  0  0
 20 34  1  0  0  0  0
 21 32  1  0  0  0  0
 21 33  2  0  0  0  0
 21 37  1  0  0  0  0
 22 24  2  0  0  0  0
 22 44  1  0  0  0  0
 23 25  2  0  0  0  0
 23 45  1  0  0  0  0
 24 53  1  0  0  0  0
 25 46  1  0  0  0  0
 26 70  1  0  0  0  0
 27 81  1  0  0  0  0
 28 82  1  0  0  0  0
 29 31  2  0  0  0  0
 29 81  1  0  0  0  0
 30 83  1  0  0  0  0
 31 84  1  0  0  0  0
 32 64  2  0  0  0  0
 33 65  1  0  0  0  0
 33 68  1  0  0  0  0
 34 35  2  0  0  0  0
 35 39  1  0  0  0  0
 36 38  2  0  0  0  0
 36 82  1  0  0  0  0
 37 69  1  0  0  0  0
 37 74  2  0  0  0  0
 38 40  1  0  0  0  0
 38 80  1  0  0  0  0
 39 66  1  0  0  0  0
 39 75  2  0  0  0  0
 40 70  1  0  0  0  0
 40 76  2  0  0  0  0
 41 54  1  0  0  0  0
 41 71  1  0  0  0  0
 41 77  2  0  0  0  0
 42 61  1  0  0  0  0
 42 67  1  0  0  0  0
 42 78  2  0  0  0  0
 43 62  1  0  0  0  0
 43 72  1  0  0  0  0
 43 79  2  0  0  0  0
 44 47  1  0  0  0  0
 45 54  1  0  0  0  0
 46 67  1  0  0  0  0
 47 49  1  0  0  0  0
 48 50  1  0  0  0  0
 48 51  1  0  0  0  0
 49 53  1  0  0  0  0
 50 55  1  0  0  0  0
 51 66  1  0  0  0  0
 52 55  1  0  0  0  0
 52 66  1  0  0  0  0
 53 71  1  0  0  0  0
 54 67  1  0  0  0  0
 55 65  1  0  0  0  0
 56 62  1  0  0  0  0
 57 63  1  0  0  0  0
 58 63  1  0  0  0  0
 59 63  1  0  0  0  0
 60 73  1  0  0  0  0
 61 63  1  0  0  0  0
 61 72  1  0  0  0  0
 62 73  1  0  0  0  0
 64 65  1  0  0  0  0
M  CHG  1  73   1
M  ISO  4  35 100  36 101  39 100  82 101
M  END
> <Batch ID>
0086

> <Smiles>
CNC(C)C(=O)NC(C(=O)N1Cc2cc([101O:1][101CH2:1]C(=O)C(=O)Nc3cccc(C=[100CH:0][100C:0](=O)N4CCCC(n5nc(-c6ccc(Oc7ccc(F)cc7F)cc6)c(C(N)=O)c5N)C4)c3)ccc2CC1C(=O)NC1CCCc2ccccc21)C(C)(C)C

> <Shape>
0.275

> <Color>
0.098

> <Negative vol penalty>
0.000

$$$$

  -OEChem-04052300173D

 76 83  0     1  0  0  0  0  0999 V2000
  -27.1823  -32.1477   27.1269 C   0  0  0  0  0  0  0  0  0  0  0  0
  -27.5179  -31.1817   26.1838 C   0  0  0  0  0  0  0  0  0  0  0  0
  -26.6646  -13.5688   21.5299 C   0  0  0  0  0  0  0  0  0  0  0  0
  -25.2589  -13.3532   19.5769 C   0  0  0  0  0  0  0  0  0  0  0  0
  -25.8686  -32.2485   27.5828 C   0  0  0  0  0  0  0  0  0  0  0  0
  -26.5401  -30.3150   25.6968 C   0  0  0  0  0  0  0  0  0  0  0  0
  -26.7668  -29.7591   20.6684 C   0  0  0  0  0  0  0  0  0  0  0  0
  -25.8004  -12.7386   22.2437 C   0  0  0  0  0  0  0  0  0  0  0  0
  -24.3946  -12.5230   20.2906 C   0  0  0  0  0  0  0  0  0  0  0  0
  -27.7555  -28.9147   20.1651 C   0  0  0  0  0  0  0  0  0  0  0  0
  -24.2927   -9.2908   21.2721 C   0  0  0  0  0  0  0  0  0  0  0  0
  -23.8447   -8.1296   20.6424 C   0  0  0  0  0  0  0  0  0  0  0  0
  -26.1201  -27.1591   19.9145 C   0  0  0  0  0  0  0  0  0  0  0  0
  -21.5625   -8.8920   20.8601 C   0  0  0  0  0  0  0  0  0  0  0  0
  -26.3938  -13.8762   20.1965 C   0  0  0  0  0  0  0  0  0  0  0  0
  -28.4038  -14.3445   18.6970 C   0  0  0  0  0  0  0  0  0  0  0  0
  -24.8721  -31.3890   27.0940 C   0  0  0  0  0  0  0  0  0  0  0  0
  -25.4473  -29.3055   20.8090 C   0  0  0  0  0  0  0  0  0  0  0  0
  -25.2120  -30.4035   26.1476 C   0  0  0  0  0  0  0  0  0  0  0  0
  -25.1160  -28.0005   20.4174 C   0  0  0  0  0  0  0  0  0  0  0  0
  -24.6654  -12.2157   21.6240 C   0  0  0  0  0  0  0  0  0  0  0  0
  -27.4328  -27.6136   19.7908 C   0  0  0  0  0  0  0  0  0  0  0  0
  -23.3756  -10.2526   21.6958 C   0  0  0  0  0  0  0  0  0  0  0  0
  -22.4796   -7.9302   20.4364 C   0  0  0  0  0  0  0  0  0  0  0  0
  -22.0105  -10.0532   21.4898 C   0  0  0  0  0  0  0  0  0  0  0  0
  -27.2859  -14.7342   19.4589 C   0  0  0  0  0  0  0  0  0  0  0  0
  -28.9093  -15.5218   18.2022 C   0  0  0  0  0  0  0  0  0  0  0  0
  -28.5505  -22.5196   20.0344 C   0  0  0  0  0  0  0  0  0  0  0  0
  -28.9374  -13.0354   18.4580 C   0  0  0  0  0  0  0  0  0  0  0  0
  -29.6810  -23.2254   19.8683 C   0  0  0  0  0  0  0  0  0  0  0  0
  -29.5966  -24.7132   19.6103 C   0  0  0  0  0  0  0  0  0  0  0  0
  -28.5094  -21.0657   20.2899 C   0  0  0  0  0  0  0  0  0  0  0  0
  -23.4619  -28.9053   23.2588 C   0  0  0  0  0  0  0  0  0  0  0  0
  -21.3297  -28.2137   20.9140 C   0  0  0  0  0  0  0  0  0  0  0  0
  -20.7815  -27.1454   17.7195 C   0  0  0  0  0  0  0  0  0  0  0  0
  -23.4757  -31.5051   27.6517 C   0  0  0  0  0  0  0  0  0  0  0  0
  -24.3869  -30.2373   21.3285 C   0  0  0  0  0  0  0  0  0  0  0  0
  -23.7102  -27.4717   20.5294 C   0  0  0  0  0  0  0  0  0  0  0  0
  -22.4215  -30.7937   26.8075 C   0  0  0  0  0  0  0  0  0  0  0  0
  -27.6001  -19.9280   16.9268 C   0  0  0  0  0  0  0  0  0  0  0  0
  -22.8981  -29.3962   26.4248 C   0  0  0  0  0  0  0  0  0  0  0  0
  -27.4743  -18.4233   17.1498 C   0  0  0  0  0  0  0  0  0  0  0  0
  -27.1569  -20.7266   18.1517 C   0  0  0  0  0  0  0  0  0  0  0  0
  -27.7298  -18.8228   19.6308 C   0  0  0  0  0  0  0  0  0  0  0  0
  -24.1743  -29.4614   25.5770 C   0  0  1  0  0  0  0  0  0  0  0  0
  -23.1813  -29.5055   21.9102 C   0  0  1  0  0  0  0  0  0  0  0  0
  -28.2148  -17.9987   18.4279 C   0  0  1  0  0  0  0  0  0  0  0  0
  -31.0843  -22.6854   19.9107 C   0  0  0  0  0  0  0  0  0  0  0  0
  -18.9311  -26.6463   16.0995 C   0  0  0  0  0  0  0  0  0  0  0  0
  -20.7534  -25.6011   22.3811 C   0  0  0  0  0  0  0  0  0  0  0  0
  -19.6628  -24.7508   20.2940 C   0  0  0  0  0  0  0  0  0  0  0  0
  -18.7309  -26.7489   21.4610 C   0  0  0  0  0  0  0  0  0  0  0  0
  -21.7324  -29.2056   15.8195 C   0  0  0  0  0  0  0  0  0  0  0  0
  -28.2383  -25.3898   19.5421 C   0  0  0  0  0  0  0  0  0  1  0  0
  -20.9065  -26.9584   20.1901 C   0  0  1  0  0  0  0  0  0  0  0  0
  -19.9052  -27.6970   16.6094 C   0  0  2  0  0  0  0  0  0  0  0  0
  -20.0404  -26.0239   21.0811 C   0  0  0  0  0  0  0  0  0  0  0  0
  -27.0923  -16.0557   19.4517 N   0  0  0  0  0  0  0  0  0  0  0  0
  -28.0954  -16.5068   18.6794 N   0  0  0  0  0  0  0  0  0  0  0  0
  -27.8358  -20.2629   19.3710 N   0  0  0  0  0  0  0  0  0  0  0  0
  -22.7101  -28.4190   21.0490 N   0  0  0  0  0  0  0  0  0  0  0  0
  -29.9662  -15.8003   17.4098 N   0  0  0  0  0  0  0  0  0  0  0  0
  -28.2954  -11.9352   19.0425 N   0  0  0  0  0  0  0  0  0  0  0  0
  -23.8565  -29.8241   24.2125 N   0  0  0  0  0  0  0  0  0  0  0  0
  -20.2462  -27.3966   18.9652 N   0  0  0  0  0  0  0  0  0  0  0  0
  -20.7444  -28.1541   15.4658 N   0  3  0  0  0  0  0  0  0  0  0  0
  -29.9631  -12.8484   17.7605 O   0  0  0  0  0  0  0  0  0  0  0  0
  -30.6323  -25.3642   19.4577 O   0  0  0  0  0  0  0  0  0  0  0  0
  -29.0708  -20.6508   21.3055 O   0  0  0  0  0  0  0  0  0  0  0  0
  -23.3286  -27.6981   23.4224 O   0  0  0  0  0  0  0  0  0  0  0  0
  -20.4674  -28.9873   21.3378 O   0  0  0  0  0  0  0  0  0  0  0  0
  -21.8336  -26.5481   17.5032 O   0  0  0  0  0  0  0  0  0  0  0  0
  -23.8220  -11.4053   22.3201 O   0  0  0  0  0  0  0  0  0  0  0  0
  -28.3961  -26.7872   19.2998 O   0  0  0  0  0  0  0  0  0  1  0  0
  -22.0497   -6.8158   19.8303 F   0  0  0  0  0  0  0  0  0  0  0  0
  -21.1248  -10.9742   21.8936 F   0  0  0  0  0  0  0  0  0  0  0  0
  1  2  1  0  0  0  0
  1  5  2  0  0  0  0
  2  6  2  0  0  0  0
  3  8  2  0  0  0  0
  3 15  1  0  0  0  0
  4  9  1  0  0  0  0
  4 15  2  0  0  0  0
  5 17  1  0  0  0  0
  6 19  1  0  0  0  0
  7 10  2  0  0  0  0
  7 18  1  0  0  0  0
  8 21  1  0  0  0  0
  9 21  2  0  0  0  0
 10 22  1  0  0  0  0
 11 12  2  0  0  0  0
 11 23  1  0  0  0  0
 12 24  1  0  0  0  0
 13 20  1  0  0  0  0
 13 22  2  0  0  0  0
 14 24  2  0  0  0  0
 14 25  1  0  0  0  0
 15 26  1  0  0  0  0
 16 26  1  0  0  0  0
 16 27  2  0  0  0  0
 16 29  1  0  0  0  0
 17 19  2  0  0  0  0
 17 36  1  0  0  0  0
 18 20  2  0  0  0  0
 18 37  1  0  0  0  0
 19 45  1  0  0  0  0
 20 38  1  0  0  0  0
 21 73  1  0  0  0  0
 22 74  1  0  0  0  0
 23 25  2  0  0  0  0
 23 73  1  0  0  0  0
 24 75  1  0  0  0  0
 25 76  1  0  0  0  0
 26 58  2  0  0  0  0
 27 59  1  0  0  0  0
 27 62  1  0  0  0  0
 28 30  2  0  0  0  0
 28 32  1  0  0  0  0
 29 63  1  0  0  0  0
 29 67  2  0  0  0  0
 30 31  1  0  0  0  0
 30 48  1  0  0  0  0
 31 54  1  0  0  0  0
 31 68  2  0  0  0  0
 32 60  1  0  0  0  0
 32 69  2  0  0  0  0
 33 46  1  0  0  0  0
 33 64  1  0  0  0  0
 33 70  2  0  0  0  0
 34 55  1  0  0  0  0
 34 61  1  0  0  0  0
 34 71  2  0  0  0  0
 35 56  1  0  0  0  0
 35 65  1  0  0  0  0
 35 72  2  0  0  0  0
 36 39  1  0  0  0  0
 37 46  1  0  0  0  0
 38 61  1  0  0  0  0
 39 41  1  0  0  0  0
 40 42  1  0  0  0  0
 40 43  1  0  0  0  0
 41 45  1  0  0  0  0
 42 47  1  0  0  0  0
 43 60  1  0  0  0  0
 44 47  1  0  0  0  0
 44 60  1  0  0  0  0
 45 64  1  0  0  0  0
 46 61  1  0  0  0  0
 47 59  1  0  0  0  0
 49 56  1  0  0  0  0
 50 57  1  0  0  0  0
 51 57  1  0  0  0  0
 52 57  1  0  0  0  0
 53 66  1  0  0  0  0
 54 74  1  0  0  0  0
 55 57  1  0  0  0  0
 55 65  1  0  0  0  0
 56 66  1  0  0  0  0
 58 59  1  0  0  0  0
M  CHG  1  66   1
M  ISO  4  28 100  32 100  54 101  74 101
M  END
> <Batch ID>
0086

> <Smiles>
CNC(C)C(=O)NC(C(=O)N1Cc2cc([101O:1][101CH2:1]C(=O)C(C)=[100CH:0][100C:0](=O)N3CCCC(n4nc(-c5ccc(Oc6ccc(F)cc6F)cc5)c(C(N)=O)c4N)C3)ccc2CC1C(=O)NC1CCCc2ccccc21)C(C)(C)C

> <Shape>
0.296

> <Color>
0.093

> <Negative vol penalty>
0.000

$$$$

  -OEChem-04052300173D

 85 94  0     1  0  0  0  0  0999 V2000
  -29.3991  -31.3526   20.8942 C   0  0  0  0  0  0  0  0  0  0  0  0
  -29.1088  -29.9989   21.0311 C   0  0  0  0  0  0  0  0  0  0  0  0
  -29.2950  -17.5203   24.1129 C   0  0  0  0  0  0  0  0  0  0  0  0
  -22.9130  -10.1740   20.5174 C   0  0  0  0  0  0  0  0  0  0  0  0
  -24.4207   -9.1659   22.1135 C   0  0  0  0  0  0  0  0  0  0  0  0
  -29.9777  -16.3662   23.7286 C   0  0  0  0  0  0  0  0  0  0  0  0
  -28.4939  -32.3084   21.3535 C   0  0  0  0  0  0  0  0  0  0  0  0
  -27.9135  -29.6003   21.6284 C   0  0  0  0  0  0  0  0  0  0  0  0
  -25.6134  -25.8792   19.0773 C   0  0  0  0  0  0  0  0  0  0  0  0
  -28.7232  -18.3470   23.1458 C   0  0  0  0  0  0  0  0  0  0  0  0
  -22.1698   -8.9944   20.4744 C   0  0  0  0  0  0  0  0  0  0  0  0
  -23.6774   -7.9863   22.0706 C   0  0  0  0  0  0  0  0  0  0  0  0
  -26.1168  -24.5894   19.2408 C   0  0  0  0  0  0  0  0  0  0  0  0
  -21.9690   -4.8306   22.6547 C   0  0  0  0  0  0  0  0  0  0  0  0
  -21.6699   -4.2072   23.8661 C   0  0  0  0  0  0  0  0  0  0  0  0
  -29.5168  -16.8656   21.4102 C   0  0  0  0  0  0  0  0  0  0  0  0
  -24.3495  -24.1049   20.8096 C   0  0  0  0  0  0  0  0  0  0  0  0
  -27.2968  -19.5601   18.9571 C   0  0  0  0  0  0  0  0  0  0  0  0
  -20.4919   -6.1870   24.5941 C   0  0  0  0  0  0  0  0  0  0  0  0
  -28.1012  -20.2017   20.9599 C   0  0  0  0  0  0  0  0  0  0  0  0
  -24.0385  -10.2597   21.3369 C   0  0  0  0  0  0  0  0  0  0  0  0
  -30.0887  -16.0389   22.3773 C   0  0  0  0  0  0  0  0  0  0  0  0
  -24.6192  -12.5702   22.2490 C   0  0  0  0  0  0  0  0  0  0  0  0
  -27.2825  -31.9213   21.9480 C   0  0  0  0  0  0  0  0  0  0  0  0
  -24.4787  -26.2958   19.7882 C   0  0  0  0  0  0  0  0  0  0  0  0
  -26.9918  -30.5518   22.0973 C   0  0  0  0  0  0  0  0  0  0  0  0
  -23.8322  -25.3996   20.6514 C   0  0  0  0  0  0  0  0  0  0  0  0
  -27.5034  -20.6713   19.8113 C   0  0  0  0  0  0  0  0  0  0  0  0
  -28.8341  -18.0197   21.7945 C   0  0  0  0  0  0  0  0  0  0  0  0
  -22.5519   -7.9006   21.2510 C   0  0  0  0  0  0  0  0  0  0  0  0
  -25.4866  -23.7030   20.1092 C   0  0  0  0  0  0  0  0  0  0  0  0
  -21.5297   -6.1323   22.4130 C   0  0  0  0  0  0  0  0  0  0  0  0
  -20.9314   -4.8854   24.8358 C   0  0  0  0  0  0  0  0  0  0  0  0
  -20.7911   -6.8104   23.3827 C   0  0  0  0  0  0  0  0  0  0  0  0
  -24.8070  -11.4777   21.3813 C   0  0  0  0  0  0  0  0  0  0  0  0
  -25.5978  -13.4651   21.8912 C   0  0  0  0  0  0  0  0  0  0  0  0
  -27.7745  -18.4451   19.6099 C   0  0  0  0  0  0  0  0  0  0  0  0
  -30.8007  -14.8353   21.9779 C   0  0  0  0  0  0  0  0  0  0  0  0
  -23.6472  -12.7592   23.2859 C   0  0  0  0  0  0  0  0  0  0  0  0
  -30.9376  -14.4576   20.5525 C   0  0  0  0  0  0  0  0  0  0  0  0
  -23.8871  -28.5541   21.9454 C   0  0  0  0  0  0  0  0  0  0  0  0
  -20.8192  -27.5743   21.5579 C   0  0  0  0  0  0  0  0  0  0  0  0
  -18.6647  -25.0914   20.6413 C   0  0  0  0  0  0  0  0  0  0  0  0
  -26.3568  -32.9905   22.4719 C   0  0  0  0  0  0  0  0  0  0  0  0
  -23.9324  -27.6817   19.5805 C   0  0  0  0  0  0  0  0  0  0  0  0
  -22.5991  -25.7912   21.4225 C   0  0  0  0  0  0  0  0  0  0  0  0
  -24.9435  -32.4875   22.7544 C   0  0  0  0  0  0  0  0  0  0  0  0
  -28.6957  -13.5538   17.9042 C   0  0  0  0  0  0  0  0  0  0  0  0
  -24.9890  -31.1738   23.5282 C   0  0  0  0  0  0  0  0  0  0  0  0
  -27.4850  -12.9867   18.6446 C   0  0  0  0  0  0  0  0  0  0  0  0
  -29.9965  -13.2331   18.6332 C   0  0  0  0  0  0  0  0  0  0  0  0
  -28.8046  -13.1204   20.8047 C   0  0  0  0  0  0  0  0  0  0  0  0
  -25.6945  -30.0800   22.7173 C   0  0  1  0  0  0  0  0  0  0  0  0
  -23.0726  -28.1656   20.7441 C   0  0  1  0  0  0  0  0  0  0  0  0
  -27.4699  -13.4480   20.1129 C   0  0  2  0  0  0  0  0  0  0  0  0
  -16.2155  -24.5729   20.4683 C   0  0  0  0  0  0  0  0  0  0  0  0
  -20.6853  -27.2094   24.5842 C   0  0  0  0  0  0  0  0  0  0  0  0
  -18.6232  -25.8279   24.2564 C   0  0  0  0  0  0  0  0  0  0  0  0
  -18.6398  -28.2245   23.5643 C   0  0  0  0  0  0  0  0  0  0  0  0
  -18.8422  -24.6684   17.7175 C   0  0  0  0  0  0  0  0  0  0  0  0
  -27.1392  -22.0974   19.5199 C   0  0  0  0  0  0  0  0  0  1  0  0
  -19.9394  -26.5332   22.2068 C   0  0  1  0  0  0  0  0  0  0  0  0
  -17.4426  -25.0998   19.7408 C   0  0  2  0  0  0  0  0  0  0  0  0
  -19.4963  -26.9417   23.6400 C   0  0  0  0  0  0  0  0  0  0  0  0
  -25.8248  -11.6598   20.5357 N   0  0  0  0  0  0  0  0  0  0  0  0
  -31.3609  -14.0185   22.8288 N   0  0  0  0  0  0  0  0  0  0  0  0
  -28.2608  -18.8471   20.8265 N   0  0  0  0  0  0  0  0  0  0  0  0
  -26.2852  -12.8772   20.8704 N   0  0  0  0  0  0  0  0  0  0  0  0
  -29.9351  -13.6510   20.0324 N   0  0  0  0  0  0  0  0  0  0  0  0
  -22.1070  -27.1592   21.1902 N   0  0  0  0  0  0  0  0  0  0  0  0
  -25.9286  -14.6896   22.3532 N   0  0  0  0  0  0  0  0  0  0  0  0
  -22.7148  -11.7396   23.5216 N   0  0  0  0  0  0  0  0  0  0  0  0
  -24.8090  -29.5540   21.7007 N   0  0  0  0  0  0  0  0  0  0  0  0
  -18.8342  -26.2998   21.2834 N   0  0  0  0  0  0  0  0  0  0  0  0
  -17.6782  -24.2493   18.5399 N   0  3  0  0  0  0  0  0  0  0  0  0
  -23.5963  -13.8082   23.9718 O   0  0  0  0  0  0  0  0  0  0  0  0
  -31.9266  -14.8996   19.9825 O   0  0  0  0  0  0  0  0  0  0  0  0
  -23.6926  -27.9896   23.0155 O   0  0  0  0  0  0  0  0  0  0  0  0
  -20.3776  -28.7118   21.3772 O   0  0  0  0  0  0  0  0  0  0  0  0
  -19.3937  -24.1098   20.7657 O   0  0  0  0  0  0  0  0  0  0  0  0
  -27.8084  -17.1731   19.2315 O   0  0  0  0  0  0  0  0  0  0  0  0
  -21.8268   -6.7495   21.2095 O   0  0  0  0  0  0  0  0  0  0  0  0
  -25.9763  -22.4437   20.2711 O   0  0  0  0  0  0  0  0  0  1  0  0
  -20.6429   -4.2860   25.9984 F   0  0  0  0  0  0  0  0  0  0  0  0
  -20.3653   -8.0606   23.1557 F   0  0  0  0  0  0  0  0  0  0  0  0
  1  2  1  0  0  0  0
  1  7  2  0  0  0  0
  2  8  2  0  0  0  0
  3  6  1  0  0  0  0
  3 10  2  0  0  0  0
  4 11  2  0  0  0  0
  4 21  1  0  0  0  0
  5 12  1  0  0  0  0
  5 21  2  0  0  0  0
  6 22  2  0  0  0  0
  7 24  1  0  0  0  0
  8 26  1  0  0  0  0
  9 13  2  0  0  0  0
  9 25  1  0  0  0  0
 10 29  1  0  0  0  0
 11 30  1  0  0  0  0
 12 30  2  0  0  0  0
 13 31  1  0  0  0  0
 14 15  2  0  0  0  0
 14 32  1  0  0  0  0
 15 33  1  0  0  0  0
 16 22  1  0  0  0  0
 16 29  2  0  0  0  0
 17 27  1  0  0  0  0
 17 31  2  0  0  0  0
 18 28  1  0  0  0  0
 18 37  2  0  0  0  0
 19 33  2  0  0  0  0
 19 34  1  0  0  0  0
 20 28  2  0  0  0  0
 20 67  1  0  0  0  0
 21 35  1  0  0  0  0
 22 38  1  0  0  0  0
 23 35  1  0  0  0  0
 23 36  2  0  0  0  0
 23 39  1  0  0  0  0
 24 26  2  0  0  0  0
 24 44  1  0  0  0  0
 25 27  2  0  0  0  0
 25 45  1  0  0  0  0
 26 53  1  0  0  0  0
 27 46  1  0  0  0  0
 28 61  1  0  0  0  0
 29 67  1  0  0  0  0
 30 82  1  0  0  0  0
 31 83  1  0  0  0  0
 32 34  2  0  0  0  0
 32 82  1  0  0  0  0
 33 84  1  0  0  0  0
 34 85  1  0  0  0  0
 35 65  2  0  0  0  0
 36 68  1  0  0  0  0
 36 71  1  0  0  0  0
 37 67  1  0  0  0  0
 37 81  1  0  0  0  0
 38 40  1  0  0  0  0
 38 66  2  0  0  0  0
 39 72  1  0  0  0  0
 39 76  2  0  0  0  0
 40 69  1  0  0  0  0
 40 77  2  0  0  0  0
 41 54  1  0  0  0  0
 41 73  1  0  0  0  0
 41 78  2  0  0  0  0
 42 62  1  0  0  0  0
 42 70  1  0  0  0  0
 42 79  2  0  0  0  0
 43 63  1  0  0  0  0
 43 74  1  0  0  0  0
 43 80  2  0  0  0  0
 44 47  1  0  0  0  0
 45 54  1  0  0  0  0
 46 70  1  0  0  0  0
 47 49  1  0  0  0  0
 48 50  1  0  0  0  0
 48 51  1  0  0  0  0
 49 53  1  0  0  0  0
 50 55  1  0  0  0  0
 51 69  1  0  0  0  0
 52 55  1  0  0  0  0
 52 69  1  0  0  0  0
 53 73  1  0  0  0  0
 54 70  1  0  0  0  0
 55 68  1  0  0  0  0
 56 63  1  0  0  0  0
 57 64  1  0  0  0  0
 58 64  1  0  0  0  0
 59 64  1  0  0  0  0
 60 75  1  0  0  0  0
 61 83  1  0  0  0  0
 62 64  1  0  0  0  0
 62 74  1  0  0  0  0
 63 75  1  0  0  0  0
 65 68  1  0  0  0  0
M  CHG  1  75   1
M  ISO  4  38 100  40 100  61 101  83 101
M  END
> <Batch ID>
0086

> <Smiles>
CNC(C)C(=O)NC(C(=O)N1Cc2cc([101O:1][101CH2:1]C3=CN(c4cccc([100C:0](=N)[100C:0](=O)N5CCCC(n6nc(-c7ccc(Oc8ccc(F)cc8F)cc7)c(C(N)=O)c6N)C5)c4)C(=O)C3)ccc2CC1C(=O)NC1CCCc2ccccc21)C(C)(C)C

> <Shape>
0.325

> <Color>
0.119

> <Negative vol penalty>
0.000

$$$$

  -OEChem-04052300173D

 86 94  0     1  0  0  0  0  0999 V2000
  -33.6906  -21.2182   23.4630 C   0  0  0  0  0  0  0  0  0  0  0  0
  -33.0600  -29.9164   19.2479 C   0  0  0  0  0  0  0  0  0  0  0  0
  -32.3405  -28.7264   19.2878 C   0  0  0  0  0  0  0  0  0  0  0  0
  -24.6640  -15.0902   23.1841 C   0  0  0  0  0  0  0  0  0  0  0  0
  -23.5307  -15.9288   21.2221 C   0  0  0  0  0  0  0  0  0  0  0  0
  -30.5174  -18.5959   22.3214 C   0  0  0  0  0  0  0  0  0  0  0  0
  -31.9365  -18.8359   20.3809 C   0  0  0  0  0  0  0  0  0  0  0  0
  -32.6891  -30.9817   20.0674 C   0  0  0  0  0  0  0  0  0  0  0  0
  -31.2503  -28.6005   20.1481 C   0  0  0  0  0  0  0  0  0  0  0  0
  -27.2508  -26.4434   17.9131 C   0  0  0  0  0  0  0  0  0  0  0  0
  -31.5264  -19.1265   23.1250 C   0  0  0  0  0  0  0  0  0  0  0  0
  -32.9456  -19.3666   21.1846 C   0  0  0  0  0  0  0  0  0  0  0  0
  -24.1930  -16.1770   23.9207 C   0  0  0  0  0  0  0  0  0  0  0  0
  -23.0597  -17.0156   21.9587 C   0  0  0  0  0  0  0  0  0  0  0  0
  -27.2787  -25.0582   17.7574 C   0  0  0  0  0  0  0  0  0  0  0  0
  -21.8550  -20.2002   23.2305 C   0  0  0  0  0  0  0  0  0  0  0  0
  -21.9373  -21.4640   22.6461 C   0  0  0  0  0  0  0  0  0  0  0  0
  -25.8597  -24.8182   19.6935 C   0  0  0  0  0  0  0  0  0  0  0  0
  -24.3379  -21.2378   22.4946 C   0  0  0  0  0  0  0  0  0  0  0  0
  -24.3329  -14.9662   21.8347 C   0  0  0  0  0  0  0  0  0  0  0  0
  -30.7224  -18.4505   20.9493 C   0  0  0  0  0  0  0  0  0  0  0  0
  -24.1914  -12.5959   20.9023 C   0  0  0  0  0  0  0  0  0  0  0  0
  -31.5879  -30.8722   20.9312 C   0  0  0  0  0  0  0  0  0  0  0  0
  -26.5349  -27.0268   18.9683 C   0  0  0  0  0  0  0  0  0  0  0  0
  -30.8652  -29.6649   20.9809 C   0  0  0  0  0  0  0  0  0  0  0  0
  -25.8222  -26.2111   19.8588 C   0  0  0  0  0  0  0  0  0  0  0  0
  -32.7405  -19.5119   22.5566 C   0  0  0  0  0  0  0  0  0  0  0  0
  -23.3908  -17.1397   23.3080 C   0  0  0  0  0  0  0  0  0  0  0  0
  -26.5855  -24.2452   18.6494 C   0  0  0  0  0  0  0  0  0  0  0  0
  -23.0142  -19.4551   23.4470 C   0  0  0  0  0  0  0  0  0  0  0  0
  -23.1787  -21.9828   22.2781 C   0  0  0  0  0  0  0  0  0  0  0  0
  -24.2556  -19.9739   23.0790 C   0  0  0  0  0  0  0  0  0  0  0  0
  -24.8196  -13.8440   21.0732 C   0  0  0  0  0  0  0  0  0  0  0  0
  -25.0513  -11.8854   20.1009 C   0  0  0  0  0  0  0  0  0  0  0  0
  -33.6324  -22.5110   23.5806 C   0  0  0  0  0  0  0  0  0  0  0  0
  -27.7358  -20.8738   19.0694 C   0  0  0  0  0  0  0  0  0  0  0  0
  -27.6085  -22.2002   19.1415 C   0  0  0  0  0  0  0  0  0  1  0  0
  -29.6586  -17.8897   20.1018 C   0  0  0  0  0  0  0  0  0  0  0  0
  -22.9421  -12.1211   21.4216 C   0  0  0  0  0  0  0  0  0  0  0  0
  -28.8411  -20.2153   19.7930 C   0  0  0  0  0  0  0  0  0  0  0  0
  -27.3014  -28.8238   21.4756 C   0  0  0  0  0  0  0  0  0  0  0  0
  -24.0842  -28.9635   21.8668 C   0  0  0  0  0  0  0  0  0  0  0  0
  -21.0325  -27.5452   21.2996 C   0  0  0  0  0  0  0  0  0  0  0  0
  -28.5953  -15.8476   19.0868 C   0  0  0  0  0  0  0  0  0  0  0  0
  -31.2539  -32.0344   21.8325 C   0  0  0  0  0  0  0  0  0  0  0  0
  -26.4929  -28.5240   19.1066 C   0  0  0  0  0  0  0  0  0  0  0  0
  -25.0219  -26.7890   20.9963 C   0  0  0  0  0  0  0  0  0  0  0  0
  -29.8576  -31.9497   22.4435 C   0  0  0  0  0  0  0  0  0  0  0  0
  -29.3397  -12.6253   20.6034 C   0  0  0  0  0  0  0  0  0  0  0  0
  -29.6006  -30.5513   22.9960 C   0  0  0  0  0  0  0  0  0  0  0  0
  -28.4235  -11.6871   19.8177 C   0  0  0  0  0  0  0  0  0  0  0  0
  -29.8810  -13.7352   19.7122 C   0  0  0  0  0  0  0  0  0  0  0  0
  -27.8961  -13.6380   18.2486 C   0  0  0  0  0  0  0  0  0  0  0  0
  -29.6614  -29.4984   21.8828 C   0  0  1  0  0  0  0  0  0  0  0  0
  -26.1524  -28.9841   20.5207 C   0  0  1  0  0  0  0  0  0  0  0  0
  -27.3350  -12.4190   19.0090 C   0  0  2  0  0  0  0  0  0  0  0  0
  -18.5900  -27.8704   21.7752 C   0  0  0  0  0  0  0  0  0  0  0  0
  -24.5163  -28.0024   24.7303 C   0  0  0  0  0  0  0  0  0  0  0  0
  -22.0783  -27.4432   24.8365 C   0  0  0  0  0  0  0  0  0  0  0  0
  -22.8002  -29.8046   24.4825 C   0  0  0  0  0  0  0  0  0  0  0  0
  -20.3791  -27.7422   18.4198 C   0  0  0  0  0  0  0  0  0  0  0  0
  -23.0597  -28.1341   22.6026 C   0  0  1  0  0  0  0  0  0  0  0  0
  -19.7258  -28.1334   20.7986 C   0  0  2  0  0  0  0  0  0  0  0  0
  -23.1302  -28.3348   24.1428 C   0  0  0  0  0  0  0  0  0  0  0  0
  -25.9885  -13.9249   20.4319 N   0  0  0  0  0  0  0  0  0  0  0  0
  -33.7519  -20.0442   23.3626 N   0  0  0  0  0  0  0  0  0  0  0  0
  -26.1016  -12.7186   19.8505 N   0  0  0  0  0  0  0  0  0  0  0  0
  -25.0169  -28.2581   21.0933 N   0  0  0  0  0  0  0  0  0  0  0  0
  -28.7837  -14.4638   19.0688 N   0  0  0  0  0  0  0  0  0  0  0  0
  -25.0039  -10.6355   19.5932 N   0  0  0  0  0  0  0  0  0  0  0  0
  -22.1838  -12.9808   22.2280 N   0  0  0  0  0  0  0  0  0  0  0  0
  -28.8030  -18.7892   19.5879 N   0  0  0  0  0  0  0  0  0  0  0  0
  -28.4405  -29.5132   21.1059 N   0  0  0  0  0  0  0  0  0  0  0  0
  -21.7666  -28.4674   22.0151 N   0  0  0  0  0  0  0  0  0  0  0  0
  -29.5664  -16.5687   19.8841 N   0  3  0  0  0  0  0  0  0  0  0  0
  -19.3608  -27.5382   19.4821 N   0  3  0  0  0  0  0  0  0  0  0  0
  -22.5188  -10.9630   21.1912 O   0  0  0  0  0  0  0  0  0  0  0  0
  -29.6854  -20.7666   20.4789 O   0  0  0  0  0  0  0  0  0  0  0  0
  -27.1641  -28.1276   22.4747 O   0  0  0  0  0  0  0  0  0  0  0  0
  -24.0536  -30.1925   21.9687 O   0  0  0  0  0  0  0  0  0  0  0  0
  -21.3667  -26.3828   21.0815 O   0  0  0  0  0  0  0  0  0  0  0  0
  -27.6719  -16.4434   18.5435 O   0  0  0  0  0  0  0  0  0  0  0  0
  -22.9308  -18.2002   24.0266 O   0  0  0  0  0  0  0  0  0  0  0  0
  -26.6117  -22.8830   18.4991 O   0  0  0  0  0  0  0  0  0  1  0  0
  -23.2574  -23.1958   21.7155 F   0  0  0  0  0  0  0  0  0  0  0  0
  -25.3726  -19.2623   23.2835 F   0  0  0  0  0  0  0  0  0  0  0  0
  1 35  2  0  0  0  0
  1 66  2  0  0  0  0
  2  3  1  0  0  0  0
  2  8  2  0  0  0  0
  3  9  2  0  0  0  0
  4 13  2  0  0  0  0
  4 20  1  0  0  0  0
  5 14  1  0  0  0  0
  5 20  2  0  0  0  0
  6 11  2  0  0  0  0
  6 21  1  0  0  0  0
  7 12  1  0  0  0  0
  7 21  2  0  0  0  0
  8 23  1  0  0  0  0
  9 25  1  0  0  0  0
 10 15  2  0  0  0  0
 10 24  1  0  0  0  0
 11 27  1  0  0  0  0
 12 27  2  0  0  0  0
 13 28  1  0  0  0  0
 14 28  2  0  0  0  0
 15 29  1  0  0  0  0
 16 17  2  0  0  0  0
 16 30  1  0  0  0  0
 17 31  1  0  0  0  0
 18 26  1  0  0  0  0
 18 29  2  0  0  0  0
 19 31  2  0  0  0  0
 19 32  1  0  0  0  0
 20 33  1  0  0  0  0
 21 38  1  0  0  0  0
 22 33  1  0  0  0  0
 22 34  2  0  0  0  0
 22 39  1  0  0  0  0
 23 25  2  0  0  0  0
 23 45  1  0  0  0  0
 24 26  2  0  0  0  0
 24 46  1  0  0  0  0
 25 54  1  0  0  0  0
 26 47  1  0  0  0  0
 27 66  1  0  0  0  0
 28 83  1  0  0  0  0
 29 84  1  0  0  0  0
 30 32  2  0  0  0  0
 30 83  1  0  0  0  0
 31 85  1  0  0  0  0
 32 86  1  0  0  0  0
 33 65  2  0  0  0  0
 34 67  1  0  0  0  0
 34 70  1  0  0  0  0
 36 37  2  0  0  0  0
 36 40  1  0  0  0  0
 37 84  1  0  0  0  0
 38 72  1  0  0  0  0
 38 75  2  0  0  0  0
 39 71  1  0  0  0  0
 39 77  2  0  0  0  0
 40 72  1  0  0  0  0
 40 78  2  0  0  0  0
 41 55  1  0  0  0  0
 41 73  1  0  0  0  0
 41 79  2  0  0  0  0
 42 62  1  0  0  0  0
 42 68  1  0  0  0  0
 42 80  2  0  0  0  0
 43 63  1  0  0  0  0
 43 74  1  0  0  0  0
 43 81  2  0  0  0  0
 44 69  1  0  0  0  0
 44 75  1  0  0  0  0
 44 82  2  0  0  0  0
 45 48  1  0  0  0  0
 46 55  1  0  0  0  0
 47 68  1  0  0  0  0
 48 50  1  0  0  0  0
 49 51  1  0  0  0  0
 49 52  1  0  0  0  0
 50 54  1  0  0  0  0
 51 56  1  0  0  0  0
 52 69  1  0  0  0  0
 53 56  1  0  0  0  0
 53 69  1  0  0  0  0
 54 73  1  0  0  0  0
 55 68  1  0  0  0  0
 56 67  1  0  0  0  0
 57 63  1  0  0  0  0
 58 64  1  0  0  0  0
 59 64  1  0  0  0  0
 60 64  1  0  0  0  0
 61 76  1  0  0  0  0
 62 64  1  0  0  0  0
 62 74  1  0  0  0  0
 63 76  1  0  0  0  0
 65 67  1  0  0  0  0
M  CHG  2  75   1  76   1
M  ISO  4  37 101  44 100  75 100  84 101
M  END
> <Batch ID>
0086

> <Smiles>
C=C=Nc1ccc(C(NC(=O)C=[101CH:1][101O:1]c2ccc3c(c2)CN(C(=O)C(NC(=O)C(C)NC)C(C)(C)C)C(C(=O)NC2CCCc4ccccc42)C3)=[100N:0][100C:0](=O)N2CCCC(n3nc(-c4ccc(Oc5ccc(F)cc5F)cc4)c(C(N)=O)c3N)C2)cc1

> <Shape>
0.215

> <Color>
0.082

> <Negative vol penalty>
0.000

$$$$

  -OEChem-04052300173D

 84 92  0     1  0  0  0  0  0999 V2000
  -17.3080  -32.2044   22.5120 C   0  0  0  0  0  0  0  0  0  0  0  0
  -18.6411  -32.4969   22.2427 C   0  0  0  0  0  0  0  0  0  0  0  0
  -23.7663  -10.1378   22.3896 C   0  0  0  0  0  0  0  0  0  0  0  0
  -22.0270  -10.6469   20.7919 C   0  0  0  0  0  0  0  0  0  0  0  0
  -29.3349  -21.5481   22.3608 C   0  0  0  0  0  0  0  0  0  0  0  0
  -16.9639  -30.9718   23.0654 C   0  0  0  0  0  0  0  0  0  0  0  0
  -19.6312  -31.5573   22.5278 C   0  0  0  0  0  0  0  0  0  0  0  0
  -25.9729  -29.2312   20.1427 C   0  0  0  0  0  0  0  0  0  0  0  0
  -29.6486  -22.9015   22.4853 C   0  0  0  0  0  0  0  0  0  0  0  0
  -22.9410   -9.1833   22.9840 C   0  0  0  0  0  0  0  0  0  0  0  0
  -21.2017   -9.6923   21.3862 C   0  0  0  0  0  0  0  0  0  0  0  0
  -27.2686  -28.9836   20.5942 C   0  0  0  0  0  0  0  0  0  0  0  0
  -21.4244   -6.3583   24.6969 C   0  0  0  0  0  0  0  0  0  0  0  0
  -21.9864   -5.1215   25.0131 C   0  0  0  0  0  0  0  0  0  0  0  0
  -26.5486  -26.8567   21.4757 C   0  0  0  0  0  0  0  0  0  0  0  0
  -30.2714  -22.9718   20.1520 C   0  0  0  0  0  0  0  0  0  0  0  0
  -22.5216   -4.7692   22.6836 C   0  0  0  0  0  0  0  0  0  0  0  0
  -23.3093  -10.8697   21.2936 C   0  0  0  0  0  0  0  0  0  0  0  0
  -29.4895  -20.9065   21.1320 C   0  0  0  0  0  0  0  0  0  0  0  0
  -25.0713  -11.6552   19.6245 C   0  0  0  0  0  0  0  0  0  0  0  0
  -17.9493  -30.0129   23.3484 C   0  0  0  0  0  0  0  0  0  0  0  0
  -24.9512  -28.2966   20.3643 C   0  0  0  0  0  0  0  0  0  0  0  0
  -19.3002  -30.3112   23.0867 C   0  0  0  0  0  0  0  0  0  0  0  0
  -25.2414  -27.0936   21.0238 C   0  0  0  0  0  0  0  0  0  0  0  0
  -30.1168  -23.6133   21.3809 C   0  0  0  0  0  0  0  0  0  0  0  0
  -21.6587   -8.9605   22.4823 C   0  0  0  0  0  0  0  0  0  0  0  0
  -27.5559  -27.7976   21.2633 C   0  0  0  0  0  0  0  0  0  0  0  0
  -21.4108   -6.8005   23.3741 C   0  0  0  0  0  0  0  0  0  0  0  0
  -22.5351   -4.3269   24.0065 C   0  0  0  0  0  0  0  0  0  0  0  0
  -29.9577  -21.6183   20.0276 C   0  0  0  0  0  0  0  0  0  0  0  0
  -21.9594   -6.0060   22.3674 C   0  0  0  0  0  0  0  0  0  0  0  0
  -24.1612  -11.8562   20.6795 C   0  0  0  0  0  0  0  0  0  0  0  0
  -25.6283  -12.8924   19.4110 C   0  0  0  0  0  0  0  0  0  0  0  0
  -29.1615  -19.4947   21.0070 C   0  0  0  0  0  0  0  0  0  0  0  0
  -28.2090  -18.8469   21.7109 C   0  0  0  0  0  0  0  0  0  0  0  0
  -25.3851  -10.4572   18.9019 C   0  0  0  0  0  0  0  0  0  0  0  0
  -27.9878  -17.4082   21.4618 C   0  0  0  0  0  0  0  0  0  0  0  0
  -22.1967  -28.3182   21.9506 C   0  0  0  0  0  0  0  0  0  0  0  0
  -21.8431  -25.3910   20.5984 C   0  0  0  0  0  0  0  0  0  0  0  0
  -30.9104  -25.8421   20.5168 C   0  0  0  0  0  0  0  0  0  0  0  0
  -23.3173  -22.6400   19.2180 C   0  0  0  0  0  0  0  0  0  0  0  0
  -17.5339  -28.7128   23.9902 C   0  0  0  0  0  0  0  0  0  0  0  0
  -23.5647  -28.5667   19.8475 C   0  0  0  0  0  0  0  0  0  0  0  0
  -24.1846  -26.0488   21.2690 C   0  0  0  0  0  0  0  0  0  0  0  0
  -18.6044  -27.6271   23.9150 C   0  0  0  0  0  0  0  0  0  0  0  0
  -24.3360  -17.4446   21.1540 C   0  0  0  0  0  0  0  0  0  0  0  0
  -19.9648  -28.1902   24.3137 C   0  0  0  0  0  0  0  0  0  0  0  0
  -24.0426  -15.9590   20.9632 C   0  0  0  0  0  0  0  0  0  0  0  0
  -25.5265  -17.6776   22.0829 C   0  0  0  0  0  0  0  0  0  0  0  0
  -26.4678  -15.4685   21.4710 C   0  0  0  0  0  0  0  0  0  0  0  0
  -20.4003  -29.3084   23.3589 C   0  0  1  0  0  0  0  0  0  0  0  0
  -22.4883  -27.7728   20.5812 C   0  0  1  0  0  0  0  0  0  0  0  0
  -25.3031  -15.2099   20.5025 C   0  0  1  0  0  0  0  0  0  0  0  0
  -22.7714  -20.3941   18.2406 C   0  0  0  0  0  0  0  0  0  0  0  0
  -21.3494  -24.2936   23.4023 C   0  0  0  0  0  0  0  0  0  0  0  0
  -21.7575  -21.9946   22.4988 C   0  0  0  0  0  0  0  0  0  0  0  0
  -19.8514  -23.3520   21.6348 C   0  0  0  0  0  0  0  0  0  0  0  0
  -24.4896  -23.3655   16.5991 C   0  0  0  0  0  0  0  0  0  0  0  0
  -31.1226  -27.2431   21.0791 C   0  0  0  0  0  0  0  0  0  0  0  0
  -29.8913  -28.1282   20.9588 C   0  0  0  0  0  0  0  0  0  1  0  0
  -22.2137  -23.9808   20.9896 C   0  0  1  0  0  0  0  0  0  0  0  0
  -23.0154  -21.8662   17.9473 C   0  0  2  0  0  0  0  0  0  0  0  0
  -21.3127  -23.4256   22.1286 C   0  0  0  0  0  0  0  0  0  0  0  0
  -24.1384  -13.1215   21.1068 N   0  0  0  0  0  0  0  0  0  0  0  0
  -25.0411  -13.7267   20.3162 N   0  0  0  0  0  0  0  0  0  0  0  0
  -26.7025  -16.9051   21.6549 N   0  0  0  0  0  0  0  0  0  0  0  0
  -22.8429  -26.3621   20.7502 N   0  0  0  0  0  0  0  0  0  0  0  0
  -26.5582  -13.3372   18.5394 N   0  0  0  0  0  0  0  0  0  0  0  0
  -24.7201   -9.2736   19.2497 N   0  0  0  0  0  0  0  0  0  0  0  0
  -30.4350  -24.9865   21.5070 N   0  0  0  0  0  0  0  0  0  0  0  0
  -20.8949  -28.7499   22.1187 N   0  0  0  0  0  0  0  0  0  0  0  0
  -22.1776  -23.1937   19.7617 N   0  0  0  0  0  0  0  0  0  0  0  0
  -24.1550  -21.9726   16.9929 N   0  3  0  0  0  0  0  0  0  0  0  0
  -26.2421  -10.4336   17.9861 O   0  0  0  0  0  0  0  0  0  0  0  0
  -28.9572  -16.7378   21.1021 O   0  0  0  0  0  0  0  0  0  0  0  0
  -23.0866  -28.3441   22.7927 O   0  0  0  0  0  0  0  0  0  0  0  0
  -20.7105  -25.6211   20.1671 O   0  0  0  0  0  0  0  0  0  0  0  0
  -31.1445  -25.5667   19.3448 O   0  0  0  0  0  0  0  0  0  0  0  0
  -24.4503  -22.7399   19.6837 O   0  0  0  0  0  0  0  0  0  0  0  0
  -20.8531   -8.0290   23.0619 O   0  0  0  0  0  0  0  0  0  0  0  0
  -28.8196  -27.5537   21.7056 O   0  0  0  0  0  0  0  0  0  1  0  0
  -23.0762   -3.1399   24.3104 F   0  0  0  0  0  0  0  0  0  0  0  0
  -30.1121  -21.0153   18.8397 F   0  0  0  0  0  0  0  0  0  0  0  0
  -21.9504   -6.4260   21.0949 F   0  0  0  0  0  0  0  0  0  0  0  0
  1  2  1  0  0  0  0
  1  6  2  0  0  0  0
  2  7  2  0  0  0  0
  3 10  2  0  0  0  0
  3 18  1  0  0  0  0
  4 11  1  0  0  0  0
  4 18  2  0  0  0  0
  5  9  2  0  0  0  0
  5 19  1  0  0  0  0
  6 21  1  0  0  0  0
  7 23  1  0  0  0  0
  8 12  2  0  0  0  0
  8 22  1  0  0  0  0
  9 25  1  0  0  0  0
 10 26  1  0  0  0  0
 11 26  2  0  0  0  0
 12 27  1  0  0  0  0
 13 14  2  0  0  0  0
 13 28  1  0  0  0  0
 14 29  1  0  0  0  0
 15 24  1  0  0  0  0
 15 27  2  0  0  0  0
 16 25  2  0  0  0  0
 16 30  1  0  0  0  0
 17 29  2  0  0  0  0
 17 31  1  0  0  0  0
 18 32  1  0  0  0  0
 19 30  2  0  0  0  0
 19 34  1  0  0  0  0
 20 32  1  0  0  0  0
 20 33  2  0  0  0  0
 20 36  1  0  0  0  0
 21 23  2  0  0  0  0
 21 42  1  0  0  0  0
 22 24  2  0  0  0  0
 22 43  1  0  0  0  0
 23 51  1  0  0  0  0
 24 44  1  0  0  0  0
 25 70  1  0  0  0  0
 26 80  1  0  0  0  0
 27 81  1  0  0  0  0
 28 31  2  0  0  0  0
 28 80  1  0  0  0  0
 29 82  1  0  0  0  0
 30 83  1  0  0  0  0
 31 84  1  0  0  0  0
 32 64  2  0  0  0  0
 33 65  1  0  0  0  0
 33 68  1  0  0  0  0
 34 35  2  0  0  0  0
 35 37  1  0  0  0  0
 36 69  1  0  0  0  0
 36 74  2  0  0  0  0
 37 66  1  0  0  0  0
 37 75  2  0  0  0  0
 38 52  1  0  0  0  0
 38 71  1  0  0  0  0
 38 76  2  0  0  0  0
 39 61  1  0  0  0  0
 39 67  1  0  0  0  0
 39 77  2  0  0  0  0
 40 59  1  0  0  0  0
 40 70  1  0  0  0  0
 40 78  2  0  0  0  0
 41 62  1  0  0  0  0
 41 72  1  0  0  0  0
 41 79  2  0  0  0  0
 42 45  1  0  0  0  0
 43 52  1  0  0  0  0
 44 67  1  0  0  0  0
 45 47  1  0  0  0  0
 46 48  1  0  0  0  0
 46 49  1  0  0  0  0
 47 51  1  0  0  0  0
 48 53  1  0  0  0  0
 49 66  1  0  0  0  0
 50 53  1  0  0  0  0
 50 66  1  0  0  0  0
 51 71  1  0  0  0  0
 52 67  1  0  0  0  0
 53 65  1  0  0  0  0
 54 62  1  0  0  0  0
 55 63  1  0  0  0  0
 56 63  1  0  0  0  0
 57 63  1  0  0  0  0
 58 73  1  0  0  0  0
 59 60  1  0  0  0  0
 60 81  1  0  0  0  0
 61 63  1  0  0  0  0
 61 72  1  0  0  0  0
 62 73  1  0  0  0  0
 64 65  1  0  0  0  0
M  CHG  1  73   1
M  ISO  4  35 100  37 100  60 101  81 101
M  END
> <Batch ID>
0086

> <Smiles>
CNC(C)C(=O)NC(C(=O)N1Cc2cc([101O:1][101CH2:1]CC(=O)Nc3ccc(C=[100CH:0][100C:0](=O)N4CCCC(n5nc(-c6ccc(Oc7ccc(F)cc7F)cc6)c(C(N)=O)c5N)C4)c(F)c3)ccc2CC1C(=O)NC1CCCc2ccccc21)C(C)(C)C

> <Shape>
0.264

> <Color>
0.089

> <Negative vol penalty>
0.000

$$$$

  -OEChem-04052300173D

 85 94  0     1  0  0  0  0  0999 V2000
  -29.5029  -31.7182   25.8106 C   0  0  0  0  0  0  0  0  0  0  0  0
  -29.2942  -30.6112   24.9942 C   0  0  0  0  0  0  0  0  0  0  0  0
  -29.7485  -18.6675   16.8248 C   0  0  0  0  0  0  0  0  0  0  0  0
  -23.2657   -9.8447   20.7641 C   0  0  0  0  0  0  0  0  0  0  0  0
  -24.0869  -10.4265   22.9605 C   0  0  0  0  0  0  0  0  0  0  0  0
  -28.4257  -32.3112   26.4678 C   0  0  0  0  0  0  0  0  0  0  0  0
  -28.0082  -30.0960   24.8353 C   0  0  0  0  0  0  0  0  0  0  0  0
  -26.9278  -29.0239   20.0054 C   0  0  0  0  0  0  0  0  0  0  0  0
  -29.6110  -17.6143   17.7290 C   0  0  0  0  0  0  0  0  0  0  0  0
  -29.3307  -19.9502   17.1793 C   0  0  0  0  0  0  0  0  0  0  0  0
  -22.6158   -8.7336   21.3013 C   0  0  0  0  0  0  0  0  0  0  0  0
  -23.4369   -9.3154   23.4978 C   0  0  0  0  0  0  0  0  0  0  0  0
  -27.4569  -27.8455   19.4810 C   0  0  0  0  0  0  0  0  0  0  0  0
  -21.0369   -5.5418   22.0384 C   0  0  0  0  0  0  0  0  0  0  0  0
  -21.1494   -4.3303   21.3565 C   0  0  0  0  0  0  0  0  0  0  0  0
  -25.3328  -26.7512   19.8127 C   0  0  0  0  0  0  0  0  0  0  0  0
  -28.6375  -19.1266   19.3422 C   0  0  0  0  0  0  0  0  0  0  0  0
  -23.5490   -4.4000   21.6286 C   0  0  0  0  0  0  0  0  0  0  0  0
  -24.0014  -10.6911   21.5937 C   0  0  0  0  0  0  0  0  0  0  0  0
  -24.1534  -13.1383   20.8896 C   0  0  0  0  0  0  0  0  0  0  0  0
  -27.1245  -31.8088   26.3093 C   0  0  0  0  0  0  0  0  0  0  0  0
  -25.5981  -29.0719   20.4482 C   0  0  0  0  0  0  0  0  0  0  0  0
  -26.9128  -30.6820   25.4921 C   0  0  0  0  0  0  0  0  0  0  0  0
  -24.7885  -27.9322   20.3400 C   0  0  0  0  0  0  0  0  0  0  0  0
  -29.0555  -17.8439   18.9877 C   0  0  0  0  0  0  0  0  0  0  0  0
  -28.7751  -20.1798   18.4380 C   0  0  0  0  0  0  0  0  0  0  0  0
  -22.7014   -8.4690   22.6682 C   0  0  0  0  0  0  0  0  0  0  0  0
  -26.6603  -26.7081   19.3873 C   0  0  0  0  0  0  0  0  0  0  0  0
  -22.1805   -6.1826   22.5153 C   0  0  0  0  0  0  0  0  0  0  0  0
  -22.4054   -3.7593   21.1516 C   0  0  0  0  0  0  0  0  0  0  0  0
  -23.4365   -5.6116   22.3105 C   0  0  0  0  0  0  0  0  0  0  0  0
  -24.6735  -11.8387   21.0392 C   0  0  0  0  0  0  0  0  0  0  0  0
  -25.1771  -13.8540   20.3183 C   0  0  0  0  0  0  0  0  0  0  0  0
  -27.6719  -23.2574   19.2768 C   0  0  0  0  0  0  0  0  0  0  0  0
  -27.8026  -21.9472   19.9153 C   0  0  0  0  0  0  0  0  0  0  0  0
  -27.1885  -24.4479   19.6758 C   0  0  0  0  0  0  0  0  0  1  0  0
  -22.8607  -13.6526   21.2362 C   0  0  0  0  0  0  0  0  0  0  0  0
  -24.1824  -29.6187   23.2411 C   0  0  0  0  0  0  0  0  0  0  0  0
  -21.4786  -29.4921   21.4535 C   0  0  0  0  0  0  0  0  0  0  0  0
  -19.9255  -28.3840   18.6238 C   0  0  0  0  0  0  0  0  0  0  0  0
  -30.7307  -15.0528   20.5115 C   0  0  0  0  0  0  0  0  0  0  0  0
  -25.9985  -32.4545   27.0775 C   0  0  0  0  0  0  0  0  0  0  0  0
  -25.0345  -30.3583   20.9867 C   0  0  0  0  0  0  0  0  0  0  0  0
  -23.3488  -27.9373   20.7826 C   0  0  0  0  0  0  0  0  0  0  0  0
  -28.2967  -22.6804   18.0272 C   0  0  0  0  0  0  0  0  0  0  0  0
  -24.6130  -32.0768   26.5599 C   0  0  0  0  0  0  0  0  0  0  0  0
  -29.5459  -12.3391   18.2903 C   0  0  0  0  0  0  0  0  0  0  0  0
  -24.5199  -30.5712   26.3332 C   0  0  0  0  0  0  0  0  0  0  0  0
  -28.1575  -12.0332   18.8495 C   0  0  0  0  0  0  0  0  0  0  0  0
  -30.4834  -12.8812   19.3650 C   0  0  0  0  0  0  0  0  0  0  0  0
  -28.5609  -13.7617   20.6467 C   0  0  0  0  0  0  0  0  0  0  0  0
  -25.5290  -30.1092   25.2750 C   0  0  1  0  0  0  0  0  0  0  0  0
  -23.8181  -30.1488   21.8832 C   0  0  1  0  0  0  0  0  0  0  0  0
  -27.5781  -13.2575   19.5794 C   0  0  2  0  0  0  0  0  0  0  0  0
  -17.7031  -28.4074   17.4586 C   0  0  0  0  0  0  0  0  0  0  0  0
  -20.4352  -27.3927   23.4064 C   0  0  0  0  0  0  0  0  0  0  0  0
  -18.6970  -26.7808   21.7116 C   0  0  0  0  0  0  0  0  0  0  0  0
  -18.7364  -29.0788   22.6814 C   0  0  0  0  0  0  0  0  0  0  0  0
  -31.0158  -17.4515   21.0060 C   0  0  0  0  0  0  0  0  0  0  0  0
  -21.0414  -29.7970   16.2750 C   0  0  0  0  0  0  0  0  0  0  0  0
  -28.9086  -16.7176   19.9539 C   0  0  0  0  0  0  0  0  0  0  0  0
  -20.5267  -28.3993   21.0306 C   0  0  1  0  0  0  0  0  0  0  0  0
  -19.0496  -29.0979   17.6102 C   0  0  2  0  0  0  0  0  0  0  0  0
  -19.6265  -27.9119   22.2009 C   0  0  0  0  0  0  0  0  0  0  0  0
  -25.9297  -11.7321   20.5983 N   0  0  0  0  0  0  0  0  0  0  0  0
  -26.2077  -12.9738   20.1660 N   0  0  0  0  0  0  0  0  0  0  0  0
  -28.3637  -21.4450   18.7876 N   0  0  0  0  0  0  0  0  0  0  0  0
  -22.8457  -29.2173   21.3079 N   0  0  0  0  0  0  0  0  0  0  0  0
  -29.8903  -14.0168   20.0719 N   0  0  0  0  0  0  0  0  0  0  0  0
  -25.2870  -15.1441   19.9362 N   0  0  0  0  0  0  0  0  0  0  0  0
  -21.9281  -12.7810   21.8149 N   0  0  0  0  0  0  0  0  0  0  0  0
  -25.0509  -30.4291   23.9470 N   0  0  0  0  0  0  0  0  0  0  0  0
  -19.7881  -28.9216   19.8861 N   0  0  0  0  0  0  0  0  0  0  0  0
  -30.1807  -16.3423   20.5675 N   0  0  0  0  0  0  0  0  0  0  0  0
  -19.7163  -29.1253   16.2776 N   0  3  0  0  0  0  0  0  0  0  0  0
  -27.5163  -21.4874   21.0012 O   0  0  0  0  0  0  0  0  0  0  0  0
  -22.5365  -14.8455   21.0235 O   0  0  0  0  0  0  0  0  0  0  0  0
  -23.7092  -28.5540   23.6210 O   0  0  0  0  0  0  0  0  0  0  0  0
  -21.0256  -30.5532   21.8899 O   0  0  0  0  0  0  0  0  0  0  0  0
  -20.6555  -27.4411   18.3264 O   0  0  0  0  0  0  0  0  0  0  0  0
  -31.9084  -14.8389   20.8264 O   0  0  0  0  0  0  0  0  0  0  0  0
  -22.0671   -7.3850   23.1928 O   0  0  0  0  0  0  0  0  0  0  0  0
  -27.1745  -25.5563   18.8765 O   0  0  0  0  0  0  0  0  0  1  0  0
  -22.5132   -2.5950   20.4981 F   0  0  0  0  0  0  0  0  0  0  0  0
  -24.5386   -6.2218   22.7674 F   0  0  0  0  0  0  0  0  0  0  0  0
  1  2  1  0  0  0  0
  1  6  2  0  0  0  0
  2  7  2  0  0  0  0
  3  9  1  0  0  0  0
  3 10  2  0  0  0  0
  4 11  2  0  0  0  0
  4 19  1  0  0  0  0
  5 12  1  0  0  0  0
  5 19  2  0  0  0  0
  6 21  1  0  0  0  0
  7 23  1  0  0  0  0
  8 13  2  0  0  0  0
  8 22  1  0  0  0  0
  9 25  2  0  0  0  0
 10 26  1  0  0  0  0
 11 27  1  0  0  0  0
 12 27  2  0  0  0  0
 13 28  1  0  0  0  0
 14 15  2  0  0  0  0
 14 29  1  0  0  0  0
 15 30  1  0  0  0  0
 16 24  1  0  0  0  0
 16 28  2  0  0  0  0
 17 25  1  0  0  0  0
 17 26  2  0  0  0  0
 18 30  2  0  0  0  0
 18 31  1  0  0  0  0
 19 32  1  0  0  0  0
 20 32  1  0  0  0  0
 20 33  2  0  0  0  0
 20 37  1  0  0  0  0
 21 23  2  0  0  0  0
 21 42  1  0  0  0  0
 22 24  2  0  0  0  0
 22 43  1  0  0  0  0
 23 52  1  0  0  0  0
 24 44  1  0  0  0  0
 25 61  1  0  0  0  0
 26 67  1  0  0  0  0
 27 82  1  0  0  0  0
 28 83  1  0  0  0  0
 29 31  2  0  0  0  0
 29 82  1  0  0  0  0
 30 84  1  0  0  0  0
 31 85  1  0  0  0  0
 32 65  2  0  0  0  0
 33 66  1  0  0  0  0
 33 70  1  0  0  0  0
 34 35  1  0  0  0  0
 34 36  2  0  0  0  0
 34 45  1  0  0  0  0
 35 67  1  0  0  0  0
 35 76  2  0  0  0  0
 36 83  1  0  0  0  0
 37 71  1  0  0  0  0
 37 77  2  0  0  0  0
 38 53  1  0  0  0  0
 38 72  1  0  0  0  0
 38 78  2  0  0  0  0
 39 62  1  0  0  0  0
 39 68  1  0  0  0  0
 39 79  2  0  0  0  0
 40 63  1  0  0  0  0
 40 73  1  0  0  0  0
 40 80  2  0  0  0  0
 41 69  1  0  0  0  0
 41 74  1  0  0  0  0
 41 81  2  0  0  0  0
 42 46  1  0  0  0  0
 43 53  1  0  0  0  0
 44 68  1  0  0  0  0
 45 67  1  0  0  0  0
 46 48  1  0  0  0  0
 47 49  1  0  0  0  0
 47 50  1  0  0  0  0
 48 52  1  0  0  0  0
 49 54  1  0  0  0  0
 50 69  1  0  0  0  0
 51 54  1  0  0  0  0
 51 69  1  0  0  0  0
 52 72  1  0  0  0  0
 53 68  1  0  0  0  0
 54 66  1  0  0  0  0
 55 63  1  0  0  0  0
 56 64  1  0  0  0  0
 57 64  1  0  0  0  0
 58 64  1  0  0  0  0
 59 74  1  0  0  0  0
 60 75  1  0  0  0  0
 61 74  1  0  0  0  0
 62 64  1  0  0  0  0
 62 73  1  0  0  0  0
 63 75  1  0  0  0  0
 65 66  1  0  0  0  0
M  CHG  1  75   1
M  ISO  4  36 101  41 100  74 100  83 101
M  END
> <Batch ID>
0086

> <Smiles>
CNC(C)C(=O)NC(C(=O)N1Cc2cc([101O:1][101CH:1]=C3CN(c4cccc(C[100N:0](C)[100C:0](=O)N5CCCC(n6nc(-c7ccc(Oc8ccc(F)cc8F)cc7)c(C(N)=O)c6N)C5)c4)C3=O)ccc2CC1C(=O)NC1CCCc2ccccc21)C(C)(C)C

> <Shape>
0.391

> <Color>
0.197

> <Negative vol penalty>
0.000

$$$$

  -OEChem-04052300173D

 85 94  0     1  0  0  0  0  0999 V2000
  -28.6743  -37.0000   23.2246 C   0  0  0  0  0  0  0  0  0  0  0  0
  -28.9971  -35.6783   22.9341 C   0  0  0  0  0  0  0  0  0  0  0  0
  -30.7194  -20.9371   24.7164 C   0  0  0  0  0  0  0  0  0  0  0  0
  -24.5417   -8.8375   22.1289 C   0  0  0  0  0  0  0  0  0  0  0  0
  -23.6635   -9.1364   19.8981 C   0  0  0  0  0  0  0  0  0  0  0  0
  -30.2920  -19.6134   24.6132 C   0  0  0  0  0  0  0  0  0  0  0  0
  -27.4212  -37.3108   23.7510 C   0  0  0  0  0  0  0  0  0  0  0  0
  -28.0672  -34.6665   23.1709 C   0  0  0  0  0  0  0  0  0  0  0  0
  -27.2408  -29.5786   19.8639 C   0  0  0  0  0  0  0  0  0  0  0  0
  -30.4023  -21.8526   23.7129 C   0  0  0  0  0  0  0  0  0  0  0  0
  -23.4079   -8.1034   22.4770 C   0  0  0  0  0  0  0  0  0  0  0  0
  -22.5297   -8.4022   20.2462 C   0  0  0  0  0  0  0  0  0  0  0  0
  -27.6814  -28.2670   20.0347 C   0  0  0  0  0  0  0  0  0  0  0  0
  -22.2407   -4.9616   22.0304 C   0  0  0  0  0  0  0  0  0  0  0  0
  -22.4288   -3.7767   22.7418 C   0  0  0  0  0  0  0  0  0  0  0  0
  -29.2304  -20.1207   22.5030 C   0  0  0  0  0  0  0  0  0  0  0  0
  -25.5842  -27.7059   21.0865 C   0  0  0  0  0  0  0  0  0  0  0  0
  -28.8621  -23.2467   19.6221 C   0  0  0  0  0  0  0  0  0  0  0  0
  -21.0995   -4.6558   24.5577 C   0  0  0  0  0  0  0  0  0  0  0  0
  -29.1627  -23.7048   21.8061 C   0  0  0  0  0  0  0  0  0  0  0  0
  -24.6695   -9.3541   20.8395 C   0  0  0  0  0  0  0  0  0  0  0  0
  -29.5475  -19.2051   23.5065 C   0  0  0  0  0  0  0  0  0  0  0  0
  -27.0420   -9.6169   19.9397 C   0  0  0  0  0  0  0  0  0  0  0  0
  -26.4720  -36.3034   23.9853 C   0  0  0  0  0  0  0  0  0  0  0  0
  -25.9707  -29.9671   20.3136 C   0  0  0  0  0  0  0  0  0  0  0  0
  -26.8008  -34.9640   23.7022 C   0  0  0  0  0  0  0  0  0  0  0  0
  -25.1289  -29.0225   20.9179 C   0  0  0  0  0  0  0  0  0  0  0  0
  -28.8633  -24.2804   20.5910 C   0  0  0  0  0  0  0  0  0  0  0  0
  -29.6579  -21.4444   22.6063 C   0  0  0  0  0  0  0  0  0  0  0  0
  -22.4019   -7.8857   21.5356 C   0  0  0  0  0  0  0  0  0  0  0  0
  -26.8542  -27.3311   20.6488 C   0  0  0  0  0  0  0  0  0  0  0  0
  -21.4820   -5.9937   22.5827 C   0  0  0  0  0  0  0  0  0  0  0  0
  -21.8582   -3.6237   24.0054 C   0  0  0  0  0  0  0  0  0  0  0  0
  -20.9114   -5.8408   23.8463 C   0  0  0  0  0  0  0  0  0  0  0  0
  -25.8402  -10.1130   20.4795 C   0  0  0  0  0  0  0  0  0  0  0  0
  -27.8306  -10.7297   19.7774 C   0  0  0  0  0  0  0  0  0  0  0  0
  -29.1605  -22.0709   20.2747 C   0  0  0  0  0  0  0  0  0  0  0  0
  -29.1025  -17.8245   23.3997 C   0  0  0  0  0  0  0  0  0  0  0  0
  -28.0909  -17.3857   22.6207 C   0  0  0  0  0  0  0  0  0  0  0  0
  -27.4124   -8.2707   19.6140 C   0  0  0  0  0  0  0  0  0  0  0  0
  -27.7645  -15.9455   22.6136 C   0  0  0  0  0  0  0  0  0  0  0  0
  -24.8901  -32.0611   22.4471 C   0  0  0  0  0  0  0  0  0  0  0  0
  -22.0005  -31.1972   21.2528 C   0  0  0  0  0  0  0  0  0  0  0  0
  -20.1152  -28.8536   19.6404 C   0  0  0  0  0  0  0  0  0  0  0  0
  -25.1478  -36.6824   24.5997 C   0  0  0  0  0  0  0  0  0  0  0  0
  -25.4999  -31.3793   20.0977 C   0  0  0  0  0  0  0  0  0  0  0  0
  -23.7485  -29.3839   21.4001 C   0  0  0  0  0  0  0  0  0  0  0  0
  -24.0833  -35.5960   24.4707 C   0  0  0  0  0  0  0  0  0  0  0  0
  -27.5784  -15.4278   18.9902 C   0  0  0  0  0  0  0  0  0  0  0  0
  -24.6587  -34.2365   24.8546 C   0  0  0  0  0  0  0  0  0  0  0  0
  -27.1715  -13.9581   18.9241 C   0  0  0  0  0  0  0  0  0  0  0  0
  -26.9654  -16.1370   20.1968 C   0  0  0  0  0  0  0  0  0  0  0  0
  -26.8451  -13.9902   21.4286 C   0  0  0  0  0  0  0  0  0  0  0  0
  -25.8100  -33.8414   23.9219 C   0  0  1  0  0  0  0  0  0  0  0  0
  -24.3875  -31.7915   21.0569 C   0  0  1  0  0  0  0  0  0  0  0  0
  -27.4884  -13.2455   20.2484 C   0  0  1  0  0  0  0  0  0  0  0  0
  -17.7770  -28.4159   18.8411 C   0  0  0  0  0  0  0  0  0  0  0  0
  -21.1367  -30.5956   24.1167 C   0  0  0  0  0  0  0  0  0  0  0  0
  -19.2059  -29.3001   23.1883 C   0  0  0  0  0  0  0  0  0  0  0  0
  -19.4051  -31.7429   22.7240 C   0  0  0  0  0  0  0  0  0  0  0  0
  -20.9913  -28.6608   16.8201 C   0  0  0  0  0  0  0  0  0  0  0  0
  -28.5897  -25.7343   20.3414 C   0  0  0  0  0  0  0  0  0  1  0  0
  -20.9831  -30.1315   21.5816 C   0  0  1  0  0  0  0  0  0  0  0  0
  -19.1470  -28.9664   18.4766 C   0  0  2  0  0  0  0  0  0  0  0  0
  -20.2094  -30.4359   22.8954 C   0  0  0  0  0  0  0  0  0  0  0  0
  -25.8591  -11.4377   20.6490 N   0  0  0  0  0  0  0  0  0  0  0  0
  -29.3409  -22.3614   21.6018 N   0  0  0  0  0  0  0  0  0  0  0  0
  -27.0825  -11.7835   20.2132 N   0  0  0  0  0  0  0  0  0  0  0  0
  -27.2325  -15.4052   21.4442 N   0  0  0  0  0  0  0  0  0  0  0  0
  -23.3362  -30.7787   21.1719 N   0  0  0  0  0  0  0  0  0  0  0  0
  -29.0841  -10.8998   19.3059 N   0  0  0  0  0  0  0  0  0  0  0  0
  -26.4825   -7.2476   19.8439 N   0  0  0  0  0  0  0  0  0  0  0  0
  -25.2944  -33.3658   22.6560 N   0  0  0  0  0  0  0  0  0  0  0  0
  -20.1324  -30.0019   20.4035 N   0  0  0  0  0  0  0  0  0  0  0  0
  -19.6603  -28.2085   17.3005 N   0  3  0  0  0  0  0  0  0  0  0  0
  -28.5409   -7.9814   19.1487 O   0  0  0  0  0  0  0  0  0  0  0  0
  -27.9788  -15.3088   23.6468 O   0  0  0  0  0  0  0  0  0  0  0  0
  -24.9083  -31.1529   23.2696 O   0  0  0  0  0  0  0  0  0  0  0  0
  -21.6231  -32.3569   21.0674 O   0  0  0  0  0  0  0  0  0  0  0  0
  -20.7861  -27.8462   19.8535 O   0  0  0  0  0  0  0  0  0  0  0  0
  -29.2766  -20.8327   19.8102 O   0  0  0  0  0  0  0  0  0  0  0  0
  -21.2955   -7.1692   21.8748 O   0  0  0  0  0  0  0  0  0  0  0  0
  -27.2820  -26.0503   20.8174 O   0  0  0  0  0  0  0  0  0  1  0  0
  -22.0377   -2.4851   24.6878 F   0  0  0  0  0  0  0  0  0  0  0  0
  -20.1806   -6.8283   24.3815 F   0  0  0  0  0  0  0  0  0  0  0  0
  1  2  1  0  0  0  0
  1  7  2  0  0  0  0
  2  8  2  0  0  0  0
  3  6  1  0  0  0  0
  3 10  2  0  0  0  0
  4 11  2  0  0  0  0
  4 21  1  0  0  0  0
  5 12  1  0  0  0  0
  5 21  2  0  0  0  0
  6 22  2  0  0  0  0
  7 24  1  0  0  0  0
  8 26  1  0  0  0  0
  9 13  2  0  0  0  0
  9 25  1  0  0  0  0
 10 29  1  0  0  0  0
 11 30  1  0  0  0  0
 12 30  2  0  0  0  0
 13 31  1  0  0  0  0
 14 15  2  0  0  0  0
 14 32  1  0  0  0  0
 15 33  1  0  0  0  0
 16 22  1  0  0  0  0
 16 29  2  0  0  0  0
 17 27  1  0  0  0  0
 17 31  2  0  0  0  0
 18 28  1  0  0  0  0
 18 37  2  0  0  0  0
 19 33  2  0  0  0  0
 19 34  1  0  0  0  0
 20 28  2  0  0  0  0
 20 67  1  0  0  0  0
 21 35  1  0  0  0  0
 22 38  1  0  0  0  0
 23 35  1  0  0  0  0
 23 36  2  0  0  0  0
 23 40  1  0  0  0  0
 24 26  2  0  0  0  0
 24 45  1  0  0  0  0
 25 27  2  0  0  0  0
 25 46  1  0  0  0  0
 26 54  1  0  0  0  0
 27 47  1  0  0  0  0
 28 62  1  0  0  0  0
 29 67  1  0  0  0  0
 30 82  1  0  0  0  0
 31 83  1  0  0  0  0
 32 34  2  0  0  0  0
 32 82  1  0  0  0  0
 33 84  1  0  0  0  0
 34 85  1  0  0  0  0
 35 66  2  0  0  0  0
 36 68  1  0  0  0  0
 36 71  1  0  0  0  0
 37 67  1  0  0  0  0
 37 81  1  0  0  0  0
 38 39  2  0  0  0  0
 39 41  1  0  0  0  0
 40 72  1  0  0  0  0
 40 76  2  0  0  0  0
 41 69  1  0  0  0  0
 41 77  2  0  0  0  0
 42 55  1  0  0  0  0
 42 73  1  0  0  0  0
 42 78  2  0  0  0  0
 43 63  1  0  0  0  0
 43 70  1  0  0  0  0
 43 79  2  0  0  0  0
 44 64  1  0  0  0  0
 44 74  1  0  0  0  0
 44 80  2  0  0  0  0
 45 48  1  0  0  0  0
 46 55  1  0  0  0  0
 47 70  1  0  0  0  0
 48 50  1  0  0  0  0
 49 51  1  0  0  0  0
 49 52  1  0  0  0  0
 50 54  1  0  0  0  0
 51 56  1  0  0  0  0
 52 69  1  0  0  0  0
 53 56  1  0  0  0  0
 53 69  1  0  0  0  0
 54 73  1  0  0  0  0
 55 70  1  0  0  0  0
 56 68  1  0  0  0  0
 57 64  1  0  0  0  0
 58 65  1  0  0  0  0
 59 65  1  0  0  0  0
 60 65  1  0  0  0  0
 61 75  1  0  0  0  0
 62 83  1  0  0  0  0
 63 65  1  0  0  0  0
 63 74  1  0  0  0  0
 64 75  1  0  0  0  0
 66 68  1  0  0  0  0
M  CHG  1  75   1
M  ISO  4  39 100  41 100  62 101  83 101
M  END
> <Batch ID>
0086

> <Smiles>
CNC(C)C(=O)NC(C(=O)N1Cc2cc([101O:1][101CH2:1]C3=CN(c4cccc(C=[100CH:0][100C:0](=O)N5CCCC(n6nc(-c7ccc(Oc8ccc(F)cc8F)cc7)c(C(N)=O)c6N)C5)c4)C(=O)C3)ccc2CC1C(=O)NC1CCCc2ccccc21)C(C)(C)C

> <Shape>
0.297

> <Color>
0.111

> <Negative vol penalty>
0.000

$$$$

  -OEChem-04052300173D

 85 94  0     1  0  0  0  0  0999 V2000
  -27.2374  -37.6215   21.1659 C   0  0  0  0  0  0  0  0  0  0  0  0
  -27.7981  -36.3905   20.8408 C   0  0  0  0  0  0  0  0  0  0  0  0
  -26.2982  -11.7086   21.0666 C   0  0  0  0  0  0  0  0  0  0  0  0
  -25.6113  -13.8356   20.1494 C   0  0  0  0  0  0  0  0  0  0  0  0
  -26.2326  -37.6958   22.1297 C   0  0  0  0  0  0  0  0  0  0  0  0
  -27.3552  -35.2332   21.4801 C   0  0  0  0  0  0  0  0  0  0  0  0
  -26.8813  -29.6339   19.0452 C   0  0  0  0  0  0  0  0  0  0  0  0
  -30.6942  -21.4208   19.4830 C   0  0  0  0  0  0  0  0  0  0  0  0
  -32.5421  -21.4912   21.0378 C   0  0  0  0  0  0  0  0  0  0  0  0
  -30.8232  -20.0349   19.3924 C   0  0  0  0  0  0  0  0  0  0  0  0
  -32.6711  -20.1052   20.9472 C   0  0  0  0  0  0  0  0  0  0  0  0
  -25.0607  -11.5810   21.6973 C   0  0  0  0  0  0  0  0  0  0  0  0
  -24.3738  -13.7080   20.7802 C   0  0  0  0  0  0  0  0  0  0  0  0
  -27.7126  -28.5157   19.0955 C   0  0  0  0  0  0  0  0  0  0  0  0
  -21.9086  -10.7041   20.8440 C   0  0  0  0  0  0  0  0  0  0  0  0
  -21.2634   -9.4701   20.7620 C   0  0  0  0  0  0  0  0  0  0  0  0
  -26.4062  -27.6341   20.9217 C   0  0  0  0  0  0  0  0  0  0  0  0
  -21.3028   -9.2894   23.1709 C   0  0  0  0  0  0  0  0  0  0  0  0
  -26.5735  -12.8360   20.2926 C   0  0  0  0  0  0  0  0  0  0  0  0
  -28.1988  -12.5247   18.3512 C   0  0  0  0  0  0  0  0  0  0  0  0
  -25.7704  -36.5375   22.7742 C   0  0  0  0  0  0  0  0  0  0  0  0
  -25.8110  -29.7659   19.9415 C   0  0  0  0  0  0  0  0  0  0  0  0
  -26.3442  -35.2922   22.4544 C   0  0  0  0  0  0  0  0  0  0  0  0
  -25.5612  -28.7536   20.8790 C   0  0  0  0  0  0  0  0  0  0  0  0
  -31.5537  -22.1490   20.3056 C   0  0  0  0  0  0  0  0  0  0  0  0
  -31.8116  -19.3771   20.1245 C   0  0  0  0  0  0  0  0  0  0  0  0
  -24.0984  -12.5806   21.5541 C   0  0  0  0  0  0  0  0  0  0  0  0
  -27.4769  -27.5170   20.0357 C   0  0  0  0  0  0  0  0  0  0  0  0
  -22.2509  -11.2307   22.0895 C   0  0  0  0  0  0  0  0  0  0  0  0
  -20.9605   -8.7628   21.9254 C   0  0  0  0  0  0  0  0  0  0  0  0
  -21.9480  -10.5234   23.2529 C   0  0  0  0  0  0  0  0  0  0  0  0
  -27.8519  -12.9687   19.6413 C   0  0  0  0  0  0  0  0  0  0  0  0
  -29.5154  -12.8880   18.2056 C   0  0  0  0  0  0  0  0  0  0  0  0
  -30.5007  -25.6261   20.4062 C   0  0  0  0  0  0  0  0  0  0  0  0
  -31.9384  -25.7795   20.6680 C   0  0  0  0  0  0  0  0  0  0  0  0
  -30.1865  -24.1931   20.2354 C   0  0  0  0  0  0  0  0  0  0  0  0
  -29.6169  -26.6214   20.3340 C   0  0  0  0  0  0  0  0  0  1  0  0
  -27.4022  -11.8448   17.3720 C   0  0  0  0  0  0  0  0  0  0  0  0
  -25.0331  -31.8459   22.2156 C   0  0  0  0  0  0  0  0  0  0  0  0
  -22.2894  -30.1183   22.3147 C   0  0  0  0  0  0  0  0  0  0  0  0
  -20.7080  -27.1553   21.7091 C   0  0  0  0  0  0  0  0  0  0  0  0
  -32.8697  -17.1625   20.6921 C   0  0  0  0  0  0  0  0  0  0  0  0
  -24.7153  -36.6737   23.8433 C   0  0  0  0  0  0  0  0  0  0  0  0
  -24.9074  -30.9654   19.8567 C   0  0  0  0  0  0  0  0  0  0  0  0
  -24.4131  -28.8379   21.8502 C   0  0  0  0  0  0  0  0  0  0  0  0
  -32.5721  -24.4197   20.6662 C   0  0  0  0  0  0  0  0  0  0  0  0
  -24.0406  -35.3530   24.2049 C   0  0  0  0  0  0  0  0  0  0  0  0
  -33.4924  -13.6575   20.7601 C   0  0  0  0  0  0  0  0  0  0  0  0
  -25.0831  -34.2566   24.3993 C   0  0  0  0  0  0  0  0  0  0  0  0
  -32.1499  -13.0429   20.3576 C   0  0  0  0  0  0  0  0  0  0  0  0
  -33.3093  -14.9023   21.6266 C   0  0  0  0  0  0  0  0  0  0  0  0
  -31.0819  -15.3137   20.6577 C   0  0  0  0  0  0  0  0  0  0  0  0
  -25.8731  -34.0113   23.1081 C   0  0  1  0  0  0  0  0  0  0  0  0
  -24.1566  -31.2409   21.1558 C   0  0  1  0  0  0  0  0  0  0  0  0
  -31.2141  -14.0947   19.7302 C   0  0  2  0  0  0  0  0  0  0  0  0
  -18.4737  -26.0341   21.9286 C   0  0  0  0  0  0  0  0  0  0  0  0
  -22.7501  -29.7927   25.3133 C   0  0  0  0  0  0  0  0  0  0  0  0
  -21.0766  -27.9306   25.2976 C   0  0  0  0  0  0  0  0  0  0  0  0
  -20.3764  -30.2398   24.6650 C   0  0  0  0  0  0  0  0  0  0  0  0
  -20.5037  -26.7317   18.7872 C   0  0  0  0  0  0  0  0  0  0  0  0
  -21.8184  -28.9027   23.0759 C   0  0  1  0  0  0  0  0  0  0  0  0
  -19.3923  -26.8379   21.0215 C   0  0  2  0  0  0  0  0  0  0  0  0
  -21.5282  -29.2155   24.5711 C   0  0  0  0  0  0  0  0  0  0  0  0
  -28.8662  -13.5681   20.2705 N   0  0  0  0  0  0  0  0  0  0  0  0
  -29.8635  -13.5032   19.3720 N   0  0  0  0  0  0  0  0  0  0  0  0
  -31.4253  -23.5331   20.3959 N   0  0  0  0  0  0  0  0  0  0  0  0
  -23.5618  -30.0332   21.7319 N   0  0  0  0  0  0  0  0  0  0  0  0
  -32.4145  -15.8555   20.9666 N   0  0  0  0  0  0  0  0  0  0  0  0
  -30.3976  -12.7379   17.1949 N   0  0  0  0  0  0  0  0  0  0  0  0
  -26.0686  -11.5481   17.6847 N   0  0  0  0  0  0  0  0  0  0  0  0
  -31.9429  -17.9692   20.0327 N   0  0  0  0  0  0  0  0  0  0  0  0
  -25.0902  -33.2261   22.1780 N   0  0  0  0  0  0  0  0  0  0  0  0
  -20.6713  -28.3802   22.3413 N   0  0  0  0  0  0  0  0  0  0  0  0
  -19.6338  -26.0499   19.7799 N   0  3  0  0  0  0  0  0  0  0  0  0
  -32.5194  -26.8347   20.8550 O   0  0  0  0  0  0  0  0  0  0  0  0
  -29.0856  -23.7233   20.0068 O   0  0  0  0  0  0  0  0  0  0  0  0
  -27.8642  -11.4956   16.2593 O   0  0  0  0  0  0  0  0  0  0  0  0
  -25.6133  -31.1149   23.0097 O   0  0  0  0  0  0  0  0  0  0  0  0
  -21.5526  -31.1043   22.2339 O   0  0  0  0  0  0  0  0  0  0  0  0
  -21.6705  -26.3914   21.6907 O   0  0  0  0  0  0  0  0  0  0  0  0
  -34.0082  -17.5298   20.9935 O   0  0  0  0  0  0  0  0  0  0  0  0
  -22.8907  -12.4562   22.1692 O   0  0  0  0  0  0  0  0  0  0  0  0
  -28.2871  -26.4249   20.0874 O   0  0  0  0  0  0  0  0  0  1  0  0
  -20.3396   -7.5786   21.8466 F   0  0  0  0  0  0  0  0  0  0  0  0
  -22.2733  -11.0248   24.4523 F   0  0  0  0  0  0  0  0  0  0  0  0
  1  2  1  0  0  0  0
  1  5  2  0  0  0  0
  2  6  2  0  0  0  0
  3 12  2  0  0  0  0
  3 19  1  0  0  0  0
  4 13  1  0  0  0  0
  4 19  2  0  0  0  0
  5 21  1  0  0  0  0
  6 23  1  0  0  0  0
  7 14  2  0  0  0  0
  7 22  1  0  0  0  0
  8 10  2  0  0  0  0
  8 25  1  0  0  0  0
  9 11  1  0  0  0  0
  9 25  2  0  0  0  0
 10 26  1  0  0  0  0
 11 26  2  0  0  0  0
 12 27  1  0  0  0  0
 13 27  2  0  0  0  0
 14 28  1  0  0  0  0
 15 16  2  0  0  0  0
 15 29  1  0  0  0  0
 16 30  1  0  0  0  0
 17 24  1  0  0  0  0
 17 28  2  0  0  0  0
 18 30  2  0  0  0  0
 18 31  1  0  0  0  0
 19 32  1  0  0  0  0
 20 32  1  0  0  0  0
 20 33  2  0  0  0  0
 20 38  1  0  0  0  0
 21 23  2  0  0  0  0
 21 43  1  0  0  0  0
 22 24  2  0  0  0  0
 22 44  1  0  0  0  0
 23 53  1  0  0  0  0
 24 45  1  0  0  0  0
 25 66  1  0  0  0  0
 26 71  1  0  0  0  0
 27 82  1  0  0  0  0
 28 83  1  0  0  0  0
 29 31  2  0  0  0  0
 29 82  1  0  0  0  0
 30 84  1  0  0  0  0
 31 85  1  0  0  0  0
 32 64  2  0  0  0  0
 33 65  1  0  0  0  0
 33 69  1  0  0  0  0
 34 35  1  0  0  0  0
 34 36  1  0  0  0  0
 34 37  2  0  0  0  0
 35 46  1  0  0  0  0
 35 75  2  0  0  0  0
 36 66  1  0  0  0  0
 36 76  2  0  0  0  0
 37 83  1  0  0  0  0
 38 70  1  0  0  0  0
 38 77  2  0  0  0  0
 39 54  1  0  0  0  0
 39 72  1  0  0  0  0
 39 78  2  0  0  0  0
 40 61  1  0  0  0  0
 40 67  1  0  0  0  0
 40 79  2  0  0  0  0
 41 62  1  0  0  0  0
 41 73  1  0  0  0  0
 41 80  2  0  0  0  0
 42 68  1  0  0  0  0
 42 71  1  0  0  0  0
 42 81  2  0  0  0  0
 43 47  1  0  0  0  0
 44 54  1  0  0  0  0
 45 67  1  0  0  0  0
 46 66  1  0  0  0  0
 47 49  1  0  0  0  0
 48 50  1  0  0  0  0
 48 51  1  0  0  0  0
 49 53  1  0  0  0  0
 50 55  1  0  0  0  0
 51 68  1  0  0  0  0
 52 55  1  0  0  0  0
 52 68  1  0  0  0  0
 53 72  1  0  0  0  0
 54 67  1  0  0  0  0
 55 65  1  0  0  0  0
 56 62  1  0  0  0  0
 57 63  1  0  0  0  0
 58 63  1  0  0  0  0
 59 63  1  0  0  0  0
 60 74  1  0  0  0  0
 61 63  1  0  0  0  0
 61 73  1  0  0  0  0
 62 74  1  0  0  0  0
 64 65  1  0  0  0  0
M  CHG  1  74   1
M  ISO  4  37 101  42 100  71 100  83 101
M  END
> <Batch ID>
0086

> <Smiles>
CNC(C)C(=O)NC(C(=O)N1Cc2cc([101O:1][101CH:1]=C3C(=O)CN(c4ccc([100NH:0][100C:0](=O)N5CCCC(n6nc(-c7ccc(Oc8ccc(F)cc8F)cc7)c(C(N)=O)c6N)C5)cc4)C3=O)ccc2CC1C(=O)NC1CCCc2ccccc21)C(C)(C)C

> <Shape>
0.325

> <Color>
0.086

> <Negative vol penalty>
0.000

$$$$

  -OEChem-04052300173D

 85 94  0     1  0  0  0  0  0999 V2000
  -18.0258  -12.2484   24.4558 C   0  0  0  0  0  0  0  0  0  0  0  0
  -19.3161  -12.6979   24.7175 C   0  0  0  0  0  0  0  0  0  0  0  0
  -32.6519  -17.4897   23.4573 C   0  0  0  0  0  0  0  0  0  0  0  0
  -23.0735   -9.8699   19.9415 C   0  0  0  0  0  0  0  0  0  0  0  0
  -23.8315   -9.8778   22.2355 C   0  0  0  0  0  0  0  0  0  0  0  0
  -17.0060  -13.1662   24.2075 C   0  0  0  0  0  0  0  0  0  0  0  0
  -19.5876  -14.0656   24.7300 C   0  0  0  0  0  0  0  0  0  0  0  0
  -23.5879  -16.9921   28.3270 C   0  0  0  0  0  0  0  0  0  0  0  0
  -31.8541  -18.3575   24.2030 C   0  0  0  0  0  0  0  0  0  0  0  0
  -32.0640  -16.6055   22.5527 C   0  0  0  0  0  0  0  0  0  0  0  0
  -22.3285   -8.7175   20.1916 C   0  0  0  0  0  0  0  0  0  0  0  0
  -23.0864   -8.7254   22.4856 C   0  0  0  0  0  0  0  0  0  0  0  0
  -24.8922  -17.4356   28.1126 C   0  0  0  0  0  0  0  0  0  0  0  0
  -19.3784   -7.9243   21.6410 C   0  0  0  0  0  0  0  0  0  0  0  0
  -18.0719   -7.8788   21.1546 C   0  0  0  0  0  0  0  0  0  0  0  0
  -24.0505  -19.6306   27.5714 C   0  0  0  0  0  0  0  0  0  0  0  0
  -29.8805  -17.4567   23.1398 C   0  0  0  0  0  0  0  0  0  0  0  0
  -18.6311   -5.9344   19.8342 C   0  0  0  0  0  0  0  0  0  0  0  0
  -23.8251  -10.4500   20.9634 C   0  0  0  0  0  0  0  0  0  0  0  0
  -24.1691  -12.9748   20.8420 C   0  0  0  0  0  0  0  0  0  0  0  0
  -17.2631  -14.5461   24.2265 C   0  0  0  0  0  0  0  0  0  0  0  0
  -22.5026  -17.8631   28.1543 C   0  0  0  0  0  0  0  0  0  0  0  0
  -18.5705  -15.0027   24.4804 C   0  0  0  0  0  0  0  0  0  0  0  0
  -22.7336  -19.1963   27.7866 C   0  0  0  0  0  0  0  0  0  0  0  0
  -30.4684  -18.3410   24.0443 C   0  0  0  0  0  0  0  0  0  0  0  0
  -30.6783  -16.5889   22.3940 C   0  0  0  0  0  0  0  0  0  0  0  0
  -22.3349   -8.1453   21.4637 C   0  0  0  0  0  0  0  0  0  0  0  0
  -25.1235  -18.7542   27.7319 C   0  0  0  0  0  0  0  0  0  0  0  0
  -20.3113   -6.9749   21.2238 C   0  0  0  0  0  0  0  0  0  0  0  0
  -17.6982   -6.8839   20.2513 C   0  0  0  0  0  0  0  0  0  0  0  0
  -19.9377   -5.9799   20.3205 C   0  0  0  0  0  0  0  0  0  0  0  0
  -24.5953  -11.6401   20.7055 C   0  0  0  0  0  0  0  0  0  0  0  0
  -25.2621  -13.7232   20.4791 C   0  0  0  0  0  0  0  0  0  0  0  0
  -28.9181  -21.0172   25.9672 C   0  0  0  0  0  0  0  0  0  0  0  0
  -27.9269  -20.1283   25.9530 C   0  0  0  0  0  0  0  0  0  0  0  0
  -30.0608  -20.4535   25.2345 C   0  0  0  0  0  0  0  0  0  0  0  0
  -28.3779  -18.9481   25.1901 C   0  0  0  0  0  0  0  0  0  0  0  0
  -22.8987  -13.4920   21.2595 C   0  0  0  0  0  0  0  0  0  0  0  0
  -19.9702  -17.9381   26.2346 C   0  0  0  0  0  0  0  0  0  0  0  0
  -19.1427  -20.4825   28.0686 C   0  0  0  0  0  0  0  0  0  0  0  0
  -20.1356  -23.0029   30.1443 C   0  0  0  0  0  0  0  0  0  0  0  0
  -30.7290  -14.7644   20.6577 C   0  0  0  0  0  0  0  0  0  0  0  0
  -16.1385  -15.4985   23.9057 C   0  0  0  0  0  0  0  0  0  0  0  0
  -21.1035  -17.3764   28.4154 C   0  0  0  0  0  0  0  0  0  0  0  0
  -21.6042  -20.1767   27.6076 C   0  0  0  0  0  0  0  0  0  0  0  0
  -16.4297  -16.9422   24.3072 C   0  0  0  0  0  0  0  0  0  0  0  0
  -29.6146  -12.3499   18.2901 C   0  0  0  0  0  0  0  0  0  0  0  0
  -17.8291  -17.3496   23.8573 C   0  0  0  0  0  0  0  0  0  0  0  0
  -28.1744  -12.0598   18.7187 C   0  0  0  0  0  0  0  0  0  0  0  0
  -30.5289  -12.5788   19.4924 C   0  0  0  0  0  0  0  0  0  0  0  0
  -28.6214  -13.3057   20.8715 C   0  0  0  0  0  0  0  0  0  0  0  0
  -18.8992  -16.4791   24.5272 C   0  0  1  0  0  0  0  0  0  0  0  0
  -20.0390  -18.2115   27.7104 C   0  0  1  0  0  0  0  0  0  0  0  0
  -27.6494  -13.1325   19.6930 C   0  0  2  0  0  0  0  0  0  0  0  0
  -19.2366  -24.9443   31.4557 C   0  0  0  0  0  0  0  0  0  0  0  0
  -18.8606  -22.0901   25.4906 C   0  0  0  0  0  0  0  0  0  0  0  0
  -18.9063  -24.1788   26.8703 C   0  0  0  0  0  0  0  0  0  0  0  0
  -17.0732  -22.5168   27.1869 C   0  0  0  0  0  0  0  0  0  0  0  0
  -21.0681  -21.8531   32.7070 C   0  0  0  0  0  0  0  0  0  0  0  0
  -26.5755  -20.2293   26.5607 C   0  0  0  0  0  0  0  0  0  1  0  0
  -19.3992  -21.9691   28.0128 C   0  0  1  0  0  0  0  0  0  0  0  0
  -19.6049  -23.4692   31.4880 C   0  0  2  0  0  0  0  0  0  0  0  0
  -18.5812  -22.6700   26.8915 C   0  0  0  0  0  0  0  0  0  0  0  0
  -25.8605  -11.5429   20.2884 N   0  0  0  0  0  0  0  0  0  0  0  0
  -26.2385  -12.8261   20.1595 N   0  0  0  0  0  0  0  0  0  0  0  0
  -29.6738  -19.2065   24.7876 N   0  0  0  0  0  0  0  0  0  0  0  0
  -20.2539  -19.6513   27.8685 N   0  0  0  0  0  0  0  0  0  0  0  0
  -29.9701  -13.6106   20.3686 N   0  0  0  0  0  0  0  0  0  0  0  0
  -25.4737  -15.0544   20.4054 N   0  0  0  0  0  0  0  0  0  0  0  0
  -21.8857  -12.5838   21.5965 N   0  0  0  0  0  0  0  0  0  0  0  0
  -30.0817  -15.6905   21.4749 N   0  0  0  0  0  0  0  0  0  0  0  0
  -19.1165  -16.9068   25.8926 N   0  0  0  0  0  0  0  0  0  0  0  0
  -19.1345  -22.4797   29.3536 N   0  0  0  0  0  0  0  0  0  0  0  0
  -20.6307  -23.2641   32.5495 N   0  3  0  0  0  0  0  0  0  0  0  0
  -31.1235  -21.0346   25.0858 O   0  0  0  0  0  0  0  0  0  0  0  0
  -27.6932  -17.9581   24.9872 O   0  0  0  0  0  0  0  0  0  0  0  0
  -22.6634  -14.7228   21.3158 O   0  0  0  0  0  0  0  0  0  0  0  0
  -20.6408  -18.6140   25.4630 O   0  0  0  0  0  0  0  0  0  0  0  0
  -17.9998  -20.0739   28.2889 O   0  0  0  0  0  0  0  0  0  0  0  0
  -21.3191  -23.0970   29.8265 O   0  0  0  0  0  0  0  0  0  0  0  0
  -31.8587  -14.9319   20.1909 O   0  0  0  0  0  0  0  0  0  0  0  0
  -21.6078   -7.0210   21.7082 O   0  0  0  0  0  0  0  0  0  0  0  0
  -26.3955  -19.1895   27.5214 O   0  0  0  0  0  0  0  0  0  1  0  0
  -16.4431   -6.8394   19.7856 F   0  0  0  0  0  0  0  0  0  0  0  0
  -20.8292   -5.0644   19.9170 F   0  0  0  0  0  0  0  0  0  0  0  0
  1  2  1  0  0  0  0
  1  6  2  0  0  0  0
  2  7  2  0  0  0  0
  3  9  2  0  0  0  0
  3 10  1  0  0  0  0
  4 11  2  0  0  0  0
  4 19  1  0  0  0  0
  5 12  1  0  0  0  0
  5 19  2  0  0  0  0
  6 21  1  0  0  0  0
  7 23  1  0  0  0  0
  8 13  2  0  0  0  0
  8 22  1  0  0  0  0
  9 25  1  0  0  0  0
 10 26  2  0  0  0  0
 11 27  1  0  0  0  0
 12 27  2  0  0  0  0
 13 28  1  0  0  0  0
 14 15  2  0  0  0  0
 14 29  1  0  0  0  0
 15 30  1  0  0  0  0
 16 24  1  0  0  0  0
 16 28  2  0  0  0  0
 17 25  2  0  0  0  0
 17 26  1  0  0  0  0
 18 30  2  0  0  0  0
 18 31  1  0  0  0  0
 19 32  1  0  0  0  0
 20 32  1  0  0  0  0
 20 33  2  0  0  0  0
 20 38  1  0  0  0  0
 21 23  2  0  0  0  0
 21 43  1  0  0  0  0
 22 24  2  0  0  0  0
 22 44  1  0  0  0  0
 23 52  1  0  0  0  0
 24 45  1  0  0  0  0
 25 66  1  0  0  0  0
 26 71  1  0  0  0  0
 27 82  1  0  0  0  0
 28 83  1  0  0  0  0
 29 31  2  0  0  0  0
 29 82  1  0  0  0  0
 30 84  1  0  0  0  0
 31 85  1  0  0  0  0
 32 64  2  0  0  0  0
 33 65  1  0  0  0  0
 33 69  1  0  0  0  0
 34 35  2  0  0  0  0
 34 36  1  0  0  0  0
 35 37  1  0  0  0  0
 35 60  1  0  0  0  0
 36 66  1  0  0  0  0
 36 75  2  0  0  0  0
 37 66  1  0  0  0  0
 37 76  2  0  0  0  0
 38 70  1  0  0  0  0
 38 77  2  0  0  0  0
 39 53  1  0  0  0  0
 39 72  1  0  0  0  0
 39 78  2  0  0  0  0
 40 61  1  0  0  0  0
 40 67  1  0  0  0  0
 40 79  2  0  0  0  0
 41 62  1  0  0  0  0
 41 73  1  0  0  0  0
 41 80  2  0  0  0  0
 42 68  1  0  0  0  0
 42 71  1  0  0  0  0
 42 81  2  0  0  0  0
 43 46  1  0  0  0  0
 44 53  1  0  0  0  0
 45 67  1  0  0  0  0
 46 48  1  0  0  0  0
 47 49  1  0  0  0  0
 47 50  1  0  0  0  0
 48 52  1  0  0  0  0
 49 54  1  0  0  0  0
 50 68  1  0  0  0  0
 51 54  1  0  0  0  0
 51 68  1  0  0  0  0
 52 72  1  0  0  0  0
 53 67  1  0  0  0  0
 54 65  1  0  0  0  0
 55 62  1  0  0  0  0
 56 63  1  0  0  0  0
 57 63  1  0  0  0  0
 58 63  1  0  0  0  0
 59 74  1  0  0  0  0
 60 83  1  0  0  0  0
 61 63  1  0  0  0  0
 61 73  1  0  0  0  0
 62 74  1  0  0  0  0
 64 65  1  0  0  0  0
M  CHG  1  74   1
M  ISO  4  42 100  60 101  71 100  83 101
M  END
> <Batch ID>
0086

> <Smiles>
CNC(C)C(=O)NC(C(=O)N1Cc2cc([101O:1][101CH2:1]C3=CC(=O)N(c4cccc([100NH:0][100C:0](=O)N5CCCC(n6nc(-c7ccc(Oc8ccc(F)cc8F)cc7)c(C(N)=O)c6N)C5)c4)C3=O)ccc2CC1C(=O)NC1CCCc2ccccc21)C(C)(C)C

> <Shape>
0.145

> <Color>
0.187

> <Negative vol penalty>
0.000

$$$$

  -OEChem-04052300173D

 87 95  0     1  0  0  0  0  0999 V2000
  -18.0903  -34.7596   18.4903 C   0  0  0  0  0  0  0  0  0  0  0  0
  -19.2096  -34.2545   17.8365 C   0  0  0  0  0  0  0  0  0  0  0  0
  -31.0255  -18.8230   20.4200 C   0  0  0  0  0  0  0  0  0  0  0  0
  -23.8938   -9.0716   20.8440 C   0  0  0  0  0  0  0  0  0  0  0  0
  -23.1389  -11.3639   20.9565 C   0  0  0  0  0  0  0  0  0  0  0  0
  -29.8992  -19.6449   20.3844 C   0  0  0  0  0  0  0  0  0  0  0  0
  -18.2011  -35.2284   19.7987 C   0  0  0  0  0  0  0  0  0  0  0  0
  -20.4407  -34.2189   18.4904 C   0  0  0  0  0  0  0  0  0  0  0  0
  -23.9552  -28.0033   19.4425 C   0  0  0  0  0  0  0  0  0  0  0  0
  -30.8786  -17.4363   20.3813 C   0  0  0  0  0  0  0  0  0  0  0  0
  -22.8983   -8.6994   21.7474 C   0  0  0  0  0  0  0  0  0  0  0  0
  -22.1434  -10.9917   21.8599 C   0  0  0  0  0  0  0  0  0  0  0  0
  -24.7878  -26.8846   19.4776 C   0  0  0  0  0  0  0  0  0  0  0  0
  -19.5749   -8.0806   21.6765 C   0  0  0  0  0  0  0  0  0  0  0  0
  -18.8363   -6.9326   21.3905 C   0  0  0  0  0  0  0  0  0  0  0  0
  -28.4789  -17.6937   20.2715 C   0  0  0  0  0  0  0  0  0  0  0  0
  -26.4482  -28.1455   20.7030 C   0  0  0  0  0  0  0  0  0  0  0  0
  -19.5861   -5.9347   23.4591 C   0  0  0  0  0  0  0  0  0  0  0  0
  -24.0141  -10.4038   20.4486 C   0  0  0  0  0  0  0  0  0  0  0  0
  -28.6258  -19.0803   20.3102 C   0  0  0  0  0  0  0  0  0  0  0  0
  -24.9462  -10.8263   18.1118 C   0  0  0  0  0  0  0  0  0  0  0  0
  -19.4321  -35.1895   20.4723 C   0  0  0  0  0  0  0  0  0  0  0  0
  -24.3598  -29.1944   20.0517 C   0  0  0  0  0  0  0  0  0  0  0  0
  -20.5683  -34.6888   19.8085 C   0  0  0  0  0  0  0  0  0  0  0  0
  -25.6131  -29.2657   20.6819 C   0  0  0  0  0  0  0  0  0  0  0  0
  -29.6053  -16.8717   20.3071 C   0  0  0  0  0  0  0  0  0  0  0  0
  -22.0231   -9.6594   22.2553 C   0  0  0  0  0  0  0  0  0  0  0  0
  -26.0313  -26.9556   20.1060 C   0  0  0  0  0  0  0  0  0  0  0  0
  -20.3193   -8.1558   22.8538 C   0  0  0  0  0  0  0  0  0  0  0  0
  -18.8418   -5.8596   22.2817 C   0  0  0  0  0  0  0  0  0  0  0  0
  -20.3248   -7.0828   23.7451 C   0  0  0  0  0  0  0  0  0  0  0  0
  -25.0426  -10.7890   19.5158 C   0  0  0  0  0  0  0  0  0  0  0  0
  -26.1825  -11.2549   17.6941 C   0  0  0  0  0  0  0  0  0  0  0  0
  -27.4270  -19.9570   20.2722 C   0  0  0  0  0  0  0  0  0  0  0  0
  -23.8383  -10.5027   17.2613 C   0  0  0  0  0  0  0  0  0  0  0  0
  -23.5281  -32.7566   20.8854 C   0  0  0  0  0  0  0  0  0  0  0  0
  -25.6959  -21.8568   22.1950 C   0  0  0  0  0  0  0  0  0  0  0  0
  -27.0500  -23.5591   20.8722 C   0  0  0  0  0  0  0  0  0  0  0  0
  -24.9032  -31.5615   23.3534 C   0  0  0  0  0  0  0  0  0  0  0  0
  -26.0722  -29.7519   25.9984 C   0  0  0  0  0  0  0  0  0  0  0  0
  -30.4695  -14.5054   20.2941 C   0  0  0  0  0  0  0  0  0  0  0  0
  -19.5130  -35.7512   21.8697 C   0  0  0  0  0  0  0  0  0  0  0  0
  -23.5218  -30.4422   19.9851 C   0  0  0  0  0  0  0  0  0  0  0  0
  -26.0215  -30.5778   21.2938 C   0  0  0  0  0  0  0  0  0  0  0  0
  -20.7732  -35.3323   22.6226 C   0  0  0  0  0  0  0  0  0  0  0  0
  -30.7942  -11.2106   18.9844 C   0  0  0  0  0  0  0  0  0  0  0  0
  -22.0044  -35.5013   21.7381 C   0  0  0  0  0  0  0  0  0  0  0  0
  -29.3471  -10.7342   18.8385 C   0  0  0  0  0  0  0  0  0  0  0  0
  -30.9839  -12.0752   20.2295 C   0  0  0  0  0  0  0  0  0  0  0  0
  -28.6095  -12.7315   20.2001 C   0  0  0  0  0  0  0  0  0  0  0  0
  -21.9158  -34.6106   20.4930 C   0  0  1  0  0  0  0  0  0  0  0  0
  -23.6229  -31.3055   21.2554 C   0  0  1  0  0  0  0  0  0  0  0  0
  -28.3551  -11.9106   18.9253 C   0  0  2  0  0  0  0  0  0  0  0  0
  -26.3463  -22.0269   23.5442 C   0  0  0  0  0  0  0  0  0  0  0  0
  -26.7037  -29.9808   28.4163 C   0  0  0  0  0  0  0  0  0  0  0  0
  -27.5047  -32.9309   22.5405 C   0  0  0  0  0  0  0  0  0  0  0  0
  -28.4590  -32.2790   24.7614 C   0  0  0  0  0  0  0  0  0  0  0  0
  -26.4841  -33.7990   24.6522 C   0  0  0  0  0  0  0  0  0  0  0  0
  -24.0117  -27.8017   26.8412 C   0  0  0  0  0  0  0  0  0  0  0  0
  -26.1968  -24.5832   20.1495 C   0  0  0  0  0  0  0  0  0  1  0  0
  -26.4836  -22.1522   20.9405 C   0  0  1  0  0  0  0  0  0  0  0  0
  -26.1938  -31.3482   24.1033 C   0  0  1  0  0  0  0  0  0  0  0  0
  -25.5928  -29.6421   27.4346 C   0  0  2  0  0  0  0  0  0  0  0  0
  -27.1500  -32.5695   23.9967 C   0  0  0  0  0  0  0  0  0  0  0  0
  -26.2451  -11.1637   19.9603 N   0  0  0  0  0  0  0  0  0  0  0  0
  -24.4645  -21.4733   22.0900 N   0  0  0  0  0  0  0  0  0  0  0  0
  -26.9157  -11.4405   18.8291 N   0  0  0  0  0  0  0  0  0  0  0  0
  -24.8823  -31.1754   22.0077 N   0  0  0  0  0  0  0  0  0  0  0  0
  -30.0129  -13.1715   20.2415 N   0  0  0  0  0  0  0  0  0  0  0  0
  -26.7030  -11.4871   16.4704 N   0  0  0  0  0  0  0  0  0  0  0  0
  -22.6416  -10.0787   17.8552 N   0  0  0  0  0  0  0  0  0  0  0  0
  -29.4563  -15.4632   20.2675 N   0  0  0  0  0  0  0  0  0  0  0  0
  -27.5601  -21.2031   20.8745 N   0  0  0  0  0  0  0  0  0  0  0  0
  -22.2346  -33.2394   20.8287 N   0  0  0  0  0  0  0  0  0  0  0  0
  -25.8192  -31.0000   25.4696 N   0  0  0  0  0  0  0  0  0  0  0  0
  -25.1206  -28.2574   27.7186 N   0  3  0  0  0  0  0  0  0  0  0  0
  -26.3980  -19.5438   19.7442 O   0  0  0  0  0  0  0  0  0  0  0  0
  -23.9125  -10.5713   16.0110 O   0  0  0  0  0  0  0  0  0  0  0  0
  -24.5526  -33.3929   20.6684 O   0  0  0  0  0  0  0  0  0  0  0  0
  -28.1130  -23.8672   21.4111 O   0  0  0  0  0  0  0  0  0  0  0  0
  -23.9400  -32.0620   23.9408 O   0  0  0  0  0  0  0  0  0  0  0  0
  -26.6198  -28.8246   25.4063 O   0  0  0  0  0  0  0  0  0  0  0  0
  -31.6720  -14.7788   20.3307 O   0  0  0  0  0  0  0  0  0  0  0  0
  -21.0515   -9.2966   23.1367 O   0  0  0  0  0  0  0  0  0  0  0  0
  -26.8373  -25.8583   20.1405 O   0  0  0  0  0  0  0  0  0  1  0  0
  -18.1312   -4.7578   22.0077 F   0  0  0  0  0  0  0  0  0  0  0  0
  -21.0370   -7.1496   24.8783 F   0  0  0  0  0  0  0  0  0  0  0  0
  1  2  1  0  0  0  0
  1  7  2  0  0  0  0
  2  8  2  0  0  0  0
  3  6  2  0  0  0  0
  3 10  1  0  0  0  0
  4 11  2  0  0  0  0
  4 19  1  0  0  0  0
  5 12  1  0  0  0  0
  5 19  2  0  0  0  0
  6 20  1  0  0  0  0
  7 22  1  0  0  0  0
  8 24  1  0  0  0  0
  9 13  2  0  0  0  0
  9 23  1  0  0  0  0
 10 26  2  0  0  0  0
 11 27  1  0  0  0  0
 12 27  2  0  0  0  0
 13 28  1  0  0  0  0
 14 15  2  0  0  0  0
 14 29  1  0  0  0  0
 15 30  1  0  0  0  0
 16 20  2  0  0  0  0
 16 26  1  0  0  0  0
 17 25  1  0  0  0  0
 17 28  2  0  0  0  0
 18 30  2  0  0  0  0
 18 31  1  0  0  0  0
 19 32  1  0  0  0  0
 20 34  1  0  0  0  0
 21 32  1  0  0  0  0
 21 33  2  0  0  0  0
 21 35  1  0  0  0  0
 22 24  2  0  0  0  0
 22 42  1  0  0  0  0
 23 25  2  0  0  0  0
 23 43  1  0  0  0  0
 24 51  1  0  0  0  0
 25 44  1  0  0  0  0
 26 72  1  0  0  0  0
 27 84  1  0  0  0  0
 28 85  1  0  0  0  0
 29 31  2  0  0  0  0
 29 84  1  0  0  0  0
 30 86  1  0  0  0  0
 31 87  1  0  0  0  0
 32 65  2  0  0  0  0
 33 67  1  0  0  0  0
 33 70  1  0  0  0  0
 34 73  1  0  0  0  0
 34 77  2  0  0  0  0
 35 71  1  0  0  0  0
 35 78  2  0  0  0  0
 36 52  1  0  0  0  0
 36 74  1  0  0  0  0
 36 79  2  0  0  0  0
 37 54  1  0  0  0  0
 37 61  1  0  0  0  0
 37 66  2  0  0  0  0
 38 60  1  0  0  0  0
 38 61  1  0  0  0  0
 38 80  2  0  0  0  0
 39 62  1  0  0  0  0
 39 68  1  0  0  0  0
 39 81  2  0  0  0  0
 40 63  1  0  0  0  0
 40 75  1  0  0  0  0
 40 82  2  0  0  0  0
 41 69  1  0  0  0  0
 41 72  1  0  0  0  0
 41 83  2  0  0  0  0
 42 45  1  0  0  0  0
 43 52  1  0  0  0  0
 44 68  1  0  0  0  0
 45 47  1  0  0  0  0
 46 48  1  0  0  0  0
 46 49  1  0  0  0  0
 47 51  1  0  0  0  0
 48 53  1  0  0  0  0
 49 69  1  0  0  0  0
 50 53  1  0  0  0  0
 50 69  1  0  0  0  0
 51 74  1  0  0  0  0
 52 68  1  0  0  0  0
 53 67  1  0  0  0  0
 55 63  1  0  0  0  0
 56 64  1  0  0  0  0
 57 64  1  0  0  0  0
 58 64  1  0  0  0  0
 59 76  1  0  0  0  0
 60 85  1  0  0  0  0
 61 73  1  0  0  0  0
 62 64  1  0  0  0  0
 62 75  1  0  0  0  0
 63 76  1  0  0  0  0
 65 67  1  0  0  0  0
M  CHG  1  76   1
M  ISO  4  41 100  60 101  72 100  85 101
M  END
> <Batch ID>
0086

> <Smiles>
CNC(C)C(=O)NC(C(=O)N1Cc2cc([101O:1][101CH2:1]C(=O)C(NC(=O)c3cccc([100NH:0][100C:0](=O)N4CCCC(n5nc(-c6ccc(Oc7ccc(F)cc7F)cc6)c(C(N)=O)c5N)C4)c3)C(C)=N)ccc2CC1C(=O)NC1CCCc2ccccc21)C(C)(C)C

> <Shape>
0.258

> <Color>
0.083

> <Negative vol penalty>
0.000

$$$$

  -OEChem-04052300173D

 88 97  0     1  0  0  0  0  0999 V2000
  -21.8081   -5.9859   21.4187 C   0  0  0  0  0  0  0  0  0  0  0  0
  -22.4739   -6.5135   20.3170 C   0  0  0  0  0  0  0  0  0  0  0  0
  -26.6131  -33.1940   24.7835 C   0  0  0  0  0  0  0  0  0  0  0  0
  -27.9454  -32.7265   22.8231 C   0  0  0  0  0  0  0  0  0  0  0  0
  -30.7645  -21.6865   21.7688 C   0  0  0  0  0  0  0  0  0  0  0  0
  -29.3051  -20.9200   20.0026 C   0  0  0  0  0  0  0  0  0  0  0  0
  -21.3600   -6.8322   22.4321 C   0  0  0  0  0  0  0  0  0  0  0  0
  -22.6911   -7.8880   20.2276 C   0  0  0  0  0  0  0  0  0  0  0  0
  -29.3647  -11.8495   19.3353 C   0  0  0  0  0  0  0  0  0  0  0  0
  -31.1359  -20.3684   22.0340 C   0  0  0  0  0  0  0  0  0  0  0  0
  -29.6765  -19.6018   20.2678 C   0  0  0  0  0  0  0  0  0  0  0  0
  -27.3305  -34.3721   24.9902 C   0  0  0  0  0  0  0  0  0  0  0  0
  -28.6629  -33.9047   23.0297 C   0  0  0  0  0  0  0  0  0  0  0  0
  -30.4948  -12.6674   19.3375 C   0  0  0  0  0  0  0  0  0  0  0  0
  -27.3863  -37.5085   23.7282 C   0  0  0  0  0  0  0  0  0  0  0  0
  -26.6644  -38.6614   24.0370 C   0  0  0  0  0  0  0  0  0  0  0  0
  -29.2466  -14.4072   20.4613 C   0  0  0  0  0  0  0  0  0  0  0  0
  -27.8481  -38.8403   26.1356 C   0  0  0  0  0  0  0  0  0  0  0  0
  -26.9206  -32.3711   23.7000 C   0  0  0  0  0  0  0  0  0  0  0  0
  -29.8490  -21.9623   20.7531 C   0  0  0  0  0  0  0  0  0  0  0  0
  -24.7954  -31.0283   23.2662 C   0  0  0  0  0  0  0  0  0  0  0  0
  -21.5804   -8.2167   22.3596 C   0  0  0  0  0  0  0  0  0  0  0  0
  -28.1740  -12.3020   19.9105 C   0  0  0  0  0  0  0  0  0  0  0  0
  -22.2444   -8.7538   21.2403 C   0  0  0  0  0  0  0  0  0  0  0  0
  -28.1148  -13.5876   20.4732 C   0  0  0  0  0  0  0  0  0  0  0  0
  -30.5919  -19.3261   21.2835 C   0  0  0  0  0  0  0  0  0  0  0  0
  -28.3554  -34.7276   24.1133 C   0  0  0  0  0  0  0  0  0  0  0  0
  -30.4358  -13.9432   19.8989 C   0  0  0  0  0  0  0  0  0  0  0  0
  -28.3391  -37.0215   24.6230 C   0  0  0  0  0  0  0  0  0  0  0  0
  -26.8953  -39.3273   25.2407 C   0  0  0  0  0  0  0  0  0  0  0  0
  -28.5700  -37.6874   25.8267 C   0  0  0  0  0  0  0  0  0  0  0  0
  -26.1802  -31.1536   23.4863 C   0  0  0  0  0  0  0  0  0  0  0  0
  -24.5914  -29.6777   23.1224 C   0  0  0  0  0  0  0  0  0  0  0  0
  -32.7880  -17.5060   23.1982 C   0  0  0  0  0  0  0  0  0  0  0  0
  -31.0009  -16.9697   20.5556 C   0  0  0  0  0  0  0  0  0  0  0  0
  -29.4554  -23.3588   20.4721 C   0  0  0  0  0  0  0  0  0  0  0  0
  -23.7839  -32.0421   23.1977 C   0  0  0  0  0  0  0  0  0  0  0  0
  -24.5930  -11.5642   20.7518 C   0  0  0  0  0  0  0  0  0  0  0  0
  -25.7849  -13.0511   23.1557 C   0  0  0  0  0  0  0  0  0  0  0  0
  -27.5868  -14.3331   25.7532 C   0  0  0  0  0  0  0  0  0  0  0  0
  -28.4229  -25.4321   21.3732 C   0  0  0  0  0  0  0  0  0  0  0  0
  -21.0359   -9.0969   23.4567 C   0  0  0  0  0  0  0  0  0  0  0  0
  -26.9151  -11.4788   19.8759 C   0  0  0  0  0  0  0  0  0  0  0  0
  -26.8031  -14.0456   21.0498 C   0  0  0  0  0  0  0  0  0  0  0  0
  -31.3027  -17.6089   22.9448 C   0  0  0  0  0  0  0  0  0  0  0  0
  -21.6364  -10.5003   23.4662 C   0  0  0  0  0  0  0  0  0  0  0  0
  -26.3381  -25.4496   24.4410 C   0  0  0  0  0  0  0  0  0  0  0  0
  -21.6523  -11.0837   22.0569 C   0  0  0  0  0  0  0  0  0  0  0  0
  -26.0085  -26.9340   24.5534 C   0  0  0  0  0  0  0  0  0  0  0  0
  -27.7107  -25.2084   23.8142 C   0  0  0  0  0  0  0  0  0  0  0  0
  -33.1564  -15.8951   21.2335 C   0  0  0  0  0  0  0  0  0  0  0  0
  -27.5495  -27.3742   22.6062 C   0  0  0  0  0  0  0  0  0  0  0  0
  -22.5209  -10.2367   21.1190 C   0  0  1  0  0  0  0  0  0  0  0  0
  -31.6736  -15.6646   20.9754 C   0  0  2  0  0  0  0  0  0  1  0  0
  -26.0418  -11.6585   21.1306 C   0  0  1  0  0  0  0  0  0  0  0  0
  -26.1492  -27.6191   23.1866 C   0  0  2  0  0  0  0  0  0  0  0  0
  -27.3450  -15.0945   28.1321 C   0  0  0  0  0  0  0  0  0  0  0  0
  -24.4600  -15.6246   22.1935 C   0  0  0  0  0  0  0  0  0  0  0  0
  -25.1052  -16.6858   24.3674 C   0  0  0  0  0  0  0  0  0  0  0  0
  -23.5584  -14.7288   24.3474 C   0  0  0  0  0  0  0  0  0  0  0  0
  -29.4998  -12.2935   26.7224 C   0  0  0  0  0  0  0  0  0  0  0  0
  -26.0097  -14.3764   23.8386 C   0  0  1  0  0  0  0  0  0  0  0  0
  -27.6767  -13.9287   27.2136 C   0  0  2  0  0  0  0  0  0  0  0  0
  -24.8031  -15.3423   23.6699 C   0  0  0  0  0  0  0  0  0  0  0  0
  -26.8113  -29.9765   23.4836 N   0  0  0  0  0  0  0  0  0  0  0  0
  -25.8186  -29.0986   23.2601 N   0  0  0  0  0  0  0  0  0  0  0  0
  -33.5256  -16.6454   22.4246 N   0  0  0  0  0  0  0  0  0  0  0  0
  -30.9770  -17.9589   21.5584 N   0  0  0  0  0  0  0  0  0  0  0  0
  -26.1829  -12.9539   21.8168 N   0  0  0  0  0  0  0  0  0  0  0  0
  -27.8802  -25.9460   22.5547 N   0  0  0  0  0  0  0  0  0  0  0  0
  -23.4839  -28.9407   22.8930 N   0  0  0  0  0  0  0  0  0  0  0  0
  -23.4963  -32.6159   21.9518 N   0  0  0  0  0  0  0  0  0  0  0  0
  -28.8747  -24.0599   21.4582 N   0  0  0  0  0  0  0  0  0  0  0  0
  -23.9239  -10.5105   21.3447 N   0  0  0  0  0  0  0  0  0  0  0  0
  -26.3401  -14.0698   25.2262 N   0  0  0  0  0  0  0  0  0  0  0  0
  -29.6978  -23.8339   19.2507 N   0  3  0  0  0  0  0  0  0  0  0  0
  -29.0519  -13.4532   27.5357 N   0  3  0  0  0  0  0  0  0  0  0  0
  -33.2892  -18.0867   24.1656 O   0  0  0  0  0  0  0  0  0  0  0  0
  -30.6139  -17.1010   19.3936 O   0  0  0  0  0  0  0  0  0  0  0  0
  -23.1652  -32.4394   24.2141 O   0  0  0  0  0  0  0  0  0  0  0  0
  -24.1156  -12.3873   19.9796 O   0  0  0  0  0  0  0  0  0  0  0  0
  -25.2655  -12.1272   23.7880 O   0  0  0  0  0  0  0  0  0  0  0  0
  -28.5271  -14.8360   25.1422 O   0  0  0  0  0  0  0  0  0  0  0  0
  -28.5626  -26.0512   20.3239 O   0  0  0  0  0  0  0  0  0  0  0  0
  -29.0555  -35.8773   24.3146 O   0  0  0  0  0  0  0  0  0  0  0  0
  -31.5440  -14.7348   19.9017 O   0  0  0  0  0  0  0  0  0  1  0  0
  -26.2031  -40.4352   25.5366 F   0  0  0  0  0  0  0  0  0  0  0  0
  -29.4848  -37.2250   26.6899 F   0  0  0  0  0  0  0  0  0  0  0  0
  1  2  1  0  0  0  0
  1  7  2  0  0  0  0
  2  8  2  0  0  0  0
  3 12  2  0  0  0  0
  3 19  1  0  0  0  0
  4 13  1  0  0  0  0
  4 19  2  0  0  0  0
  5 10  2  0  0  0  0
  5 20  1  0  0  0  0
  6 11  1  0  0  0  0
  6 20  2  0  0  0  0
  7 22  1  0  0  0  0
  8 24  1  0  0  0  0
  9 14  2  0  0  0  0
  9 23  1  0  0  0  0
 10 26  1  0  0  0  0
 11 26  2  0  0  0  0
 12 27  1  0  0  0  0
 13 27  2  0  0  0  0
 14 28  1  0  0  0  0
 15 16  2  0  0  0  0
 15 29  1  0  0  0  0
 16 30  1  0  0  0  0
 17 25  1  0  0  0  0
 17 28  2  0  0  0  0
 18 30  2  0  0  0  0
 18 31  1  0  0  0  0
 19 32  1  0  0  0  0
 20 36  1  0  0  0  0
 21 32  1  0  0  0  0
 21 33  2  0  0  0  0
 21 37  1  0  0  0  0
 22 24  2  0  0  0  0
 22 42  1  0  0  0  0
 23 25  2  0  0  0  0
 23 43  1  0  0  0  0
 24 53  1  0  0  0  0
 25 44  1  0  0  0  0
 26 68  1  0  0  0  0
 27 85  1  0  0  0  0
 28 86  1  0  0  0  0
 29 31  2  0  0  0  0
 29 85  1  0  0  0  0
 30 87  1  0  0  0  0
 31 88  1  0  0  0  0
 32 65  2  0  0  0  0
 33 66  1  0  0  0  0
 33 71  1  0  0  0  0
 34 45  1  0  0  0  0
 34 67  1  0  0  0  0
 34 78  2  0  0  0  0
 35 54  1  0  0  0  0
 35 68  1  0  0  0  0
 35 79  2  0  0  0  0
 36 73  1  0  0  0  0
 36 76  2  0  0  0  0
 37 72  1  0  0  0  0
 37 80  2  0  0  0  0
 38 55  1  0  0  0  0
 38 74  1  0  0  0  0
 38 81  2  0  0  0  0
 39 62  1  0  0  0  0
 39 69  1  0  0  0  0
 39 82  2  0  0  0  0
 40 63  1  0  0  0  0
 40 75  1  0  0  0  0
 40 83  2  0  0  0  0
 41 70  1  0  0  0  0
 41 73  1  0  0  0  0
 41 84  2  0  0  0  0
 42 46  1  0  0  0  0
 43 55  1  0  0  0  0
 44 69  1  0  0  0  0
 45 68  1  0  0  0  0
 46 48  1  0  0  0  0
 47 49  1  0  0  0  0
 47 50  1  0  0  0  0
 48 53  1  0  0  0  0
 49 56  1  0  0  0  0
 50 70  1  0  0  0  0
 51 54  1  0  0  0  0
 51 67  1  0  0  0  0
 52 56  1  0  0  0  0
 52 70  1  0  0  0  0
 53 74  1  0  0  0  0
 54 86  1  0  0  0  0
 55 69  1  0  0  0  0
 56 66  1  0  0  0  0
 57 63  1  0  0  0  0
 58 64  1  0  0  0  0
 59 64  1  0  0  0  0
 60 64  1  0  0  0  0
 61 77  1  0  0  0  0
 62 64  1  0  0  0  0
 62 75  1  0  0  0  0
 63 77  1  0  0  0  0
 65 66  1  0  0  0  0
M  CHG  2  76   1  77   1
M  ISO  4  41 100  54 101  73 100  86 101
M  END
> <Batch ID>
0086

> <Smiles>
CNC(C)C(=O)NC(C(=O)N1Cc2cc([101O:1][101CH:1]3CNC(=O)CN(c4ccc(C(N)=[100N:0][100C:0](=O)N5CCCC(n6nc(-c7ccc(Oc8ccc(F)cc8F)cc7)c(C(N)=O)c6N)C5)cc4)C3=O)ccc2CC1C(=O)NC1CCCc2ccccc21)C(C)(C)C

> <Shape>
0.256

> <Color>
0.079

> <Negative vol penalty>
0.000

$$$$

  -OEChem-04052300173D

 84 93  0     1  0  0  0  0  0999 V2000
  -30.0773  -33.9123   25.3837 C   0  0  0  0  0  0  0  0  0  0  0  0
  -30.0472  -32.6979   24.7057 C   0  0  0  0  0  0  0  0  0  0  0  0
  -24.6619   -9.2272   21.9585 C   0  0  0  0  0  0  0  0  0  0  0  0
  -23.2809  -10.0417   20.1511 C   0  0  0  0  0  0  0  0  0  0  0  0
  -28.9131  -34.4149   25.9633 C   0  0  0  0  0  0  0  0  0  0  0  0
  -28.8530  -31.9847   24.6080 C   0  0  0  0  0  0  0  0  0  0  0  0
  -26.9877  -28.5573   19.8878 C   0  0  0  0  0  0  0  0  0  0  0  0
  -23.5441   -8.6346   22.5456 C   0  0  0  0  0  0  0  0  0  0  0  0
  -22.1630   -9.4490   20.7383 C   0  0  0  0  0  0  0  0  0  0  0  0
  -27.0252  -27.1835   19.6536 C   0  0  0  0  0  0  0  0  0  0  0  0
  -21.6860   -5.8436   22.1087 C   0  0  0  0  0  0  0  0  0  0  0  0
  -21.8188   -4.5393   22.5849 C   0  0  0  0  0  0  0  0  0  0  0  0
  -24.7577  -26.9912   20.4542 C   0  0  0  0  0  0  0  0  0  0  0  0
  -25.5583  -19.0229   18.1665 C   0  0  0  0  0  0  0  0  0  0  0  0
  -23.7925  -19.6219   16.6303 C   0  0  0  0  0  0  0  0  0  0  0  0
  -24.5461  -17.3307   16.7705 C   0  0  0  0  0  0  0  0  0  0  0  0
  -21.2508   -5.2935   24.8088 C   0  0  0  0  0  0  0  0  0  0  0  0
  -24.5304   -9.9308   20.7612 C   0  0  0  0  0  0  0  0  0  0  0  0
  -26.5635   -9.9626   19.2208 C   0  0  0  0  0  0  0  0  0  0  0  0
  -27.7019  -33.7122   25.8643 C   0  0  0  0  0  0  0  0  0  0  0  0
  -25.8368  -29.1578   20.4181 C   0  0  0  0  0  0  0  0  0  0  0  0
  -27.6717  -32.4777   25.1879 C   0  0  0  0  0  0  0  0  0  0  0  0
  -24.7073  -28.3733   20.6919 C   0  0  0  0  0  0  0  0  0  0  0  0
  -24.7186  -19.9862   17.6077 C   0  0  0  0  0  0  0  0  0  0  0  0
  -25.4721  -17.6951   17.7479 C   0  0  0  0  0  0  0  0  0  0  0  0
  -22.2946   -8.7455   21.9356 C   0  0  0  0  0  0  0  0  0  0  0  0
  -25.9111  -26.3997   19.9395 C   0  0  0  0  0  0  0  0  0  0  0  0
  -21.3358   -6.8729   22.9826 C   0  0  0  0  0  0  0  0  0  0  0  0
  -21.6011   -4.2642   23.9350 C   0  0  0  0  0  0  0  0  0  0  0  0
  -23.7063  -18.2941   16.2117 C   0  0  0  0  0  0  0  0  0  0  0  0
  -21.1181   -6.5978   24.3326 C   0  0  0  0  0  0  0  0  0  0  0  0
  -25.6846  -10.5437   20.1545 C   0  0  0  0  0  0  0  0  0  0  0  0
  -27.4854  -10.9464   18.9587 C   0  0  0  0  0  0  0  0  0  0  0  0
  -24.9789  -23.2206   18.5373 C   0  0  0  0  0  0  0  0  0  0  0  0
  -24.1292  -22.4156   17.6589 C   0  0  0  0  0  0  0  0  0  0  0  0
  -25.0376  -24.5307   18.8376 C   0  0  0  0  0  0  0  0  0  1  0  0
  -26.5480   -8.6509   18.6422 C   0  0  0  0  0  0  0  0  0  0  0  0
  -25.1681  -30.7666   23.0768 C   0  0  0  0  0  0  0  0  0  0  0  0
  -22.2917  -31.1842   21.6365 C   0  0  0  0  0  0  0  0  0  0  0  0
  -20.0051  -30.0780   19.3573 C   0  0  0  0  0  0  0  0  0  0  0  0
  -27.2991  -16.9095   19.2943 C   0  0  0  0  0  0  0  0  0  0  0  0
  -26.4797  -34.2725   26.5476 C   0  0  0  0  0  0  0  0  0  0  0  0
  -25.8031  -30.6451   20.6400 C   0  0  0  0  0  0  0  0  0  0  0  0
  -23.4402  -28.9725   21.2432 C   0  0  0  0  0  0  0  0  0  0  0  0
  -25.7211  -21.9627   18.9266 C   0  0  0  0  0  0  0  0  0  0  0  0
  -25.1738  -33.6373   26.0770 C   0  0  0  0  0  0  0  0  0  0  0  0
  -29.5774  -14.7521   20.9773 C   0  0  0  0  0  0  0  0  0  0  0  0
  -25.3047  -32.1181   26.0326 C   0  0  0  0  0  0  0  0  0  0  0  0
  -28.9206  -13.3742   20.8670 C   0  0  0  0  0  0  0  0  0  0  0  0
  -28.5431  -15.8594   21.1718 C   0  0  0  0  0  0  0  0  0  0  0  0
  -26.8076  -14.5054   20.0654 C   0  0  0  0  0  0  0  0  0  0  0  0
  -26.3902  -31.6867   25.0391 C   0  0  1  0  0  0  0  0  0  0  0  0
  -24.7567  -31.0729   21.6644 C   0  0  1  0  0  0  0  0  0  0  0  0
  -27.8050  -13.3651   19.8036 C   0  0  2  0  0  0  0  0  0  0  0  0
  -17.7332  -30.6053   18.4311 C   0  0  0  0  0  0  0  0  0  0  0  0
  -21.0034  -30.0644   24.1656 C   0  0  0  0  0  0  0  0  0  0  0  0
  -18.8948  -29.7274   22.8585 C   0  0  0  0  0  0  0  0  0  0  0  0
  -19.8137  -32.0256   23.1693 C   0  0  0  0  0  0  0  0  0  0  0  0
  -21.0793  -30.4587   16.6260 C   0  0  0  0  0  0  0  0  0  0  0  0
  -20.9893  -30.4213   21.6085 C   0  0  1  0  0  0  0  0  0  0  0  0
  -19.2324  -30.8049   18.2715 C   0  0  2  0  0  0  0  0  0  0  0  0
  -20.1997  -30.5478   22.9419 C   0  0  0  0  0  0  0  0  0  0  0  0
  -26.0183  -11.7992   20.4647 N   0  0  0  0  0  0  0  0  0  0  0  0
  -27.1172  -12.0152   19.7218 N   0  0  0  0  0  0  0  0  0  0  0  0
  -24.8034  -21.2959   18.0200 N   0  0  0  0  0  0  0  0  0  0  0  0
  -23.4588  -30.4302   21.4489 N   0  0  0  0  0  0  0  0  0  0  0  0
  -27.5204  -15.7911   20.1256 N   0  0  0  0  0  0  0  0  0  0  0  0
  -28.5670  -10.9929   18.1522 N   0  0  0  0  0  0  0  0  0  0  0  0
  -25.5302   -7.7652   19.0218 N   0  0  0  0  0  0  0  0  0  0  0  0
  -26.3253  -16.7162   18.3150 N   0  0  0  0  0  0  0  0  0  0  0  0
  -25.8962  -31.7734   23.6816 N   0  0  0  0  0  0  0  0  0  0  0  0
  -20.2627  -30.8970   20.4363 N   0  0  0  0  0  0  0  0  0  0  0  0
  -19.6328  -30.3032   16.9265 N   0  3  0  0  0  0  0  0  0  0  0  0
  -23.2079  -22.6485   16.9043 O   0  0  0  0  0  0  0  0  0  0  0  0
  -27.4205   -8.2697   17.8255 O   0  0  0  0  0  0  0  0  0  0  0  0
  -24.8474  -29.6968   23.5810 O   0  0  0  0  0  0  0  0  0  0  0  0
  -22.2737  -32.4052   21.8110 O   0  0  0  0  0  0  0  0  0  0  0  0
  -20.3429  -28.9003   19.2598 O   0  0  0  0  0  0  0  0  0  0  0  0
  -27.9462  -17.9519   19.4229 O   0  0  0  0  0  0  0  0  0  0  0  0
  -21.2036   -8.1671   22.5081 O   0  0  0  0  0  0  0  0  0  0  0  0
  -25.9452  -25.0584   19.7125 O   0  0  0  0  0  0  0  0  0  1  0  0
  -21.7271   -3.0114   24.3918 F   0  0  0  0  0  0  0  0  0  0  0  0
  -22.8176  -17.9440   15.2726 F   0  0  0  0  0  0  0  0  0  0  0  0
  -20.7802   -7.5823   25.1767 F   0  0  0  0  0  0  0  0  0  0  0  0
  1  2  1  0  0  0  0
  1  5  2  0  0  0  0
  2  6  2  0  0  0  0
  3  8  2  0  0  0  0
  3 18  1  0  0  0  0
  4  9  1  0  0  0  0
  4 18  2  0  0  0  0
  5 20  1  0  0  0  0
  6 22  1  0  0  0  0
  7 10  2  0  0  0  0
  7 21  1  0  0  0  0
  8 26  1  0  0  0  0
  9 26  2  0  0  0  0
 10 27  1  0  0  0  0
 11 12  2  0  0  0  0
 11 28  1  0  0  0  0
 12 29  1  0  0  0  0
 13 23  1  0  0  0  0
 13 27  2  0  0  0  0
 14 24  2  0  0  0  0
 14 25  1  0  0  0  0
 15 24  1  0  0  0  0
 15 30  2  0  0  0  0
 16 25  2  0  0  0  0
 16 30  1  0  0  0  0
 17 29  2  0  0  0  0
 17 31  1  0  0  0  0
 18 32  1  0  0  0  0
 19 32  1  0  0  0  0
 19 33  2  0  0  0  0
 19 37  1  0  0  0  0
 20 22  2  0  0  0  0
 20 42  1  0  0  0  0
 21 23  2  0  0  0  0
 21 43  1  0  0  0  0
 22 52  1  0  0  0  0
 23 44  1  0  0  0  0
 24 65  1  0  0  0  0
 25 70  1  0  0  0  0
 26 80  1  0  0  0  0
 27 81  1  0  0  0  0
 28 31  2  0  0  0  0
 28 80  1  0  0  0  0
 29 82  1  0  0  0  0
 30 83  1  0  0  0  0
 31 84  1  0  0  0  0
 32 63  2  0  0  0  0
 33 64  1  0  0  0  0
 33 68  1  0  0  0  0
 34 35  1  0  0  0  0
 34 36  2  0  0  0  0
 34 45  1  0  0  0  0
 35 65  1  0  0  0  0
 35 74  2  0  0  0  0
 36 81  1  0  0  0  0
 37 69  1  0  0  0  0
 37 75  2  0  0  0  0
 38 53  1  0  0  0  0
 38 71  1  0  0  0  0
 38 76  2  0  0  0  0
 39 60  1  0  0  0  0
 39 66  1  0  0  0  0
 39 77  2  0  0  0  0
 40 61  1  0  0  0  0
 40 72  1  0  0  0  0
 40 78  2  0  0  0  0
 41 67  1  0  0  0  0
 41 70  1  0  0  0  0
 41 79  2  0  0  0  0
 42 46  1  0  0  0  0
 43 53  1  0  0  0  0
 44 66  1  0  0  0  0
 45 65  1  0  0  0  0
 46 48  1  0  0  0  0
 47 49  1  0  0  0  0
 47 50  1  0  0  0  0
 48 52  1  0  0  0  0
 49 54  1  0  0  0  0
 50 67  1  0  0  0  0
 51 54  1  0  0  0  0
 51 67  1  0  0  0  0
 52 71  1  0  0  0  0
 53 66  1  0  0  0  0
 54 64  1  0  0  0  0
 55 61  1  0  0  0  0
 56 62  1  0  0  0  0
 57 62  1  0  0  0  0
 58 62  1  0  0  0  0
 59 73  1  0  0  0  0
 60 62  1  0  0  0  0
 60 72  1  0  0  0  0
 61 73  1  0  0  0  0
 63 64  1  0  0  0  0
M  CHG  1  73   1
M  ISO  4  36 101  41 100  70 100  81 101
M  END
> <Batch ID>
0086

> <Smiles>
CNC(C)C(=O)NC(C(=O)N1Cc2cc([101O:1][101CH:1]=C3CN(c4cc(F)cc([100NH:0][100C:0](=O)N5CCCC(n6nc(-c7ccc(Oc8ccc(F)cc8F)cc7)c(C(N)=O)c6N)C5)c4)C3=O)ccc2CC1C(=O)NC1CCCc2ccccc21)C(C)(C)C

> <Shape>
0.267

> <Color>
0.087

> <Negative vol penalty>
0.000

$$$$

  -OEChem-04052300173D

 83 91  0     1  0  0  0  0  0999 V2000
  -28.9453  -24.6946   24.4249 C   0  0  0  0  0  0  0  0  0  0  0  0
  -27.6475  -24.4368   23.9950 C   0  0  0  0  0  0  0  0  0  0  0  0
  -17.3918  -27.1557   23.0207 C   0  0  0  0  0  0  0  0  0  0  0  0
  -27.6648  -26.7943   18.9783 C   0  0  0  0  0  0  0  0  0  0  0  0
  -28.7739  -27.8481   20.8482 C   0  0  0  0  0  0  0  0  0  0  0  0
  -17.2464  -26.1638   22.0509 C   0  0  0  0  0  0  0  0  0  0  0  0
  -30.0122  -23.9760   23.8872 C   0  0  0  0  0  0  0  0  0  0  0  0
  -27.4161  -23.4609   23.0262 C   0  0  0  0  0  0  0  0  0  0  0  0
  -23.5010  -20.4646   24.1834 C   0  0  0  0  0  0  0  0  0  0  0  0
  -18.6635  -27.5084   23.4724 C   0  0  0  0  0  0  0  0  0  0  0  0
  -28.7681  -25.9612   18.7934 C   0  0  0  0  0  0  0  0  0  0  0  0
  -29.8772  -27.0149   20.6633 C   0  0  0  0  0  0  0  0  0  0  0  0
  -22.2222  -20.9749   23.9644 C   0  0  0  0  0  0  0  0  0  0  0  0
  -31.8495  -26.1769   17.4212 C   0  0  0  0  0  0  0  0  0  0  0  0
  -32.3144  -25.9980   16.1184 C   0  0  0  0  0  0  0  0  0  0  0  0
  -19.6444  -25.8772   21.9845 C   0  0  0  0  0  0  0  0  0  0  0  0
  -22.0864  -19.7328   21.9010 C   0  0  0  0  0  0  0  0  0  0  0  0
  -31.9063  -23.6235   16.2988 C   0  0  0  0  0  0  0  0  0  0  0  0
  -27.6677  -27.7378   20.0056 C   0  0  0  0  0  0  0  0  0  0  0  0
  -18.3726  -25.5245   21.5328 C   0  0  0  0  0  0  0  0  0  0  0  0
  -25.9922  -29.5168   19.2737 C   0  0  0  0  0  0  0  0  0  0  0  0
  -29.7928  -22.9841   22.9184 C   0  0  0  0  0  0  0  0  0  0  0  0
  -24.0875  -19.5916   23.2558 C   0  0  0  0  0  0  0  0  0  0  0  0
  -28.4813  -22.7293   22.4741 C   0  0  0  0  0  0  0  0  0  0  0  0
  -23.3718  -19.2108   22.1117 C   0  0  0  0  0  0  0  0  0  0  0  0
  -19.7898  -26.8691   22.9543 C   0  0  0  0  0  0  0  0  0  0  0  0
  -29.8743  -26.0714   19.6359 C   0  0  0  0  0  0  0  0  0  0  0  0
  -21.5158  -20.6113   22.8217 C   0  0  0  0  0  0  0  0  0  0  0  0
  -31.4130  -25.0791   18.1629 C   0  0  0  0  0  0  0  0  0  0  0  0
  -32.3428  -24.7213   15.5571 C   0  0  0  0  0  0  0  0  0  0  0  0
  -31.4414  -23.8024   17.6016 C   0  0  0  0  0  0  0  0  0  0  0  0
  -26.5285  -28.5992   20.1968 C   0  0  0  0  0  0  0  0  0  0  0  0
  -24.9261  -30.0811   19.9305 C   0  0  0  0  0  0  0  0  0  0  0  0
  -18.9072  -22.4294   21.1986 C   0  0  0  0  0  0  0  0  0  0  0  0
  -18.2156  -24.4639   20.4956 C   0  0  0  0  0  0  0  0  0  0  0  0
  -26.4194  -29.8308   17.9415 C   0  0  0  0  0  0  0  0  0  0  0  0
  -26.6754  -19.6855   21.4125 C   0  0  0  0  0  0  0  0  0  0  0  0
  -25.8363  -16.6234   20.7480 C   0  0  0  0  0  0  0  0  0  0  0  0
  -23.3793  -14.2594   20.6014 C   0  0  0  0  0  0  0  0  0  0  0  0
  -21.4011  -28.1908   24.3697 C   0  0  0  0  0  0  0  0  0  0  0  0
  -30.9826  -22.2663   22.3320 C   0  0  0  0  0  0  0  0  0  0  0  0
  -25.4572  -19.0289   23.5198 C   0  0  0  0  0  0  0  0  0  0  0  0
  -23.9485  -18.2608   21.0952 C   0  0  0  0  0  0  0  0  0  0  0  0
  -30.6142  -20.9888   21.5820 C   0  0  0  0  0  0  0  0  0  0  0  0
  -23.3812  -31.1497   24.3356 C   0  0  0  0  0  0  0  0  0  0  0  0
  -29.4310  -21.2380   20.6520 C   0  0  0  0  0  0  0  0  0  0  0  0
  -24.3602  -30.9176   23.1825 C   0  0  0  0  0  0  0  0  0  0  0  0
  -23.0904  -29.8600   25.1011 C   0  0  0  0  0  0  0  0  0  0  0  0
  -23.6269  -28.4999   23.1183 C   0  0  0  0  0  0  0  0  0  0  0  0
  -28.1874  -21.6613   21.4430 C   0  0  1  0  0  0  0  0  0  0  0  0
  -26.1613  -18.5514   22.2535 C   0  0  1  0  0  0  0  0  0  0  0  0
  -23.9003  -29.7577   22.2776 C   0  0  2  0  0  0  0  0  0  0  0  0
  -22.9902  -11.8582   19.9844 C   0  0  0  0  0  0  0  0  0  0  0  0
  -25.9381  -17.3692   17.7911 C   0  0  0  0  0  0  0  0  0  0  0  0
  -24.6506  -15.2808   17.2917 C   0  0  0  0  0  0  0  0  0  0  0  0
  -26.9108  -15.1307   18.3364 C   0  0  0  0  0  0  0  0  0  0  0  0
  -16.9656  -23.5609   18.5355 C   0  0  0  0  0  0  0  0  0  0  0  0
  -22.5128  -13.5735   23.3469 C   0  0  0  0  0  0  0  0  0  0  0  0
  -19.8612  -21.2745   21.2475 C   0  0  0  0  0  0  0  0  0  1  0  0
  -24.9596  -15.9549   19.7168 C   0  0  1  0  0  0  0  0  0  0  0  0
  -23.3267  -12.8286   21.1060 C   0  0  2  0  0  0  0  0  0  0  0  0
  -25.6044  -15.9533   18.3020 C   0  0  0  0  0  0  0  0  0  0  0  0
  -25.8585  -28.5787   21.3521 N   0  0  0  0  0  0  0  0  0  0  0  0
  -19.1632  -23.4660   20.4683 N   0  0  0  0  0  0  0  0  0  0  0  0
  -24.8903  -29.4905   21.1593 N   0  0  0  0  0  0  0  0  0  0  0  0
  -25.2935  -17.7425   21.3951 N   0  0  0  0  0  0  0  0  0  0  0  0
  -22.6559  -28.8076   24.1800 N   0  0  0  0  0  0  0  0  0  0  0  0
  -24.0252  -31.0200   19.5710 N   0  0  0  0  0  0  0  0  0  0  0  0
  -27.3580  -30.8566   17.7653 N   0  0  0  0  0  0  0  0  0  0  0  0
  -21.0816  -27.2278   23.4131 N   0  0  0  0  0  0  0  0  0  0  0  0
  -27.5695  -20.5110   22.0671 N   0  0  0  0  0  0  0  0  0  0  0  0
  -24.6578  -14.6258   20.2373 N   0  0  0  0  0  0  0  0  0  0  0  0
  -17.2537  -24.5061   19.6318 N   0  3  0  0  0  0  0  0  0  0  0  0
  -22.2931  -12.6926   22.1709 N   0  3  0  0  0  0  0  0  0  0  0  0
  -25.9695  -29.2309   16.9360 O   0  0  0  0  0  0  0  0  0  0  0  0
  -26.2905  -19.8021   20.2549 O   0  0  0  0  0  0  0  0  0  0  0  0
  -26.9585  -16.1650   20.9763 O   0  0  0  0  0  0  0  0  0  0  0  0
  -22.3851  -14.9786   20.5332 O   0  0  0  0  0  0  0  0  0  0  0  0
  -20.6526  -28.5137   25.2956 O   0  0  0  0  0  0  0  0  0  0  0  0
  -30.9509  -25.2584   19.4559 O   0  0  0  0  0  0  0  0  0  0  0  0
  -20.2677  -21.1084   22.6052 O   0  0  0  0  0  0  0  0  0  1  0  0
  -32.7879  -24.5499   14.3054 F   0  0  0  0  0  0  0  0  0  0  0  0
  -31.0223  -22.7441   18.3088 F   0  0  0  0  0  0  0  0  0  0  0  0
  1  2  1  0  0  0  0
  1  7  2  0  0  0  0
  2  8  2  0  0  0  0
  3  6  2  0  0  0  0
  3 10  1  0  0  0  0
  4 11  2  0  0  0  0
  4 19  1  0  0  0  0
  5 12  1  0  0  0  0
  5 19  2  0  0  0  0
  6 20  1  0  0  0  0
  7 22  1  0  0  0  0
  8 24  1  0  0  0  0
  9 13  2  0  0  0  0
  9 23  1  0  0  0  0
 10 26  2  0  0  0  0
 11 27  1  0  0  0  0
 12 27  2  0  0  0  0
 13 28  1  0  0  0  0
 14 15  2  0  0  0  0
 14 29  1  0  0  0  0
 15 30  1  0  0  0  0
 16 20  2  0  0  0  0
 16 26  1  0  0  0  0
 17 25  1  0  0  0  0
 17 28  2  0  0  0  0
 18 30  2  0  0  0  0
 18 31  1  0  0  0  0
 19 32  1  0  0  0  0
 20 35  1  0  0  0  0
 21 32  1  0  0  0  0
 21 33  2  0  0  0  0
 21 36  1  0  0  0  0
 22 24  2  0  0  0  0
 22 41  1  0  0  0  0
 23 25  2  0  0  0  0
 23 42  1  0  0  0  0
 24 50  1  0  0  0  0
 25 43  1  0  0  0  0
 26 70  1  0  0  0  0
 27 80  1  0  0  0  0
 28 81  1  0  0  0  0
 29 31  2  0  0  0  0
 29 80  1  0  0  0  0
 30 82  1  0  0  0  0
 31 83  1  0  0  0  0
 32 63  2  0  0  0  0
 33 65  1  0  0  0  0
 33 68  1  0  0  0  0
 34 59  1  0  0  0  0
 34 64  2  0  0  0  0
 35 64  1  0  0  0  0
 35 73  2  0  0  0  0
 36 69  1  0  0  0  0
 36 75  2  0  0  0  0
 37 51  1  0  0  0  0
 37 71  1  0  0  0  0
 37 76  2  0  0  0  0
 38 60  1  0  0  0  0
 38 66  1  0  0  0  0
 38 77  2  0  0  0  0
 39 61  1  0  0  0  0
 39 72  1  0  0  0  0
 39 78  2  0  0  0  0
 40 67  1  0  0  0  0
 40 70  1  0  0  0  0
 40 79  2  0  0  0  0
 41 44  1  0  0  0  0
 42 51  1  0  0  0  0
 43 66  1  0  0  0  0
 44 46  1  0  0  0  0
 45 47  1  0  0  0  0
 45 48  1  0  0  0  0
 46 50  1  0  0  0  0
 47 52  1  0  0  0  0
 48 67  1  0  0  0  0
 49 52  1  0  0  0  0
 49 67  1  0  0  0  0
 50 71  1  0  0  0  0
 51 66  1  0  0  0  0
 52 65  1  0  0  0  0
 53 61  1  0  0  0  0
 54 62  1  0  0  0  0
 55 62  1  0  0  0  0
 56 62  1  0  0  0  0
 57 73  1  0  0  0  0
 58 74  1  0  0  0  0
 59 81  1  0  0  0  0
 60 62  1  0  0  0  0
 60 72  1  0  0  0  0
 61 74  1  0  0  0  0
 63 65  1  0  0  0  0
M  CHG  2  73   1  74   1
M  ISO  4  40 100  59 101  70 100  81 101
M  END
> <Batch ID>
0086

> <Smiles>
CNC(=NC=[101CH:1][101O:1]c1ccc2c(c1)CN(C(=O)C(NC(=O)C(C)NC)C(C)(C)C)C(C(=O)NC1CCCc3ccccc31)C2)c1cccc([100NH:0][100C:0](=O)N2CCCC(n3nc(-c4ccc(Oc5ccc(F)cc5F)cc4)c(C(N)=O)c3N)C2)c1

> <Shape>
0.203

> <Color>
0.070

> <Negative vol penalty>
0.000

$$$$

  -OEChem-04052300173D

 85 94  0     1  0  0  0  0  0999 V2000
  -26.7702  -37.7433   21.8223 C   0  0  0  0  0  0  0  0  0  0  0  0
  -27.4128  -36.5548   21.4908 C   0  0  0  0  0  0  0  0  0  0  0  0
  -23.6963   -8.8989   20.1839 C   0  0  0  0  0  0  0  0  0  0  0  0
  -23.3180  -10.5334   21.9225 C   0  0  0  0  0  0  0  0  0  0  0  0
  -25.6767  -37.7255   22.6871 C   0  0  0  0  0  0  0  0  0  0  0  0
  -26.9629  -35.3478   22.0249 C   0  0  0  0  0  0  0  0  0  0  0  0
  -26.9681  -29.8759   19.2747 C   0  0  0  0  0  0  0  0  0  0  0  0
  -27.9261  -20.0592   19.2877 C   0  0  0  0  0  0  0  0  0  0  0  0
  -27.8668  -18.6756   19.1218 C   0  0  0  0  0  0  0  0  0  0  0  0
  -22.9821   -7.9523   20.9184 C   0  0  0  0  0  0  0  0  0  0  0  0
  -22.6037   -9.5868   22.6569 C   0  0  0  0  0  0  0  0  0  0  0  0
  -27.8394  -28.7899   19.3483 C   0  0  0  0  0  0  0  0  0  0  0  0
  -19.7429   -7.2062   21.5376 C   0  0  0  0  0  0  0  0  0  0  0  0
  -18.8086   -6.4267   20.8556 C   0  0  0  0  0  0  0  0  0  0  0  0
  -26.4065  -27.7594   20.9927 C   0  0  0  0  0  0  0  0  0  0  0  0
  -30.1188  -18.4768   19.9738 C   0  0  0  0  0  0  0  0  0  0  0  0
  -20.0133   -4.4300   21.4875 C   0  0  0  0  0  0  0  0  0  0  0  0
  -23.8643  -10.1895   20.6860 C   0  0  0  0  0  0  0  0  0  0  0  0
  -24.0905  -12.0657   18.9725 C   0  0  0  0  0  0  0  0  0  0  0  0
  -25.2072  -36.5166   23.2244 C   0  0  0  0  0  0  0  0  0  0  0  0
  -25.8131  -29.9168   20.0690 C   0  0  0  0  0  0  0  0  0  0  0  0
  -25.8629  -35.3140   22.8988 C   0  0  0  0  0  0  0  0  0  0  0  0
  -25.5209  -28.8458   20.9255 C   0  0  0  0  0  0  0  0  0  0  0  0
  -29.0819  -20.6517   19.7966 C   0  0  0  0  0  0  0  0  0  0  0  0
  -28.9631  -17.8843   19.4648 C   0  0  0  0  0  0  0  0  0  0  0  0
  -22.4358   -8.2962   22.1549 C   0  0  0  0  0  0  0  0  0  0  0  0
  -27.5602  -27.7328   20.2094 C   0  0  0  0  0  0  0  0  0  0  0  0
  -20.8124   -6.5976   22.1945 C   0  0  0  0  0  0  0  0  0  0  0  0
  -18.9438   -5.0386   20.8305 C   0  0  0  0  0  0  0  0  0  0  0  0
  -30.1782  -19.8605   20.1397 C   0  0  0  0  0  0  0  0  0  0  0  0
  -20.9476   -5.2096   22.1694 C   0  0  0  0  0  0  0  0  0  0  0  0
  -24.6024  -11.1676   19.9280 C   0  0  0  0  0  0  0  0  0  0  0  0
  -25.1867  -12.7747   18.5457 C   0  0  0  0  0  0  0  0  0  0  0  0
  -28.6636  -24.3250   20.0085 C   0  0  0  0  0  0  0  0  0  0  0  0
  -28.1211  -22.9835   19.6651 C   0  0  0  0  0  0  0  0  0  0  0  0
  -27.9215  -25.4344   19.9703 C   0  0  0  0  0  0  0  0  0  1  0  0
  -22.7443  -12.2433   18.5119 C   0  0  0  0  0  0  0  0  0  0  0  0
  -24.7333  -31.8374   22.3600 C   0  0  0  0  0  0  0  0  0  0  0  0
  -22.0713  -30.0012   22.1060 C   0  0  0  0  0  0  0  0  0  0  0  0
  -20.6861  -27.0164   21.2011 C   0  0  0  0  0  0  0  0  0  0  0  0
  -29.9005  -15.5493   19.5869 C   0  0  0  0  0  0  0  0  0  0  0  0
  -24.0510  -36.5528   24.1922 C   0  0  0  0  0  0  0  0  0  0  0  0
  -24.8696  -31.0830   19.9583 C   0  0  0  0  0  0  0  0  0  0  0  0
  -24.2837  -28.8319   21.7843 C   0  0  0  0  0  0  0  0  0  0  0  0
  -30.0943  -24.2169   20.4052 C   0  0  0  0  0  0  0  0  0  0  0  0
  -23.4040  -35.1890   24.4195 C   0  0  0  0  0  0  0  0  0  0  0  0
  -30.1247  -12.0039   19.3479 C   0  0  0  0  0  0  0  0  0  0  0  0
  -24.4708  -34.1251   24.6578 C   0  0  0  0  0  0  0  0  0  0  0  0
  -28.6659  -11.5441   19.3989 C   0  0  0  0  0  0  0  0  0  0  0  0
  -30.2975  -22.7188   20.5612 C   0  0  0  0  0  0  0  0  0  0  0  0
  -30.3732  -13.2042   20.2596 C   0  0  0  0  0  0  0  0  0  0  0  0
  -28.0102  -13.8821   20.0995 C   0  0  0  0  0  0  0  0  0  0  0  0
  -25.3891  -33.9818   23.4381 C   0  0  1  0  0  0  0  0  0  0  0  0
  -23.9882  -31.2575   21.1912 C   0  0  1  0  0  0  0  0  0  0  0  0
  -27.6966  -12.7159   19.1480 C   0  0  2  0  0  0  0  0  0  0  0  0
  -18.4926  -25.7985   21.1466 C   0  0  0  0  0  0  0  0  0  0  0  0
  -22.2609  -29.5303   25.1147 C   0  0  0  0  0  0  0  0  0  0  0  0
  -20.6800  -27.6080   24.8430 C   0  0  0  0  0  0  0  0  0  0  0  0
  -19.9416  -29.9192   24.2637 C   0  0  0  0  0  0  0  0  0  0  0  0
  -20.7773  -26.7455   18.2553 C   0  0  0  0  0  0  0  0  0  0  0  0
  -21.5845  -28.7284   22.7555 C   0  0  1  0  0  0  0  0  0  0  0  0
  -19.4565  -26.6859   20.3744 C   0  0  2  0  0  0  0  0  0  0  0  0
  -21.1411  -28.9473   24.2296 C   0  0  0  0  0  0  0  0  0  0  0  0
  -25.9213  -11.2924   20.0983 N   0  0  0  0  0  0  0  0  0  0  0  0
  -26.2473  -12.2772   19.2440 N   0  0  0  0  0  0  0  0  0  0  0  0
  -29.1399  -22.0701   19.9655 N   0  0  0  0  0  0  0  0  0  0  0  0
  -23.3955  -29.9978   21.6451 N   0  0  0  0  0  0  0  0  0  0  0  0
  -29.4210  -14.2763   19.9616 N   0  0  0  0  0  0  0  0  0  0  0  0
  -25.3372  -13.7688   17.6448 N   0  0  0  0  0  0  0  0  0  0  0  0
  -21.7396  -11.4314   19.0555 N   0  0  0  0  0  0  0  0  0  0  0  0
  -28.9025  -16.4788   19.2962 N   0  0  0  0  0  0  0  0  0  0  0  0
  -24.7328  -33.2187   22.3982 N   0  0  0  0  0  0  0  0  0  0  0  0
  -20.5361  -28.2025   21.8880 N   0  0  0  0  0  0  0  0  0  0  0  0
  -19.8484  -25.9771   19.1235 N   0  3  0  0  0  0  0  0  0  0  0  0
  -26.9979  -22.8087   19.2228 O   0  0  0  0  0  0  0  0  0  0  0  0
  -22.4441  -13.0855   17.6321 O   0  0  0  0  0  0  0  0  0  0  0  0
  -25.2677  -31.0872   23.1683 O   0  0  0  0  0  0  0  0  0  0  0  0
  -21.3026  -30.9606   22.0046 O   0  0  0  0  0  0  0  0  0  0  0  0
  -21.6788  -26.2927   21.2369 O   0  0  0  0  0  0  0  0  0  0  0  0
  -31.1078  -15.7887   19.5018 O   0  0  0  0  0  0  0  0  0  0  0  0
  -21.7387   -7.3729   22.8718 O   0  0  0  0  0  0  0  0  0  0  0  0
  -28.4093  -26.6720   20.2836 O   0  0  0  0  0  0  0  0  0  1  0  0
  -18.0457   -4.2901   20.1769 F   0  0  0  0  0  0  0  0  0  0  0  0
  -31.2945  -20.4191   20.6291 F   0  0  0  0  0  0  0  0  0  0  0  0
  -21.9723   -4.6192   22.7997 F   0  0  0  0  0  0  0  0  0  0  0  0
  1  2  1  0  0  0  0
  1  5  2  0  0  0  0
  2  6  2  0  0  0  0
  3 10  2  0  0  0  0
  3 18  1  0  0  0  0
  4 11  1  0  0  0  0
  4 18  2  0  0  0  0
  5 20  1  0  0  0  0
  6 22  1  0  0  0  0
  7 12  2  0  0  0  0
  7 21  1  0  0  0  0
  8  9  2  0  0  0  0
  8 24  1  0  0  0  0
  9 25  1  0  0  0  0
 10 26  1  0  0  0  0
 11 26  2  0  0  0  0
 12 27  1  0  0  0  0
 13 14  2  0  0  0  0
 13 28  1  0  0  0  0
 14 29  1  0  0  0  0
 15 23  1  0  0  0  0
 15 27  2  0  0  0  0
 16 25  2  0  0  0  0
 16 30  1  0  0  0  0
 17 29  2  0  0  0  0
 17 31  1  0  0  0  0
 18 32  1  0  0  0  0
 19 32  1  0  0  0  0
 19 33  2  0  0  0  0
 19 37  1  0  0  0  0
 20 22  2  0  0  0  0
 20 42  1  0  0  0  0
 21 23  2  0  0  0  0
 21 43  1  0  0  0  0
 22 53  1  0  0  0  0
 23 44  1  0  0  0  0
 24 30  2  0  0  0  0
 24 66  1  0  0  0  0
 25 71  1  0  0  0  0
 26 81  1  0  0  0  0
 27 82  1  0  0  0  0
 28 31  2  0  0  0  0
 28 81  1  0  0  0  0
 29 83  1  0  0  0  0
 30 84  1  0  0  0  0
 31 85  1  0  0  0  0
 32 64  2  0  0  0  0
 33 65  1  0  0  0  0
 33 69  1  0  0  0  0
 34 35  1  0  0  0  0
 34 36  2  0  0  0  0
 34 45  1  0  0  0  0
 35 66  1  0  0  0  0
 35 75  2  0  0  0  0
 36 82  1  0  0  0  0
 37 70  1  0  0  0  0
 37 76  2  0  0  0  0
 38 54  1  0  0  0  0
 38 72  1  0  0  0  0
 38 77  2  0  0  0  0
 39 61  1  0  0  0  0
 39 67  1  0  0  0  0
 39 78  2  0  0  0  0
 40 62  1  0  0  0  0
 40 73  1  0  0  0  0
 40 79  2  0  0  0  0
 41 68  1  0  0  0  0
 41 71  1  0  0  0  0
 41 80  2  0  0  0  0
 42 46  1  0  0  0  0
 43 54  1  0  0  0  0
 44 67  1  0  0  0  0
 45 50  1  0  0  0  0
 46 48  1  0  0  0  0
 47 49  1  0  0  0  0
 47 51  1  0  0  0  0
 48 53  1  0  0  0  0
 49 55  1  0  0  0  0
 50 66  1  0  0  0  0
 51 68  1  0  0  0  0
 52 55  1  0  0  0  0
 52 68  1  0  0  0  0
 53 72  1  0  0  0  0
 54 67  1  0  0  0  0
 55 65  1  0  0  0  0
 56 62  1  0  0  0  0
 57 63  1  0  0  0  0
 58 63  1  0  0  0  0
 59 63  1  0  0  0  0
 60 74  1  0  0  0  0
 61 63  1  0  0  0  0
 61 73  1  0  0  0  0
 62 74  1  0  0  0  0
 64 65  1  0  0  0  0
M  CHG  1  74   1
M  ISO  4  36 101  41 100  71 100  82 101
M  END
> <Batch ID>
0086

> <Smiles>
CNC(C)C(=O)NC(C(=O)N1Cc2cc([101O:1][101CH:1]=C3CCN(c4ccc([100NH:0][100C:0](=O)N5CCCC(n6nc(-c7ccc(Oc8ccc(F)cc8F)cc7)c(C(N)=O)c6N)C5)cc4F)C3=O)ccc2CC1C(=O)NC1CCCc2ccccc21)C(C)(C)C

> <Shape>
0.353

> <Color>
0.108

> <Negative vol penalty>
0.000

$$$$

  -OEChem-04052300173D

 86 95  0     1  0  0  0  0  0999 V2000
  -29.9556  -35.7985   22.3027 C   0  0  0  0  0  0  0  0  0  0  0  0
  -29.9743  -34.7534   21.3847 C   0  0  0  0  0  0  0  0  0  0  0  0
  -23.0259   -9.9210   20.0404 C   0  0  0  0  0  0  0  0  0  0  0  0
  -23.7150  -10.0978   22.3493 C   0  0  0  0  0  0  0  0  0  0  0  0
  -29.2549  -17.0083   19.6466 C   0  0  0  0  0  0  0  0  0  0  0  0
  -28.7404  -17.8341   21.8581 C   0  0  0  0  0  0  0  0  0  0  0  0
  -29.4718  -35.5832   23.5925 C   0  0  0  0  0  0  0  0  0  0  0  0
  -29.5101  -33.4921   21.7562 C   0  0  0  0  0  0  0  0  0  0  0  0
  -26.1849  -27.7491   19.0584 C   0  0  0  0  0  0  0  0  0  0  0  0
  -28.5669  -18.0838   19.0849 C   0  0  0  0  0  0  0  0  0  0  0  0
  -28.0525  -18.9097   21.2963 C   0  0  0  0  0  0  0  0  0  0  0  0
  -22.2703   -8.7910   20.3525 C   0  0  0  0  0  0  0  0  0  0  0  0
  -22.9593   -8.9677   22.6614 C   0  0  0  0  0  0  0  0  0  0  0  0
  -26.3291  -26.3655   18.9662 C   0  0  0  0  0  0  0  0  0  0  0  0
  -23.2542   -5.6130   22.3623 C   0  0  0  0  0  0  0  0  0  0  0  0
  -23.8434   -4.6431   23.1734 C   0  0  0  0  0  0  0  0  0  0  0  0
  -25.4424  -26.1305   21.1973 C   0  0  0  0  0  0  0  0  0  0  0  0
  -25.7986  -21.2863   18.1758 C   0  0  0  0  0  0  0  0  0  0  0  0
  -22.0910   -4.9462   24.8088 C   0  0  0  0  0  0  0  0  0  0  0  0
  -23.7484  -10.5745   21.0388 C   0  0  0  0  0  0  0  0  0  0  0  0
  -29.3416  -16.8834   21.0332 C   0  0  0  0  0  0  0  0  0  0  0  0
  -24.1036  -13.0831   20.7417 C   0  0  0  0  0  0  0  0  0  0  0  0
  -28.9925  -34.3211   23.9771 C   0  0  0  0  0  0  0  0  0  0  0  0
  -25.6777  -28.3356   20.2269 C   0  0  0  0  0  0  0  0  0  0  0  0
  -29.0207  -33.2594   23.0527 C   0  0  0  0  0  0  0  0  0  0  0  0
  -25.2904  -27.5216   21.3009 C   0  0  0  0  0  0  0  0  0  0  0  0
  -26.6815  -22.1877   18.8200 C   0  0  0  0  0  0  0  0  0  0  0  0
  -27.9658  -19.0346   19.9098 C   0  0  0  0  0  0  0  0  0  0  0  0
  -22.2369   -8.3143   21.6629 C   0  0  0  0  0  0  0  0  0  0  0  0
  -25.9605  -25.5561   20.0369 C   0  0  0  0  0  0  0  0  0  0  0  0
  -22.0835   -6.2496   22.7745 C   0  0  0  0  0  0  0  0  0  0  0  0
  -23.2618   -4.3097   24.3966 C   0  0  0  0  0  0  0  0  0  0  0  0
  -21.5019   -5.9162   23.9977 C   0  0  0  0  0  0  0  0  0  0  0  0
  -24.5297  -11.7416   20.7170 C   0  0  0  0  0  0  0  0  0  0  0  0
  -27.5859  -21.4359   19.5370 C   0  0  0  0  0  0  0  0  0  0  0  0
  -25.2093  -13.8016   20.3575 C   0  0  0  0  0  0  0  0  0  0  0  0
  -26.1902  -20.0110   18.5189 C   0  0  0  0  0  0  0  0  0  0  0  0
  -30.0590  -15.7624   21.6192 C   0  0  0  0  0  0  0  0  0  0  0  0
  -22.8229  -13.6308   21.0815 C   0  0  0  0  0  0  0  0  0  0  0  0
  -30.7090  -14.7356   20.7728 C   0  0  0  0  0  0  0  0  0  0  0  0
  -26.8093  -30.3752   22.3863 C   0  0  0  0  0  0  0  0  0  0  0  0
  -23.7801  -30.2316   23.5377 C   0  0  0  0  0  0  0  0  0  0  0  0
  -20.8577  -28.4878   23.7939 C   0  0  0  0  0  0  0  0  0  0  0  0
  -28.5231  -34.1245   25.3968 C   0  0  0  0  0  0  0  0  0  0  0  0
  -25.5034  -29.8278   20.3004 C   0  0  0  0  0  0  0  0  0  0  0  0
  -24.7216  -28.1004   22.5697 C   0  0  0  0  0  0  0  0  0  0  0  0
  -27.7014  -32.8536   25.5963 C   0  0  0  0  0  0  0  0  0  0  0  0
  -29.6083  -12.2946   18.3880 C   0  0  0  0  0  0  0  0  0  0  0  0
  -28.3831  -31.6662   24.9238 C   0  0  0  0  0  0  0  0  0  0  0  0
  -28.1658  -12.0154   18.8088 C   0  0  0  0  0  0  0  0  0  0  0  0
  -30.4960  -12.5827   19.5945 C   0  0  0  0  0  0  0  0  0  0  0  0
  -28.5502  -13.4207   20.8831 C   0  0  0  0  0  0  0  0  0  0  0  0
  -28.5028  -31.8832   23.4105 C   0  0  1  0  0  0  0  0  0  0  0  0
  -25.4570  -30.3541   21.7316 C   0  0  1  0  0  0  0  0  0  0  0  0
  -27.6175  -13.1525   19.6892 C   0  0  2  0  0  0  0  0  0  0  0  0
  -28.7162  -21.8751   20.3860 C   0  0  0  0  0  0  0  0  0  0  0  0
  -18.5757  -28.6093   24.8308 C   0  0  0  0  0  0  0  0  0  0  0  0
  -24.9792  -29.5267   26.2535 C   0  0  0  0  0  0  0  0  0  0  0  0
  -22.7126  -28.7439   26.9731 C   0  0  0  0  0  0  0  0  0  0  0  0
  -23.0637  -31.1320   26.3438 C   0  0  0  0  0  0  0  0  0  0  0  0
  -19.5260  -28.4116   21.1520 C   0  0  0  0  0  0  0  0  0  0  0  0
  -26.6322  -23.6847   18.7320 C   0  0  0  0  0  0  0  0  0  1  0  0
  -23.0566  -29.3626   24.5380 C   0  0  1  0  0  0  0  0  0  0  0  0
  -19.4126  -28.9093   23.5970 C   0  0  2  0  0  0  0  0  0  0  0  0
  -23.4655  -29.6802   26.0041 C   0  0  0  0  0  0  0  0  0  0  0  0
  -25.8064  -11.6128   20.3464 N   0  0  0  0  0  0  0  0  0  0  0  0
  -30.1816  -15.5842   22.9070 N   0  0  0  0  0  0  0  0  0  0  0  0
  -27.2774  -20.1142   19.3468 N   0  0  0  0  0  0  0  0  0  0  0  0
  -26.1921  -12.8826   20.1345 N   0  0  0  0  0  0  0  0  0  0  0  0
  -29.9286  -13.6411   20.4275 N   0  0  0  0  0  0  0  0  0  0  0  0
  -24.5765  -29.5653   22.5956 N   0  0  0  0  0  0  0  0  0  0  0  0
  -25.4271  -15.1236   20.1921 N   0  0  0  0  0  0  0  0  0  0  0  0
  -21.7975  -12.7509   21.4541 N   0  0  0  0  0  0  0  0  0  0  0  0
  -27.2327  -31.6357   22.7624 N   0  0  0  0  0  0  0  0  0  0  0  0
  -21.6326  -29.5260   24.2661 N   0  0  0  0  0  0  0  0  0  0  0  0
  -18.8160  -28.1877   22.4376 N   0  3  0  0  0  0  0  0  0  0  0  0
  -22.5898  -14.8626   21.0397 O   0  0  0  0  0  0  0  0  0  0  0  0
  -31.8722  -14.9634   20.4670 O   0  0  0  0  0  0  0  0  0  0  0  0
  -27.4224  -29.3254   22.5404 O   0  0  0  0  0  0  0  0  0  0  0  0
  -23.6379  -31.4560   23.5859 O   0  0  0  0  0  0  0  0  0  0  0  0
  -21.2580  -27.3504   23.5564 O   0  0  0  0  0  0  0  0  0  0  0  0
  -25.6851  -18.8329   18.1731 O   0  0  0  0  0  0  0  0  0  0  0  0
  -21.4994   -7.2117   21.9678 O   0  0  0  0  0  0  0  0  0  0  0  0
  -26.1008  -24.2053   19.9498 O   0  0  0  0  0  0  0  0  0  1  0  0
  -23.8268   -3.3772   25.1746 F   0  0  0  0  0  0  0  0  0  0  0  0
  -20.3766   -6.5235   24.3985 F   0  0  0  0  0  0  0  0  0  0  0  0
  1  2  1  0  0  0  0
  1  7  2  0  0  0  0
  2  8  2  0  0  0  0
  3 12  2  0  0  0  0
  3 20  1  0  0  0  0
  4 13  1  0  0  0  0
  4 20  2  0  0  0  0
  5 10  2  0  0  0  0
  5 21  1  0  0  0  0
  6 11  1  0  0  0  0
  6 21  2  0  0  0  0
  7 23  1  0  0  0  0
  8 25  1  0  0  0  0
  9 14  2  0  0  0  0
  9 24  1  0  0  0  0
 10 28  1  0  0  0  0
 11 28  2  0  0  0  0
 12 29  1  0  0  0  0
 13 29  2  0  0  0  0
 14 30  1  0  0  0  0
 15 16  2  0  0  0  0
 15 31  1  0  0  0  0
 16 32  1  0  0  0  0
 17 26  1  0  0  0  0
 17 30  2  0  0  0  0
 18 27  1  0  0  0  0
 18 37  2  0  0  0  0
 19 32  2  0  0  0  0
 19 33  1  0  0  0  0
 20 34  1  0  0  0  0
 21 38  1  0  0  0  0
 22 34  1  0  0  0  0
 22 36  2  0  0  0  0
 22 39  1  0  0  0  0
 23 25  2  0  0  0  0
 23 44  1  0  0  0  0
 24 26  2  0  0  0  0
 24 45  1  0  0  0  0
 25 53  1  0  0  0  0
 26 46  1  0  0  0  0
 27 35  2  0  0  0  0
 27 62  1  0  0  0  0
 28 68  1  0  0  0  0
 29 83  1  0  0  0  0
 30 84  1  0  0  0  0
 31 33  2  0  0  0  0
 31 83  1  0  0  0  0
 32 85  1  0  0  0  0
 33 86  1  0  0  0  0
 34 66  2  0  0  0  0
 35 56  1  0  0  0  0
 35 68  1  0  0  0  0
 36 69  1  0  0  0  0
 36 72  1  0  0  0  0
 37 68  1  0  0  0  0
 37 82  1  0  0  0  0
 38 40  1  0  0  0  0
 38 67  2  0  0  0  0
 39 73  1  0  0  0  0
 39 77  2  0  0  0  0
 40 70  1  0  0  0  0
 40 78  2  0  0  0  0
 41 54  1  0  0  0  0
 41 74  1  0  0  0  0
 41 79  2  0  0  0  0
 42 63  1  0  0  0  0
 42 71  1  0  0  0  0
 42 80  2  0  0  0  0
 43 64  1  0  0  0  0
 43 75  1  0  0  0  0
 43 81  2  0  0  0  0
 44 47  1  0  0  0  0
 45 54  1  0  0  0  0
 46 71  1  0  0  0  0
 47 49  1  0  0  0  0
 48 50  1  0  0  0  0
 48 51  1  0  0  0  0
 49 53  1  0  0  0  0
 50 55  1  0  0  0  0
 51 70  1  0  0  0  0
 52 55  1  0  0  0  0
 52 70  1  0  0  0  0
 53 74  1  0  0  0  0
 54 71  1  0  0  0  0
 55 69  1  0  0  0  0
 57 64  1  0  0  0  0
 58 65  1  0  0  0  0
 59 65  1  0  0  0  0
 60 65  1  0  0  0  0
 61 76  1  0  0  0  0
 62 84  1  0  0  0  0
 63 65  1  0  0  0  0
 63 75  1  0  0  0  0
 64 76  1  0  0  0  0
 66 69  1  0  0  0  0
M  CHG  1  76   1
M  ISO  4  38 100  40 100  62 101  84 101
M  END
> <Batch ID>
0086

> <Smiles>
CNC(C)C(=O)NC(C(=O)N1Cc2cc([101O:1][101CH2:1]C3=C(C)N(c4ccc([100C:0](=N)[100C:0](=O)N5CCCC(n6nc(-c7ccc(Oc8ccc(F)cc8F)cc7)c(C(N)=O)c6N)C5)cc4)C(=O)C3)ccc2CC1C(=O)NC1CCCc2ccccc21)C(C)(C)C

> <Shape>
0.362

> <Color>
0.206

> <Negative vol penalty>
0.000

$$$$

  -OEChem-04052300173D

 83 91  0     1  0  0  0  0  0999 V2000
  -19.8592  -16.8913   23.2473 C   0  0  0  0  0  0  0  0  0  0  0  0
  -20.9977  -17.4315   22.6579 C   0  0  0  0  0  0  0  0  0  0  0  0
  -24.2895  -13.7618   20.2565 C   0  0  0  0  0  0  0  0  0  0  0  0
  -26.6511  -13.5583   20.7238 C   0  0  0  0  0  0  0  0  0  0  0  0
  -18.7088  -17.6678   23.3796 C   0  0  0  0  0  0  0  0  0  0  0  0
  -20.9860  -18.7483   22.1993 C   0  0  0  0  0  0  0  0  0  0  0  0
  -25.6554  -22.7105   22.2636 C   0  0  0  0  0  0  0  0  0  0  0  0
  -24.1918  -12.3748   20.1456 C   0  0  0  0  0  0  0  0  0  0  0  0
  -26.5535  -12.1712   20.6130 C   0  0  0  0  0  0  0  0  0  0  0  0
  -26.5647  -23.1046   21.2830 C   0  0  0  0  0  0  0  0  0  0  0  0
  -23.2483   -8.8645   20.0960 C   0  0  0  0  0  0  0  0  0  0  0  0
  -22.1747   -8.2373   20.7281 C   0  0  0  0  0  0  0  0  0  0  0  0
  -25.1850  -25.0187   20.7813 C   0  0  0  0  0  0  0  0  0  0  0  0
  -22.9323   -9.0880   22.8587 C   0  0  0  0  0  0  0  0  0  0  0  0
  -25.5191  -14.3535   20.5455 C   0  0  0  0  0  0  0  0  0  0  0  0
  -25.4571  -16.5601   21.8242 C   0  0  0  0  0  0  0  0  0  0  0  0
  -18.6861  -18.9979   22.9312 C   0  0  0  0  0  0  0  0  0  0  0  0
  -24.4966  -23.4629   22.5033 C   0  0  0  0  0  0  0  0  0  0  0  0
  -19.8338  -19.5430   22.3245 C   0  0  0  0  0  0  0  0  0  0  0  0
  -24.2638  -24.6334   21.7673 C   0  0  0  0  0  0  0  0  0  0  0  0
  -25.3238  -11.5795   20.3239 C   0  0  0  0  0  0  0  0  0  0  0  0
  -26.3282  -24.2572   20.5397 C   0  0  0  0  0  0  0  0  0  0  0  0
  -24.1640   -9.6033   20.8452 C   0  0  0  0  0  0  0  0  0  0  0  0
  -22.0167   -8.3491   22.1095 C   0  0  0  0  0  0  0  0  0  0  0  0
  -24.0060   -9.7151   22.2265 C   0  0  0  0  0  0  0  0  0  0  0  0
  -25.6207  -15.7863   20.6596 C   0  0  0  0  0  0  0  0  0  0  0  0
  -25.6520  -17.8540   21.4070 C   0  0  0  0  0  0  0  0  0  0  0  0
  -29.9851  -23.4089   18.2261 C   0  0  0  0  0  0  0  0  0  0  0  0
  -31.4078  -25.1804   17.4422 C   0  0  0  0  0  0  0  0  0  0  0  0
  -30.7251  -24.6334   18.4566 C   0  0  0  0  0  0  0  0  0  0  0  0
  -29.9736  -22.8181   17.0209 C   0  0  0  0  0  0  0  0  0  0  0  0
  -30.7393  -23.4317   15.8882 C   0  0  0  0  0  0  0  0  0  0  0  0
  -25.1559  -16.1462   23.1635 C   0  0  0  0  0  0  0  0  0  0  0  0
  -21.3748  -22.9011   22.2973 C   0  0  0  0  0  0  0  0  0  0  0  0
  -29.7280  -25.9898   20.0209 C   0  0  0  0  0  0  0  0  0  0  0  0
  -21.1515  -25.8516   23.6267 C   0  0  0  0  0  0  0  0  0  0  0  0
  -22.5883  -28.8979   24.1766 C   0  0  0  0  0  0  0  0  0  0  0  0
  -29.0526  -20.6880   17.7424 C   0  0  0  0  0  0  0  0  0  0  0  0
  -17.4043  -19.7832   23.0530 C   0  0  0  0  0  0  0  0  0  0  0  0
  -23.5390  -23.0389   23.5830 C   0  0  0  0  0  0  0  0  0  0  0  0
  -23.0451  -25.4873   21.9998 C   0  0  0  0  0  0  0  0  0  0  0  0
  -17.5933  -21.2882   22.8807 C   0  0  0  0  0  0  0  0  0  0  0  0
  -25.4483  -20.2031   17.0843 C   0  0  0  0  0  0  0  0  0  0  0  0
  -18.4695  -21.5806   21.6668 C   0  0  0  0  0  0  0  0  0  0  0  0
  -25.1328  -19.0421   18.0225 C   0  0  0  0  0  0  0  0  0  0  0  0
  -26.8654  -20.1151   16.5191 C   0  0  0  0  0  0  0  0  0  0  0  0
  -27.6014  -18.8334   18.5086 C   0  0  0  0  0  0  0  0  0  0  0  0
  -19.8681  -20.9753   21.8372 C   0  0  1  0  0  0  0  0  0  0  0  0
  -22.1337  -23.6003   23.3895 C   0  0  1  0  0  0  0  0  0  0  0  0
  -26.1972  -18.9318   19.1245 C   0  0  2  0  0  0  0  0  0  0  0  0
  -29.5330  -26.6415   21.3725 C   0  0  0  0  0  0  0  0  0  0  0  0
  -22.1478  -31.1162   25.2640 C   0  0  0  0  0  0  0  0  0  0  0  0
  -19.3136  -26.6173   21.3146 C   0  0  0  0  0  0  0  0  0  0  0  0
  -19.6767  -29.0209   21.9136 C   0  0  0  0  0  0  0  0  0  0  0  0
  -18.5938  -27.4797   23.5490 C   0  0  0  0  0  0  0  0  0  0  0  0
  -24.8836  -28.5818   26.0180 C   0  0  0  0  0  0  0  0  0  0  0  0
  -28.7510  -26.3715   18.9188 C   0  0  0  0  0  0  0  0  0  0  0  0
  -27.3228  -26.0432   19.3244 C   0  0  0  0  0  0  0  0  0  1  0  0
  -21.0710  -27.2614   23.0930 C   0  0  1  0  0  0  0  0  0  0  0  0
  -22.7404  -29.7266   25.4393 C   0  0  2  0  0  0  0  0  0  0  0  0
  -19.6859  -27.5779   22.4616 C   0  0  0  0  0  0  0  0  0  0  0  0
  -25.8980  -16.5269   19.5832 N   0  0  0  0  0  0  0  0  0  0  0  0
  -30.6664  -25.1446   19.7159 N   0  0  0  0  0  0  0  0  0  0  0  0
  -25.9101  -17.7796   20.0698 N   0  0  0  0  0  0  0  0  0  0  0  0
  -31.4164  -24.6012   16.1981 N   0  0  0  0  0  0  0  0  0  0  0  0
  -22.1353  -25.0275   23.0622 N   0  0  0  0  0  0  0  0  0  0  0  0
  -27.8649  -19.9453   17.5861 N   0  0  0  0  0  0  0  0  0  0  0  0
  -25.6260  -19.0369   22.0570 N   0  0  0  0  0  0  0  0  0  0  0  0
  -24.9869  -14.7783   23.4181 N   0  0  0  0  0  0  0  0  0  0  0  0
  -29.2845  -21.6635   16.7765 N   0  0  0  0  0  0  0  0  0  0  0  0
  -20.6681  -21.7929   22.7237 N   0  0  0  0  0  0  0  0  0  0  0  0
  -21.4377  -28.1384   24.1997 N   0  0  0  0  0  0  0  0  0  0  0  0
  -24.1807  -29.8712   25.7936 N   0  3  0  0  0  0  0  0  0  0  0  0
  -30.7513  -22.9173   14.7722 O   0  0  0  0  0  0  0  0  0  0  0  0
  -25.0239  -16.9664   24.1034 O   0  0  0  0  0  0  0  0  0  0  0  0
  -21.4254  -23.3359   21.1527 O   0  0  0  0  0  0  0  0  0  0  0  0
  -20.3748  -25.4968   24.5170 O   0  0  0  0  0  0  0  0  0  0  0  0
  -23.4063  -28.9246   23.2597 O   0  0  0  0  0  0  0  0  0  0  0  0
  -29.8441  -20.4834   18.6700 O   0  0  0  0  0  0  0  0  0  0  0  0
  -25.2289  -10.2260   20.2160 O   0  0  0  0  0  0  0  0  0  0  0  0
  -27.2138  -24.6438   19.5815 O   0  0  0  0  0  0  0  0  0  1  0  0
  -20.9848   -7.7480   22.7162 F   0  0  0  0  0  0  0  0  0  0  0  0
  -24.8818  -10.4245   22.9515 F   0  0  0  0  0  0  0  0  0  0  0  0
  1  2  1  0  0  0  0
  1  5  2  0  0  0  0
  2  6  2  0  0  0  0
  3  8  2  0  0  0  0
  3 15  1  0  0  0  0
  4  9  1  0  0  0  0
  4 15  2  0  0  0  0
  5 17  1  0  0  0  0
  6 19  1  0  0  0  0
  7 10  2  0  0  0  0
  7 18  1  0  0  0  0
  8 21  1  0  0  0  0
  9 21  2  0  0  0  0
 10 22  1  0  0  0  0
 11 12  2  0  0  0  0
 11 23  1  0  0  0  0
 12 24  1  0  0  0  0
 13 20  1  0  0  0  0
 13 22  2  0  0  0  0
 14 24  2  0  0  0  0
 14 25  1  0  0  0  0
 15 26  1  0  0  0  0
 16 26  1  0  0  0  0
 16 27  2  0  0  0  0
 16 33  1  0  0  0  0
 17 19  2  0  0  0  0
 17 39  1  0  0  0  0
 18 20  2  0  0  0  0
 18 40  1  0  0  0  0
 19 48  1  0  0  0  0
 20 41  1  0  0  0  0
 21 80  1  0  0  0  0
 22 81  1  0  0  0  0
 23 25  2  0  0  0  0
 23 80  1  0  0  0  0
 24 82  1  0  0  0  0
 25 83  1  0  0  0  0
 26 62  2  0  0  0  0
 27 64  1  0  0  0  0
 27 68  1  0  0  0  0
 28 30  1  0  0  0  0
 28 31  2  0  0  0  0
 29 30  2  0  0  0  0
 29 65  1  0  0  0  0
 30 63  1  0  0  0  0
 31 32  1  0  0  0  0
 31 70  1  0  0  0  0
 32 65  1  0  0  0  0
 32 74  2  0  0  0  0
 33 69  1  0  0  0  0
 33 75  2  0  0  0  0
 34 49  1  0  0  0  0
 34 71  1  0  0  0  0
 34 76  2  0  0  0  0
 35 51  1  0  0  0  0
 35 57  1  0  0  0  0
 35 63  2  0  0  0  0
 36 59  1  0  0  0  0
 36 66  1  0  0  0  0
 36 77  2  0  0  0  0
 37 60  1  0  0  0  0
 37 72  1  0  0  0  0
 37 78  2  0  0  0  0
 38 67  1  0  0  0  0
 38 70  1  0  0  0  0
 38 79  2  0  0  0  0
 39 42  1  0  0  0  0
 40 49  1  0  0  0  0
 41 66  1  0  0  0  0
 42 44  1  0  0  0  0
 43 45  1  0  0  0  0
 43 46  1  0  0  0  0
 44 48  1  0  0  0  0
 45 50  1  0  0  0  0
 46 67  1  0  0  0  0
 47 50  1  0  0  0  0
 47 67  1  0  0  0  0
 48 71  1  0  0  0  0
 49 66  1  0  0  0  0
 50 64  1  0  0  0  0
 52 60  1  0  0  0  0
 53 61  1  0  0  0  0
 54 61  1  0  0  0  0
 55 61  1  0  0  0  0
 56 73  1  0  0  0  0
 57 58  1  0  0  0  0
 58 81  1  0  0  0  0
 59 61  1  0  0  0  0
 59 72  1  0  0  0  0
 60 73  1  0  0  0  0
 62 64  1  0  0  0  0
M  CHG  1  73   1
M  ISO  4  38 100  58 101  70 100  81 101
M  END
> <Batch ID>
0086

> <Smiles>
CNC(C)C(=O)NC(C(=O)N1Cc2cc([101O:1][101CH2:1]C=C(C)Nc3c[nH]c(=O)c([100NH:0][100C:0](=O)N4CCCC(n5nc(-c6ccc(Oc7ccc(F)cc7F)cc6)c(C(N)=O)c5N)C4)c3)ccc2CC1C(=O)NC1CCCc2ccccc21)C(C)(C)C

> <Shape>
0.184

> <Color>
0.073

> <Negative vol penalty>
0.000

$$$$

  -OEChem-04052300173D

 83 91  0     1  0  0  0  0  0999 V2000
  -20.0014  -34.0240   23.7367 C   0  0  0  0  0  0  0  0  0  0  0  0
  -21.3100  -33.6746   23.4187 C   0  0  0  0  0  0  0  0  0  0  0  0
  -33.4319  -21.2171   17.6627 C   0  0  0  0  0  0  0  0  0  0  0  0
  -23.6094  -13.8512   20.1015 C   0  0  0  0  0  0  0  0  0  0  0  0
  -22.6345  -14.6959   22.1444 C   0  0  0  0  0  0  0  0  0  0  0  0
  -33.2436  -22.5916   17.8069 C   0  0  0  0  0  0  0  0  0  0  0  0
  -19.0790  -33.0341   24.0732 C   0  0  0  0  0  0  0  0  0  0  0  0
  -21.6971  -32.3351   23.4380 C   0  0  0  0  0  0  0  0  0  0  0  0
  -25.7383  -29.6170   19.7250 C   0  0  0  0  0  0  0  0  0  0  0  0
  -32.7342  -20.3279   18.4802 C   0  0  0  0  0  0  0  0  0  0  0  0
  -22.9822  -12.6229   20.3101 C   0  0  0  0  0  0  0  0  0  0  0  0
  -22.0073  -13.4676   22.3529 C   0  0  0  0  0  0  0  0  0  0  0  0
  -27.0854  -29.2934   19.8810 C   0  0  0  0  0  0  0  0  0  0  0  0
  -21.9262   -9.1479   20.4920 C   0  0  0  0  0  0  0  0  0  0  0  0
  -22.6811   -7.9912   20.2976 C   0  0  0  0  0  0  0  0  0  0  0  0
  -31.6598  -22.1879   19.5862 C   0  0  0  0  0  0  0  0  0  0  0  0
  -26.4655  -27.0583   20.5437 C   0  0  0  0  0  0  0  0  0  0  0  0
  -24.2230   -8.7091   22.0135 C   0  0  0  0  0  0  0  0  0  0  0  0
  -23.4356  -14.8877   21.0187 C   0  0  0  0  0  0  0  0  0  0  0  0
  -32.3576  -23.0770   18.7687 C   0  0  0  0  0  0  0  0  0  0  0  0
  -23.5721  -17.2644   20.1021 C   0  0  0  0  0  0  0  0  0  0  0  0
  -19.4525  -31.6810   24.0873 C   0  0  0  0  0  0  0  0  0  0  0  0
  -24.7426  -28.6654   19.9882 C   0  0  0  0  0  0  0  0  0  0  0  0
  -20.7791  -31.3263   23.7763 C   0  0  0  0  0  0  0  0  0  0  0  0
  -25.1066  -27.3716   20.3878 C   0  0  0  0  0  0  0  0  0  0  0  0
  -22.1811  -12.4311   21.4358 C   0  0  0  0  0  0  0  0  0  0  0  0
  -31.8481  -20.8134   19.4419 C   0  0  0  0  0  0  0  0  0  0  0  0
  -27.4491  -28.0148   20.2932 C   0  0  0  0  0  0  0  0  0  0  0  0
  -22.3197  -10.0852   21.4471 C   0  0  0  0  0  0  0  0  0  0  0  0
  -23.8295   -7.7718   21.0583 C   0  0  0  0  0  0  0  0  0  0  0  0
  -23.4681   -9.8658   22.2079 C   0  0  0  0  0  0  0  0  0  0  0  0
  -24.0837  -16.1565   20.8041 C   0  0  0  0  0  0  0  0  0  0  0  0
  -24.5638  -18.2111   20.1849 C   0  0  0  0  0  0  0  0  0  0  0  0
  -32.1566  -24.5405   18.9224 C   0  0  0  0  0  0  0  0  0  0  0  0
  -22.3131  -17.4236   19.4349 C   0  0  0  0  0  0  0  0  0  0  0  0
  -22.3313  -28.4527   22.0484 C   0  0  0  0  0  0  0  0  0  0  0  0
  -21.6298  -25.7781   20.3522 C   0  0  0  0  0  0  0  0  0  0  0  0
  -30.5440  -26.2519   19.6749 C   0  0  0  0  0  0  0  0  0  0  0  0
  -22.7246  -23.2711   18.3119 C   0  0  0  0  0  0  0  0  0  0  0  0
  -29.9147  -19.5177   19.7439 C   0  0  0  0  0  0  0  0  0  0  0  0
  -18.4327  -30.6507   24.5033 C   0  0  0  0  0  0  0  0  0  0  0  0
  -23.2950  -29.0222   19.7893 C   0  0  0  0  0  0  0  0  0  0  0  0
  -24.0769  -26.3076   20.6635 C   0  0  0  0  0  0  0  0  0  0  0  0
  -18.8253  -29.2220   24.1359 C   0  0  0  0  0  0  0  0  0  0  0  0
  -28.7561  -18.3686   22.9955 C   0  0  0  0  0  0  0  0  0  0  0  0
  -20.2765  -28.9516   24.5203 C   0  0  0  0  0  0  0  0  0  0  0  0
  -27.4063  -17.7451   22.6416 C   0  0  0  0  0  0  0  0  0  0  0  0
  -29.7771  -18.1688   21.8790 C   0  0  0  0  0  0  0  0  0  0  0  0
  -27.9635  -18.0479   20.1902 C   0  0  0  0  0  0  0  0  0  0  0  0
  -21.2307  -29.8820   23.7619 C   0  0  1  0  0  0  0  0  0  0  0  0
  -22.3452  -28.1287   20.5812 C   0  0  1  0  0  0  0  0  0  0  0  0
  -26.9009  -18.2580   21.2816 C   0  0  1  0  0  0  0  0  0  0  0  0
  -21.9278  -21.2112   17.1205 C   0  0  0  0  0  0  0  0  0  0  0  0
  -21.6242  -24.2543   22.9957 C   0  0  0  0  0  0  0  0  0  0  0  0
  -21.7763  -22.1246   21.6883 C   0  0  0  0  0  0  0  0  0  0  0  0
  -19.7928  -23.6131   21.4180 C   0  0  0  0  0  0  0  0  0  0  0  0
  -23.4177  -24.3942   15.6629 C   0  0  0  0  0  0  0  0  0  0  0  0
  -29.1333  -26.3374   20.2185 C   0  0  0  0  0  0  0  0  0  1  0  0
  -22.0159  -24.3216   20.4446 C   0  0  1  0  0  0  0  0  0  0  0  0
  -22.1657  -22.7097   17.0170 C   0  0  2  0  0  0  0  0  0  0  0  0
  -21.3219  -23.5988   21.6334 C   0  0  0  0  0  0  0  0  0  0  0  0
  -25.3055  -16.3774   21.2964 N   0  0  0  0  0  0  0  0  0  0  0  0
  -25.5700  -17.6350   20.9032 N   0  0  0  0  0  0  0  0  0  0  0  0
  -22.6744  -26.7070   20.4610 N   0  0  0  0  0  0  0  0  0  0  0  0
  -29.2464  -18.6280   20.5916 N   0  0  0  0  0  0  0  0  0  0  0  0
  -24.6646  -19.4717   19.7126 N   0  0  0  0  0  0  0  0  0  0  0  0
  -21.4105  -16.3515   19.4466 N   0  0  0  0  0  0  0  0  0  0  0  0
  -30.9173  -24.9298   19.4278 N   0  0  0  0  0  0  0  0  0  0  0  0
  -21.4114  -29.4212   22.4020 N   0  0  0  0  0  0  0  0  0  0  0  0
  -21.7255  -23.7387   19.1391 N   0  0  0  0  0  0  0  0  0  0  0  0
  -23.1123  -22.9587   15.8932 N   0  3  0  0  0  0  0  0  0  0  0  0
  -33.0734  -25.3038   18.6312 O   0  0  0  0  0  0  0  0  0  0  0  0
  -22.0045  -18.4793   18.8318 O   0  0  0  0  0  0  0  0  0  0  0  0
  -23.0975  -27.8662   22.8038 O   0  0  0  0  0  0  0  0  0  0  0  0
  -20.4460  -26.0803   20.1824 O   0  0  0  0  0  0  0  0  0  0  0  0
  -31.2440  -27.2426   19.4846 O   0  0  0  0  0  0  0  0  0  0  0  0
  -23.9270  -23.2892   18.5659 O   0  0  0  0  0  0  0  0  0  0  0  0
  -29.4742  -19.9065   18.6627 O   0  0  0  0  0  0  0  0  0  0  0  0
  -21.5687  -11.2327   21.6395 O   0  0  0  0  0  0  0  0  0  0  0  0
  -31.1483  -19.9221   20.2617 O   0  0  0  0  0  0  0  0  0  0  0  0
  -28.7633  -27.6965   20.4468 O   0  0  0  0  0  0  0  0  0  1  0  0
  -24.5534   -6.6603   20.8726 F   0  0  0  0  0  0  0  0  0  0  0  0
  -23.8505  -10.7621   23.1278 F   0  0  0  0  0  0  0  0  0  0  0  0
  1  2  1  0  0  0  0
  1  7  2  0  0  0  0
  2  8  2  0  0  0  0
  3  6  2  0  0  0  0
  3 10  1  0  0  0  0
  4 11  2  0  0  0  0
  4 19  1  0  0  0  0
  5 12  1  0  0  0  0
  5 19  2  0  0  0  0
  6 20  1  0  0  0  0
  7 22  1  0  0  0  0
  8 24  1  0  0  0  0
  9 13  2  0  0  0  0
  9 23  1  0  0  0  0
 10 27  2  0  0  0  0
 11 26  1  0  0  0  0
 12 26  2  0  0  0  0
 13 28  1  0  0  0  0
 14 15  2  0  0  0  0
 14 29  1  0  0  0  0
 15 30  1  0  0  0  0
 16 20  2  0  0  0  0
 16 27  1  0  0  0  0
 17 25  1  0  0  0  0
 17 28  2  0  0  0  0
 18 30  2  0  0  0  0
 18 31  1  0  0  0  0
 19 32  1  0  0  0  0
 20 34  1  0  0  0  0
 21 32  1  0  0  0  0
 21 33  2  0  0  0  0
 21 35  1  0  0  0  0
 22 24  2  0  0  0  0
 22 41  1  0  0  0  0
 23 25  2  0  0  0  0
 23 42  1  0  0  0  0
 24 50  1  0  0  0  0
 25 43  1  0  0  0  0
 26 79  1  0  0  0  0
 27 80  1  0  0  0  0
 28 81  1  0  0  0  0
 29 31  2  0  0  0  0
 29 79  1  0  0  0  0
 30 82  1  0  0  0  0
 31 83  1  0  0  0  0
 32 62  2  0  0  0  0
 33 63  1  0  0  0  0
 33 66  1  0  0  0  0
 34 68  1  0  0  0  0
 34 72  2  0  0  0  0
 35 67  1  0  0  0  0
 35 73  2  0  0  0  0
 36 51  1  0  0  0  0
 36 69  1  0  0  0  0
 36 74  2  0  0  0  0
 37 59  1  0  0  0  0
 37 64  1  0  0  0  0
 37 75  2  0  0  0  0
 38 58  1  0  0  0  0
 38 68  1  0  0  0  0
 38 76  2  0  0  0  0
 39 60  1  0  0  0  0
 39 70  1  0  0  0  0
 39 77  2  0  0  0  0
 40 65  1  0  0  0  0
 40 78  2  0  0  0  0
 40 80  1  0  0  0  0
 41 44  1  0  0  0  0
 42 51  1  0  0  0  0
 43 64  1  0  0  0  0
 44 46  1  0  0  0  0
 45 47  1  0  0  0  0
 45 48  1  0  0  0  0
 46 50  1  0  0  0  0
 47 52  1  0  0  0  0
 48 65  1  0  0  0  0
 49 52  1  0  0  0  0
 49 65  1  0  0  0  0
 50 69  1  0  0  0  0
 51 64  1  0  0  0  0
 52 63  1  0  0  0  0
 53 60  1  0  0  0  0
 54 61  1  0  0  0  0
 55 61  1  0  0  0  0
 56 61  1  0  0  0  0
 57 71  1  0  0  0  0
 58 81  1  0  0  0  0
 59 61  1  0  0  0  0
 59 70  1  0  0  0  0
 60 71  1  0  0  0  0
 62 63  1  0  0  0  0
M  CHG  1  71   1
M  ISO  4  40 100  58 101  80 100  81 101
M  END
> <Batch ID>
0086

> <Smiles>
CNC(C)C(=O)NC(C(=O)N1Cc2cc([101O:1][101CH2:1]C(=O)NC(=O)c3cccc([100O:0][100C:0](=O)N4CCCC(n5nc(-c6ccc(Oc7ccc(F)cc7F)cc6)c(C(N)=O)c5N)C4)c3)ccc2CC1C(=O)NC1CCCc2ccccc21)C(C)(C)C

> <Shape>
0.209

> <Color>
0.072

> <Negative vol penalty>
0.000

$$$$

  -OEChem-04052300173D

 86 94  0     1  0  0  0  0  0999 V2000
  -27.5930  -23.6631   17.7301 C   0  0  0  0  0  0  0  0  0  0  0  0
  -26.4103  -24.0585   18.3467 C   0  0  0  0  0  0  0  0  0  0  0  0
  -17.9548  -19.3831   18.3109 C   0  0  0  0  0  0  0  0  0  0  0  0
  -26.4081  -13.2697   21.0151 C   0  0  0  0  0  0  0  0  0  0  0  0
  -24.3208  -12.9832   19.8326 C   0  0  0  0  0  0  0  0  0  0  0  0
  -17.3023  -20.3696   19.0503 C   0  0  0  0  0  0  0  0  0  0  0  0
  -28.8184  -24.1052   18.2270 C   0  0  0  0  0  0  0  0  0  0  0  0
  -26.4523  -24.8954   19.4613 C   0  0  0  0  0  0  0  0  0  0  0  0
  -23.0448  -28.6334   19.2136 C   0  0  0  0  0  0  0  0  0  0  0  0
  -19.3410  -19.2515   18.3940 C   0  0  0  0  0  0  0  0  0  0  0  0
  -26.2244  -12.0355   21.6384 C   0  0  0  0  0  0  0  0  0  0  0  0
  -24.1371  -11.7490   20.4559 C   0  0  0  0  0  0  0  0  0  0  0  0
  -21.7224  -28.3105   19.5149 C   0  0  0  0  0  0  0  0  0  0  0  0
  -25.2840   -8.5893   20.1075 C   0  0  0  0  0  0  0  0  0  0  0  0
  -24.8695   -7.5196   19.3141 C   0  0  0  0  0  0  0  0  0  0  0  0
  -19.4222  -21.0932   19.9556 C   0  0  0  0  0  0  0  0  0  0  0  0
  -22.0115  -29.2200   21.7304 C   0  0  0  0  0  0  0  0  0  0  0  0
  -22.8808   -7.2873   20.6662 C   0  0  0  0  0  0  0  0  0  0  0  0
  -25.4563  -13.7436   20.1122 C   0  0  0  0  0  0  0  0  0  0  0  0
  -18.0360  -21.2247   19.8726 C   0  0  0  0  0  0  0  0  0  0  0  0
  -26.3022  -15.2660   18.2482 C   0  0  0  0  0  0  0  0  0  0  0  0
  -28.8750  -24.9557   19.3424 C   0  0  0  0  0  0  0  0  0  0  0  0
  -23.8650  -29.2432   20.1736 C   0  0  0  0  0  0  0  0  0  0  0  0
  -27.6797  -25.3482   19.9744 C   0  0  0  0  0  0  0  0  0  0  0  0
  -23.3431  -29.5519   21.4379 C   0  0  0  0  0  0  0  0  0  0  0  0
  -20.0747  -20.1066   19.2163 C   0  0  0  0  0  0  0  0  0  0  0  0
  -25.0889  -11.2751   21.3588 C   0  0  0  0  0  0  0  0  0  0  0  0
  -21.2064  -28.6011   20.7744 C   0  0  0  0  0  0  0  0  0  0  0  0
  -24.4970   -9.0079   21.1804 C   0  0  0  0  0  0  0  0  0  0  0  0
  -23.6679   -6.8686   19.5934 C   0  0  0  0  0  0  0  0  0  0  0  0
  -23.2954   -8.3570   21.4597 C   0  0  0  0  0  0  0  0  0  0  0  0
  -25.6451  -15.0188   19.4685 C   0  0  0  0  0  0  0  0  0  0  0  0
  -26.2108  -16.6258   18.0784 C   0  0  0  0  0  0  0  0  0  0  0  0
  -17.3334  -22.2844   20.6666 C   0  0  0  0  0  0  0  0  0  0  0  0
  -26.9383  -14.3484   17.3487 C   0  0  0  0  0  0  0  0  0  0  0  0
  -26.5599  -28.4417   21.6565 C   0  0  0  0  0  0  0  0  0  0  0  0
  -26.3517  -31.4575   22.8327 C   0  0  0  0  0  0  0  0  0  0  0  0
  -24.3843  -34.1380   23.6017 C   0  0  0  0  0  0  0  0  0  0  0  0
  -22.3597  -20.7386   20.0682 C   0  0  0  0  0  0  0  0  0  0  0  0
  -30.2252  -25.3694   19.8720 C   0  0  0  0  0  0  0  0  0  0  0  0
  -25.2814  -29.6094   19.8241 C   0  0  0  0  0  0  0  0  0  0  0  0
  -24.1764  -30.2244   22.4971 C   0  0  0  0  0  0  0  0  0  0  0  0
  -30.1662  -26.5566   20.8298 C   0  0  0  0  0  0  0  0  0  0  0  0
  -25.8834  -20.6982   20.5770 C   0  0  0  0  0  0  0  0  0  0  0  0
  -29.0529  -26.3613   21.8541 C   0  0  0  0  0  0  0  0  0  0  0  0
  -26.2829  -19.2613   20.2336 C   0  0  0  0  0  0  0  0  0  0  0  0
  -24.5287  -20.7574   21.2806 C   0  0  0  0  0  0  0  0  0  0  0  0
  -23.8338  -18.6375   20.2356 C   0  0  0  0  0  0  0  0  0  0  0  0
  -27.6830  -26.2753   21.1705 C   0  0  1  0  0  0  0  0  0  0  0  0
  -26.1787  -29.7617   21.0484 C   0  0  1  0  0  0  0  0  0  0  0  0
  -25.1615  -18.5324   19.4675 C   0  0  2  0  0  0  0  0  0  0  0  0
  -24.4935  -36.4440   24.5854 C   0  0  0  0  0  0  0  0  0  0  0  0
  -26.6033  -30.2521   25.6244 C   0  0  0  0  0  0  0  0  0  0  0  0
  -25.7655  -32.4182   26.5594 C   0  0  0  0  0  0  0  0  0  0  0  0
  -27.9044  -32.3594   25.2770 C   0  0  0  0  0  0  0  0  0  0  0  0
  -23.3937  -35.3767   21.1030 C   0  0  0  0  0  0  0  0  0  0  0  0
  -18.4495  -27.0075   22.4738 C   0  0  0  0  0  0  0  0  0  0  0  0
  -19.6196  -27.9785   22.4328 C   0  0  0  0  0  0  0  0  0  1  0  0
  -18.7618  -25.7223   21.7275 C   0  0  0  0  0  0  0  0  0  0  0  0
  -25.7129  -32.0904   24.0453 C   0  0  1  0  0  0  0  0  0  0  0  0
  -24.5406  -35.6193   23.3086 C   0  0  2  0  0  0  0  0  0  0  0  0
  -26.4811  -31.7656   25.3574 C   0  0  0  0  0  0  0  0  0  0  0  0
  -25.1715  -16.1323   20.0338 N   0  0  0  0  0  0  0  0  0  0  0  0
  -18.0142  -23.3699   20.9066 N   0  0  0  0  0  0  0  0  0  0  0  0
  -25.5313  -17.0924   19.1650 N   0  0  0  0  0  0  0  0  0  0  0  0
  -25.5571  -30.5569   22.1093 N   0  0  0  0  0  0  0  0  0  0  0  0
  -23.5150  -20.0502   20.4950 N   0  0  0  0  0  0  0  0  0  0  0  0
  -26.6463  -17.4561   17.1071 N   0  0  0  0  0  0  0  0  0  0  0  0
  -16.0421  -22.0260   21.0767 N   0  0  0  0  0  0  0  0  0  0  0  0
  -26.9409  -12.9855   17.6758 N   0  0  0  0  0  0  0  0  0  0  0  0
  -21.4827  -19.9726   19.3008 N   0  0  0  0  0  0  0  0  0  0  0  0
  -27.2241  -27.5941   20.7904 N   0  0  0  0  0  0  0  0  0  0  0  0
  -25.6054  -33.5157   23.7530 N   0  0  0  0  0  0  0  0  0  0  0  0
  -23.4501  -36.0867   22.4067 N   0  3  0  0  0  0  0  0  0  0  0  0
  -27.5023  -14.7278   16.2945 O   0  0  0  0  0  0  0  0  0  0  0  0
  -26.2741  -28.2098   22.8253 O   0  0  0  0  0  0  0  0  0  0  0  0
  -27.5106  -31.7568   22.5342 O   0  0  0  0  0  0  0  0  0  0  0  0
  -23.2885  -33.5887   23.6914 O   0  0  0  0  0  0  0  0  0  0  0  0
  -22.1759  -21.9281   20.3388 O   0  0  0  0  0  0  0  0  0  0  0  0
  -16.3120  -25.2379   21.0143 O   0  0  0  0  0  0  0  0  0  0  0  0
  -17.1928  -24.2148   23.1448 O   0  0  0  0  0  0  0  0  0  0  0  0
  -24.9095  -10.0706   21.9667 O   0  0  0  0  0  0  0  0  0  0  0  0
  -19.9162  -28.2864   21.0714 O   0  0  0  0  0  0  0  0  0  1  0  0
  -23.2693   -5.8424   18.8304 F   0  0  0  0  0  0  0  0  0  0  0  0
  -22.5344   -8.7554   22.4883 F   0  0  0  0  0  0  0  0  0  0  0  0
  -17.3917  -24.6108   21.7597 S   0  0  0  0  0  0  0  0  0  0  0  0
  1  2  1  0  0  0  0
  1  7  2  0  0  0  0
  2  8  2  0  0  0  0
  3  6  2  0  0  0  0
  3 10  1  0  0  0  0
  4 11  2  0  0  0  0
  4 19  1  0  0  0  0
  5 12  1  0  0  0  0
  5 19  2  0  0  0  0
  6 20  1  0  0  0  0
  7 22  1  0  0  0  0
  8 24  1  0  0  0  0
  9 13  2  0  0  0  0
  9 23  1  0  0  0  0
 10 26  2  0  0  0  0
 11 27  1  0  0  0  0
 12 27  2  0  0  0  0
 13 28  1  0  0  0  0
 14 15  2  0  0  0  0
 14 29  1  0  0  0  0
 15 30  1  0  0  0  0
 16 20  2  0  0  0  0
 16 26  1  0  0  0  0
 17 25  1  0  0  0  0
 17 28  2  0  0  0  0
 18 30  2  0  0  0  0
 18 31  1  0  0  0  0
 19 32  1  0  0  0  0
 20 34  1  0  0  0  0
 21 32  1  0  0  0  0
 21 33  2  0  0  0  0
 21 35  1  0  0  0  0
 22 24  2  0  0  0  0
 22 40  1  0  0  0  0
 23 25  2  0  0  0  0
 23 41  1  0  0  0  0
 24 49  1  0  0  0  0
 25 42  1  0  0  0  0
 26 71  1  0  0  0  0
 27 82  1  0  0  0  0
 28 83  1  0  0  0  0
 29 31  2  0  0  0  0
 29 82  1  0  0  0  0
 30 84  1  0  0  0  0
 31 85  1  0  0  0  0
 32 63  2  0  0  0  0
 33 65  1  0  0  0  0
 33 68  1  0  0  0  0
 34 64  2  0  0  0  0
 34 69  1  0  0  0  0
 35 70  1  0  0  0  0
 35 75  2  0  0  0  0
 36 50  1  0  0  0  0
 36 72  1  0  0  0  0
 36 76  2  0  0  0  0
 37 60  1  0  0  0  0
 37 66  1  0  0  0  0
 37 77  2  0  0  0  0
 38 61  1  0  0  0  0
 38 73  1  0  0  0  0
 38 78  2  0  0  0  0
 39 67  1  0  0  0  0
 39 71  1  0  0  0  0
 39 79  2  0  0  0  0
 40 43  1  0  0  0  0
 41 50  1  0  0  0  0
 42 66  1  0  0  0  0
 43 45  1  0  0  0  0
 44 46  1  0  0  0  0
 44 47  1  0  0  0  0
 45 49  1  0  0  0  0
 46 51  1  0  0  0  0
 47 67  1  0  0  0  0
 48 51  1  0  0  0  0
 48 67  1  0  0  0  0
 49 72  1  0  0  0  0
 50 66  1  0  0  0  0
 51 65  1  0  0  0  0
 52 61  1  0  0  0  0
 53 62  1  0  0  0  0
 54 62  1  0  0  0  0
 55 62  1  0  0  0  0
 56 74  1  0  0  0  0
 57 58  1  0  0  0  0
 57 59  1  0  0  0  0
 58 83  1  0  0  0  0
 59 86  1  0  0  0  0
 60 62  1  0  0  0  0
 60 73  1  0  0  0  0
 61 74  1  0  0  0  0
 63 65  1  0  0  0  0
 64 86  1  0  0  0  0
 80 86  2  0  0  0  0
 81 86  2  0  0  0  0
M  CHG  1  74   1
M  ISO  4  39 100  58 101  71 100  83 101
M  END
> <Batch ID>
0086

> <Smiles>
CNC(C)C(=O)NC(C(=O)N1Cc2cc([101O:1][101CH2:1]CCS(=O)(=O)NC(=N)c3cccc([100NH:0][100C:0](=O)N4CCCC(n5nc(-c6ccc(Oc7ccc(F)cc7F)cc6)c(C(N)=O)c5N)C4)c3)ccc2CC1C(=O)NC1CCCc2ccccc21)C(C)(C)C

> <Shape>
0.258

> <Color>
0.072

> <Negative vol penalty>
0.000

$$$$

  -OEChem-04052300173D

 85 94  0     1  0  0  0  0  0999 V2000
  -29.1274  -35.4435   22.5744 C   0  0  0  0  0  0  0  0  0  0  0  0
  -29.1305  -34.0534   22.5180 C   0  0  0  0  0  0  0  0  0  0  0  0
  -22.5906  -12.8389   18.5324 C   0  0  0  0  0  0  0  0  0  0  0  0
  -22.4499  -11.5765   20.5876 C   0  0  0  0  0  0  0  0  0  0  0  0
  -31.3458  -19.3830   20.4804 C   0  0  0  0  0  0  0  0  0  0  0  0
  -29.5100  -18.5304   19.1615 C   0  0  0  0  0  0  0  0  0  0  0  0
  -27.9760  -36.1213   22.9729 C   0  0  0  0  0  0  0  0  0  0  0  0
  -27.9824  -33.3403   22.8613 C   0  0  0  0  0  0  0  0  0  0  0  0
  -26.9553  -29.6180   19.5849 C   0  0  0  0  0  0  0  0  0  0  0  0
  -30.7260  -20.6313   20.5363 C   0  0  0  0  0  0  0  0  0  0  0  0
  -28.8901  -19.7788   19.2174 C   0  0  0  0  0  0  0  0  0  0  0  0
  -21.4361  -12.2097   18.0668 C   0  0  0  0  0  0  0  0  0  0  0  0
  -21.2953  -10.9473   20.1220 C   0  0  0  0  0  0  0  0  0  0  0  0
  -27.7060  -28.4483   19.6944 C   0  0  0  0  0  0  0  0  0  0  0  0
  -18.5146   -8.7454   19.3287 C   0  0  0  0  0  0  0  0  0  0  0  0
  -18.4136   -7.3651   19.5021 C   0  0  0  0  0  0  0  0  0  0  0  0
  -25.8883  -27.4005   20.8850 C   0  0  0  0  0  0  0  0  0  0  0  0
  -20.4082   -7.0524   18.1751 C   0  0  0  0  0  0  0  0  0  0  0  0
  -23.0976  -12.5222   19.7928 C   0  0  0  0  0  0  0  0  0  0  0  0
  -30.7378  -18.3326   19.7930 C   0  0  0  0  0  0  0  0  0  0  0  0
  -24.3684  -14.3666   21.0138 C   0  0  0  0  0  0  0  0  0  0  0  0
  -26.8103  -35.4165   23.3120 C   0  0  0  0  0  0  0  0  0  0  0  0
  -25.6676  -29.6915   20.1351 C   0  0  0  0  0  0  0  0  0  0  0  0
  -26.8148  -34.0092   23.2661 C   0  0  0  0  0  0  0  0  0  0  0  0
  -25.1224  -28.5715   20.7789 C   0  0  0  0  0  0  0  0  0  0  0  0
  -29.4982  -20.8292   19.9048 C   0  0  0  0  0  0  0  0  0  0  0  0
  -20.7884  -11.2639   18.8616 C   0  0  0  0  0  0  0  0  0  0  0  0
  -27.1736  -27.3402   20.3471 C   0  0  0  0  0  0  0  0  0  0  0  0
  -19.5624   -9.2793   18.5784 C   0  0  0  0  0  0  0  0  0  0  0  0
  -19.3604   -6.5186   18.9254 C   0  0  0  0  0  0  0  0  0  0  0  0
  -20.5092   -8.4328   18.0016 C   0  0  0  0  0  0  0  0  0  0  0  0
  -24.2905  -13.1714   20.2741 C   0  0  0  0  0  0  0  0  0  0  0  0
  -25.7129  -14.5544   21.2222 C   0  0  0  0  0  0  0  0  0  0  0  0
  -28.0325  -23.8694   19.9497 C   0  0  0  0  0  0  0  0  0  0  0  0
  -27.7210  -22.5289   19.4521 C   0  0  0  0  0  0  0  0  0  0  0  0
  -27.3981  -25.0548   19.9029 C   0  0  0  0  0  0  0  0  0  1  0  0
  -31.3980  -17.0031   19.7333 C   0  0  0  0  0  0  0  0  0  0  0  0
  -23.3192  -15.2299   21.4717 C   0  0  0  0  0  0  0  0  0  0  0  0
  -24.2881  -31.4604   22.3871 C   0  0  0  0  0  0  0  0  0  0  0  0
  -21.6028  -29.9381   21.3900 C   0  0  0  0  0  0  0  0  0  0  0  0
  -20.2089  -27.2191   19.8700 C   0  0  0  0  0  0  0  0  0  0  0  0
  -30.9628  -14.5835   19.4513 C   0  0  0  0  0  0  0  0  0  0  0  0
  -25.6046  -36.1909   23.7823 C   0  0  0  0  0  0  0  0  0  0  0  0
  -24.8604  -30.9518   19.9851 C   0  0  0  0  0  0  0  0  0  0  0  0
  -23.7368  -28.5924   21.3690 C   0  0  0  0  0  0  0  0  0  0  0  0
  -29.3299  -23.3310   20.5079 C   0  0  0  0  0  0  0  0  0  0  0  0
  -24.3140  -35.3758   23.7695 C   0  0  0  0  0  0  0  0  0  0  0  0
  -29.6377  -11.4539   20.4244 C   0  0  0  0  0  0  0  0  0  0  0  0
  -24.5422  -34.0048   24.3980 C   0  0  0  0  0  0  0  0  0  0  0  0
  -28.1343  -11.7190   20.5416 C   0  0  0  0  0  0  0  0  0  0  0  0
  -30.2585  -12.2148   19.2537 C   0  0  0  0  0  0  0  0  0  0  0  0
  -28.4841  -13.9180   19.3474 C   0  0  0  0  0  0  0  0  0  0  0  0
  -25.5814  -33.2013   23.6068 C   0  0  1  0  0  0  0  0  0  0  0  0
  -23.7588  -31.0840   21.0322 C   0  0  1  0  0  0  0  0  0  0  0  0
  -27.8255  -13.2296   20.5539 C   0  0  1  0  0  0  0  0  0  0  0  0
  -17.9870  -26.2405   19.2353 C   0  0  0  0  0  0  0  0  0  0  0  0
  -21.1280  -29.1379   24.2959 C   0  0  0  0  0  0  0  0  0  0  0  0
  -19.4941  -27.4235   23.4839 C   0  0  0  0  0  0  0  0  0  0  0  0
  -19.0725  -29.8452   23.0594 C   0  0  0  0  0  0  0  0  0  0  0  0
  -20.8873  -27.2505   16.9894 C   0  0  0  0  0  0  0  0  0  0  0  0
  -20.8952  -28.6597   21.7694 C   0  0  1  0  0  0  0  0  0  0  0  0
  -19.1555  -27.1024   18.7832 C   0  0  2  0  0  0  0  0  0  0  0  0
  -20.1743  -28.7665   23.1429 C   0  0  0  0  0  0  0  0  0  0  0  0
  -25.4900  -12.6376   20.0289 N   0  0  0  0  0  0  0  0  0  0  0  0
  -26.3344  -13.5015   20.6179 N   0  0  0  0  0  0  0  0  0  0  0  0
  -28.8876  -22.0606   19.9606 N   0  0  0  0  0  0  0  0  0  0  0  0
  -22.9895  -29.8498   21.2021 N   0  0  0  0  0  0  0  0  0  0  0  0
  -29.9278  -13.6381   19.3439 N   0  0  0  0  0  0  0  0  0  0  0  0
  -26.4123  -15.5159   21.8616 N   0  0  0  0  0  0  0  0  0  0  0  0
  -21.9937  -14.8885   21.1703 N   0  0  0  0  0  0  0  0  0  0  0  0
  -30.5425  -15.9125   19.5750 N   0  0  0  0  0  0  0  0  0  0  0  0
  -24.9883  -32.6516   22.4066 N   0  0  0  0  0  0  0  0  0  0  0  0
  -20.0119  -28.3357   20.6545 N   0  0  0  0  0  0  0  0  0  0  0  0
  -19.7422  -26.4927   17.5564 N   0  3  0  0  0  0  0  0  0  0  0  0
  -26.8051  -22.0346   18.8283 O   0  0  0  0  0  0  0  0  0  0  0  0
  -32.6234  -16.9411   19.7845 O   0  0  0  0  0  0  0  0  0  0  0  0
  -23.5512  -16.2818   22.1145 O   0  0  0  0  0  0  0  0  0  0  0  0
  -24.0756  -30.7254   23.3443 O   0  0  0  0  0  0  0  0  0  0  0  0
  -20.9483  -30.9753   21.2580 O   0  0  0  0  0  0  0  0  0  0  0  0
  -21.1137  -26.3994   20.0113 O   0  0  0  0  0  0  0  0  0  0  0  0
  -32.1568  -14.2687   19.4738 O   0  0  0  0  0  0  0  0  0  0  0  0
  -19.6617  -10.6499   18.4077 O   0  0  0  0  0  0  0  0  0  0  0  0
  -27.9044  -26.1974   20.4559 O   0  0  0  0  0  0  0  0  0  1  0  0
  -19.2642   -5.1932   19.0933 F   0  0  0  0  0  0  0  0  0  0  0  0
  -21.5186   -8.9399   17.2807 F   0  0  0  0  0  0  0  0  0  0  0  0
  1  2  1  0  0  0  0
  1  7  2  0  0  0  0
  2  8  2  0  0  0  0
  3 12  2  0  0  0  0
  3 19  1  0  0  0  0
  4 13  1  0  0  0  0
  4 19  2  0  0  0  0
  5 10  2  0  0  0  0
  5 20  1  0  0  0  0
  6 11  1  0  0  0  0
  6 20  2  0  0  0  0
  7 22  1  0  0  0  0
  8 24  1  0  0  0  0
  9 14  2  0  0  0  0
  9 23  1  0  0  0  0
 10 26  1  0  0  0  0
 11 26  2  0  0  0  0
 12 27  1  0  0  0  0
 13 27  2  0  0  0  0
 14 28  1  0  0  0  0
 15 16  2  0  0  0  0
 15 29  1  0  0  0  0
 16 30  1  0  0  0  0
 17 25  1  0  0  0  0
 17 28  2  0  0  0  0
 18 30  2  0  0  0  0
 18 31  1  0  0  0  0
 19 32  1  0  0  0  0
 20 37  1  0  0  0  0
 21 32  1  0  0  0  0
 21 33  2  0  0  0  0
 21 38  1  0  0  0  0
 22 24  2  0  0  0  0
 22 43  1  0  0  0  0
 23 25  2  0  0  0  0
 23 44  1  0  0  0  0
 24 53  1  0  0  0  0
 25 45  1  0  0  0  0
 26 66  1  0  0  0  0
 27 82  1  0  0  0  0
 28 83  1  0  0  0  0
 29 31  2  0  0  0  0
 29 82  1  0  0  0  0
 30 84  1  0  0  0  0
 31 85  1  0  0  0  0
 32 64  2  0  0  0  0
 33 65  1  0  0  0  0
 33 69  1  0  0  0  0
 34 35  1  0  0  0  0
 34 36  2  0  0  0  0
 34 46  1  0  0  0  0
 35 66  1  0  0  0  0
 35 75  2  0  0  0  0
 36 83  1  0  0  0  0
 37 71  1  0  0  0  0
 37 76  2  0  0  0  0
 38 70  1  0  0  0  0
 38 77  2  0  0  0  0
 39 54  1  0  0  0  0
 39 72  1  0  0  0  0
 39 78  2  0  0  0  0
 40 61  1  0  0  0  0
 40 67  1  0  0  0  0
 40 79  2  0  0  0  0
 41 62  1  0  0  0  0
 41 73  1  0  0  0  0
 41 80  2  0  0  0  0
 42 68  1  0  0  0  0
 42 71  1  0  0  0  0
 42 81  2  0  0  0  0
 43 47  1  0  0  0  0
 44 54  1  0  0  0  0
 45 67  1  0  0  0  0
 46 66  1  0  0  0  0
 47 49  1  0  0  0  0
 48 50  1  0  0  0  0
 48 51  1  0  0  0  0
 49 53  1  0  0  0  0
 50 55  1  0  0  0  0
 51 68  1  0  0  0  0
 52 55  1  0  0  0  0
 52 68  1  0  0  0  0
 53 72  1  0  0  0  0
 54 67  1  0  0  0  0
 55 65  1  0  0  0  0
 56 62  1  0  0  0  0
 57 63  1  0  0  0  0
 58 63  1  0  0  0  0
 59 63  1  0  0  0  0
 60 74  1  0  0  0  0
 61 63  1  0  0  0  0
 61 73  1  0  0  0  0
 62 74  1  0  0  0  0
 64 65  1  0  0  0  0
M  CHG  1  74   1
M  ISO  4  36 101  42 100  71 100  83 101
M  END
> <Batch ID>
0086

> <Smiles>
CNC(C)C(=O)NC(C(=O)N1Cc2cc([101O:1][101CH:1]=C3CN(c4ccc(C(=O)[100NH:0][100C:0](=O)N5CCCC(n6nc(-c7ccc(Oc8ccc(F)cc8F)cc7)c(C(N)=O)c6N)C5)cc4)C3=O)ccc2CC1C(=O)NC1CCCc2ccccc21)C(C)(C)C

> <Shape>
0.299

> <Color>
0.081

> <Negative vol penalty>
0.000

$$$$

  -OEChem-04052300173D

 80 88  0     1  0  0  0  0  0999 V2000
  -16.4710  -25.2745   22.5252 C   0  0  0  0  0  0  0  0  0  0  0  0
  -17.3678  -24.9582   21.5097 C   0  0  0  0  0  0  0  0  0  0  0  0
  -22.9399  -10.2768   20.9107 C   0  0  0  0  0  0  0  0  0  0  0  0
  -24.6642   -8.8498   21.8202 C   0  0  0  0  0  0  0  0  0  0  0  0
  -16.6247  -26.4583   23.2455 C   0  0  0  0  0  0  0  0  0  0  0  0
  -18.4181  -25.8261   21.2133 C   0  0  0  0  0  0  0  0  0  0  0  0
  -22.8203  -23.4041   20.5812 C   0  0  0  0  0  0  0  0  0  0  0  0
  -22.0477   -9.2047   20.9197 C   0  0  0  0  0  0  0  0  0  0  0  0
  -23.7720   -7.7776   21.8292 C   0  0  0  0  0  0  0  0  0  0  0  0
  -23.0215  -22.7563   19.3632 C   0  0  0  0  0  0  0  0  0  0  0  0
  -21.2217   -6.6776   23.7545 C   0  0  0  0  0  0  0  0  0  0  0  0
  -21.1818   -5.8795   24.8977 C   0  0  0  0  0  0  0  0  0  0  0  0
  -24.3585  -24.6145   18.6025 C   0  0  0  0  0  0  0  0  0  0  0  0
  -26.3506  -17.6590   15.2016 C   0  0  0  0  0  0  0  0  0  0  0  0
  -21.8052   -3.9554   23.5761 C   0  0  0  0  0  0  0  0  0  0  0  0
  -24.2481  -10.0994   21.3609 C   0  0  0  0  0  0  0  0  0  0  0  0
  -25.3942  -12.1354   22.3850 C   0  0  0  0  0  0  0  0  0  0  0  0
  -17.6831  -27.3365   22.9643 C   0  0  0  0  0  0  0  0  0  0  0  0
  -23.3787  -24.6689   20.8154 C   0  0  0  0  0  0  0  0  0  0  0  0
  -18.5853  -27.0234   21.9297 C   0  0  0  0  0  0  0  0  0  0  0  0
  -24.1650  -25.2751   19.8253 C   0  0  0  0  0  0  0  0  0  0  0  0
  -25.6971  -18.8930   14.9178 C   0  0  0  0  0  0  0  0  0  0  0  0
  -22.4638   -7.9550   21.3790 C   0  0  0  0  0  0  0  0  0  0  0  0
  -23.7882  -23.3627   18.3725 C   0  0  0  0  0  0  0  0  0  0  0  0
  -21.5534   -6.1147   22.5221 C   0  0  0  0  0  0  0  0  0  0  0  0
  -21.4735   -4.5184   24.8086 C   0  0  0  0  0  0  0  0  0  0  0  0
  -21.8451   -4.7536   22.4329 C   0  0  0  0  0  0  0  0  0  0  0  0
  -25.1704  -11.2064   21.3512 C   0  0  0  0  0  0  0  0  0  0  0  0
  -25.4455  -19.6200   16.0605 C   0  0  0  0  0  0  0  0  0  0  0  0
  -26.3566  -12.9789   21.8862 C   0  0  0  0  0  0  0  0  0  0  0  0
  -26.5739  -17.4901   16.5505 C   0  0  0  0  0  0  0  0  0  0  0  0
  -24.7958  -20.9327   16.2052 C   0  0  0  0  0  0  0  0  0  0  0  0
  -24.7866  -12.2275   23.6804 C   0  0  0  0  0  0  0  0  0  0  0  0
  -22.2071  -27.5589   21.4313 C   0  0  0  0  0  0  0  0  0  0  0  0
  -25.3363  -28.3159   21.8279 C   0  0  0  0  0  0  0  0  0  0  0  0
  -28.6003  -27.6043   21.1298 C   0  0  0  0  0  0  0  0  0  0  0  0
  -27.7018  -15.2721   16.6093 C   0  0  0  0  0  0  0  0  0  0  0  0
  -17.7807  -28.6272   23.7384 C   0  0  0  0  0  0  0  0  0  0  0  0
  -23.1745  -25.3427   22.1446 C   0  0  0  0  0  0  0  0  0  0  0  0
  -24.8033  -26.6232   20.0345 C   0  0  0  0  0  0  0  0  0  0  0  0
  -19.1392  -29.3118   23.6123 C   0  0  0  0  0  0  0  0  0  0  0  0
  -29.7366  -12.7013   18.3006 C   0  0  0  0  0  0  0  0  0  0  0  0
  -19.5866  -29.3456   22.1544 C   0  0  0  0  0  0  0  0  0  0  0  0
  -28.7580  -12.1014   19.3088 C   0  0  0  0  0  0  0  0  0  0  0  0
  -29.0213  -13.2242   17.0584 C   0  0  0  0  0  0  0  0  0  0  0  0
  -26.9527  -13.5976   18.3668 C   0  0  0  0  0  0  0  0  0  0  0  0
  -19.7519  -27.9274   21.5950 C   0  0  1  0  0  0  0  0  0  0  0  0
  -23.3638  -26.8553   22.0830 C   0  0  1  0  0  0  0  0  0  0  0  0
  -27.6387  -13.1007   19.6483 C   0  0  1  0  0  0  0  0  0  0  0  0
  -25.3365  -19.3302   13.5473 C   0  0  0  0  0  0  0  0  0  0  0  0
  -30.9318  -28.4237   21.5655 C   0  0  0  0  0  0  0  0  0  0  0  0
  -24.9153  -30.5744   19.8200 C   0  0  0  0  0  0  0  0  0  0  0  0
  -27.4025  -30.7315   19.5807 C   0  0  0  0  0  0  0  0  0  0  0  0
  -26.3331  -31.1800   21.7892 C   0  0  0  0  0  0  0  0  0  0  0  0
  -27.5155  -16.6096   18.6941 C   0  0  0  0  0  0  0  0  0  0  0  0
  -29.3619  -25.0781   22.4703 C   0  0  0  0  0  0  0  0  0  0  0  0
  -26.4404  -28.8072   20.9231 C   0  0  1  0  0  0  0  0  0  0  0  0
  -29.8208  -27.4927   22.0255 C   0  0  2  0  0  0  0  0  0  0  0  0
  -26.2593  -30.2987   20.5233 C   0  0  0  0  0  0  0  0  0  0  0  0
  -25.9293  -11.4378   20.2768 N   0  0  0  0  0  0  0  0  0  0  0  0
  -24.6288  -21.4949   17.3577 N   0  0  0  0  0  0  0  0  0  1  0  0
  -26.6394  -12.5219   20.6327 N   0  0  0  0  0  0  0  0  0  0  0  0
  -24.5692  -27.2446   21.3485 N   0  0  0  0  0  0  0  0  0  0  0  0
  -27.9328  -14.1365   17.4114 N   0  0  0  0  0  0  0  0  0  0  0  0
  -26.9800  -14.0596   22.4020 N   0  0  0  0  0  0  0  0  0  0  0  0
  -23.8158  -11.2798   24.0320 N   0  0  0  0  0  0  0  0  0  0  0  0
  -20.9934  -27.3438   22.0559 N   0  0  0  0  0  0  0  0  0  0  0  0
  -27.6926  -28.5218   21.6152 N   0  0  0  0  0  0  0  0  0  0  0  0
  -27.1954  -16.4082   17.2771 N   0  0  0  0  0  0  0  0  0  0  0  0
  -30.3434  -26.0971   22.0173 N   0  3  0  0  0  0  0  0  0  0  0  0
  -25.0836  -13.1335   24.4956 O   0  0  0  0  0  0  0  0  0  0  0  0
  -22.4017  -28.2473   20.4363 O   0  0  0  0  0  0  0  0  0  0  0  0
  -25.1656  -28.8577   22.9228 O   0  0  0  0  0  0  0  0  0  0  0  0
  -28.4672  -26.9463   20.1003 O   0  0  0  0  0  0  0  0  0  0  0  0
  -27.9563  -15.2788   15.3990 O   0  0  0  0  0  0  0  0  0  0  0  0
  -21.5934   -6.9087   21.3882 O   0  0  0  0  0  0  0  0  0  0  0  0
  -23.9856  -22.7328   17.1825 O   0  0  0  0  0  0  0  0  0  1  0  0
  -21.4366   -3.7523   25.9067 F   0  0  0  0  0  0  0  0  0  0  0  0
  -22.1655   -4.2074   21.2519 F   0  0  0  0  0  0  0  0  0  0  0  0
  -25.9964  -18.8155   17.4682 S   0  0  0  0  0  0  0  0  0  0  0  0
  1  2  1  0  0  0  0
  1  5  2  0  0  0  0
  2  6  2  0  0  0  0
  3  8  2  0  0  0  0
  3 16  1  0  0  0  0
  4  9  1  0  0  0  0
  4 16  2  0  0  0  0
  5 18  1  0  0  0  0
  6 20  1  0  0  0  0
  7 10  2  0  0  0  0
  7 19  1  0  0  0  0
  8 23  1  0  0  0  0
  9 23  2  0  0  0  0
 10 24  1  0  0  0  0
 11 12  2  0  0  0  0
 11 25  1  0  0  0  0
 12 26  1  0  0  0  0
 13 21  1  0  0  0  0
 13 24  2  0  0  0  0
 14 22  1  0  0  0  0
 14 31  2  0  0  0  0
 15 26  2  0  0  0  0
 15 27  1  0  0  0  0
 16 28  1  0  0  0  0
 17 28  1  0  0  0  0
 17 30  2  0  0  0  0
 17 33  1  0  0  0  0
 18 20  2  0  0  0  0
 18 38  1  0  0  0  0
 19 21  2  0  0  0  0
 19 39  1  0  0  0  0
 20 47  1  0  0  0  0
 21 40  1  0  0  0  0
 22 29  2  0  0  0  0
 22 50  1  0  0  0  0
 23 76  1  0  0  0  0
 24 77  1  0  0  0  0
 25 27  2  0  0  0  0
 25 76  1  0  0  0  0
 26 78  1  0  0  0  0
 27 79  1  0  0  0  0
 28 60  2  0  0  0  0
 29 32  1  0  0  0  0
 29 80  1  0  0  0  0
 30 62  1  0  0  0  0
 30 65  1  0  0  0  0
 31 69  1  0  0  0  0
 31 80  1  0  0  0  0
 32 61  2  0  0  0  0
 33 66  1  0  0  0  0
 33 71  2  0  0  0  0
 34 48  1  0  0  0  0
 34 67  1  0  0  0  0
 34 72  2  0  0  0  0
 35 57  1  0  0  0  0
 35 63  1  0  0  0  0
 35 73  2  0  0  0  0
 36 58  1  0  0  0  0
 36 68  1  0  0  0  0
 36 74  2  0  0  0  0
 37 64  1  0  0  0  0
 37 69  1  0  0  0  0
 37 75  2  0  0  0  0
 38 41  1  0  0  0  0
 39 48  1  0  0  0  0
 40 63  1  0  0  0  0
 41 43  1  0  0  0  0
 42 44  1  0  0  0  0
 42 45  1  0  0  0  0
 43 47  1  0  0  0  0
 44 49  1  0  0  0  0
 45 64  1  0  0  0  0
 46 49  1  0  0  0  0
 46 64  1  0  0  0  0
 47 67  1  0  0  0  0
 48 63  1  0  0  0  0
 49 62  1  0  0  0  0
 51 58  1  0  0  0  0
 52 59  1  0  0  0  0
 53 59  1  0  0  0  0
 54 59  1  0  0  0  0
 55 69  1  0  0  0  0
 56 70  1  0  0  0  0
 57 59  1  0  0  0  0
 57 68  1  0  0  0  0
 58 70  1  0  0  0  0
 60 62  1  0  0  0  0
 61 77  1  0  0  0  0
M  CHG  1  70   1
M  ISO  4  37 100  61 101  69 100  77 101
M  END
> <Batch ID>
0086

> <Smiles>
CNC(C)C(=O)NC(C(=O)N1Cc2cc([101O:1][101N:1]=Cc3sc([100N:0](C)[100C:0](=O)N4CCCC(n5nc(-c6ccc(Oc7ccc(F)cc7F)cc6)c(C(N)=O)c5N)C4)cc3C)ccc2CC1C(=O)NC1CCCc2ccccc21)C(C)(C)C

> <Shape>
0.256

> <Color>
0.120

> <Negative vol penalty>
0.000

$$$$

  -OEChem-04052300173D

 84 93  0     1  0  0  0  0  0999 V2000
  -33.9935  -34.5572   20.2742 C   0  0  0  0  0  0  0  0  0  0  0  0
  -33.4992  -33.2637   20.4080 C   0  0  0  0  0  0  0  0  0  0  0  0
  -24.4021   -8.6430   21.3490 C   0  0  0  0  0  0  0  0  0  0  0  0
  -24.4334  -10.2093   23.1883 C   0  0  0  0  0  0  0  0  0  0  0  0
  -33.5372  -35.5675   21.1199 C   0  0  0  0  0  0  0  0  0  0  0  0
  -32.5493  -32.9794   21.3883 C   0  0  0  0  0  0  0  0  0  0  0  0
  -28.7599  -30.1068   19.6466 C   0  0  0  0  0  0  0  0  0  0  0  0
  -29.1808  -20.3231   19.6723 C   0  0  0  0  0  0  0  0  0  0  0  0
  -29.2132  -18.9434   19.4697 C   0  0  0  0  0  0  0  0  0  0  0  0
  -24.0912   -7.6104   22.2336 C   0  0  0  0  0  0  0  0  0  0  0  0
  -24.1225   -9.1767   24.0729 C   0  0  0  0  0  0  0  0  0  0  0  0
  -29.0092  -28.7426   19.5028 C   0  0  0  0  0  0  0  0  0  0  0  0
  -21.3562   -6.4556   23.8521 C   0  0  0  0  0  0  0  0  0  0  0  0
  -20.3477   -5.5662   23.4815 C   0  0  0  0  0  0  0  0  0  0  0  0
  -27.8763  -28.3217   21.5905 C   0  0  0  0  0  0  0  0  0  0  0  0
  -26.7657  -20.2728   19.6282 C   0  0  0  0  0  0  0  0  0  0  0  0
  -21.9221   -3.7367   23.5878 C   0  0  0  0  0  0  0  0  0  0  0  0
  -24.5733   -9.9425   21.8263 C   0  0  0  0  0  0  0  0  0  0  0  0
  -23.9911  -11.8389   20.2224 C   0  0  0  0  0  0  0  0  0  0  0  0
  -32.5741  -35.2975   22.1048 C   0  0  0  0  0  0  0  0  0  0  0  0
  -28.0753  -30.5906   20.7707 C   0  0  0  0  0  0  0  0  0  0  0  0
  -32.0807  -33.9866   22.2489 C   0  0  0  0  0  0  0  0  0  0  0  0
  -27.6173  -29.6921   21.7450 C   0  0  0  0  0  0  0  0  0  0  0  0
  -26.7981  -18.8931   19.4256 C   0  0  0  0  0  0  0  0  0  0  0  0
  -27.9570  -20.9878   19.7516 C   0  0  0  0  0  0  0  0  0  0  0  0
  -28.0219  -18.2284   19.3464 C   0  0  0  0  0  0  0  0  0  0  0  0
  -23.9514   -7.8772   23.5956 C   0  0  0  0  0  0  0  0  0  0  0  0
  -28.5699  -27.8501   20.4763 C   0  0  0  0  0  0  0  0  0  0  0  0
  -22.6478   -5.9857   24.0905 C   0  0  0  0  0  0  0  0  0  0  0  0
  -20.6306   -4.2067   23.3494 C   0  0  0  0  0  0  0  0  0  0  0  0
  -22.9307   -4.6262   23.9584 C   0  0  0  0  0  0  0  0  0  0  0  0
  -24.8950  -11.0095   20.9131 C   0  0  0  0  0  0  0  0  0  0  0  0
  -24.7901  -12.6833   19.4909 C   0  0  0  0  0  0  0  0  0  0  0  0
  -27.8616  -24.3380   20.1513 C   0  0  0  0  0  0  0  0  0  0  0  0
  -26.9049  -23.2337   20.0696 C   0  0  0  0  0  0  0  0  0  0  0  0
  -27.7412  -25.6712   20.2855 C   0  0  0  0  0  0  0  0  0  1  0  0
  -22.5575  -11.8455   20.2406 C   0  0  0  0  0  0  0  0  0  0  0  0
  -28.7928  -32.5654   23.1559 C   0  0  0  0  0  0  0  0  0  0  0  0
  -25.6633  -32.1662   23.9104 C   0  0  0  0  0  0  0  0  0  0  0  0
  -22.8586  -30.2323   23.7099 C   0  0  0  0  0  0  0  0  0  0  0  0
  -29.2167  -16.0312   19.0446 C   0  0  0  0  0  0  0  0  0  0  0  0
  -32.1463  -36.4119   23.0266 C   0  0  0  0  0  0  0  0  0  0  0  0
  -27.7909  -32.0621   20.8978 C   0  0  0  0  0  0  0  0  0  0  0  0
  -26.8602  -30.1586   22.9605 C   0  0  0  0  0  0  0  0  0  0  0  0
  -28.9866  -23.3372   20.0189 C   0  0  0  0  0  0  0  0  0  0  0  0
  -30.8619  -36.1085   23.7939 C   0  0  0  0  0  0  0  0  0  0  0  0
  -29.7677  -12.5441   18.5822 C   0  0  0  0  0  0  0  0  0  0  0  0
  -30.9131  -34.7038   24.3862 C   0  0  0  0  0  0  0  0  0  0  0  0
  -28.4748  -11.9023   19.0906 C   0  0  0  0  0  0  0  0  0  0  0  0
  -30.1614  -13.7629   19.4149 C   0  0  0  0  0  0  0  0  0  0  0  0
  -27.8173  -14.1351   20.0751 C   0  0  0  0  0  0  0  0  0  0  0  0
  -31.0312  -33.6442   23.2840 C   0  0  1  0  0  0  0  0  0  0  0  0
  -27.5348  -32.4991   22.3369 C   0  0  1  0  0  0  0  0  0  0  0  0
  -27.3454  -12.9421   19.2278 C   0  0  2  0  0  0  0  0  0  0  0  0
  -25.5068  -18.1521   19.2991 C   0  0  0  0  0  0  0  0  0  0  0  0
  -20.4647  -30.1503   24.4580 C   0  0  0  0  0  0  0  0  0  0  0  0
  -26.5694  -31.3780   26.7154 C   0  0  0  0  0  0  0  0  0  0  0  0
  -24.2915  -30.4148   27.1050 C   0  0  0  0  0  0  0  0  0  0  0  0
  -24.5511  -32.8531   26.6471 C   0  0  0  0  0  0  0  0  0  0  0  0
  -21.8662  -30.2297   20.9217 C   0  0  0  0  0  0  0  0  0  0  0  0
  -24.8854  -31.1964   24.7668 C   0  0  1  0  0  0  0  0  0  0  0  0
  -21.4226  -30.5740   23.3555 C   0  0  2  0  0  0  0  0  0  0  0  0
  -25.0903  -31.4517   26.2867 C   0  0  0  0  0  0  0  0  0  0  0  0
  -26.1706  -11.3005   20.6442 N   0  0  0  0  0  0  0  0  0  0  0  0
  -26.0739  -12.3222   19.7764 N   0  0  0  0  0  0  0  0  0  0  0  0
  -27.9253  -22.3480   19.9540 N   0  0  0  0  0  0  0  0  0  0  0  0
  -26.6123  -31.6075   23.0427 N   0  0  0  0  0  0  0  0  0  0  0  0
  -29.0442  -14.7062   19.4976 N   0  0  0  0  0  0  0  0  0  0  0  0
  -24.5127  -13.6919   18.6376 N   0  0  0  0  0  0  0  0  0  0  0  0
  -21.8952  -10.9102   21.0474 N   0  0  0  0  0  0  0  0  0  0  0  0
  -28.0759  -16.8272   19.1427 N   0  0  0  0  0  0  0  0  0  0  0  0
  -29.7477  -33.4276   22.6516 N   0  0  0  0  0  0  0  0  0  0  0  0
  -23.4971  -31.2868   24.3275 N   0  0  0  0  0  0  0  0  0  0  0  0
  -21.0224  -29.8866   22.0953 N   0  3  0  0  0  0  0  0  0  0  0  0
  -25.6951  -23.1412   20.0842 O   0  0  0  0  0  0  0  0  0  0  0  0
  -21.8835  -12.6460   19.5489 O   0  0  0  0  0  0  0  0  0  0  0  0
  -28.8893  -31.8859   24.1711 O   0  0  0  0  0  0  0  0  0  0  0  0
  -25.4323  -33.3744   24.0028 O   0  0  0  0  0  0  0  0  0  0  0  0
  -23.3623  -29.1379   23.4667 O   0  0  0  0  0  0  0  0  0  0  0  0
  -30.2891  -16.4227   18.5770 O   0  0  0  0  0  0  0  0  0  0  0  0
  -23.6478   -6.8699   24.4591 O   0  0  0  0  0  0  0  0  0  0  0  0
  -28.8125  -26.5182   20.3387 O   0  0  0  0  0  0  0  0  0  1  0  0
  -19.6617   -3.3525   22.9950 F   0  0  0  0  0  0  0  0  0  0  0  0
  -24.1692   -4.1686   24.1873 F   0  0  0  0  0  0  0  0  0  0  0  0
  1  2  1  0  0  0  0
  1  5  2  0  0  0  0
  2  6  2  0  0  0  0
  3 10  2  0  0  0  0
  3 18  1  0  0  0  0
  4 11  1  0  0  0  0
  4 18  2  0  0  0  0
  5 20  1  0  0  0  0
  6 22  1  0  0  0  0
  7 12  2  0  0  0  0
  7 21  1  0  0  0  0
  8  9  2  0  0  0  0
  8 25  1  0  0  0  0
  9 26  1  0  0  0  0
 10 27  1  0  0  0  0
 11 27  2  0  0  0  0
 12 28  1  0  0  0  0
 13 14  2  0  0  0  0
 13 29  1  0  0  0  0
 14 30  1  0  0  0  0
 15 23  1  0  0  0  0
 15 28  2  0  0  0  0
 16 24  1  0  0  0  0
 16 25  2  0  0  0  0
 17 30  2  0  0  0  0
 17 31  1  0  0  0  0
 18 32  1  0  0  0  0
 19 32  1  0  0  0  0
 19 33  2  0  0  0  0
 19 37  1  0  0  0  0
 20 22  2  0  0  0  0
 20 42  1  0  0  0  0
 21 23  2  0  0  0  0
 21 43  1  0  0  0  0
 22 52  1  0  0  0  0
 23 44  1  0  0  0  0
 24 26  2  0  0  0  0
 24 55  1  0  0  0  0
 25 66  1  0  0  0  0
 26 71  1  0  0  0  0
 27 81  1  0  0  0  0
 28 82  1  0  0  0  0
 29 31  2  0  0  0  0
 29 81  1  0  0  0  0
 30 83  1  0  0  0  0
 31 84  1  0  0  0  0
 32 64  2  0  0  0  0
 33 65  1  0  0  0  0
 33 69  1  0  0  0  0
 34 35  1  0  0  0  0
 34 36  2  0  0  0  0
 34 45  1  0  0  0  0
 35 66  1  0  0  0  0
 35 75  2  0  0  0  0
 36 82  1  0  0  0  0
 37 70  1  0  0  0  0
 37 76  2  0  0  0  0
 38 53  1  0  0  0  0
 38 72  1  0  0  0  0
 38 77  2  0  0  0  0
 39 61  1  0  0  0  0
 39 67  1  0  0  0  0
 39 78  2  0  0  0  0
 40 62  1  0  0  0  0
 40 73  1  0  0  0  0
 40 79  2  0  0  0  0
 41 68  1  0  0  0  0
 41 71  1  0  0  0  0
 41 80  2  0  0  0  0
 42 46  1  0  0  0  0
 43 53  1  0  0  0  0
 44 67  1  0  0  0  0
 45 66  1  0  0  0  0
 46 48  1  0  0  0  0
 47 49  1  0  0  0  0
 47 50  1  0  0  0  0
 48 52  1  0  0  0  0
 49 54  1  0  0  0  0
 50 68  1  0  0  0  0
 51 54  1  0  0  0  0
 51 68  1  0  0  0  0
 52 72  1  0  0  0  0
 53 67  1  0  0  0  0
 54 65  1  0  0  0  0
 56 62  1  0  0  0  0
 57 63  1  0  0  0  0
 58 63  1  0  0  0  0
 59 63  1  0  0  0  0
 60 74  1  0  0  0  0
 61 63  1  0  0  0  0
 61 73  1  0  0  0  0
 62 74  1  0  0  0  0
 64 65  1  0  0  0  0
M  CHG  1  74   1
M  ISO  4  36 101  41 100  71 100  82 101
M  END
> <Batch ID>
0086

> <Smiles>
CNC(C)C(=O)NC(C(=O)N1Cc2cc([101O:1][101CH:1]=C3CN(c4ccc([100NH:0][100C:0](=O)N5CCCC(n6nc(-c7ccc(Oc8ccc(F)cc8F)cc7)c(C(N)=O)c6N)C5)c(C)c4)C3=O)ccc2CC1C(=O)NC1CCCc2ccccc21)C(C)(C)C

> <Shape>
0.284

> <Color>
0.101

> <Negative vol penalty>
0.000

$$$$

  -OEChem-04052300173D

 85 94  0     1  0  0  0  0  0999 V2000
  -14.0906  -21.5896   26.6623 C   0  0  0  0  0  0  0  0  0  0  0  0
  -15.3958  -21.1688   26.4280 C   0  0  0  0  0  0  0  0  0  0  0  0
  -23.2730   -9.8496   19.8656 C   0  0  0  0  0  0  0  0  0  0  0  0
  -23.7444   -9.8977   22.2347 C   0  0  0  0  0  0  0  0  0  0  0  0
  -13.5433  -22.6189   25.8976 C   0  0  0  0  0  0  0  0  0  0  0  0
  -16.1541  -21.7765   25.4279 C   0  0  0  0  0  0  0  0  0  0  0  0
  -22.1882  -22.8201   25.5043 C   0  0  0  0  0  0  0  0  0  0  0  0
  -27.2333  -18.2644   19.4424 C   0  0  0  0  0  0  0  0  0  0  0  0
  -29.2179  -17.4978   20.5872 C   0  0  0  0  0  0  0  0  0  0  0  0
  -27.5624  -17.4731   18.3419 C   0  0  0  0  0  0  0  0  0  0  0  0
  -29.5470  -16.7064   19.4867 C   0  0  0  0  0  0  0  0  0  0  0  0
  -22.5447   -8.6720   20.0344 C   0  0  0  0  0  0  0  0  0  0  0  0
  -23.0160   -8.7202   22.4036 C   0  0  0  0  0  0  0  0  0  0  0  0
  -23.2660  -22.1337   24.9465 C   0  0  0  0  0  0  0  0  0  0  0  0
  -19.7680   -7.8109   22.6137 C   0  0  0  0  0  0  0  0  0  0  0  0
  -18.8746   -7.7510   23.6832 C   0  0  0  0  0  0  0  0  0  0  0  0
  -23.2176  -23.6159   23.0439 C   0  0  0  0  0  0  0  0  0  0  0  0
  -27.8921  -20.3401   23.4807 C   0  0  0  0  0  0  0  0  0  0  0  0
  -20.0827   -5.8638   24.5866 C   0  0  0  0  0  0  0  0  0  0  0  0
  -26.4506  -19.3894   22.0357 C   0  0  0  0  0  0  0  0  0  0  0  0
  -23.8729  -10.4624   20.9658 C   0  0  0  0  0  0  0  0  0  0  0  0
  -24.1388  -12.9974   20.8622 C   0  0  0  0  0  0  0  0  0  0  0  0
  -14.2986  -23.2461   24.8941 C   0  0  0  0  0  0  0  0  0  0  0  0
  -21.6091  -23.9046   24.8298 C   0  0  0  0  0  0  0  0  0  0  0  0
  -15.6159  -22.8143   24.6481 C   0  0  0  0  0  0  0  0  0  0  0  0
  -22.1342  -24.3160   23.5965 C   0  0  0  0  0  0  0  0  0  0  0  0
  -26.5212  -20.1800   23.1614 C   0  0  0  0  0  0  0  0  0  0  0  0
  -28.0611  -18.2769   20.5650 C   0  0  0  0  0  0  0  0  0  0  0  0
  -28.7192  -16.6940   18.3641 C   0  0  0  0  0  0  0  0  0  0  0  0
  -22.4161   -8.1074   21.3034 C   0  0  0  0  0  0  0  0  0  0  0  0
  -23.7790  -22.5298   23.7148 C   0  0  0  0  0  0  0  0  0  0  0  0
  -20.8187   -6.8972   22.5306 C   0  0  0  0  0  0  0  0  0  0  0  0
  -19.0320   -6.7775   24.6697 C   0  0  0  0  0  0  0  0  0  0  0  0
  -20.9761   -5.9237   23.5170 C   0  0  0  0  0  0  0  0  0  0  0  0
  -24.6259  -11.6785   20.7919 C   0  0  0  0  0  0  0  0  0  0  0  0
  -25.2406  -13.7833   20.6279 C   0  0  0  0  0  0  0  0  0  0  0  0
  -28.6176  -19.6425   22.5402 C   0  0  0  0  0  0  0  0  0  0  0  0
  -22.8092  -13.4699   21.1167 C   0  0  0  0  0  0  0  0  0  0  0  0
  -18.7306  -24.5226   23.6314 C   0  0  0  0  0  0  0  0  0  0  0  0
  -20.0083  -27.4574   23.1056 C   0  0  0  0  0  0  0  0  0  0  0  0
  -22.8034  -29.3590   22.6381 C   0  0  0  0  0  0  0  0  0  0  0  0
  -29.7730  -14.6673   17.3280 C   0  0  0  0  0  0  0  0  0  0  0  0
  -13.6481  -24.3224   24.0616 C   0  0  0  0  0  0  0  0  0  0  0  0
  -20.4641  -24.6512   25.4574 C   0  0  0  0  0  0  0  0  0  0  0  0
  -21.5613  -25.4866   22.8415 C   0  0  0  0  0  0  0  0  0  0  0  0
  -14.6445  -25.1677   23.2723 C   0  0  0  0  0  0  0  0  0  0  0  0
  -30.1528  -12.6486   20.4059 C   0  0  0  0  0  0  0  0  0  0  0  0
  -15.6647  -24.2755   22.5725 C   0  0  0  0  0  0  0  0  0  0  0  0
  -28.7134  -12.2563   20.7341 C   0  0  0  0  0  0  0  0  0  0  0  0
  -30.3560  -12.8552   18.9080 C   0  0  0  0  0  0  0  0  0  0  0  0
  -27.9657  -13.4507   18.6375 C   0  0  0  0  0  0  0  0  0  0  0  0
  -16.4786  -23.4655   23.5889 C   0  0  1  0  0  0  0  0  0  0  0  0
  -19.6233  -25.4190   24.4421 C   0  0  1  0  0  0  0  0  0  0  0  0
  -27.7253  -13.2762   20.1445 C   0  0  1  0  0  0  0  0  0  0  0  0
  -23.5279  -31.7203   22.1948 C   0  0  0  0  0  0  0  0  0  0  0  0
  -19.1508  -27.1709   20.1915 C   0  0  0  0  0  0  0  0  0  0  0  0
  -20.6976  -29.0558   19.6236 C   0  0  0  0  0  0  0  0  0  0  0  0
  -18.7787  -29.4421   21.1699 C   0  0  0  0  0  0  0  0  0  0  0  0
  -28.8843  -16.4516   15.8933 C   0  0  0  0  0  0  0  0  0  0  0  0
  -24.3377  -29.4856   25.1657 C   0  0  0  0  0  0  0  0  0  0  0  0
  -25.3592  -20.7632   23.9104 C   0  0  0  0  0  0  0  0  0  1  0  0
  -20.7684  -28.1053   21.9736 C   0  0  1  0  0  0  0  0  0  0  0  0
  -23.2437  -30.6722   23.2595 C   0  0  2  0  0  0  0  0  0  0  0  0
  -19.8586  -28.4202   20.7527 C   0  0  0  0  0  0  0  0  0  0  0  0
  -25.9352  -11.6255   20.5330 N   0  0  0  0  0  0  0  0  0  0  0  0
  -27.7309  -19.0689   21.6668 N   0  0  0  0  0  0  0  0  0  0  0  0
  -26.2801  -12.9210   20.4385 N   0  0  0  0  0  0  0  0  0  0  0  0
  -20.4385  -26.1806   23.4936 N   0  0  0  0  0  0  0  0  0  0  0  0
  -29.3706  -13.7823   18.3493 N   0  0  0  0  0  0  0  0  0  0  0  0
  -25.4119  -15.1210   20.5673 N   0  0  0  0  0  0  0  0  0  0  0  0
  -21.7958  -12.5271   21.3367 N   0  0  0  0  0  0  0  0  0  0  0  0
  -17.4925  -24.2967   24.2019 N   0  0  0  0  0  0  0  0  0  0  0  0
  -21.4304  -29.2742   22.5427 N   0  0  0  0  0  0  0  0  0  0  0  0
  -29.0592  -15.8766   17.2252 N   0  0  0  0  0  0  0  0  0  0  0  0
  -24.4810  -30.4743   24.0663 N   0  3  0  0  0  0  0  0  0  0  0  0
  -22.5250  -14.6916   21.1317 O   0  0  0  0  0  0  0  0  0  0  0  0
  -19.1347  -24.0705   22.5665 O   0  0  0  0  0  0  0  0  0  0  0  0
  -19.0721  -28.0648   23.6312 O   0  0  0  0  0  0  0  0  0  0  0  0
  -23.5980  -28.4964   22.2705 O   0  0  0  0  0  0  0  0  0  0  0  0
  -30.6696  -14.3773   16.5265 O   0  0  0  0  0  0  0  0  0  0  0  0
  -29.9290  -19.4865   22.4049 O   0  0  0  0  0  0  0  0  0  0  0  0
  -21.7053   -6.9585   21.4685 O   0  0  0  0  0  0  0  0  0  0  0  0
  -24.8305  -21.8611   23.1678 O   0  0  0  0  0  0  0  0  0  1  0  0
  -18.1749   -6.7210   25.6975 F   0  0  0  0  0  0  0  0  0  0  0  0
  -21.9843   -5.0440   23.4432 F   0  0  0  0  0  0  0  0  0  0  0  0
  1  2  1  0  0  0  0
  1  5  2  0  0  0  0
  2  6  2  0  0  0  0
  3 12  2  0  0  0  0
  3 21  1  0  0  0  0
  4 13  1  0  0  0  0
  4 21  2  0  0  0  0
  5 23  1  0  0  0  0
  6 25  1  0  0  0  0
  7 14  2  0  0  0  0
  7 24  1  0  0  0  0
  8 10  2  0  0  0  0
  8 28  1  0  0  0  0
  9 11  1  0  0  0  0
  9 28  2  0  0  0  0
 10 29  1  0  0  0  0
 11 29  2  0  0  0  0
 12 30  1  0  0  0  0
 13 30  2  0  0  0  0
 14 31  1  0  0  0  0
 15 16  2  0  0  0  0
 15 32  1  0  0  0  0
 16 33  1  0  0  0  0
 17 26  1  0  0  0  0
 17 31  2  0  0  0  0
 18 27  1  0  0  0  0
 18 37  2  0  0  0  0
 19 33  2  0  0  0  0
 19 34  1  0  0  0  0
 20 27  2  0  0  0  0
 20 66  1  0  0  0  0
 21 35  1  0  0  0  0
 22 35  1  0  0  0  0
 22 36  2  0  0  0  0
 22 38  1  0  0  0  0
 23 25  2  0  0  0  0
 23 43  1  0  0  0  0
 24 26  2  0  0  0  0
 24 44  1  0  0  0  0
 25 52  1  0  0  0  0
 26 45  1  0  0  0  0
 27 61  1  0  0  0  0
 28 66  1  0  0  0  0
 29 74  1  0  0  0  0
 30 82  1  0  0  0  0
 31 83  1  0  0  0  0
 32 34  2  0  0  0  0
 32 82  1  0  0  0  0
 33 84  1  0  0  0  0
 34 85  1  0  0  0  0
 35 65  2  0  0  0  0
 36 67  1  0  0  0  0
 36 70  1  0  0  0  0
 37 66  1  0  0  0  0
 37 81  1  0  0  0  0
 38 71  1  0  0  0  0
 38 76  2  0  0  0  0
 39 53  1  0  0  0  0
 39 72  1  0  0  0  0
 39 77  2  0  0  0  0
 40 62  1  0  0  0  0
 40 68  1  0  0  0  0
 40 78  2  0  0  0  0
 41 63  1  0  0  0  0
 41 73  1  0  0  0  0
 41 79  2  0  0  0  0
 42 69  1  0  0  0  0
 42 74  1  0  0  0  0
 42 80  2  0  0  0  0
 43 46  1  0  0  0  0
 44 53  1  0  0  0  0
 45 68  1  0  0  0  0
 46 48  1  0  0  0  0
 47 49  1  0  0  0  0
 47 50  1  0  0  0  0
 48 52  1  0  0  0  0
 49 54  1  0  0  0  0
 50 69  1  0  0  0  0
 51 54  1  0  0  0  0
 51 69  1  0  0  0  0
 52 72  1  0  0  0  0
 53 68  1  0  0  0  0
 54 67  1  0  0  0  0
 55 63  1  0  0  0  0
 56 64  1  0  0  0  0
 57 64  1  0  0  0  0
 58 64  1  0  0  0  0
 59 74  1  0  0  0  0
 60 75  1  0  0  0  0
 61 83  1  0  0  0  0
 62 64  1  0  0  0  0
 62 73  1  0  0  0  0
 63 75  1  0  0  0  0
 65 67  1  0  0  0  0
M  CHG  1  75   1
M  ISO  4  42 100  61 101  74 100  83 101
M  END
> <Batch ID>
0086

> <Smiles>
CNC(C)C(=O)NC(C(=O)N1Cc2cc([101O:1][101CH2:1]C3=CN(c4ccc([100N:0](C)[100C:0](=O)N5CCCC(n6nc(-c7ccc(Oc8ccc(F)cc8F)cc7)c(C(N)=O)c6N)C5)cc4)C(=O)C3)ccc2CC1C(=O)NC1CCCc2ccccc21)C(C)(C)C

> <Shape>
0.238

> <Color>
0.203

> <Negative vol penalty>
0.000

$$$$

  -OEChem-04052300173D

 84 93  0     1  0  0  0  0  0999 V2000
  -16.7792  -21.8968   29.7052 C   0  0  0  0  0  0  0  0  0  0  0  0
  -17.9200  -21.2250   29.2778 C   0  0  0  0  0  0  0  0  0  0  0  0
  -23.2906   -9.7925   19.9099 C   0  0  0  0  0  0  0  0  0  0  0  0
  -23.7127   -9.9400   22.2842 C   0  0  0  0  0  0  0  0  0  0  0  0
  -16.2365  -22.9147   28.9220 C   0  0  0  0  0  0  0  0  0  0  0  0
  -18.5182  -21.5700   28.0664 C   0  0  0  0  0  0  0  0  0  0  0  0
  -24.5031  -21.5159   26.7687 C   0  0  0  0  0  0  0  0  0  0  0  0
  -29.2307  -17.4584   20.4334 C   0  0  0  0  0  0  0  0  0  0  0  0
  -27.2717  -18.1788   19.2167 C   0  0  0  0  0  0  0  0  0  0  0  0
  -29.5814  -16.6220   19.3737 C   0  0  0  0  0  0  0  0  0  0  0  0
  -27.6224  -17.3424   18.1569 C   0  0  0  0  0  0  0  0  0  0  0  0
  -22.5571   -8.6236   20.1129 C   0  0  0  0  0  0  0  0  0  0  0  0
  -22.9792   -8.7711   22.4872 C   0  0  0  0  0  0  0  0  0  0  0  0
  -25.3125  -20.5888   26.1135 C   0  0  0  0  0  0  0  0  0  0  0  0
  -19.7261   -7.8736   22.6678 C   0  0  0  0  0  0  0  0  0  0  0  0
  -18.8106   -7.8593   23.7201 C   0  0  0  0  0  0  0  0  0  0  0  0
  -25.0640  -21.8314   24.0609 C   0  0  0  0  0  0  0  0  0  0  0  0
  -19.9968   -6.0110   24.7270 C   0  0  0  0  0  0  0  0  0  0  0  0
  -23.8685  -10.4507   20.9956 C   0  0  0  0  0  0  0  0  0  0  0  0
  -24.1403  -12.9789   20.7910 C   0  0  0  0  0  0  0  0  0  0  0  0
  -16.8340  -23.2789   27.7050 C   0  0  0  0  0  0  0  0  0  0  0  0
  -23.9583  -22.6035   26.0711 C   0  0  0  0  0  0  0  0  0  0  0  0
  -17.9823  -22.5928   27.2655 C   0  0  0  0  0  0  0  0  0  0  0  0
  -24.2501  -22.7723   24.7100 C   0  0  0  0  0  0  0  0  0  0  0  0
  -28.0759  -18.2368   20.3549 C   0  0  0  0  0  0  0  0  0  0  0  0
  -28.7773  -16.5640   18.2354 C   0  0  0  0  0  0  0  0  0  0  0  0
  -22.4013   -8.1129   21.4016 C   0  0  0  0  0  0  0  0  0  0  0  0
  -25.5907  -20.7448   24.7588 C   0  0  0  0  0  0  0  0  0  0  0  0
  -20.7769   -6.9565   22.6451 C   0  0  0  0  0  0  0  0  0  0  0  0
  -18.9460   -6.9281   24.7497 C   0  0  0  0  0  0  0  0  0  0  0  0
  -20.9123   -6.0253   23.6747 C   0  0  0  0  0  0  0  0  0  0  0  0
  -24.6268  -11.6578   20.7864 C   0  0  0  0  0  0  0  0  0  0  0  0
  -25.2479  -13.7535   20.5468 C   0  0  0  0  0  0  0  0  0  0  0  0
  -28.3190  -19.3118   22.6105 C   0  0  0  0  0  0  0  0  0  0  0  0
  -26.6469  -19.8717   21.6150 C   0  0  0  0  0  0  0  0  0  0  0  0
  -22.8065  -13.4625   20.9977 C   0  0  0  0  0  0  0  0  0  0  0  0
  -21.0118  -23.5887   25.3992 C   0  0  0  0  0  0  0  0  0  0  0  0
  -22.5675  -26.1683   24.1960 C   0  0  0  0  0  0  0  0  0  0  0  0
  -25.4413  -27.4725   22.8971 C   0  0  0  0  0  0  0  0  0  0  0  0
  -29.8492  -14.4948   17.3077 C   0  0  0  0  0  0  0  0  0  0  0  0
  -16.1838  -24.3535   26.8701 C   0  0  0  0  0  0  0  0  0  0  0  0
  -23.1089  -23.6095   26.7984 C   0  0  0  0  0  0  0  0  0  0  0  0
  -23.7063  -23.9339   23.9205 C   0  0  0  0  0  0  0  0  0  0  0  0
  -17.0943  -24.9118   25.7793 C   0  0  0  0  0  0  0  0  0  0  0  0
  -30.1619  -12.6071   20.4750 C   0  0  0  0  0  0  0  0  0  0  0  0
  -17.7855  -23.7778   25.0288 C   0  0  0  0  0  0  0  0  0  0  0  0
  -28.7154  -12.2299   20.7894 C   0  0  0  0  0  0  0  0  0  0  0  0
  -30.3965  -12.7504   18.9743 C   0  0  0  0  0  0  0  0  0  0  0  0
  -28.0132  -13.3356   18.6293 C   0  0  0  0  0  0  0  0  0  0  0  0
  -18.6742  -22.9550   25.9693 C   0  0  1  0  0  0  0  0  0  0  0  0
  -27.1855  -20.2760   22.9965 C   0  0  0  0  0  0  0  0  0  1  0  0
  -22.1880  -24.3961   25.8707 C   0  0  1  0  0  0  0  0  0  0  0  0
  -27.7414  -13.2248   20.1370 C   0  0  1  0  0  0  0  0  0  0  0  0
  -26.3962  -29.6002   21.9705 C   0  0  0  0  0  0  0  0  0  0  0  0
  -21.0466  -25.7133   21.5903 C   0  0  0  0  0  0  0  0  0  0  0  0
  -22.6936  -27.2138   20.4482 C   0  0  0  0  0  0  0  0  0  0  0  0
  -21.2500  -28.1102   22.2746 C   0  0  0  0  0  0  0  0  0  0  0  0
  -28.9933  -16.2177   15.7810 C   0  0  0  0  0  0  0  0  0  0  0  0
  -27.5032  -27.6061   25.0159 C   0  0  0  0  0  0  0  0  0  0  0  0
  -23.1439  -26.5374   22.8505 C   0  0  1  0  0  0  0  0  0  0  0  0
  -26.2025  -28.7469   23.2144 C   0  0  2  0  0  0  0  0  0  0  0  0
  -22.0423  -26.8706   21.8050 C   0  0  0  0  0  0  0  0  0  0  0  0
  -25.9411  -11.5931   20.5573 N   0  0  0  0  0  0  0  0  0  0  0  0
  -26.2899  -12.8832   20.4155 N   0  0  0  0  0  0  0  0  0  0  0  0
  -27.7299  -19.0609   21.3995 N   0  0  0  0  0  0  0  0  0  0  0  0
  -22.8758  -24.8871   24.6749 N   0  0  0  0  0  0  0  0  0  0  0  0
  -29.4244  -13.6538   18.3567 N   0  0  0  0  0  0  0  0  0  0  0  0
  -25.4225  -15.0873   20.4336 N   0  0  0  0  0  0  0  0  0  0  0  0
  -21.7873  -12.5305   21.2360 N   0  0  0  0  0  0  0  0  0  0  0  0
  -19.9131  -23.6544   26.2347 N   0  0  0  0  0  0  0  0  0  0  0  0
  -24.0851  -27.6251   23.0941 N   0  0  0  0  0  0  0  0  0  0  0  0
  -29.1396  -15.6991   17.1393 N   0  0  0  0  0  0  0  0  0  0  0  0
  -27.5445  -28.4226   23.7755 N   0  3  0  0  0  0  0  0  0  0  0  0
  -29.3282  -18.8991   23.1359 O   0  0  0  0  0  0  0  0  0  0  0  0
  -25.6648  -20.1257   20.9550 O   0  0  0  0  0  0  0  0  0  0  0  0
  -22.5239  -14.6840   20.9554 O   0  0  0  0  0  0  0  0  0  0  0  0
  -21.0944  -22.9543   24.3541 O   0  0  0  0  0  0  0  0  0  0  0  0
  -21.8753  -26.9892   24.8031 O   0  0  0  0  0  0  0  0  0  0  0  0
  -25.9940  -26.4455   22.5093 O   0  0  0  0  0  0  0  0  0  0  0  0
  -30.7619  -14.1707   16.5379 O   0  0  0  0  0  0  0  0  0  0  0  0
  -21.6854   -6.9724   21.6001 O   0  0  0  0  0  0  0  0  0  0  0  0
  -26.3799  -19.8410   24.1168 O   0  0  0  0  0  0  0  0  0  1  0  0
  -18.0677   -6.9155   25.7610 F   0  0  0  0  0  0  0  0  0  0  0  0
  -21.9204   -5.1425   23.6590 F   0  0  0  0  0  0  0  0  0  0  0  0
  1  2  1  0  0  0  0
  1  5  2  0  0  0  0
  2  6  2  0  0  0  0
  3 12  2  0  0  0  0
  3 19  1  0  0  0  0
  4 13  1  0  0  0  0
  4 19  2  0  0  0  0
  5 21  1  0  0  0  0
  6 23  1  0  0  0  0
  7 14  2  0  0  0  0
  7 22  1  0  0  0  0
  8 10  2  0  0  0  0
  8 25  1  0  0  0  0
  9 11  1  0  0  0  0
  9 25  2  0  0  0  0
 10 26  1  0  0  0  0
 11 26  2  0  0  0  0
 12 27  1  0  0  0  0
 13 27  2  0  0  0  0
 14 28  1  0  0  0  0
 15 16  2  0  0  0  0
 15 29  1  0  0  0  0
 16 30  1  0  0  0  0
 17 24  1  0  0  0  0
 17 28  2  0  0  0  0
 18 30  2  0  0  0  0
 18 31  1  0  0  0  0
 19 32  1  0  0  0  0
 20 32  1  0  0  0  0
 20 33  2  0  0  0  0
 20 36  1  0  0  0  0
 21 23  2  0  0  0  0
 21 41  1  0  0  0  0
 22 24  2  0  0  0  0
 22 42  1  0  0  0  0
 23 50  1  0  0  0  0
 24 43  1  0  0  0  0
 25 65  1  0  0  0  0
 26 72  1  0  0  0  0
 27 81  1  0  0  0  0
 28 82  1  0  0  0  0
 29 31  2  0  0  0  0
 29 81  1  0  0  0  0
 30 83  1  0  0  0  0
 31 84  1  0  0  0  0
 32 63  2  0  0  0  0
 33 64  1  0  0  0  0
 33 68  1  0  0  0  0
 34 51  1  0  0  0  0
 34 65  1  0  0  0  0
 34 74  2  0  0  0  0
 35 51  1  0  0  0  0
 35 65  1  0  0  0  0
 35 75  2  0  0  0  0
 36 69  1  0  0  0  0
 36 76  2  0  0  0  0
 37 52  1  0  0  0  0
 37 70  1  0  0  0  0
 37 77  2  0  0  0  0
 38 60  1  0  0  0  0
 38 66  1  0  0  0  0
 38 78  2  0  0  0  0
 39 61  1  0  0  0  0
 39 71  1  0  0  0  0
 39 79  2  0  0  0  0
 40 67  1  0  0  0  0
 40 72  1  0  0  0  0
 40 80  2  0  0  0  0
 41 44  1  0  0  0  0
 42 52  1  0  0  0  0
 43 66  1  0  0  0  0
 44 46  1  0  0  0  0
 45 47  1  0  0  0  0
 45 48  1  0  0  0  0
 46 50  1  0  0  0  0
 47 53  1  0  0  0  0
 48 67  1  0  0  0  0
 49 53  1  0  0  0  0
 49 67  1  0  0  0  0
 50 70  1  0  0  0  0
 51 82  1  0  0  0  0
 52 66  1  0  0  0  0
 53 64  1  0  0  0  0
 54 61  1  0  0  0  0
 55 62  1  0  0  0  0
 56 62  1  0  0  0  0
 57 62  1  0  0  0  0
 58 72  1  0  0  0  0
 59 73  1  0  0  0  0
 60 62  1  0  0  0  0
 60 71  1  0  0  0  0
 61 73  1  0  0  0  0
 63 64  1  0  0  0  0
M  CHG  1  73   1
M  ISO  4  40 100  51 101  72 100  82 101
M  END
> <Batch ID>
0086

> <Smiles>
CNC(C)C(=O)NC(C(=O)N1Cc2cc([101O:1][101CH:1]3C(=O)N(c4ccc([100N:0](C)[100C:0](=O)N5CCCC(n6nc(-c7ccc(Oc8ccc(F)cc8F)cc7)c(C(N)=O)c6N)C5)cc4)C3=O)ccc2CC1C(=O)NC1CCCc2ccccc21)C(C)(C)C

> <Shape>
0.193

> <Color>
0.169

> <Negative vol penalty>
0.000

$$$$

  -OEChem-04052300173D

 84 92  0     1  0  0  0  0  0999 V2000
  -21.9444  -33.9386   19.3969 C   0  0  0  0  0  0  0  0  0  0  0  0
  -23.0588  -33.1203   19.5517 C   0  0  0  0  0  0  0  0  0  0  0  0
  -22.4634  -10.3191   22.1630 C   0  0  0  0  0  0  0  0  0  0  0  0
  -24.0508   -9.7796   20.4234 C   0  0  0  0  0  0  0  0  0  0  0  0
  -28.1130  -21.0073   19.4919 C   0  0  0  0  0  0  0  0  0  0  0  0
  -29.7376  -19.2640   19.8902 C   0  0  0  0  0  0  0  0  0  0  0  0
  -20.8757  -33.8347   20.2863 C   0  0  0  0  0  0  0  0  0  0  0  0
  -23.1056  -32.1984   20.5968 C   0  0  0  0  0  0  0  0  0  0  0  0
  -24.7845  -27.6584   19.1085 C   0  0  0  0  0  0  0  0  0  0  0  0
  -27.1999  -20.0536   19.0422 C   0  0  0  0  0  0  0  0  0  0  0  0
  -28.8245  -18.3103   19.4405 C   0  0  0  0  0  0  0  0  0  0  0  0
  -21.9642   -9.0177   22.1111 C   0  0  0  0  0  0  0  0  0  0  0  0
  -23.5515   -8.4782   20.3714 C   0  0  0  0  0  0  0  0  0  0  0  0
  -26.1598  -27.5152   18.9302 C   0  0  0  0  0  0  0  0  0  0  0  0
  -22.9370   -4.9109   20.0329 C   0  0  0  0  0  0  0  0  0  0  0  0
  -23.8573   -3.8639   19.9839 C   0  0  0  0  0  0  0  0  0  0  0  0
  -26.3237  -26.4564   21.0915 C   0  0  0  0  0  0  0  0  0  0  0  0
  -24.7763   -4.5725   22.1030 C   0  0  0  0  0  0  0  0  0  0  0  0
  -23.5067  -10.7001   21.3191 C   0  0  0  0  0  0  0  0  0  0  0  0
  -29.3820  -20.6125   19.9158 C   0  0  0  0  0  0  0  0  0  0  0  0
  -25.0713  -12.5214   22.1807 C   0  0  0  0  0  0  0  0  0  0  0  0
  -20.9053  -32.9043   21.3371 C   0  0  0  0  0  0  0  0  0  0  0  0
  -24.1691  -27.2107   20.2863 C   0  0  0  0  0  0  0  0  0  0  0  0
  -22.0369  -32.0828   21.5019 C   0  0  0  0  0  0  0  0  0  0  0  0
  -24.9400  -26.5927   21.2812 C   0  0  0  0  0  0  0  0  0  0  0  0
  -27.5556  -18.7051   19.0165 C   0  0  0  0  0  0  0  0  0  0  0  0
  -22.5082   -8.0972   21.2153 C   0  0  0  0  0  0  0  0  0  0  0  0
  -26.9301  -26.9168   19.9230 C   0  0  0  0  0  0  0  0  0  0  0  0
  -22.9363   -5.7887   21.1169 C   0  0  0  0  0  0  0  0  0  0  0  0
  -24.7769   -3.6947   21.0189 C   0  0  0  0  0  0  0  0  0  0  0  0
  -23.8559   -5.6195   22.1520 C   0  0  0  0  0  0  0  0  0  0  0  0
  -24.0225  -12.0444   21.3719 C   0  0  0  0  0  0  0  0  0  0  0  0
  -25.1738  -13.8530   21.8602 C   0  0  0  0  0  0  0  0  0  0  0  0
  -30.0911  -25.2287   19.6136 C   0  0  0  0  0  0  0  0  0  0  0  0
  -28.7949  -25.5135   19.7686 C   0  0  0  0  0  0  0  0  0  1  0  0
  -30.3578  -21.6315   20.3962 C   0  0  0  0  0  0  0  0  0  0  0  0
  -25.8806  -11.8232   23.1363 C   0  0  0  0  0  0  0  0  0  0  0  0
  -30.5596  -23.8152   19.6709 C   0  0  0  0  0  0  0  0  0  0  0  0
  -22.5402  -28.6020   22.6347 C   0  0  0  0  0  0  0  0  0  0  0  0
  -22.0987  -25.5418   23.6159 C   0  0  0  0  0  0  0  0  0  0  0  0
  -23.1912  -22.3087   23.6022 C   0  0  0  0  0  0  0  0  0  0  0  0
  -25.3281  -17.9611   18.1048 C   0  0  0  0  0  0  0  0  0  0  0  0
  -19.7466  -32.8613   22.3015 C   0  0  0  0  0  0  0  0  0  0  0  0
  -22.6804  -27.3484   20.4519 C   0  0  0  0  0  0  0  0  0  0  0  0
  -24.3246  -26.0769   22.5554 C   0  0  0  0  0  0  0  0  0  0  0  0
  -19.7142  -31.5987   23.1588 C   0  0  0  0  0  0  0  0  0  0  0  0
  -22.1146  -16.8316   19.1415 C   0  0  0  0  0  0  0  0  0  0  0  0
  -21.0982  -31.3049   23.7289 C   0  0  0  0  0  0  0  0  0  0  0  0
  -22.4108  -15.5247   19.8807 C   0  0  0  0  0  0  0  0  0  0  0  0
  -23.0336  -17.0222   17.9361 C   0  0  0  0  0  0  0  0  0  0  0  0
  -24.7650  -15.6035   18.9650 C   0  0  0  0  0  0  0  0  0  0  0  0
  -22.1143  -31.0533   22.6083 C   0  0  1  0  0  0  0  0  0  0  0  0
  -22.2364  -27.3207   21.9111 C   0  0  1  0  0  0  0  0  0  0  0  0
  -23.9079  -15.3987   20.2248 C   0  0  2  0  0  0  0  0  0  0  0  0
  -31.7823  -23.4938   18.8385 C   0  0  0  0  0  0  0  0  0  0  0  0
  -22.6439  -20.0405   24.5258 C   0  0  0  0  0  0  0  0  0  0  0  0
  -23.1923  -26.3883   26.3358 C   0  0  0  0  0  0  0  0  0  0  0  0
  -23.5128  -23.9663   26.8828 C   0  0  0  0  0  0  0  0  0  0  0  0
  -21.2232  -24.8498   26.4360 C   0  0  0  0  0  0  0  0  0  0  0  0
  -22.8354  -21.1646   20.8960 C   0  0  0  0  0  0  0  0  0  0  0  0
  -22.8476  -24.5892   24.5163 C   0  0  1  0  0  0  0  0  0  0  0  0
  -22.4613  -20.9999   23.3601 C   0  0  2  0  0  0  0  0  0  0  0  0
  -22.7062  -24.9598   26.0197 C   0  0  0  0  0  0  0  0  0  0  0  0
  -23.4962  -12.9957   20.5960 N   0  0  0  0  0  0  0  0  0  0  0  0
  -29.9210  -22.9353   20.3865 N   0  0  0  0  0  0  0  0  0  0  0  0
  -24.2172  -14.0838   20.9158 N   0  0  0  0  0  0  0  0  0  0  0  0
  -22.8662  -26.2404   22.6731 N   0  0  0  0  0  0  0  0  0  0  0  0
  -24.4358  -16.8935   18.3388 N   0  0  0  0  0  0  0  0  0  0  0  0
  -25.9880  -14.8373   22.2968 N   0  0  0  0  0  0  0  0  0  0  0  0
  -25.6420  -10.4577   23.3431 N   0  0  0  0  0  0  0  0  0  0  0  0
  -26.6271  -17.7371   18.5597 N   0  0  0  0  0  0  0  0  0  0  0  0
  -21.9541  -29.7191   22.0709 N   0  0  0  0  0  0  0  0  0  0  0  0
  -22.3698  -23.2517   24.1830 N   0  0  0  0  0  0  0  0  0  0  0  0
  -22.9738  -20.3417   22.1251 N   0  3  0  0  0  0  0  0  0  0  0  0
  -31.4842  -21.2788   20.7310 O   0  0  0  0  0  0  0  0  0  0  0  0
  -26.7776  -12.3970   23.7995 O   0  0  0  0  0  0  0  0  0  0  0  0
  -23.2525  -28.5787   23.6316 O   0  0  0  0  0  0  0  0  0  0  0  0
  -20.8767  -25.6565   23.7397 O   0  0  0  0  0  0  0  0  0  0  0  0
  -24.3729  -22.4765   23.3090 O   0  0  0  0  0  0  0  0  0  0  0  0
  -24.9601  -19.0085   17.5667 O   0  0  0  0  0  0  0  0  0  0  0  0
  -22.0215   -6.8272   21.1645 O   0  0  0  0  0  0  0  0  0  0  0  0
  -28.2728  -26.7764   19.7518 O   0  0  0  0  0  0  0  0  0  1  0  0
  -25.6597   -2.6883   20.9724 F   0  0  0  0  0  0  0  0  0  0  0  0
  -23.8594   -6.4589   23.1965 F   0  0  0  0  0  0  0  0  0  0  0  0
  1  2  1  0  0  0  0
  1  7  2  0  0  0  0
  2  8  2  0  0  0  0
  3 12  2  0  0  0  0
  3 19  1  0  0  0  0
  4 13  1  0  0  0  0
  4 19  2  0  0  0  0
  5 10  2  0  0  0  0
  5 20  1  0  0  0  0
  6 11  1  0  0  0  0
  6 20  2  0  0  0  0
  7 22  1  0  0  0  0
  8 24  1  0  0  0  0
  9 14  2  0  0  0  0
  9 23  1  0  0  0  0
 10 26  1  0  0  0  0
 11 26  2  0  0  0  0
 12 27  1  0  0  0  0
 13 27  2  0  0  0  0
 14 28  1  0  0  0  0
 15 16  2  0  0  0  0
 15 29  1  0  0  0  0
 16 30  1  0  0  0  0
 17 25  1  0  0  0  0
 17 28  2  0  0  0  0
 18 30  2  0  0  0  0
 18 31  1  0  0  0  0
 19 32  1  0  0  0  0
 20 36  1  0  0  0  0
 21 32  1  0  0  0  0
 21 33  2  0  0  0  0
 21 37  1  0  0  0  0
 22 24  2  0  0  0  0
 22 43  1  0  0  0  0
 23 25  2  0  0  0  0
 23 44  1  0  0  0  0
 24 52  1  0  0  0  0
 25 45  1  0  0  0  0
 26 71  1  0  0  0  0
 27 81  1  0  0  0  0
 28 82  1  0  0  0  0
 29 31  2  0  0  0  0
 29 81  1  0  0  0  0
 30 83  1  0  0  0  0
 31 84  1  0  0  0  0
 32 64  2  0  0  0  0
 33 66  1  0  0  0  0
 33 69  1  0  0  0  0
 34 35  2  0  0  0  0
 34 38  1  0  0  0  0
 35 82  1  0  0  0  0
 36 65  1  0  0  0  0
 36 75  2  0  0  0  0
 37 70  1  0  0  0  0
 37 76  2  0  0  0  0
 38 55  1  0  0  0  0
 38 65  2  0  0  0  0
 39 53  1  0  0  0  0
 39 72  1  0  0  0  0
 39 77  2  0  0  0  0
 40 61  1  0  0  0  0
 40 67  1  0  0  0  0
 40 78  2  0  0  0  0
 41 62  1  0  0  0  0
 41 73  1  0  0  0  0
 41 79  2  0  0  0  0
 42 68  1  0  0  0  0
 42 71  1  0  0  0  0
 42 80  2  0  0  0  0
 43 46  1  0  0  0  0
 44 53  1  0  0  0  0
 45 67  1  0  0  0  0
 46 48  1  0  0  0  0
 47 49  1  0  0  0  0
 47 50  1  0  0  0  0
 48 52  1  0  0  0  0
 49 54  1  0  0  0  0
 50 68  1  0  0  0  0
 51 54  1  0  0  0  0
 51 68  1  0  0  0  0
 52 72  1  0  0  0  0
 53 67  1  0  0  0  0
 54 66  1  0  0  0  0
 56 62  1  0  0  0  0
 57 63  1  0  0  0  0
 58 63  1  0  0  0  0
 59 63  1  0  0  0  0
 60 74  1  0  0  0  0
 61 63  1  0  0  0  0
 61 73  1  0  0  0  0
 62 74  1  0  0  0  0
 64 66  1  0  0  0  0
M  CHG  1  74   1
M  ISO  4  35 101  42 100  71 100  82 101
M  END
> <Batch ID>
0086

> <Smiles>
CNC(C)C(=O)NC(C(=O)N1Cc2cc([101O:1][101CH:1]=CC(C)=NC(=O)c3ccc([100NH:0][100C:0](=O)N4CCCC(n5nc(-c6ccc(Oc7ccc(F)cc7F)cc6)c(C(N)=O)c5N)C4)cc3)ccc2CC1C(=O)NC1CCCc2ccccc21)C(C)(C)C

> <Shape>
0.188

> <Color>
0.088

> <Negative vol penalty>
0.000

$$$$

  -OEChem-04052300173D

 83 92  0     1  0  0  0  0  0999 V2000
  -20.0147  -10.9896   20.4053 C   0  0  0  0  0  0  0  0  0  0  0  0
  -20.1894  -12.2653   19.8786 C   0  0  0  0  0  0  0  0  0  0  0  0
  -19.6805  -28.2420   23.7050 C   0  0  0  0  0  0  0  0  0  0  0  0
  -20.8879  -27.2003   21.8900 C   0  0  0  0  0  0  0  0  0  0  0  0
  -20.9813  -10.4476   21.2513 C   0  0  0  0  0  0  0  0  0  0  0  0
  -21.3304  -13.0003   20.1985 C   0  0  0  0  0  0  0  0  0  0  0  0
  -25.8250  -17.8299   17.4075 C   0  0  0  0  0  0  0  0  0  0  0  0
  -18.4941  -28.1296   22.9802 C   0  0  0  0  0  0  0  0  0  0  0  0
  -19.7015  -27.0880   21.1652 C   0  0  0  0  0  0  0  0  0  0  0  0
  -26.3834  -19.0744   17.6958 C   0  0  0  0  0  0  0  0  0  0  0  0
  -16.2325  -25.7209   22.2617 C   0  0  0  0  0  0  0  0  0  0  0  0
  -15.1024  -25.2584   22.9359 C   0  0  0  0  0  0  0  0  0  0  0  0
  -31.0608  -26.3003   20.0198 C   0  0  0  0  0  0  0  0  0  0  0  0
  -30.4281  -27.4262   20.6217 C   0  0  0  0  0  0  0  0  0  0  0  0
  -28.0241  -18.0051   19.1043 C   0  0  0  0  0  0  0  0  0  0  0  0
  -13.9559  -27.3243   22.4314 C   0  0  0  0  0  0  0  0  0  0  0  0
  -20.8775  -27.7773   23.1599 C   0  0  0  0  0  0  0  0  0  0  0  0
  -22.3880  -27.3310   25.1665 C   0  0  0  0  0  0  0  0  0  0  0  0
  -22.1394  -11.1724   21.5741 C   0  0  0  0  0  0  0  0  0  0  0  0
  -26.3561  -16.6627   17.9750 C   0  0  0  0  0  0  0  0  0  0  0  0
  -22.3128  -12.4680   21.0508 C   0  0  0  0  0  0  0  0  0  0  0  0
  -27.4722  -16.7467   18.8195 C   0  0  0  0  0  0  0  0  0  0  0  0
  -18.5045  -27.5526   21.7103 C   0  0  0  0  0  0  0  0  0  0  0  0
  -27.4813  -19.1624   18.5466 C   0  0  0  0  0  0  0  0  0  0  0  0
  -16.2244  -26.9852   21.6725 C   0  0  0  0  0  0  0  0  0  0  0  0
  -13.9641  -26.0600   23.0207 C   0  0  0  0  0  0  0  0  0  0  0  0
  -15.0861  -27.7869   21.7573 C   0  0  0  0  0  0  0  0  0  0  0  0
  -22.1035  -27.8936   23.9078 C   0  0  0  0  0  0  0  0  0  0  0  0
  -23.6735  -27.7309   25.4387 C   0  0  0  0  0  0  0  0  0  0  0  0
  -30.2069  -25.2251   19.9086 C   0  0  0  0  0  0  0  0  0  0  0  0
  -29.1145  -27.1686   20.9474 C   0  0  0  0  0  0  0  0  0  0  0  0
  -29.9764  -21.7371   18.7312 C   0  0  0  0  0  0  0  0  0  0  0  0
  -31.6089  -23.4207   18.8196 C   0  0  0  0  0  0  0  0  0  0  0  0
  -29.3374  -20.5849   18.4994 C   0  0  0  0  0  0  0  0  0  1  0  0
  -21.5640  -26.5194   26.0139 C   0  0  0  0  0  0  0  0  0  0  0  0
  -25.2470  -14.4117   19.9261 C   0  0  0  0  0  0  0  0  0  0  0  0
  -28.0988  -13.0031   19.2895 C   0  0  0  0  0  0  0  0  0  0  0  0
  -31.5348  -14.0495   18.9482 C   0  0  0  0  0  0  0  0  0  0  0  0
  -28.2772  -29.3118   21.9729 C   0  0  0  0  0  0  0  0  0  0  0  0
  -23.1339  -10.5635   22.5306 C   0  0  0  0  0  0  0  0  0  0  0  0
  -25.7588  -15.3253   17.6328 C   0  0  0  0  0  0  0  0  0  0  0  0
  -28.0925  -15.5217   19.4383 C   0  0  0  0  0  0  0  0  0  0  0  0
  -31.4006  -21.9905   18.3812 C   0  0  0  0  0  0  0  0  0  0  0  0
  -29.3527  -22.9302   19.3653 C   0  0  0  0  0  0  0  0  0  0  0  0
  -24.4926  -11.2591   22.5211 C   0  0  0  0  0  0  0  0  0  0  0  0
  -26.7648  -31.2739   24.5303 C   0  0  0  0  0  0  0  0  0  0  0  0
  -24.3176  -12.7734   22.5783 C   0  0  0  0  0  0  0  0  0  0  0  0
  -25.4263  -30.5750   24.7797 C   0  0  0  0  0  0  0  0  0  0  0  0
  -27.1522  -31.2466   23.0528 C   0  0  0  0  0  0  0  0  0  0  0  0
  -25.8070  -29.2161   22.6831 C   0  0  0  0  0  0  0  0  0  0  0  0
  -23.5488  -13.2865   21.3547 C   0  0  1  0  0  0  0  0  0  0  0  0
  -26.0615  -14.2518   18.6736 C   0  0  1  0  0  0  0  0  0  0  0  0
  -25.4060  -29.1611   24.1663 C   0  0  2  0  0  0  0  0  0  0  0  0
  -33.4241  -13.0439   17.6380 C   0  0  0  0  0  0  0  0  0  0  0  0
  -28.7659  -11.5736   21.9013 C   0  0  0  0  0  0  0  0  0  0  0  0
  -31.1924  -11.9125   21.3860 C   0  0  0  0  0  0  0  0  0  0  0  0
  -29.7747  -10.5404   19.8594 C   0  0  0  0  0  0  0  0  0  0  0  0
  -32.0458  -16.5881   17.5153 C   0  0  0  0  0  0  0  0  0  0  0  0
  -29.4760  -13.0505   19.9061 C   0  0  1  0  0  0  0  0  0  0  0  0
  -32.3424  -14.1125   17.6644 C   0  0  2  0  0  0  0  0  0  0  0  0
  -29.7845  -11.7915   20.7647 C   0  0  0  0  0  0  0  0  0  0  0  0
  -23.1259  -28.5975   23.4146 N   0  0  0  0  0  0  0  0  0  0  0  0
  -24.0654  -28.4799   24.3684 N   0  0  0  0  0  0  0  0  0  0  0  0
  -30.4174  -23.9130   19.3743 N   0  0  0  0  0  0  0  0  0  0  0  0
  -27.4687  -14.2376   19.0782 N   0  0  0  0  0  0  0  0  0  0  0  0
  -27.1150  -29.8748   22.5414 N   0  0  0  0  0  0  0  0  0  0  0  0
  -24.4955  -27.5115   26.4869 N   0  0  0  0  0  0  0  0  0  0  0  0
  -21.6122  -25.1274   25.8579 N   0  0  0  0  0  0  0  0  0  0  0  0
  -28.1310  -27.9908   21.5511 N   0  0  0  0  0  0  0  0  0  0  0  0
  -24.4174  -13.3407   20.1983 N   0  0  0  0  0  0  0  0  0  0  0  0
  -30.4089  -13.2665   18.8055 N   0  0  0  0  0  0  0  0  0  0  0  0
  -32.9950  -15.4453   17.5278 N   0  3  0  0  0  0  0  0  0  0  0  0
  -32.6892  -23.9785   18.6733 O   0  0  0  0  0  0  0  0  0  0  0  0
  -20.7952  -27.0147   26.8724 O   0  0  0  0  0  0  0  0  0  0  0  0
  -25.3638  -15.4307   20.5967 O   0  0  0  0  0  0  0  0  0  0  0  0
  -27.6035  -11.9113   18.9992 O   0  0  0  0  0  0  0  0  0  0  0  0
  -31.8713  -14.6332   19.9761 O   0  0  0  0  0  0  0  0  0  0  0  0
  -29.3327  -29.9454   21.8928 O   0  0  0  0  0  0  0  0  0  0  0  0
  -17.3469  -27.4427   21.0029 O   0  0  0  0  0  0  0  0  0  0  0  0
  -28.0279  -20.3759   18.8302 O   0  0  0  0  0  0  0  0  0  1  0  0
  -12.8784  -25.6151   23.6668 F   0  0  0  0  0  0  0  0  0  0  0  0
  -15.0719  -29.0019   21.1922 F   0  0  0  0  0  0  0  0  0  0  0  0
  -28.6493  -25.5748   20.5282 S   0  0  0  0  0  0  0  0  0  0  0  0
  1  2  1  0  0  0  0
  1  5  2  0  0  0  0
  2  6  2  0  0  0  0
  3  8  2  0  0  0  0
  3 17  1  0  0  0  0
  4  9  1  0  0  0  0
  4 17  2  0  0  0  0
  5 19  1  0  0  0  0
  6 21  1  0  0  0  0
  7 10  2  0  0  0  0
  7 20  1  0  0  0  0
  8 23  1  0  0  0  0
  9 23  2  0  0  0  0
 10 24  1  0  0  0  0
 11 12  2  0  0  0  0
 11 25  1  0  0  0  0
 12 26  1  0  0  0  0
 13 14  1  0  0  0  0
 13 30  2  0  0  0  0
 14 31  2  0  0  0  0
 15 22  1  0  0  0  0
 15 24  2  0  0  0  0
 16 26  2  0  0  0  0
 16 27  1  0  0  0  0
 17 28  1  0  0  0  0
 18 28  1  0  0  0  0
 18 29  2  0  0  0  0
 18 35  1  0  0  0  0
 19 21  2  0  0  0  0
 19 40  1  0  0  0  0
 20 22  2  0  0  0  0
 20 41  1  0  0  0  0
 21 51  1  0  0  0  0
 22 42  1  0  0  0  0
 23 79  1  0  0  0  0
 24 80  1  0  0  0  0
 25 27  2  0  0  0  0
 25 79  1  0  0  0  0
 26 81  1  0  0  0  0
 27 82  1  0  0  0  0
 28 62  2  0  0  0  0
 29 63  1  0  0  0  0
 29 67  1  0  0  0  0
 30 64  1  0  0  0  0
 30 83  1  0  0  0  0
 31 69  1  0  0  0  0
 31 83  1  0  0  0  0
 32 34  2  0  0  0  0
 32 43  1  0  0  0  0
 32 44  1  0  0  0  0
 33 43  1  0  0  0  0
 33 64  1  0  0  0  0
 33 73  2  0  0  0  0
 34 80  1  0  0  0  0
 35 68  1  0  0  0  0
 35 74  2  0  0  0  0
 36 52  1  0  0  0  0
 36 70  1  0  0  0  0
 36 75  2  0  0  0  0
 37 59  1  0  0  0  0
 37 65  1  0  0  0  0
 37 76  2  0  0  0  0
 38 60  1  0  0  0  0
 38 71  1  0  0  0  0
 38 77  2  0  0  0  0
 39 66  1  0  0  0  0
 39 69  1  0  0  0  0
 39 78  2  0  0  0  0
 40 45  1  0  0  0  0
 41 52  1  0  0  0  0
 42 65  1  0  0  0  0
 44 64  1  0  0  0  0
 45 47  1  0  0  0  0
 46 48  1  0  0  0  0
 46 49  1  0  0  0  0
 47 51  1  0  0  0  0
 48 53  1  0  0  0  0
 49 66  1  0  0  0  0
 50 53  1  0  0  0  0
 50 66  1  0  0  0  0
 51 70  1  0  0  0  0
 52 65  1  0  0  0  0
 53 63  1  0  0  0  0
 54 60  1  0  0  0  0
 55 61  1  0  0  0  0
 56 61  1  0  0  0  0
 57 61  1  0  0  0  0
 58 72  1  0  0  0  0
 59 61  1  0  0  0  0
 59 71  1  0  0  0  0
 60 72  1  0  0  0  0
 62 63  1  0  0  0  0
M  CHG  1  72   1
M  ISO  4  34 101  39 100  69 100  80 101
M  END
> <Batch ID>
0086

> <Smiles>
CNC(C)C(=O)NC(C(=O)N1Cc2cc([101O:1][101CH:1]=C3CC(=O)N(c4ccc([100NH:0][100C:0](=O)N5CCCC(n6nc(-c7ccc(Oc8ccc(F)cc8F)cc7)c(C(N)=O)c6N)C5)s4)C3)ccc2CC1C(=O)NC1CCCc2ccccc21)C(C)(C)C

> <Shape>
0.264

> <Color>
0.071

> <Negative vol penalty>
0.000

$$$$

  -OEChem-04052300173D

 85 94  0     1  0  0  0  0  0999 V2000
  -21.8773  -11.4150   20.3811 C   0  0  0  0  0  0  0  0  0  0  0  0
  -21.6121  -12.7142   20.8020 C   0  0  0  0  0  0  0  0  0  0  0  0
  -17.9605  -28.3330   22.5443 C   0  0  0  0  0  0  0  0  0  0  0  0
  -28.4658  -25.5917   22.5833 C   0  0  0  0  0  0  0  0  0  0  0  0
  -28.6144  -27.1563   24.4183 C   0  0  0  0  0  0  0  0  0  0  0  0
  -23.1959  -10.9811   20.2507 C   0  0  0  0  0  0  0  0  0  0  0  0
  -22.6654  -13.5800   21.0939 C   0  0  0  0  0  0  0  0  0  0  0  0
  -21.9842  -18.1987   19.1322 C   0  0  0  0  0  0  0  0  0  0  0  0
  -17.9761  -26.9561   22.7668 C   0  0  0  0  0  0  0  0  0  0  0  0
  -19.1596  -29.0271   22.3831 C   0  0  0  0  0  0  0  0  0  0  0  0
  -28.8820  -24.5622   23.4274 C   0  0  0  0  0  0  0  0  0  0  0  0
  -29.0306  -26.1268   25.2624 C   0  0  0  0  0  0  0  0  0  0  0  0
  -21.1073  -19.0516   19.8012 C   0  0  0  0  0  0  0  0  0  0  0  0
  -27.6108  -23.5763   26.9652 C   0  0  0  0  0  0  0  0  0  0  0  0
  -27.0245  -23.4989   28.2285 C   0  0  0  0  0  0  0  0  0  0  0  0
  -22.9843  -20.1677   20.8261 C   0  0  0  0  0  0  0  0  0  0  0  0
  -20.3900  -26.9674   22.6670 C   0  0  0  0  0  0  0  0  0  0  0  0
  -29.1964  -23.7650   29.2528 C   0  0  0  0  0  0  0  0  0  0  0  0
  -28.3320  -26.8888   23.0788 C   0  0  0  0  0  0  0  0  0  0  0  0
  -28.5404  -28.4013   21.0352 C   0  0  0  0  0  0  0  0  0  0  0  0
  -24.2660  -11.8451   20.5318 C   0  0  0  0  0  0  0  0  0  0  0  0
  -23.3696  -18.3171   19.3140 C   0  0  0  0  0  0  0  0  0  0  0  0
  -23.9996  -13.1569   20.9684 C   0  0  0  0  0  0  0  0  0  0  0  0
  -23.8767  -19.3168   20.1563 C   0  0  0  0  0  0  0  0  0  0  0  0
  -19.1908  -26.2733   22.8281 C   0  0  0  0  0  0  0  0  0  0  0  0
  -20.3744  -28.3443   22.4445 C   0  0  0  0  0  0  0  0  0  0  0  0
  -29.1645  -24.8297   24.7669 C   0  0  0  0  0  0  0  0  0  0  0  0
  -21.6072  -20.0344   20.6505 C   0  0  0  0  0  0  0  0  0  0  0  0
  -28.9900  -23.7479   26.8457 C   0  0  0  0  0  0  0  0  0  0  0  0
  -27.8172  -23.5933   29.3723 C   0  0  0  0  0  0  0  0  0  0  0  0
  -29.7827  -23.8423   27.9895 C   0  0  0  0  0  0  0  0  0  0  0  0
  -27.9025  -27.9528   22.2072 C   0  0  0  0  0  0  0  0  0  0  0  0
  -27.7421  -29.4217   20.5788 C   0  0  0  0  0  0  0  0  0  0  0  0
  -20.1936  -24.0291   22.5633 C   0  0  0  0  0  0  0  0  0  0  0  0
  -20.2583  -22.7030   22.7635 C   0  0  0  0  0  0  0  0  0  0  0  0
  -18.4012  -22.9844   24.3965 C   0  0  0  0  0  0  0  0  0  0  0  0
  -29.7465  -27.9371   20.4143 C   0  0  0  0  0  0  0  0  0  0  0  0
  -25.6527  -16.4208   20.4520 C   0  0  0  0  0  0  0  0  0  0  0  0
  -27.6001  -18.8109   19.4431 C   0  0  0  0  0  0  0  0  0  0  0  0
  -27.9687  -22.1119   18.6593 C   0  0  0  0  0  0  0  0  0  0  0  0
  -21.7626  -30.4181   22.0546 C   0  0  0  0  0  0  0  0  0  0  0  0
  -25.6741  -11.3163   20.4217 C   0  0  0  0  0  0  0  0  0  0  0  0
  -24.3032  -17.4066   18.5644 C   0  0  0  0  0  0  0  0  0  0  0  0
  -25.3565  -19.4985   20.3699 C   0  0  0  0  0  0  0  0  0  0  0  0
  -19.2375  -21.9969   23.6053 C   0  0  0  0  0  0  0  0  0  0  0  0
  -18.0362  -24.2998   23.7383 C   0  0  0  0  0  0  0  0  0  0  0  0
  -26.7358  -12.4127   20.3906 C   0  0  0  0  0  0  0  0  0  0  0  0
  -24.6723  -32.6579   22.4740 C   0  0  0  0  0  0  0  0  0  0  0  0
  -26.4693  -13.4450   21.4815 C   0  0  0  0  0  0  0  0  0  0  0  0
  -25.9033  -31.8260   22.1110 C   0  0  0  0  0  0  0  0  0  0  0  0
  -23.4241  -32.2316   21.7135 C   0  0  0  0  0  0  0  0  0  0  0  0
  -24.2589  -29.8880   21.9991 C   0  0  0  0  0  0  0  0  0  0  0  0
  -25.1154  -14.1335   21.2707 C   0  0  1  0  0  0  0  0  0  0  0  0
  -25.6742  -17.2839   19.2222 C   0  0  1  0  0  0  0  0  0  0  0  0
  -25.5514  -30.4932   21.4293 C   0  0  2  0  0  0  0  0  0  0  0  0
  -29.6870  -23.7770   17.9028 C   0  0  0  0  0  0  0  0  0  0  0  0
  -28.7790  -18.8688   22.2568 C   0  0  0  0  0  0  0  0  0  0  0  0
  -29.7631  -21.1083   21.7230 C   0  0  0  0  0  0  0  0  0  0  0  0
  -30.4577  -19.0995   20.4174 C   0  0  0  0  0  0  0  0  0  0  0  0
  -26.4710  -22.7036   16.1762 C   0  0  0  0  0  0  0  0  0  0  0  0
  -21.3342  -21.8520   22.1597 C   0  0  0  0  0  0  0  0  0  1  0  0
  -28.1518  -20.0730   20.0607 C   0  0  1  0  0  0  0  0  0  0  0  0
  -28.6080  -22.7985   17.4658 C   0  0  2  0  0  0  0  0  0  0  0  0
  -29.2599  -19.7830   21.1122 C   0  0  0  0  0  0  0  0  0  0  0  0
  -26.7853  -28.6326   22.4787 N   0  0  0  0  0  0  0  0  0  0  0  0
  -26.7149  -29.5187   21.4708 N   0  0  0  0  0  0  0  0  0  0  0  0
  -19.2064  -24.8695   23.0543 N   0  0  0  0  0  0  0  0  0  0  0  0
  -26.2285  -18.5797   19.6196 N   0  0  0  0  0  0  0  0  0  0  0  0
  -23.1167  -30.8159   21.9362 N   0  0  0  0  0  0  0  0  0  0  0  0
  -27.8258  -30.2364   19.5057 N   0  0  0  0  0  0  0  0  0  0  0  0
  -30.9610  -28.5280   20.7890 N   0  0  0  0  0  0  0  0  0  0  0  0
  -21.5924  -29.0501   22.2819 N   0  0  0  0  0  0  0  0  0  0  0  0
  -25.2127  -15.1306   20.2262 N   0  0  0  0  0  0  0  0  0  0  0  0
  -28.5867  -20.9142   18.9509 N   0  0  0  0  0  0  0  0  0  0  0  0
  -27.5811  -23.5478   16.6880 N   0  3  0  0  0  0  0  0  0  0  0  0
  -17.9352  -22.6763   25.4950 O   0  0  0  0  0  0  0  0  0  0  0  0
  -29.7455  -27.0367   19.5410 O   0  0  0  0  0  0  0  0  0  0  0  0
  -26.0105  -16.8903   21.5259 O   0  0  0  0  0  0  0  0  0  0  0  0
  -28.3568  -18.0614   18.8207 O   0  0  0  0  0  0  0  0  0  0  0  0
  -27.0187  -22.5918   19.2738 O   0  0  0  0  0  0  0  0  0  0  0  0
  -20.8395  -31.2315   21.9751 O   0  0  0  0  0  0  0  0  0  0  0  0
  -29.5705  -23.8253   25.5909 O   0  0  0  0  0  0  0  0  0  0  0  0
  -20.7535  -20.8678   21.3051 O   0  0  0  0  0  0  0  0  0  1  0  0
  -27.2538  -23.5206   30.5853 F   0  0  0  0  0  0  0  0  0  0  0  0
  -31.1080  -24.0085   27.8811 F   0  0  0  0  0  0  0  0  0  0  0  0
  1  2  1  0  0  0  0
  1  6  2  0  0  0  0
  2  7  2  0  0  0  0
  3  9  2  0  0  0  0
  3 10  1  0  0  0  0
  4 11  2  0  0  0  0
  4 19  1  0  0  0  0
  5 12  1  0  0  0  0
  5 19  2  0  0  0  0
  6 21  1  0  0  0  0
  7 23  1  0  0  0  0
  8 13  2  0  0  0  0
  8 22  1  0  0  0  0
  9 25  1  0  0  0  0
 10 26  2  0  0  0  0
 11 27  1  0  0  0  0
 12 27  2  0  0  0  0
 13 28  1  0  0  0  0
 14 15  2  0  0  0  0
 14 29  1  0  0  0  0
 15 30  1  0  0  0  0
 16 24  1  0  0  0  0
 16 28  2  0  0  0  0
 17 25  2  0  0  0  0
 17 26  1  0  0  0  0
 18 30  2  0  0  0  0
 18 31  1  0  0  0  0
 19 32  1  0  0  0  0
 20 32  1  0  0  0  0
 20 33  2  0  0  0  0
 20 37  1  0  0  0  0
 21 23  2  0  0  0  0
 21 42  1  0  0  0  0
 22 24  2  0  0  0  0
 22 43  1  0  0  0  0
 23 53  1  0  0  0  0
 24 44  1  0  0  0  0
 25 67  1  0  0  0  0
 26 72  1  0  0  0  0
 27 82  1  0  0  0  0
 28 83  1  0  0  0  0
 29 31  2  0  0  0  0
 29 82  1  0  0  0  0
 30 84  1  0  0  0  0
 31 85  1  0  0  0  0
 32 65  2  0  0  0  0
 33 66  1  0  0  0  0
 33 70  1  0  0  0  0
 34 35  2  0  0  0  0
 34 67  1  0  0  0  0
 35 45  1  0  0  0  0
 35 61  1  0  0  0  0
 36 45  1  0  0  0  0
 36 46  1  0  0  0  0
 36 76  2  0  0  0  0
 37 71  1  0  0  0  0
 37 77  2  0  0  0  0
 38 54  1  0  0  0  0
 38 73  1  0  0  0  0
 38 78  2  0  0  0  0
 39 62  1  0  0  0  0
 39 68  1  0  0  0  0
 39 79  2  0  0  0  0
 40 63  1  0  0  0  0
 40 74  1  0  0  0  0
 40 80  2  0  0  0  0
 41 69  1  0  0  0  0
 41 72  1  0  0  0  0
 41 81  2  0  0  0  0
 42 47  1  0  0  0  0
 43 54  1  0  0  0  0
 44 68  1  0  0  0  0
 46 67  1  0  0  0  0
 47 49  1  0  0  0  0
 48 50  1  0  0  0  0
 48 51  1  0  0  0  0
 49 53  1  0  0  0  0
 50 55  1  0  0  0  0
 51 69  1  0  0  0  0
 52 55  1  0  0  0  0
 52 69  1  0  0  0  0
 53 73  1  0  0  0  0
 54 68  1  0  0  0  0
 55 66  1  0  0  0  0
 56 63  1  0  0  0  0
 57 64  1  0  0  0  0
 58 64  1  0  0  0  0
 59 64  1  0  0  0  0
 60 75  1  0  0  0  0
 61 83  1  0  0  0  0
 62 64  1  0  0  0  0
 62 74  1  0  0  0  0
 63 75  1  0  0  0  0
 65 66  1  0  0  0  0
M  CHG  1  75   1
M  ISO  4  41 100  61 101  72 100  83 101
M  END
> <Batch ID>
0086

> <Smiles>
CNC(C)C(=O)NC(C(=O)N1Cc2cc([101O:1][101CH2:1]C3=CN(c4cccc([100NH:0][100C:0](=O)N5CCCC(n6nc(-c7ccc(Oc8ccc(F)cc8F)cc7)c(C(N)=O)c6N)C5)c4)CC(=O)C3)ccc2CC1C(=O)NC1CCCc2ccccc21)C(C)(C)C

> <Shape>
0.228

> <Color>
0.077

> <Negative vol penalty>
0.000

$$$$

  -OEChem-04052300173D

 83 92  0     1  0  0  0  0  0999 V2000
  -31.7061  -34.3265   22.3121 C   0  0  0  0  0  0  0  0  0  0  0  0
  -31.4129  -33.0942   21.7367 C   0  0  0  0  0  0  0  0  0  0  0  0
  -23.4334  -18.2740   16.2350 C   0  0  0  0  0  0  0  0  0  0  0  0
  -24.6694   -9.1822   21.8871 C   0  0  0  0  0  0  0  0  0  0  0  0
  -23.1915  -10.0101   20.1645 C   0  0  0  0  0  0  0  0  0  0  0  0
  -31.0048  -34.7528   23.4392 C   0  0  0  0  0  0  0  0  0  0  0  0
  -30.4190  -32.2870   22.2889 C   0  0  0  0  0  0  0  0  0  0  0  0
  -26.5819  -28.5883   19.2719 C   0  0  0  0  0  0  0  0  0  0  0  0
  -23.5500  -19.5998   16.6524 C   0  0  0  0  0  0  0  0  0  0  0  0
  -24.2991  -17.3046   16.7414 C   0  0  0  0  0  0  0  0  0  0  0  0
  -23.5839   -8.5931   22.5354 C   0  0  0  0  0  0  0  0  0  0  0  0
  -22.1059   -9.4210   20.8127 C   0  0  0  0  0  0  0  0  0  0  0  0
  -26.5986  -27.2154   19.0298 C   0  0  0  0  0  0  0  0  0  0  0  0
  -21.6893   -5.8131   22.1963 C   0  0  0  0  0  0  0  0  0  0  0  0
  -21.8422   -4.5064   22.6597 C   0  0  0  0  0  0  0  0  0  0  0  0
  -25.1507  -26.8692   20.9279 C   0  0  0  0  0  0  0  0  0  0  0  0
  -25.3983  -18.9869   18.0826 C   0  0  0  0  0  0  0  0  0  0  0  0
  -21.4064   -5.2554   24.9150 C   0  0  0  0  0  0  0  0  0  0  0  0
  -24.4732   -9.8908   20.7017 C   0  0  0  0  0  0  0  0  0  0  0  0
  -26.4150   -9.9179   19.0476 C   0  0  0  0  0  0  0  0  0  0  0  0
  -29.9951  -33.9547   23.9997 C   0  0  0  0  0  0  0  0  0  0  0  0
  -25.8571  -29.1118   20.3521 C   0  0  0  0  0  0  0  0  0  0  0  0
  -29.7044  -32.7025   23.4254 C   0  0  0  0  0  0  0  0  0  0  0  0
  -25.1244  -28.2494   21.1800 C   0  0  0  0  0  0  0  0  0  0  0  0
  -24.5324  -19.9562   17.5762 C   0  0  0  0  0  0  0  0  0  0  0  0
  -25.2816  -17.6610   17.6652 C   0  0  0  0  0  0  0  0  0  0  0  0
  -22.3021   -8.7125   21.9982 C   0  0  0  0  0  0  0  0  0  0  0  0
  -25.8853  -26.3553   19.8596 C   0  0  0  0  0  0  0  0  0  0  0  0
  -21.3950   -6.8410   23.0921 C   0  0  0  0  0  0  0  0  0  0  0  0
  -21.7007   -4.2276   24.0191 C   0  0  0  0  0  0  0  0  0  0  0  0
  -21.2535   -6.5621   24.4515 C   0  0  0  0  0  0  0  0  0  0  0  0
  -25.5941  -10.5000   20.0320 C   0  0  0  0  0  0  0  0  0  0  0  0
  -27.3255  -10.8980   18.7363 C   0  0  0  0  0  0  0  0  0  0  0  0
  -24.8600  -23.1857   18.5014 C   0  0  0  0  0  0  0  0  0  0  0  0
  -23.9577  -22.3879   17.6702 C   0  0  0  0  0  0  0  0  0  0  0  0
  -24.9417  -24.4943   18.8027 C   0  0  0  0  0  0  0  0  0  1  0  0
  -26.3595   -8.6084   18.4664 C   0  0  0  0  0  0  0  0  0  0  0  0
  -26.6060  -30.7398   22.9775 C   0  0  0  0  0  0  0  0  0  0  0  0
  -23.3853  -30.8884   23.3340 C   0  0  0  0  0  0  0  0  0  0  0  0
  -20.3281  -29.5406   22.6384 C   0  0  0  0  0  0  0  0  0  0  0  0
  -27.1899  -16.8607   19.1019 C   0  0  0  0  0  0  0  0  0  0  0  0
  -29.2968  -34.4369   25.2465 C   0  0  0  0  0  0  0  0  0  0  0  0
  -25.8276  -30.5977   20.5838 C   0  0  0  0  0  0  0  0  0  0  0  0
  -24.3139  -28.7631   22.3409 C   0  0  0  0  0  0  0  0  0  0  0  0
  -25.6178  -21.9232   18.8428 C   0  0  0  0  0  0  0  0  0  0  0  0
  -28.0011  -33.6879   25.5473 C   0  0  0  0  0  0  0  0  0  0  0  0
  -29.5494  -14.6858   20.6445 C   0  0  0  0  0  0  0  0  0  0  0  0
  -28.2106  -32.1831   25.4115 C   0  0  0  0  0  0  0  0  0  0  0  0
  -28.8803  -13.3116   20.5675 C   0  0  0  0  0  0  0  0  0  0  0  0
  -28.5338  -15.7976   20.9016 C   0  0  0  0  0  0  0  0  0  0  0  0
  -26.7308  -14.4564   19.8919 C   0  0  0  0  0  0  0  0  0  0  0  0
  -28.6161  -31.8095   23.9806 C   0  0  1  0  0  0  0  0  0  0  0  0
  -25.4720  -30.9717   22.0194 C   0  0  1  0  0  0  0  0  0  0  0  0
  -27.7056  -13.3120   19.5696 C   0  0  2  0  0  0  0  0  0  0  0  0
  -17.8826  -29.8610   23.1011 C   0  0  0  0  0  0  0  0  0  0  0  0
  -23.7683  -29.7449   26.1368 C   0  0  0  0  0  0  0  0  0  0  0  0
  -21.3237  -29.2058   26.1754 C   0  0  0  0  0  0  0  0  0  0  0  0
  -22.0732  -31.5771   25.9802 C   0  0  0  0  0  0  0  0  0  0  0  0
  -19.7168  -29.9249   19.7683 C   0  0  0  0  0  0  0  0  0  0  0  0
  -22.3427  -30.0252   24.0025 C   0  0  1  0  0  0  0  0  0  0  0  0
  -19.0342  -30.1728   22.1581 C   0  0  2  0  0  0  0  0  0  0  0  0
  -22.3937  -30.1281   25.5531 C   0  0  0  0  0  0  0  0  0  0  0  0
  -25.9515  -11.7527   20.3267 N   0  0  0  0  0  0  0  0  0  0  0  0
  -27.0072  -11.9659   19.5228 N   0  0  0  0  0  0  0  0  0  0  0  0
  -24.6466  -21.2638   17.9878 N   0  0  0  0  0  0  0  0  0  0  0  0
  -24.3218  -30.2231   22.5301 N   0  0  0  0  0  0  0  0  0  0  0  0
  -27.4526  -15.7383   19.9155 N   0  0  0  0  0  0  0  0  0  0  0  0
  -28.3594  -10.9420   17.8694 N   0  0  0  0  0  0  0  0  0  0  0  0
  -25.3605   -7.7265   18.9007 N   0  0  0  0  0  0  0  0  0  0  0  0
  -26.1607  -16.6758   18.1793 N   0  0  0  0  0  0  0  0  0  0  0  0
  -27.4606  -31.8177   23.1093 N   0  0  0  0  0  0  0  0  0  0  0  0
  -21.0611  -30.4083   23.4201 N   0  0  0  0  0  0  0  0  0  0  0  0
  -18.6819  -29.6652   20.8020 N   0  3  0  0  0  0  0  0  0  0  0  0
  -22.9957  -22.6276   16.9706 O   0  0  0  0  0  0  0  0  0  0  0  0
  -27.1819   -8.2258   17.5999 O   0  0  0  0  0  0  0  0  0  0  0  0
  -26.6981  -29.6631   23.5555 O   0  0  0  0  0  0  0  0  0  0  0  0
  -23.3651  -32.1088   23.5126 O   0  0  0  0  0  0  0  0  0  0  0  0
  -20.6541  -28.3907   22.3519 O   0  0  0  0  0  0  0  0  0  0  0  0
  -27.8488  -17.8994   19.1967 O   0  0  0  0  0  0  0  0  0  0  0  0
  -21.2427   -8.1376   22.6303 O   0  0  0  0  0  0  0  0  0  0  0  0
  -25.9004  -25.0148   19.6260 O   0  0  0  0  0  0  0  0  0  1  0  0
  -21.8461   -2.9725   24.4639 F   0  0  0  0  0  0  0  0  0  0  0  0
  -20.9696   -7.5452   25.3168 F   0  0  0  0  0  0  0  0  0  0  0  0
  1  2  1  0  0  0  0
  1  6  2  0  0  0  0
  2  7  2  0  0  0  0
  3  9  2  0  0  0  0
  3 10  1  0  0  0  0
  4 11  2  0  0  0  0
  4 19  1  0  0  0  0
  5 12  1  0  0  0  0
  5 19  2  0  0  0  0
  6 21  1  0  0  0  0
  7 23  1  0  0  0  0
  8 13  2  0  0  0  0
  8 22  1  0  0  0  0
  9 25  1  0  0  0  0
 10 26  2  0  0  0  0
 11 27  1  0  0  0  0
 12 27  2  0  0  0  0
 13 28  1  0  0  0  0
 14 15  2  0  0  0  0
 14 29  1  0  0  0  0
 15 30  1  0  0  0  0
 16 24  1  0  0  0  0
 16 28  2  0  0  0  0
 17 25  2  0  0  0  0
 17 26  1  0  0  0  0
 18 30  2  0  0  0  0
 18 31  1  0  0  0  0
 19 32  1  0  0  0  0
 20 32  1  0  0  0  0
 20 33  2  0  0  0  0
 20 37  1  0  0  0  0
 21 23  2  0  0  0  0
 21 42  1  0  0  0  0
 22 24  2  0  0  0  0
 22 43  1  0  0  0  0
 23 52  1  0  0  0  0
 24 44  1  0  0  0  0
 25 65  1  0  0  0  0
 26 70  1  0  0  0  0
 27 80  1  0  0  0  0
 28 81  1  0  0  0  0
 29 31  2  0  0  0  0
 29 80  1  0  0  0  0
 30 82  1  0  0  0  0
 31 83  1  0  0  0  0
 32 63  2  0  0  0  0
 33 64  1  0  0  0  0
 33 68  1  0  0  0  0
 34 35  1  0  0  0  0
 34 36  2  0  0  0  0
 34 45  1  0  0  0  0
 35 65  1  0  0  0  0
 35 74  2  0  0  0  0
 36 81  1  0  0  0  0
 37 69  1  0  0  0  0
 37 75  2  0  0  0  0
 38 53  1  0  0  0  0
 38 71  1  0  0  0  0
 38 76  2  0  0  0  0
 39 60  1  0  0  0  0
 39 66  1  0  0  0  0
 39 77  2  0  0  0  0
 40 61  1  0  0  0  0
 40 72  1  0  0  0  0
 40 78  2  0  0  0  0
 41 67  1  0  0  0  0
 41 70  1  0  0  0  0
 41 79  2  0  0  0  0
 42 46  1  0  0  0  0
 43 53  1  0  0  0  0
 44 66  1  0  0  0  0
 45 65  1  0  0  0  0
 46 48  1  0  0  0  0
 47 49  1  0  0  0  0
 47 50  1  0  0  0  0
 48 52  1  0  0  0  0
 49 54  1  0  0  0  0
 50 67  1  0  0  0  0
 51 54  1  0  0  0  0
 51 67  1  0  0  0  0
 52 71  1  0  0  0  0
 53 66  1  0  0  0  0
 54 64  1  0  0  0  0
 55 61  1  0  0  0  0
 56 62  1  0  0  0  0
 57 62  1  0  0  0  0
 58 62  1  0  0  0  0
 59 73  1  0  0  0  0
 60 62  1  0  0  0  0
 60 72  1  0  0  0  0
 61 73  1  0  0  0  0
 63 64  1  0  0  0  0
M  CHG  1  73   1
M  ISO  4  36 101  41 100  70 100  81 101
M  END
> <Batch ID>
0086

> <Smiles>
CNC(C)C(=O)NC(C(=O)N1Cc2cc([101O:1][101CH:1]=C3CN(c4cccc([100NH:0][100C:0](=O)N5CCCC(n6nc(-c7ccc(Oc8ccc(F)cc8F)cc7)c(C(N)=O)c6N)C5)c4)C3=O)ccc2CC1C(=O)NC1CCCc2ccccc21)C(C)(C)C

> <Shape>
0.244

> <Color>
0.100

> <Negative vol penalty>
0.000

$$$$

  -OEChem-04052300173D

 86 96  0     1  0  0  0  0  0999 V2000
  -27.7683  -34.4908   26.0388 C   0  0  0  0  0  0  0  0  0  0  0  0
  -28.0210  -33.1445   25.7960 C   0  0  0  0  0  0  0  0  0  0  0  0
  -23.3135   -9.5777   20.1014 C   0  0  0  0  0  0  0  0  0  0  0  0
  -23.8376   -9.9757   22.4261 C   0  0  0  0  0  0  0  0  0  0  0  0
  -26.4785  -34.9963   25.8812 C   0  0  0  0  0  0  0  0  0  0  0  0
  -26.9837  -32.3026   25.3965 C   0  0  0  0  0  0  0  0  0  0  0  0
  -28.3122  -29.2643   21.5691 C   0  0  0  0  0  0  0  0  0  0  0  0
  -30.7274  -19.4940   20.1102 C   0  0  0  0  0  0  0  0  0  0  0  0
  -28.9177  -19.7830   21.6845 C   0  0  0  0  0  0  0  0  0  0  0  0
  -30.6666  -18.1127   20.2938 C   0  0  0  0  0  0  0  0  0  0  0  0
  -28.8568  -18.4016   21.8681 C   0  0  0  0  0  0  0  0  0  0  0  0
  -22.6377   -8.4095   20.4537 C   0  0  0  0  0  0  0  0  0  0  0  0
  -23.1617   -8.8074   22.7784 C   0  0  0  0  0  0  0  0  0  0  0  0
  -29.0878  -28.1486   21.8814 C   0  0  0  0  0  0  0  0  0  0  0  0
  -19.9591   -7.8172   23.2067 C   0  0  0  0  0  0  0  0  0  0  0  0
  -19.0941   -7.8752   24.2993 C   0  0  0  0  0  0  0  0  0  0  0  0
  -27.1141  -26.7636   21.8083 C   0  0  0  0  0  0  0  0  0  0  0  0
  -20.3986   -6.1796   25.4220 C   0  0  0  0  0  0  0  0  0  0  0  0
  -23.9135  -10.3608   21.0876 C   0  0  0  0  0  0  0  0  0  0  0  0
  -24.0736  -12.8642   20.6239 C   0  0  0  0  0  0  0  0  0  0  0  0
  -25.4268  -34.1622   25.4703 C   0  0  0  0  0  0  0  0  0  0  0  0
  -26.9278  -29.1396   21.3844 C   0  0  0  0  0  0  0  0  0  0  0  0
  -25.6784  -32.7970   25.2346 C   0  0  0  0  0  0  0  0  0  0  0  0
  -26.3236  -27.8788   21.4912 C   0  0  0  0  0  0  0  0  0  0  0  0
  -29.8530  -20.3292   20.8056 C   0  0  0  0  0  0  0  0  0  0  0  0
  -29.7313  -17.5664   21.1727 C   0  0  0  0  0  0  0  0  0  0  0  0
  -22.5618   -8.0243   21.7922 C   0  0  0  0  0  0  0  0  0  0  0  0
  -28.4883  -26.8986   22.0040 C   0  0  0  0  0  0  0  0  0  0  0  0
  -21.0439   -6.9404   23.2216 C   0  0  0  0  0  0  0  0  0  0  0  0
  -19.3138   -7.0564   25.4070 C   0  0  0  0  0  0  0  0  0  0  0  0
  -21.2636   -6.1216   24.3293 C   0  0  0  0  0  0  0  0  0  0  0  0
  -24.6122  -11.5674   20.7243 C   0  0  0  0  0  0  0  0  0  0  0  0
  -25.1368  -13.6496   20.2506 C   0  0  0  0  0  0  0  0  0  0  0  0
  -31.3745  -23.3571   18.9443 C   0  0  0  0  0  0  0  0  0  0  0  0
  -30.8250  -22.4157   19.7505 C   0  0  0  0  0  0  0  0  0  0  0  0
  -29.1479  -22.7582   21.0057 C   0  0  0  0  0  0  0  0  0  0  0  0
  -22.7323  -13.3183   20.8480 C   0  0  0  0  0  0  0  0  0  0  0  0
  -24.3563  -30.3194   22.8333 C   0  0  0  0  0  0  0  0  0  0  0  0
  -22.7924  -28.8582   20.3957 C   0  0  0  0  0  0  0  0  0  0  0  0
  -22.7823  -26.4190   18.0089 C   0  0  0  0  0  0  0  0  0  0  0  0
  -30.4633  -15.1937   20.7479 C   0  0  0  0  0  0  0  0  0  0  0  0
  -24.0398  -34.7439   25.3594 C   0  0  0  0  0  0  0  0  0  0  0  0
  -26.1092  -30.3482   21.0216 C   0  0  0  0  0  0  0  0  0  0  0  0
  -24.8442  -27.6881   21.2826 C   0  0  0  0  0  0  0  0  0  0  0  0
  -30.2358  -24.3376   19.1109 C   0  0  0  0  0  0  0  0  0  0  0  0
  -23.0720  -33.8653   24.5708 C   0  0  0  0  0  0  0  0  0  0  0  0
  -29.7771  -12.3804   18.6762 C   0  0  0  0  0  0  0  0  0  0  0  0
  -23.1774  -32.4132   25.0260 C   0  0  0  0  0  0  0  0  0  0  0  0
  -28.3279  -12.0247   19.0161 C   0  0  0  0  0  0  0  0  0  0  0  0
  -30.5475  -12.8571   19.9063 C   0  0  0  0  0  0  0  0  0  0  0  0
  -28.4627  -13.5956   20.9913 C   0  0  0  0  0  0  0  0  0  0  0  0
  -24.5845  -31.8573   24.7758 C   0  0  1  0  0  0  0  0  0  0  0  0
  -24.6302  -30.1922   21.3614 C   0  0  1  0  0  0  0  0  0  0  0  0
  -27.6284  -13.1719   19.7714 C   0  0  2  0  0  0  0  0  0  0  0  0
  -30.2177  -23.7374   20.5156 C   0  0  2  0  0  0  0  0  0  0  0  0
  -21.3496  -25.4458   16.1929 C   0  0  0  0  0  0  0  0  0  0  0  0
  -21.0843  -27.4548   22.4988 C   0  0  0  0  0  0  0  0  0  0  0  0
  -20.3597  -25.8375   20.7304 C   0  0  0  0  0  0  0  0  0  0  0  0
  -19.8205  -28.2618   20.4973 C   0  0  0  0  0  0  0  0  0  0  0  0
  -24.7751  -27.0796   15.9229 C   0  0  0  0  0  0  0  0  0  0  0  0
  -31.0563  -24.3834   21.6122 C   0  0  0  0  0  0  0  0  0  0  0  0
  -30.5997  -25.8126   21.8673 C   0  0  0  0  0  0  0  0  0  1  0  0
  -22.2047  -27.4857   20.1729 C   0  0  1  0  0  0  0  0  0  0  0  0
  -22.4342  -26.4566   16.5317 C   0  0  2  0  0  0  0  0  0  0  0  0
  -20.8949  -27.2635   20.9807 C   0  0  0  0  0  0  0  0  0  0  0  0
  -25.9162  -11.5270   20.4377 N   0  0  0  0  0  0  0  0  0  0  0  0
  -26.2058  -12.8082   20.1536 N   0  0  0  0  0  0  0  0  0  0  0  0
  -29.9139  -21.7091   20.6226 N   0  0  0  0  0  0  0  0  0  0  0  0
  -24.0856  -28.9013   20.9357 N   0  0  0  0  0  0  0  0  0  0  0  0
  -29.8272  -13.9471   20.5680 N   0  0  0  0  0  0  0  0  0  0  0  0
  -25.2521  -14.9709   19.9992 N   0  0  0  0  0  0  0  0  0  0  0  0
  -21.7634  -12.3789   21.2265 N   0  0  0  0  0  0  0  0  0  0  0  0
  -29.6692  -16.1632   21.3594 N   0  0  0  0  0  0  0  0  0  0  0  0
  -24.7554  -31.5252   23.3777 N   0  0  0  0  0  0  0  0  0  0  0  0
  -22.0491  -27.3376   18.7299 N   0  0  0  0  0  0  0  0  0  0  0  0
  -23.6374  -26.1488   15.7080 N   0  3  0  0  0  0  0  0  0  0  0  0
  -28.0968  -22.8674   21.5954 O   0  0  0  0  0  0  0  0  0  0  0  0
  -22.3991  -14.5186   20.7007 O   0  0  0  0  0  0  0  0  0  0  0  0
  -23.8210  -29.3929   23.4305 O   0  0  0  0  0  0  0  0  0  0  0  0
  -22.1313  -29.8553   20.0949 O   0  0  0  0  0  0  0  0  0  0  0  0
  -23.6182  -25.6491   18.4769 O   0  0  0  0  0  0  0  0  0  0  0  0
  -31.6175  -15.3950   20.3615 O   0  0  0  0  0  0  0  0  0  0  0  0
  -21.9023   -6.8846   22.1364 O   0  0  0  0  0  0  0  0  0  0  0  0
  -29.2429  -25.8081   22.3094 O   0  0  0  0  0  0  0  0  0  1  0  0
  -18.4839   -7.1133   26.4569 F   0  0  0  0  0  0  0  0  0  0  0  0
  -22.3047   -5.2781   24.3500 F   0  0  0  0  0  0  0  0  0  0  0  0
  1  2  1  0  0  0  0
  1  5  2  0  0  0  0
  2  6  2  0  0  0  0
  3 12  2  0  0  0  0
  3 19  1  0  0  0  0
  4 13  1  0  0  0  0
  4 19  2  0  0  0  0
  5 21  1  0  0  0  0
  6 23  1  0  0  0  0
  7 14  2  0  0  0  0
  7 22  1  0  0  0  0
  8 10  2  0  0  0  0
  8 25  1  0  0  0  0
  9 11  1  0  0  0  0
  9 25  2  0  0  0  0
 10 26  1  0  0  0  0
 11 26  2  0  0  0  0
 12 27  1  0  0  0  0
 13 27  2  0  0  0  0
 14 28  1  0  0  0  0
 15 16  2  0  0  0  0
 15 29  1  0  0  0  0
 16 30  1  0  0  0  0
 17 24  1  0  0  0  0
 17 28  2  0  0  0  0
 18 30  2  0  0  0  0
 18 31  1  0  0  0  0
 19 32  1  0  0  0  0
 20 32  1  0  0  0  0
 20 33  2  0  0  0  0
 20 37  1  0  0  0  0
 21 23  2  0  0  0  0
 21 42  1  0  0  0  0
 22 24  2  0  0  0  0
 22 43  1  0  0  0  0
 23 52  1  0  0  0  0
 24 44  1  0  0  0  0
 25 68  1  0  0  0  0
 26 73  1  0  0  0  0
 27 83  1  0  0  0  0
 28 84  1  0  0  0  0
 29 31  2  0  0  0  0
 29 83  1  0  0  0  0
 30 85  1  0  0  0  0
 31 86  1  0  0  0  0
 32 66  2  0  0  0  0
 33 67  1  0  0  0  0
 33 71  1  0  0  0  0
 34 35  2  0  0  0  0
 34 45  1  0  0  0  0
 35 55  1  0  0  0  0
 35 68  1  0  0  0  0
 36 55  1  0  0  0  0
 36 68  1  0  0  0  0
 36 77  2  0  0  0  0
 37 72  1  0  0  0  0
 37 78  2  0  0  0  0
 38 53  1  0  0  0  0
 38 74  1  0  0  0  0
 38 79  2  0  0  0  0
 39 63  1  0  0  0  0
 39 69  1  0  0  0  0
 39 80  2  0  0  0  0
 40 64  1  0  0  0  0
 40 75  1  0  0  0  0
 40 81  2  0  0  0  0
 41 70  1  0  0  0  0
 41 73  1  0  0  0  0
 41 82  2  0  0  0  0
 42 46  1  0  0  0  0
 43 53  1  0  0  0  0
 44 69  1  0  0  0  0
 45 55  1  0  0  0  0
 46 48  1  0  0  0  0
 47 49  1  0  0  0  0
 47 50  1  0  0  0  0
 48 52  1  0  0  0  0
 49 54  1  0  0  0  0
 50 70  1  0  0  0  0
 51 54  1  0  0  0  0
 51 70  1  0  0  0  0
 52 74  1  0  0  0  0
 53 69  1  0  0  0  0
 54 67  1  0  0  0  0
 55 61  1  0  0  0  0
 56 64  1  0  0  0  0
 57 65  1  0  0  0  0
 58 65  1  0  0  0  0
 59 65  1  0  0  0  0
 60 76  1  0  0  0  0
 61 62  1  0  0  0  0
 62 84  1  0  0  0  0
 63 65  1  0  0  0  0
 63 75  1  0  0  0  0
 64 76  1  0  0  0  0
 66 67  1  0  0  0  0
M  CHG  1  76   1
M  ISO  4  41 100  62 101  73 100  84 101
M  END
> <Batch ID>
0086

> <Smiles>
CNC(C)C(=O)NC(C(=O)N1Cc2cc([101O:1][101CH2:1]CC34CC=C3N(c3ccc([100NH:0][100C:0](=O)N5CCCC(n6nc(-c7ccc(Oc8ccc(F)cc8F)cc7)c(C(N)=O)c6N)C5)cc3)C4=O)ccc2CC1C(=O)NC1CCCc2ccccc21)C(C)(C)C

> <Shape>
0.377

> <Color>
0.167

> <Negative vol penalty>
0.000

$$$$

  -OEChem-04052300173D

 86 95  0     1  0  0  0  0  0999 V2000
  -30.4615  -36.6151   18.4266 C   0  0  0  0  0  0  0  0  0  0  0  0
  -30.0929  -35.4277   17.8025 C   0  0  0  0  0  0  0  0  0  0  0  0
  -31.1394  -19.3924   17.7018 C   0  0  0  0  0  0  0  0  0  0  0  0
  -22.8280  -10.9875   19.1559 C   0  0  0  0  0  0  0  0  0  0  0  0
  -23.3818   -9.6332   21.0785 C   0  0  0  0  0  0  0  0  0  0  0  0
  -30.5655  -36.6680   19.8160 C   0  0  0  0  0  0  0  0  0  0  0  0
  -29.8292  -34.2920   18.5674 C   0  0  0  0  0  0  0  0  0  0  0  0
  -25.6822  -28.4514   18.6434 C   0  0  0  0  0  0  0  0  0  0  0  0
  -30.2619  -20.4068   18.0847 C   0  0  0  0  0  0  0  0  0  0  0  0
  -30.9577  -18.0952   18.1814 C   0  0  0  0  0  0  0  0  0  0  0  0
  -21.8826  -10.0409   18.7614 C   0  0  0  0  0  0  0  0  0  0  0  0
  -22.4363   -8.6866   20.6840 C   0  0  0  0  0  0  0  0  0  0  0  0
  -25.7753  -27.0659   18.7677 C   0  0  0  0  0  0  0  0  0  0  0  0
  -18.7305   -9.1633   19.6140 C   0  0  0  0  0  0  0  0  0  0  0  0
  -17.4802   -9.6272   19.2053 C   0  0  0  0  0  0  0  0  0  0  0  0
  -25.9099  -27.2961   21.1652 C   0  0  0  0  0  0  0  0  0  0  0  0
  -17.8153   -8.6189   17.0355 C   0  0  0  0  0  0  0  0  0  0  0  0
  -23.5777  -10.7837   20.3145 C   0  0  0  0  0  0  0  0  0  0  0  0
  -24.3477  -12.8703   21.5637 C   0  0  0  0  0  0  0  0  0  0  0  0
  -30.2936  -35.5349   20.5989 C   0  0  0  0  0  0  0  0  0  0  0  0
  -25.7133  -29.2717   19.7803 C   0  0  0  0  0  0  0  0  0  0  0  0
  -29.9310  -34.3293   19.9685 C   0  0  0  0  0  0  0  0  0  0  0  0
  -25.8145  -28.6916   21.0528 C   0  0  0  0  0  0  0  0  0  0  0  0
  -29.2028  -20.1241   18.9473 C   0  0  0  0  0  0  0  0  0  0  0  0
  -29.8987  -17.8125   19.0441 C   0  0  0  0  0  0  0  0  0  0  0  0
  -21.6867   -8.8905   19.5254 C   0  0  0  0  0  0  0  0  0  0  0  0
  -25.8921  -26.4882   20.0285 C   0  0  0  0  0  0  0  0  0  0  0  0
  -19.5233   -8.4272   18.7333 C   0  0  0  0  0  0  0  0  0  0  0  0
  -17.0225   -9.3550   17.9161 C   0  0  0  0  0  0  0  0  0  0  0  0
  -19.0656   -8.1550   17.4441 C   0  0  0  0  0  0  0  0  0  0  0  0
  -29.0212  -18.8269   19.4270 C   0  0  0  0  0  0  0  0  0  0  0  0
  -24.5548  -11.7609   20.7223 C   0  0  0  0  0  0  0  0  0  0  0  0
  -25.5770  -13.4784   21.6390 C   0  0  0  0  0  0  0  0  0  0  0  0
  -27.2210  -23.1833   19.6010 C   0  0  0  0  0  0  0  0  0  0  0  0
  -28.3663  -22.5069   18.9357 C   0  0  0  0  0  0  0  0  0  0  0  0
  -27.0322  -24.5039   19.5454 C   0  0  0  0  0  0  0  0  0  1  0  0
  -23.1511  -13.3117   22.2187 C   0  0  0  0  0  0  0  0  0  0  0  0
  -27.6468  -31.5598   20.8431 C   0  0  0  0  0  0  0  0  0  0  0  0
  -25.3836  -31.8628   23.1471 C   0  0  0  0  0  0  0  0  0  0  0  0
  -22.8417  -30.4306   24.9175 C   0  0  0  0  0  0  0  0  0  0  0  0
  -30.1059  -15.3466   18.7766 C   0  0  0  0  0  0  0  0  0  0  0  0
  -30.4653  -35.6277   22.0944 C   0  0  0  0  0  0  0  0  0  0  0  0
  -25.5849  -30.7629   19.6310 C   0  0  0  0  0  0  0  0  0  0  0  0
  -25.8321  -29.5268   22.3060 C   0  0  0  0  0  0  0  0  0  0  0  0
  -26.3809  -22.1875   20.3213 C   0  0  0  0  0  0  0  0  0  0  0  0
  -29.8049  -34.4811   22.8556 C   0  0  0  0  0  0  0  0  0  0  0  0
  -30.1386  -11.9182   20.1387 C   0  0  0  0  0  0  0  0  0  0  0  0
  -30.1413  -33.1438   22.2036 C   0  0  0  0  0  0  0  0  0  0  0  0
  -28.6608  -11.6479   20.4160 C   0  0  0  0  0  0  0  0  0  0  0  0
  -27.2332  -20.9296   20.2915 C   0  0  0  0  0  0  0  0  0  0  0  0
  -30.3291  -12.8875   18.9758 C   0  0  0  0  0  0  0  0  0  0  0  0
  -28.1153  -13.9043   19.4178 C   0  0  0  0  0  0  0  0  0  0  0  0
  -29.6128  -33.0828   20.7654 C   0  0  1  0  0  0  0  0  0  0  0  0
  -26.1447  -31.5331   20.8230 C   0  0  1  0  0  0  0  0  0  0  0  0
  -27.8895  -12.9646   20.6119 C   0  0  1  0  0  0  0  0  0  0  0  0
  -21.2079  -30.9138   26.7599 C   0  0  0  0  0  0  0  0  0  0  0  0
  -27.6147  -31.5493   25.2046 C   0  0  0  0  0  0  0  0  0  0  0  0
  -25.8621  -31.0885   26.9321 C   0  0  0  0  0  0  0  0  0  0  0  0
  -25.9138  -33.2941   25.7679 C   0  0  0  0  0  0  0  0  0  0  0  0
  -29.3382  -16.2855   20.9443 C   0  0  0  0  0  0  0  0  0  0  0  0
  -20.5220  -30.0010   23.1305 C   0  0  0  0  0  0  0  0  0  0  0  0
  -25.1489  -31.2427   24.5033 C   0  0  1  0  0  0  0  0  0  0  0  0
  -21.4477  -30.9256   25.2582 C   0  0  2  0  0  0  0  0  0  0  0  0
  -26.1365  -31.7778   25.5784 C   0  0  0  0  0  0  0  0  0  0  0  0
  -25.8164  -11.6672   20.2936 N   0  0  0  0  0  0  0  0  0  0  0  0
  -26.4130  -12.7257   20.8679 N   0  0  0  0  0  0  0  0  0  0  0  0
  -28.3054  -21.1663   19.3375 N   0  0  0  0  0  0  0  0  0  0  0  0
  -25.7101  -30.9805   22.1075 N   0  0  0  0  0  0  0  0  0  0  0  0
  -29.5496  -14.1114   19.1655 N   0  0  0  0  0  0  0  0  0  0  0  0
  -26.0134  -14.5782   22.2889 N   0  0  0  0  0  0  0  0  0  0  0  0
  -21.9760  -12.5705   22.0341 N   0  0  0  0  0  0  0  0  0  0  0  0
  -28.1882  -32.8285   20.7607 N   0  0  0  0  0  0  0  0  0  0  0  0
  -23.7426  -31.4697   24.8182 N   0  0  0  0  0  0  0  0  0  0  0  0
  -29.7139  -16.4685   19.5385 N   0  0  0  0  0  0  0  0  0  0  0  0
  -20.4191  -30.0627   24.6113 N   0  3  0  0  0  0  0  0  0  0  0  0
  -29.1554  -23.0865   18.2083 O   0  0  0  0  0  0  0  0  0  0  0  0
  -23.1209  -14.3425   22.9330 O   0  0  0  0  0  0  0  0  0  0  0  0
  -28.2687  -30.5074   20.9287 O   0  0  0  0  0  0  0  0  0  0  0  0
  -25.2739  -33.0841   23.0134 O   0  0  0  0  0  0  0  0  0  0  0  0
  -23.1059  -29.2407   24.7594 O   0  0  0  0  0  0  0  0  0  0  0  0
  -30.9115  -15.4341   17.8423 O   0  0  0  0  0  0  0  0  0  0  0  0
  -20.7641   -7.9667   19.1408 O   0  0  0  0  0  0  0  0  0  0  0  0
  -25.9838  -25.1361   20.1527 O   0  0  0  0  0  0  0  0  0  1  0  0
  -15.8211   -9.7992   17.5243 F   0  0  0  0  0  0  0  0  0  0  0  0
  -19.8223   -7.4474   16.5941 F   0  0  0  0  0  0  0  0  0  0  0  0
  -28.0028  -18.5553   20.2576 F   0  0  0  0  0  0  0  0  0  0  0  0
  1  2  1  0  0  0  0
  1  6  2  0  0  0  0
  2  7  2  0  0  0  0
  3  9  2  0  0  0  0
  3 10  1  0  0  0  0
  4 11  2  0  0  0  0
  4 18  1  0  0  0  0
  5 12  1  0  0  0  0
  5 18  2  0  0  0  0
  6 20  1  0  0  0  0
  7 22  1  0  0  0  0
  8 13  2  0  0  0  0
  8 21  1  0  0  0  0
  9 24  1  0  0  0  0
 10 25  2  0  0  0  0
 11 26  1  0  0  0  0
 12 26  2  0  0  0  0
 13 27  1  0  0  0  0
 14 15  2  0  0  0  0
 14 28  1  0  0  0  0
 15 29  1  0  0  0  0
 16 23  1  0  0  0  0
 16 27  2  0  0  0  0
 17 29  2  0  0  0  0
 17 30  1  0  0  0  0
 18 32  1  0  0  0  0
 19 32  1  0  0  0  0
 19 33  2  0  0  0  0
 19 37  1  0  0  0  0
 20 22  2  0  0  0  0
 20 42  1  0  0  0  0
 21 23  2  0  0  0  0
 21 43  1  0  0  0  0
 22 53  1  0  0  0  0
 23 44  1  0  0  0  0
 24 31  2  0  0  0  0
 24 67  1  0  0  0  0
 25 31  1  0  0  0  0
 25 74  1  0  0  0  0
 26 82  1  0  0  0  0
 27 83  1  0  0  0  0
 28 30  2  0  0  0  0
 28 82  1  0  0  0  0
 29 84  1  0  0  0  0
 30 85  1  0  0  0  0
 31 86  1  0  0  0  0
 32 65  2  0  0  0  0
 33 66  1  0  0  0  0
 33 70  1  0  0  0  0
 34 35  1  0  0  0  0
 34 36  2  0  0  0  0
 34 45  1  0  0  0  0
 35 67  1  0  0  0  0
 35 76  2  0  0  0  0
 36 83  1  0  0  0  0
 37 71  1  0  0  0  0
 37 77  2  0  0  0  0
 38 54  1  0  0  0  0
 38 72  1  0  0  0  0
 38 78  2  0  0  0  0
 39 62  1  0  0  0  0
 39 68  1  0  0  0  0
 39 79  2  0  0  0  0
 40 63  1  0  0  0  0
 40 73  1  0  0  0  0
 40 80  2  0  0  0  0
 41 69  1  0  0  0  0
 41 74  1  0  0  0  0
 41 81  2  0  0  0  0
 42 46  1  0  0  0  0
 43 54  1  0  0  0  0
 44 68  1  0  0  0  0
 45 50  1  0  0  0  0
 46 48  1  0  0  0  0
 47 49  1  0  0  0  0
 47 51  1  0  0  0  0
 48 53  1  0  0  0  0
 49 55  1  0  0  0  0
 50 67  1  0  0  0  0
 51 69  1  0  0  0  0
 52 55  1  0  0  0  0
 52 69  1  0  0  0  0
 53 72  1  0  0  0  0
 54 68  1  0  0  0  0
 55 66  1  0  0  0  0
 56 63  1  0  0  0  0
 57 64  1  0  0  0  0
 58 64  1  0  0  0  0
 59 64  1  0  0  0  0
 60 74  1  0  0  0  0
 61 75  1  0  0  0  0
 62 64  1  0  0  0  0
 62 73  1  0  0  0  0
 63 75  1  0  0  0  0
 65 66  1  0  0  0  0
M  CHG  1  75   1
M  ISO  4  36 101  41 100  74 100  83 101
M  END
> <Batch ID>
0086

> <Smiles>
CNC(C)C(=O)NC(C(=O)N1Cc2cc([101O:1][101CH:1]=C3CCN(c4cccc([100N:0](C)[100C:0](=O)N5CCCC(n6nc(-c7ccc(Oc8ccc(F)cc8F)cc7)c(C(N)=O)c6N)C5)c4F)C3=O)ccc2CC1C(=O)NC1CCCc2ccccc21)C(C)(C)C

> <Shape>
0.272

> <Color>
0.127

> <Negative vol penalty>
0.000

$$$$

  -OEChem-04052300173D

 87 96  0     1  0  0  0  0  0999 V2000
  -25.3407  -32.7254   22.7486 C   0  0  0  0  0  0  0  0  0  0  0  0
  -25.3044  -31.7971   21.7131 C   0  0  0  0  0  0  0  0  0  0  0  0
  -30.0930  -16.8395   13.7778 C   0  0  0  0  0  0  0  0  0  0  0  0
  -23.3134   -9.7568   19.9354 C   0  0  0  0  0  0  0  0  0  0  0  0
  -23.7155   -9.9542   22.3095 C   0  0  0  0  0  0  0  0  0  0  0  0
  -26.4401  -32.7701   23.6050 C   0  0  0  0  0  0  0  0  0  0  0  0
  -26.3680  -30.9135   21.5328 C   0  0  0  0  0  0  0  0  0  0  0  0
  -26.0494  -25.1198   19.5739 C   0  0  0  0  0  0  0  0  0  0  0  0
  -29.4209  -18.0595   13.7035 C   0  0  0  0  0  0  0  0  0  0  0  0
  -30.0190  -16.0721   14.9403 C   0  0  0  0  0  0  0  0  0  0  0  0
  -22.5911   -8.5840   20.1552 C   0  0  0  0  0  0  0  0  0  0  0  0
  -22.9932   -8.7814   22.5294 C   0  0  0  0  0  0  0  0  0  0  0  0
  -26.2562  -24.5398   18.3230 C   0  0  0  0  0  0  0  0  0  0  0  0
  -19.4943   -7.7259   21.2070 C   0  0  0  0  0  0  0  0  0  0  0  0
  -18.2794   -7.5778   20.5379 C   0  0  0  0  0  0  0  0  0  0  0  0
  -28.5251  -24.0117   18.9497 C   0  0  0  0  0  0  0  0  0  0  0  0
  -28.6010  -17.7448   15.9543 C   0  0  0  0  0  0  0  0  0  0  0  0
  -19.1173   -5.5856   19.4578 C   0  0  0  0  0  0  0  0  0  0  0  0
  -23.8757  -10.4419   21.0126 C   0  0  0  0  0  0  0  0  0  0  0  0
  -24.1216  -12.9686   20.7617 C   0  0  0  0  0  0  0  0  0  0  0  0
  -27.5133  -31.8802   23.4410 C   0  0  0  0  0  0  0  0  0  0  0  0
  -27.0840  -25.1598   20.5197 C   0  0  0  0  0  0  0  0  0  0  0  0
  -27.4833  -30.9472   22.3869 C   0  0  0  0  0  0  0  0  0  0  0  0
  -28.3281  -24.5905   20.2127 C   0  0  0  0  0  0  0  0  0  0  0  0
  -28.6749  -18.5122   14.7918 C   0  0  0  0  0  0  0  0  0  0  0  0
  -29.2731  -16.5248   16.0285 C   0  0  0  0  0  0  0  0  0  0  0  0
  -22.4310   -8.0963   21.4522 C   0  0  0  0  0  0  0  0  0  0  0  0
  -27.4950  -23.9883   18.0097 C   0  0  0  0  0  0  0  0  0  0  0  0
  -20.5207   -6.8040   21.0015 C   0  0  0  0  0  0  0  0  0  0  0  0
  -18.0909   -6.5076   19.6633 C   0  0  0  0  0  0  0  0  0  0  0  0
  -20.3322   -5.7338   20.1269 C   0  0  0  0  0  0  0  0  0  0  0  0
  -24.6224  -11.6532   20.7861 C   0  0  0  0  0  0  0  0  0  0  0  0
  -25.2226  -13.7506   20.5111 C   0  0  0  0  0  0  0  0  0  0  0  0
  -26.8756  -21.5714   13.9392 C   0  0  0  0  0  0  0  0  0  0  0  0
  -27.0125  -21.7281   15.2582 C   0  0  0  0  0  0  0  0  0  0  0  0
  -27.4985  -20.2849   13.5607 C   0  0  0  0  0  0  0  0  0  0  0  0
  -27.7466  -20.5589   15.7876 C   0  0  0  0  0  0  0  0  0  0  0  0
  -22.7810  -13.4414   20.9490 C   0  0  0  0  0  0  0  0  0  0  0  0
  -28.6853  -27.4751   21.9958 C   0  0  0  0  0  0  0  0  0  0  0  0
  -29.9868  -24.9969   23.6350 C   0  0  0  0  0  0  0  0  0  0  0  0
  -30.7619  -21.6747   23.7302 C   0  0  0  0  0  0  0  0  0  0  0  0
  -29.8661  -14.4913   17.3356 C   0  0  0  0  0  0  0  0  0  0  0  0
  -28.7013  -31.9979   24.3627 C   0  0  0  0  0  0  0  0  0  0  0  0
  -26.8367  -25.7652   21.8742 C   0  0  0  0  0  0  0  0  0  0  0  0
  -29.4652  -24.5898   21.2003 C   0  0  0  0  0  0  0  0  0  0  0  0
  -29.6182  -30.7778   24.3333 C   0  0  0  0  0  0  0  0  0  0  0  0
  -30.1461  -12.6312   20.5092 C   0  0  0  0  0  0  0  0  0  0  0  0
  -29.8996  -30.3560   22.8947 C   0  0  0  0  0  0  0  0  0  0  0  0
  -28.6952  -12.2667   20.8193 C   0  0  0  0  0  0  0  0  0  0  0  0
  -30.3943  -12.7416   19.0078 C   0  0  0  0  0  0  0  0  0  0  0  0
  -28.0173  -13.3184   18.6240 C   0  0  0  0  0  0  0  0  0  0  0  0
  -28.6066  -29.9556   22.1742 C   0  0  1  0  0  0  0  0  0  0  0  0
  -28.1180  -26.2093   22.5732 C   0  0  1  0  0  0  0  0  0  0  0  0
  -27.7251  -13.2419   20.1302 C   0  0  1  0  0  0  0  0  0  0  0  0
  -26.2327  -22.4440   12.9262 C   0  0  0  0  0  0  0  0  0  0  0  0
  -31.8571  -19.9484   25.1854 C   0  0  0  0  0  0  0  0  0  0  0  0
  -32.7290  -26.0901   22.8638 C   0  0  0  0  0  0  0  0  0  0  0  0
  -33.7128  -23.8776   23.5005 C   0  0  0  0  0  0  0  0  0  0  0  0
  -32.5584  -25.2684   25.2197 C   0  0  0  0  0  0  0  0  0  0  0  0
  -28.6164  -16.3353   18.4347 C   0  0  0  0  0  0  0  0  0  0  0  0
  -28.2694  -20.0912   23.9269 C   0  0  0  0  0  0  0  0  0  0  0  0
  -26.5696  -22.8300   16.1502 C   0  0  0  0  0  0  0  0  0  1  0  0
  -31.1875  -24.1020   23.4443 C   0  0  1  0  0  0  0  0  0  0  0  0
  -30.5482  -20.6208   24.8017 C   0  0  2  0  0  0  0  0  0  0  0  0
  -32.5263  -24.8361   23.7375 C   0  0  0  0  0  0  0  0  0  0  0  0
  -25.9391  -11.5986   20.5681 N   0  0  0  0  0  0  0  0  0  0  0  0
  -26.2749  -12.8896   20.4043 N   0  0  0  0  0  0  0  0  0  0  0  0
  -28.0048  -19.7282   14.7169 N   0  0  0  0  0  0  0  0  0  0  0  0
  -29.1761  -25.1990   22.5091 N   0  0  0  0  0  0  0  0  0  0  0  0
  -29.4303  -13.6391   18.3700 N   0  0  0  0  0  0  0  0  0  0  0  0
  -25.3835  -15.0839   20.3737 N   0  0  0  0  0  0  0  0  0  0  0  0
  -21.7702  -12.5029   21.1975 N   0  0  0  0  0  0  0  0  0  0  0  0
  -28.1937  -28.6284   22.5771 N   0  0  0  0  0  0  0  0  0  0  0  0
  -30.9562  -22.9259   24.2761 N   0  0  0  0  0  0  0  0  0  0  0  0
  -29.1968  -15.7299   17.2315 N   0  0  0  0  0  0  0  0  0  0  0  0
  -29.6059  -19.5729   24.3169 N   0  3  0  0  0  0  0  0  0  0  0  0
  -27.5310  -19.8474   12.4213 O   0  0  0  0  0  0  0  0  0  0  0  0
  -28.0409  -20.4084   16.9629 O   0  0  0  0  0  0  0  0  0  0  0  0
  -22.4855  -14.6586   20.8812 O   0  0  0  0  0  0  0  0  0  0  0  0
  -29.5092  -27.4104   21.0910 O   0  0  0  0  0  0  0  0  0  0  0  0
  -29.7719  -25.4925   24.7440 O   0  0  0  0  0  0  0  0  0  0  0  0
  -30.7605  -21.4135   22.5293 O   0  0  0  0  0  0  0  0  0  0  0  0
  -30.7989  -14.1819   16.5847 O   0  0  0  0  0  0  0  0  0  0  0  0
  -21.7260   -6.9520   21.6671 O   0  0  0  0  0  0  0  0  0  0  0  0
  -27.6997  -23.4222   16.7892 O   0  0  0  0  0  0  0  0  0  1  0  0
  -16.9236   -6.3646   19.0221 F   0  0  0  0  0  0  0  0  0  0  0  0
  -21.3141   -4.8443   19.9263 F   0  0  0  0  0  0  0  0  0  0  0  0
  1  2  1  0  0  0  0
  1  6  2  0  0  0  0
  2  7  2  0  0  0  0
  3  9  2  0  0  0  0
  3 10  1  0  0  0  0
  4 11  2  0  0  0  0
  4 19  1  0  0  0  0
  5 12  1  0  0  0  0
  5 19  2  0  0  0  0
  6 21  1  0  0  0  0
  7 23  1  0  0  0  0
  8 13  2  0  0  0  0
  8 22  1  0  0  0  0
  9 25  1  0  0  0  0
 10 26  2  0  0  0  0
 11 27  1  0  0  0  0
 12 27  2  0  0  0  0
 13 28  1  0  0  0  0
 14 15  2  0  0  0  0
 14 29  1  0  0  0  0
 15 30  1  0  0  0  0
 16 24  1  0  0  0  0
 16 28  2  0  0  0  0
 17 25  2  0  0  0  0
 17 26  1  0  0  0  0
 18 30  2  0  0  0  0
 18 31  1  0  0  0  0
 19 32  1  0  0  0  0
 20 32  1  0  0  0  0
 20 33  2  0  0  0  0
 20 38  1  0  0  0  0
 21 23  2  0  0  0  0
 21 43  1  0  0  0  0
 22 24  2  0  0  0  0
 22 44  1  0  0  0  0
 23 52  1  0  0  0  0
 24 45  1  0  0  0  0
 25 68  1  0  0  0  0
 26 75  1  0  0  0  0
 27 84  1  0  0  0  0
 28 85  1  0  0  0  0
 29 31  2  0  0  0  0
 29 84  1  0  0  0  0
 30 86  1  0  0  0  0
 31 87  1  0  0  0  0
 32 66  2  0  0  0  0
 33 67  1  0  0  0  0
 33 71  1  0  0  0  0
 34 35  2  0  0  0  0
 34 36  1  0  0  0  0
 34 55  1  0  0  0  0
 35 37  1  0  0  0  0
 35 62  1  0  0  0  0
 36 68  1  0  0  0  0
 36 77  2  0  0  0  0
 37 68  1  0  0  0  0
 37 78  2  0  0  0  0
 38 72  1  0  0  0  0
 38 79  2  0  0  0  0
 39 53  1  0  0  0  0
 39 73  1  0  0  0  0
 39 80  2  0  0  0  0
 40 63  1  0  0  0  0
 40 69  1  0  0  0  0
 40 81  2  0  0  0  0
 41 64  1  0  0  0  0
 41 74  1  0  0  0  0
 41 82  2  0  0  0  0
 42 70  1  0  0  0  0
 42 75  1  0  0  0  0
 42 83  2  0  0  0  0
 43 46  1  0  0  0  0
 44 53  1  0  0  0  0
 45 69  1  0  0  0  0
 46 48  1  0  0  0  0
 47 49  1  0  0  0  0
 47 50  1  0  0  0  0
 48 52  1  0  0  0  0
 49 54  1  0  0  0  0
 50 70  1  0  0  0  0
 51 54  1  0  0  0  0
 51 70  1  0  0  0  0
 52 73  1  0  0  0  0
 53 69  1  0  0  0  0
 54 67  1  0  0  0  0
 56 64  1  0  0  0  0
 57 65  1  0  0  0  0
 58 65  1  0  0  0  0
 59 65  1  0  0  0  0
 60 75  1  0  0  0  0
 61 76  1  0  0  0  0
 62 85  1  0  0  0  0
 63 65  1  0  0  0  0
 63 74  1  0  0  0  0
 64 76  1  0  0  0  0
 66 67  1  0  0  0  0
M  CHG  1  76   1
M  ISO  4  42 100  62 101  75 100  85 101
M  END
> <Batch ID>
0086

> <Smiles>
CNC(C)C(=O)NC(C(=O)N1Cc2cc([101O:1][101CH2:1]C3=C(C)C(=O)N(c4cccc([100N:0](C)[100C:0](=O)N5CCCC(n6nc(-c7ccc(Oc8ccc(F)cc8F)cc7)c(C(N)=O)c6N)C5)c4)C3=O)ccc2CC1C(=O)NC1CCCc2ccccc21)C(C)(C)C

> <Shape>
0.190

> <Color>
0.174

> <Negative vol penalty>
0.000

$$$$

  -OEChem-04052300173D

 86 95  0     1  0  0  0  0  0999 V2000
  -29.3624  -30.9314   25.8381 C   0  0  0  0  0  0  0  0  0  0  0  0
  -29.0168  -29.6706   25.3623 C   0  0  0  0  0  0  0  0  0  0  0  0
  -24.4825  -14.9763   23.6297 C   0  0  0  0  0  0  0  0  0  0  0  0
  -23.7818  -16.1391   21.6312 C   0  0  0  0  0  0  0  0  0  0  0  0
  -28.3853  -31.9171   25.9706 C   0  0  0  0  0  0  0  0  0  0  0  0
  -27.6936  -29.3944   25.0197 C   0  0  0  0  0  0  0  0  0  0  0  0
  -27.3026  -26.9134   20.6224 C   0  0  0  0  0  0  0  0  0  0  0  0
  -28.5123  -18.2805   17.7940 C   0  0  0  0  0  0  0  0  0  0  0  0
  -29.3482  -17.0497   19.6974 C   0  0  0  0  0  0  0  0  0  0  0  0
  -28.7770  -17.1865   16.9702 C   0  0  0  0  0  0  0  0  0  0  0  0
  -29.6130  -15.9556   18.8737 C   0  0  0  0  0  0  0  0  0  0  0  0
  -23.9727  -16.0129   24.4116 C   0  0  0  0  0  0  0  0  0  0  0  0
  -23.2720  -17.1757   22.4131 C   0  0  0  0  0  0  0  0  0  0  0  0
  -27.5768  -25.5465   20.6360 C   0  0  0  0  0  0  0  0  0  0  0  0
  -20.9493  -17.0374   25.5261 C   0  0  0  0  0  0  0  0  0  0  0  0
  -20.1915  -16.6928   26.6453 C   0  0  0  0  0  0  0  0  0  0  0  0
  -25.2108  -25.0786   20.6861 C   0  0  0  0  0  0  0  0  0  0  0  0
  -28.0215  -20.5448   21.7542 C   0  0  0  0  0  0  0  0  0  0  0  0
  -21.7727  -17.8379   28.0685 C   0  0  0  0  0  0  0  0  0  0  0  0
  -28.5647  -20.6143   19.5702 C   0  0  0  0  0  0  0  0  0  0  0  0
  -24.3870  -15.0395   22.2395 C   0  0  0  0  0  0  0  0  0  0  0  0
  -24.2325  -12.8159   20.9988 C   0  0  0  0  0  0  0  0  0  0  0  0
  -27.0512  -31.6559   25.6204 C   0  0  0  0  0  0  0  0  0  0  0  0
  -25.9784  -27.3741   20.6516 C   0  0  0  0  0  0  0  0  0  0  0  0
  -26.6975  -30.3772   25.1489 C   0  0  0  0  0  0  0  0  0  0  0  0
  -24.9224  -26.4518   20.6702 C   0  0  0  0  0  0  0  0  0  0  0  0
  -28.2511  -21.4059   20.6529 C   0  0  0  0  0  0  0  0  0  0  0  0
  -28.7979  -18.2121   19.1576 C   0  0  0  0  0  0  0  0  0  0  0  0
  -29.3273  -16.0240   17.5100 C   0  0  0  0  0  0  0  0  0  0  0  0
  -23.3675  -17.1125   23.8033 C   0  0  0  0  0  0  0  0  0  0  0  0
  -26.5309  -24.6289   20.6707 C   0  0  0  0  0  0  0  0  0  0  0  0
  -22.1189  -17.7821   25.6781 C   0  0  0  0  0  0  0  0  0  0  0  0
  -20.6031  -17.0931   27.9165 C   0  0  0  0  0  0  0  0  0  0  0  0
  -22.5305  -18.1824   26.9493 C   0  0  0  0  0  0  0  0  0  0  0  0
  -24.9139  -13.9693   21.4313 C   0  0  0  0  0  0  0  0  0  0  0  0
  -25.1640  -12.1209   20.2668 C   0  0  0  0  0  0  0  0  0  0  0  0
  -28.2020  -19.2532   21.3111 C   0  0  0  0  0  0  0  0  0  0  0  0
  -29.5828  -13.8775   14.4880 C   0  0  0  0  0  0  0  0  0  0  0  0
  -29.3364  -14.9123   15.2944 C   0  0  0  0  0  0  0  0  0  0  0  0
  -22.8785  -12.4090   21.2374 C   0  0  0  0  0  0  0  0  0  0  0  0
  -24.2619  -29.1406   22.6607 C   0  0  0  0  0  0  0  0  0  0  0  0
  -22.0208  -28.9196   20.3259 C   0  0  0  0  0  0  0  0  0  0  0  0
  -20.7926  -27.2069   17.6417 C   0  0  0  0  0  0  0  0  0  0  0  0
  -30.0093  -13.6662   17.2489 C   0  0  0  0  0  0  0  0  0  0  0  0
  -26.0215  -32.7385   25.8255 C   0  0  0  0  0  0  0  0  0  0  0  0
  -25.6989  -28.8514   20.6095 C   0  0  0  0  0  0  0  0  0  0  0  0
  -23.4829  -26.8946   20.6820 C   0  0  0  0  0  0  0  0  0  0  0  0
  -24.7108  -32.4805   25.0867 C   0  0  0  0  0  0  0  0  0  0  0  0
  -29.8700  -11.3973   19.8986 C   0  0  0  0  0  0  0  0  0  0  0  0
  -24.2518  -31.0416   25.3004 C   0  0  0  0  0  0  0  0  0  0  0  0
  -28.5228  -11.6851   20.5604 C   0  0  0  0  0  0  0  0  0  0  0  0
  -30.5532  -12.6890   19.4644 C   0  0  0  0  0  0  0  0  0  0  0  0
  -28.3723  -13.8276   19.1986 C   0  0  0  0  0  0  0  0  0  0  0  0
  -25.2774  -30.0469   24.7435 C   0  0  1  0  0  0  0  0  0  0  0  0
  -24.3239  -29.2153   21.1613 C   0  0  1  0  0  0  0  0  0  0  0  0
  -27.6343  -12.5514   19.6505 C   0  0  2  0  0  0  0  0  0  0  0  0
  -18.9276  -27.2497   15.9632 C   0  0  0  0  0  0  0  0  0  0  0  0
  -20.0868  -27.8960   22.4524 C   0  0  0  0  0  0  0  0  0  0  0  0
  -18.6042  -27.0754   20.6094 C   0  0  0  0  0  0  0  0  0  0  0  0
  -19.0889  -29.5128   20.8262 C   0  0  0  0  0  0  0  0  0  0  0  0
  -22.6815  -27.4484   15.3762 C   0  0  0  0  0  0  0  0  0  0  0  0
  -28.1682  -22.9040   20.6623 C   0  0  0  0  0  0  0  0  0  1  0  0
  -20.9038  -27.9565   20.0039 C   0  0  1  0  0  0  0  0  0  0  0  0
  -20.3574  -27.6717   16.2636 C   0  0  2  0  0  0  0  0  0  0  0  0
  -19.6980  -28.1015   20.9747 C   0  0  0  0  0  0  0  0  0  0  0  0
  -26.1806  -14.0085   21.0094 N   0  0  0  0  0  0  0  0  0  0  0  0
  -28.5321  -19.3075   19.9821 N   0  0  0  0  0  0  0  0  0  0  0  0
  -26.3025  -12.8709   20.3042 N   0  0  0  0  0  0  0  0  0  0  0  0
  -23.2610  -28.3496   20.6463 N   0  0  0  0  0  0  0  0  0  0  0  0
  -29.6757  -13.4855   18.6060 N   0  0  0  0  0  0  0  0  0  0  0  0
  -25.1121  -10.9475   19.6014 N   0  0  0  0  0  0  0  0  0  0  0  0
  -22.0572  -13.2411   22.0104 N   0  0  0  0  0  0  0  0  0  0  0  0
  -25.1686  -29.9621   23.3029 N   0  0  0  0  0  0  0  0  0  0  0  0
  -20.5702  -28.1728   18.6002 N   0  0  0  0  0  0  0  0  0  0  0  0
  -29.6028  -14.8888   16.6538 N   0  0  0  0  0  0  0  0  0  0  0  0
  -21.2476  -27.0941   15.2171 N   0  3  0  0  0  0  0  0  0  0  0  0
  -22.4156  -11.3314   20.7924 O   0  0  0  0  0  0  0  0  0  0  0  0
  -23.4503  -28.3941   23.1954 O   0  0  0  0  0  0  0  0  0  0  0  0
  -21.8028  -30.1331   20.2874 O   0  0  0  0  0  0  0  0  0  0  0  0
  -21.2776  -26.0966   17.8478 O   0  0  0  0  0  0  0  0  0  0  0  0
  -30.6424  -12.8123   16.6147 O   0  0  0  0  0  0  0  0  0  0  0  0
  -28.1033  -18.0981   21.9580 O   0  0  0  0  0  0  0  0  0  0  0  0
  -22.8698  -18.1241   24.5660 O   0  0  0  0  0  0  0  0  0  0  0  0
  -26.7957  -23.2941   20.6847 O   0  0  0  0  0  0  0  0  0  1  0  0
  -19.8744  -16.7635   28.9910 F   0  0  0  0  0  0  0  0  0  0  0  0
  -23.6526  -18.8991   27.1015 F   0  0  0  0  0  0  0  0  0  0  0  0
  1  2  1  0  0  0  0
  1  5  2  0  0  0  0
  2  6  2  0  0  0  0
  3 12  2  0  0  0  0
  3 21  1  0  0  0  0
  4 13  1  0  0  0  0
  4 21  2  0  0  0  0
  5 23  1  0  0  0  0
  6 25  1  0  0  0  0
  7 14  2  0  0  0  0
  7 24  1  0  0  0  0
  8 10  2  0  0  0  0
  8 28  1  0  0  0  0
  9 11  1  0  0  0  0
  9 28  2  0  0  0  0
 10 29  1  0  0  0  0
 11 29  2  0  0  0  0
 12 30  1  0  0  0  0
 13 30  2  0  0  0  0
 14 31  1  0  0  0  0
 15 16  2  0  0  0  0
 15 32  1  0  0  0  0
 16 33  1  0  0  0  0
 17 26  1  0  0  0  0
 17 31  2  0  0  0  0
 18 27  1  0  0  0  0
 18 37  2  0  0  0  0
 19 33  2  0  0  0  0
 19 34  1  0  0  0  0
 20 27  2  0  0  0  0
 20 67  1  0  0  0  0
 21 35  1  0  0  0  0
 22 35  1  0  0  0  0
 22 36  2  0  0  0  0
 22 40  1  0  0  0  0
 23 25  2  0  0  0  0
 23 45  1  0  0  0  0
 24 26  2  0  0  0  0
 24 46  1  0  0  0  0
 25 54  1  0  0  0  0
 26 47  1  0  0  0  0
 27 62  1  0  0  0  0
 28 67  1  0  0  0  0
 29 75  1  0  0  0  0
 30 83  1  0  0  0  0
 31 84  1  0  0  0  0
 32 34  2  0  0  0  0
 32 83  1  0  0  0  0
 33 85  1  0  0  0  0
 34 86  1  0  0  0  0
 35 66  2  0  0  0  0
 36 68  1  0  0  0  0
 36 71  1  0  0  0  0
 37 67  1  0  0  0  0
 37 82  1  0  0  0  0
 38 39  2  0  0  0  0
 39 75  1  0  0  0  0
 40 72  1  0  0  0  0
 40 77  2  0  0  0  0
 41 55  1  0  0  0  0
 41 73  1  0  0  0  0
 41 78  2  0  0  0  0
 42 63  1  0  0  0  0
 42 69  1  0  0  0  0
 42 79  2  0  0  0  0
 43 64  1  0  0  0  0
 43 74  1  0  0  0  0
 43 80  2  0  0  0  0
 44 70  1  0  0  0  0
 44 75  1  0  0  0  0
 44 81  2  0  0  0  0
 45 48  1  0  0  0  0
 46 55  1  0  0  0  0
 47 69  1  0  0  0  0
 48 50  1  0  0  0  0
 49 51  1  0  0  0  0
 49 52  1  0  0  0  0
 50 54  1  0  0  0  0
 51 56  1  0  0  0  0
 52 70  1  0  0  0  0
 53 56  1  0  0  0  0
 53 70  1  0  0  0  0
 54 73  1  0  0  0  0
 55 69  1  0  0  0  0
 56 68  1  0  0  0  0
 57 64  1  0  0  0  0
 58 65  1  0  0  0  0
 59 65  1  0  0  0  0
 60 65  1  0  0  0  0
 61 76  1  0  0  0  0
 62 84  1  0  0  0  0
 63 65  1  0  0  0  0
 63 74  1  0  0  0  0
 64 76  1  0  0  0  0
 66 68  1  0  0  0  0
M  CHG  1  76   1
M  ISO  4  44 100  62 101  75 100  84 101
M  END
> <Batch ID>
0086

> <Smiles>
C=C[100N:0](c1ccc(N2C=C([101CH2:1][101O:1]c3ccc4c(c3)CN(C(=O)C(NC(=O)C(C)NC)C(C)(C)C)C(C(=O)NC3CCCc5ccccc53)C4)CC2=O)cc1)[100C:0](=O)N1CCCC(n2nc(-c3ccc(Oc4ccc(F)cc4F)cc3)c(C(N)=O)c2N)C1

> <Shape>
0.257

> <Color>
0.070

> <Negative vol penalty>
0.000

$$$$

  -OEChem-04052300173D

 86 95  0     1  0  0  0  0  0999 V2000
  -29.7089  -34.7803   15.7041 C   0  0  0  0  0  0  0  0  0  0  0  0
  -29.3167  -33.4456   15.7206 C   0  0  0  0  0  0  0  0  0  0  0  0
  -23.8347   -9.8700   22.3412 C   0  0  0  0  0  0  0  0  0  0  0  0
  -24.6051  -11.4889   23.9608 C   0  0  0  0  0  0  0  0  0  0  0  0
  -29.9381  -35.4532   16.9035 C   0  0  0  0  0  0  0  0  0  0  0  0
  -29.1545  -32.7828   16.9366 C   0  0  0  0  0  0  0  0  0  0  0  0
  -25.0255  -28.4539   18.2477 C   0  0  0  0  0  0  0  0  0  0  0  0
  -23.4052   -9.0392   23.3759 C   0  0  0  0  0  0  0  0  0  0  0  0
  -24.1754  -10.6580   24.9956 C   0  0  0  0  0  0  0  0  0  0  0  0
  -25.1056  -27.0626   18.2878 C   0  0  0  0  0  0  0  0  0  0  0  0
  -20.7710   -8.8489   25.4874 C   0  0  0  0  0  0  0  0  0  0  0  0
  -19.5093   -8.2662   25.3695 C   0  0  0  0  0  0  0  0  0  0  0  0
  -25.4911  -27.1594   20.6671 C   0  0  0  0  0  0  0  0  0  0  0  0
  -30.2954  -20.5101   18.8211 C   0  0  0  0  0  0  0  0  0  0  0  0
  -30.9031  -18.1815   18.6078 C   0  0  0  0  0  0  0  0  0  0  0  0
  -20.5138   -6.0711   25.4676 C   0  0  0  0  0  0  0  0  0  0  0  0
  -24.4347  -11.0949   22.6336 C   0  0  0  0  0  0  0  0  0  0  0  0
  -24.1357  -12.9570   20.9158 C   0  0  0  0  0  0  0  0  0  0  0  0
  -29.7692  -34.8010   18.1350 C   0  0  0  0  0  0  0  0  0  0  0  0
  -25.1887  -29.2103   19.4173 C   0  0  0  0  0  0  0  0  0  0  0  0
  -29.3829  -33.4472   18.1536 C   0  0  0  0  0  0  0  0  0  0  0  0
  -25.4101  -28.5600   20.6397 C   0  0  0  0  0  0  0  0  0  0  0  0
  -28.9545  -20.1483   18.9499 C   0  0  0  0  0  0  0  0  0  0  0  0
  -31.2697  -19.5266   18.6500 C   0  0  0  0  0  0  0  0  0  0  0  0
  -29.5621  -17.8197   18.7367 C   0  0  0  0  0  0  0  0  0  0  0  0
  -23.5755   -9.4332   24.7031 C   0  0  0  0  0  0  0  0  0  0  0  0
  -25.3414  -26.4153   19.4971 C   0  0  0  0  0  0  0  0  0  0  0  0
  -21.9043   -8.0428   25.5953 C   0  0  0  0  0  0  0  0  0  0  0  0
  -19.3806   -6.8773   25.3596 C   0  0  0  0  0  0  0  0  0  0  0  0
  -21.7756   -6.6539   25.5855 C   0  0  0  0  0  0  0  0  0  0  0  0
  -28.5878  -18.8032   18.9077 C   0  0  0  0  0  0  0  0  0  0  0  0
  -24.8792  -11.9533   21.5651 C   0  0  0  0  0  0  0  0  0  0  0  0
  -25.0012  -13.4776   19.9851 C   0  0  0  0  0  0  0  0  0  0  0  0
  -26.8406  -23.1579   19.3824 C   0  0  0  0  0  0  0  0  0  0  0  0
  -28.1793  -22.5401   19.1874 C   0  0  0  0  0  0  0  0  0  0  0  0
  -26.6459  -24.4787   19.3610 C   0  0  0  0  0  0  0  0  0  1  0  0
  -22.7836  -13.3809   21.1346 C   0  0  0  0  0  0  0  0  0  0  0  0
  -27.2631  -31.4120   20.3935 C   0  0  0  0  0  0  0  0  0  0  0  0
  -25.2555  -31.6168   22.9332 C   0  0  0  0  0  0  0  0  0  0  0  0
  -22.8842  -30.1219   24.8797 C   0  0  0  0  0  0  0  0  0  0  0  0
  -30.0375  -15.3544   18.5302 C   0  0  0  0  0  0  0  0  0  0  0  0
  -30.0745  -35.5563   19.4043 C   0  0  0  0  0  0  0  0  0  0  0  0
  -25.0729  -30.7089   19.3617 C   0  0  0  0  0  0  0  0  0  0  0  0
  -25.5721  -29.3250   21.9269 C   0  0  0  0  0  0  0  0  0  0  0  0
  -25.8076  -22.1026   19.5698 C   0  0  0  0  0  0  0  0  0  0  0  0
  -29.5173  -34.8890   20.6591 C   0  0  0  0  0  0  0  0  0  0  0  0
  -29.5214  -11.8336   18.4080 C   0  0  0  0  0  0  0  0  0  0  0  0
  -29.8282  -33.3957   20.6525 C   0  0  0  0  0  0  0  0  0  0  0  0
  -28.2065  -11.6335   19.1651 C   0  0  0  0  0  0  0  0  0  0  0  0
  -26.5428  -20.8279   19.1898 C   0  0  0  0  0  0  0  0  0  0  0  0
  -30.3696  -12.9426   19.0280 C   0  0  0  0  0  0  0  0  0  0  0  0
  -28.3644  -14.0263   19.9629 C   0  0  0  0  0  0  0  0  0  0  0  0
  -29.1723  -32.7009   19.4531 C   0  0  1  0  0  0  0  0  0  0  0  0
  -25.7666  -31.4055   20.5283 C   0  0  1  0  0  0  0  0  0  0  0  0
  -27.4469  -12.9636   19.3366 C   0  0  2  0  0  0  0  0  0  0  0  0
  -21.4582  -30.5240   26.9051 C   0  0  0  0  0  0  0  0  0  0  0  0
  -27.6809  -31.1629   24.7279 C   0  0  0  0  0  0  0  0  0  0  0  0
  -26.1078  -30.6302   26.6013 C   0  0  0  0  0  0  0  0  0  0  0  0
  -26.0794  -32.8955   25.5570 C   0  0  0  0  0  0  0  0  0  0  0  0
  -20.3850  -29.8203   23.3234 C   0  0  0  0  0  0  0  0  0  0  0  0
  -25.1508  -30.9264   24.2716 C   0  0  1  0  0  0  0  0  0  0  0  0
  -21.5420  -30.6151   25.3894 C   0  0  2  0  0  0  0  0  0  0  0  0
  -26.2536  -31.3891   25.2651 C   0  0  0  0  0  0  0  0  0  0  0  0
  -26.1214  -11.8411   21.0872 N   0  0  0  0  0  0  0  0  0  0  0  0
  -26.1651  -12.7810   20.1276 N   0  0  0  0  0  0  0  0  0  0  0  0
  -27.9579  -21.1581   19.1258 N   0  0  0  0  0  0  0  0  0  0  0  0
  -25.4569  -30.7888   21.8198 N   0  0  0  0  0  0  0  0  0  0  0  0
  -29.5857  -14.1731   19.1556 N   0  0  0  0  0  0  0  0  0  0  0  0
  -32.6260  -19.8917   18.5202 N   0  0  0  0  0  0  0  0  0  0  0  0
  -24.8726  -14.4587   19.0667 N   0  0  0  0  0  0  0  0  0  0  0  0
  -22.0351  -12.7393   22.1308 N   0  0  0  0  0  0  0  0  0  0  0  0
  -29.1933  -16.4523   18.6935 N   0  0  0  0  0  0  0  0  0  0  0  0
  -27.7605  -32.4970   19.6972 N   0  0  0  0  0  0  0  0  0  0  0  0
  -23.7888  -31.1535   24.7426 N   0  0  0  0  0  0  0  0  0  0  0  0
  -20.4366  -29.8021   24.8079 N   0  3  0  0  0  0  0  0  0  0  0  0
  -29.2095  -23.1875   19.1016 O   0  0  0  0  0  0  0  0  0  0  0  0
  -22.2496  -14.2903   20.4553 O   0  0  0  0  0  0  0  0  0  0  0  0
  -27.9181  -30.5010   20.8862 O   0  0  0  0  0  0  0  0  0  0  0  0
  -25.1549  -32.8450   22.8768 O   0  0  0  0  0  0  0  0  0  0  0  0
  -23.1089  -28.9393   24.6318 O   0  0  0  0  0  0  0  0  0  0  0  0
  -31.0816  -15.3827   17.8737 O   0  0  0  0  0  0  0  0  0  0  0  0
  -23.1562   -8.6228   25.7131 O   0  0  0  0  0  0  0  0  0  0  0  0
  -25.4207  -25.0574   19.5389 O   0  0  0  0  0  0  0  0  0  1  0  0
  -18.1687   -6.3179   25.2480 F   0  0  0  0  0  0  0  0  0  0  0  0
  -22.8605   -5.8742   25.6900 F   0  0  0  0  0  0  0  0  0  0  0  0
  -27.2980  -18.4548   19.0332 F   0  0  0  0  0  0  0  0  0  0  0  0
  1  2  1  0  0  0  0
  1  5  2  0  0  0  0
  2  6  2  0  0  0  0
  3  8  2  0  0  0  0
  3 17  1  0  0  0  0
  4  9  1  0  0  0  0
  4 17  2  0  0  0  0
  5 19  1  0  0  0  0
  6 21  1  0  0  0  0
  7 10  2  0  0  0  0
  7 20  1  0  0  0  0
  8 26  1  0  0  0  0
  9 26  2  0  0  0  0
 10 27  1  0  0  0  0
 11 12  2  0  0  0  0
 11 28  1  0  0  0  0
 12 29  1  0  0  0  0
 13 22  1  0  0  0  0
 13 27  2  0  0  0  0
 14 23  1  0  0  0  0
 14 24  2  0  0  0  0
 15 24  1  0  0  0  0
 15 25  2  0  0  0  0
 16 29  2  0  0  0  0
 16 30  1  0  0  0  0
 17 32  1  0  0  0  0
 18 32  1  0  0  0  0
 18 33  2  0  0  0  0
 18 37  1  0  0  0  0
 19 21  2  0  0  0  0
 19 42  1  0  0  0  0
 20 22  2  0  0  0  0
 20 43  1  0  0  0  0
 21 53  1  0  0  0  0
 22 44  1  0  0  0  0
 23 31  2  0  0  0  0
 23 66  1  0  0  0  0
 24 69  1  0  0  0  0
 25 31  1  0  0  0  0
 25 72  1  0  0  0  0
 26 82  1  0  0  0  0
 27 83  1  0  0  0  0
 28 30  2  0  0  0  0
 28 82  1  0  0  0  0
 29 84  1  0  0  0  0
 30 85  1  0  0  0  0
 31 86  1  0  0  0  0
 32 64  2  0  0  0  0
 33 65  1  0  0  0  0
 33 70  1  0  0  0  0
 34 35  1  0  0  0  0
 34 36  2  0  0  0  0
 34 45  1  0  0  0  0
 35 66  1  0  0  0  0
 35 76  2  0  0  0  0
 36 83  1  0  0  0  0
 37 71  1  0  0  0  0
 37 77  2  0  0  0  0
 38 54  1  0  0  0  0
 38 73  1  0  0  0  0
 38 78  2  0  0  0  0
 39 61  1  0  0  0  0
 39 67  1  0  0  0  0
 39 79  2  0  0  0  0
 40 62  1  0  0  0  0
 40 74  1  0  0  0  0
 40 80  2  0  0  0  0
 41 68  1  0  0  0  0
 41 72  1  0  0  0  0
 41 81  2  0  0  0  0
 42 46  1  0  0  0  0
 43 54  1  0  0  0  0
 44 67  1  0  0  0  0
 45 50  1  0  0  0  0
 46 48  1  0  0  0  0
 47 49  1  0  0  0  0
 47 51  1  0  0  0  0
 48 53  1  0  0  0  0
 49 55  1  0  0  0  0
 50 66  1  0  0  0  0
 51 68  1  0  0  0  0
 52 55  1  0  0  0  0
 52 68  1  0  0  0  0
 53 73  1  0  0  0  0
 54 67  1  0  0  0  0
 55 65  1  0  0  0  0
 56 62  1  0  0  0  0
 57 63  1  0  0  0  0
 58 63  1  0  0  0  0
 59 63  1  0  0  0  0
 60 75  1  0  0  0  0
 61 63  1  0  0  0  0
 61 74  1  0  0  0  0
 62 75  1  0  0  0  0
 64 65  1  0  0  0  0
M  CHG  1  75   1
M  ISO  4  36 101  41 100  72 100  83 101
M  END
> <Batch ID>
0086

> <Smiles>
CNC(C)C(=O)NC(C(=O)N1Cc2cc([101O:1][101CH:1]=C3CCN(c4cc(N)cc([100NH:0][100C:0](=O)N5CCCC(n6nc(-c7ccc(Oc8ccc(F)cc8F)cc7)c(C(N)=O)c6N)C5)c4F)C3=O)ccc2CC1C(=O)NC1CCCc2ccccc21)C(C)(C)C

> <Shape>
0.260

> <Color>
0.145

> <Negative vol penalty>
0.000

$$$$

  -OEChem-04052300173D

 84 92  0     1  0  0  0  0  0999 V2000
  -28.5502  -36.5485   25.1766 C   0  0  0  0  0  0  0  0  0  0  0  0
  -29.0054  -35.6339   24.2323 C   0  0  0  0  0  0  0  0  0  0  0  0
  -23.9843   -8.9280   21.0942 C   0  0  0  0  0  0  0  0  0  0  0  0
  -23.1790  -11.2019   20.9597 C   0  0  0  0  0  0  0  0  0  0  0  0
  -30.4900  -18.5303   21.4892 C   0  0  0  0  0  0  0  0  0  0  0  0
  -28.2616  -18.8093   20.5985 C   0  0  0  0  0  0  0  0  0  0  0  0
  -27.5228  -36.1941   26.0500 C   0  0  0  0  0  0  0  0  0  0  0  0
  -28.4341  -34.3639   24.1616 C   0  0  0  0  0  0  0  0  0  0  0  0
  -26.8087  -29.2286   19.4389 C   0  0  0  0  0  0  0  0  0  0  0  0
  -30.5051  -17.2105   21.0383 C   0  0  0  0  0  0  0  0  0  0  0  0
  -28.2767  -17.4894   20.1475 C   0  0  0  0  0  0  0  0  0  0  0  0
  -22.9861   -8.6294   22.0216 C   0  0  0  0  0  0  0  0  0  0  0  0
  -22.1808  -10.9032   21.8871 C   0  0  0  0  0  0  0  0  0  0  0  0
  -26.9930  -27.8630   19.2266 C   0  0  0  0  0  0  0  0  0  0  0  0
  -19.6779   -7.9316   21.9828 C   0  0  0  0  0  0  0  0  0  0  0  0
  -18.9676   -6.7435   21.8107 C   0  0  0  0  0  0  0  0  0  0  0  0
  -25.1704  -27.3888   20.7340 C   0  0  0  0  0  0  0  0  0  0  0  0
  -19.7134   -5.9834   23.9794 C   0  0  0  0  0  0  0  0  0  0  0  0
  -24.0808  -10.2143   20.5632 C   0  0  0  0  0  0  0  0  0  0  0  0
  -29.3682  -19.3297   21.2694 C   0  0  0  0  0  0  0  0  0  0  0  0
  -25.0319  -10.4125   18.2045 C   0  0  0  0  0  0  0  0  0  0  0  0
  -26.9321  -34.9224   25.9835 C   0  0  0  0  0  0  0  0  0  0  0  0
  -25.8092  -29.6849   20.3103 C   0  0  0  0  0  0  0  0  0  0  0  0
  -27.3988  -33.9916   25.0358 C   0  0  0  0  0  0  0  0  0  0  0  0
  -24.9738  -28.7607   20.9537 C   0  0  0  0  0  0  0  0  0  0  0  0
  -29.3985  -16.6900   20.3674 C   0  0  0  0  0  0  0  0  0  0  0  0
  -22.0844   -9.6169   22.4181 C   0  0  0  0  0  0  0  0  0  0  0  0
  -26.1757  -26.9428   19.8764 C   0  0  0  0  0  0  0  0  0  0  0  0
  -20.4061   -8.1455   23.1531 C   0  0  0  0  0  0  0  0  0  0  0  0
  -18.9853   -5.7695   22.8090 C   0  0  0  0  0  0  0  0  0  0  0  0
  -20.4238   -7.1715   24.1514 C   0  0  0  0  0  0  0  0  0  0  0  0
  -25.1120  -10.5235   19.6056 C   0  0  0  0  0  0  0  0  0  0  0  0
  -26.2637  -10.8231   17.7566 C   0  0  0  0  0  0  0  0  0  0  0  0
  -27.4572  -23.6335   20.3779 C   0  0  0  0  0  0  0  0  0  0  0  0
  -27.2141  -24.9408   20.4966 C   0  0  0  0  0  0  0  0  0  1  0  0
  -29.3521  -20.7349   21.7497 C   0  0  0  0  0  0  0  0  0  0  0  0
  -23.9416   -9.9772   17.3815 C   0  0  0  0  0  0  0  0  0  0  0  0
  -28.4067  -22.9681   21.3105 C   0  0  0  0  0  0  0  0  0  0  0  0
  -25.7824  -31.3536   23.0156 C   0  0  0  0  0  0  0  0  0  0  0  0
  -22.5675  -31.2362   22.5999 C   0  0  0  0  0  0  0  0  0  0  0  0
  -19.8805  -29.6468   21.2212 C   0  0  0  0  0  0  0  0  0  0  0  0
  -30.4480  -14.4226   20.0458 C   0  0  0  0  0  0  0  0  0  0  0  0
  -25.8567  -34.5685   26.9800 C   0  0  0  0  0  0  0  0  0  0  0  0
  -25.6058  -31.1620   20.5080 C   0  0  0  0  0  0  0  0  0  0  0  0
  -23.8731  -29.1997   21.8834 C   0  0  0  0  0  0  0  0  0  0  0  0
  -25.0496  -33.3323   26.5918 C   0  0  0  0  0  0  0  0  0  0  0  0
  -30.8592  -11.0176   19.0899 C   0  0  0  0  0  0  0  0  0  0  0  0
  -25.9780  -32.2060   26.1488 C   0  0  0  0  0  0  0  0  0  0  0  0
  -29.4246  -10.4960   18.9802 C   0  0  0  0  0  0  0  0  0  0  0  0
  -31.0152  -12.0110   20.2399 C   0  0  0  0  0  0  0  0  0  0  0  0
  -28.6278  -12.6068   20.1189 C   0  0  0  0  0  0  0  0  0  0  0  0
  -26.7876  -32.6128   24.9116 C   0  0  1  0  0  0  0  0  0  0  0  0
  -24.8920  -31.4974   21.8139 C   0  0  1  0  0  0  0  0  0  0  0  0
  -28.4066  -11.6523   18.9341 C   0  0  2  0  0  0  0  0  0  0  0  0
  -17.3772  -29.7634   21.0894 C   0  0  0  0  0  0  0  0  0  0  0  0
  -22.3685  -30.1119   25.4295 C   0  0  0  0  0  0  0  0  0  0  0  0
  -20.0358  -29.3744   24.8975 C   0  0  0  0  0  0  0  0  0  0  0  0
  -20.6160  -31.8001   24.8521 C   0  0  0  0  0  0  0  0  0  0  0  0
  -19.9357  -29.9962   18.2829 C   0  0  0  0  0  0  0  0  0  0  0  0
  -21.4697  -30.2868   23.0154 C   0  0  1  0  0  0  0  0  0  0  0  0
  -18.6900  -30.1738   20.4405 C   0  0  2  0  0  0  0  0  0  0  0  0
  -21.1444  -30.3846   24.5327 C   0  0  0  0  0  0  0  0  0  0  0  0
  -26.3007  -10.9695   20.0204 N   0  0  0  0  0  0  0  0  0  0  0  0
  -26.9789  -11.1423   18.8732 N   0  0  0  0  0  0  0  0  0  0  0  0
  -23.7180  -30.6544   22.0490 N   0  0  0  0  0  0  0  0  0  0  0  0
  -30.0208  -13.0804   20.1280 N   0  0  0  0  0  0  0  0  0  0  0  0
  -26.7940  -10.9386   16.5205 N   0  0  0  0  0  0  0  0  0  0  0  0
  -22.7472   -9.5903   18.0044 N   0  0  0  0  0  0  0  0  0  0  0  0
  -29.4149  -15.3492   19.9095 N   0  0  0  0  0  0  0  0  0  0  0  0
  -28.5329  -21.6080   21.0348 N   0  0  0  0  0  0  0  0  0  0  0  0
  -25.9689  -32.5269   23.7213 N   0  0  0  0  0  0  0  0  0  0  0  0
  -20.3354  -30.5670   22.1418 N   0  0  0  0  0  0  0  0  0  0  0  0
  -18.7103  -29.6468   19.0467 N   0  3  0  0  0  0  0  0  0  0  0  0
  -30.0596  -21.0483   22.7033 O   0  0  0  0  0  0  0  0  0  0  0  0
  -24.0296   -9.9171   16.1316 O   0  0  0  0  0  0  0  0  0  0  0  0
  -28.9869  -23.5772   22.2034 O   0  0  0  0  0  0  0  0  0  0  0  0
  -26.2634  -30.2588   23.2836 O   0  0  0  0  0  0  0  0  0  0  0  0
  -22.4071  -32.4498   22.7519 O   0  0  0  0  0  0  0  0  0  0  0  0
  -20.3568  -28.5291   21.0357 O   0  0  0  0  0  0  0  0  0  0  0  0
  -31.6438  -14.7253   20.0655 O   0  0  0  0  0  0  0  0  0  0  0  0
  -21.1101   -9.3258   23.3228 O   0  0  0  0  0  0  0  0  0  0  0  0
  -26.3539  -25.6093   19.6714 O   0  0  0  0  0  0  0  0  0  1  0  0
  -18.3019   -4.6293   22.6442 F   0  0  0  0  0  0  0  0  0  0  0  0
  -21.1206   -7.3718   25.2784 F   0  0  0  0  0  0  0  0  0  0  0  0
  1  2  1  0  0  0  0
  1  7  2  0  0  0  0
  2  8  2  0  0  0  0
  3 12  2  0  0  0  0
  3 19  1  0  0  0  0
  4 13  1  0  0  0  0
  4 19  2  0  0  0  0
  5 10  2  0  0  0  0
  5 20  1  0  0  0  0
  6 11  1  0  0  0  0
  6 20  2  0  0  0  0
  7 22  1  0  0  0  0
  8 24  1  0  0  0  0
  9 14  2  0  0  0  0
  9 23  1  0  0  0  0
 10 26  1  0  0  0  0
 11 26  2  0  0  0  0
 12 27  1  0  0  0  0
 13 27  2  0  0  0  0
 14 28  1  0  0  0  0
 15 16  2  0  0  0  0
 15 29  1  0  0  0  0
 16 30  1  0  0  0  0
 17 25  1  0  0  0  0
 17 28  2  0  0  0  0
 18 30  2  0  0  0  0
 18 31  1  0  0  0  0
 19 32  1  0  0  0  0
 20 36  1  0  0  0  0
 21 32  1  0  0  0  0
 21 33  2  0  0  0  0
 21 37  1  0  0  0  0
 22 24  2  0  0  0  0
 22 43  1  0  0  0  0
 23 25  2  0  0  0  0
 23 44  1  0  0  0  0
 24 52  1  0  0  0  0
 25 45  1  0  0  0  0
 26 69  1  0  0  0  0
 27 81  1  0  0  0  0
 28 82  1  0  0  0  0
 29 31  2  0  0  0  0
 29 81  1  0  0  0  0
 30 83  1  0  0  0  0
 31 84  1  0  0  0  0
 32 63  2  0  0  0  0
 33 64  1  0  0  0  0
 33 67  1  0  0  0  0
 34 35  2  0  0  0  0
 34 38  1  0  0  0  0
 35 82  1  0  0  0  0
 36 70  1  0  0  0  0
 36 74  2  0  0  0  0
 37 68  1  0  0  0  0
 37 75  2  0  0  0  0
 38 70  1  0  0  0  0
 38 76  2  0  0  0  0
 39 53  1  0  0  0  0
 39 71  1  0  0  0  0
 39 77  2  0  0  0  0
 40 60  1  0  0  0  0
 40 65  1  0  0  0  0
 40 78  2  0  0  0  0
 41 61  1  0  0  0  0
 41 72  1  0  0  0  0
 41 79  2  0  0  0  0
 42 66  1  0  0  0  0
 42 69  1  0  0  0  0
 42 80  2  0  0  0  0
 43 46  1  0  0  0  0
 44 53  1  0  0  0  0
 45 65  1  0  0  0  0
 46 48  1  0  0  0  0
 47 49  1  0  0  0  0
 47 50  1  0  0  0  0
 48 52  1  0  0  0  0
 49 54  1  0  0  0  0
 50 66  1  0  0  0  0
 51 54  1  0  0  0  0
 51 66  1  0  0  0  0
 52 71  1  0  0  0  0
 53 65  1  0  0  0  0
 54 64  1  0  0  0  0
 55 61  1  0  0  0  0
 56 62  1  0  0  0  0
 57 62  1  0  0  0  0
 58 62  1  0  0  0  0
 59 73  1  0  0  0  0
 60 62  1  0  0  0  0
 60 72  1  0  0  0  0
 61 73  1  0  0  0  0
 63 64  1  0  0  0  0
M  CHG  1  73   1
M  ISO  4  35 101  42 100  69 100  82 101
M  END
> <Batch ID>
0086

> <Smiles>
CNC(C)C(=O)NC(C(=O)N1Cc2cc([101O:1][101CH:1]=CC(=O)NC(=O)c3ccc([100NH:0][100C:0](=O)N4CCCC(n5nc(-c6ccc(Oc7ccc(F)cc7F)cc6)c(C(N)=O)c5N)C4)cc3)ccc2CC1C(=O)NC1CCCc2ccccc21)C(C)(C)C

> <Shape>
0.284

> <Color>
0.083

> <Negative vol penalty>
0.000

$$$$

  -OEChem-04052300173D

 83 91  0     1  0  0  0  0  0999 V2000
  -25.7185   -7.4491   23.5133 C   0  0  0  0  0  0  0  0  0  0  0  0
  -26.3591   -8.6740   23.3563 C   0  0  0  0  0  0  0  0  0  0  0  0
  -20.5325  -28.1340   21.6518 C   0  0  0  0  0  0  0  0  0  0  0  0
  -20.1701  -29.3272   23.7211 C   0  0  0  0  0  0  0  0  0  0  0  0
  -24.5229   -7.1978   22.8415 C   0  0  0  0  0  0  0  0  0  0  0  0
  -25.8048   -9.6481   22.5266 C   0  0  0  0  0  0  0  0  0  0  0  0
  -25.9839  -15.7151   23.3421 C   0  0  0  0  0  0  0  0  0  0  0  0
  -19.2187  -27.6671   21.6909 C   0  0  0  0  0  0  0  0  0  0  0  0
  -18.8563  -28.8602   23.7603 C   0  0  0  0  0  0  0  0  0  0  0  0
  -26.8024  -16.7095   22.8083 C   0  0  0  0  0  0  0  0  0  0  0  0
  -17.4798  -25.2553   23.2983 C   0  0  0  0  0  0  0  0  0  0  0  0
  -17.2639  -23.9058   23.0195 C   0  0  0  0  0  0  0  0  0  0  0  0
  -28.6489  -23.4044   21.8745 C   0  0  0  0  0  0  0  0  0  0  0  0
  -25.1369  -17.1679   21.1244 C   0  0  0  0  0  0  0  0  0  0  0  0
  -15.8535  -24.5167   21.1554 C   0  0  0  0  0  0  0  0  0  0  0  0
  -28.9527  -23.0921   19.5914 C   0  0  0  0  0  0  0  0  0  0  0  0
  -21.0082  -28.9641   22.6670 C   0  0  0  0  0  0  0  0  0  0  0  0
  -28.9743  -22.4908   20.8306 C   0  0  0  0  0  0  0  0  0  0  0  0
  -22.8293  -30.6314   22.0256 C   0  0  0  0  0  0  0  0  0  0  0  0
  -23.9488   -8.1728   22.0107 C   0  0  0  0  0  0  0  0  0  0  0  0
  -24.7384  -15.4317   22.7635 C   0  0  0  0  0  0  0  0  0  0  0  0
  -24.6011   -9.4091   21.8420 C   0  0  0  0  0  0  0  0  0  0  0  0
  -24.3034  -16.1711   21.6544 C   0  0  0  0  0  0  0  0  0  0  0  0
  -18.3806  -28.0302   22.7451 C   0  0  0  0  0  0  0  0  0  0  0  0
  -26.3802  -17.4341   21.6975 C   0  0  0  0  0  0  0  0  0  0  0  0
  -16.8825  -26.2355   22.5058 C   0  0  0  0  0  0  0  0  0  0  0  0
  -16.4508  -23.5365   21.9480 C   0  0  0  0  0  0  0  0  0  0  0  0
  -16.0694  -25.8662   21.4343 C   0  0  0  0  0  0  0  0  0  0  0  0
  -22.3654  -29.4463   22.6274 C   0  0  0  0  0  0  0  0  0  0  0  0
  -24.1820  -30.6307   22.2638 C   0  0  0  0  0  0  0  0  0  0  0  0
  -28.3913  -24.6693   21.3933 C   0  0  0  0  0  0  0  0  0  0  0  0
  -28.4150  -18.0453   20.7193 C   0  0  0  0  0  0  0  0  0  1  0  0
  -29.3045  -21.0486   21.0149 C   0  0  0  0  0  0  0  0  0  0  0  0
  -22.1024  -31.6424   21.3148 C   0  0  0  0  0  0  0  0  0  0  0  0
  -29.2917  -18.9050   20.1835 C   0  0  0  0  0  0  0  0  0  0  0  0
  -23.4366  -12.8848   21.3770 C   0  0  0  0  0  0  0  0  0  0  0  0
  -20.7705  -14.7326   21.3761 C   0  0  0  0  0  0  0  0  0  0  0  0
  -19.4159  -17.8642   21.4466 C   0  0  0  0  0  0  0  0  0  0  0  0
  -27.8794  -25.9181   23.4846 C   0  0  0  0  0  0  0  0  0  0  0  0
  -22.6796   -7.8378   21.2680 C   0  0  0  0  0  0  0  0  0  0  0  0
  -23.8558  -14.3741   23.3676 C   0  0  0  0  0  0  0  0  0  0  0  0
  -22.9663  -15.9195   21.0085 C   0  0  0  0  0  0  0  0  0  0  0  0
  -21.9643   -9.0615   20.7014 C   0  0  0  0  0  0  0  0  0  0  0  0
  -27.4467  -29.0553   25.3770 C   0  0  0  0  0  0  0  0  0  0  0  0
  -22.9561   -9.9798   19.9943 C   0  0  0  0  0  0  0  0  0  0  0  0
  -26.0996  -29.5726   24.8752 C   0  0  0  0  0  0  0  0  0  0  0  0
  -27.5223  -27.5321   25.3297 C   0  0  0  0  0  0  0  0  0  0  0  0
  -25.8717  -27.4747   23.4851 C   0  0  0  0  0  0  0  0  0  0  0  0
  -24.0184  -10.5001   20.9701 C   0  0  1  0  0  0  0  0  0  0  0  0
  -22.8293  -13.8195   22.3846 C   0  0  1  0  0  0  0  0  0  0  0  0
  -25.7804  -29.0082   23.4800 C   0  0  1  0  0  0  0  0  0  0  0  0
  -29.9682  -20.6454   22.3194 C   0  0  0  0  0  0  0  0  0  0  0  0
  -30.6371  -18.4487   19.7018 C   0  0  0  0  0  0  0  0  0  0  0  0
  -17.2088  -19.0574   21.3956 C   0  0  0  0  0  0  0  0  0  0  0  0
  -20.5561  -14.2029   18.3789 C   0  0  0  0  0  0  0  0  0  0  0  0
  -18.9610  -16.1264   18.2237 C   0  0  0  0  0  0  0  0  0  0  0  0
  -18.3795  -14.1348   19.6086 C   0  0  0  0  0  0  0  0  0  0  0  0
  -28.0528  -27.1469   21.3330 C   0  0  0  0  0  0  0  0  0  0  0  0
  -19.8762  -19.0724   24.1088 C   0  0  0  0  0  0  0  0  0  0  0  0
  -20.1627  -15.7320   20.4217 C   0  0  1  0  0  0  0  0  0  0  0  0
  -18.2926  -18.4573   22.2778 C   0  0  2  0  0  0  0  0  0  0  0  0
  -19.5409  -15.0527   19.1690 C   0  0  0  0  0  0  0  0  0  0  0  0
  -23.3439  -28.7438   23.2044 N   0  0  0  0  0  0  0  0  0  0  0  0
  -29.0033  -20.2371   20.0498 N   0  0  0  0  0  0  0  0  0  0  0  0
  -24.4362  -29.4896   22.9662 N   0  0  0  0  0  0  0  0  0  0  0  0
  -22.1421  -14.8709   21.6318 N   0  0  0  0  0  0  0  0  0  0  0  0
  -27.1701  -27.0192   24.0051 N   0  0  0  0  0  0  0  0  0  0  0  0
  -25.1668  -31.4950   21.9389 N   0  0  0  0  0  0  0  0  0  0  0  0
  -20.7181  -31.4867   21.1613 N   0  0  0  0  0  0  0  0  0  0  0  0
  -23.4766  -11.5655   21.7861 N   0  0  0  0  0  0  0  0  0  0  0  0
  -19.2178  -16.5213   21.2044 N   0  0  0  0  0  0  0  0  0  0  0  0
  -28.0281  -25.8858   22.0812 N   0  0  0  0  0  0  0  0  0  0  0  0
  -18.8187  -19.5285   23.1704 N   0  3  0  0  0  0  0  0  0  0  0  0
  -22.6665  -32.6457   20.8160 O   0  0  0  0  0  0  0  0  0  0  0  0
  -23.8377  -13.3275   20.3071 O   0  0  0  0  0  0  0  0  0  0  0  0
  -20.0532  -13.8658   21.8818 O   0  0  0  0  0  0  0  0  0  0  0  0
  -20.3715  -18.5268   21.0486 O   0  0  0  0  0  0  0  0  0  0  0  0
  -28.3663  -25.0497   24.2185 O   0  0  0  0  0  0  0  0  0  0  0  0
  -17.0985  -27.5749   22.7835 O   0  0  0  0  0  0  0  0  0  0  0  0
  -27.1774  -18.4049   21.1741 O   0  0  0  0  0  0  0  0  0  1  0  0
  -16.2448  -22.2405   21.6793 F   0  0  0  0  0  0  0  0  0  0  0  0
  -15.4939  -26.8034   20.6686 F   0  0  0  0  0  0  0  0  0  0  0  0
  -28.5416  -24.7515   19.6895 S   0  0  0  0  0  0  0  0  0  0  0  0
  1  2  1  0  0  0  0
  1  5  2  0  0  0  0
  2  6  2  0  0  0  0
  3  8  2  0  0  0  0
  3 17  1  0  0  0  0
  4  9  1  0  0  0  0
  4 17  2  0  0  0  0
  5 20  1  0  0  0  0
  6 22  1  0  0  0  0
  7 10  2  0  0  0  0
  7 21  1  0  0  0  0
  8 24  1  0  0  0  0
  9 24  2  0  0  0  0
 10 25  1  0  0  0  0
 11 12  2  0  0  0  0
 11 26  1  0  0  0  0
 12 27  1  0  0  0  0
 13 18  1  0  0  0  0
 13 31  2  0  0  0  0
 14 23  1  0  0  0  0
 14 25  2  0  0  0  0
 15 27  2  0  0  0  0
 15 28  1  0  0  0  0
 16 18  2  0  0  0  0
 16 83  1  0  0  0  0
 17 29  1  0  0  0  0
 18 33  1  0  0  0  0
 19 29  1  0  0  0  0
 19 30  2  0  0  0  0
 19 34  1  0  0  0  0
 20 22  2  0  0  0  0
 20 40  1  0  0  0  0
 21 23  2  0  0  0  0
 21 41  1  0  0  0  0
 22 49  1  0  0  0  0
 23 42  1  0  0  0  0
 24 79  1  0  0  0  0
 25 80  1  0  0  0  0
 26 28  2  0  0  0  0
 26 79  1  0  0  0  0
 27 81  1  0  0  0  0
 28 82  1  0  0  0  0
 29 63  2  0  0  0  0
 30 65  1  0  0  0  0
 30 68  1  0  0  0  0
 31 72  1  0  0  0  0
 31 83  1  0  0  0  0
 32 35  2  0  0  0  0
 32 80  1  0  0  0  0
 33 52  1  0  0  0  0
 33 64  2  0  0  0  0
 34 69  1  0  0  0  0
 34 74  2  0  0  0  0
 35 53  1  0  0  0  0
 35 64  1  0  0  0  0
 36 50  1  0  0  0  0
 36 70  1  0  0  0  0
 36 75  2  0  0  0  0
 37 60  1  0  0  0  0
 37 66  1  0  0  0  0
 37 76  2  0  0  0  0
 38 61  1  0  0  0  0
 38 71  1  0  0  0  0
 38 77  2  0  0  0  0
 39 67  1  0  0  0  0
 39 72  1  0  0  0  0
 39 78  2  0  0  0  0
 40 43  1  0  0  0  0
 41 50  1  0  0  0  0
 42 66  1  0  0  0  0
 43 45  1  0  0  0  0
 44 46  1  0  0  0  0
 44 47  1  0  0  0  0
 45 49  1  0  0  0  0
 46 51  1  0  0  0  0
 47 67  1  0  0  0  0
 48 51  1  0  0  0  0
 48 67  1  0  0  0  0
 49 70  1  0  0  0  0
 50 66  1  0  0  0  0
 51 65  1  0  0  0  0
 54 61  1  0  0  0  0
 55 62  1  0  0  0  0
 56 62  1  0  0  0  0
 57 62  1  0  0  0  0
 58 72  1  0  0  0  0
 59 73  1  0  0  0  0
 60 62  1  0  0  0  0
 60 71  1  0  0  0  0
 61 73  1  0  0  0  0
 63 65  1  0  0  0  0
M  CHG  1  73   1
M  ISO  4  32 101  39 100  72 100  80 101
M  END
> <Batch ID>
0086

> <Smiles>
C=C(N=C(C)[101CH2:1][101O:1]c1ccc2c(c1)CN(C(=O)C(NC(=O)C(C)NC)C(C)(C)C)C(C(=O)NC1CCCc3ccccc31)C2)c1csc([100N:0](C)[100C:0](=O)N2CCCC(n3nc(-c4ccc(Oc5ccc(F)cc5F)cc4)c(C(N)=O)c3N)C2)c1

> <Shape>
0.224

> <Color>
0.065

> <Negative vol penalty>
0.000

$$$$

  -OEChem-04052300173D

 88 97  0     1  0  0  0  0  0999 V2000
  -22.0877  -30.9424   24.9231 C   0  0  0  0  0  0  0  0  0  0  0  0
  -21.8743  -29.5849   24.7061 C   0  0  0  0  0  0  0  0  0  0  0  0
  -19.4210  -16.7002   21.7577 C   0  0  0  0  0  0  0  0  0  0  0  0
  -28.1547  -13.6165   19.5996 C   0  0  0  0  0  0  0  0  0  0  0  0
  -29.1590  -11.4268   19.4167 C   0  0  0  0  0  0  0  0  0  0  0  0
  -19.2524  -15.3602   22.1061 C   0  0  0  0  0  0  0  0  0  0  0  0
  -22.7774  -31.6986   23.9763 C   0  0  0  0  0  0  0  0  0  0  0  0
  -22.3496  -28.9830   23.5415 C   0  0  0  0  0  0  0  0  0  0  0  0
  -24.4903  -23.2750   22.9571 C   0  0  0  0  0  0  0  0  0  0  0  0
  -20.7025  -17.2464   21.6864 C   0  0  0  0  0  0  0  0  0  0  0  0
  -29.4040  -14.1655   19.8881 C   0  0  0  0  0  0  0  0  0  0  0  0
  -30.4085  -11.9758   19.7051 C   0  0  0  0  0  0  0  0  0  0  0  0
  -23.9025  -22.0945   22.5047 C   0  0  0  0  0  0  0  0  0  0  0  0
  -32.1750  -15.0847   18.1823 C   0  0  0  0  0  0  0  0  0  0  0  0
  -32.5311  -16.2645   17.5291 C   0  0  0  0  0  0  0  0  0  0  0  0
  -21.6469  -15.1125   22.3121 C   0  0  0  0  0  0  0  0  0  0  0  0
  -24.8378  -22.4753   20.3140 C   0  0  0  0  0  0  0  0  0  0  0  0
  -32.7440  -17.3808   19.6611 C   0  0  0  0  0  0  0  0  0  0  0  0
  -28.0321  -12.2472   19.3640 C   0  0  0  0  0  0  0  0  0  0  0  0
  -20.3653  -14.5663   22.3833 C   0  0  0  0  0  0  0  0  0  0  0  0
  -26.1568  -11.5170   17.7963 C   0  0  0  0  0  0  0  0  0  0  0  0
  -23.2697  -31.1037   22.8040 C   0  0  0  0  0  0  0  0  0  0  0  0
  -25.2485  -24.0715   22.0869 C   0  0  0  0  0  0  0  0  0  0  0  0
  -23.0453  -29.7323   22.5775 C   0  0  0  0  0  0  0  0  0  0  0  0
  -25.4363  -23.6641   20.7584 C   0  0  0  0  0  0  0  0  0  0  0  0
  -21.8154  -16.4526   21.9637 C   0  0  0  0  0  0  0  0  0  0  0  0
  -30.5310  -13.3452   19.9409 C   0  0  0  0  0  0  0  0  0  0  0  0
  -24.0738  -21.6959   21.1823 C   0  0  0  0  0  0  0  0  0  0  0  0
  -32.1033  -15.0529   19.5750 C   0  0  0  0  0  0  0  0  0  0  0  0
  -32.8156  -17.4125   18.2684 C   0  0  0  0  0  0  0  0  0  0  0  0
  -32.3878  -16.2009   20.3144 C   0  0  0  0  0  0  0  0  0  0  0  0
  -26.7417  -11.6794   19.0665 C   0  0  0  0  0  0  0  0  0  0  0  0
  -24.9386  -10.9360   18.0510 C   0  0  0  0  0  0  0  0  0  0  0  0
  -25.5643  -17.1401   22.4774 C   0  0  0  0  0  0  0  0  0  0  0  0
  -24.1913  -16.5457   22.6978 C   0  0  0  0  0  0  0  0  0  0  0  0
  -20.1842  -13.1392   22.7542 C   0  0  0  0  0  0  0  0  0  0  0  0
  -26.6689  -11.8605   16.5019 C   0  0  0  0  0  0  0  0  0  0  0  0
  -25.0044  -27.0397   20.9760 C   0  0  0  0  0  0  0  0  0  0  0  0
  -27.9068  -26.3800   19.6865 C   0  0  0  0  0  0  0  0  0  0  0  0
  -30.1246  -24.0275   18.5936 C   0  0  0  0  0  0  0  0  0  0  0  0
  -21.3044  -10.9327   22.7547 C   0  0  0  0  0  0  0  0  0  0  0  0
  -23.9681  -31.9717   21.7875 C   0  0  0  0  0  0  0  0  0  0  0  0
  -25.8982  -25.3284   22.5973 C   0  0  0  0  0  0  0  0  0  0  0  0
  -26.2580  -24.4732   19.7895 C   0  0  0  0  0  0  0  0  0  0  0  0
  -25.8781  -17.8944   21.2175 C   0  0  0  0  0  0  0  0  0  0  0  0
  -24.7655  -31.1792   20.7548 C   0  0  0  0  0  0  0  0  0  0  0  0
  -24.7183  -17.9311   20.2483 C   0  0  0  0  0  0  0  0  0  0  0  0
  -22.7345   -8.0894   21.2160 C   0  0  0  0  0  0  0  0  0  0  0  0
  -23.9363  -30.0172   20.2173 C   0  0  0  0  0  0  0  0  0  0  0  0
  -23.8630   -8.6712   20.3602 C   0  0  0  0  0  0  0  0  0  0  0  0
  -22.5946   -8.8260   22.5475 C   0  0  0  0  0  0  0  0  0  0  0  0
  -23.5925  -10.8619   21.5898 C   0  0  0  0  0  0  0  0  0  0  0  0
  -23.5669  -29.0380   21.3381 C   0  0  1  0  0  0  0  0  0  0  0  0
  -26.2227  -26.3256   21.4893 C   0  0  1  0  0  0  0  0  0  0  0  0
  -23.7279  -10.1997   20.2091 C   0  0  1  0  0  0  0  0  0  0  0  0
  -23.3870  -18.1478   20.9673 C   0  0  2  0  0  0  0  0  0  0  0  0
  -32.3981  -23.7946   17.5572 C   0  0  0  0  0  0  0  0  0  0  0  0
  -26.7604  -27.2243   16.9878 C   0  0  0  0  0  0  0  0  0  0  0  0
  -28.7041  -26.0937   15.8869 C   0  0  0  0  0  0  0  0  0  0  0  0
  -29.0910  -28.0185   17.4257 C   0  0  0  0  0  0  0  0  0  0  0  0
  -31.1509  -22.4963   20.9091 C   0  0  0  0  0  0  0  0  0  0  0  0
  -23.3239  -19.4971   21.6911 C   0  0  0  0  0  0  0  0  0  1  0  0
  -28.3884  -25.7871   18.3843 C   0  0  1  0  0  0  0  0  0  0  0  0
  -31.6084  -23.8432   18.8559 C   0  0  2  0  0  0  0  0  0  0  0  0
  -28.2188  -26.7664   17.1887 C   0  0  0  0  0  0  0  0  0  0  0  0
  -25.9594  -11.2374   20.0547 N   0  0  0  0  0  0  0  0  0  0  0  0
  -24.8704  -10.7917   19.4055 N   0  0  0  0  0  0  0  0  0  0  0  0
  -23.1463  -17.0200   21.8893 N   0  0  0  0  0  0  0  0  0  0  0  0
  -26.8677  -25.6974   20.3345 N   0  0  0  0  0  0  0  0  0  0  0  0
  -22.4619  -10.2656   22.3170 N   0  0  0  0  0  0  0  0  0  0  0  0
  -23.9297  -10.5398   17.2463 N   0  0  0  0  0  0  0  0  0  0  0  0
  -27.9377  -12.4502   16.4203 N   0  0  0  0  0  0  0  0  0  0  0  0
  -21.2541  -12.2973   22.4494 N   0  0  0  0  0  0  0  0  0  0  0  0
  -24.6974  -28.1964   21.6669 N   0  0  0  0  0  0  0  0  0  0  0  0
  -29.7636  -25.3581   18.6149 N   0  0  0  0  0  0  0  0  0  0  0  0
  -31.8492  -22.5747   19.6002 N   0  3  0  0  0  0  0  0  0  0  0  0
  -26.3927  -16.9835   23.3684 O   0  0  0  0  0  0  0  0  0  0  0  0
  -24.1322  -15.7234   23.6062 O   0  0  0  0  0  0  0  0  0  0  0  0
  -19.1533  -12.7962   23.3264 O   0  0  0  0  0  0  0  0  0  0  0  0
  -26.0136  -11.6659   15.4502 O   0  0  0  0  0  0  0  0  0  0  0  0
  -24.3893  -26.5763   20.0228 O   0  0  0  0  0  0  0  0  0  0  0  0
  -28.4382  -27.4068   20.1165 O   0  0  0  0  0  0  0  0  0  0  0  0
  -29.3627  -23.0856   18.3866 O   0  0  0  0  0  0  0  0  0  0  0  0
  -20.3783  -10.3559   23.3335 O   0  0  0  0  0  0  0  0  0  0  0  0
  -31.7503  -13.8806   20.2221 O   0  0  0  0  0  0  0  0  0  0  0  0
  -23.5006  -20.5444   20.7380 O   0  0  0  0  0  0  0  0  0  1  0  0
  -33.1591  -18.5451   17.6411 F   0  0  0  0  0  0  0  0  0  0  0  0
  -32.3217  -16.1762   21.6526 F   0  0  0  0  0  0  0  0  0  0  0  0
  1  2  1  0  0  0  0
  1  7  2  0  0  0  0
  2  8  2  0  0  0  0
  3  6  1  0  0  0  0
  3 10  2  0  0  0  0
  4 11  2  0  0  0  0
  4 19  1  0  0  0  0
  5 12  1  0  0  0  0
  5 19  2  0  0  0  0
  6 20  2  0  0  0  0
  7 22  1  0  0  0  0
  8 24  1  0  0  0  0
  9 13  2  0  0  0  0
  9 23  1  0  0  0  0
 10 26  1  0  0  0  0
 11 27  1  0  0  0  0
 12 27  2  0  0  0  0
 13 28  1  0  0  0  0
 14 15  2  0  0  0  0
 14 29  1  0  0  0  0
 15 30  1  0  0  0  0
 16 20  1  0  0  0  0
 16 26  2  0  0  0  0
 17 25  1  0  0  0  0
 17 28  2  0  0  0  0
 18 30  2  0  0  0  0
 18 31  1  0  0  0  0
 19 32  1  0  0  0  0
 20 36  1  0  0  0  0
 21 32  1  0  0  0  0
 21 33  2  0  0  0  0
 21 37  1  0  0  0  0
 22 24  2  0  0  0  0
 22 42  1  0  0  0  0
 23 25  2  0  0  0  0
 23 43  1  0  0  0  0
 24 53  1  0  0  0  0
 25 44  1  0  0  0  0
 26 68  1  0  0  0  0
 27 85  1  0  0  0  0
 28 86  1  0  0  0  0
 29 31  2  0  0  0  0
 29 85  1  0  0  0  0
 30 87  1  0  0  0  0
 31 88  1  0  0  0  0
 32 66  2  0  0  0  0
 33 67  1  0  0  0  0
 33 71  1  0  0  0  0
 34 35  1  0  0  0  0
 34 45  1  0  0  0  0
 34 77  2  0  0  0  0
 35 68  1  0  0  0  0
 35 78  2  0  0  0  0
 36 73  1  0  0  0  0
 36 79  2  0  0  0  0
 37 72  1  0  0  0  0
 37 80  2  0  0  0  0
 38 54  1  0  0  0  0
 38 74  1  0  0  0  0
 38 81  2  0  0  0  0
 39 63  1  0  0  0  0
 39 69  1  0  0  0  0
 39 82  2  0  0  0  0
 40 64  1  0  0  0  0
 40 75  1  0  0  0  0
 40 83  2  0  0  0  0
 41 70  1  0  0  0  0
 41 73  1  0  0  0  0
 41 84  2  0  0  0  0
 42 46  1  0  0  0  0
 43 54  1  0  0  0  0
 44 69  1  0  0  0  0
 45 47  1  0  0  0  0
 46 49  1  0  0  0  0
 47 56  1  0  0  0  0
 48 50  1  0  0  0  0
 48 51  1  0  0  0  0
 49 53  1  0  0  0  0
 50 55  1  0  0  0  0
 51 70  1  0  0  0  0
 52 55  1  0  0  0  0
 52 70  1  0  0  0  0
 53 74  1  0  0  0  0
 54 69  1  0  0  0  0
 55 67  1  0  0  0  0
 56 62  1  0  0  0  0
 56 68  1  0  0  0  0
 57 64  1  0  0  0  0
 58 65  1  0  0  0  0
 59 65  1  0  0  0  0
 60 65  1  0  0  0  0
 61 76  1  0  0  0  0
 62 86  1  0  0  0  0
 63 65  1  0  0  0  0
 63 75  1  0  0  0  0
 64 76  1  0  0  0  0
 66 67  1  0  0  0  0
M  CHG  1  76   1
M  ISO  4  41 100  62 101  73 100  86 101
M  END
> <Batch ID>
0086

> <Smiles>
CNC(C)C(=O)NC(C(=O)N1Cc2cc([101O:1][101CH2:1]C3CCC(=O)C(=O)N3c3cccc(C(=O)[100NH:0][100C:0](=O)N4CCCC(n5nc(-c6ccc(Oc7ccc(F)cc7F)cc6)c(C(N)=O)c5N)C4)c3)ccc2CC1C(=O)NC1CCCc2ccccc21)C(C)(C)C

> <Shape>
0.188

> <Color>
0.092

> <Negative vol penalty>
0.000

$$$$

  -OEChem-04052300173D

 85 94  0     1  0  0  0  0  0999 V2000
  -21.4788  -12.5206   21.0215 C   0  0  0  0  0  0  0  0  0  0  0  0
  -21.6022  -13.8332   21.4657 C   0  0  0  0  0  0  0  0  0  0  0  0
  -27.3405  -28.2365   22.1324 C   0  0  0  0  0  0  0  0  0  0  0  0
  -27.3764  -30.2844   23.4138 C   0  0  0  0  0  0  0  0  0  0  0  0
  -22.6158  -11.7967   20.6650 C   0  0  0  0  0  0  0  0  0  0  0  0
  -22.8630  -14.4223   21.5547 C   0  0  0  0  0  0  0  0  0  0  0  0
  -22.9452  -19.1276   19.6845 C   0  0  0  0  0  0  0  0  0  0  0  0
  -28.4402  -27.7676   22.8509 C   0  0  0  0  0  0  0  0  0  0  0  0
  -28.4762  -29.8155   24.1324 C   0  0  0  0  0  0  0  0  0  0  0  0
  -22.4230  -20.1410   20.4871 C   0  0  0  0  0  0  0  0  0  0  0  0
  -31.8121  -29.5192   23.6694 C   0  0  0  0  0  0  0  0  0  0  0  0
  -32.8739  -30.3996   23.8769 C   0  0  0  0  0  0  0  0  0  0  0  0
  -24.6585  -20.7612   21.1481 C   0  0  0  0  0  0  0  0  0  0  0  0
  -32.5805  -30.1903   26.2659 C   0  0  0  0  0  0  0  0  0  0  0  0
  -26.8086  -29.4949   22.4138 C   0  0  0  0  0  0  0  0  0  0  0  0
  -25.5923  -30.1899   20.2819 C   0  0  0  0  0  0  0  0  0  0  0  0
  -23.8903  -12.3804   20.7405 C   0  0  0  0  0  0  0  0  0  0  0  0
  -24.3297  -18.9161   19.6161 C   0  0  0  0  0  0  0  0  0  0  0  0
  -24.0182  -13.7050   21.2002 C   0  0  0  0  0  0  0  0  0  0  0  0
  -25.1959  -19.7461   20.3420 C   0  0  0  0  0  0  0  0  0  0  0  0
  -29.0081  -28.5571   23.8509 C   0  0  0  0  0  0  0  0  0  0  0  0
  -23.2795  -20.9561   21.2213 C   0  0  0  0  0  0  0  0  0  0  0  0
  -31.1345  -28.9743   24.7601 C   0  0  0  0  0  0  0  0  0  0  0  0
  -33.2581  -30.7351   25.1751 C   0  0  0  0  0  0  0  0  0  0  0  0
  -31.5187  -29.3098   26.0583 C   0  0  0  0  0  0  0  0  0  0  0  0
  -25.6729  -29.9801   21.6716 C   0  0  0  0  0  0  0  0  0  0  0  0
  -24.3152  -30.6526   20.0780 C   0  0  0  0  0  0  0  0  0  0  0  0
  -23.0725  -23.8213   24.8580 C   0  0  0  0  0  0  0  0  0  0  0  0
  -20.3714  -27.9126   23.2139 C   0  0  0  0  0  0  0  0  0  0  0  0
  -22.9476  -23.7883   23.5217 C   0  0  0  0  0  0  0  0  0  0  0  0
  -20.4831  -26.5938   22.9924 C   0  0  0  0  0  0  0  0  0  0  0  0
  -22.2605  -24.7516   25.6746 C   0  0  0  0  0  0  0  0  0  0  0  0
  -26.5831  -29.9847   19.2661 C   0  0  0  0  0  0  0  0  0  0  0  0
  -26.2705  -16.5099   20.3559 C   0  0  0  0  0  0  0  0  0  0  0  0
  -28.5138  -18.4111   18.9864 C   0  0  0  0  0  0  0  0  0  0  0  0
  -29.4991  -21.5577   18.1064 C   0  0  0  0  0  0  0  0  0  0  0  0
  -19.2202  -30.0800   22.9041 C   0  0  0  0  0  0  0  0  0  0  0  0
  -25.0943  -11.5427   20.3893 C   0  0  0  0  0  0  0  0  0  0  0  0
  -24.8786  -17.8359   18.7249 C   0  0  0  0  0  0  0  0  0  0  0  0
  -26.6911  -19.5734   20.2872 C   0  0  0  0  0  0  0  0  0  0  0  0
  -19.4860  -25.8211   22.1862 C   0  0  0  0  0  0  0  0  0  0  0  0
  -21.1576  -25.5158   24.9970 C   0  0  0  0  0  0  0  0  0  0  0  0
  -26.3601  -12.3634   20.1560 C   0  0  0  0  0  0  0  0  0  0  0  0
  -18.1499  -26.5548   22.1510 C   0  0  0  0  0  0  0  0  0  0  0  0
  -20.8054  -33.0646   22.2434 C   0  0  0  0  0  0  0  0  0  0  0  0
  -26.5376  -13.3974   21.2633 C   0  0  0  0  0  0  0  0  0  0  0  0
  -22.2301  -32.6478   21.8799 C   0  0  0  0  0  0  0  0  0  0  0  0
  -18.3421  -28.0337   21.8317 C   0  0  0  0  0  0  0  0  0  0  0  0
  -20.2846  -32.2526   23.4236 C   0  0  0  0  0  0  0  0  0  0  0  0
  -21.7414  -30.3416   22.8370 C   0  0  0  0  0  0  0  0  0  0  0  0
  -25.3664  -14.3870   21.2869 C   0  0  1  0  0  0  0  0  0  0  0  0
  -22.0441  -24.7429   22.7524 C   0  0  2  0  0  0  0  0  0  0  0  0
  -26.2767  -17.3795   19.1306 C   0  0  1  0  0  0  0  0  0  0  0  0
  -22.3174  -31.1299   21.6428 C   0  0  2  0  0  0  0  0  0  0  0  0
  -22.7505  -25.3279   21.5178 C   0  0  0  0  0  0  0  0  0  0  0  0
  -31.3985  -22.7999   17.0354 C   0  0  0  0  0  0  0  0  0  0  0  0
  -30.1486  -18.1128   21.5453 C   0  0  0  0  0  0  0  0  0  0  0  0
  -31.5187  -20.0773   20.8162 C   0  0  0  0  0  0  0  0  0  0  0  0
  -31.4851  -18.0007   19.4345 C   0  0  0  0  0  0  0  0  0  0  0  0
  -27.7691  -22.5521   15.9207 C   0  0  0  0  0  0  0  0  0  0  0  0
  -23.6927  -22.7457   22.7322 C   0  0  0  0  0  0  0  0  0  1  0  0
  -29.4444  -19.4925   19.4798 C   0  0  1  0  0  0  0  0  0  0  0  0
  -30.0614  -22.1114   16.8095 C   0  0  2  0  0  0  0  0  0  0  0  0
  -30.6210  -18.9231   20.3217 C   0  0  0  0  0  0  0  0  0  0  0  0
  -24.5375  -30.2847   22.3058 N   0  0  0  0  0  0  0  0  0  0  0  0
  -23.7314  -30.6907   21.3100 N   0  0  0  0  0  0  0  0  0  0  0  0
  -19.3622  -28.6958   22.6641 N   0  0  0  0  0  0  0  0  0  0  0  0
  -27.1790  -18.4994   19.4063 N   0  0  0  0  0  0  0  0  0  0  0  0
  -20.3872  -30.8166   23.1648 N   0  0  0  0  0  0  0  0  0  0  0  0
  -23.6460  -31.0266   18.9668 N   0  0  0  0  0  0  0  0  0  0  0  0
  -27.4399  -31.0462   18.9444 N   0  0  0  0  0  0  0  0  0  0  0  0
  -25.5088  -15.3640   20.2287 N   0  0  0  0  0  0  0  0  0  0  0  0
  -29.8619  -20.2415   18.2995 N   0  0  0  0  0  0  0  0  0  0  0  0
  -21.5660  -25.9175   23.6086 N   0  3  1  0  0  0  0  0  0  0  0  0
  -29.1177  -23.1007   16.2164 N   0  3  0  0  0  0  0  0  0  0  0  0
  -22.4447  -24.8205   26.8882 O   0  0  0  0  0  0  0  0  0  0  0  0
  -26.6943  -28.8977   18.6500 O   0  0  0  0  0  0  0  0  0  0  0  0
  -26.9107  -16.8524   21.3431 O   0  0  0  0  0  0  0  0  0  0  0  0
  -28.9533  -17.5248   18.2495 O   0  0  0  0  0  0  0  0  0  0  0  0
  -28.8104  -22.2270   18.8733 O   0  0  0  0  0  0  0  0  0  0  0  0
  -18.1100  -30.6280   22.8904 O   0  0  0  0  0  0  0  0  0  0  0  0
  -30.0811  -28.0997   24.5524 O   0  0  0  0  0  0  0  0  0  0  0  0
  -22.7673  -21.9554   22.0138 O   0  0  0  0  0  0  0  0  0  1  0  0
  -34.2787  -31.5794   25.3743 F   0  0  0  0  0  0  0  0  0  0  0  0
  -30.8722  -28.7887   27.1101 F   0  0  0  0  0  0  0  0  0  0  0  0
  1  2  1  0  0  0  0
  1  5  2  0  0  0  0
  2  6  2  0  0  0  0
  3  8  2  0  0  0  0
  3 15  1  0  0  0  0
  4  9  1  0  0  0  0
  4 15  2  0  0  0  0
  5 17  1  0  0  0  0
  6 19  1  0  0  0  0
  7 10  2  0  0  0  0
  7 18  1  0  0  0  0
  8 21  1  0  0  0  0
  9 21  2  0  0  0  0
 10 22  1  0  0  0  0
 11 12  2  0  0  0  0
 11 23  1  0  0  0  0
 12 24  1  0  0  0  0
 13 20  1  0  0  0  0
 13 22  2  0  0  0  0
 14 24  2  0  0  0  0
 14 25  1  0  0  0  0
 15 26  1  0  0  0  0
 16 26  1  0  0  0  0
 16 27  2  0  0  0  0
 16 33  1  0  0  0  0
 17 19  2  0  0  0  0
 17 38  1  0  0  0  0
 18 20  2  0  0  0  0
 18 39  1  0  0  0  0
 19 51  1  0  0  0  0
 20 40  1  0  0  0  0
 21 82  1  0  0  0  0
 22 83  1  0  0  0  0
 23 25  2  0  0  0  0
 23 82  1  0  0  0  0
 24 84  1  0  0  0  0
 25 85  1  0  0  0  0
 26 65  2  0  0  0  0
 27 66  1  0  0  0  0
 27 70  1  0  0  0  0
 28 30  2  0  0  0  0
 28 32  1  0  0  0  0
 29 31  2  0  0  0  0
 29 67  1  0  0  0  0
 30 52  1  0  0  0  0
 30 61  1  0  0  0  0
 31 41  1  0  0  0  0
 31 74  1  0  0  0  0
 32 42  1  0  0  0  0
 32 76  2  0  0  0  0
 33 71  1  0  0  0  0
 33 77  2  0  0  0  0
 34 53  1  0  0  0  0
 34 72  1  0  0  0  0
 34 78  2  0  0  0  0
 35 62  1  0  0  0  0
 35 68  1  0  0  0  0
 35 79  2  0  0  0  0
 36 63  1  0  0  0  0
 36 73  1  0  0  0  0
 36 80  2  0  0  0  0
 37 67  1  0  0  0  0
 37 69  1  0  0  0  0
 37 81  2  0  0  0  0
 38 43  1  0  0  0  0
 39 53  1  0  0  0  0
 40 68  1  0  0  0  0
 41 44  1  0  0  0  0
 42 74  1  0  0  0  0
 43 46  1  0  0  0  0
 44 48  1  0  0  0  0
 45 47  1  0  0  0  0
 45 49  1  0  0  0  0
 46 51  1  0  0  0  0
 47 54  1  0  0  0  0
 48 67  1  0  0  0  0
 49 69  1  0  0  0  0
 50 54  1  0  0  0  0
 50 69  1  0  0  0  0
 51 72  1  0  0  0  0
 52 55  1  0  0  0  0
 52 74  1  0  0  0  0
 53 68  1  0  0  0  0
 54 66  1  0  0  0  0
 56 63  1  0  0  0  0
 57 64  1  0  0  0  0
 58 64  1  0  0  0  0
 59 64  1  0  0  0  0
 60 75  1  0  0  0  0
 61 83  1  0  0  0  0
 62 64  1  0  0  0  0
 62 73  1  0  0  0  0
 63 75  1  0  0  0  0
 65 66  1  0  0  0  0
M  CHG  2  74   1  75   1
M  ISO  4  37 100  61 101  67 100  83 101
M  END
> <Batch ID>
0086

> <Smiles>
CNC(C)C(=O)NC(C(=O)N1Cc2cc([101O:1][101CH2:1]C3=C(C)N(C4=C[100N:0]([100C:0](=O)N5CCCC(n6nc(-c7ccc(Oc8ccc(F)cc8F)cc7)c(C(N)=O)c6N)C5)CCC4)CC(=O)C3)ccc2CC1C(=O)NC1CCCc2ccccc21)C(C)(C)C

> <Shape>
0.222

> <Color>
0.079

> <Negative vol penalty>
0.000

$$$$

  -OEChem-04052300173D

 87 96  0     1  0  0  0  0  0999 V2000
  -17.5039  -24.5249   23.2173 C   0  0  0  0  0  0  0  0  0  0  0  0
  -18.7885  -24.0051   23.0942 C   0  0  0  0  0  0  0  0  0  0  0  0
  -23.2029  -11.1198   22.3860 C   0  0  0  0  0  0  0  0  0  0  0  0
  -22.8719  -13.4541   21.8586 C   0  0  0  0  0  0  0  0  0  0  0  0
  -17.2940  -25.8979   23.0956 C   0  0  0  0  0  0  0  0  0  0  0  0
  -19.8639  -24.8581   22.8483 C   0  0  0  0  0  0  0  0  0  0  0  0
  -25.5929  -24.2523   24.9259 C   0  0  0  0  0  0  0  0  0  0  0  0
  -29.1273  -18.1720   19.0913 C   0  0  0  0  0  0  0  0  0  0  0  0
  -31.4448  -17.4918   19.1543 C   0  0  0  0  0  0  0  0  0  0  0  0
  -22.2565  -11.2159   23.4060 C   0  0  0  0  0  0  0  0  0  0  0  0
  -21.9253  -13.5503   22.8787 C   0  0  0  0  0  0  0  0  0  0  0  0
  -26.7533  -23.7445   24.3432 C   0  0  0  0  0  0  0  0  0  0  0  0
  -18.6795  -12.7346   23.3476 C   0  0  0  0  0  0  0  0  0  0  0  0
  -17.4900  -13.4058   23.0647 C   0  0  0  0  0  0  0  0  0  0  0  0
  -29.5150  -19.4580   18.7153 C   0  0  0  0  0  0  0  0  0  0  0  0
  -31.8324  -18.7779   18.7783 C   0  0  0  0  0  0  0  0  0  0  0  0
  -27.4101  -25.9797   23.7175 C   0  0  0  0  0  0  0  0  0  0  0  0
  -17.9670  -14.9925   24.8231 C   0  0  0  0  0  0  0  0  0  0  0  0
  -23.5107  -12.2389   21.6123 C   0  0  0  0  0  0  0  0  0  0  0  0
  -24.2563  -11.8033   19.2118 C   0  0  0  0  0  0  0  0  0  0  0  0
  -18.3688  -26.7691   22.8577 C   0  0  0  0  0  0  0  0  0  0  0  0
  -25.3268  -25.6289   24.8992 C   0  0  0  0  0  0  0  0  0  0  0  0
  -19.6680  -26.2438   22.7220 C   0  0  0  0  0  0  0  0  0  0  0  0
  -26.2470  -26.5028   24.3029 C   0  0  0  0  0  0  0  0  0  0  0  0
  -30.0922  -17.1889   19.3109 C   0  0  0  0  0  0  0  0  0  0  0  0
  -21.6177  -12.4312   23.6524 C   0  0  0  0  0  0  0  0  0  0  0  0
  -27.6606  -24.6079   23.7363 C   0  0  0  0  0  0  0  0  0  0  0  0
  -19.5128  -13.1923   24.3683 C   0  0  0  0  0  0  0  0  0  0  0  0
  -17.1337  -14.5347   23.8024 C   0  0  0  0  0  0  0  0  0  0  0  0
  -19.1566  -14.3213   25.1060 C   0  0  0  0  0  0  0  0  0  0  0  0
  -30.8675  -19.7610   18.5587 C   0  0  0  0  0  0  0  0  0  0  0  0
  -24.4887  -12.1403   20.5588 C   0  0  0  0  0  0  0  0  0  0  0  0
  -25.4984  -11.8483   18.6274 C   0  0  0  0  0  0  0  0  0  0  0  0
  -29.7963  -23.2626   21.1881 C   0  0  0  0  0  0  0  0  0  0  0  0
  -29.7283  -22.8790   19.7582 C   0  0  0  0  0  0  0  0  0  0  0  0
  -28.7472  -23.7564   21.8482 C   0  0  0  0  0  0  0  0  0  1  0  0
  -23.0274  -11.4786   18.5483 C   0  0  0  0  0  0  0  0  0  0  0  0
  -23.0347  -27.4466   23.6558 C   0  0  0  0  0  0  0  0  0  0  0  0
  -24.5765  -29.8081   25.2584 C   0  0  0  0  0  0  0  0  0  0  0  0
  -27.4735  -30.9468   26.6575 C   0  0  0  0  0  0  0  0  0  0  0  0
  -30.5279  -14.7912   19.9496 C   0  0  0  0  0  0  0  0  0  0  0  0
  -18.0862  -28.2407   22.6867 C   0  0  0  0  0  0  0  0  0  0  0  0
  -24.0836  -26.1636   25.5558 C   0  0  0  0  0  0  0  0  0  0  0  0
  -26.0177  -27.9909   24.2653 C   0  0  0  0  0  0  0  0  0  0  0  0
  -31.1662  -22.9715   21.7291 C   0  0  0  0  0  0  0  0  0  0  0  0
  -19.3310  -29.1170   22.7989 C   0  0  0  0  0  0  0  0  0  0  0  0
  -30.1408  -11.2647   19.6483 C   0  0  0  0  0  0  0  0  0  0  0  0
  -20.4718  -28.5324   21.9721 C   0  0  0  0  0  0  0  0  0  0  0  0
  -28.6259  -11.0589   19.7189 C   0  0  0  0  0  0  0  0  0  0  0  0
  -31.7917  -22.0170   20.7079 C   0  0  0  0  0  0  0  0  0  0  0  0
  -30.6044  -12.3874   20.5747 C   0  0  0  0  0  0  0  0  0  0  0  0
  -28.3892  -13.4604   20.4698 C   0  0  0  0  0  0  0  0  0  0  0  0
  -20.8636  -27.1395   22.4799 C   0  0  1  0  0  0  0  0  0  0  0  0
  -23.6636  -27.5281   25.0180 C   0  0  1  0  0  0  0  0  0  0  0  0
  -27.8667  -12.3832   19.5053 C   0  0  2  0  0  0  0  0  0  0  0  0
  -28.4342  -32.9286   27.8603 C   0  0  0  0  0  0  0  0  0  0  0  0
  -24.6997  -31.3438   22.6247 C   0  0  0  0  0  0  0  0  0  0  0  0
  -26.4504  -32.8146   23.6446 C   0  0  0  0  0  0  0  0  0  0  0  0
  -24.1574  -32.7442   24.6245 C   0  0  0  0  0  0  0  0  0  0  0  0
  -28.1060  -29.3313   29.0553 C   0  0  0  0  0  0  0  0  0  0  0  0
  -25.6988  -30.7642   24.9338 C   0  0  1  0  0  0  0  0  0  0  0  0
  -27.7606  -31.5734   28.0101 C   0  0  2  0  0  0  0  0  0  0  0  0
  -25.2552  -31.8885   23.9557 C   0  0  0  0  0  0  0  0  0  0  0  0
  -25.7772  -12.3815   20.8150 N   0  0  0  0  0  0  0  0  0  0  0  0
  -26.3656  -12.1957   19.6211 N   0  0  0  0  0  0  0  0  0  0  0  0
  -30.9818  -22.2567   19.4875 N   0  0  0  0  0  0  0  0  0  0  0  0
  -24.7846  -28.4646   24.9153 N   0  0  0  0  0  0  0  0  0  0  0  0
  -29.8443  -13.6114   20.3123 N   0  0  0  0  0  0  0  0  0  0  0  0
  -25.9225  -11.6241   17.3655 N   0  0  0  0  0  0  0  0  0  0  0  0
  -21.8431  -11.4792   19.2977 N   0  0  0  0  0  0  0  0  0  0  0  0
  -29.6984  -15.8824   19.6929 N   0  0  0  0  0  0  0  0  0  0  0  0
  -21.6676  -27.2461   23.6784 N   0  0  0  0  0  0  0  0  0  0  0  0
  -26.2040  -31.2502   26.2132 N   0  0  0  0  0  0  0  0  0  0  0  0
  -28.6547  -30.6901   28.8109 N   0  3  0  0  0  0  0  0  0  0  0  0
  -28.7991  -23.0421   18.9885 O   0  0  0  0  0  0  0  0  0  0  0  0
  -22.9833  -11.1804   17.3307 O   0  0  0  0  0  0  0  0  0  0  0  0
  -23.7374  -27.5588   22.6582 O   0  0  0  0  0  0  0  0  0  0  0  0
  -23.5559  -30.2362   25.8030 O   0  0  0  0  0  0  0  0  0  0  0  0
  -28.2948  -30.2601   26.0537 O   0  0  0  0  0  0  0  0  0  0  0  0
  -31.7568  -14.8235   19.8460 O   0  0  0  0  0  0  0  0  0  0  0  0
  -32.8000  -21.3705   17.8893 O   0  0  0  0  0  0  0  0  0  0  0  0
  -30.4846  -21.8118   16.9993 O   0  0  0  0  0  0  0  0  0  0  0  0
  -20.6939  -12.5254   24.6475 O   0  0  0  0  0  0  0  0  0  0  0  0
  -28.7936  -24.1148   23.1662 O   0  0  0  0  0  0  0  0  0  1  0  0
  -15.9921  -15.1801   23.5295 F   0  0  0  0  0  0  0  0  0  0  0  0
  -19.9536  -14.7665   26.0870 F   0  0  0  0  0  0  0  0  0  0  0  0
  -31.3591  -21.3920   18.0822 S   0  0  0  0  0  0  0  0  0  0  0  0
  1  2  1  0  0  0  0
  1  5  2  0  0  0  0
  2  6  2  0  0  0  0
  3 10  2  0  0  0  0
  3 19  1  0  0  0  0
  4 11  1  0  0  0  0
  4 19  2  0  0  0  0
  5 21  1  0  0  0  0
  6 23  1  0  0  0  0
  7 12  2  0  0  0  0
  7 22  1  0  0  0  0
  8 15  2  0  0  0  0
  8 25  1  0  0  0  0
  9 16  1  0  0  0  0
  9 25  2  0  0  0  0
 10 26  1  0  0  0  0
 11 26  2  0  0  0  0
 12 27  1  0  0  0  0
 13 14  2  0  0  0  0
 13 28  1  0  0  0  0
 14 29  1  0  0  0  0
 15 31  1  0  0  0  0
 16 31  2  0  0  0  0
 17 24  1  0  0  0  0
 17 27  2  0  0  0  0
 18 29  2  0  0  0  0
 18 30  1  0  0  0  0
 19 32  1  0  0  0  0
 20 32  1  0  0  0  0
 20 33  2  0  0  0  0
 20 37  1  0  0  0  0
 21 23  2  0  0  0  0
 21 42  1  0  0  0  0
 22 24  2  0  0  0  0
 22 43  1  0  0  0  0
 23 53  1  0  0  0  0
 24 44  1  0  0  0  0
 25 71  1  0  0  0  0
 26 83  1  0  0  0  0
 27 84  1  0  0  0  0
 28 30  2  0  0  0  0
 28 83  1  0  0  0  0
 29 85  1  0  0  0  0
 30 86  1  0  0  0  0
 31 87  1  0  0  0  0
 32 64  2  0  0  0  0
 33 65  1  0  0  0  0
 33 69  1  0  0  0  0
 34 35  1  0  0  0  0
 34 36  2  0  0  0  0
 34 45  1  0  0  0  0
 35 66  1  0  0  0  0
 35 75  2  0  0  0  0
 36 84  1  0  0  0  0
 37 70  1  0  0  0  0
 37 76  2  0  0  0  0
 38 54  1  0  0  0  0
 38 72  1  0  0  0  0
 38 77  2  0  0  0  0
 39 61  1  0  0  0  0
 39 67  1  0  0  0  0
 39 78  2  0  0  0  0
 40 62  1  0  0  0  0
 40 73  1  0  0  0  0
 40 79  2  0  0  0  0
 41 68  1  0  0  0  0
 41 71  1  0  0  0  0
 41 80  2  0  0  0  0
 42 46  1  0  0  0  0
 43 54  1  0  0  0  0
 44 67  1  0  0  0  0
 45 50  1  0  0  0  0
 46 48  1  0  0  0  0
 47 49  1  0  0  0  0
 47 51  1  0  0  0  0
 48 53  1  0  0  0  0
 49 55  1  0  0  0  0
 50 66  1  0  0  0  0
 51 68  1  0  0  0  0
 52 55  1  0  0  0  0
 52 68  1  0  0  0  0
 53 72  1  0  0  0  0
 54 67  1  0  0  0  0
 55 65  1  0  0  0  0
 56 62  1  0  0  0  0
 57 63  1  0  0  0  0
 58 63  1  0  0  0  0
 59 63  1  0  0  0  0
 60 74  1  0  0  0  0
 61 63  1  0  0  0  0
 61 73  1  0  0  0  0
 62 74  1  0  0  0  0
 64 65  1  0  0  0  0
 66 87  1  0  0  0  0
 81 87  2  0  0  0  0
 82 87  2  0  0  0  0
M  CHG  1  74   1
M  ISO  4  36 101  41 100  71 100  84 101
M  END
> <Batch ID>
0086

> <Smiles>
CNC(C)C(=O)NC(C(=O)N1Cc2cc([101O:1][101CH:1]=C3CCN(S(=O)(=O)c4ccc([100NH:0][100C:0](=O)N5CCCC(n6nc(-c7ccc(Oc8ccc(F)cc8F)cc7)c(C(N)=O)c6N)C5)cc4)C3=O)ccc2CC1C(=O)NC1CCCc2ccccc21)C(C)(C)C

> <Shape>
0.240

> <Color>
0.085

> <Negative vol penalty>
0.000

$$$$

  -OEChem-04052300173D

 83 92  0     1  0  0  0  0  0999 V2000
  -27.3675  -37.7450   23.8656 C   0  0  0  0  0  0  0  0  0  0  0  0
  -27.9570  -36.8019   23.0298 C   0  0  0  0  0  0  0  0  0  0  0  0
  -24.1813   -9.2922   22.1889 C   0  0  0  0  0  0  0  0  0  0  0  0
  -22.9180  -11.2744   21.6302 C   0  0  0  0  0  0  0  0  0  0  0  0
  -26.4797  -37.3357   24.8597 C   0  0  0  0  0  0  0  0  0  0  0  0
  -27.6598  -35.4488   23.1884 C   0  0  0  0  0  0  0  0  0  0  0  0
  -26.9126  -29.4156   19.3992 C   0  0  0  0  0  0  0  0  0  0  0  0
  -26.2945  -19.4048   19.1182 C   0  0  0  0  0  0  0  0  0  0  0  0
  -28.5717  -19.7743   19.8357 C   0  0  0  0  0  0  0  0  0  0  0  0
  -26.5615  -18.0437   18.9714 C   0  0  0  0  0  0  0  0  0  0  0  0
  -28.8387  -18.4131   19.6889 C   0  0  0  0  0  0  0  0  0  0  0  0
  -23.3114   -9.0365   23.2488 C   0  0  0  0  0  0  0  0  0  0  0  0
  -22.0480  -11.0187   22.6901 C   0  0  0  0  0  0  0  0  0  0  0  0
  -27.3666  -28.0976   19.3719 C   0  0  0  0  0  0  0  0  0  0  0  0
  -20.2207   -7.7332   23.6758 C   0  0  0  0  0  0  0  0  0  0  0  0
  -19.7640   -6.4253   23.8385 C   0  0  0  0  0  0  0  0  0  0  0  0
  -25.7575  -27.5145   21.0718 C   0  0  0  0  0  0  0  0  0  0  0  0
  -20.7524   -6.3542   26.0419 C   0  0  0  0  0  0  0  0  0  0  0  0
  -23.9846  -10.4112   21.3796 C   0  0  0  0  0  0  0  0  0  0  0  0
  -24.7619  -10.2248   18.9571 C   0  0  0  0  0  0  0  0  0  0  0  0
  -26.1641  -35.9778   25.0243 C   0  0  0  0  0  0  0  0  0  0  0  0
  -25.8833  -29.7959   20.2723 C   0  0  0  0  0  0  0  0  0  0  0  0
  -26.7680  -35.0208   24.1865 C   0  0  0  0  0  0  0  0  0  0  0  0
  -25.2905  -28.8373   21.1065 C   0  0  0  0  0  0  0  0  0  0  0  0
  -27.2996  -20.2701   19.5503 C   0  0  0  0  0  0  0  0  0  0  0  0
  -27.8336  -17.5478   19.2568 C   0  0  0  0  0  0  0  0  0  0  0  0
  -22.2447   -9.8997   23.4994 C   0  0  0  0  0  0  0  0  0  0  0  0
  -26.7910  -27.1475   20.2103 C   0  0  0  0  0  0  0  0  0  0  0  0
  -20.9434   -8.3516   24.6961 C   0  0  0  0  0  0  0  0  0  0  0  0
  -20.0298   -5.7359   25.0215 C   0  0  0  0  0  0  0  0  0  0  0  0
  -21.2091   -7.6621   25.8792 C   0  0  0  0  0  0  0  0  0  0  0  0
  -24.8833  -10.6762   20.2849 C   0  0  0  0  0  0  0  0  0  0  0  0
  -25.8596  -10.7447   18.3159 C   0  0  0  0  0  0  0  0  0  0  0  0
  -26.6631  -23.5750   19.8063 C   0  0  0  0  0  0  0  0  0  0  0  0
  -25.9191  -22.3542   19.4940 C   0  0  0  0  0  0  0  0  0  0  0  0
  -26.3384  -24.8794   19.8614 C   0  0  0  0  0  0  0  0  0  1  0  0
  -23.7475   -9.4085   18.3568 C   0  0  0  0  0  0  0  0  0  0  0  0
  -25.6404  -31.8305   22.7024 C   0  0  0  0  0  0  0  0  0  0  0  0
  -22.5040  -31.0140   22.5646 C   0  0  0  0  0  0  0  0  0  0  0  0
  -20.1433  -28.7267   21.6470 C   0  0  0  0  0  0  0  0  0  0  0  0
  -29.3128  -15.5107   19.3485 C   0  0  0  0  0  0  0  0  0  0  0  0
  -25.2352  -35.5790   26.1436 C   0  0  0  0  0  0  0  0  0  0  0  0
  -25.3867  -31.2157   20.2705 C   0  0  0  0  0  0  0  0  0  0  0  0
  -24.1687  -29.1900   22.0476 C   0  0  0  0  0  0  0  0  0  0  0  0
  -27.8996  -22.7333   20.0236 C   0  0  0  0  0  0  0  0  0  0  0  0
  -24.6852  -34.1619   26.0029 C   0  0  0  0  0  0  0  0  0  0  0  0
  -30.3734  -12.1185   19.1363 C   0  0  0  0  0  0  0  0  0  0  0  0
  -25.8053  -33.1867   25.6545 C   0  0  0  0  0  0  0  0  0  0  0  0
  -29.0741  -11.3227   19.2798 C   0  0  0  0  0  0  0  0  0  0  0  0
  -30.3747  -13.3661   20.0178 C   0  0  0  0  0  0  0  0  0  0  0  0
  -27.9128  -13.4513   19.9922 C   0  0  0  0  0  0  0  0  0  0  0  0
  -26.4518  -33.5462   24.3113 C   0  0  1  0  0  0  0  0  0  0  0  0
  -24.6826  -31.6040   21.5670 C   0  0  1  0  0  0  0  0  0  0  0  0
  -27.8380  -12.2202   19.0743 C   0  0  2  0  0  0  0  0  0  0  0  0
  -17.6672  -28.3223   21.6989 C   0  0  0  0  0  0  0  0  0  0  0  0
  -22.6801  -30.3319   25.5334 C   0  0  0  0  0  0  0  0  0  0  0  0
  -20.5291  -29.0722   25.3002 C   0  0  0  0  0  0  0  0  0  0  0  0
  -20.5889  -31.5268   24.8597 C   0  0  0  0  0  0  0  0  0  0  0  0
  -19.9827  -28.6134   18.6940 C   0  0  0  0  0  0  0  0  0  0  0  0
  -21.6492  -29.9432   23.1984 C   0  0  1  0  0  0  0  0  0  0  0  0
  -18.8330  -28.8776   20.8956 C   0  0  2  0  0  0  0  0  0  0  0  0
  -21.3843  -30.2120   24.7067 C   0  0  0  0  0  0  0  0  0  0  0  0
  -25.9723  -11.4252   20.4774 N   0  0  0  0  0  0  0  0  0  0  0  0
  -26.5453  -11.4483   19.2620 N   0  0  0  0  0  0  0  0  0  0  0  0
  -27.0365  -21.6126   19.6947 N   0  0  0  0  0  0  0  0  0  0  0  0
  -23.7225  -30.5926   22.0136 N   0  0  0  0  0  0  0  0  0  0  0  0
  -29.1767  -14.1697   19.7656 N   0  0  0  0  0  0  0  0  0  0  0  0
  -26.2957  -10.6641   17.0409 N   0  0  0  0  0  0  0  0  0  0  0  0
  -22.6896   -8.9596   19.1591 N   0  0  0  0  0  0  0  0  0  0  0  0
  -28.1052  -16.1651   19.1078 N   0  0  0  0  0  0  0  0  0  0  0  0
  -25.6125  -33.1135   23.2146 N   0  0  0  0  0  0  0  0  0  0  0  0
  -20.4406  -29.8519   22.3864 N   0  0  0  0  0  0  0  0  0  0  0  0
  -18.8952  -28.1526   19.5950 N   0  3  0  0  0  0  0  0  0  0  0  0
  -24.7764  -22.1020   19.1729 O   0  0  0  0  0  0  0  0  0  0  0  0
  -23.7869   -9.0732   17.1487 O   0  0  0  0  0  0  0  0  0  0  0  0
  -26.3510  -30.9089   23.0863 O   0  0  0  0  0  0  0  0  0  0  0  0
  -22.1021  -32.1802   22.5523 O   0  0  0  0  0  0  0  0  0  0  0  0
  -20.8322  -27.7106   21.5873 O   0  0  0  0  0  0  0  0  0  0  0  0
  -30.4198  -16.0313   19.1885 O   0  0  0  0  0  0  0  0  0  0  0  0
  -21.3955   -9.6504   24.5334 O   0  0  0  0  0  0  0  0  0  0  0  0
  -27.2327  -25.8606   20.1862 O   0  0  0  0  0  0  0  0  0  1  0  0
  -19.5898   -4.4805   25.1782 F   0  0  0  0  0  0  0  0  0  0  0  0
  -21.9018   -8.2514   26.8635 F   0  0  0  0  0  0  0  0  0  0  0  0
  1  2  1  0  0  0  0
  1  5  2  0  0  0  0
  2  6  2  0  0  0  0
  3 12  2  0  0  0  0
  3 19  1  0  0  0  0
  4 13  1  0  0  0  0
  4 19  2  0  0  0  0
  5 21  1  0  0  0  0
  6 23  1  0  0  0  0
  7 14  2  0  0  0  0
  7 22  1  0  0  0  0
  8 10  2  0  0  0  0
  8 25  1  0  0  0  0
  9 11  1  0  0  0  0
  9 25  2  0  0  0  0
 10 26  1  0  0  0  0
 11 26  2  0  0  0  0
 12 27  1  0  0  0  0
 13 27  2  0  0  0  0
 14 28  1  0  0  0  0
 15 16  2  0  0  0  0
 15 29  1  0  0  0  0
 16 30  1  0  0  0  0
 17 24  1  0  0  0  0
 17 28  2  0  0  0  0
 18 30  2  0  0  0  0
 18 31  1  0  0  0  0
 19 32  1  0  0  0  0
 20 32  1  0  0  0  0
 20 33  2  0  0  0  0
 20 37  1  0  0  0  0
 21 23  2  0  0  0  0
 21 42  1  0  0  0  0
 22 24  2  0  0  0  0
 22 43  1  0  0  0  0
 23 52  1  0  0  0  0
 24 44  1  0  0  0  0
 25 65  1  0  0  0  0
 26 70  1  0  0  0  0
 27 80  1  0  0  0  0
 28 81  1  0  0  0  0
 29 31  2  0  0  0  0
 29 80  1  0  0  0  0
 30 82  1  0  0  0  0
 31 83  1  0  0  0  0
 32 63  2  0  0  0  0
 33 64  1  0  0  0  0
 33 68  1  0  0  0  0
 34 35  1  0  0  0  0
 34 36  2  0  0  0  0
 34 45  1  0  0  0  0
 35 65  1  0  0  0  0
 35 74  2  0  0  0  0
 36 81  1  0  0  0  0
 37 69  1  0  0  0  0
 37 75  2  0  0  0  0
 38 53  1  0  0  0  0
 38 71  1  0  0  0  0
 38 76  2  0  0  0  0
 39 60  1  0  0  0  0
 39 66  1  0  0  0  0
 39 77  2  0  0  0  0
 40 61  1  0  0  0  0
 40 72  1  0  0  0  0
 40 78  2  0  0  0  0
 41 67  1  0  0  0  0
 41 70  1  0  0  0  0
 41 79  2  0  0  0  0
 42 46  1  0  0  0  0
 43 53  1  0  0  0  0
 44 66  1  0  0  0  0
 45 65  1  0  0  0  0
 46 48  1  0  0  0  0
 47 49  1  0  0  0  0
 47 50  1  0  0  0  0
 48 52  1  0  0  0  0
 49 54  1  0  0  0  0
 50 67  1  0  0  0  0
 51 54  1  0  0  0  0
 51 67  1  0  0  0  0
 52 71  1  0  0  0  0
 53 66  1  0  0  0  0
 54 64  1  0  0  0  0
 55 61  1  0  0  0  0
 56 62  1  0  0  0  0
 57 62  1  0  0  0  0
 58 62  1  0  0  0  0
 59 73  1  0  0  0  0
 60 62  1  0  0  0  0
 60 72  1  0  0  0  0
 61 73  1  0  0  0  0
 63 64  1  0  0  0  0
M  CHG  1  73   1
M  ISO  4  36 101  41 100  70 100  81 101
M  END
> <Batch ID>
0086

> <Smiles>
CNC(C)C(=O)NC(C(=O)N1Cc2cc([101O:1][101CH:1]=C3CN(c4ccc([100NH:0][100C:0](=O)N5CCCC(n6nc(-c7ccc(Oc8ccc(F)cc8F)cc7)c(C(N)=O)c6N)C5)cc4)C3=O)ccc2CC1C(=O)NC1CCCc2ccccc21)C(C)(C)C

> <Shape>
0.292

> <Color>
0.088

> <Negative vol penalty>
0.000

$$$$

  -OEChem-04052300173D

 85 94  0     1  0  0  0  0  0999 V2000
  -33.9897  -34.5431   20.0327 C   0  0  0  0  0  0  0  0  0  0  0  0
  -33.4960  -33.2510   20.1815 C   0  0  0  0  0  0  0  0  0  0  0  0
  -24.3823   -8.6436   21.3860 C   0  0  0  0  0  0  0  0  0  0  0  0
  -24.4428  -10.2174   23.2181 C   0  0  0  0  0  0  0  0  0  0  0  0
  -33.5497  -35.5582   20.8811 C   0  0  0  0  0  0  0  0  0  0  0  0
  -32.5628  -32.9730   21.1796 C   0  0  0  0  0  0  0  0  0  0  0  0
  -28.7395  -30.0976   19.5184 C   0  0  0  0  0  0  0  0  0  0  0  0
  -24.0849   -7.6147   22.2795 C   0  0  0  0  0  0  0  0  0  0  0  0
  -24.1454   -9.1885   24.1117 C   0  0  0  0  0  0  0  0  0  0  0  0
  -28.9843  -28.7324   19.3771 C   0  0  0  0  0  0  0  0  0  0  0  0
  -21.3751   -6.4677   23.9452 C   0  0  0  0  0  0  0  0  0  0  0  0
  -20.3607   -5.5771   23.5940 C   0  0  0  0  0  0  0  0  0  0  0  0
  -27.8872  -28.3236   21.4863 C   0  0  0  0  0  0  0  0  0  0  0  0
  -26.7296  -20.2695   19.5817 C   0  0  0  0  0  0  0  0  0  0  0  0
  -29.1694  -18.9304   19.3892 C   0  0  0  0  0  0  0  0  0  0  0  0
  -21.9359   -3.7475   23.6832 C   0  0  0  0  0  0  0  0  0  0  0  0
  -24.5613   -9.9450   21.8552 C   0  0  0  0  0  0  0  0  0  0  0  0
  -23.9549  -11.8350   20.2529 C   0  0  0  0  0  0  0  0  0  0  0  0
  -32.6034  -35.2946   21.8839 C   0  0  0  0  0  0  0  0  0  0  0  0
  -28.0753  -30.5881   20.6518 C   0  0  0  0  0  0  0  0  0  0  0  0
  -32.1107  -33.9853   22.0431 C   0  0  0  0  0  0  0  0  0  0  0  0
  -27.6330  -29.6952   21.6383 C   0  0  0  0  0  0  0  0  0  0  0  0
  -27.9254  -20.9805   19.6830 C   0  0  0  0  0  0  0  0  0  0  0  0
  -26.7538  -18.8889   19.3842 C   0  0  0  0  0  0  0  0  0  0  0  0
  -27.9736  -18.2193   19.2880 C   0  0  0  0  0  0  0  0  0  0  0  0
  -23.9664   -7.8871   23.6424 C   0  0  0  0  0  0  0  0  0  0  0  0
  -28.5607  -27.8455   20.3625 C   0  0  0  0  0  0  0  0  0  0  0  0
  -22.6701   -5.9981   24.1653 C   0  0  0  0  0  0  0  0  0  0  0  0
  -20.6410   -4.2170   23.4631 C   0  0  0  0  0  0  0  0  0  0  0  0
  -29.1452  -20.3110   19.5868 C   0  0  0  0  0  0  0  0  0  0  0  0
  -22.9504   -4.6380   24.0344 C   0  0  0  0  0  0  0  0  0  0  0  0
  -24.8691  -11.0081   20.9327 C   0  0  0  0  0  0  0  0  0  0  0  0
  -24.7426  -12.6761   19.5055 C   0  0  0  0  0  0  0  0  0  0  0  0
  -27.8418  -24.3329   20.0675 C   0  0  0  0  0  0  0  0  0  0  0  0
  -26.8822  -23.2296   20.0080 C   0  0  0  0  0  0  0  0  0  0  0  0
  -27.7257  -25.6669   20.1971 C   0  0  0  0  0  0  0  0  0  1  0  0
  -22.5217  -11.8423   20.2934 C   0  0  0  0  0  0  0  0  0  0  0  0
  -28.8370  -32.5737   23.0142 C   0  0  0  0  0  0  0  0  0  0  0  0
  -25.7205  -32.1831   23.8249 C   0  0  0  0  0  0  0  0  0  0  0  0
  -22.9099  -30.2525   23.6828 C   0  0  0  0  0  0  0  0  0  0  0  0
  -29.1628  -16.0204   18.9765 C   0  0  0  0  0  0  0  0  0  0  0  0
  -32.1933  -36.4143   22.8074 C   0  0  0  0  0  0  0  0  0  0  0  0
  -27.7953  -32.0607   20.7764 C   0  0  0  0  0  0  0  0  0  0  0  0
  -26.8977  -30.1689   22.8645 C   0  0  0  0  0  0  0  0  0  0  0  0
  -28.9628  -23.3297   19.9206 C   0  0  0  0  0  0  0  0  0  0  0  0
  -30.9221  -36.1167   23.5984 C   0  0  0  0  0  0  0  0  0  0  0  0
  -29.7054  -12.5313   18.5198 C   0  0  0  0  0  0  0  0  0  0  0  0
  -30.9815  -34.7149   24.1968 C   0  0  0  0  0  0  0  0  0  0  0  0
  -28.4203  -11.8920   19.0509 C   0  0  0  0  0  0  0  0  0  0  0  0
  -30.1124  -13.7532   19.3413 C   0  0  0  0  0  0  0  0  0  0  0  0
  -27.7790  -14.1291   20.0364 C   0  0  0  0  0  0  0  0  0  0  0  0
  -31.0789  -33.6497   23.0980 C   0  0  1  0  0  0  0  0  0  0  0  0
  -27.5649  -32.5053   22.2175 C   0  0  1  0  0  0  0  0  0  0  0  0
  -27.2936  -12.9329   19.2015 C   0  0  2  0  0  0  0  0  0  0  0  0
  -20.5292  -30.1780   24.4728 C   0  0  0  0  0  0  0  0  0  0  0  0
  -26.6740  -31.4075   26.6177 C   0  0  0  0  0  0  0  0  0  0  0  0
  -24.4019  -30.4497   27.0516 C   0  0  0  0  0  0  0  0  0  0  0  0
  -24.6569  -32.8854   26.5770 C   0  0  0  0  0  0  0  0  0  0  0  0
  -21.8692  -30.2375   20.9123 C   0  0  0  0  0  0  0  0  0  0  0  0
  -24.9561  -31.2188   24.6995 C   0  0  1  0  0  0  0  0  0  0  0  0
  -21.4685  -30.5947   23.3517 C   0  0  2  0  0  0  0  0  0  0  0  0
  -25.1878  -31.4813   26.2144 C   0  0  0  0  0  0  0  0  0  0  0  0
  -26.1404  -11.2975   20.6427 N   0  0  0  0  0  0  0  0  0  0  0  0
  -26.0306  -12.3156   19.7724 N   0  0  0  0  0  0  0  0  0  0  0  0
  -27.8991  -22.3418   19.8791 N   0  0  0  0  0  0  0  0  0  0  0  0
  -26.6535  -31.6186   22.9436 N   0  0  0  0  0  0  0  0  0  0  0  0
  -28.9969  -14.6973   19.4376 N   0  0  0  0  0  0  0  0  0  0  0  0
  -25.5308  -18.1884   19.2838 N   0  0  0  0  0  0  0  0  0  0  0  0
  -24.4522  -13.6813   18.6525 N   0  0  0  0  0  0  0  0  0  0  0  0
  -21.8718  -10.9105   21.1143 N   0  0  0  0  0  0  0  0  0  0  0  0
  -28.0240  -16.8173   19.0891 N   0  0  0  0  0  0  0  0  0  0  0  0
  -29.7842  -33.4319   22.4891 N   0  0  0  0  0  0  0  0  0  0  0  0
  -23.5606  -31.3091   24.2840 N   0  0  0  0  0  0  0  0  0  0  0  0
  -21.0455  -29.9016   22.1021 N   0  3  0  0  0  0  0  0  0  0  0  0
  -25.6726  -23.1391   20.0440 O   0  0  0  0  0  0  0  0  0  0  0  0
  -21.8373  -12.6403   19.6091 O   0  0  0  0  0  0  0  0  0  0  0  0
  -28.9502  -31.8991   24.0309 O   0  0  0  0  0  0  0  0  0  0  0  0
  -25.4929  -33.3921   23.9152 O   0  0  0  0  0  0  0  0  0  0  0  0
  -23.4077  -29.1561   23.4364 O   0  0  0  0  0  0  0  0  0  0  0  0
  -30.2279  -16.4096   18.4907 O   0  0  0  0  0  0  0  0  0  0  0  0
  -23.6760   -6.8834   24.5146 O   0  0  0  0  0  0  0  0  0  0  0  0
  -28.7989  -26.5125   20.2275 O   0  0  0  0  0  0  0  0  0  1  0  0
  -19.6664   -3.3617   23.1274 F   0  0  0  0  0  0  0  0  0  0  0  0
  -30.3007  -20.9842   19.6821 F   0  0  0  0  0  0  0  0  0  0  0  0
  -24.1923   -4.1809   24.2457 F   0  0  0  0  0  0  0  0  0  0  0  0
  1  2  1  0  0  0  0
  1  5  2  0  0  0  0
  2  6  2  0  0  0  0
  3  8  2  0  0  0  0
  3 17  1  0  0  0  0
  4  9  1  0  0  0  0
  4 17  2  0  0  0  0
  5 19  1  0  0  0  0
  6 21  1  0  0  0  0
  7 10  2  0  0  0  0
  7 20  1  0  0  0  0
  8 26  1  0  0  0  0
  9 26  2  0  0  0  0
 10 27  1  0  0  0  0
 11 12  2  0  0  0  0
 11 28  1  0  0  0  0
 12 29  1  0  0  0  0
 13 22  1  0  0  0  0
 13 27  2  0  0  0  0
 14 23  1  0  0  0  0
 14 24  2  0  0  0  0
 15 25  2  0  0  0  0
 15 30  1  0  0  0  0
 16 29  2  0  0  0  0
 16 31  1  0  0  0  0
 17 32  1  0  0  0  0
 18 32  1  0  0  0  0
 18 33  2  0  0  0  0
 18 37  1  0  0  0  0
 19 21  2  0  0  0  0
 19 42  1  0  0  0  0
 20 22  2  0  0  0  0
 20 43  1  0  0  0  0
 21 52  1  0  0  0  0
 22 44  1  0  0  0  0
 23 30  2  0  0  0  0
 23 65  1  0  0  0  0
 24 25  1  0  0  0  0
 24 68  1  0  0  0  0
 25 71  1  0  0  0  0
 26 81  1  0  0  0  0
 27 82  1  0  0  0  0
 28 31  2  0  0  0  0
 28 81  1  0  0  0  0
 29 83  1  0  0  0  0
 30 84  1  0  0  0  0
 31 85  1  0  0  0  0
 32 63  2  0  0  0  0
 33 64  1  0  0  0  0
 33 69  1  0  0  0  0
 34 35  1  0  0  0  0
 34 36  2  0  0  0  0
 34 45  1  0  0  0  0
 35 65  1  0  0  0  0
 35 75  2  0  0  0  0
 36 82  1  0  0  0  0
 37 70  1  0  0  0  0
 37 76  2  0  0  0  0
 38 53  1  0  0  0  0
 38 72  1  0  0  0  0
 38 77  2  0  0  0  0
 39 60  1  0  0  0  0
 39 66  1  0  0  0  0
 39 78  2  0  0  0  0
 40 61  1  0  0  0  0
 40 73  1  0  0  0  0
 40 79  2  0  0  0  0
 41 67  1  0  0  0  0
 41 71  1  0  0  0  0
 41 80  2  0  0  0  0
 42 46  1  0  0  0  0
 43 53  1  0  0  0  0
 44 66  1  0  0  0  0
 45 65  1  0  0  0  0
 46 48  1  0  0  0  0
 47 49  1  0  0  0  0
 47 50  1  0  0  0  0
 48 52  1  0  0  0  0
 49 54  1  0  0  0  0
 50 67  1  0  0  0  0
 51 54  1  0  0  0  0
 51 67  1  0  0  0  0
 52 72  1  0  0  0  0
 53 66  1  0  0  0  0
 54 64  1  0  0  0  0
 55 61  1  0  0  0  0
 56 62  1  0  0  0  0
 57 62  1  0  0  0  0
 58 62  1  0  0  0  0
 59 74  1  0  0  0  0
 60 62  1  0  0  0  0
 60 73  1  0  0  0  0
 61 74  1  0  0  0  0
 63 64  1  0  0  0  0
M  CHG  1  74   1
M  ISO  4  36 101  41 100  71 100  82 101
M  END
> <Batch ID>
0086

> <Smiles>
CNC(C)C(=O)NC(C(=O)N1Cc2cc([101O:1][101CH:1]=C3CN(c4cc(N)c([100NH:0][100C:0](=O)N5CCCC(n6nc(-c7ccc(Oc8ccc(F)cc8F)cc7)c(C(N)=O)c6N)C5)cc4F)C3=O)ccc2CC1C(=O)NC1CCCc2ccccc21)C(C)(C)C

> <Shape>
0.285

> <Color>
0.097

> <Negative vol penalty>
0.000

$$$$

  -OEChem-04052300173D

 85 93  0     1  0  0  0  0  0999 V2000
  -16.4984  -25.5562   21.8647 C   0  0  0  0  0  0  0  0  0  0  0  0
  -17.7741  -25.0035   21.8132 C   0  0  0  0  0  0  0  0  0  0  0  0
  -33.2483  -16.9708   23.0810 C   0  0  0  0  0  0  0  0  0  0  0  0
  -22.8703  -10.1897   20.1680 C   0  0  0  0  0  0  0  0  0  0  0  0
  -23.7401  -10.1593   22.4218 C   0  0  0  0  0  0  0  0  0  0  0  0
  -32.5683  -17.9156   23.8494 C   0  0  0  0  0  0  0  0  0  0  0  0
  -16.3361  -26.9038   22.1833 C   0  0  0  0  0  0  0  0  0  0  0  0
  -18.8884  -25.7985   22.0792 C   0  0  0  0  0  0  0  0  0  0  0  0
  -22.2203  -23.5143   25.1328 C   0  0  0  0  0  0  0  0  0  0  0  0
  -32.5403  -16.1307   22.2215 C   0  0  0  0  0  0  0  0  0  0  0  0
  -22.0399   -9.1116   20.4739 C   0  0  0  0  0  0  0  0  0  0  0  0
  -22.9097   -9.0812   22.7277 C   0  0  0  0  0  0  0  0  0  0  0  0
  -23.0521  -22.5522   24.5615 C   0  0  0  0  0  0  0  0  0  0  0  0
  -19.1077   -8.6029   22.0790 C   0  0  0  0  0  0  0  0  0  0  0  0
  -17.7795   -8.6677   21.6578 C   0  0  0  0  0  0  0  0  0  0  0  0
  -30.4723  -17.1801   22.8992 C   0  0  0  0  0  0  0  0  0  0  0  0
  -24.8343  -24.1735   24.4408 C   0  0  0  0  0  0  0  0  0  0  0  0
  -18.0979   -6.6645   20.3452 C   0  0  0  0  0  0  0  0  0  0  0  0
  -23.7205  -10.7135   21.1419 C   0  0  0  0  0  0  0  0  0  0  0  0
  -31.1804  -18.0203   23.7586 C   0  0  0  0  0  0  0  0  0  0  0  0
  -24.2797  -13.1959   20.9605 C   0  0  0  0  0  0  0  0  0  0  0  0
  -17.4483  -27.7134   22.4628 C   0  0  0  0  0  0  0  0  0  0  0  0
  -22.6867  -24.8183   25.3527 C   0  0  0  0  0  0  0  0  0  0  0  0
  -18.7409  -27.1586   22.4005 C   0  0  0  0  0  0  0  0  0  0  0  0
  -24.0072  -25.1496   25.0174 C   0  0  0  0  0  0  0  0  0  0  0  0
  -31.1523  -16.2353   22.1307 C   0  0  0  0  0  0  0  0  0  0  0  0
  -22.0595   -8.5573   21.7538 C   0  0  0  0  0  0  0  0  0  0  0  0
  -24.3584  -22.8826   24.2127 C   0  0  0  0  0  0  0  0  0  0  0  0
  -19.9310   -7.5689   21.6331 C   0  0  0  0  0  0  0  0  0  0  0  0
  -17.2746   -7.6986   20.7910 C   0  0  0  0  0  0  0  0  0  0  0  0
  -19.4261   -6.5997   20.7663 C   0  0  0  0  0  0  0  0  0  0  0  0
  -24.5790  -11.8269   20.8263 C   0  0  0  0  0  0  0  0  0  0  0  0
  -25.4150  -13.8392   20.5319 C   0  0  0  0  0  0  0  0  0  0  0  0
  -26.3276  -21.6242   24.3095 C   0  0  0  0  0  0  0  0  0  1  0  0
  -30.4577  -19.0268   24.5774 C   0  0  0  0  0  0  0  0  0  0  0  0
  -23.0824  -13.8294   21.4306 C   0  0  0  0  0  0  0  0  0  0  0  0
  -27.2001  -20.7182   23.8522 C   0  0  0  0  0  0  0  0  0  0  0  0
  -28.4359  -20.4400   24.6463 C   0  0  0  0  0  0  0  0  0  0  0  0
  -21.8632  -27.7024   24.3001 C   0  0  0  0  0  0  0  0  0  0  0  0
  -24.0757  -28.6929   26.4555 C   0  0  0  0  0  0  0  0  0  0  0  0
  -26.8628  -27.9694   28.2873 C   0  0  0  0  0  0  0  0  0  0  0  0
  -30.9545  -14.3915   20.4255 C   0  0  0  0  0  0  0  0  0  0  0  0
  -17.2262  -29.1760   22.7561 C   0  0  0  0  0  0  0  0  0  0  0  0
  -21.7853  -25.8372   25.9945 C   0  0  0  0  0  0  0  0  0  0  0  0
  -24.5625  -26.5299   25.2515 C   0  0  0  0  0  0  0  0  0  0  0  0
  -18.4339  -29.8601   23.3915 C   0  0  0  0  0  0  0  0  0  0  0  0
  -29.5139  -12.0558   18.1569 C   0  0  0  0  0  0  0  0  0  0  0  0
  -19.7110  -29.4922   22.6429 C   0  0  0  0  0  0  0  0  0  0  0  0
  -28.0769  -11.9007   18.6602 C   0  0  0  0  0  0  0  0  0  0  0  0
  -30.5039  -12.2177   19.3090 C   0  0  0  0  0  0  0  0  0  0  0  0
  -28.7397  -13.1292   20.7670 C   0  0  0  0  0  0  0  0  0  0  0  0
  -19.9726  -27.9826   22.7070 C   0  0  1  0  0  0  0  0  0  0  0  0
  -22.2031  -27.2746   25.6998 C   0  0  1  0  0  0  0  0  0  0  0  0
  -27.6983  -13.0282   19.6405 C   0  0  2  0  0  0  0  0  0  0  0  0
  -28.4612  -28.9921   29.9294 C   0  0  0  0  0  0  0  0  0  0  0  0
  -25.4014  -30.2505   24.1914 C   0  0  0  0  0  0  0  0  0  0  0  0
  -27.4466  -30.4523   25.6213 C   0  0  0  0  0  0  0  0  0  0  0  0
  -25.2960  -31.4682   26.3732 C   0  0  0  0  0  0  0  0  0  0  0  0
  -26.1794  -25.9793   30.3686 C   0  0  0  0  0  0  0  0  0  0  0  0
  -25.5620  -28.9544   26.4186 C   0  0  1  0  0  0  0  0  0  0  0  0
  -27.1865  -28.1812   29.7552 C   0  0  2  0  0  0  0  0  0  0  0  0
  -25.9157  -30.2558   25.6448 C   0  0  0  0  0  0  0  0  0  0  0  0
  -25.8081  -11.6121   20.3496 N   0  0  0  0  0  0  0  0  0  0  0  0
  -26.2911  -12.8547   20.1804 N   0  0  0  0  0  0  0  0  0  0  0  0
  -23.6403  -27.4928   25.8758 N   0  0  0  0  0  0  0  0  0  0  0  0
  -30.0831  -13.3063   20.1936 N   0  0  0  0  0  0  0  0  0  0  0  0
  -25.7394  -15.1453   20.4251 N   0  0  0  0  0  0  0  0  0  0  0  0
  -22.0114  -13.0195   21.8322 N   0  0  0  0  0  0  0  0  0  0  0  0
  -30.4334  -15.3819   21.2574 N   0  0  0  0  0  0  0  0  0  0  0  0
  -29.2484  -19.4776   24.0501 N   0  0  0  0  0  0  0  0  0  0  0  0
  -20.5176  -27.6185   23.9973 N   0  0  0  0  0  0  0  0  0  0  0  0
  -26.0132  -28.9428   27.8059 N   0  0  0  0  0  0  0  0  0  0  0  0
  -27.3661  -26.8701   30.4405 N   0  3  0  0  0  0  0  0  0  0  0  0
  -30.9609  -19.4158   25.6279 O   0  0  0  0  0  0  0  0  0  0  0  0
  -22.9599  -15.0770   21.4772 O   0  0  0  0  0  0  0  0  0  0  0  0
  -28.6740  -21.0139   25.7051 O   0  0  0  0  0  0  0  0  0  0  0  0
  -22.7555  -28.0819   23.5508 O   0  0  0  0  0  0  0  0  0  0  0  0
  -23.3292  -29.5195   26.9858 O   0  0  0  0  0  0  0  0  0  0  0  0
  -27.3210  -27.0359   27.6321 O   0  0  0  0  0  0  0  0  0  0  0  0
  -32.0697  -14.4517   19.9013 O   0  0  0  0  0  0  0  0  0  0  0  0
  -27.0071  -20.0267   22.6741 O   0  0  0  0  0  0  0  0  0  0  0  0
  -21.2492   -7.5054   22.0527 O   0  0  0  0  0  0  0  0  0  0  0  0
  -25.1722  -21.9456   23.6543 O   0  0  0  0  0  0  0  0  0  1  0  0
  -15.9987   -7.7601   20.3879 F   0  0  0  0  0  0  0  0  0  0  0  0
  -20.2119   -5.6033   20.3356 F   0  0  0  0  0  0  0  0  0  0  0  0
  1  2  1  0  0  0  0
  1  7  2  0  0  0  0
  2  8  2  0  0  0  0
  3  6  2  0  0  0  0
  3 10  1  0  0  0  0
  4 11  2  0  0  0  0
  4 19  1  0  0  0  0
  5 12  1  0  0  0  0
  5 19  2  0  0  0  0
  6 20  1  0  0  0  0
  7 22  1  0  0  0  0
  8 24  1  0  0  0  0
  9 13  2  0  0  0  0
  9 23  1  0  0  0  0
 10 26  2  0  0  0  0
 11 27  1  0  0  0  0
 12 27  2  0  0  0  0
 13 28  1  0  0  0  0
 14 15  2  0  0  0  0
 14 29  1  0  0  0  0
 15 30  1  0  0  0  0
 16 20  2  0  0  0  0
 16 26  1  0  0  0  0
 17 25  1  0  0  0  0
 17 28  2  0  0  0  0
 18 30  2  0  0  0  0
 18 31  1  0  0  0  0
 19 32  1  0  0  0  0
 20 35  1  0  0  0  0
 21 32  1  0  0  0  0
 21 33  2  0  0  0  0
 21 36  1  0  0  0  0
 22 24  2  0  0  0  0
 22 43  1  0  0  0  0
 23 25  2  0  0  0  0
 23 44  1  0  0  0  0
 24 52  1  0  0  0  0
 25 45  1  0  0  0  0
 26 69  1  0  0  0  0
 27 82  1  0  0  0  0
 28 83  1  0  0  0  0
 29 31  2  0  0  0  0
 29 82  1  0  0  0  0
 30 84  1  0  0  0  0
 31 85  1  0  0  0  0
 32 63  2  0  0  0  0
 33 64  1  0  0  0  0
 33 67  1  0  0  0  0
 34 37  2  0  0  0  0
 34 83  1  0  0  0  0
 35 70  1  0  0  0  0
 35 74  2  0  0  0  0
 36 68  1  0  0  0  0
 36 75  2  0  0  0  0
 37 38  1  0  0  0  0
 37 81  1  0  0  0  0
 38 70  1  0  0  0  0
 38 76  2  0  0  0  0
 39 53  1  0  0  0  0
 39 71  1  0  0  0  0
 39 77  2  0  0  0  0
 40 60  1  0  0  0  0
 40 65  1  0  0  0  0
 40 78  2  0  0  0  0
 41 61  1  0  0  0  0
 41 72  1  0  0  0  0
 41 79  2  0  0  0  0
 42 66  1  0  0  0  0
 42 69  1  0  0  0  0
 42 80  2  0  0  0  0
 43 46  1  0  0  0  0
 44 53  1  0  0  0  0
 45 65  1  0  0  0  0
 46 48  1  0  0  0  0
 47 49  1  0  0  0  0
 47 50  1  0  0  0  0
 48 52  1  0  0  0  0
 49 54  1  0  0  0  0
 50 66  1  0  0  0  0
 51 54  1  0  0  0  0
 51 66  1  0  0  0  0
 52 71  1  0  0  0  0
 53 65  1  0  0  0  0
 54 64  1  0  0  0  0
 55 61  1  0  0  0  0
 56 62  1  0  0  0  0
 57 62  1  0  0  0  0
 58 62  1  0  0  0  0
 59 73  1  0  0  0  0
 60 62  1  0  0  0  0
 60 72  1  0  0  0  0
 61 73  1  0  0  0  0
 63 64  1  0  0  0  0
M  CHG  1  73   1
M  ISO  4  34 101  42 100  69 100  83 101
M  END
> <Batch ID>
0086

> <Smiles>
CNC(C)C(=O)NC(C(=O)N1Cc2cc([101O:1][101CH2:1]C(=O)C(=O)NC(=O)c3cccc([100NH:0][100C:0](=O)N4CCCC(n5nc(-c6ccc(Oc7ccc(F)cc7F)cc6)c(C(N)=O)c5N)C4)c3)ccc2CC1C(=O)NC1CCCc2ccccc21)C(C)(C)C

> <Shape>
0.239

> <Color>
0.183

> <Negative vol penalty>
0.000

$$$$

  -OEChem-04052300173D

 89 98  0     1  0  0  0  0  0999 V2000
  -37.1204  -16.9118   23.8216 C   0  0  0  0  0  0  0  0  0  0  0  0
  -36.0932  -17.6266   23.2139 C   0  0  0  0  0  0  0  0  0  0  0  0
  -17.8406  -22.4466   24.7607 C   0  0  0  0  0  0  0  0  0  0  0  0
  -19.6696  -23.0520   23.3028 C   0  0  0  0  0  0  0  0  0  0  0  0
  -25.1446  -26.5600   20.2214 C   0  0  0  0  0  0  0  0  0  0  0  0
  -27.0383  -28.0312   20.5149 C   0  0  0  0  0  0  0  0  0  0  0  0
  -37.2490  -15.5434   23.5877 C   0  0  0  0  0  0  0  0  0  0  0  0
  -35.1945  -16.9735   22.3711 C   0  0  0  0  0  0  0  0  0  0  0  0
  -30.3883  -18.3054   23.2492 C   0  0  0  0  0  0  0  0  0  0  0  0
  -26.0056  -25.5236   19.8606 C   0  0  0  0  0  0  0  0  0  0  0  0
  -27.8994  -26.9949   20.1542 C   0  0  0  0  0  0  0  0  0  0  0  0
  -18.5461  -21.3176   25.1769 C   0  0  0  0  0  0  0  0  0  0  0  0
  -20.3751  -21.9230   23.7190 C   0  0  0  0  0  0  0  0  0  0  0  0
  -29.9641  -19.5317   22.7394 C   0  0  0  0  0  0  0  0  0  0  0  0
  -20.3695  -18.6040   23.0746 C   0  0  0  0  0  0  0  0  0  0  0  0
  -20.9957  -17.8336   22.0950 C   0  0  0  0  0  0  0  0  0  0  0  0
  -28.9217  -18.3935   20.8854 C   0  0  0  0  0  0  0  0  0  0  0  0
  -23.1339  -18.2354   23.1457 C   0  0  0  0  0  0  0  0  0  0  0  0
  -18.4023  -23.3138   23.8236 C   0  0  0  0  0  0  0  0  0  0  0  0
  -25.6609  -27.8138   20.5485 C   0  0  0  0  0  0  0  0  0  0  0  0
  -16.4175  -24.5111   22.7585 C   0  0  0  0  0  0  0  0  0  0  0  0
  -36.3457  -14.8713   22.7492 C   0  0  0  0  0  0  0  0  0  0  0  0
  -30.0913  -17.1128   22.5741 C   0  0  0  0  0  0  0  0  0  0  0  0
  -35.3120  -15.5951   22.1247 C   0  0  0  0  0  0  0  0  0  0  0  0
  -29.3411  -17.1531   21.3902 C   0  0  0  0  0  0  0  0  0  0  0  0
  -27.3830  -25.7410   19.8271 C   0  0  0  0  0  0  0  0  0  0  0  0
  -19.8133  -21.0558   24.6561 C   0  0  0  0  0  0  0  0  0  0  0  0
  -29.2332  -19.5761   21.5558 C   0  0  0  0  0  0  0  0  0  0  0  0
  -21.1254  -19.1903   24.0898 C   0  0  0  0  0  0  0  0  0  0  0  0
  -22.3779  -17.6492   22.1305 C   0  0  0  0  0  0  0  0  0  0  0  0
  -22.5076  -19.0060   24.1254 C   0  0  0  0  0  0  0  0  0  0  0  0
  -17.6738  -24.4799   23.3928 C   0  0  0  0  0  0  0  0  0  0  0  0
  -16.1666  -25.8467   22.5591 C   0  0  0  0  0  0  0  0  0  0  0  0
  -29.8791  -22.6339   18.3472 C   0  0  0  0  0  0  0  0  0  0  0  0
  -28.9091  -22.2896   19.2040 C   0  0  0  0  0  0  0  0  0  0  0  0
  -27.9500  -23.3254   19.7185 C   0  0  0  0  0  0  0  0  0  0  0  0
  -24.7520  -28.9091   20.9307 C   0  0  0  0  0  0  0  0  0  0  0  0
  -23.4946  -28.7385   21.3645 C   0  0  0  0  0  0  0  0  0  0  0  0
  -15.5544  -23.4295   22.3831 C   0  0  0  0  0  0  0  0  0  0  0  0
  -22.6680  -29.9242   21.7324 C   0  0  0  0  0  0  0  0  0  0  0  0
  -31.8166  -14.8143   21.2161 C   0  0  0  0  0  0  0  0  0  0  0  0
  -28.9246  -13.3876   20.8654 C   0  0  0  0  0  0  0  0  0  0  0  0
  -25.5363  -13.7249   20.6363 C   0  0  0  0  0  0  0  0  0  0  0  0
  -20.3920  -30.4464   22.5631 C   0  0  0  0  0  0  0  0  0  0  0  0
  -36.5534  -13.4003   22.4891 C   0  0  0  0  0  0  0  0  0  0  0  0
  -30.5332  -15.7960   23.1514 C   0  0  0  0  0  0  0  0  0  0  0  0
  -28.9786  -15.8997   20.6379 C   0  0  0  0  0  0  0  0  0  0  0  0
  -30.1231  -24.0365   17.9176 C   0  0  0  0  0  0  0  0  0  0  0  0
  -35.3353  -12.7117   21.8791 C   0  0  0  0  0  0  0  0  0  0  0  0
  -17.3702  -30.0611   24.6256 C   0  0  0  0  0  0  0  0  0  0  0  0
  -34.7713  -13.5429   20.7311 C   0  0  0  0  0  0  0  0  0  0  0  0
  -16.8429  -28.6527   24.3447 C   0  0  0  0  0  0  0  0  0  0  0  0
  -29.6094  -25.0203   18.9564 C   0  0  0  0  0  0  0  0  0  0  0  0
  -18.0822  -30.6789   23.4300 C   0  0  0  0  0  0  0  0  0  0  0  0
  -18.9558  -28.3813   22.9557 C   0  0  0  0  0  0  0  0  0  0  0  0
  -34.3026  -14.9174   21.2236 C   0  0  1  0  0  0  0  0  0  0  0  0
  -30.6156  -14.6845   22.1096 C   0  0  1  0  0  0  0  0  0  0  0  0
  -17.4715  -28.0097   23.0974 C   0  0  1  0  0  0  0  0  0  0  0  0
  -23.4404  -12.3829   20.3147 C   0  0  0  0  0  0  0  0  0  0  0  0
  -29.5636  -13.1058   17.8952 C   0  0  0  0  0  0  0  0  0  0  0  0
  -27.1344  -12.6582   17.4864 C   0  0  0  0  0  0  0  0  0  0  0  0
  -28.4626  -11.1076   18.9196 C   0  0  0  0  0  0  0  0  0  0  0  0
  -24.4550  -14.5692   23.2587 C   0  0  0  0  0  0  0  0  0  0  0  0
  -28.6867  -20.8724   19.6382 C   0  0  0  0  0  0  0  0  0  1  0  0
  -27.8503  -13.3952   19.8049 C   0  0  1  0  0  0  0  0  0  0  0  0
  -24.4018  -12.9884   21.3255 C   0  0  2  0  0  0  0  0  0  0  0  0
  -28.2611  -12.5906   18.5394 C   0  0  0  0  0  0  0  0  0  0  0  0
  -18.1855  -25.6988   23.5837 N   0  0  0  0  0  0  0  0  0  0  0  0
  -17.2460  -26.5085   23.0661 N   0  0  0  0  0  0  0  0  0  0  0  0
  -28.2744  -24.6683   19.4559 N   0  0  0  0  0  0  0  0  0  0  0  0
  -29.4390  -14.6372   21.2393 N   0  0  0  0  0  0  0  0  0  0  0  0
  -19.1883  -29.8348   22.9710 N   0  0  0  0  0  0  0  0  0  0  0  0
  -15.1302  -26.5078   22.0013 N   0  0  0  0  0  0  0  0  0  0  0  0
  -15.7056  -22.8653   21.1091 N   0  0  0  0  0  0  0  0  0  0  0  0
  -21.3935  -29.5516   22.1593 N   0  0  0  0  0  0  0  0  0  0  0  0
  -33.0229  -14.8060   21.8902 N   0  0  0  0  0  0  0  0  0  0  0  0
  -26.6349  -12.9124   20.4515 N   0  0  0  0  0  0  0  0  0  0  0  0
  -23.6369  -13.9196   22.2023 N   0  3  0  0  0  0  0  0  0  0  0  0
  -26.9705  -22.9372   20.3571 O   0  0  0  0  0  0  0  0  0  0  0  0
  -14.6642  -22.9877   23.1485 O   0  0  0  0  0  0  0  0  0  0  0  0
  -23.0899  -31.0729   21.6500 O   0  0  0  0  0  0  0  0  0  0  0  0
  -31.6605  -14.9132   20.0047 O   0  0  0  0  0  0  0  0  0  0  0  0
  -29.2888  -12.3130   21.3496 O   0  0  0  0  0  0  0  0  0  0  0  0
  -25.4547  -14.9021   20.2926 O   0  0  0  0  0  0  0  0  0  0  0  0
  -20.5607  -31.6692   22.5741 O   0  0  0  0  0  0  0  0  0  0  0  0
  -20.5021  -19.9543   25.0622 O   0  0  0  0  0  0  0  0  0  0  0  0
  -28.8185  -20.7718   21.0556 O   0  0  0  0  0  0  0  0  0  1  0  0
  -22.9790  -16.9080   21.1905 F   0  0  0  0  0  0  0  0  0  0  0  0
  -23.2390  -19.5657   25.0988 F   0  0  0  0  0  0  0  0  0  0  0  0
  1  2  1  0  0  0  0
  1  7  2  0  0  0  0
  2  8  2  0  0  0  0
  3 12  2  0  0  0  0
  3 19  1  0  0  0  0
  4 13  1  0  0  0  0
  4 19  2  0  0  0  0
  5 10  2  0  0  0  0
  5 20  1  0  0  0  0
  6 11  1  0  0  0  0
  6 20  2  0  0  0  0
  7 22  1  0  0  0  0
  8 24  1  0  0  0  0
  9 14  2  0  0  0  0
  9 23  1  0  0  0  0
 10 26  1  0  0  0  0
 11 26  2  0  0  0  0
 12 27  1  0  0  0  0
 13 27  2  0  0  0  0
 14 28  1  0  0  0  0
 15 16  2  0  0  0  0
 15 29  1  0  0  0  0
 16 30  1  0  0  0  0
 17 25  1  0  0  0  0
 17 28  2  0  0  0  0
 18 30  2  0  0  0  0
 18 31  1  0  0  0  0
 19 32  1  0  0  0  0
 20 37  1  0  0  0  0
 21 32  1  0  0  0  0
 21 33  2  0  0  0  0
 21 39  1  0  0  0  0
 22 24  2  0  0  0  0
 22 45  1  0  0  0  0
 23 25  2  0  0  0  0
 23 46  1  0  0  0  0
 24 56  1  0  0  0  0
 25 47  1  0  0  0  0
 26 70  1  0  0  0  0
 27 86  1  0  0  0  0
 28 87  1  0  0  0  0
 29 31  2  0  0  0  0
 29 86  1  0  0  0  0
 30 88  1  0  0  0  0
 31 89  1  0  0  0  0
 32 68  2  0  0  0  0
 33 69  1  0  0  0  0
 33 73  1  0  0  0  0
 34 35  2  0  0  0  0
 34 48  1  0  0  0  0
 35 36  1  0  0  0  0
 35 64  1  0  0  0  0
 36 70  1  0  0  0  0
 36 79  2  0  0  0  0
 37 38  2  0  0  0  0
 38 40  1  0  0  0  0
 39 74  1  0  0  0  0
 39 80  2  0  0  0  0
 40 75  1  0  0  0  0
 40 81  2  0  0  0  0
 41 57  1  0  0  0  0
 41 76  1  0  0  0  0
 41 82  2  0  0  0  0
 42 65  1  0  0  0  0
 42 71  1  0  0  0  0
 42 83  2  0  0  0  0
 43 66  1  0  0  0  0
 43 77  1  0  0  0  0
 43 84  2  0  0  0  0
 44 72  1  0  0  0  0
 44 75  1  0  0  0  0
 44 85  2  0  0  0  0
 45 49  1  0  0  0  0
 46 57  1  0  0  0  0
 47 71  1  0  0  0  0
 48 53  1  0  0  0  0
 49 51  1  0  0  0  0
 50 52  1  0  0  0  0
 50 54  1  0  0  0  0
 51 56  1  0  0  0  0
 52 58  1  0  0  0  0
 53 70  1  0  0  0  0
 54 72  1  0  0  0  0
 55 58  1  0  0  0  0
 55 72  1  0  0  0  0
 56 76  1  0  0  0  0
 57 71  1  0  0  0  0
 58 69  1  0  0  0  0
 59 66  1  0  0  0  0
 60 67  1  0  0  0  0
 61 67  1  0  0  0  0
 62 67  1  0  0  0  0
 63 78  1  0  0  0  0
 64 87  1  0  0  0  0
 65 67  1  0  0  0  0
 65 77  1  0  0  0  0
 66 78  1  0  0  0  0
 68 69  1  0  0  0  0
M  CHG  1  78   1
M  ISO  4  44 100  64 101  75 100  87 101
M  END
> <Batch ID>
0086

> <Smiles>
CNC(C)C(=O)NC(C(=O)N1Cc2cc([101O:1][101CH2:1]C3=CCCN(c4ccc(C=CC(=O)[100NH:0][100C:0](=O)N5CCCC(n6nc(-c7ccc(Oc8ccc(F)cc8F)cc7)c(C(N)=O)c6N)C5)cc4)C3=O)ccc2CC1C(=O)NC1CCCc2ccccc21)C(C)(C)C

> <Shape>
0.262

> <Color>
0.076

> <Negative vol penalty>
0.000

$$$$

  -OEChem-04052300173D

 85 94  0     1  0  0  0  0  0999 V2000
  -25.4207  -33.0502   28.4509 C   0  0  0  0  0  0  0  0  0  0  0  0
  -26.1687  -32.2329   27.6096 C   0  0  0  0  0  0  0  0  0  0  0  0
  -31.2274  -20.1542   16.5852 C   0  0  0  0  0  0  0  0  0  0  0  0
  -25.8518  -12.6999   22.2129 C   0  0  0  0  0  0  0  0  0  0  0  0
  -26.8355  -12.8919   20.0146 C   0  0  0  0  0  0  0  0  0  0  0  0
  -24.0280  -33.0158   28.3969 C   0  0  0  0  0  0  0  0  0  0  0  0
  -25.5243  -31.3798   26.7144 C   0  0  0  0  0  0  0  0  0  0  0  0
  -27.4223  -29.8130   21.1065 C   0  0  0  0  0  0  0  0  0  0  0  0
  -31.0254  -21.5329   16.5213 C   0  0  0  0  0  0  0  0  0  0  0  0
  -31.0575  -19.4797   17.7942 C   0  0  0  0  0  0  0  0  0  0  0  0
  -24.7471  -12.0505   21.6619 C   0  0  0  0  0  0  0  0  0  0  0  0
  -25.7309  -12.2424   19.4635 C   0  0  0  0  0  0  0  0  0  0  0  0
  -28.0933  -28.6907   20.6228 C   0  0  0  0  0  0  0  0  0  0  0  0
  -23.9771   -8.9500   20.5541 C   0  0  0  0  0  0  0  0  0  0  0  0
  -23.5069   -7.8078   21.2020 C   0  0  0  0  0  0  0  0  0  0  0  0
  -25.9831  -27.7116   19.9844 C   0  0  0  0  0  0  0  0  0  0  0  0
  -30.4837  -21.5625   18.8757 C   0  0  0  0  0  0  0  0  0  0  0  0
  -21.3642   -8.8753   21.5285 C   0  0  0  0  0  0  0  0  0  0  0  0
  -26.8960  -13.1206   21.3892 C   0  0  0  0  0  0  0  0  0  0  0  0
  -29.2211  -13.1993   22.4357 C   0  0  0  0  0  0  0  0  0  0  0  0
  -23.3662  -32.1689   27.4939 C   0  0  0  0  0  0  0  0  0  0  0  0
  -26.0235  -29.8884   21.0425 C   0  0  0  0  0  0  0  0  0  0  0  0
  -24.1213  -31.3330   26.6492 C   0  0  0  0  0  0  0  0  0  0  0  0
  -25.2969  -28.8371   20.4656 C   0  0  0  0  0  0  0  0  0  0  0  0
  -30.6536  -22.2370   17.6666 C   0  0  0  0  0  0  0  0  0  0  0  0
  -30.6857  -20.1838   18.9395 C   0  0  0  0  0  0  0  0  0  0  0  0
  -24.6867  -11.8217   20.2872 C   0  0  0  0  0  0  0  0  0  0  0  0
  -27.3736  -27.6385   20.0643 C   0  0  0  0  0  0  0  0  0  0  0  0
  -23.1409  -10.0549   20.3934 C   0  0  0  0  0  0  0  0  0  0  0  0
  -22.2004   -7.7704   21.6892 C   0  0  0  0  0  0  0  0  0  0  0  0
  -21.8345  -10.0175   20.8806 C   0  0  0  0  0  0  0  0  0  0  0  0
  -28.0370  -13.7920   21.9578 C   0  0  0  0  0  0  0  0  0  0  0  0
  -29.9839  -14.2564   22.8684 C   0  0  0  0  0  0  0  0  0  0  0  0
  -29.6380  -25.7063   18.0441 C   0  0  0  0  0  0  0  0  0  0  0  0
  -30.6261  -25.8380   16.9645 C   0  0  0  0  0  0  0  0  0  0  0  0
  -29.5362  -24.2874   18.4413 C   0  0  0  0  0  0  0  0  0  0  0  0
  -28.9356  -26.7170   18.5872 C   0  0  0  0  0  0  0  0  0  1  0  0
  -29.5979  -11.8168   22.4840 C   0  0  0  0  0  0  0  0  0  0  0  0
  -23.6889  -30.1146   23.1878 C   0  0  0  0  0  0  0  0  0  0  0  0
  -21.8273  -30.4441   20.5518 C   0  0  0  0  0  0  0  0  0  0  0  0
  -21.4070  -29.8785   17.2126 C   0  0  0  0  0  0  0  0  0  0  0  0
  -30.1468  -20.0453   21.3965 C   0  0  0  0  0  0  0  0  0  0  0  0
  -21.8585  -32.1319   27.5049 C   0  0  0  0  0  0  0  0  0  0  0  0
  -25.3165  -31.1175   21.5443 C   0  0  0  0  0  0  0  0  0  0  0  0
  -23.7954  -28.8779   20.3548 C   0  0  0  0  0  0  0  0  0  0  0  0
  -31.1769  -24.4778   16.6525 C   0  0  0  0  0  0  0  0  0  0  0  0
  -21.2563  -31.4734   26.2664 C   0  0  0  0  0  0  0  0  0  0  0  0
  -29.5811  -18.6878   24.6390 C   0  0  0  0  0  0  0  0  0  0  0  0
  -21.9768  -30.1658   25.9533 C   0  0  0  0  0  0  0  0  0  0  0  0
  -29.2347  -17.2228   24.3633 C   0  0  0  0  0  0  0  0  0  0  0  0
  -29.0143  -19.6162   23.5663 C   0  0  0  0  0  0  0  0  0  0  0  0
  -29.0182  -17.7920   21.9105 C   0  0  0  0  0  0  0  0  0  0  0  0
  -23.4590  -30.4123   25.6473 C   0  0  1  0  0  0  0  0  0  0  0  0
  -23.8538  -30.8639   21.8959 C   0  0  1  0  0  0  0  0  0  0  0  0
  -29.6228  -16.8122   22.9293 C   0  0  2  0  0  0  0  0  0  0  0  0
  -19.7669  -30.2303   15.3462 C   0  0  0  0  0  0  0  0  0  0  0  0
  -20.1167  -28.1579   21.6274 C   0  0  0  0  0  0  0  0  0  0  0  0
  -19.1139  -27.9270   19.3450 C   0  0  0  0  0  0  0  0  0  0  0  0
  -18.8213  -30.0479   20.6253 C   0  0  0  0  0  0  0  0  0  0  0  0
  -23.3223  -31.5411   15.6874 C   0  0  0  0  0  0  0  0  0  0  0  0
  -21.0843  -29.4956   19.6423 C   0  0  1  0  0  0  0  0  0  0  0  0
  -20.9719  -30.7943   16.0828 C   0  0  2  0  0  0  0  0  0  0  0  0
  -19.8122  -28.9052   20.3137 C   0  0  0  0  0  0  0  0  0  0  0  0
  -28.0424  -15.1225   22.0758 N   0  0  0  0  0  0  0  0  0  0  0  0
  -29.2391  -15.3745   22.6329 N   0  0  0  0  0  0  0  0  0  0  0  0
  -30.4515  -23.6138   17.6020 N   0  0  0  0  0  0  0  0  0  0  0  0
  -23.1494  -30.0984   20.8653 N   0  0  0  0  0  0  0  0  0  0  0  0
  -29.4268  -19.1678   22.2345 N   0  0  0  0  0  0  0  0  0  0  0  0
  -31.2122  -14.3293   23.4237 N   0  0  0  0  0  0  0  0  0  0  0  0
  -28.6956  -10.8610   21.9976 N   0  0  0  0  0  0  0  0  0  0  0  0
  -30.5132  -19.4980   20.1673 N   0  0  0  0  0  0  0  0  0  0  0  0
  -23.6192  -30.9262   24.3039 N   0  0  0  0  0  0  0  0  0  0  0  0
  -20.8226  -30.2320   18.4104 N   0  0  0  0  0  0  0  0  0  0  0  0
  -22.0809  -30.9713   15.1032 N   0  3  0  0  0  0  0  0  0  0  0  0
  -30.9449  -26.8778   16.4141 O   0  0  0  0  0  0  0  0  0  0  0  0
  -28.8086  -23.8367   19.3089 O   0  0  0  0  0  0  0  0  0  0  0  0
  -30.6952  -11.4389   22.9600 O   0  0  0  0  0  0  0  0  0  0  0  0
  -23.6278  -28.8908   23.1729 O   0  0  0  0  0  0  0  0  0  0  0  0
  -21.2580  -31.4583   20.9629 O   0  0  0  0  0  0  0  0  0  0  0  0
  -22.1845  -28.9409   17.0482 O   0  0  0  0  0  0  0  0  0  0  0  0
  -30.4420  -21.1885   21.7544 O   0  0  0  0  0  0  0  0  0  0  0  0
  -23.6091  -11.1878   19.7492 O   0  0  0  0  0  0  0  0  0  0  0  0
  -28.0260  -26.5416   19.5920 O   0  0  0  0  0  0  0  0  0  1  0  0
  -21.7484   -6.6729   22.3101 F   0  0  0  0  0  0  0  0  0  0  0  0
  -21.0261  -11.0754   20.7282 F   0  0  0  0  0  0  0  0  0  0  0  0
  1  2  1  0  0  0  0
  1  6  2  0  0  0  0
  2  7  2  0  0  0  0
  3  9  2  0  0  0  0
  3 10  1  0  0  0  0
  4 11  2  0  0  0  0
  4 19  1  0  0  0  0
  5 12  1  0  0  0  0
  5 19  2  0  0  0  0
  6 21  1  0  0  0  0
  7 23  1  0  0  0  0
  8 13  2  0  0  0  0
  8 22  1  0  0  0  0
  9 25  1  0  0  0  0
 10 26  2  0  0  0  0
 11 27  1  0  0  0  0
 12 27  2  0  0  0  0
 13 28  1  0  0  0  0
 14 15  2  0  0  0  0
 14 29  1  0  0  0  0
 15 30  1  0  0  0  0
 16 24  1  0  0  0  0
 16 28  2  0  0  0  0
 17 25  2  0  0  0  0
 17 26  1  0  0  0  0
 18 30  2  0  0  0  0
 18 31  1  0  0  0  0
 19 32  1  0  0  0  0
 20 32  1  0  0  0  0
 20 33  2  0  0  0  0
 20 38  1  0  0  0  0
 21 23  2  0  0  0  0
 21 43  1  0  0  0  0
 22 24  2  0  0  0  0
 22 44  1  0  0  0  0
 23 53  1  0  0  0  0
 24 45  1  0  0  0  0
 25 66  1  0  0  0  0
 26 71  1  0  0  0  0
 27 82  1  0  0  0  0
 28 83  1  0  0  0  0
 29 31  2  0  0  0  0
 29 82  1  0  0  0  0
 30 84  1  0  0  0  0
 31 85  1  0  0  0  0
 32 64  2  0  0  0  0
 33 65  1  0  0  0  0
 33 69  1  0  0  0  0
 34 35  1  0  0  0  0
 34 36  1  0  0  0  0
 34 37  2  0  0  0  0
 35 46  1  0  0  0  0
 35 75  2  0  0  0  0
 36 66  1  0  0  0  0
 36 76  2  0  0  0  0
 37 83  1  0  0  0  0
 38 70  1  0  0  0  0
 38 77  2  0  0  0  0
 39 54  1  0  0  0  0
 39 72  1  0  0  0  0
 39 78  2  0  0  0  0
 40 61  1  0  0  0  0
 40 67  1  0  0  0  0
 40 79  2  0  0  0  0
 41 62  1  0  0  0  0
 41 73  1  0  0  0  0
 41 80  2  0  0  0  0
 42 68  1  0  0  0  0
 42 71  1  0  0  0  0
 42 81  2  0  0  0  0
 43 47  1  0  0  0  0
 44 54  1  0  0  0  0
 45 67  1  0  0  0  0
 46 66  1  0  0  0  0
 47 49  1  0  0  0  0
 48 50  1  0  0  0  0
 48 51  1  0  0  0  0
 49 53  1  0  0  0  0
 50 55  1  0  0  0  0
 51 68  1  0  0  0  0
 52 55  1  0  0  0  0
 52 68  1  0  0  0  0
 53 72  1  0  0  0  0
 54 67  1  0  0  0  0
 55 65  1  0  0  0  0
 56 62  1  0  0  0  0
 57 63  1  0  0  0  0
 58 63  1  0  0  0  0
 59 63  1  0  0  0  0
 60 74  1  0  0  0  0
 61 63  1  0  0  0  0
 61 73  1  0  0  0  0
 62 74  1  0  0  0  0
 64 65  1  0  0  0  0
M  CHG  1  74   1
M  ISO  4  37 101  42 100  71 100  83 101
M  END
> <Batch ID>
0086

> <Smiles>
CNC(C)C(=O)NC(C(=O)N1Cc2cc([101O:1][101CH:1]=C3C(=O)CN(c4cccc([100NH:0][100C:0](=O)N5CCCC(n6nc(-c7ccc(Oc8ccc(F)cc8F)cc7)c(C(N)=O)c6N)C5)c4)C3=O)ccc2CC1C(=O)NC1CCCc2ccccc21)C(C)(C)C

> <Shape>
0.255

> <Color>
0.092

> <Negative vol penalty>
0.000

$$$$

  -OEChem-04052300173D

 90 99  0     1  0  0  0  0  0999 V2000
  -27.0097  -30.7756   26.4942 C   0  0  0  0  0  0  0  0  0  0  0  0
  -26.9128  -29.4251   26.1746 C   0  0  0  0  0  0  0  0  0  0  0  0
  -23.8290  -23.3340   22.3805 C   0  0  0  0  0  0  0  0  0  0  0  0
  -22.2945  -23.3974   24.2455 C   0  0  0  0  0  0  0  0  0  0  0  0
  -26.9009  -31.7377   25.4910 C   0  0  0  0  0  0  0  0  0  0  0  0
  -26.7059  -29.0359   24.8516 C   0  0  0  0  0  0  0  0  0  0  0  0
  -28.9218  -24.0362   22.0952 C   0  0  0  0  0  0  0  0  0  0  0  0
  -23.5614  -24.6769   22.1146 C   0  0  0  0  0  0  0  0  0  0  0  0
  -22.0270  -24.7403   23.9797 C   0  0  0  0  0  0  0  0  0  0  0  0
  -28.3624  -22.7879   21.8257 C   0  0  0  0  0  0  0  0  0  0  0  0
  -20.6672  -28.0863   23.5732 C   0  0  0  0  0  0  0  0  0  0  0  0
  -19.3349  -28.4988   23.5961 C   0  0  0  0  0  0  0  0  0  0  0  0
  -26.8402  -16.3791   19.4824 C   0  0  0  0  0  0  0  0  0  0  0  0
  -27.7833  -23.5333   19.6057 C   0  0  0  0  0  0  0  0  0  0  0  0
  -28.9780  -14.5968   19.6726 C   0  0  0  0  0  0  0  0  0  0  0  0
  -18.8211  -26.9377   21.8253 C   0  0  0  0  0  0  0  0  0  0  0  0
  -23.1955  -22.6942   23.4459 C   0  0  0  0  0  0  0  0  0  0  0  0
  -26.6049  -15.0369   19.7804 C   0  0  0  0  0  0  0  0  0  0  0  0
  -24.4734  -20.7900   24.5632 C   0  0  0  0  0  0  0  0  0  0  0  0
  -26.7022  -31.3598   24.1537 C   0  0  0  0  0  0  0  0  0  0  0  0
  -28.9064  -25.0476   21.1241 C   0  0  0  0  0  0  0  0  0  0  0  0
  -26.5929  -29.9940   23.8298 C   0  0  0  0  0  0  0  0  0  0  0  0
  -28.3455  -24.7927   19.8645 C   0  0  0  0  0  0  0  0  0  0  0  0
  -29.2134  -15.9390   19.3745 C   0  0  0  0  0  0  0  0  0  0  0  0
  -22.6604  -25.3801   22.9142 C   0  0  0  0  0  0  0  0  0  0  0  0
  -27.7905  -22.5372   20.5819 C   0  0  0  0  0  0  0  0  0  0  0  0
  -21.0764  -27.0995   22.6763 C   0  0  0  0  0  0  0  0  0  0  0  0
  -28.1445  -16.8301   19.2794 C   0  0  0  0  0  0  0  0  0  0  0  0
  -18.4119  -27.9245   22.7222 C   0  0  0  0  0  0  0  0  0  0  0  0
  -27.6738  -14.1458   19.8755 C   0  0  0  0  0  0  0  0  0  0  0  0
  -20.1534  -26.5252   21.8023 C   0  0  0  0  0  0  0  0  0  0  0  0
  -23.4711  -21.3069   23.7206 C   0  0  0  0  0  0  0  0  0  0  0  0
  -24.3195  -19.4274   24.4839 C   0  0  0  0  0  0  0  0  0  0  0  0
  -31.7148  -15.8544   19.7637 C   0  0  0  0  0  0  0  0  0  0  0  0
  -25.2142  -14.5608   19.9951 C   0  0  0  0  0  0  0  0  0  0  0  0
  -25.4557  -21.4797   25.3474 C   0  0  0  0  0  0  0  0  0  0  0  0
  -27.6287  -27.9517   20.9299 C   0  0  0  0  0  0  0  0  0  0  0  0
  -29.3014  -28.0771   18.1535 C   0  0  0  0  0  0  0  0  0  0  0  0
  -30.7894  -26.3875   15.5887 C   0  0  0  0  0  0  0  0  0  0  0  0
  -28.1441  -20.3896   19.7664 C   0  0  0  0  0  0  0  0  0  1  0  0
  -22.9687  -15.2734   20.7525 C   0  0  0  0  0  0  0  0  0  0  0  0
  -26.5434  -32.4376   23.1107 C   0  0  0  0  0  0  0  0  0  0  0  0
  -29.5378  -26.3801   21.4212 C   0  0  0  0  0  0  0  0  0  0  0  0
  -28.3217  -25.8382   18.7806 C   0  0  0  0  0  0  0  0  0  0  0  0
  -32.8759  -16.7176   19.3250 C   0  0  0  0  0  0  0  0  0  0  0  0
  -26.6991  -31.9285   21.6801 C   0  0  0  0  0  0  0  0  0  0  0  0
  -32.3504  -17.4065   18.0815 C   0  0  0  0  0  0  0  0  0  0  0  0
  -20.6295  -16.4070   23.1484 C   0  0  0  0  0  0  0  0  0  0  0  0
  -25.8942  -30.6485   21.4784 C   0  0  0  0  0  0  0  0  0  0  0  0
  -21.2226  -17.7328   23.6329 C   0  0  0  0  0  0  0  0  0  0  0  0
  -30.8673  -17.5429   18.3560 C   0  0  0  0  0  0  0  0  0  0  0  0
  -20.8518  -16.1995   21.6509 C   0  0  0  0  0  0  0  0  0  0  0  0
  -22.8308  -17.6626   21.6854 C   0  0  0  0  0  0  0  0  0  0  0  0
  -26.3934  -29.5315   22.4028 C   0  0  1  0  0  0  0  0  0  0  0  0
  -29.0075  -27.5034   20.5355 C   0  0  1  0  0  0  0  0  0  0  0  0
  -22.6946  -17.8857   23.2003 C   0  0  1  0  0  0  0  0  0  0  0  0
  -32.0425  -26.7629   13.4472 C   0  0  0  0  0  0  0  0  0  0  0  0
  -26.6922  -28.8277   16.7611 C   0  0  0  0  0  0  0  0  0  0  0  0
  -27.7760  -28.2607   14.5766 C   0  0  0  0  0  0  0  0  0  0  0  0
  -28.6957  -30.1054   15.9816 C   0  0  0  0  0  0  0  0  0  0  0  0
  -33.1810  -24.9707   16.6044 C   0  0  0  0  0  0  0  0  0  0  0  0
  -27.4303  -19.0862   19.5159 C   0  0  0  0  0  0  0  0  0  0  0  0
  -29.0183  -27.7082   16.7173 C   0  0  1  0  0  0  0  0  0  0  0  0
  -32.1570  -26.5328   14.9461 C   0  0  2  0  0  0  0  0  0  0  0  0
  -28.0441  -28.7062   16.0300 C   0  0  0  0  0  0  0  0  0  0  0  0
  -22.7350  -20.3507   23.1481 N   0  0  0  0  0  0  0  0  0  0  0  0
  -23.2753  -19.2192   23.6317 N   0  0  0  0  0  0  0  0  0  0  0  0
  -30.5527  -16.3854   19.1708 N   0  0  0  0  0  0  0  0  0  0  0  0
  -28.9460  -27.1272   19.1217 N   0  0  0  0  0  0  0  0  0  0  0  0
  -22.2710  -16.3513   21.3250 N   0  0  0  0  0  0  0  0  0  0  0  0
  -24.9770  -18.3991   25.0608 N   0  0  0  0  0  0  0  0  0  0  0  0
  -25.4740  -22.8808   25.3137 N   0  0  0  0  0  0  0  0  0  0  0  0
  -24.3288  -15.5037   20.5181 N   0  0  0  0  0  0  0  0  0  0  0  0
  -27.6135  -28.9525   21.8826 N   0  0  0  0  0  0  0  0  0  0  0  0
  -30.3166  -27.5933   16.0618 N   0  0  0  0  0  0  0  0  0  0  0  0
  -32.9688  -25.3036   15.1722 N   0  3  0  0  0  0  0  0  0  0  0  0
  -31.8464  -14.9218   20.5430 O   0  0  0  0  0  0  0  0  0  0  0  0
  -24.9187  -13.4130   19.6739 O   0  0  0  0  0  0  0  0  0  0  0  0
  -26.3030  -20.8713   26.0440 O   0  0  0  0  0  0  0  0  0  0  0  0
  -26.6510  -27.4294   20.4075 O   0  0  0  0  0  0  0  0  0  0  0  0
  -29.8252  -29.1648   18.4065 O   0  0  0  0  0  0  0  0  0  0  0  0
  -30.1978  -25.3125   15.6603 O   0  0  0  0  0  0  0  0  0  0  0  0
  -29.3250  -20.6031   19.5271 O   0  0  0  0  0  0  0  0  0  0  0  0
  -22.4359  -14.1867   20.5065 O   0  0  0  0  0  0  0  0  0  0  0  0
  -22.3993  -26.6905   22.6553 O   0  0  0  0  0  0  0  0  0  0  0  0
  -27.2432  -21.3199   20.3165 O   0  0  0  0  0  0  0  0  0  1  0  0
  -28.3542  -18.1560   18.9865 O   0  0  0  0  0  0  0  0  0  0  0  0
  -17.1322  -28.3196   22.7454 F   0  0  0  0  0  0  0  0  0  0  0  0
  -27.4593  -12.8541   20.1631 F   0  0  0  0  0  0  0  0  0  0  0  0
  -20.5404  -25.5759   20.9392 F   0  0  0  0  0  0  0  0  0  0  0  0
  1  2  1  0  0  0  0
  1  5  2  0  0  0  0
  2  6  2  0  0  0  0
  3  8  2  0  0  0  0
  3 17  1  0  0  0  0
  4  9  1  0  0  0  0
  4 17  2  0  0  0  0
  5 20  1  0  0  0  0
  6 22  1  0  0  0  0
  7 10  2  0  0  0  0
  7 21  1  0  0  0  0
  8 25  1  0  0  0  0
  9 25  2  0  0  0  0
 10 26  1  0  0  0  0
 11 12  2  0  0  0  0
 11 27  1  0  0  0  0
 12 29  1  0  0  0  0
 13 18  2  0  0  0  0
 13 28  1  0  0  0  0
 14 23  1  0  0  0  0
 14 26  2  0  0  0  0
 15 24  1  0  0  0  0
 15 30  2  0  0  0  0
 16 29  2  0  0  0  0
 16 31  1  0  0  0  0
 17 32  1  0  0  0  0
 18 30  1  0  0  0  0
 18 35  1  0  0  0  0
 19 32  1  0  0  0  0
 19 33  2  0  0  0  0
 19 36  1  0  0  0  0
 20 22  2  0  0  0  0
 20 42  1  0  0  0  0
 21 23  2  0  0  0  0
 21 43  1  0  0  0  0
 22 54  1  0  0  0  0
 23 44  1  0  0  0  0
 24 28  2  0  0  0  0
 24 68  1  0  0  0  0
 25 85  1  0  0  0  0
 26 86  1  0  0  0  0
 27 31  2  0  0  0  0
 27 85  1  0  0  0  0
 28 87  1  0  0  0  0
 29 88  1  0  0  0  0
 30 89  1  0  0  0  0
 31 90  1  0  0  0  0
 32 66  2  0  0  0  0
 33 67  1  0  0  0  0
 33 71  1  0  0  0  0
 34 45  1  0  0  0  0
 34 68  1  0  0  0  0
 34 77  2  0  0  0  0
 35 73  1  0  0  0  0
 35 78  2  0  0  0  0
 36 72  1  0  0  0  0
 36 79  2  0  0  0  0
 37 55  1  0  0  0  0
 37 74  1  0  0  0  0
 37 80  2  0  0  0  0
 38 63  1  0  0  0  0
 38 69  1  0  0  0  0
 38 81  2  0  0  0  0
 39 64  1  0  0  0  0
 39 75  1  0  0  0  0
 39 82  2  0  0  0  0
 40 62  1  0  0  0  0
 40 83  2  0  0  0  0
 40 86  1  0  0  0  0
 41 70  1  0  0  0  0
 41 73  1  0  0  0  0
 41 84  2  0  0  0  0
 42 46  1  0  0  0  0
 43 55  1  0  0  0  0
 44 69  1  0  0  0  0
 45 47  1  0  0  0  0
 46 49  1  0  0  0  0
 47 51  1  0  0  0  0
 48 50  1  0  0  0  0
 48 52  1  0  0  0  0
 49 54  1  0  0  0  0
 50 56  1  0  0  0  0
 51 68  1  0  0  0  0
 52 70  1  0  0  0  0
 53 56  1  0  0  0  0
 53 70  1  0  0  0  0
 54 74  1  0  0  0  0
 55 69  1  0  0  0  0
 56 67  1  0  0  0  0
 57 64  1  0  0  0  0
 58 65  1  0  0  0  0
 59 65  1  0  0  0  0
 60 65  1  0  0  0  0
 61 76  1  0  0  0  0
 62 87  1  0  0  0  0
 63 65  1  0  0  0  0
 63 75  1  0  0  0  0
 64 76  1  0  0  0  0
 66 67  1  0  0  0  0
M  CHG  1  76   1
M  ISO  4  40 101  41 100  73 100  86 101
M  END
> <Batch ID>
0086

> <Smiles>
CNC(C)C(=O)NC(C(=O)N1Cc2cc([101O:1][101C:1](=O)COc3cc(C(=O)[100NH:0][100C:0](=O)N4CCCC(n5nc(-c6ccc(Oc7ccc(F)cc7F)cc6)c(C(N)=O)c5N)C4)c(F)cc3N3CCCC3=O)ccc2CC1C(=O)NC1CCCc2ccccc21)C(C)(C)C

> <Shape>
0.239

> <Color>
0.066

> <Negative vol penalty>
0.000

$$$$

  -OEChem-04052300173D

 88 97  0     1  0  0  0  0  0999 V2000
  -19.8916   -8.9831   19.1613 C   0  0  0  0  0  0  0  0  0  0  0  0
  -19.6369  -10.2602   19.6506 C   0  0  0  0  0  0  0  0  0  0  0  0
  -28.5135  -26.5873   21.5722 C   0  0  0  0  0  0  0  0  0  0  0  0
  -29.5480  -28.4916   20.5042 C   0  0  0  0  0  0  0  0  0  0  0  0
  -19.6345  -26.2051   24.6673 C   0  0  0  0  0  0  0  0  0  0  0  0
  -21.5286  -25.8848   23.2020 C   0  0  0  0  0  0  0  0  0  0  0  0
  -21.0605   -8.3176   19.5282 C   0  0  0  0  0  0  0  0  0  0  0  0
  -20.5505  -10.8722   20.5080 C   0  0  0  0  0  0  0  0  0  0  0  0
  -21.9002  -16.8388   20.7985 C   0  0  0  0  0  0  0  0  0  0  0  0
  -19.9088  -24.9866   25.2882 C   0  0  0  0  0  0  0  0  0  0  0  0
  -21.8030  -24.6663   23.8230 C   0  0  0  0  0  0  0  0  0  0  0  0
  -29.3726  -25.7330   20.8812 C   0  0  0  0  0  0  0  0  0  0  0  0
  -30.4072  -27.6372   19.8132 C   0  0  0  0  0  0  0  0  0  0  0  0
  -21.4697  -17.8576   21.6473 C   0  0  0  0  0  0  0  0  0  0  0  0
  -29.6158  -24.4248   17.7741 C   0  0  0  0  0  0  0  0  0  0  0  0
  -29.0625  -23.2877   17.1855 C   0  0  0  0  0  0  0  0  0  0  0  0
  -23.4275  -17.5339   23.0189 C   0  0  0  0  0  0  0  0  0  0  0  0
  -30.4984  -21.8902   18.5355 C   0  0  0  0  0  0  0  0  0  0  0  0
  -28.6011  -27.9667   21.3837 C   0  0  0  0  0  0  0  0  0  0  0  0
  -20.4444  -26.6542   23.6241 C   0  0  0  0  0  0  0  0  0  0  0  0
  -27.9315  -29.4383   23.3569 C   0  0  0  0  0  0  0  0  0  0  0  0
  -21.9936   -8.9256   20.3828 C   0  0  0  0  0  0  0  0  0  0  0  0
  -23.0941  -16.1513   21.0600 C   0  0  0  0  0  0  0  0  0  0  0  0
  -21.7324  -10.2137   20.8877 C   0  0  0  0  0  0  0  0  0  0  0  0
  -23.8723  -16.5085   22.1705 C   0  0  0  0  0  0  0  0  0  0  0  0
  -20.9931  -24.2172   24.8661 C   0  0  0  0  0  0  0  0  0  0  0  0
  -30.3195  -26.2579   20.0017 C   0  0  0  0  0  0  0  0  0  0  0  0
  -22.2319  -18.2033   22.7593 C   0  0  0  0  0  0  0  0  0  0  0  0
  -30.6104  -24.2946   18.7434 C   0  0  0  0  0  0  0  0  0  0  0  0
  -29.5038  -22.0204   17.5662 C   0  0  0  0  0  0  0  0  0  0  0  0
  -31.0517  -23.0273   19.1241 C   0  0  0  0  0  0  0  0  0  0  0  0
  -27.7136  -28.8497   22.0967 C   0  0  0  0  0  0  0  0  0  0  0  0
  -26.8010  -30.1833   23.5880 C   0  0  0  0  0  0  0  0  0  0  0  0
  -21.7106  -20.5263   26.7705 C   0  0  0  0  0  0  0  0  0  0  0  0
  -20.9413  -22.8025   26.8344 C   0  0  0  0  0  0  0  0  0  0  0  0
  -22.0620  -20.6274   25.4815 C   0  0  0  0  0  0  0  0  0  0  0  0
  -21.1454  -21.6445   27.4691 C   0  0  0  0  0  0  0  0  0  0  0  0
  -21.8806  -21.9399   24.7595 C   0  0  0  0  0  0  0  0  0  0  0  0
  -20.1521  -27.9518   22.9626 C   0  0  0  0  0  0  0  0  0  0  0  0
  -29.0554  -29.3221   24.2394 C   0  0  0  0  0  0  0  0  0  0  0  0
  -23.8492  -13.1310   21.7011 C   0  0  0  0  0  0  0  0  0  0  0  0
  -26.8852  -14.2534   21.4883 C   0  0  0  0  0  0  0  0  0  0  0  0
  -29.0103  -16.9162   21.6882 C   0  0  0  0  0  0  0  0  0  0  0  0
  -21.1831  -29.8026   21.6837 C   0  0  0  0  0  0  0  0  0  0  0  0
  -23.2204   -8.1480   20.7890 C   0  0  0  0  0  0  0  0  0  0  0  0
  -23.5581  -15.0728   20.1199 C   0  0  0  0  0  0  0  0  0  0  0  0
  -25.1719  -15.8149   22.4841 C   0  0  0  0  0  0  0  0  0  0  0  0
  -24.3158   -9.0157   21.4033 C   0  0  0  0  0  0  0  0  0  0  0  0
  -23.3472  -32.5673   21.2716 C   0  0  0  0  0  0  0  0  0  0  0  0
  -23.7255   -9.9656   22.4407 C   0  0  0  0  0  0  0  0  0  0  0  0
  -24.7335  -31.9878   21.5662 C   0  0  0  0  0  0  0  0  0  0  0  0
  -22.4658  -31.5737   20.5160 C   0  0  0  0  0  0  0  0  0  0  0  0
  -23.7352  -29.6710   21.4250 C   0  0  0  0  0  0  0  0  0  0  0  0
  -22.7111  -10.9206   21.8002 C   0  0  1  0  0  0  0  0  0  0  0  0
  -24.5303  -14.0923   20.7686 C   0  0  1  0  0  0  0  0  0  0  0  0
  -24.6367  -30.6072   22.2460 C   0  0  1  0  0  0  0  0  0  0  0  0
  -31.1634  -18.1945   21.5226 C   0  0  0  0  0  0  0  0  0  0  0  0
  -27.3902  -13.0501   24.2464 C   0  0  0  0  0  0  0  0  0  0  0  0
  -29.4508  -14.4629   24.4086 C   0  0  0  0  0  0  0  0  0  0  0  0
  -29.2599  -12.7401   22.6147 C   0  0  0  0  0  0  0  0  0  0  0  0
  -28.5274  -17.5887   18.8468 C   0  0  0  0  0  0  0  0  0  0  0  0
  -22.6439  -19.4992   24.7104 C   0  0  0  0  0  0  0  0  0  1  0  0
  -27.8751  -14.8497   22.4596 C   0  0  1  0  0  0  0  0  0  0  0  0
  -30.1160  -17.3941   20.7643 C   0  0  2  0  0  0  0  0  0  0  0  0
  -28.4686  -13.7877   23.4278 C   0  0  0  0  0  0  0  0  0  0  0  0
  -26.5370  -29.1912   21.5647 N   0  0  0  0  0  0  0  0  0  0  0  0
  -26.0054  -30.0023   22.4951 N   0  0  0  0  0  0  0  0  0  0  0  0
  -21.2685  -22.9907   25.4921 N   0  0  0  0  0  0  0  0  0  0  0  0
  -25.5799  -14.7629   21.5385 N   0  0  0  0  0  0  0  0  0  0  0  0
  -22.4185  -30.2961   21.2293 N   0  0  0  0  0  0  0  0  0  0  0  0
  -26.4197  -30.9688   24.6176 N   0  0  0  0  0  0  0  0  0  0  0  0
  -30.1326  -28.5159   23.8470 N   0  0  0  0  0  0  0  0  0  0  0  0
  -21.2491  -28.5968   22.3907 N   0  0  0  0  0  0  0  0  0  0  0  0
  -23.3936  -11.9795   21.0880 N   0  0  0  0  0  0  0  0  0  0  0  0
  -28.8714  -15.5449   21.6518 N   0  0  0  0  0  0  0  0  0  0  0  0
  -29.5541  -18.2570   19.6870 N   0  3  0  0  0  0  0  0  0  0  0  0
  -22.2426  -22.0425   23.5860 O   0  0  0  0  0  0  0  0  0  0  0  0
  -18.9927  -28.3542   22.9212 O   0  0  0  0  0  0  0  0  0  0  0  0
  -29.0960  -29.9026   25.3507 O   0  0  0  0  0  0  0  0  0  0  0  0
  -23.7460  -13.4124   22.8894 O   0  0  0  0  0  0  0  0  0  0  0  0
  -27.2581  -13.3731   20.7087 O   0  0  0  0  0  0  0  0  0  0  0  0
  -28.3395  -17.6825   22.3762 O   0  0  0  0  0  0  0  0  0  0  0  0
  -20.1178  -30.4023   21.5086 O   0  0  0  0  0  0  0  0  0  0  0  0
  -20.8344  -21.4256   28.7889 O   0  0  0  0  0  0  0  0  0  0  0  0
  -31.1582  -25.4245   19.3274 O   0  0  0  0  0  0  0  0  0  0  0  0
  -21.8137  -19.1970   23.5898 O   0  0  0  0  0  0  0  0  0  1  0  0
  -28.9713  -20.9285   17.0020 F   0  0  0  0  0  0  0  0  0  0  0  0
  -32.0061  -22.8959   20.0556 F   0  0  0  0  0  0  0  0  0  0  0  0
  1  2  1  0  0  0  0
  1  7  2  0  0  0  0
  2  8  2  0  0  0  0
  3 12  2  0  0  0  0
  3 19  1  0  0  0  0
  4 13  1  0  0  0  0
  4 19  2  0  0  0  0
  5 10  2  0  0  0  0
  5 20  1  0  0  0  0
  6 11  1  0  0  0  0
  6 20  2  0  0  0  0
  7 22  1  0  0  0  0
  8 24  1  0  0  0  0
  9 14  2  0  0  0  0
  9 23  1  0  0  0  0
 10 26  1  0  0  0  0
 11 26  2  0  0  0  0
 12 27  1  0  0  0  0
 13 27  2  0  0  0  0
 14 28  1  0  0  0  0
 15 16  2  0  0  0  0
 15 29  1  0  0  0  0
 16 30  1  0  0  0  0
 17 25  1  0  0  0  0
 17 28  2  0  0  0  0
 18 30  2  0  0  0  0
 18 31  1  0  0  0  0
 19 32  1  0  0  0  0
 20 39  1  0  0  0  0
 21 32  1  0  0  0  0
 21 33  2  0  0  0  0
 21 40  1  0  0  0  0
 22 24  2  0  0  0  0
 22 45  1  0  0  0  0
 23 25  2  0  0  0  0
 23 46  1  0  0  0  0
 24 54  1  0  0  0  0
 25 47  1  0  0  0  0
 26 68  1  0  0  0  0
 27 85  1  0  0  0  0
 28 86  1  0  0  0  0
 29 31  2  0  0  0  0
 29 85  1  0  0  0  0
 30 87  1  0  0  0  0
 31 88  1  0  0  0  0
 32 66  2  0  0  0  0
 33 67  1  0  0  0  0
 33 71  1  0  0  0  0
 34 36  2  0  0  0  0
 34 37  1  0  0  0  0
 35 37  2  0  0  0  0
 35 68  1  0  0  0  0
 36 38  1  0  0  0  0
 36 62  1  0  0  0  0
 37 84  1  0  0  0  0
 38 68  1  0  0  0  0
 38 77  2  0  0  0  0
 39 73  1  0  0  0  0
 39 78  2  0  0  0  0
 40 72  1  0  0  0  0
 40 79  2  0  0  0  0
 41 55  1  0  0  0  0
 41 74  1  0  0  0  0
 41 80  2  0  0  0  0
 42 63  1  0  0  0  0
 42 69  1  0  0  0  0
 42 81  2  0  0  0  0
 43 64  1  0  0  0  0
 43 75  1  0  0  0  0
 43 82  2  0  0  0  0
 44 70  1  0  0  0  0
 44 73  1  0  0  0  0
 44 83  2  0  0  0  0
 45 48  1  0  0  0  0
 46 55  1  0  0  0  0
 47 69  1  0  0  0  0
 48 50  1  0  0  0  0
 49 51  1  0  0  0  0
 49 52  1  0  0  0  0
 50 54  1  0  0  0  0
 51 56  1  0  0  0  0
 52 70  1  0  0  0  0
 53 56  1  0  0  0  0
 53 70  1  0  0  0  0
 54 74  1  0  0  0  0
 55 69  1  0  0  0  0
 56 67  1  0  0  0  0
 57 64  1  0  0  0  0
 58 65  1  0  0  0  0
 59 65  1  0  0  0  0
 60 65  1  0  0  0  0
 61 76  1  0  0  0  0
 62 86  1  0  0  0  0
 63 65  1  0  0  0  0
 63 75  1  0  0  0  0
 64 76  1  0  0  0  0
 66 67  1  0  0  0  0
M  CHG  1  76   1
M  ISO  4  44 100  62 101  73 100  86 101
M  END
> <Batch ID>
0086

> <Smiles>
CNC(C)C(=O)NC(C(=O)N1Cc2cc([101O:1][101CH:1]=C3CC(=O)CN(c4ccc(C(=O)[100NH:0][100C:0](=O)N5CCCC(n6nc(-c7ccc(Oc8ccc(F)cc8F)cc7)c(C(N)=O)c6N)C5)cc4)C3=O)ccc2CC1C(=O)NC1CCCc2ccccc21)C(C)(C)C

> <Shape>
0.271

> <Color>
0.042

> <Negative vol penalty>
0.000

$$$$

  -OEChem-04052300173D

 84 92  0     1  0  0  0  0  0999 V2000
  -16.2507  -32.9476   19.1437 C   0  0  0  0  0  0  0  0  0  0  0  0
  -16.8423  -31.7154   18.8847 C   0  0  0  0  0  0  0  0  0  0  0  0
  -22.9980  -10.4490   19.8306 C   0  0  0  0  0  0  0  0  0  0  0  0
  -23.8587   -9.3798   21.8189 C   0  0  0  0  0  0  0  0  0  0  0  0
  -28.2589  -20.2243   20.0485 C   0  0  0  0  0  0  0  0  0  0  0  0
  -17.0443  -34.0440   19.4787 C   0  0  0  0  0  0  0  0  0  0  0  0
  -18.2280  -31.5791   18.9593 C   0  0  0  0  0  0  0  0  0  0  0  0
  -21.3467  -26.6587   20.8485 C   0  0  0  0  0  0  0  0  0  0  0  0
  -27.1888  -21.0872   20.2846 C   0  0  0  0  0  0  0  0  0  0  0  0
  -22.1588   -9.3576   19.6069 C   0  0  0  0  0  0  0  0  0  0  0  0
  -23.0194   -8.2884   21.5952 C   0  0  0  0  0  0  0  0  0  0  0  0
  -21.9734  -25.6229   20.1569 C   0  0  0  0  0  0  0  0  0  0  0  0
  -19.7603   -7.5198   22.0511 C   0  0  0  0  0  0  0  0  0  0  0  0
  -19.0571   -7.0105   23.1428 C   0  0  0  0  0  0  0  0  0  0  0  0
  -26.7364  -18.5861   19.1345 C   0  0  0  0  0  0  0  0  0  0  0  0
  -24.0762  -26.7935   20.3215 C   0  0  0  0  0  0  0  0  0  0  0  0
  -20.1386   -4.8712   22.8414 C   0  0  0  0  0  0  0  0  0  0  0  0
  -23.8480  -10.4601   20.9366 C   0  0  0  0  0  0  0  0  0  0  0  0
  -28.0328  -18.9737   19.4734 C   0  0  0  0  0  0  0  0  0  0  0  0
  -24.4254  -12.7439   21.9158 C   0  0  0  0  0  0  0  0  0  0  0  0
  -18.4397  -33.9187   19.5670 C   0  0  0  0  0  0  0  0  0  0  0  0
  -22.0792  -27.7766   21.2729 C   0  0  0  0  0  0  0  0  0  0  0  0
  -19.0411  -32.6751   19.2945 C   0  0  0  0  0  0  0  0  0  0  0  0
  -23.4570  -27.8409   21.0205 C   0  0  0  0  0  0  0  0  0  0  0  0
  -25.8924  -20.6995   19.9457 C   0  0  0  0  0  0  0  0  0  0  0  0
  -22.1695   -8.2772   20.4892 C   0  0  0  0  0  0  0  0  0  0  0  0
  -23.3378  -25.6915   19.8908 C   0  0  0  0  0  0  0  0  0  0  0  0
  -20.6526   -6.7048   21.3545 C   0  0  0  0  0  0  0  0  0  0  0  0
  -25.6662  -19.4490   19.3707 C   0  0  0  0  0  0  0  0  0  0  0  0
  -19.2463   -5.6862   23.5379 C   0  0  0  0  0  0  0  0  0  0  0  0
  -20.8418   -5.3805   21.7496 C   0  0  0  0  0  0  0  0  0  0  0  0
  -24.7156  -11.5871   21.1679 C   0  0  0  0  0  0  0  0  0  0  0  0
  -25.5669  -13.5030   21.8309 C   0  0  0  0  0  0  0  0  0  0  0  0
  -24.5349  -22.3931   19.2284 C   0  0  0  0  0  0  0  0  0  0  0  0
  -29.1728  -18.0552   19.2217 C   0  0  0  0  0  0  0  0  0  0  0  0
  -23.2308  -13.1003   22.6240 C   0  0  0  0  0  0  0  0  0  0  0  0
  -21.9799  -30.8920   20.6498 C   0  0  0  0  0  0  0  0  0  0  0  0
  -24.2340  -31.0334   22.9782 C   0  0  0  0  0  0  0  0  0  0  0  0
  -26.6829  -29.4385   24.7406 C   0  0  0  0  0  0  0  0  0  0  0  0
  -29.7766  -15.6704   18.9536 C   0  0  0  0  0  0  0  0  0  0  0  0
  -19.2598  -35.1435   19.8863 C   0  0  0  0  0  0  0  0  0  0  0  0
  -21.3936  -28.8730   22.0411 C   0  0  0  0  0  0  0  0  0  0  0  0
  -24.2923  -29.0098   21.4725 C   0  0  0  0  0  0  0  0  0  0  0  0
  -20.6911  -34.8246   20.3105 C   0  0  0  0  0  0  0  0  0  0  0  0
  -30.1752  -12.3427   20.0783 C   0  0  0  0  0  0  0  0  0  0  0  0
  -21.3140  -33.8044   19.3628 C   0  0  0  0  0  0  0  0  0  0  0  0
  -28.7683  -11.9440   20.5321 C   0  0  0  0  0  0  0  0  0  0  0  0
  -30.1405  -13.2214   18.8286 C   0  0  0  0  0  0  0  0  0  0  0  0
  -27.8699  -14.0008   19.3717 C   0  0  0  0  0  0  0  0  0  0  0  0
  -20.5390  -32.4815   19.3896 C   0  0  1  0  0  0  0  0  0  0  0  0
  -22.1373  -30.2034   21.9760 C   0  0  1  0  0  0  0  0  0  0  0  0
  -27.8478  -13.1736   20.6672 C   0  0  1  0  0  0  0  0  0  0  0  0
  -28.3751  -29.8244   26.5530 C   0  0  0  0  0  0  0  0  0  0  0  0
  -25.9979  -32.5514   21.0047 C   0  0  0  0  0  0  0  0  0  0  0  0
  -27.9536  -32.0746   22.4933 C   0  0  0  0  0  0  0  0  0  0  0  0
  -26.0454  -33.4385   23.3425 C   0  0  0  0  0  0  0  0  0  0  0  0
  -25.4579  -27.3829   26.4821 C   0  0  0  0  0  0  0  0  0  0  0  0
  -23.6545  -18.3646   20.0287 C   0  0  0  0  0  0  0  0  0  0  0  0
  -23.4080  -23.3721   19.3702 C   0  0  0  0  0  0  0  0  0  1  0  0
  -25.7409  -30.9502   23.0138 C   0  0  1  0  0  0  0  0  0  0  0  0
  -26.9633  -29.3600   26.2304 C   0  0  2  0  0  0  0  0  0  0  0  0
  -26.4186  -32.2324   22.4533 C   0  0  0  0  0  0  0  0  0  0  0  0
  -25.9450  -11.6053   20.6461 N   0  0  0  0  0  0  0  0  0  0  0  0
  -24.8238  -21.5786   20.1900 N   0  0  0  0  0  0  0  0  0  0  0  0
  -26.4374  -12.7829   21.0667 N   0  0  0  0  0  0  0  0  0  0  0  0
  -23.5749  -30.0596   22.2145 N   0  0  0  0  0  0  0  0  0  0  0  0
  -29.2552  -14.3678   19.0413 N   0  0  0  0  0  0  0  0  0  0  0  0
  -25.9009  -14.7095   22.3360 N   0  0  0  0  0  0  0  0  0  0  0  0
  -22.1525  -12.2051   22.6085 N   0  0  0  0  0  0  0  0  0  0  0  0
  -28.8606  -16.6955   19.2151 N   0  0  0  0  0  0  0  0  0  0  0  0
  -20.8773  -31.7214   20.5738 N   0  0  0  0  0  0  0  0  0  0  0  0
  -26.1001  -30.6388   24.3931 N   0  0  0  0  0  0  0  0  0  0  0  0
  -26.8075  -27.9589   26.7137 N   0  3  0  0  0  0  0  0  0  0  0  0
  -30.2843  -18.5281   19.0005 O   0  0  0  0  0  0  0  0  0  0  0  0
  -23.1169  -14.1880   23.2384 O   0  0  0  0  0  0  0  0  0  0  0  0
  -22.7991  -30.6871   19.7617 O   0  0  0  0  0  0  0  0  0  0  0  0
  -23.6624  -31.9250   23.6106 O   0  0  0  0  0  0  0  0  0  0  0  0
  -26.9571  -28.5277   23.9623 O   0  0  0  0  0  0  0  0  0  0  0  0
  -30.9636  -15.9004   18.7020 O   0  0  0  0  0  0  0  0  0  0  0  0
  -21.3505   -7.2122   20.2714 O   0  0  0  0  0  0  0  0  0  0  0  0
  -24.4060  -19.0557   19.0330 O   0  0  0  0  0  0  0  0  0  0  0  0
  -23.9518  -24.6823   19.2154 O   0  0  0  0  0  0  0  0  0  1  0  0
  -18.5721   -5.1978   24.5872 F   0  0  0  0  0  0  0  0  0  0  0  0
  -21.6985   -4.5931   21.0850 F   0  0  0  0  0  0  0  0  0  0  0  0
  1  2  1  0  0  0  0
  1  6  2  0  0  0  0
  2  7  2  0  0  0  0
  3 10  2  0  0  0  0
  3 18  1  0  0  0  0
  4 11  1  0  0  0  0
  4 18  2  0  0  0  0
  5  9  2  0  0  0  0
  5 19  1  0  0  0  0
  6 21  1  0  0  0  0
  7 23  1  0  0  0  0
  8 12  2  0  0  0  0
  8 22  1  0  0  0  0
  9 25  1  0  0  0  0
 10 26  1  0  0  0  0
 11 26  2  0  0  0  0
 12 27  1  0  0  0  0
 13 14  2  0  0  0  0
 13 28  1  0  0  0  0
 14 30  1  0  0  0  0
 15 19  2  0  0  0  0
 15 29  1  0  0  0  0
 16 24  1  0  0  0  0
 16 27  2  0  0  0  0
 17 30  2  0  0  0  0
 17 31  1  0  0  0  0
 18 32  1  0  0  0  0
 19 35  1  0  0  0  0
 20 32  1  0  0  0  0
 20 33  2  0  0  0  0
 20 36  1  0  0  0  0
 21 23  2  0  0  0  0
 21 41  1  0  0  0  0
 22 24  2  0  0  0  0
 22 42  1  0  0  0  0
 23 50  1  0  0  0  0
 24 43  1  0  0  0  0
 25 29  2  0  0  0  0
 25 64  1  0  0  0  0
 26 80  1  0  0  0  0
 27 82  1  0  0  0  0
 28 31  2  0  0  0  0
 28 80  1  0  0  0  0
 29 81  1  0  0  0  0
 30 83  1  0  0  0  0
 31 84  1  0  0  0  0
 32 63  2  0  0  0  0
 33 65  1  0  0  0  0
 33 68  1  0  0  0  0
 34 59  1  0  0  0  0
 34 64  2  0  0  0  0
 35 70  1  0  0  0  0
 35 74  2  0  0  0  0
 36 69  1  0  0  0  0
 36 75  2  0  0  0  0
 37 51  1  0  0  0  0
 37 71  1  0  0  0  0
 37 76  2  0  0  0  0
 38 60  1  0  0  0  0
 38 66  1  0  0  0  0
 38 77  2  0  0  0  0
 39 61  1  0  0  0  0
 39 72  1  0  0  0  0
 39 78  2  0  0  0  0
 40 67  1  0  0  0  0
 40 70  1  0  0  0  0
 40 79  2  0  0  0  0
 41 44  1  0  0  0  0
 42 51  1  0  0  0  0
 43 66  1  0  0  0  0
 44 46  1  0  0  0  0
 45 47  1  0  0  0  0
 45 48  1  0  0  0  0
 46 50  1  0  0  0  0
 47 52  1  0  0  0  0
 48 67  1  0  0  0  0
 49 52  1  0  0  0  0
 49 67  1  0  0  0  0
 50 71  1  0  0  0  0
 51 66  1  0  0  0  0
 52 65  1  0  0  0  0
 53 61  1  0  0  0  0
 54 62  1  0  0  0  0
 55 62  1  0  0  0  0
 56 62  1  0  0  0  0
 57 73  1  0  0  0  0
 58 81  1  0  0  0  0
 59 82  1  0  0  0  0
 60 62  1  0  0  0  0
 60 72  1  0  0  0  0
 61 73  1  0  0  0  0
 63 65  1  0  0  0  0
M  CHG  1  73   1
M  ISO  4  40 100  59 101  70 100  82 101
M  END
> <Batch ID>
0086

> <Smiles>
CNC(C)C(=O)NC(C(=O)N1Cc2cc([101O:1][101CH:1]=CNc3ccc(C(=O)[100NH:0][100C:0](=O)N4CCCC(n5nc(-c6ccc(Oc7ccc(F)cc7F)cc6)c(C(N)=O)c5N)C4)cc3OC)ccc2CC1C(=O)NC1CCCc2ccccc21)C(C)(C)C

> <Shape>
0.251

> <Color>
0.097

> <Negative vol penalty>
0.000

$$$$

  -OEChem-04052300173D

 82 91  0     1  0  0  0  0  0999 V2000
  -16.6592  -29.7922   24.1886 C   0  0  0  0  0  0  0  0  0  0  0  0
  -17.1093  -28.5033   24.4562 C   0  0  0  0  0  0  0  0  0  0  0  0
  -23.4460   -9.6683   20.0200 C   0  0  0  0  0  0  0  0  0  0  0  0
  -23.5334  -10.1588   22.3841 C   0  0  0  0  0  0  0  0  0  0  0  0
  -17.3816  -30.6168   23.3272 C   0  0  0  0  0  0  0  0  0  0  0  0
  -18.2815  -28.0378   23.8615 C   0  0  0  0  0  0  0  0  0  0  0  0
  -23.8519  -23.7169   25.1329 C   0  0  0  0  0  0  0  0  0  0  0  0
  -22.7144   -8.5112   20.2871 C   0  0  0  0  0  0  0  0  0  0  0  0
  -22.8018   -9.0016   22.6512 C   0  0  0  0  0  0  0  0  0  0  0  0
  -24.5389  -22.6480   24.5591 C   0  0  0  0  0  0  0  0  0  0  0  0
  -19.5731   -8.0122   22.5204 C   0  0  0  0  0  0  0  0  0  0  0  0
  -18.5216   -8.1081   23.4318 C   0  0  0  0  0  0  0  0  0  0  0  0
  -28.6816  -20.0852   22.1441 C   0  0  0  0  0  0  0  0  0  0  0  0
  -25.7468  -24.1888   23.1497 C   0  0  0  0  0  0  0  0  0  0  0  0
  -19.5933   -6.4640   24.8410 C   0  0  0  0  0  0  0  0  0  0  0  0
  -28.9642  -19.0135   21.3263 C   0  0  0  0  0  0  0  0  0  0  0  0
  -27.4412  -20.2740   20.2745 C   0  0  0  0  0  0  0  0  0  0  0  0
  -23.8555  -10.4921   21.0685 C   0  0  0  0  0  0  0  0  0  0  0  0
  -24.1036  -12.9765   20.5448 C   0  0  0  0  0  0  0  0  0  0  0  0
  -18.5684  -30.1646   22.7291 C   0  0  0  0  0  0  0  0  0  0  0  0
  -24.0998  -25.0311   24.7111 C   0  0  0  0  0  0  0  0  0  0  0  0
  -19.0197  -28.8567   22.9901 C   0  0  0  0  0  0  0  0  0  0  0  0
  -25.0635  -25.2728   23.7216 C   0  0  0  0  0  0  0  0  0  0  0  0
  -27.7182  -20.8827   21.4787 C   0  0  0  0  0  0  0  0  0  0  0  0
  -22.3923   -8.1778   21.6027 C   0  0  0  0  0  0  0  0  0  0  0  0
  -25.4844  -22.8836   23.5653 C   0  0  0  0  0  0  0  0  0  0  0  0
  -20.6347   -7.1422   22.7691 C   0  0  0  0  0  0  0  0  0  0  0  0
  -18.5317   -7.3340   24.5922 C   0  0  0  0  0  0  0  0  0  0  0  0
  -20.6448   -6.3682   23.9295 C   0  0  0  0  0  0  0  0  0  0  0  0
  -24.6118  -11.6873   20.7933 C   0  0  0  0  0  0  0  0  0  0  0  0
  -25.2190  -13.7523   20.3435 C   0  0  0  0  0  0  0  0  0  0  0  0
  -27.4535  -18.3977   18.0292 C   0  0  0  0  0  0  0  0  0  0  0  0
  -28.2069  -18.2544   19.1293 C   0  0  0  0  0  0  0  0  0  0  0  0
  -28.7849  -16.2213   17.6513 C   0  0  0  0  0  0  0  0  0  0  0  0
  -22.7449  -13.4320   20.5001 C   0  0  0  0  0  0  0  0  0  0  0  0
  -22.3589  -27.3164   23.3508 C   0  0  0  0  0  0  0  0  0  0  0  0
  -25.0282  -29.0958   23.8313 C   0  0  0  0  0  0  0  0  0  0  0  0
  -28.4091  -29.1822   24.2884 C   0  0  0  0  0  0  0  0  0  0  0  0
  -30.2136  -14.4490   17.9258 C   0  0  0  0  0  0  0  0  0  0  0  0
  -19.2898  -31.0757   21.7678 C   0  0  0  0  0  0  0  0  0  0  0  0
  -23.3696  -26.1754   25.3590 C   0  0  0  0  0  0  0  0  0  0  0  0
  -25.3811  -26.6668   23.2477 C   0  0  0  0  0  0  0  0  0  0  0  0
  -20.7219  -30.6377   21.4718 C   0  0  0  0  0  0  0  0  0  0  0  0
  -30.1109  -12.7692   21.1219 C   0  0  0  0  0  0  0  0  0  0  0  0
  -20.7724  -29.1422   21.1756 C   0  0  0  0  0  0  0  0  0  0  0  0
  -28.6333  -12.4122   21.2798 C   0  0  0  0  0  0  0  0  0  0  0  0
  -30.5522  -12.6924   19.6638 C   0  0  0  0  0  0  0  0  0  0  0  0
  -28.2441  -13.1753   18.8947 C   0  0  0  0  0  0  0  0  0  0  0  0
  -20.2999  -28.3243   22.3837 C   0  0  1  0  0  0  0  0  0  0  0  0
  -23.3321  -27.4288   24.4901 C   0  0  1  0  0  0  0  0  0  0  0  0
  -27.7556  -13.2692   20.3505 C   0  0  1  0  0  0  0  0  0  0  0  0
  -30.3125  -30.7848   24.6146 C   0  0  0  0  0  0  0  0  0  0  0  0
  -24.9445  -29.7958   20.8627 C   0  0  0  0  0  0  0  0  0  0  0  0
  -27.3167  -30.5739   21.0506 C   0  0  0  0  0  0  0  0  0  0  0  0
  -25.5266  -31.7056   22.3688 C   0  0  0  0  0  0  0  0  0  0  0  0
  -29.0705  -28.0386   26.9367 C   0  0  0  0  0  0  0  0  0  0  0  0
  -27.1109  -22.1559   21.9902 C   0  0  0  0  0  0  0  0  0  1  0  0
  -26.2777  -29.3853   23.0352 C   0  0  1  0  0  0  0  0  0  0  0  0
  -29.2702  -29.9155   25.3009 C   0  0  2  0  0  0  0  0  0  0  0  0
  -26.0092  -30.3386   21.8366 C   0  0  0  0  0  0  0  0  0  0  0  0
  -25.9461  -11.6426   20.7537 N   0  0  0  0  0  0  0  0  0  0  0  0
  -29.2773  -15.1314   17.1716 N   0  0  0  0  0  0  0  0  0  0  0  0
  -28.2041  -19.1385   20.1927 N   0  0  0  0  0  0  0  0  0  0  0  0
  -26.2859  -12.9133   20.4780 N   0  0  0  0  0  0  0  0  0  0  0  0
  -24.6361  -27.7518   23.9074 N   0  0  0  0  0  0  0  0  0  0  0  0
  -29.6761  -13.4901   18.8045 N   0  0  0  0  0  0  0  0  0  0  0  0
  -25.3815  -15.0634   20.0662 N   0  0  0  0  0  0  0  0  0  0  0  0
  -21.7209  -12.5030   20.7300 N   0  0  0  0  0  0  0  0  0  0  0  0
  -21.3429  -28.2523   23.3844 N   0  0  0  0  0  0  0  0  0  0  0  0
  -27.2621  -29.8863   23.9883 N   0  0  0  0  0  0  0  0  0  0  0  0
  -29.9760  -28.9426   26.1819 N   0  3  0  0  0  0  0  0  0  0  0  0
  -22.4470  -14.6240   20.2472 O   0  0  0  0  0  0  0  0  0  0  0  0
  -22.5189  -26.4459   22.5032 O   0  0  0  0  0  0  0  0  0  0  0  0
  -24.4263  -30.0270   24.3719 O   0  0  0  0  0  0  0  0  0  0  0  0
  -28.7243  -28.0955   23.8087 O   0  0  0  0  0  0  0  0  0  0  0  0
  -31.4292  -14.6452   17.8533 O   0  0  0  0  0  0  0  0  0  0  0  0
  -21.6782   -7.0488   21.8636 O   0  0  0  0  0  0  0  0  0  0  0  0
  -26.1559  -21.8421   23.0030 O   0  0  0  0  0  0  0  0  0  1  0  0
  -17.5227   -7.4272   25.4681 F   0  0  0  0  0  0  0  0  0  0  0  0
  -21.6625   -5.5315   24.1745 F   0  0  0  0  0  0  0  0  0  0  0  0
  -27.5957  -17.1785   16.8019 S   0  0  0  0  0  0  0  0  0  0  0  0
  -29.2508  -16.8666   19.2064 S   0  0  0  0  0  0  0  0  0  0  0  0
  1  2  1  0  0  0  0
  1  5  2  0  0  0  0
  2  6  2  0  0  0  0
  3  8  2  0  0  0  0
  3 18  1  0  0  0  0
  4  9  1  0  0  0  0
  4 18  2  0  0  0  0
  5 20  1  0  0  0  0
  6 22  1  0  0  0  0
  7 10  2  0  0  0  0
  7 21  1  0  0  0  0
  8 25  1  0  0  0  0
  9 25  2  0  0  0  0
 10 26  1  0  0  0  0
 11 12  2  0  0  0  0
 11 27  1  0  0  0  0
 12 28  1  0  0  0  0
 13 16  2  0  0  0  0
 13 24  1  0  0  0  0
 14 23  1  0  0  0  0
 14 26  2  0  0  0  0
 15 28  2  0  0  0  0
 15 29  1  0  0  0  0
 16 63  1  0  0  0  0
 17 24  2  0  0  0  0
 17 63  1  0  0  0  0
 18 30  1  0  0  0  0
 19 30  1  0  0  0  0
 19 31  2  0  0  0  0
 19 35  1  0  0  0  0
 20 22  2  0  0  0  0
 20 40  1  0  0  0  0
 21 23  2  0  0  0  0
 21 41  1  0  0  0  0
 22 49  1  0  0  0  0
 23 42  1  0  0  0  0
 24 57  1  0  0  0  0
 25 77  1  0  0  0  0
 26 78  1  0  0  0  0
 27 29  2  0  0  0  0
 27 77  1  0  0  0  0
 28 79  1  0  0  0  0
 29 80  1  0  0  0  0
 30 61  2  0  0  0  0
 31 64  1  0  0  0  0
 31 67  1  0  0  0  0
 32 33  2  0  0  0  0
 32 81  1  0  0  0  0
 33 63  1  0  0  0  0
 33 82  1  0  0  0  0
 34 62  2  0  0  0  0
 34 81  1  0  0  0  0
 34 82  1  0  0  0  0
 35 68  1  0  0  0  0
 35 72  2  0  0  0  0
 36 50  1  0  0  0  0
 36 69  1  0  0  0  0
 36 73  2  0  0  0  0
 37 58  1  0  0  0  0
 37 65  1  0  0  0  0
 37 74  2  0  0  0  0
 38 59  1  0  0  0  0
 38 70  1  0  0  0  0
 38 75  2  0  0  0  0
 39 62  1  0  0  0  0
 39 66  1  0  0  0  0
 39 76  2  0  0  0  0
 40 43  1  0  0  0  0
 41 50  1  0  0  0  0
 42 65  1  0  0  0  0
 43 45  1  0  0  0  0
 44 46  1  0  0  0  0
 44 47  1  0  0  0  0
 45 49  1  0  0  0  0
 46 51  1  0  0  0  0
 47 66  1  0  0  0  0
 48 51  1  0  0  0  0
 48 66  1  0  0  0  0
 49 69  1  0  0  0  0
 50 65  1  0  0  0  0
 51 64  1  0  0  0  0
 52 59  1  0  0  0  0
 53 60  1  0  0  0  0
 54 60  1  0  0  0  0
 55 60  1  0  0  0  0
 56 71  1  0  0  0  0
 57 78  1  0  0  0  0
 58 60  1  0  0  0  0
 58 70  1  0  0  0  0
 59 71  1  0  0  0  0
 61 64  1  0  0  0  0
M  CHG  1  71   1
M  ISO  4  39 100  57 101  62 100  78 101
M  END
> <Batch ID>
0086

> <Smiles>
CNC(C)C(=O)NC(C(=O)N1Cc2cc([101O:1][101CH2:1]c3ccn(-c4csc(=[100N:0][100C:0](=O)N5CCCC(n6nc(-c7ccc(Oc8ccc(F)cc8F)cc7)c(C(N)=O)c6N)C5)s4)c3)ccc2CC1C(=O)NC1CCCc2ccccc21)C(C)(C)C

> <Shape>
0.279

> <Color>
0.177

> <Negative vol penalty>
0.000

$$$$

  -OEChem-04052300173D

 84 93  0     1  0  0  0  0  0999 V2000
  -17.0849  -26.8281   22.2890 C   0  0  0  0  0  0  0  0  0  0  0  0
  -18.3069  -26.2141   22.5439 C   0  0  0  0  0  0  0  0  0  0  0  0
  -24.1989   -9.5994   21.6073 C   0  0  0  0  0  0  0  0  0  0  0  0
  -24.6921  -10.8027   23.6435 C   0  0  0  0  0  0  0  0  0  0  0  0
  -17.0506  -28.0973   21.7128 C   0  0  0  0  0  0  0  0  0  0  0  0
  -19.4954  -26.8684   22.2218 C   0  0  0  0  0  0  0  0  0  0  0  0
  -24.7925  -26.6001   25.2836 C   0  0  0  0  0  0  0  0  0  0  0  0
  -28.4737  -20.7769   21.3744 C   0  0  0  0  0  0  0  0  0  0  0  0
  -30.8556  -20.4457   21.1416 C   0  0  0  0  0  0  0  0  0  0  0  0
  -28.2508  -19.4627   20.9636 C   0  0  0  0  0  0  0  0  0  0  0  0
  -30.6327  -19.1314   20.7309 C   0  0  0  0  0  0  0  0  0  0  0  0
  -23.7861   -8.4986   22.3578 C   0  0  0  0  0  0  0  0  0  0  0  0
  -24.2792   -9.7019   24.3940 C   0  0  0  0  0  0  0  0  0  0  0  0
  -25.9544  -25.8557   25.0844 C   0  0  0  0  0  0  0  0  0  0  0  0
  -21.0480   -7.5615   24.1064 C   0  0  0  0  0  0  0  0  0  0  0  0
  -19.8618   -6.9301   23.7325 C   0  0  0  0  0  0  0  0  0  0  0  0
  -26.9383  -27.7175   23.9077 C   0  0  0  0  0  0  0  0  0  0  0  0
  -21.0725   -4.8711   23.3689 C   0  0  0  0  0  0  0  0  0  0  0  0
  -24.6520  -10.7515   22.2501 C   0  0  0  0  0  0  0  0  0  0  0  0
  -24.2843  -12.9632   21.0332 C   0  0  0  0  0  0  0  0  0  0  0  0
  -18.2394  -28.7715   21.3923 C   0  0  0  0  0  0  0  0  0  0  0  0
  -24.6905  -27.9071   24.7860 C   0  0  0  0  0  0  0  0  0  0  0  0
  -19.4769  -28.1472   21.6395 C   0  0  0  0  0  0  0  0  0  0  0  0
  -25.7750  -28.4773   24.1041 C   0  0  0  0  0  0  0  0  0  0  0  0
  -29.7761  -21.2685   21.4633 C   0  0  0  0  0  0  0  0  0  0  0  0
  -29.3303  -18.6399   20.6419 C   0  0  0  0  0  0  0  0  0  0  0  0
  -23.8261   -8.5498   23.7512 C   0  0  0  0  0  0  0  0  0  0  0  0
  -27.0264  -26.4133   24.3938 C   0  0  0  0  0  0  0  0  0  0  0  0
  -22.2464   -6.8478   24.1116 C   0  0  0  0  0  0  0  0  0  0  0  0
  -19.8741   -5.5849   23.3637 C   0  0  0  0  0  0  0  0  0  0  0  0
  -22.2587   -5.5026   23.7429 C   0  0  0  0  0  0  0  0  0  0  0  0
  -25.0792  -11.8888   21.4754 C   0  0  0  0  0  0  0  0  0  0  0  0
  -25.1540  -13.7732   20.3448 C   0  0  0  0  0  0  0  0  0  0  0  0
  -30.9674  -24.5579   22.4571 C   0  0  0  0  0  0  0  0  0  0  0  0
  -29.6537  -24.7540   22.5894 C   0  0  0  0  0  0  0  0  0  0  0  0
  -28.9861  -23.4845   22.2169 C   0  0  0  0  0  0  0  0  0  0  0  0
  -22.8848  -13.2072   21.2274 C   0  0  0  0  0  0  0  0  0  0  0  0
  -22.8051  -29.3663   22.6837 C   0  0  0  0  0  0  0  0  0  0  0  0
  -24.3797  -32.0151   23.6970 C   0  0  0  0  0  0  0  0  0  0  0  0
  -27.1765  -33.3559   25.1207 C   0  0  0  0  0  0  0  0  0  0  0  0
  -30.0633  -16.3570   19.8692 C   0  0  0  0  0  0  0  0  0  0  0  0
  -18.1512  -30.1224   20.7273 C   0  0  0  0  0  0  0  0  0  0  0  0
  -23.4404  -28.7064   25.0325 C   0  0  0  0  0  0  0  0  0  0  0  0
  -25.7235  -29.8837   23.5676 C   0  0  0  0  0  0  0  0  0  0  0  0
  -31.3056  -23.1863   21.9984 C   0  0  0  0  0  0  0  0  0  0  0  0
  -19.4618  -30.9044   20.7606 C   0  0  0  0  0  0  0  0  0  0  0  0
  -29.9122  -12.9568   18.8235 C   0  0  0  0  0  0  0  0  0  0  0  0
  -20.6280  -30.0093   20.3537 C   0  0  0  0  0  0  0  0  0  0  0  0
  -28.5760  -12.4642   19.3838 C   0  0  0  0  0  0  0  0  0  0  0  0
  -30.6013  -13.9328   19.7756 C   0  0  0  0  0  0  0  0  0  0  0  0
  -28.4391  -14.5756   20.7660 C   0  0  0  0  0  0  0  0  0  0  0  0
  -20.7881  -28.8352   21.3270 C   0  0  1  0  0  0  0  0  0  0  0  0
  -23.2533  -29.8457   24.0353 C   0  0  1  0  0  0  0  0  0  0  0  0
  -27.6770  -13.6403   19.8130 C   0  0  2  0  0  0  0  0  0  0  0  0
  -28.1886  -35.5542   25.7841 C   0  0  0  0  0  0  0  0  0  0  0  0
  -25.0244  -32.5980   20.7722 C   0  0  0  0  0  0  0  0  0  0  0  0
  -26.7805  -34.2033   21.5516 C   0  0  0  0  0  0  0  0  0  0  0  0
  -24.3850  -34.6055   22.1196 C   0  0  0  0  0  0  0  0  0  0  0  0
  -27.2980  -32.5716   27.9719 C   0  0  0  0  0  0  0  0  0  0  0  0
  -28.9151  -25.9690   23.0185 C   0  0  0  0  0  0  0  0  0  1  0  0
  -25.6365  -32.7380   23.2765 C   0  0  1  0  0  0  0  0  0  0  0  0
  -27.3513  -34.3686   26.2380 C   0  0  2  0  0  0  0  0  0  0  0  0
  -25.4571  -33.5090   21.9383 C   0  0  0  0  0  0  0  0  0  0  0  0
  -26.3558  -12.0029   21.0993 N   0  0  0  0  0  0  0  0  0  0  0  0
  -26.3696  -13.1586   20.4135 N   0  0  0  0  0  0  0  0  0  0  0  0
  -29.9983  -22.5778   21.8721 N   0  0  0  0  0  0  0  0  0  0  0  0
  -24.4772  -30.6226   23.8286 N   0  0  0  0  0  0  0  0  0  0  0  0
  -29.6911  -15.0223   20.1353 N   0  0  0  0  0  0  0  0  0  0  0  0
  -24.9899  -14.9442   19.6934 N   0  0  0  0  0  0  0  0  0  0  0  0
  -22.1390  -12.2731   21.9592 N   0  0  0  0  0  0  0  0  0  0  0  0
  -29.1042  -17.3048   20.2247 N   0  0  0  0  0  0  0  0  0  0  0  0
  -21.4332  -29.2737   22.5460 N   0  0  0  0  0  0  0  0  0  0  0  0
  -26.0198  -33.5801   24.4045 N   0  0  0  0  0  0  0  0  0  0  0  0
  -28.0251  -33.7379   27.4081 N   0  3  0  0  0  0  0  0  0  0  0  0
  -27.7776  -23.3128   22.2256 O   0  0  0  0  0  0  0  0  0  0  0  0
  -22.3093  -14.2152   20.7518 O   0  0  0  0  0  0  0  0  0  0  0  0
  -23.6418  -29.1015   21.8285 O   0  0  0  0  0  0  0  0  0  0  0  0
  -23.3513  -32.6628   23.9080 O   0  0  0  0  0  0  0  0  0  0  0  0
  -27.9870  -32.4580   24.9027 O   0  0  0  0  0  0  0  0  0  0  0  0
  -31.1411  -16.6365   19.3381 O   0  0  0  0  0  0  0  0  0  0  0  0
  -23.4231   -7.4759   24.4839 O   0  0  0  0  0  0  0  0  0  0  0  0
  -28.1614  -25.6887   24.1974 O   0  0  0  0  0  0  0  0  0  1  0  0
  -18.7347   -4.9782   23.0061 F   0  0  0  0  0  0  0  0  0  0  0  0
  -23.4068   -4.8115   23.7470 F   0  0  0  0  0  0  0  0  0  0  0  0
  1  2  1  0  0  0  0
  1  5  2  0  0  0  0
  2  6  2  0  0  0  0
  3 12  2  0  0  0  0
  3 19  1  0  0  0  0
  4 13  1  0  0  0  0
  4 19  2  0  0  0  0
  5 21  1  0  0  0  0
  6 23  1  0  0  0  0
  7 14  2  0  0  0  0
  7 22  1  0  0  0  0
  8 10  2  0  0  0  0
  8 25  1  0  0  0  0
  9 11  1  0  0  0  0
  9 25  2  0  0  0  0
 10 26  1  0  0  0  0
 11 26  2  0  0  0  0
 12 27  1  0  0  0  0
 13 27  2  0  0  0  0
 14 28  1  0  0  0  0
 15 16  2  0  0  0  0
 15 29  1  0  0  0  0
 16 30  1  0  0  0  0
 17 24  1  0  0  0  0
 17 28  2  0  0  0  0
 18 30  2  0  0  0  0
 18 31  1  0  0  0  0
 19 32  1  0  0  0  0
 20 32  1  0  0  0  0
 20 33  2  0  0  0  0
 20 37  1  0  0  0  0
 21 23  2  0  0  0  0
 21 42  1  0  0  0  0
 22 24  2  0  0  0  0
 22 43  1  0  0  0  0
 23 52  1  0  0  0  0
 24 44  1  0  0  0  0
 25 66  1  0  0  0  0
 26 71  1  0  0  0  0
 27 81  1  0  0  0  0
 28 82  1  0  0  0  0
 29 31  2  0  0  0  0
 29 81  1  0  0  0  0
 30 83  1  0  0  0  0
 31 84  1  0  0  0  0
 32 64  2  0  0  0  0
 33 65  1  0  0  0  0
 33 69  1  0  0  0  0
 34 35  2  0  0  0  0
 34 45  1  0  0  0  0
 35 36  1  0  0  0  0
 35 60  1  0  0  0  0
 36 66  1  0  0  0  0
 36 75  2  0  0  0  0
 37 70  1  0  0  0  0
 37 76  2  0  0  0  0
 38 53  1  0  0  0  0
 38 72  1  0  0  0  0
 38 77  2  0  0  0  0
 39 61  1  0  0  0  0
 39 67  1  0  0  0  0
 39 78  2  0  0  0  0
 40 62  1  0  0  0  0
 40 73  1  0  0  0  0
 40 79  2  0  0  0  0
 41 68  1  0  0  0  0
 41 71  1  0  0  0  0
 41 80  2  0  0  0  0
 42 46  1  0  0  0  0
 43 53  1  0  0  0  0
 44 67  1  0  0  0  0
 45 66  1  0  0  0  0
 46 48  1  0  0  0  0
 47 49  1  0  0  0  0
 47 50  1  0  0  0  0
 48 52  1  0  0  0  0
 49 54  1  0  0  0  0
 50 68  1  0  0  0  0
 51 54  1  0  0  0  0
 51 68  1  0  0  0  0
 52 72  1  0  0  0  0
 53 67  1  0  0  0  0
 54 65  1  0  0  0  0
 55 62  1  0  0  0  0
 56 63  1  0  0  0  0
 57 63  1  0  0  0  0
 58 63  1  0  0  0  0
 59 74  1  0  0  0  0
 60 82  1  0  0  0  0
 61 63  1  0  0  0  0
 61 73  1  0  0  0  0
 62 74  1  0  0  0  0
 64 65  1  0  0  0  0
M  CHG  1  74   1
M  ISO  4  41 100  60 101  71 100  82 101
M  END
> <Batch ID>
0086

> <Smiles>
CNC(C)C(=O)NC(C(=O)N1Cc2cc([101O:1][101CH2:1]C3=CCN(c4ccc([100NH:0][100C:0](=O)N5CCCC(n6nc(-c7ccc(Oc8ccc(F)cc8F)cc7)c(C(N)=O)c6N)C5)cc4)C3=O)ccc2CC1C(=O)NC1CCCc2ccccc21)C(C)(C)C

> <Shape>
0.299

> <Color>
0.155

> <Negative vol penalty>
0.000

$$$$

  -OEChem-04052300173D

 88 97  0     1  0  0  0  0  0999 V2000
  -28.8424  -33.2302   24.8713 C   0  0  0  0  0  0  0  0  0  0  0  0
  -28.7858  -31.8971   24.4775 C   0  0  0  0  0  0  0  0  0  0  0  0
  -23.1787   -9.7476   20.1865 C   0  0  0  0  0  0  0  0  0  0  0  0
  -23.8380  -10.0983   22.4842 C   0  0  0  0  0  0  0  0  0  0  0  0
  -29.0537  -17.4355   19.7103 C   0  0  0  0  0  0  0  0  0  0  0  0
  -27.6691  -33.9114   25.1927 C   0  0  0  0  0  0  0  0  0  0  0  0
  -27.5558  -31.2441   24.4061 C   0  0  0  0  0  0  0  0  0  0  0  0
  -27.0580  -28.4954   20.1822 C   0  0  0  0  0  0  0  0  0  0  0  0
  -28.8566  -18.7058   19.1691 C   0  0  0  0  0  0  0  0  0  0  0  0
  -22.4641   -8.6111   20.5650 C   0  0  0  0  0  0  0  0  0  0  0  0
  -23.1233   -8.9619   22.8627 C   0  0  0  0  0  0  0  0  0  0  0  0
  -27.7069  -27.2620   20.1450 C   0  0  0  0  0  0  0  0  0  0  0  0
  -19.9009   -8.1275   23.4461 C   0  0  0  0  0  0  0  0  0  0  0  0
  -19.0958   -8.2185   24.5815 C   0  0  0  0  0  0  0  0  0  0  0  0
  -25.6263  -26.1584   20.6666 C   0  0  0  0  0  0  0  0  0  0  0  0
  -30.1046  -19.6775   20.9954 C   0  0  0  0  0  0  0  0  0  0  0  0
  -20.3688   -6.4505   25.6258 C   0  0  0  0  0  0  0  0  0  0  0  0
  -23.8657  -10.4912   21.1461 C   0  0  0  0  0  0  0  0  0  0  0  0
  -29.7761  -17.2861   20.8942 C   0  0  0  0  0  0  0  0  0  0  0  0
  -24.1270  -12.9876   20.6909 C   0  0  0  0  0  0  0  0  0  0  0  0
  -26.4232  -33.2692   25.1159 C   0  0  0  0  0  0  0  0  0  0  0  0
  -25.6883  -28.5705   20.4731 C   0  0  0  0  0  0  0  0  0  0  0  0
  -26.3649  -31.9169   24.7282 C   0  0  0  0  0  0  0  0  0  0  0  0
  -24.9618  -27.3938   20.7043 C   0  0  0  0  0  0  0  0  0  0  0  0
  -30.3016  -18.4071   21.5367 C   0  0  0  0  0  0  0  0  0  0  0  0
  -29.3821  -19.8268   19.8116 C   0  0  0  0  0  0  0  0  0  0  0  0
  -22.4363   -8.2183   21.9031 C   0  0  0  0  0  0  0  0  0  0  0  0
  -26.9917  -26.0934   20.3900 C   0  0  0  0  0  0  0  0  0  0  0  0
  -20.9400   -7.1980   23.4005 C   0  0  0  0  0  0  0  0  0  0  0  0
  -19.3298   -7.3800   25.6714 C   0  0  0  0  0  0  0  0  0  0  0  0
  -21.1739   -6.3595   24.4904 C   0  0  0  0  0  0  0  0  0  0  0  0
  -24.6046  -11.6649   20.7556 C   0  0  0  0  0  0  0  0  0  0  0  0
  -25.2080  -13.7227   20.2694 C   0  0  0  0  0  0  0  0  0  0  0  0
  -28.8612  -22.8304   17.8040 C   0  0  0  0  0  0  0  0  0  0  0  0
  -28.8833  -23.3574   19.0307 C   0  0  0  0  0  0  0  0  0  0  0  0
  -29.0447  -21.3684   17.9269 C   0  0  0  0  0  0  0  0  0  0  0  0
  -29.1011  -22.2616   19.9992 C   0  0  0  0  0  0  0  0  0  0  0  0
  -29.9661  -15.9478   21.4376 C   0  0  0  0  0  0  0  0  0  0  0  0
  -22.8230  -13.5055   20.9856 C   0  0  0  0  0  0  0  0  0  0  0  0
  -30.6634  -14.8952   20.6636 C   0  0  0  0  0  0  0  0  0  0  0  0
  -23.9548  -29.9062   22.7784 C   0  0  0  0  0  0  0  0  0  0  0  0
  -21.4680  -28.9324   20.9373 C   0  0  0  0  0  0  0  0  0  0  0  0
  -20.2907  -26.7893   18.5565 C   0  0  0  0  0  0  0  0  0  0  0  0
  -25.1867  -34.0330   25.5188 C   0  0  0  0  0  0  0  0  0  0  0  0
  -24.9975  -29.9066   20.4831 C   0  0  0  0  0  0  0  0  0  0  0  0
  -23.4854  -27.4187   21.0012 C   0  0  0  0  0  0  0  0  0  0  0  0
  -23.8881  -33.3772   25.0564 C   0  0  0  0  0  0  0  0  0  0  0  0
  -29.6807  -12.2658   18.4327 C   0  0  0  0  0  0  0  0  0  0  0  0
  -23.9066  -31.8828   25.3616 C   0  0  0  0  0  0  0  0  0  0  0  0
  -28.2460  -11.9579   18.8601 C   0  0  0  0  0  0  0  0  0  0  0  0
  -30.5448  -12.6648   19.6245 C   0  0  0  0  0  0  0  0  0  0  0  0
  -28.5558  -13.5068   20.8426 C   0  0  0  0  0  0  0  0  0  0  0  0
  -25.0473  -31.1812   24.6146 C   0  0  1  0  0  0  0  0  0  0  0  0
  -23.7069  -29.9059   21.2965 C   0  0  1  0  0  0  0  0  0  0  0  0
  -27.6457  -13.1267   19.6616 C   0  0  2  0  0  0  0  0  0  0  0  0
  -31.0779  -18.2753   22.8063 C   0  0  0  0  0  0  0  0  0  0  0  0
  -28.6848  -23.4764   16.4801 C   0  0  0  0  0  0  0  0  0  0  0  0
  -18.2070  -26.2120   17.2829 C   0  0  0  0  0  0  0  0  0  0  0  0
  -20.3458  -27.5395   23.4093 C   0  0  0  0  0  0  0  0  0  0  0  0
  -18.8357  -26.2310   21.9009 C   0  0  0  0  0  0  0  0  0  0  0  0
  -18.6393  -28.7154   22.0096 C   0  0  0  0  0  0  0  0  0  0  0  0
  -21.5664  -27.4115   15.9595 C   0  0  0  0  0  0  0  0  0  0  0  0
  -28.7421  -24.7665   19.4783 C   0  0  0  0  0  0  0  0  0  1  0  0
  -20.6310  -27.6792   20.8471 C   0  0  1  0  0  0  0  0  0  0  0  0
  -19.4877  -27.0320   17.2913 C   0  0  2  0  0  0  0  0  0  0  0  0
  -19.6412  -27.5407   22.0381 C   0  0  0  0  0  0  0  0  0  0  0  0
  -25.8889  -11.5626   20.4032 N   0  0  0  0  0  0  0  0  0  0  0  0
  -29.5462  -15.5908   22.6198 N   0  0  0  0  0  0  0  0  0  0  0  0
  -26.2275  -12.8304   20.1130 N   0  0  0  0  0  0  0  0  0  0  0  0
  -29.1852  -21.0928   19.2713 N   0  0  0  0  0  0  0  0  0  0  0  0
  -29.9290  -13.7513   20.3837 N   0  0  0  0  0  0  0  0  0  0  0  0
  -22.8564  -28.7498   21.0060 N   0  0  0  0  0  0  0  0  0  0  0  0
  -25.3763  -15.0389   20.0210 N   0  0  0  0  0  0  0  0  0  0  0  0
  -21.8286  -12.6119   21.4066 N   0  0  0  0  0  0  0  0  0  0  0  0
  -24.6953  -30.9841   23.2248 N   0  0  0  0  0  0  0  0  0  0  0  0
  -19.9892  -27.7105   19.5373 N   0  0  0  0  0  0  0  0  0  0  0  0
  -20.2895  -26.6636   16.0903 N   0  3  0  0  0  0  0  0  0  0  0  0
  -29.0621  -20.5971   16.9806 O   0  0  0  0  0  0  0  0  0  0  0  0
  -29.1815  -22.4198   21.2072 O   0  0  0  0  0  0  0  0  0  0  0  0
  -22.5431  -14.7221   20.8631 O   0  0  0  0  0  0  0  0  0  0  0  0
  -31.8198  -15.1482   20.3522 O   0  0  0  0  0  0  0  0  0  0  0  0
  -23.5061  -28.9966   23.4662 O   0  0  0  0  0  0  0  0  0  0  0  0
  -20.9108  -30.0329   20.9393 O   0  0  0  0  0  0  0  0  0  0  0  0
  -21.1013  -25.8720   18.6653 O   0  0  0  0  0  0  0  0  0  0  0  0
  -21.7389   -7.1095   22.2729 O   0  0  0  0  0  0  0  0  0  0  0  0
  -27.6227  -24.8883   20.3550 O   0  0  0  0  0  0  0  0  0  1  0  0
  -18.5575   -7.4685   26.7622 F   0  0  0  0  0  0  0  0  0  0  0  0
  -22.1714   -5.4654   24.4529 F   0  0  0  0  0  0  0  0  0  0  0  0
  1  2  1  0  0  0  0
  1  6  2  0  0  0  0
  2  7  2  0  0  0  0
  3 10  2  0  0  0  0
  3 18  1  0  0  0  0
  4 11  1  0  0  0  0
  4 18  2  0  0  0  0
  5  9  2  0  0  0  0
  5 19  1  0  0  0  0
  6 21  1  0  0  0  0
  7 23  1  0  0  0  0
  8 12  2  0  0  0  0
  8 22  1  0  0  0  0
  9 26  1  0  0  0  0
 10 27  1  0  0  0  0
 11 27  2  0  0  0  0
 12 28  1  0  0  0  0
 13 14  2  0  0  0  0
 13 29  1  0  0  0  0
 14 30  1  0  0  0  0
 15 24  1  0  0  0  0
 15 28  2  0  0  0  0
 16 25  1  0  0  0  0
 16 26  2  0  0  0  0
 17 30  2  0  0  0  0
 17 31  1  0  0  0  0
 18 32  1  0  0  0  0
 19 25  2  0  0  0  0
 19 38  1  0  0  0  0
 20 32  1  0  0  0  0
 20 33  2  0  0  0  0
 20 39  1  0  0  0  0
 21 23  2  0  0  0  0
 21 44  1  0  0  0  0
 22 24  2  0  0  0  0
 22 45  1  0  0  0  0
 23 53  1  0  0  0  0
 24 46  1  0  0  0  0
 25 56  1  0  0  0  0
 26 70  1  0  0  0  0
 27 85  1  0  0  0  0
 28 86  1  0  0  0  0
 29 31  2  0  0  0  0
 29 85  1  0  0  0  0
 30 87  1  0  0  0  0
 31 88  1  0  0  0  0
 32 67  2  0  0  0  0
 33 69  1  0  0  0  0
 33 73  1  0  0  0  0
 34 35  2  0  0  0  0
 34 36  1  0  0  0  0
 34 57  1  0  0  0  0
 35 37  1  0  0  0  0
 35 63  1  0  0  0  0
 36 70  1  0  0  0  0
 36 78  2  0  0  0  0
 37 70  1  0  0  0  0
 37 79  2  0  0  0  0
 38 40  1  0  0  0  0
 38 68  2  0  0  0  0
 39 74  1  0  0  0  0
 39 80  2  0  0  0  0
 40 71  1  0  0  0  0
 40 81  2  0  0  0  0
 41 54  1  0  0  0  0
 41 75  1  0  0  0  0
 41 82  2  0  0  0  0
 42 64  1  0  0  0  0
 42 72  1  0  0  0  0
 42 83  2  0  0  0  0
 43 65  1  0  0  0  0
 43 76  1  0  0  0  0
 43 84  2  0  0  0  0
 44 47  1  0  0  0  0
 45 54  1  0  0  0  0
 46 72  1  0  0  0  0
 47 49  1  0  0  0  0
 48 50  1  0  0  0  0
 48 51  1  0  0  0  0
 49 53  1  0  0  0  0
 50 55  1  0  0  0  0
 51 71  1  0  0  0  0
 52 55  1  0  0  0  0
 52 71  1  0  0  0  0
 53 75  1  0  0  0  0
 54 72  1  0  0  0  0
 55 69  1  0  0  0  0
 58 65  1  0  0  0  0
 59 66  1  0  0  0  0
 60 66  1  0  0  0  0
 61 66  1  0  0  0  0
 62 77  1  0  0  0  0
 63 86  1  0  0  0  0
 64 66  1  0  0  0  0
 64 76  1  0  0  0  0
 65 77  1  0  0  0  0
 67 69  1  0  0  0  0
M  CHG  1  77   1
M  ISO  4  38 100  40 100  63 101  86 101
M  END
> <Batch ID>
0086

> <Smiles>
CNC(C)C(=O)NC(C(=O)N1Cc2cc([101O:1][101CH2:1]C3=C(C)C(=O)N(c4ccc([100C:0](=N)[100C:0](=O)N5CCCC(n6nc(-c7ccc(Oc8ccc(F)cc8F)cc7)c(C(N)=O)c6N)C5)c(C)c4)C3=O)ccc2CC1C(=O)NC1CCCc2ccccc21)C(C)(C)C

> <Shape>
0.422

> <Color>
0.200

> <Negative vol penalty>
0.000

$$$$

  -OEChem-04052300173D

 86 95  0     1  0  0  0  0  0999 V2000
  -26.8110  -36.3970   21.4556 C   0  0  0  0  0  0  0  0  0  0  0  0
  -27.6348  -35.2764   21.4235 C   0  0  0  0  0  0  0  0  0  0  0  0
  -23.6322   -9.7797   21.9601 C   0  0  0  0  0  0  0  0  0  0  0  0
  -24.4986  -11.1086   23.7823 C   0  0  0  0  0  0  0  0  0  0  0  0
  -25.4739  -36.2674   21.8288 C   0  0  0  0  0  0  0  0  0  0  0  0
  -27.1221  -34.0256   21.7657 C   0  0  0  0  0  0  0  0  0  0  0  0
  -28.6806  -28.6204   19.3447 C   0  0  0  0  0  0  0  0  0  0  0  0
  -31.7715  -19.2844   19.5998 C   0  0  0  0  0  0  0  0  0  0  0  0
  -31.3114  -17.9865   19.3783 C   0  0  0  0  0  0  0  0  0  0  0  0
  -23.1339   -8.8513   22.8740 C   0  0  0  0  0  0  0  0  0  0  0  0
  -24.0003  -10.1802   24.6963 C   0  0  0  0  0  0  0  0  0  0  0  0
  -29.5478  -27.6161   19.7725 C   0  0  0  0  0  0  0  0  0  0  0  0
  -20.4711   -8.5707   24.9388 C   0  0  0  0  0  0  0  0  0  0  0  0
  -19.1724   -8.1009   24.7430 C   0  0  0  0  0  0  0  0  0  0  0  0
  -27.6870  -26.4352   20.7531 C   0  0  0  0  0  0  0  0  0  0  0  0
  -29.5029  -20.0244   19.9775 C   0  0  0  0  0  0  0  0  0  0  0  0
  -20.0175   -5.8460   24.5474 C   0  0  0  0  0  0  0  0  0  0  0  0
  -24.3146  -10.9084   22.4142 C   0  0  0  0  0  0  0  0  0  0  0  0
  -24.1665  -12.9996   20.9608 C   0  0  0  0  0  0  0  0  0  0  0  0
  -24.9421  -35.0128   22.1664 C   0  0  0  0  0  0  0  0  0  0  0  0
  -27.3092  -28.5449   19.6279 C   0  0  0  0  0  0  0  0  0  0  0  0
  -25.7770  -33.8793   22.1451 C   0  0  0  0  0  0  0  0  0  0  0  0
  -26.8040  -27.4385   20.3257 C   0  0  0  0  0  0  0  0  0  0  0  0
  -30.8673  -20.3034   19.8995 C   0  0  0  0  0  0  0  0  0  0  0  0
  -29.9469  -17.7074   19.4563 C   0  0  0  0  0  0  0  0  0  0  0  0
  -23.3180   -9.0515   24.2421 C   0  0  0  0  0  0  0  0  0  0  0  0
  -29.0516  -26.5247   20.4793 C   0  0  0  0  0  0  0  0  0  0  0  0
  -21.5430   -7.6781   24.9389 C   0  0  0  0  0  0  0  0  0  0  0  0
  -18.9456   -6.7386   24.5473 C   0  0  0  0  0  0  0  0  0  0  0  0
  -29.0427  -18.7264   19.7559 C   0  0  0  0  0  0  0  0  0  0  0  0
  -21.3162   -6.3158   24.7433 C   0  0  0  0  0  0  0  0  0  0  0  0
  -24.8300  -11.8675   21.4706 C   0  0  0  0  0  0  0  0  0  0  0  0
  -25.0764  -13.5762   20.1088 C   0  0  0  0  0  0  0  0  0  0  0  0
  -32.6252  -23.3917   20.6967 C   0  0  0  0  0  0  0  0  0  0  0  0
  -31.4753  -23.8827   20.2394 C   0  0  0  0  0  0  0  0  0  0  0  0
  -32.5603  -21.9243   20.6425 C   0  0  0  0  0  0  0  0  0  0  0  0
  -30.6141  -22.7499   19.8481 C   0  0  0  0  0  0  0  0  0  0  0  0
  -22.8457  -13.4865   21.2332 C   0  0  0  0  0  0  0  0  0  0  0  0
  -25.2589  -30.3243   21.2813 C   0  0  0  0  0  0  0  0  0  0  0  0
  -23.0787  -28.2606   20.0521 C   0  0  0  0  0  0  0  0  0  0  0  0
  -22.4246  -25.1781   18.7417 C   0  0  0  0  0  0  0  0  0  0  0  0
  -30.2482  -15.2640   18.9223 C   0  0  0  0  0  0  0  0  0  0  0  0
  -23.5028  -34.9298   22.6091 C   0  0  0  0  0  0  0  0  0  0  0  0
  -26.3830  -29.6232   19.1363 C   0  0  0  0  0  0  0  0  0  0  0  0
  -25.3371  -27.3000   20.6375 C   0  0  0  0  0  0  0  0  0  0  0  0
  -22.9423  -33.5099   22.5954 C   0  0  0  0  0  0  0  0  0  0  0  0
  -29.4846  -11.8372   18.3298 C   0  0  0  0  0  0  0  0  0  0  0  0
  -23.9231  -32.5425   23.2503 C   0  0  0  0  0  0  0  0  0  0  0  0
  -28.1510  -11.6327   19.0521 C   0  0  0  0  0  0  0  0  0  0  0  0
  -30.4030  -12.7897   19.0933 C   0  0  0  0  0  0  0  0  0  0  0  0
  -28.4702  -13.8801   20.1630 C   0  0  0  0  0  0  0  0  0  0  0  0
  -25.2515  -32.5016   22.4855 C   0  0  1  0  0  0  0  0  0  0  0  0
  -25.0805  -29.6983   19.9270 C   0  0  1  0  0  0  0  0  0  0  0  0
  -27.4860  -12.9791   19.3994 C   0  0  2  0  0  0  0  0  0  0  0  0
  -20.5418  -23.7692   17.8657 C   0  0  0  0  0  0  0  0  0  0  0  0
  -22.1270  -27.7611   22.9077 C   0  0  0  0  0  0  0  0  0  0  0  0
  -20.9532  -25.7091   22.0834 C   0  0  0  0  0  0  0  0  0  0  0  0
  -20.2951  -27.9535   21.2162 C   0  0  0  0  0  0  0  0  0  0  0  0
  -23.6754  -24.9632   16.0681 C   0  0  0  0  0  0  0  0  0  0  0  0
  -31.0558  -25.3010   20.1033 C   0  0  0  0  0  0  0  0  0  1  0  0
  -22.4933  -26.9391   20.4878 C   0  0  1  0  0  0  0  0  0  0  0  0
  -21.6467  -24.7517   17.5098 C   0  0  2  0  0  0  0  0  0  0  0  0
  -21.4951  -27.0940   21.6698 C   0  0  0  0  0  0  0  0  0  0  0  0
  -26.0660  -11.7312   20.9830 N   0  0  0  0  0  0  0  0  0  0  0  0
  -26.1863  -12.7851   20.1578 N   0  0  0  0  0  0  0  0  0  0  0  0
  -31.3257  -21.5974   20.1197 N   0  0  0  0  0  0  0  0  0  0  0  0
  -24.4726  -28.3834   20.1411 N   0  0  0  0  0  0  0  0  0  0  0  0
  -29.7071  -14.0453   19.3836 N   0  0  0  0  0  0  0  0  0  0  0  0
  -25.0274  -14.6777   19.3298 N   0  0  0  0  0  0  0  0  0  0  0  0
  -22.0432  -12.7731   22.1340 N   0  0  0  0  0  0  0  0  0  0  0  0
  -29.4824  -16.3880   19.2303 N   0  0  0  0  0  0  0  0  0  0  0  0
  -25.1209  -31.6992   21.2882 N   0  0  0  0  0  0  0  0  0  0  0  0
  -21.9149  -26.3349   19.2924 N   0  0  0  0  0  0  0  0  0  0  0  0
  -22.5547  -24.1008   16.5235 N   0  3  0  0  0  0  0  0  0  0  0  0
  -33.4661  -21.1922   21.0067 O   0  0  0  0  0  0  0  0  0  0  0  0
  -29.4927  -22.8683   19.3807 O   0  0  0  0  0  0  0  0  0  0  0  0
  -22.3847  -14.5143   20.6812 O   0  0  0  0  0  0  0  0  0  0  0  0
  -25.5022  -29.6124   22.2486 O   0  0  0  0  0  0  0  0  0  0  0  0
  -22.3277  -29.1486   19.6410 O   0  0  0  0  0  0  0  0  0  0  0  0
  -23.3857  -24.5461   19.1745 O   0  0  0  0  0  0  0  0  0  0  0  0
  -31.2984  -15.3045   18.2763 O   0  0  0  0  0  0  0  0  0  0  0  0
  -22.8317   -8.1459   25.1343 O   0  0  0  0  0  0  0  0  0  0  0  0
  -29.8960  -25.5434   20.8986 O   0  0  0  0  0  0  0  0  0  1  0  0
  -17.6982   -6.2875   24.3608 F   0  0  0  0  0  0  0  0  0  0  0  0
  -27.7288  -18.4701   19.8321 F   0  0  0  0  0  0  0  0  0  0  0  0
  -22.3418   -5.4533   24.7435 F   0  0  0  0  0  0  0  0  0  0  0  0
  1  2  1  0  0  0  0
  1  5  2  0  0  0  0
  2  6  2  0  0  0  0
  3 10  2  0  0  0  0
  3 18  1  0  0  0  0
  4 11  1  0  0  0  0
  4 18  2  0  0  0  0
  5 20  1  0  0  0  0
  6 22  1  0  0  0  0
  7 12  2  0  0  0  0
  7 21  1  0  0  0  0
  8  9  2  0  0  0  0
  8 24  1  0  0  0  0
  9 25  1  0  0  0  0
 10 26  1  0  0  0  0
 11 26  2  0  0  0  0
 12 27  1  0  0  0  0
 13 14  2  0  0  0  0
 13 28  1  0  0  0  0
 14 29  1  0  0  0  0
 15 23  1  0  0  0  0
 15 27  2  0  0  0  0
 16 24  2  0  0  0  0
 16 30  1  0  0  0  0
 17 29  2  0  0  0  0
 17 31  1  0  0  0  0
 18 32  1  0  0  0  0
 19 32  1  0  0  0  0
 19 33  2  0  0  0  0
 19 38  1  0  0  0  0
 20 22  2  0  0  0  0
 20 43  1  0  0  0  0
 21 23  2  0  0  0  0
 21 44  1  0  0  0  0
 22 52  1  0  0  0  0
 23 45  1  0  0  0  0
 24 66  1  0  0  0  0
 25 30  2  0  0  0  0
 25 71  1  0  0  0  0
 26 82  1  0  0  0  0
 27 83  1  0  0  0  0
 28 31  2  0  0  0  0
 28 82  1  0  0  0  0
 29 84  1  0  0  0  0
 30 85  1  0  0  0  0
 31 86  1  0  0  0  0
 32 64  2  0  0  0  0
 33 65  1  0  0  0  0
 33 69  1  0  0  0  0
 34 35  2  0  0  0  0
 34 36  1  0  0  0  0
 35 37  1  0  0  0  0
 35 60  1  0  0  0  0
 36 66  1  0  0  0  0
 36 75  2  0  0  0  0
 37 66  1  0  0  0  0
 37 76  2  0  0  0  0
 38 70  1  0  0  0  0
 38 77  2  0  0  0  0
 39 53  1  0  0  0  0
 39 72  1  0  0  0  0
 39 78  2  0  0  0  0
 40 61  1  0  0  0  0
 40 67  1  0  0  0  0
 40 79  2  0  0  0  0
 41 62  1  0  0  0  0
 41 73  1  0  0  0  0
 41 80  2  0  0  0  0
 42 68  1  0  0  0  0
 42 71  1  0  0  0  0
 42 81  2  0  0  0  0
 43 46  1  0  0  0  0
 44 53  1  0  0  0  0
 45 67  1  0  0  0  0
 46 48  1  0  0  0  0
 47 49  1  0  0  0  0
 47 50  1  0  0  0  0
 48 52  1  0  0  0  0
 49 54  1  0  0  0  0
 50 68  1  0  0  0  0
 51 54  1  0  0  0  0
 51 68  1  0  0  0  0
 52 72  1  0  0  0  0
 53 67  1  0  0  0  0
 54 65  1  0  0  0  0
 55 62  1  0  0  0  0
 56 63  1  0  0  0  0
 57 63  1  0  0  0  0
 58 63  1  0  0  0  0
 59 74  1  0  0  0  0
 60 83  1  0  0  0  0
 61 63  1  0  0  0  0
 61 73  1  0  0  0  0
 62 74  1  0  0  0  0
 64 65  1  0  0  0  0
M  CHG  1  74   1
M  ISO  4  42 100  60 101  71 100  83 101
M  END
> <Batch ID>
0086

> <Smiles>
CNC(C)C(=O)NC(C(=O)N1Cc2cc([101O:1][101CH2:1]C3=CC(=O)N(c4ccc([100NH:0][100C:0](=O)N5CCCC(n6nc(-c7ccc(Oc8ccc(F)cc8F)cc7)c(C(N)=O)c6N)C5)c(F)c4)C3=O)ccc2CC1C(=O)NC1CCCc2ccccc21)C(C)(C)C

> <Shape>
0.295

> <Color>
0.132

> <Negative vol penalty>
0.000

$$$$

  -OEChem-04052300173D

 87 96  0     1  0  0  0  0  0999 V2000
  -30.2320  -31.6890   26.2741 C   0  0  0  0  0  0  0  0  0  0  0  0
  -30.2856  -30.5072   25.5422 C   0  0  0  0  0  0  0  0  0  0  0  0
  -23.9935  -14.8439   23.3511 C   0  0  0  0  0  0  0  0  0  0  0  0
  -23.1174  -15.5813   21.2237 C   0  0  0  0  0  0  0  0  0  0  0  0
  -29.0107  -32.3330   26.4677 C   0  0  0  0  0  0  0  0  0  0  0  0
  -29.1176  -29.9680   25.0043 C   0  0  0  0  0  0  0  0  0  0  0  0
  -28.5570  -26.9461   19.7071 C   0  0  0  0  0  0  0  0  0  0  0  0
  -28.4345  -17.3038   19.1511 C   0  0  0  0  0  0  0  0  0  0  0  0
  -27.4111  -18.0943   17.1103 C   0  0  0  0  0  0  0  0  0  0  0  0
  -28.9228  -16.1867   18.4735 C   0  0  0  0  0  0  0  0  0  0  0  0
  -27.8995  -16.9772   16.4327 C   0  0  0  0  0  0  0  0  0  0  0  0
  -23.2774  -15.8526   23.9956 C   0  0  0  0  0  0  0  0  0  0  0  0
  -22.4013  -16.5900   21.8682 C   0  0  0  0  0  0  0  0  0  0  0  0
  -28.5041  -25.5863   19.4040 C   0  0  0  0  0  0  0  0  0  0  0  0
  -19.5413  -16.8648   23.6474 C   0  0  0  0  0  0  0  0  0  0  0  0
  -18.2125  -17.0570   23.2695 C   0  0  0  0  0  0  0  0  0  0  0  0
  -26.0940  -25.6890   19.3911 C   0  0  0  0  0  0  0  0  0  0  0  0
  -18.7272  -19.3243   22.6124 C   0  0  0  0  0  0  0  0  0  0  0  0
  -23.9135  -14.7083   21.9651 C   0  0  0  0  0  0  0  0  0  0  0  0
  -24.2175  -12.3568   21.0239 C   0  0  0  0  0  0  0  0  0  0  0  0
  -27.8285  -31.8066   25.9237 C   0  0  0  0  0  0  0  0  0  0  0  0
  -27.3766  -27.6865   19.8655 C   0  0  0  0  0  0  0  0  0  0  0  0
  -27.8790  -30.6048   25.1919 C   0  0  0  0  0  0  0  0  0  0  0  0
  -26.1346  -27.0586   19.6936 C   0  0  0  0  0  0  0  0  0  0  0  0
  -27.6786  -18.2576   18.4695 C   0  0  0  0  0  0  0  0  0  0  0  0
  -28.6553  -16.0234   17.1143 C   0  0  0  0  0  0  0  0  0  0  0  0
  -22.4813  -16.7256   23.2542 C   0  0  0  0  0  0  0  0  0  0  0  0
  -27.2725  -24.9569   19.2488 C   0  0  0  0  0  0  0  0  0  0  0  0
  -20.4631  -17.9024   23.5079 C   0  0  0  0  0  0  0  0  0  0  0  0
  -17.8054  -18.2867   22.7520 C   0  0  0  0  0  0  0  0  0  0  0  0
  -20.0561  -19.1321   22.9904 C   0  0  0  0  0  0  0  0  0  0  0  0
  -24.6534  -13.6669   21.2987 C   0  0  0  0  0  0  0  0  0  0  0  0
  -25.2799  -11.7691   20.3817 C   0  0  0  0  0  0  0  0  0  0  0  0
  -26.3949  -20.7694   20.7731 C   0  0  0  0  0  0  0  0  0  0  0  0
  -26.4506  -21.4819   19.6498 C   0  0  0  0  0  0  0  0  0  0  0  0
  -26.8556  -19.4042   20.4829 C   0  0  0  0  0  0  0  0  0  0  0  0
  -26.9705  -20.6111   18.5776 C   0  0  0  0  0  0  0  0  0  0  0  0
  -29.3796  -13.5983   14.3940 C   0  0  0  0  0  0  0  0  0  0  0  0
  -28.9217  -14.6598   15.0613 C   0  0  0  0  0  0  0  0  0  0  0  0
  -22.9643  -11.7275   21.3223 C   0  0  0  0  0  0  0  0  0  0  0  0
  -26.0489  -29.3069   22.2561 C   0  0  0  0  0  0  0  0  0  0  0  0
  -23.9027  -30.1518   19.9752 C   0  0  0  0  0  0  0  0  0  0  0  0
  -22.4054  -29.4271   16.9953 C   0  0  0  0  0  0  0  0  0  0  0  0
  -29.7876  -13.8305   17.1561 C   0  0  0  0  0  0  0  0  0  0  0  0
  -26.5249  -32.5131   26.1996 C   0  0  0  0  0  0  0  0  0  0  0  0
  -27.4509  -29.1584   20.1661 C   0  0  0  0  0  0  0  0  0  0  0  0
  -24.8386  -27.8131   19.8332 C   0  0  0  0  0  0  0  0  0  0  0  0
  -25.3883  -32.0756   25.2793 C   0  0  0  0  0  0  0  0  0  0  0  0
  -30.0428  -11.9371   20.0781 C   0  0  0  0  0  0  0  0  0  0  0  0
  -25.3407  -30.5545   25.1757 C   0  0  0  0  0  0  0  0  0  0  0  0
  -28.6532  -12.0388   20.7063 C   0  0  0  0  0  0  0  0  0  0  0  0
  -30.4697  -13.2707   19.4756 C   0  0  0  0  0  0  0  0  0  0  0  0
  -28.1143  -13.9179   19.0796 C   0  0  0  0  0  0  0  0  0  0  0  0
  -26.6373  -30.0019   24.5716 C   0  0  1  0  0  0  0  0  0  0  0  0
  -26.1800  -29.7012   20.8121 C   0  0  1  0  0  0  0  0  0  0  0  0
  -27.6303  -12.5909   19.6979 C   0  0  2  0  0  0  0  0  0  0  0  0
  -20.6628  -30.2848   15.4062 C   0  0  0  0  0  0  0  0  0  0  0  0
  -21.7088  -29.1591   21.8490 C   0  0  0  0  0  0  0  0  0  0  0  0
  -20.1423  -29.1478   19.8960 C   0  0  0  0  0  0  0  0  0  0  0  0
  -21.1741  -31.2892   20.6527 C   0  0  0  0  0  0  0  0  0  0  0  0
  -24.3781  -29.7223   14.8088 C   0  0  0  0  0  0  0  0  0  0  0  0
  -26.0849  -22.9044   19.4291 C   0  0  0  0  0  0  0  0  0  1  0  0
  -22.6041  -29.5766   19.4636 C   0  0  1  0  0  0  0  0  0  0  0  0
  -22.1400  -30.2797   15.7676 C   0  0  2  0  0  0  0  0  0  0  0  0
  -21.4315  -29.7782   20.4645 C   0  0  0  0  0  0  0  0  0  0  0  0
  -25.8959  -13.8982   20.8666 N   0  0  0  0  0  0  0  0  0  0  0  0
  -26.2499  -12.7254   20.3138 N   0  0  0  0  0  0  0  0  0  0  0  0
  -27.1914  -19.3710   19.1448 N   0  0  0  0  0  0  0  0  0  0  0  0
  -24.9636  -29.2489   20.1338 N   0  0  0  0  0  0  0  0  0  0  0  0
  -29.4702  -13.7637   18.5273 N   0  0  0  0  0  0  0  0  0  0  0  0
  -25.4696  -10.5326   19.8742 N   0  0  0  0  0  0  0  0  0  0  0  0
  -21.9826  -12.4753   21.9866 N   0  0  0  0  0  0  0  0  0  0  0  0
  -26.6461  -30.1888   23.1365 N   0  0  0  0  0  0  0  0  0  0  0  0
  -22.3804  -30.1763   18.1526 N   0  0  0  0  0  0  0  0  0  0  0  0
  -29.1622  -14.8634   16.4104 N   0  0  0  0  0  0  0  0  0  0  0  0
  -22.9076  -29.7605   14.6005 N   0  3  0  0  0  0  0  0  0  0  0  0
  -26.9076  -18.5150   21.3171 O   0  0  0  0  0  0  0  0  0  0  0  0
  -27.1488  -20.9716   17.4251 O   0  0  0  0  0  0  0  0  0  0  0  0
  -22.7282  -10.5322   21.0238 O   0  0  0  0  0  0  0  0  0  0  0  0
  -25.4489  -28.2796   22.5498 O   0  0  0  0  0  0  0  0  0  0  0  0
  -23.9753  -31.3590   20.2180 O   0  0  0  0  0  0  0  0  0  0  0  0
  -22.6104  -28.2168   16.9341 O   0  0  0  0  0  0  0  0  0  0  0  0
  -30.5864  -13.0424   16.6335 O   0  0  0  0  0  0  0  0  0  0  0  0
  -21.7822  -17.7098   23.8828 O   0  0  0  0  0  0  0  0  0  0  0  0
  -27.2181  -23.6296   18.9535 O   0  0  0  0  0  0  0  0  0  1  0  0
  -16.5296  -18.4706   22.3876 F   0  0  0  0  0  0  0  0  0  0  0  0
  -20.9373  -20.1322   22.8529 F   0  0  0  0  0  0  0  0  0  0  0  0
  1  2  1  0  0  0  0
  1  5  2  0  0  0  0
  2  6  2  0  0  0  0
  3 12  2  0  0  0  0
  3 19  1  0  0  0  0
  4 13  1  0  0  0  0
  4 19  2  0  0  0  0
  5 21  1  0  0  0  0
  6 23  1  0  0  0  0
  7 14  2  0  0  0  0
  7 22  1  0  0  0  0
  8 10  2  0  0  0  0
  8 25  1  0  0  0  0
  9 11  1  0  0  0  0
  9 25  2  0  0  0  0
 10 26  1  0  0  0  0
 11 26  2  0  0  0  0
 12 27  1  0  0  0  0
 13 27  2  0  0  0  0
 14 28  1  0  0  0  0
 15 16  2  0  0  0  0
 15 29  1  0  0  0  0
 16 30  1  0  0  0  0
 17 24  1  0  0  0  0
 17 28  2  0  0  0  0
 18 30  2  0  0  0  0
 18 31  1  0  0  0  0
 19 32  1  0  0  0  0
 20 32  1  0  0  0  0
 20 33  2  0  0  0  0
 20 40  1  0  0  0  0
 21 23  2  0  0  0  0
 21 45  1  0  0  0  0
 22 24  2  0  0  0  0
 22 46  1  0  0  0  0
 23 54  1  0  0  0  0
 24 47  1  0  0  0  0
 25 68  1  0  0  0  0
 26 75  1  0  0  0  0
 27 84  1  0  0  0  0
 28 85  1  0  0  0  0
 29 31  2  0  0  0  0
 29 84  1  0  0  0  0
 30 86  1  0  0  0  0
 31 87  1  0  0  0  0
 32 66  2  0  0  0  0
 33 67  1  0  0  0  0
 33 71  1  0  0  0  0
 34 35  2  0  0  0  0
 34 36  1  0  0  0  0
 35 37  1  0  0  0  0
 35 62  1  0  0  0  0
 36 68  1  0  0  0  0
 36 77  2  0  0  0  0
 37 68  1  0  0  0  0
 37 78  2  0  0  0  0
 38 39  2  0  0  0  0
 39 75  1  0  0  0  0
 40 72  1  0  0  0  0
 40 79  2  0  0  0  0
 41 55  1  0  0  0  0
 41 73  1  0  0  0  0
 41 80  2  0  0  0  0
 42 63  1  0  0  0  0
 42 69  1  0  0  0  0
 42 81  2  0  0  0  0
 43 64  1  0  0  0  0
 43 74  1  0  0  0  0
 43 82  2  0  0  0  0
 44 70  1  0  0  0  0
 44 75  1  0  0  0  0
 44 83  2  0  0  0  0
 45 48  1  0  0  0  0
 46 55  1  0  0  0  0
 47 69  1  0  0  0  0
 48 50  1  0  0  0  0
 49 51  1  0  0  0  0
 49 52  1  0  0  0  0
 50 54  1  0  0  0  0
 51 56  1  0  0  0  0
 52 70  1  0  0  0  0
 53 56  1  0  0  0  0
 53 70  1  0  0  0  0
 54 73  1  0  0  0  0
 55 69  1  0  0  0  0
 56 67  1  0  0  0  0
 57 64  1  0  0  0  0
 58 65  1  0  0  0  0
 59 65  1  0  0  0  0
 60 65  1  0  0  0  0
 61 76  1  0  0  0  0
 62 85  1  0  0  0  0
 63 65  1  0  0  0  0
 63 74  1  0  0  0  0
 64 76  1  0  0  0  0
 66 67  1  0  0  0  0
M  CHG  1  76   1
M  ISO  4  44 100  62 101  75 100  85 101
M  END
> <Batch ID>
0086

> <Smiles>
C=C[100N:0](c1ccc(N2C(=O)C=C([101CH2:1][101O:1]c3ccc4c(c3)CN(C(=O)C(NC(=O)C(C)NC)C(C)(C)C)C(C(=O)NC3CCCc5ccccc53)C4)C2=O)cc1)[100C:0](=O)N1CCCC(n2nc(-c3ccc(Oc4ccc(F)cc4F)cc3)c(C(N)=O)c2N)C1

> <Shape>
0.243

> <Color>
0.078

> <Negative vol penalty>
0.000

$$$$

  -OEChem-04052300173D

 87 96  0     1  0  0  0  0  0999 V2000
  -27.3627  -33.1343   27.0973 C   0  0  0  0  0  0  0  0  0  0  0  0
  -27.6714  -32.0720   26.2538 C   0  0  0  0  0  0  0  0  0  0  0  0
  -24.3451  -13.9255   22.7275 C   0  0  0  0  0  0  0  0  0  0  0  0
  -26.7410  -13.7884   22.4484 C   0  0  0  0  0  0  0  0  0  0  0  0
  -26.0334  -33.4016   27.4220 C   0  0  0  0  0  0  0  0  0  0  0  0
  -26.6510  -31.2756   25.7353 C   0  0  0  0  0  0  0  0  0  0  0  0
  -27.2448  -30.3288   20.7961 C   0  0  0  0  0  0  0  0  0  0  0  0
  -24.1822  -12.8450   21.8607 C   0  0  0  0  0  0  0  0  0  0  0  0
  -26.5781  -12.7077   21.5815 C   0  0  0  0  0  0  0  0  0  0  0  0
  -28.1760  -29.3534   20.4422 C   0  0  0  0  0  0  0  0  0  0  0  0
  -24.4573   -9.4777   21.9982 C   0  0  0  0  0  0  0  0  0  0  0  0
  -23.5645   -8.4741   22.3740 C   0  0  0  0  0  0  0  0  0  0  0  0
  -26.3883  -27.7594   20.1551 C   0  0  0  0  0  0  0  0  0  0  0  0
  -32.6283  -21.9686   20.7442 C   0  0  0  0  0  0  0  0  0  0  0  0
  -30.3479  -22.4820   21.3550 C   0  0  0  0  0  0  0  0  0  0  0  0
  -31.3896  -20.4588   22.1666 C   0  0  0  0  0  0  0  0  0  0  0  0
  -22.2621   -8.8866   20.3813 C   0  0  0  0  0  0  0  0  0  0  0  0
  -25.6245  -14.3973   23.0213 C   0  0  0  0  0  0  0  0  0  0  0  0
  -25.9537  -15.4662   25.3141 C   0  0  0  0  0  0  0  0  0  0  0  0
  -24.9954  -32.6140   26.8995 C   0  0  0  0  0  0  0  0  0  0  0  0
  -25.8770  -30.0233   20.8428 C   0  0  0  0  0  0  0  0  0  0  0  0
  -25.3066  -31.5317   26.0544 C   0  0  0  0  0  0  0  0  0  0  0  0
  -25.4416  -28.7334   20.5073 C   0  0  0  0  0  0  0  0  0  0  0  0
  -31.5209  -22.8141   20.6772 C   0  0  0  0  0  0  0  0  0  0  0  0
  -32.5626  -20.7909   21.4888 C   0  0  0  0  0  0  0  0  0  0  0  0
  -30.2823  -21.3043   22.0998 C   0  0  0  0  0  0  0  0  0  0  0  0
  -25.2987  -12.2360   21.2877 C   0  0  0  0  0  0  0  0  0  0  0  0
  -27.7481  -28.0677   20.1244 C   0  0  0  0  0  0  0  0  0  0  0  0
  -24.2525  -10.1859   20.8140 C   0  0  0  0  0  0  0  0  0  0  0  0
  -22.4669   -8.1785   21.5655 C   0  0  0  0  0  0  0  0  0  0  0  0
  -23.1549   -9.8903   20.0055 C   0  0  0  0  0  0  0  0  0  0  0  0
  -25.7934  -15.5138   23.9163 C   0  0  0  0  0  0  0  0  0  0  0  0
  -26.0738  -16.7815   25.6909 C   0  0  0  0  0  0  0  0  0  0  0  0
  -31.6861  -26.3173   18.3396 C   0  0  0  0  0  0  0  0  0  0  0  0
  -32.4091  -24.0728   18.8051 C   0  0  0  0  0  0  0  0  0  0  0  0
  -30.8774  -26.3329   19.4077 C   0  0  0  0  0  0  0  0  0  0  0  0
  -32.4808  -25.1624   18.0350 C   0  0  0  0  0  0  0  0  0  0  0  0
  -30.8159  -25.1285   20.3146 C   0  0  0  0  0  0  0  0  0  0  0  0
  -25.9909  -14.3342   26.1932 C   0  0  0  0  0  0  0  0  0  0  0  0
  -23.6581  -30.0093   23.1188 C   0  0  0  0  0  0  0  0  0  0  0  0
  -21.6718  -29.3664   20.6361 C   0  0  0  0  0  0  0  0  0  0  0  0
  -21.2863  -28.1259   17.4803 C   0  0  0  0  0  0  0  0  0  0  0  0
  -27.9030  -21.6973   22.8284 C   0  0  0  0  0  0  0  0  0  0  0  0
  -23.5772  -32.9124   27.3168 C   0  0  0  0  0  0  0  0  0  0  0  0
  -24.8828  -31.0939   21.2005 C   0  0  0  0  0  0  0  0  0  0  0  0
  -23.9825  -28.3599   20.5225 C   0  0  0  0  0  0  0  0  0  0  0  0
  -22.5283  -32.2512   26.4262 C   0  0  0  0  0  0  0  0  0  0  0  0
  -24.7384  -21.1895   24.3792 C   0  0  0  0  0  0  0  0  0  0  0  0
  -22.8824  -30.7880   26.1805 C   0  0  0  0  0  0  0  0  0  0  0  0
  -24.6671  -19.6727   24.5692 C   0  0  0  0  0  0  0  0  0  0  0  0
  -25.4335  -21.5652   23.0717 C   0  0  0  0  0  0  0  0  0  0  0  0
  -26.6861  -19.4439   23.0665 C   0  0  0  0  0  0  0  0  0  0  0  0
  -24.2258  -30.6603   25.4522 C   0  0  1  0  0  0  0  0  0  0  0  0
  -23.5601  -30.5335   21.7140 C   0  0  1  0  0  0  0  0  0  0  0  0
  -26.0521  -19.0178   24.4007 C   0  0  2  0  0  0  0  0  0  0  0  0
  -19.5380  -27.6988   15.7315 C   0  0  0  0  0  0  0  0  0  0  0  0
  -20.6940  -26.9417   22.2092 C   0  0  0  0  0  0  0  0  0  0  0  0
  -19.7003  -26.0545   20.0894 C   0  0  0  0  0  0  0  0  0  0  0  0
  -18.8931  -28.2179   21.0334 C   0  0  0  0  0  0  0  0  0  0  0  0
  -22.6126  -29.9325   15.5474 C   0  0  0  0  0  0  0  0  0  0  0  0
  -30.0289  -27.4989   19.7634 C   0  0  0  0  0  0  0  0  0  1  0  0
  -21.1791  -28.1105   19.9587 C   0  0  1  0  0  0  0  0  0  0  0  0
  -20.5727  -28.6799   16.2604 C   0  0  2  0  0  0  0  0  0  0  0  0
  -20.1443  -27.3374   20.8242 C   0  0  0  0  0  0  0  0  0  0  0  0
  -25.8095  -16.7606   23.4376 N   0  0  0  0  0  0  0  0  0  0  0  0
  -25.9813  -17.5087   24.5407 N   0  0  0  0  0  0  0  0  0  0  0  0
  -31.5866  -24.0005   19.9287 N   0  0  0  0  0  0  0  0  0  0  0  0
  -23.0497  -29.4398   20.8848 N   0  0  0  0  0  0  0  0  0  0  0  0
  -26.7412  -20.9118   22.9836 N   0  0  0  0  0  0  0  0  0  0  0  0
  -33.6820  -19.9356   21.5569 N   0  0  0  0  0  0  0  0  0  0  0  0
  -26.2483  -17.3755   26.8906 N   0  0  0  0  0  0  0  0  0  0  0  0
  -25.8524  -13.0539   25.6402 N   0  0  0  0  0  0  0  0  0  0  0  0
  -29.0910  -20.9682   22.7895 N   0  0  0  0  0  0  0  0  0  0  0  0
  -24.0667  -30.9514   24.0435 N   0  0  0  0  0  0  0  0  0  0  0  0
  -20.6769  -28.5216   18.6521 N   0  0  0  0  0  0  0  0  0  0  0  0
  -21.5508  -28.9635   15.1724 N   0  3  0  0  0  0  0  0  0  0  0  0
  -30.1027  -25.1605   21.3192 O   0  0  0  0  0  0  0  0  0  0  0  0
  -26.1260  -14.4555   27.4344 O   0  0  0  0  0  0  0  0  0  0  0  0
  -23.3820  -28.8375   23.3470 O   0  0  0  0  0  0  0  0  0  0  0  0
  -20.8649  -30.2529   20.9272 O   0  0  0  0  0  0  0  0  0  0  0  0
  -22.2825  -27.4104   17.4014 O   0  0  0  0  0  0  0  0  0  0  0  0
  -27.8503  -22.9282   22.7640 O   0  0  0  0  0  0  0  0  0  0  0  0
  -33.2792  -25.2666   16.9222 O   0  0  0  0  0  0  0  0  0  0  0  0
  -25.1402  -11.1815   20.4419 O   0  0  0  0  0  0  0  0  0  0  0  0
  -28.6550  -27.1136   19.7793 O   0  0  0  0  0  0  0  0  0  1  0  0
  -21.6105   -7.2136   21.9257 F   0  0  0  0  0  0  0  0  0  0  0  0
  -22.9536  -10.5663   18.8662 F   0  0  0  0  0  0  0  0  0  0  0  0
  1  2  1  0  0  0  0
  1  5  2  0  0  0  0
  2  6  2  0  0  0  0
  3  8  2  0  0  0  0
  3 18  1  0  0  0  0
  4  9  1  0  0  0  0
  4 18  2  0  0  0  0
  5 20  1  0  0  0  0
  6 22  1  0  0  0  0
  7 10  2  0  0  0  0
  7 21  1  0  0  0  0
  8 27  1  0  0  0  0
  9 27  2  0  0  0  0
 10 28  1  0  0  0  0
 11 12  2  0  0  0  0
 11 29  1  0  0  0  0
 12 30  1  0  0  0  0
 13 23  1  0  0  0  0
 13 28  2  0  0  0  0
 14 24  1  0  0  0  0
 14 25  2  0  0  0  0
 15 24  2  0  0  0  0
 15 26  1  0  0  0  0
 16 25  1  0  0  0  0
 16 26  2  0  0  0  0
 17 30  2  0  0  0  0
 17 31  1  0  0  0  0
 18 32  1  0  0  0  0
 19 32  1  0  0  0  0
 19 33  2  0  0  0  0
 19 39  1  0  0  0  0
 20 22  2  0  0  0  0
 20 44  1  0  0  0  0
 21 23  2  0  0  0  0
 21 45  1  0  0  0  0
 22 53  1  0  0  0  0
 23 46  1  0  0  0  0
 24 67  1  0  0  0  0
 25 70  1  0  0  0  0
 26 73  1  0  0  0  0
 27 84  1  0  0  0  0
 28 85  1  0  0  0  0
 29 31  2  0  0  0  0
 29 84  1  0  0  0  0
 30 86  1  0  0  0  0
 31 87  1  0  0  0  0
 32 65  2  0  0  0  0
 33 66  1  0  0  0  0
 33 71  1  0  0  0  0
 34 36  2  0  0  0  0
 34 37  1  0  0  0  0
 35 37  2  0  0  0  0
 35 67  1  0  0  0  0
 36 38  1  0  0  0  0
 36 61  1  0  0  0  0
 37 83  1  0  0  0  0
 38 67  1  0  0  0  0
 38 77  2  0  0  0  0
 39 72  1  0  0  0  0
 39 78  2  0  0  0  0
 40 54  1  0  0  0  0
 40 74  1  0  0  0  0
 40 79  2  0  0  0  0
 41 62  1  0  0  0  0
 41 68  1  0  0  0  0
 41 80  2  0  0  0  0
 42 63  1  0  0  0  0
 42 75  1  0  0  0  0
 42 81  2  0  0  0  0
 43 69  1  0  0  0  0
 43 73  1  0  0  0  0
 43 82  2  0  0  0  0
 44 47  1  0  0  0  0
 45 54  1  0  0  0  0
 46 68  1  0  0  0  0
 47 49  1  0  0  0  0
 48 50  1  0  0  0  0
 48 51  1  0  0  0  0
 49 53  1  0  0  0  0
 50 55  1  0  0  0  0
 51 69  1  0  0  0  0
 52 55  1  0  0  0  0
 52 69  1  0  0  0  0
 53 74  1  0  0  0  0
 54 68  1  0  0  0  0
 55 66  1  0  0  0  0
 56 63  1  0  0  0  0
 57 64  1  0  0  0  0
 58 64  1  0  0  0  0
 59 64  1  0  0  0  0
 60 76  1  0  0  0  0
 61 85  1  0  0  0  0
 62 64  1  0  0  0  0
 62 75  1  0  0  0  0
 63 76  1  0  0  0  0
 65 66  1  0  0  0  0
M  CHG  1  76   1
M  ISO  4  43 100  61 101  73 100  85 101
M  END
> <Batch ID>
0086

> <Smiles>
CNC(C)C(=O)NC(C(=O)N1Cc2cc([101O:1][101CH2:1]C3=CC(=O)CN(c4cc(N)cc([100NH:0][100C:0](=O)N5CCCC(n6nc(-c7ccc(Oc8ccc(F)cc8F)cc7)c(C(N)=O)c6N)C5)c4)C3=O)ccc2CC1C(=O)NC1CCCc2ccccc21)C(C)(C)C

> <Shape>
0.232

> <Color>
0.077

> <Negative vol penalty>
0.000

$$$$

  -OEChem-04052300173D

 86 95  0     1  0  0  0  0  0999 V2000
  -27.5077  -37.7897   22.3521 C   0  0  0  0  0  0  0  0  0  0  0  0
  -28.0437  -36.7506   21.5981 C   0  0  0  0  0  0  0  0  0  0  0  0
  -24.0447  -10.2335   22.8723 C   0  0  0  0  0  0  0  0  0  0  0  0
  -23.2488  -12.5145   22.8422 C   0  0  0  0  0  0  0  0  0  0  0  0
  -26.7261  -37.5062   23.4712 C   0  0  0  0  0  0  0  0  0  0  0  0
  -27.7992  -35.4273   21.9636 C   0  0  0  0  0  0  0  0  0  0  0  0
  -26.8729  -28.9255   19.1028 C   0  0  0  0  0  0  0  0  0  0  0  0
  -28.0342  -19.9639   20.5170 C   0  0  0  0  0  0  0  0  0  0  0  0
  -27.9081  -18.6202   20.1646 C   0  0  0  0  0  0  0  0  0  0  0  0
  -23.3663  -10.0126   24.0709 C   0  0  0  0  0  0  0  0  0  0  0  0
  -22.5704  -12.2936   24.0408 C   0  0  0  0  0  0  0  0  0  0  0  0
  -27.3581  -27.6228   19.2093 C   0  0  0  0  0  0  0  0  0  0  0  0
  -20.1927   -9.3929   25.0594 C   0  0  0  0  0  0  0  0  0  0  0  0
  -19.4566   -8.2143   25.1800 C   0  0  0  0  0  0  0  0  0  0  0  0
  -25.9277  -27.2523   21.1161 C   0  0  0  0  0  0  0  0  0  0  0  0
  -30.2994  -18.3422   20.3695 C   0  0  0  0  0  0  0  0  0  0  0  0
  -20.8102   -7.5626   27.0722 C   0  0  0  0  0  0  0  0  0  0  0  0
  -23.9860  -11.4844   22.2579 C   0  0  0  0  0  0  0  0  0  0  0  0
  -24.1927  -11.5239   19.7156 C   0  0  0  0  0  0  0  0  0  0  0  0
  -26.4639  -36.1787   23.8450 C   0  0  0  0  0  0  0  0  0  0  0  0
  -25.9178  -29.4057   20.0103 C   0  0  0  0  0  0  0  0  0  0  0  0
  -27.0144  -35.1258   23.0896 C   0  0  0  0  0  0  0  0  0  0  0  0
  -25.4301  -28.5606   21.0173 C   0  0  0  0  0  0  0  0  0  0  0  0
  -29.2928  -20.4968   20.7956 C   0  0  0  0  0  0  0  0  0  0  0  0
  -29.0407  -17.8094   20.0909 C   0  0  0  0  0  0  0  0  0  0  0  0
  -22.6292  -11.0426   24.6551 C   0  0  0  0  0  0  0  0  0  0  0  0
  -26.8877  -26.7869   20.2178 C   0  0  0  0  0  0  0  0  0  0  0  0
  -21.2376   -9.6564   25.9452 C   0  0  0  0  0  0  0  0  0  0  0  0
  -19.7653   -7.2991   26.1864 C   0  0  0  0  0  0  0  0  0  0  0  0
  -30.4254  -19.6860   20.7219 C   0  0  0  0  0  0  0  0  0  0  0  0
  -21.5463   -8.7413   26.9516 C   0  0  0  0  0  0  0  0  0  0  0  0
  -24.6869  -11.7134   21.0201 C   0  0  0  0  0  0  0  0  0  0  0  0
  -25.2375  -11.8785   18.8977 C   0  0  0  0  0  0  0  0  0  0  0  0
  -29.0141  -24.0877   21.2832 C   0  0  0  0  0  0  0  0  0  0  0  0
  -30.1949  -23.8014   22.1095 C   0  0  0  0  0  0  0  0  0  0  0  0
  -28.5274  -22.8320   20.6768 C   0  0  0  0  0  0  0  0  0  0  0  0
  -28.4612  -25.3012   21.1052 C   0  0  0  0  0  0  0  0  0  1  0  0
  -22.9042  -11.0682   19.2821 C   0  0  0  0  0  0  0  0  0  0  0  0
  -25.8430  -31.7474   22.1584 C   0  0  0  0  0  0  0  0  0  0  0  0
  -22.7305  -30.8741   22.4275 C   0  0  0  0  0  0  0  0  0  0  0  0
  -20.3588  -28.4492   22.0508 C   0  0  0  0  0  0  0  0  0  0  0  0
  -29.9340  -15.5028   19.6135 C   0  0  0  0  0  0  0  0  0  0  0  0
  -25.6524  -35.9219   25.0901 C   0  0  0  0  0  0  0  0  0  0  0  0
  -25.3848  -30.8047   19.8655 C   0  0  0  0  0  0  0  0  0  0  0  0
  -24.3899  -29.0213   22.0044 C   0  0  0  0  0  0  0  0  0  0  0  0
  -30.4827  -22.3308   22.0383 C   0  0  0  0  0  0  0  0  0  0  0  0
  -25.1306  -34.4910   25.1927 C   0  0  0  0  0  0  0  0  0  0  0  0
  -30.0226  -12.0396   18.7917 C   0  0  0  0  0  0  0  0  0  0  0  0
  -26.2402  -33.4940   24.8739 C   0  0  0  0  0  0  0  0  0  0  0  0
  -28.6175  -11.5470   19.1455 C   0  0  0  0  0  0  0  0  0  0  0  0
  -30.5195  -13.0935   19.7796 C   0  0  0  0  0  0  0  0  0  0  0  0
  -28.2079  -13.7382   20.3361 C   0  0  0  0  0  0  0  0  0  0  0  0
  -26.7511  -33.6773   23.4397 C   0  0  1  0  0  0  0  0  0  0  0  0
  -24.7919  -31.3550   21.1590 C   0  0  1  0  0  0  0  0  0  0  0  0
  -27.6385  -12.7227   19.3320 C   0  0  2  0  0  0  0  0  0  0  0  0
  -17.9098  -28.0195   22.3896 C   0  0  0  0  0  0  0  0  0  0  0  0
  -23.1959  -30.6038   25.4308 C   0  0  0  0  0  0  0  0  0  0  0  0
  -21.0676  -29.2928   25.5721 C   0  0  0  0  0  0  0  0  0  0  0  0
  -21.0202  -31.6656   24.8037 C   0  0  0  0  0  0  0  0  0  0  0  0
  -19.9320  -27.9340   19.1679 C   0  0  0  0  0  0  0  0  0  0  0  0
  -21.9667  -29.8869   23.2765 C   0  0  1  0  0  0  0  0  0  0  0  0
  -18.9816  -28.4776   21.4129 C   0  0  2  0  0  0  0  0  0  0  0  0
  -21.8336  -30.3539   24.7536 C   0  0  0  0  0  0  0  0  0  0  0  0
  -25.9477  -12.1540   21.0348 N   0  0  0  0  0  0  0  0  0  0  0  0
  -26.2546  -12.2443   19.7295 N   0  0  0  0  0  0  0  0  0  0  0  0
  -29.4157  -21.8391   21.1472 N   0  0  0  0  0  0  0  0  0  0  0  0
  -23.9045  -30.3997   21.8253 N   0  0  0  0  0  0  0  0  0  0  0  0
  -29.5430  -14.1781   19.9019 N   0  0  0  0  0  0  0  0  0  0  0  0
  -25.3763  -11.9100   17.5552 N   0  0  0  0  0  0  0  0  0  0  0  0
  -21.9474  -10.7464   20.2543 N   0  0  0  0  0  0  0  0  0  0  0  0
  -28.9124  -16.4444   19.7329 N   0  0  0  0  0  0  0  0  0  0  0  0
  -25.8271  -33.0876   22.4947 N   0  0  0  0  0  0  0  0  0  0  0  0
  -20.6918  -29.6686   22.6017 N   0  0  0  0  0  0  0  0  0  0  0  0
  -18.9443  -27.5838   20.2210 N   0  3  0  0  0  0  0  0  0  0  0  0
  -30.8341  -24.6212   22.7461 O   0  0  0  0  0  0  0  0  0  0  0  0
  -27.5654  -22.7193   19.9373 O   0  0  0  0  0  0  0  0  0  0  0  0
  -22.6157  -10.9342   18.0687 O   0  0  0  0  0  0  0  0  0  0  0  0
  -26.6105  -30.8969   22.5934 O   0  0  0  0  0  0  0  0  0  0  0  0
  -22.2976  -32.0218   22.2973 O   0  0  0  0  0  0  0  0  0  0  0  0
  -21.0668  -27.4446   22.0628 O   0  0  0  0  0  0  0  0  0  0  0  0
  -31.0831  -15.7775   19.2585 O   0  0  0  0  0  0  0  0  0  0  0  0
  -21.9669  -10.8274   25.8246 O   0  0  0  0  0  0  0  0  0  0  0  0
  -27.3602  -25.5152   20.3244 O   0  0  0  0  0  0  0  0  0  1  0  0
  -19.0574   -6.1680   26.3031 F   0  0  0  0  0  0  0  0  0  0  0  0
  -31.6403  -20.1876   20.9869 F   0  0  0  0  0  0  0  0  0  0  0  0
  -22.5482   -8.9895   27.8062 F   0  0  0  0  0  0  0  0  0  0  0  0
  1  2  1  0  0  0  0
  1  5  2  0  0  0  0
  2  6  2  0  0  0  0
  3 10  2  0  0  0  0
  3 18  1  0  0  0  0
  4 11  1  0  0  0  0
  4 18  2  0  0  0  0
  5 20  1  0  0  0  0
  6 22  1  0  0  0  0
  7 12  2  0  0  0  0
  7 21  1  0  0  0  0
  8  9  2  0  0  0  0
  8 24  1  0  0  0  0
  9 25  1  0  0  0  0
 10 26  1  0  0  0  0
 11 26  2  0  0  0  0
 12 27  1  0  0  0  0
 13 14  2  0  0  0  0
 13 28  1  0  0  0  0
 14 29  1  0  0  0  0
 15 23  1  0  0  0  0
 15 27  2  0  0  0  0
 16 25  2  0  0  0  0
 16 30  1  0  0  0  0
 17 29  2  0  0  0  0
 17 31  1  0  0  0  0
 18 32  1  0  0  0  0
 19 32  1  0  0  0  0
 19 33  2  0  0  0  0
 19 38  1  0  0  0  0
 20 22  2  0  0  0  0
 20 43  1  0  0  0  0
 21 23  2  0  0  0  0
 21 44  1  0  0  0  0
 22 53  1  0  0  0  0
 23 45  1  0  0  0  0
 24 30  2  0  0  0  0
 24 66  1  0  0  0  0
 25 71  1  0  0  0  0
 26 82  1  0  0  0  0
 27 83  1  0  0  0  0
 28 31  2  0  0  0  0
 28 82  1  0  0  0  0
 29 84  1  0  0  0  0
 30 85  1  0  0  0  0
 31 86  1  0  0  0  0
 32 64  2  0  0  0  0
 33 65  1  0  0  0  0
 33 69  1  0  0  0  0
 34 35  1  0  0  0  0
 34 36  1  0  0  0  0
 34 37  2  0  0  0  0
 35 46  1  0  0  0  0
 35 75  2  0  0  0  0
 36 66  1  0  0  0  0
 36 76  2  0  0  0  0
 37 83  1  0  0  0  0
 38 70  1  0  0  0  0
 38 77  2  0  0  0  0
 39 54  1  0  0  0  0
 39 72  1  0  0  0  0
 39 78  2  0  0  0  0
 40 61  1  0  0  0  0
 40 67  1  0  0  0  0
 40 79  2  0  0  0  0
 41 62  1  0  0  0  0
 41 73  1  0  0  0  0
 41 80  2  0  0  0  0
 42 68  1  0  0  0  0
 42 71  1  0  0  0  0
 42 81  2  0  0  0  0
 43 47  1  0  0  0  0
 44 54  1  0  0  0  0
 45 67  1  0  0  0  0
 46 66  1  0  0  0  0
 47 49  1  0  0  0  0
 48 50  1  0  0  0  0
 48 51  1  0  0  0  0
 49 53  1  0  0  0  0
 50 55  1  0  0  0  0
 51 68  1  0  0  0  0
 52 55  1  0  0  0  0
 52 68  1  0  0  0  0
 53 72  1  0  0  0  0
 54 67  1  0  0  0  0
 55 65  1  0  0  0  0
 56 62  1  0  0  0  0
 57 63  1  0  0  0  0
 58 63  1  0  0  0  0
 59 63  1  0  0  0  0
 60 74  1  0  0  0  0
 61 63  1  0  0  0  0
 61 73  1  0  0  0  0
 62 74  1  0  0  0  0
 64 65  1  0  0  0  0
M  CHG  1  74   1
M  ISO  4  37 101  42 100  71 100  83 101
M  END
> <Batch ID>
0086

> <Smiles>
CNC(C)C(=O)NC(C(=O)N1Cc2cc([101O:1][101CH:1]=C3C(=O)CN(c4ccc([100NH:0][100C:0](=O)N5CCCC(n6nc(-c7ccc(Oc8ccc(F)cc8F)cc7)c(C(N)=O)c6N)C5)cc4F)C3=O)ccc2CC1C(=O)NC1CCCc2ccccc21)C(C)(C)C

> <Shape>
0.309

> <Color>
0.088

> <Negative vol penalty>
0.000

$$$$

  -OEChem-04052300173D

 86 95  0     1  0  0  0  0  0999 V2000
  -26.3949  -37.4448   20.9529 C   0  0  0  0  0  0  0  0  0  0  0  0
  -26.9588  -36.2614   20.4871 C   0  0  0  0  0  0  0  0  0  0  0  0
  -23.2940  -10.4728   21.7569 C   0  0  0  0  0  0  0  0  0  0  0  0
  -22.6113  -12.6117   20.8647 C   0  0  0  0  0  0  0  0  0  0  0  0
  -25.7059  -37.4575   22.1649 C   0  0  0  0  0  0  0  0  0  0  0  0
  -26.8349  -35.0901   21.2336 C   0  0  0  0  0  0  0  0  0  0  0  0
  -26.2442  -29.3911   19.0709 C   0  0  0  0  0  0  0  0  0  0  0  0
  -30.1680  -19.6497   19.9631 C   0  0  0  0  0  0  0  0  0  0  0  0
  -30.1645  -18.2553   19.9299 C   0  0  0  0  0  0  0  0  0  0  0  0
  -22.1975  -10.4823   22.6189 C   0  0  0  0  0  0  0  0  0  0  0  0
  -21.5147  -12.6213   21.7267 C   0  0  0  0  0  0  0  0  0  0  0  0
  -27.1621  -28.3581   18.8860 C   0  0  0  0  0  0  0  0  0  0  0  0
  -18.4516  -11.2014   21.8736 C   0  0  0  0  0  0  0  0  0  0  0  0
  -17.2158  -11.5723   21.3436 C   0  0  0  0  0  0  0  0  0  0  0  0
  -26.5276  -27.4209   21.0163 C   0  0  0  0  0  0  0  0  0  0  0  0
  -17.0973  -13.4107   22.9067 C   0  0  0  0  0  0  0  0  0  0  0  0
  -23.5010  -11.5376   20.8798 C   0  0  0  0  0  0  0  0  0  0  0  0
  -24.6859  -11.0014   18.6852 C   0  0  0  0  0  0  0  0  0  0  0  0
  -25.5652  -36.2837   22.9220 C   0  0  0  0  0  0  0  0  0  0  0  0
  -25.4675  -29.4528   20.2369 C   0  0  0  0  0  0  0  0  0  0  0  0
  -26.1445  -35.0875   22.4576 C   0  0  0  0  0  0  0  0  0  0  0  0
  -25.5987  -28.4542   21.2124 C   0  0  0  0  0  0  0  0  0  0  0  0
  -29.1119  -20.3635   19.3967 C   0  0  0  0  0  0  0  0  0  0  0  0
  -29.1049  -17.5746   19.3302 C   0  0  0  0  0  0  0  0  0  0  0  0
  -21.3078  -11.5565   22.6038 C   0  0  0  0  0  0  0  0  0  0  0  0
  -27.3061  -27.3744   19.8600 C   0  0  0  0  0  0  0  0  0  0  0  0
  -19.0102  -11.9351   22.9201 C   0  0  0  0  0  0  0  0  0  0  0  0
  -16.5387  -12.6770   21.8601 C   0  0  0  0  0  0  0  0  0  0  0  0
  -18.3331  -13.0398   23.4366 C   0  0  0  0  0  0  0  0  0  0  0  0
  -28.0523  -19.6829   18.7970 C   0  0  0  0  0  0  0  0  0  0  0  0
  -28.0488  -18.2884   18.7637 C   0  0  0  0  0  0  0  0  0  0  0  0
  -24.6339  -11.5286   19.9895 C   0  0  0  0  0  0  0  0  0  0  0  0
  -25.9731  -11.2398   18.2696 C   0  0  0  0  0  0  0  0  0  0  0  0
  -28.5176  -24.0174   19.4951 C   0  0  0  0  0  0  0  0  0  0  0  0
  -27.9926  -22.6260   19.4754 C   0  0  0  0  0  0  0  0  0  0  0  0
  -27.7305  -25.0828   19.6625 C   0  0  0  0  0  0  0  0  0  1  0  0
  -23.6622  -10.3541   17.9179 C   0  0  0  0  0  0  0  0  0  0  0  0
  -25.1700  -31.5273   22.6267 C   0  0  0  0  0  0  0  0  0  0  0  0
  -22.7557  -29.5545   23.5222 C   0  0  0  0  0  0  0  0  0  0  0  0
  -21.3704  -26.4374   23.4153 C   0  0  0  0  0  0  0  0  0  0  0  0
  -30.0753  -15.3007   19.8140 C   0  0  0  0  0  0  0  0  0  0  0  0
  -24.8522  -36.3569   24.2490 C   0  0  0  0  0  0  0  0  0  0  0  0
  -24.4627  -30.5587   20.4092 C   0  0  0  0  0  0  0  0  0  0  0  0
  -24.7742  -28.4637   22.4728 C   0  0  0  0  0  0  0  0  0  0  0  0
  -29.9971  -24.0129   19.3302 C   0  0  0  0  0  0  0  0  0  0  0  0
  -24.4442  -34.9919   24.7973 C   0  0  0  0  0  0  0  0  0  0  0  0
  -30.4207  -11.7604   19.9673 C   0  0  0  0  0  0  0  0  0  0  0  0
  -25.6025  -34.0053   24.6894 C   0  0  0  0  0  0  0  0  0  0  0  0
  -28.9811  -11.2509   19.8656 C   0  0  0  0  0  0  0  0  0  0  0  0
  -30.3596  -22.5470   19.5016 C   0  0  0  0  0  0  0  0  0  0  0  0
  -30.5092  -13.0520   20.7782 C   0  0  0  0  0  0  0  0  0  0  0  0
  -28.1750  -13.6182   20.2305 C   0  0  0  0  0  0  0  0  0  0  0  0
  -26.0103  -33.7911   23.2267 C   0  0  1  0  0  0  0  0  0  0  0  0
  -24.0916  -30.8069   21.8679 C   0  0  1  0  0  0  0  0  0  0  0  0
  -28.0268  -12.3542   19.3680 C   0  0  2  0  0  0  0  0  0  0  0  0
  -19.4157  -25.1199   24.2758 C   0  0  0  0  0  0  0  0  0  0  0  0
  -24.0854  -29.3763   26.2627 C   0  0  0  0  0  0  0  0  0  0  0  0
  -22.6716  -27.3661   26.7407 C   0  0  0  0  0  0  0  0  0  0  0  0
  -21.5933  -29.5765   26.3234 C   0  0  0  0  0  0  0  0  0  0  0  0
  -20.3817  -25.8968   20.6787 C   0  0  0  0  0  0  0  0  0  0  0  0
  -22.6458  -28.3269   24.3939 C   0  0  1  0  0  0  0  0  0  0  0  0
  -19.9515  -25.9747   23.1378 C   0  0  2  0  0  0  0  0  0  0  0  0
  -22.7661  -28.6621   25.9074 C   0  0  0  0  0  0  0  0  0  0  0  0
  -25.7957  -12.0616   20.3769 N   0  0  0  0  0  0  0  0  0  0  0  0
  -26.5899  -11.8705   19.3098 N   0  0  0  0  0  0  0  0  0  0  0  0
  -29.1179  -21.7927   19.4325 N   0  0  0  0  0  0  0  0  0  0  0  0
  -23.8099  -29.5691   22.5980 N   0  0  0  0  0  0  0  0  0  0  0  0
  -29.5808  -14.0522   20.2467 N   0  0  0  0  0  0  0  0  0  0  0  0
  -26.6262  -10.9694   17.1195 N   0  0  0  0  0  0  0  0  0  0  0  0
  -22.3962  -10.1905   18.4965 N   0  0  0  0  0  0  0  0  0  0  0  0
  -29.1042  -16.1580   19.2978 N   0  0  0  0  0  0  0  0  0  0  0  0
  -25.0762  -32.9047   22.5663 N   0  0  0  0  0  0  0  0  0  0  0  0
  -21.3945  -27.6744   24.0241 N   0  0  0  0  0  0  0  0  0  0  0  0
  -19.9047  -25.1709   21.8838 N   0  3  0  0  0  0  0  0  0  0  0  0
  -26.8027  -22.3589   19.5021 O   0  0  0  0  0  0  0  0  0  0  0  0
  -23.8688   -9.9186   16.7598 O   0  0  0  0  0  0  0  0  0  0  0  0
  -26.0230  -30.8815   23.2240 O   0  0  0  0  0  0  0  0  0  0  0  0
  -21.9322  -30.4638   23.6516 O   0  0  0  0  0  0  0  0  0  0  0  0
  -22.3586  -25.7669   23.1246 O   0  0  0  0  0  0  0  0  0  0  0  0
  -31.2762  -15.5779   19.8702 O   0  0  0  0  0  0  0  0  0  0  0  0
  -20.2376  -11.5660   23.4446 O   0  0  0  0  0  0  0  0  0  0  0  0
  -28.2018  -26.3655   19.6823 O   0  0  0  0  0  0  0  0  0  1  0  0
  -15.3527  -13.0339   21.3501 F   0  0  0  0  0  0  0  0  0  0  0  0
  -18.8653  -13.7493   24.4412 F   0  0  0  0  0  0  0  0  0  0  0  0
  -27.0328  -20.3586   18.2476 F   0  0  0  0  0  0  0  0  0  0  0  0
  -27.0262  -17.6451   18.1826 F   0  0  0  0  0  0  0  0  0  0  0  0
  1  2  1  0  0  0  0
  1  5  2  0  0  0  0
  2  6  2  0  0  0  0
  3 10  2  0  0  0  0
  3 17  1  0  0  0  0
  4 11  1  0  0  0  0
  4 17  2  0  0  0  0
  5 19  1  0  0  0  0
  6 21  1  0  0  0  0
  7 12  2  0  0  0  0
  7 20  1  0  0  0  0
  8  9  2  0  0  0  0
  8 23  1  0  0  0  0
  9 24  1  0  0  0  0
 10 25  1  0  0  0  0
 11 25  2  0  0  0  0
 12 26  1  0  0  0  0
 13 14  2  0  0  0  0
 13 27  1  0  0  0  0
 14 28  1  0  0  0  0
 15 22  1  0  0  0  0
 15 26  2  0  0  0  0
 16 28  2  0  0  0  0
 16 29  1  0  0  0  0
 17 32  1  0  0  0  0
 18 32  1  0  0  0  0
 18 33  2  0  0  0  0
 18 37  1  0  0  0  0
 19 21  2  0  0  0  0
 19 42  1  0  0  0  0
 20 22  2  0  0  0  0
 20 43  1  0  0  0  0
 21 53  1  0  0  0  0
 22 44  1  0  0  0  0
 23 30  2  0  0  0  0
 23 66  1  0  0  0  0
 24 31  2  0  0  0  0
 24 71  1  0  0  0  0
 25 81  1  0  0  0  0
 26 82  1  0  0  0  0
 27 29  2  0  0  0  0
 27 81  1  0  0  0  0
 28 83  1  0  0  0  0
 29 84  1  0  0  0  0
 30 31  1  0  0  0  0
 30 85  1  0  0  0  0
 31 86  1  0  0  0  0
 32 64  2  0  0  0  0
 33 65  1  0  0  0  0
 33 69  1  0  0  0  0
 34 35  1  0  0  0  0
 34 36  2  0  0  0  0
 34 45  1  0  0  0  0
 35 66  1  0  0  0  0
 35 75  2  0  0  0  0
 36 82  1  0  0  0  0
 37 70  1  0  0  0  0
 37 76  2  0  0  0  0
 38 54  1  0  0  0  0
 38 72  1  0  0  0  0
 38 77  2  0  0  0  0
 39 61  1  0  0  0  0
 39 67  1  0  0  0  0
 39 78  2  0  0  0  0
 40 62  1  0  0  0  0
 40 73  1  0  0  0  0
 40 79  2  0  0  0  0
 41 68  1  0  0  0  0
 41 71  1  0  0  0  0
 41 80  2  0  0  0  0
 42 46  1  0  0  0  0
 43 54  1  0  0  0  0
 44 67  1  0  0  0  0
 45 50  1  0  0  0  0
 46 48  1  0  0  0  0
 47 49  1  0  0  0  0
 47 51  1  0  0  0  0
 48 53  1  0  0  0  0
 49 55  1  0  0  0  0
 50 66  1  0  0  0  0
 51 68  1  0  0  0  0
 52 55  1  0  0  0  0
 52 68  1  0  0  0  0
 53 72  1  0  0  0  0
 54 67  1  0  0  0  0
 55 65  1  0  0  0  0
 56 62  1  0  0  0  0
 57 63  1  0  0  0  0
 58 63  1  0  0  0  0
 59 63  1  0  0  0  0
 60 74  1  0  0  0  0
 61 63  1  0  0  0  0
 61 73  1  0  0  0  0
 62 74  1  0  0  0  0
 64 65  1  0  0  0  0
M  CHG  1  74   1
M  ISO  4  36 101  41 100  71 100  82 101
M  END
> <Batch ID>
0086

> <Smiles>
CNC(C)C(=O)NC(C(=O)N1Cc2cc([101O:1][101CH:1]=C3CCN(c4ccc([100NH:0][100C:0](=O)N5CCCC(n6nc(-c7ccc(Oc8ccc(F)cc8F)cc7)c(C(N)=O)c6N)C5)c(F)c4F)C3=O)ccc2CC1C(=O)NC1CCCc2ccccc21)C(C)(C)C

> <Shape>
0.298

> <Color>
0.081

> <Negative vol penalty>
0.000

$$$$

  -OEChem-04052300173D

 84 93  0     1  0  0  0  0  0999 V2000
  -16.6073  -28.6372   23.0514 C   0  0  0  0  0  0  0  0  0  0  0  0
  -17.5374  -28.3137   22.0687 C   0  0  0  0  0  0  0  0  0  0  0  0
  -22.6271  -10.3112   20.8090 C   0  0  0  0  0  0  0  0  0  0  0  0
  -24.5212   -9.0951   21.6868 C   0  0  0  0  0  0  0  0  0  0  0  0
  -16.8599  -29.6908   23.9289 C   0  0  0  0  0  0  0  0  0  0  0  0
  -18.7203  -29.0444   21.9623 C   0  0  0  0  0  0  0  0  0  0  0  0
  -26.5415  -18.9650   13.2781 C   0  0  0  0  0  0  0  0  0  0  0  0
  -22.7813  -26.0858   21.3301 C   0  0  0  0  0  0  0  0  0  0  0  0
  -26.1082  -20.2326   13.6929 C   0  0  0  0  0  0  0  0  0  0  0  0
  -21.8553   -9.1507   20.8666 C   0  0  0  0  0  0  0  0  0  0  0  0
  -23.7494   -7.9346   21.7445 C   0  0  0  0  0  0  0  0  0  0  0  0
  -22.9971  -25.5646   20.0551 C   0  0  0  0  0  0  0  0  0  0  0  0
  -21.3917   -6.6114   23.7720 C   0  0  0  0  0  0  0  0  0  0  0  0
  -21.4725   -5.8381   24.9300 C   0  0  0  0  0  0  0  0  0  0  0  0
  -24.6414  -27.2799   19.6388 C   0  0  0  0  0  0  0  0  0  0  0  0
  -26.2320  -19.5994   16.0552 C   0  0  0  0  0  0  0  0  0  0  0  0
  -22.2569   -3.9634   23.6235 C   0  0  0  0  0  0  0  0  0  0  0  0
  -23.9601  -10.2833   21.2190 C   0  0  0  0  0  0  0  0  0  0  0  0
  -24.9130  -12.4510   22.1682 C   0  0  0  0  0  0  0  0  0  0  0  0
  -18.0508  -30.4286   23.8394 C   0  0  0  0  0  0  0  0  0  0  0  0
  -23.4872  -27.2164   21.7657 C   0  0  0  0  0  0  0  0  0  0  0  0
  -18.9884  -30.1097   22.8386 C   0  0  0  0  0  0  0  0  0  0  0  0
  -26.8095  -18.0543   14.2635 C   0  0  0  0  0  0  0  0  0  0  0  0
  -24.4346  -27.8120   20.9207 C   0  0  0  0  0  0  0  0  0  0  0  0
  -26.6605  -18.3904   15.5867 C   0  0  0  0  0  0  0  0  0  0  0  0
  -25.9543  -20.5449   15.0664 C   0  0  0  0  0  0  0  0  0  0  0  0
  -22.4165   -7.9625   21.3344 C   0  0  0  0  0  0  0  0  0  0  0  0
  -23.9251  -26.1634   19.2082 C   0  0  0  0  0  0  0  0  0  0  0  0
  -21.7435   -6.0607   22.5397 C   0  0  0  0  0  0  0  0  0  0  0  0
  -21.9051   -4.5141   24.8558 C   0  0  0  0  0  0  0  0  0  0  0  0
  -22.1761   -4.7367   22.4654 C   0  0  0  0  0  0  0  0  0  0  0  0
  -24.7580  -11.4816   21.1592 C   0  0  0  0  0  0  0  0  0  0  0  0
  -25.7640  -13.3811   21.6230 C   0  0  0  0  0  0  0  0  0  0  0  0
  -24.5776  -24.3593   17.8702 C   0  0  0  0  0  0  0  0  0  1  0  0
  -24.3392  -12.5057   23.4810 C   0  0  0  0  0  0  0  0  0  0  0  0
  -24.8235  -23.7444   16.7070 C   0  0  0  0  0  0  0  0  0  0  0  0
  -25.3007  -22.3231   16.7221 C   0  0  0  0  0  0  0  0  0  0  0  0
  -22.6792  -30.1548   22.6694 C   0  0  0  0  0  0  0  0  0  0  0  0
  -25.8360  -30.3844   23.3797 C   0  0  0  0  0  0  0  0  0  0  0  0
  -29.0180  -29.2824   22.8253 C   0  0  0  0  0  0  0  0  0  0  0  0
  -26.9579  -16.6245   17.2982 C   0  0  0  0  0  0  0  0  0  0  0  0
  -18.2582  -31.5891   24.7801 C   0  0  0  0  0  0  0  0  0  0  0  0
  -23.2623  -27.7504   23.1538 C   0  0  0  0  0  0  0  0  0  0  0  0
  -27.2462  -16.6685   14.6421 C   0  0  0  0  0  0  0  0  0  0  0  0
  -25.2331  -29.0154   21.3481 C   0  0  0  0  0  0  0  0  0  0  0  0
  -19.7045  -32.0737   24.8398 C   0  0  0  0  0  0  0  0  0  0  0  0
  -28.5769  -13.2603   17.4601 C   0  0  0  0  0  0  0  0  0  0  0  0
  -20.2792  -32.2134   23.4338 C   0  0  0  0  0  0  0  0  0  0  0  0
  -27.6640  -12.5577   18.4561 C   0  0  0  0  0  0  0  0  0  0  0  0
  -27.8419  -14.3181   16.6368 C   0  0  0  0  0  0  0  0  0  0  0  0
  -26.1914  -14.5976   18.4729 C   0  0  0  0  0  0  0  0  0  0  0  0
  -20.2943  -30.8630   22.7073 C   0  0  1  0  0  0  0  0  0  0  0  0
  -23.6647  -29.2143   23.3034 C   0  0  1  0  0  0  0  0  0  0  0  0
  -26.9565  -13.5908   19.3420 C   0  0  1  0  0  0  0  0  0  0  0  0
  -31.3932  -29.6875   23.5265 C   0  0  0  0  0  0  0  0  0  0  0  0
  -25.9120  -32.9029   21.6589 C   0  0  0  0  0  0  0  0  0  0  0  0
  -28.4082  -32.7149   21.6169 C   0  0  0  0  0  0  0  0  0  0  0  0
  -27.2208  -33.0521   23.7847 C   0  0  0  0  0  0  0  0  0  0  0  0
  -29.2997  -26.5297   23.8751 C   0  0  0  0  0  0  0  0  0  0  0  0
  -27.0732  -30.8097   22.6264 C   0  0  1  0  0  0  0  0  0  0  0  0
  -30.1273  -28.8845   23.7822 C   0  0  2  0  0  0  0  0  0  0  0  0
  -27.1373  -32.3484   22.4126 C   0  0  0  0  0  0  0  0  0  0  0  0
  -25.4545  -11.7693   20.0564 N   0  0  0  0  0  0  0  0  0  0  0  0
  -26.0553  -12.9300   20.3692 N   0  0  0  0  0  0  0  0  0  0  0  0
  -27.0366  -17.1384   16.0270 N   0  0  0  0  0  0  0  0  0  0  0  0
  -24.9727  -29.5041   22.7122 N   0  0  0  0  0  0  0  0  0  0  0  0
  -27.0496  -15.2347   17.4638 N   0  0  0  0  0  0  0  0  0  0  0  0
  -26.2839  -14.5326   22.0985 N   0  0  0  0  0  0  0  0  0  0  0  0
  -23.4865  -11.4679   23.8813 N   0  0  0  0  0  0  0  0  0  0  0  0
  -25.5140  -21.8178   15.4337 N   0  0  0  0  0  0  0  0  0  0  0  0
  -21.3971  -30.0503   23.1740 N   0  0  0  0  0  0  0  0  0  0  0  0
  -28.2075  -30.2607   23.3614 N   0  0  0  0  0  0  0  0  0  0  0  0
  -30.4495  -27.4376   23.6288 N   0  3  0  0  0  0  0  0  0  0  0  0
  -24.5627  -13.4553   24.2696 O   0  0  0  0  0  0  0  0  0  0  0  0
  -25.4660  -21.7252   17.7800 O   0  0  0  0  0  0  0  0  0  0  0  0
  -23.0547  -30.9198   21.7888 O   0  0  0  0  0  0  0  0  0  0  0  0
  -25.6463  -30.8117   24.5213 O   0  0  0  0  0  0  0  0  0  0  0  0
  -28.8861  -28.7786   21.7121 O   0  0  0  0  0  0  0  0  0  0  0  0
  -26.7609  -17.3724   18.2665 O   0  0  0  0  0  0  0  0  0  0  0  0
  -24.6537  -24.3679   15.4875 O   0  0  0  0  0  0  0  0  0  0  0  0
  -21.6636   -6.8300   21.3910 O   0  0  0  0  0  0  0  0  0  0  0  0
  -24.1387  -25.6535   17.9543 O   0  0  0  0  0  0  0  0  0  1  0  0
  -21.9840   -3.7721   25.9682 F   0  0  0  0  0  0  0  0  0  0  0  0
  -22.5166   -4.2025   21.2845 F   0  0  0  0  0  0  0  0  0  0  0  0
  1  2  1  0  0  0  0
  1  5  2  0  0  0  0
  2  6  2  0  0  0  0
  3 10  2  0  0  0  0
  3 18  1  0  0  0  0
  4 11  1  0  0  0  0
  4 18  2  0  0  0  0
  5 20  1  0  0  0  0
  6 22  1  0  0  0  0
  7  9  2  0  0  0  0
  7 23  1  0  0  0  0
  8 12  2  0  0  0  0
  8 21  1  0  0  0  0
  9 26  1  0  0  0  0
 10 27  1  0  0  0  0
 11 27  2  0  0  0  0
 12 28  1  0  0  0  0
 13 14  2  0  0  0  0
 13 29  1  0  0  0  0
 14 30  1  0  0  0  0
 15 24  1  0  0  0  0
 15 28  2  0  0  0  0
 16 25  1  0  0  0  0
 16 26  2  0  0  0  0
 17 30  2  0  0  0  0
 17 31  1  0  0  0  0
 18 32  1  0  0  0  0
 19 32  1  0  0  0  0
 19 33  2  0  0  0  0
 19 35  1  0  0  0  0
 20 22  2  0  0  0  0
 20 42  1  0  0  0  0
 21 24  2  0  0  0  0
 21 43  1  0  0  0  0
 22 52  1  0  0  0  0
 23 25  2  0  0  0  0
 23 44  1  0  0  0  0
 24 45  1  0  0  0  0
 25 65  1  0  0  0  0
 26 70  1  0  0  0  0
 27 81  1  0  0  0  0
 28 82  1  0  0  0  0
 29 31  2  0  0  0  0
 29 81  1  0  0  0  0
 30 83  1  0  0  0  0
 31 84  1  0  0  0  0
 32 63  2  0  0  0  0
 33 64  1  0  0  0  0
 33 68  1  0  0  0  0
 34 36  2  0  0  0  0
 34 82  1  0  0  0  0
 35 69  1  0  0  0  0
 35 74  2  0  0  0  0
 36 37  1  0  0  0  0
 36 80  1  0  0  0  0
 37 70  1  0  0  0  0
 37 75  2  0  0  0  0
 38 53  1  0  0  0  0
 38 71  1  0  0  0  0
 38 76  2  0  0  0  0
 39 60  1  0  0  0  0
 39 66  1  0  0  0  0
 39 77  2  0  0  0  0
 40 61  1  0  0  0  0
 40 72  1  0  0  0  0
 40 78  2  0  0  0  0
 41 65  1  0  0  0  0
 41 67  1  0  0  0  0
 41 79  2  0  0  0  0
 42 46  1  0  0  0  0
 43 53  1  0  0  0  0
 44 65  1  0  0  0  0
 45 66  1  0  0  0  0
 46 48  1  0  0  0  0
 47 49  1  0  0  0  0
 47 50  1  0  0  0  0
 48 52  1  0  0  0  0
 49 54  1  0  0  0  0
 50 67  1  0  0  0  0
 51 54  1  0  0  0  0
 51 67  1  0  0  0  0
 52 71  1  0  0  0  0
 53 66  1  0  0  0  0
 54 64  1  0  0  0  0
 55 61  1  0  0  0  0
 56 62  1  0  0  0  0
 57 62  1  0  0  0  0
 58 62  1  0  0  0  0
 59 73  1  0  0  0  0
 60 62  1  0  0  0  0
 60 72  1  0  0  0  0
 61 73  1  0  0  0  0
 63 64  1  0  0  0  0
M  CHG  1  73   1
M  ISO  4  34 101  41 100  65 100  82 101
M  END
> <Batch ID>
0086

> <Smiles>
CNC(C)C(=O)NC(C(=O)N1Cc2cc([101O:1][101CH2:1]C(=O)C(=O)Nc3ccc4c(c3)[100N:0]([100C:0](=O)N3CCCC(n5nc(-c6ccc(Oc7ccc(F)cc7F)cc6)c(C(N)=O)c5N)C3)C4)ccc2CC1C(=O)NC1CCCc2ccccc21)C(C)(C)C

> <Shape>
0.244

> <Color>
0.106

> <Negative vol penalty>
0.000

$$$$

  -OEChem-04052300173D

 85 94  0     1  0  0  0  0  0999 V2000
  -19.2110  -35.6879   21.0719 C   0  0  0  0  0  0  0  0  0  0  0  0
  -20.5968  -35.6357   20.9621 C   0  0  0  0  0  0  0  0  0  0  0  0
  -30.0119  -21.4953   15.6460 C   0  0  0  0  0  0  0  0  0  0  0  0
  -26.6122  -12.9612   18.8220 C   0  0  0  0  0  0  0  0  0  0  0  0
  -26.1657  -13.2131   21.1830 C   0  0  0  0  0  0  0  0  0  0  0  0
  -30.9555  -22.4945   15.8840 C   0  0  0  0  0  0  0  0  0  0  0  0
  -18.5492  -34.8276   21.9471 C   0  0  0  0  0  0  0  0  0  0  0  0
  -21.3219  -34.7237   21.7283 C   0  0  0  0  0  0  0  0  0  0  0  0
  -25.5434  -29.7897   18.6097 C   0  0  0  0  0  0  0  0  0  0  0  0
  -29.4158  -20.8294   16.7170 C   0  0  0  0  0  0  0  0  0  0  0  0
  -25.4233  -12.2470   18.6734 C   0  0  0  0  0  0  0  0  0  0  0  0
  -24.9768  -12.4989   21.0344 C   0  0  0  0  0  0  0  0  0  0  0  0
  -26.5349  -28.9535   18.0961 C   0  0  0  0  0  0  0  0  0  0  0  0
  -24.0327   -9.2655   20.7433 C   0  0  0  0  0  0  0  0  0  0  0  0
  -23.7471   -8.2789   21.6870 C   0  0  0  0  0  0  0  0  0  0  0  0
  -30.7072  -22.1620   18.2641 C   0  0  0  0  0  0  0  0  0  0  0  0
  -26.9819  -28.1026   20.3151 C   0  0  0  0  0  0  0  0  0  0  0  0
  -21.7175   -9.4429   22.2896 C   0  0  0  0  0  0  0  0  0  0  0  0
  -26.9834  -13.4442   20.0769 C   0  0  0  0  0  0  0  0  0  0  0  0
  -31.3032  -22.8278   17.1931 C   0  0  0  0  0  0  0  0  0  0  0  0
  -29.5154  -13.7294   19.9524 C   0  0  0  0  0  0  0  0  0  0  0  0
  -19.2658  -33.8981   22.7173 C   0  0  0  0  0  0  0  0  0  0  0  0
  -25.2566  -29.7743   19.9775 C   0  0  0  0  0  0  0  0  0  0  0  0
  -20.6693  -33.8511   22.6156 C   0  0  0  0  0  0  0  0  0  0  0  0
  -25.9813  -28.9289   20.8336 C   0  0  0  0  0  0  0  0  0  0  0  0
  -29.7635  -21.1627   18.0260 C   0  0  0  0  0  0  0  0  0  0  0  0
  -24.6056  -12.0158   19.7796 C   0  0  0  0  0  0  0  0  0  0  0  0
  -27.2525  -28.1122   18.9467 C   0  0  0  0  0  0  0  0  0  0  0  0
  -23.1608  -10.3409   20.5727 C   0  0  0  0  0  0  0  0  0  0  0  0
  -22.5895   -8.3676   22.4601 C   0  0  0  0  0  0  0  0  0  0  0  0
  -22.0032  -10.4295   21.3459 C   0  0  0  0  0  0  0  0  0  0  0  0
  -28.2117  -14.1816   20.2312 C   0  0  0  0  0  0  0  0  0  0  0  0
  -30.3225  -14.7966   20.2624 C   0  0  0  0  0  0  0  0  0  0  0  0
  -30.5165  -27.0641   17.8809 C   0  0  0  0  0  0  0  0  0  0  0  0
  -29.4927  -27.7768   18.3620 C   0  0  0  0  0  0  0  0  0  1  0  0
  -32.2982  -23.8816   17.4426 C   0  0  0  0  0  0  0  0  0  0  0  0
  -29.9573  -12.4584   19.4574 C   0  0  0  0  0  0  0  0  0  0  0  0
  -23.1665  -31.1328   22.7815 C   0  0  0  0  0  0  0  0  0  0  0  0
  -23.4740  -28.1212   23.2775 C   0  0  0  0  0  0  0  0  0  0  0  0
  -23.0617  -24.8611   24.1934 C   0  0  0  0  0  0  0  0  0  0  0  0
  -29.3896  -20.6949   20.4730 C   0  0  0  0  0  0  0  0  0  0  0  0
  -18.5107  -33.0211   23.6844 C   0  0  0  0  0  0  0  0  0  0  0  0
  -24.2394  -30.7027   20.5836 C   0  0  0  0  0  0  0  0  0  0  0  0
  -25.6623  -28.9711   22.3030 C   0  0  0  0  0  0  0  0  0  0  0  0
  -31.9315  -27.5473   17.7773 C   0  0  0  0  0  0  0  0  0  0  0  0
  -30.4435  -25.6242   17.4775 C   0  0  0  0  0  0  0  0  0  0  0  0
  -19.3205  -31.8274   24.1842 C   0  0  0  0  0  0  0  0  0  0  0  0
  -30.5322  -18.6235   23.1340 C   0  0  0  0  0  0  0  0  0  0  0  0
  -20.7202  -32.2685   24.6002 C   0  0  0  0  0  0  0  0  0  0  0  0
  -30.1909  -17.2077   22.6635 C   0  0  0  0  0  0  0  0  0  0  0  0
  -32.7229  -26.2651   17.9666 C   0  0  0  0  0  0  0  0  0  0  0  0
  -29.4631  -19.6324   22.7181 C   0  0  0  0  0  0  0  0  0  0  0  0
  -28.7916  -18.2171   20.8168 C   0  0  0  0  0  0  0  0  0  0  0  0
  -21.4887  -32.8587   23.4117 C   0  0  1  0  0  0  0  0  0  0  0  0
  -23.4768  -30.0746   21.7640 C   0  0  1  0  0  0  0  0  0  0  0  0
  -29.8714  -17.1765   21.1560 C   0  0  2  0  0  0  0  0  0  0  0  0
  -22.5956  -23.4213   26.1952 C   0  0  0  0  0  0  0  0  0  0  0  0
  -26.3483  -28.5097   24.2216 C   0  0  0  0  0  0  0  0  0  0  0  0
  -26.1151  -26.4113   25.5671 C   0  0  0  0  0  0  0  0  0  0  0  0
  -24.6561  -28.3742   26.0580 C   0  0  0  0  0  0  0  0  0  0  0  0
  -20.5611  -23.8159   23.0044 C   0  0  0  0  0  0  0  0  0  0  0  0
  -24.2529  -27.0244   23.9585 C   0  0  1  0  0  0  0  0  0  0  0  0
  -21.9901  -24.1750   25.0213 C   0  0  2  0  0  0  0  0  0  0  0  0
  -25.3385  -27.5797   24.9232 C   0  0  0  0  0  0  0  0  0  0  0  0
  -28.1874  -15.4380   20.6837 N   0  0  0  0  0  0  0  0  0  0  0  0
  -29.4858  -15.7845   20.6917 N   0  0  0  0  0  0  0  0  0  0  0  0
  -31.8320  -25.1824   17.5751 N   0  0  0  0  0  0  0  0  0  0  0  0
  -24.2052  -29.0269   22.4993 N   0  0  0  0  0  0  0  0  0  0  0  0
  -29.2161  -19.5485   21.2770 N   0  0  0  0  0  0  0  0  0  0  0  0
  -31.6593  -14.9769   20.2071 N   0  0  0  0  0  0  0  0  0  0  0  0
  -30.2667  -11.4520   20.3825 N   0  0  0  0  0  0  0  0  0  0  0  0
  -29.1577  -20.4864   19.1138 N   0  0  0  0  0  0  0  0  0  0  0  0
  -21.9797  -31.8026   22.5527 N   0  0  0  0  0  0  0  0  0  0  0  0
  -23.2671  -26.1622   24.6012 N   0  0  0  0  0  0  0  0  0  0  0  0
  -21.2290  -23.2060   24.1829 N   0  3  0  0  0  0  0  0  0  0  0  0
  -33.4750  -23.5371   17.5295 O   0  0  0  0  0  0  0  0  0  0  0  0
  -30.0900  -12.2275   18.2316 O   0  0  0  0  0  0  0  0  0  0  0  0
  -23.9451  -31.3273   23.7076 O   0  0  0  0  0  0  0  0  0  0  0  0
  -22.2512  -28.1791   23.4342 O   0  0  0  0  0  0  0  0  0  0  0  0
  -23.6595  -24.2980   23.2791 O   0  0  0  0  0  0  0  0  0  0  0  0
  -29.7460  -21.7750   20.9510 O   0  0  0  0  0  0  0  0  0  0  0  0
  -23.4454  -11.3191   19.6349 O   0  0  0  0  0  0  0  0  0  0  0  0
  -28.2160  -27.2951   18.4379 O   0  0  0  0  0  0  0  0  0  1  0  0
  -22.3145   -7.4193   23.3653 F   0  0  0  0  0  0  0  0  0  0  0  0
  -21.1611  -11.4596   21.1857 F   0  0  0  0  0  0  0  0  0  0  0  0
  1  2  1  0  0  0  0
  1  7  2  0  0  0  0
  2  8  2  0  0  0  0
  3  6  2  0  0  0  0
  3 10  1  0  0  0  0
  4 11  2  0  0  0  0
  4 19  1  0  0  0  0
  5 12  1  0  0  0  0
  5 19  2  0  0  0  0
  6 20  1  0  0  0  0
  7 22  1  0  0  0  0
  8 24  1  0  0  0  0
  9 13  2  0  0  0  0
  9 23  1  0  0  0  0
 10 26  2  0  0  0  0
 11 27  1  0  0  0  0
 12 27  2  0  0  0  0
 13 28  1  0  0  0  0
 14 15  2  0  0  0  0
 14 29  1  0  0  0  0
 15 30  1  0  0  0  0
 16 20  2  0  0  0  0
 16 26  1  0  0  0  0
 17 25  1  0  0  0  0
 17 28  2  0  0  0  0
 18 30  2  0  0  0  0
 18 31  1  0  0  0  0
 19 32  1  0  0  0  0
 20 36  1  0  0  0  0
 21 32  1  0  0  0  0
 21 33  2  0  0  0  0
 21 37  1  0  0  0  0
 22 24  2  0  0  0  0
 22 42  1  0  0  0  0
 23 25  2  0  0  0  0
 23 43  1  0  0  0  0
 24 54  1  0  0  0  0
 25 44  1  0  0  0  0
 26 72  1  0  0  0  0
 27 82  1  0  0  0  0
 28 83  1  0  0  0  0
 29 31  2  0  0  0  0
 29 82  1  0  0  0  0
 30 84  1  0  0  0  0
 31 85  1  0  0  0  0
 32 65  2  0  0  0  0
 33 66  1  0  0  0  0
 33 70  1  0  0  0  0
 34 35  2  0  0  0  0
 34 45  1  0  0  0  0
 34 46  1  0  0  0  0
 35 83  1  0  0  0  0
 36 67  1  0  0  0  0
 36 76  2  0  0  0  0
 37 71  1  0  0  0  0
 37 77  2  0  0  0  0
 38 55  1  0  0  0  0
 38 73  1  0  0  0  0
 38 78  2  0  0  0  0
 39 62  1  0  0  0  0
 39 68  1  0  0  0  0
 39 79  2  0  0  0  0
 40 63  1  0  0  0  0
 40 74  1  0  0  0  0
 40 80  2  0  0  0  0
 41 69  1  0  0  0  0
 41 72  1  0  0  0  0
 41 81  2  0  0  0  0
 42 47  1  0  0  0  0
 43 55  1  0  0  0  0
 44 68  1  0  0  0  0
 45 51  1  0  0  0  0
 46 67  1  0  0  0  0
 47 49  1  0  0  0  0
 48 50  1  0  0  0  0
 48 52  1  0  0  0  0
 49 54  1  0  0  0  0
 50 56  1  0  0  0  0
 51 67  1  0  0  0  0
 52 69  1  0  0  0  0
 53 56  1  0  0  0  0
 53 69  1  0  0  0  0
 54 73  1  0  0  0  0
 55 68  1  0  0  0  0
 56 66  1  0  0  0  0
 57 63  1  0  0  0  0
 58 64  1  0  0  0  0
 59 64  1  0  0  0  0
 60 64  1  0  0  0  0
 61 75  1  0  0  0  0
 62 64  1  0  0  0  0
 62 74  1  0  0  0  0
 63 75  1  0  0  0  0
 65 66  1  0  0  0  0
M  CHG  1  75   1
M  ISO  4  35 101  41 100  72 100  83 101
M  END
> <Batch ID>
0086

> <Smiles>
CNC(C)C(=O)NC(C(=O)N1Cc2cc([101O:1][101CH:1]=C3CCN(C(=O)c4cccc([100NH:0][100C:0](=O)N5CCCC(n6nc(-c7ccc(Oc8ccc(F)cc8F)cc7)c(C(N)=O)c6N)C5)c4)C3)ccc2CC1C(=O)NC1CCCc2ccccc21)C(C)(C)C

> <Shape>
0.248

> <Color>
0.075

> <Negative vol penalty>
0.000

$$$$

  -OEChem-04052300173D

 86 95  0     1  0  0  0  0  0999 V2000
  -28.8304  -36.3620   17.4285 C   0  0  0  0  0  0  0  0  0  0  0  0
  -28.8507  -34.9739   17.3380 C   0  0  0  0  0  0  0  0  0  0  0  0
  -31.0157  -20.0119   19.9257 C   0  0  0  0  0  0  0  0  0  0  0  0
  -23.9974   -9.5514   21.7900 C   0  0  0  0  0  0  0  0  0  0  0  0
  -24.6581  -10.9141   23.6725 C   0  0  0  0  0  0  0  0  0  0  0  0
  -28.6094  -36.9759   18.6607 C   0  0  0  0  0  0  0  0  0  0  0  0
  -28.6509  -34.1989   18.4798 C   0  0  0  0  0  0  0  0  0  0  0  0
  -25.7940  -28.7916   18.8055 C   0  0  0  0  0  0  0  0  0  0  0  0
  -29.9916  -20.9085   20.2302 C   0  0  0  0  0  0  0  0  0  0  0  0
  -30.7161  -18.6769   19.6541 C   0  0  0  0  0  0  0  0  0  0  0  0
  -23.5905   -8.5426   22.6630 C   0  0  0  0  0  0  0  0  0  0  0  0
  -24.2512   -9.9052   24.5456 C   0  0  0  0  0  0  0  0  0  0  0  0
  -26.2679  -27.4809   18.8377 C   0  0  0  0  0  0  0  0  0  0  0  0
  -20.9312   -7.8872   24.6459 C   0  0  0  0  0  0  0  0  0  0  0  0
  -19.7019   -7.2753   24.4014 C   0  0  0  0  0  0  0  0  0  0  0  0
  -26.1268  -27.4953   21.2458 C   0  0  0  0  0  0  0  0  0  0  0  0
  -20.8109   -5.1420   24.1642 C   0  0  0  0  0  0  0  0  0  0  0  0
  -24.5313  -10.7372   22.2947 C   0  0  0  0  0  0  0  0  0  0  0  0
  -24.1724  -12.8417   20.8984 C   0  0  0  0  0  0  0  0  0  0  0  0
  -28.3971  -36.2080   19.8165 C   0  0  0  0  0  0  0  0  0  0  0  0
  -25.4928  -29.4690   19.9958 C   0  0  0  0  0  0  0  0  0  0  0  0
  -28.4280  -34.8031   19.7288 C   0  0  0  0  0  0  0  0  0  0  0  0
  -25.6468  -28.8138   21.2259 C   0  0  0  0  0  0  0  0  0  0  0  0
  -28.6678  -20.4702   20.2633 C   0  0  0  0  0  0  0  0  0  0  0  0
  -29.3924  -18.2386   19.6872 C   0  0  0  0  0  0  0  0  0  0  0  0
  -23.7173   -8.7195   24.0408 C   0  0  0  0  0  0  0  0  0  0  0  0
  -26.4371  -26.8335   20.0580 C   0  0  0  0  0  0  0  0  0  0  0  0
  -22.1005   -7.1265   24.6494 C   0  0  0  0  0  0  0  0  0  0  0  0
  -19.6416   -5.9027   24.1606 C   0  0  0  0  0  0  0  0  0  0  0  0
  -22.0403   -5.7539   24.4086 C   0  0  0  0  0  0  0  0  0  0  0  0
  -28.3682  -19.1352   19.9918 C   0  0  0  0  0  0  0  0  0  0  0  0
  -24.9524  -11.7795   21.3933 C   0  0  0  0  0  0  0  0  0  0  0  0
  -25.0280  -13.5475   20.0883 C   0  0  0  0  0  0  0  0  0  0  0  0
  -26.4568  -23.3144   20.7448 C   0  0  0  0  0  0  0  0  0  0  0  0
  -25.6433  -22.2456   21.3406 C   0  0  0  0  0  0  0  0  0  0  0  0
  -27.7288  -22.7442   20.2565 C   0  0  0  0  0  0  0  0  0  0  0  0
  -26.1050  -24.5971   20.6573 C   0  0  0  0  0  0  0  0  0  1  0  0
  -22.7974  -13.1619   21.1487 C   0  0  0  0  0  0  0  0  0  0  0  0
  -26.5948  -32.0830   21.4298 C   0  0  0  0  0  0  0  0  0  0  0  0
  -24.1518  -31.5127   23.4862 C   0  0  0  0  0  0  0  0  0  0  0  0
  -21.9837  -29.2613   24.8562 C   0  0  0  0  0  0  0  0  0  0  0  0
  -29.9916  -15.8653   19.0916 C   0  0  0  0  0  0  0  0  0  0  0  0
  -28.2092  -36.9167   21.1345 C   0  0  0  0  0  0  0  0  0  0  0  0
  -24.9572  -30.8735   19.9427 C   0  0  0  0  0  0  0  0  0  0  0  0
  -25.3185  -29.4899   22.5311 C   0  0  0  0  0  0  0  0  0  0  0  0
  -26.4014  -20.9550   21.2389 C   0  0  0  0  0  0  0  0  0  0  0  0
  -27.6335  -36.0229   22.2299 C   0  0  0  0  0  0  0  0  0  0  0  0
  -29.6510  -12.3932   18.3804 C   0  0  0  0  0  0  0  0  0  0  0  0
  -28.3624  -34.6833   22.2640 C   0  0  0  0  0  0  0  0  0  0  0  0
  -28.3341  -12.0114   19.0602 C   0  0  0  0  0  0  0  0  0  0  0  0
  -30.4326  -13.4220   19.1956 C   0  0  0  0  0  0  0  0  0  0  0  0
  -28.3601  -14.2444   20.2434 C   0  0  0  0  0  0  0  0  0  0  0  0
  -28.1908  -33.9281   20.9405 C   0  0  1  0  0  0  0  0  0  0  0  0
  -25.1702  -31.6438   21.2422 C   0  0  1  0  0  0  0  0  0  0  0  0
  -27.5072  -13.2591   19.4277 C   0  0  2  0  0  0  0  0  0  0  0  0
  -20.1293  -29.0842   26.5377 C   0  0  0  0  0  0  0  0  0  0  0  0
  -26.1961  -31.6224   25.7486 C   0  0  0  0  0  0  0  0  0  0  0  0
  -24.5076  -30.5220   27.2340 C   0  0  0  0  0  0  0  0  0  0  0  0
  -24.0264  -32.7618   26.2470 C   0  0  0  0  0  0  0  0  0  0  0  0
  -20.0440  -28.3897   22.7978 C   0  0  0  0  0  0  0  0  0  0  0  0
  -23.9895  -30.7179   24.7593 C   0  0  1  0  0  0  0  0  0  0  0  0
  -20.4826  -29.3139   25.0765 C   0  0  2  0  0  0  0  0  0  0  0  0
  -24.6880  -31.3937   25.9729 C   0  0  0  0  0  0  0  0  0  0  0  0
  -26.2070  -11.8041   20.9357 N   0  0  0  0  0  0  0  0  0  0  0  0
  -26.2218  -12.8905   20.1447 N   0  0  0  0  0  0  0  0  0  0  0  0
  -27.6475  -21.3684   20.5677 N   0  0  0  0  0  0  0  0  0  0  0  0
  -24.8039  -30.8653   22.4272 N   0  0  0  0  0  0  0  0  0  0  0  0
  -29.5871  -14.5776   19.5029 N   0  0  0  0  0  0  0  0  0  0  0  0
  -24.8680  -14.6598   19.3402 N   0  0  0  0  0  0  0  0  0  0  0  0
  -22.0634  -12.3314   22.0065 N   0  0  0  0  0  0  0  0  0  0  0  0
  -29.0919  -16.8817   19.4108 N   0  0  0  0  0  0  0  0  0  0  0  0
  -26.8813  -33.3154   20.8743 N   0  0  0  0  0  0  0  0  0  0  0  0
  -22.5554  -30.5137   24.9330 N   0  0  0  0  0  0  0  0  0  0  0  0
  -19.8022  -28.2702   24.2587 N   0  3  0  0  0  0  0  0  0  0  0  0
  -24.5378  -22.3840   21.8351 O   0  0  0  0  0  0  0  0  0  0  0  0
  -28.6269  -23.3601   19.7097 O   0  0  0  0  0  0  0  0  0  0  0  0
  -22.2318  -14.1457   20.6141 O   0  0  0  0  0  0  0  0  0  0  0  0
  -27.3759  -31.3582   22.0349 O   0  0  0  0  0  0  0  0  0  0  0  0
  -23.7097  -32.6630   23.4308 O   0  0  0  0  0  0  0  0  0  0  0  0
  -22.5891  -28.2134   24.6415 O   0  0  0  0  0  0  0  0  0  0  0  0
  -31.0447  -16.0488   18.4758 O   0  0  0  0  0  0  0  0  0  0  0  0
  -23.3201   -7.7354   24.8930 O   0  0  0  0  0  0  0  0  0  0  0  0
  -26.9001  -25.5543   20.0923 O   0  0  0  0  0  0  0  0  0  1  0  0
  -18.4608   -5.3149   23.9274 F   0  0  0  0  0  0  0  0  0  0  0  0
  -23.1600   -5.0177   24.4120 F   0  0  0  0  0  0  0  0  0  0  0  0
  -27.0946  -18.7134   20.0246 F   0  0  0  0  0  0  0  0  0  0  0  0
  1  2  1  0  0  0  0
  1  6  2  0  0  0  0
  2  7  2  0  0  0  0
  3  9  2  0  0  0  0
  3 10  1  0  0  0  0
  4 11  2  0  0  0  0
  4 18  1  0  0  0  0
  5 12  1  0  0  0  0
  5 18  2  0  0  0  0
  6 20  1  0  0  0  0
  7 22  1  0  0  0  0
  8 13  2  0  0  0  0
  8 21  1  0  0  0  0
  9 24  1  0  0  0  0
 10 25  2  0  0  0  0
 11 26  1  0  0  0  0
 12 26  2  0  0  0  0
 13 27  1  0  0  0  0
 14 15  2  0  0  0  0
 14 28  1  0  0  0  0
 15 29  1  0  0  0  0
 16 23  1  0  0  0  0
 16 27  2  0  0  0  0
 17 29  2  0  0  0  0
 17 30  1  0  0  0  0
 18 32  1  0  0  0  0
 19 32  1  0  0  0  0
 19 33  2  0  0  0  0
 19 38  1  0  0  0  0
 20 22  2  0  0  0  0
 20 43  1  0  0  0  0
 21 23  2  0  0  0  0
 21 44  1  0  0  0  0
 22 53  1  0  0  0  0
 23 45  1  0  0  0  0
 24 31  2  0  0  0  0
 24 66  1  0  0  0  0
 25 31  1  0  0  0  0
 25 71  1  0  0  0  0
 26 82  1  0  0  0  0
 27 83  1  0  0  0  0
 28 30  2  0  0  0  0
 28 82  1  0  0  0  0
 29 84  1  0  0  0  0
 30 85  1  0  0  0  0
 31 86  1  0  0  0  0
 32 64  2  0  0  0  0
 33 65  1  0  0  0  0
 33 69  1  0  0  0  0
 34 35  1  0  0  0  0
 34 36  1  0  0  0  0
 34 37  2  0  0  0  0
 35 46  1  0  0  0  0
 35 75  2  0  0  0  0
 36 66  1  0  0  0  0
 36 76  2  0  0  0  0
 37 83  1  0  0  0  0
 38 70  1  0  0  0  0
 38 77  2  0  0  0  0
 39 54  1  0  0  0  0
 39 72  1  0  0  0  0
 39 78  2  0  0  0  0
 40 61  1  0  0  0  0
 40 67  1  0  0  0  0
 40 79  2  0  0  0  0
 41 62  1  0  0  0  0
 41 73  1  0  0  0  0
 41 80  2  0  0  0  0
 42 68  1  0  0  0  0
 42 71  1  0  0  0  0
 42 81  2  0  0  0  0
 43 47  1  0  0  0  0
 44 54  1  0  0  0  0
 45 67  1  0  0  0  0
 46 66  1  0  0  0  0
 47 49  1  0  0  0  0
 48 50  1  0  0  0  0
 48 51  1  0  0  0  0
 49 53  1  0  0  0  0
 50 55  1  0  0  0  0
 51 68  1  0  0  0  0
 52 55  1  0  0  0  0
 52 68  1  0  0  0  0
 53 72  1  0  0  0  0
 54 67  1  0  0  0  0
 55 65  1  0  0  0  0
 56 62  1  0  0  0  0
 57 63  1  0  0  0  0
 58 63  1  0  0  0  0
 59 63  1  0  0  0  0
 60 74  1  0  0  0  0
 61 63  1  0  0  0  0
 61 73  1  0  0  0  0
 62 74  1  0  0  0  0
 64 65  1  0  0  0  0
M  CHG  1  74   1
M  ISO  4  37 101  42 100  71 100  83 101
M  END
> <Batch ID>
0086

> <Smiles>
CNC(C)C(=O)NC(C(=O)N1Cc2cc([101O:1][101CH:1]=C3C(=O)CN(c4cccc([100NH:0][100C:0](=O)N5CCCC(n6nc(-c7ccc(Oc8ccc(F)cc8F)cc7)c(C(N)=O)c6N)C5)c4F)C3=O)ccc2CC1C(=O)NC1CCCc2ccccc21)C(C)(C)C

> <Shape>
0.295

> <Color>
0.148

> <Negative vol penalty>
0.000

$$$$

  -OEChem-04052300173D

 88 97  0     1  0  0  0  0  0999 V2000
  -32.2918  -14.7351   21.0203 C   0  0  0  0  0  0  0  0  0  0  0  0
  -31.4145  -15.7971   21.2145 C   0  0  0  0  0  0  0  0  0  0  0  0
  -27.1803  -27.2202   20.6198 C   0  0  0  0  0  0  0  0  0  0  0  0
  -25.5801  -27.2399   18.8099 C   0  0  0  0  0  0  0  0  0  0  0  0
  -31.8345  -13.5511   20.4432 C   0  0  0  0  0  0  0  0  0  0  0  0
  -30.0794  -15.6762   20.8306 C   0  0  0  0  0  0  0  0  0  0  0  0
  -25.2102  -18.1288   23.6201 C   0  0  0  0  0  0  0  0  0  0  0  0
  -19.4992  -25.7607   20.3902 C   0  0  0  0  0  0  0  0  0  0  0  0
  -18.9589  -26.9874   20.7760 C   0  0  0  0  0  0  0  0  0  0  0  0
  -27.8212  -26.1247   20.0414 C   0  0  0  0  0  0  0  0  0  0  0  0
  -26.2210  -26.1443   18.2314 C   0  0  0  0  0  0  0  0  0  0  0  0
  -24.4622  -19.2772   23.3641 C   0  0  0  0  0  0  0  0  0  0  0  0
  -27.3433  -22.7852   19.8316 C   0  0  0  0  0  0  0  0  0  0  0  0
  -27.7015  -21.7286   20.6687 C   0  0  0  0  0  0  0  0  0  0  0  0
  -22.8634  -17.9545   22.1340 C   0  0  0  0  0  0  0  0  0  0  0  0
  -20.4307  -27.0332   22.6915 C   0  0  0  0  0  0  0  0  0  0  0  0
  -30.0209  -22.0385   20.0675 C   0  0  0  0  0  0  0  0  0  0  0  0
  -26.0597  -27.7778   20.0041 C   0  0  0  0  0  0  0  0  0  0  0  0
  -25.6699  -30.2715   20.3746 C   0  0  0  0  0  0  0  0  0  0  0  0
  -30.4909  -13.4122   20.0609 C   0  0  0  0  0  0  0  0  0  0  0  0
  -24.7954  -16.8842   23.1249 C   0  0  0  0  0  0  0  0  0  0  0  0
  -29.6039  -14.4898   20.2466 C   0  0  0  0  0  0  0  0  0  0  0  0
  -23.6065  -16.7914   22.3872 C   0  0  0  0  0  0  0  0  0  0  0  0
  -20.5051  -25.1701   21.1551 C   0  0  0  0  0  0  0  0  0  0  0  0
  -19.4247  -27.6237   21.9266 C   0  0  0  0  0  0  0  0  0  0  0  0
  -20.9709  -25.8064   22.3057 C   0  0  0  0  0  0  0  0  0  0  0  0
  -27.3416  -25.5867   18.8471 C   0  0  0  0  0  0  0  0  0  0  0  0
  -23.2902  -19.1906   22.6185 C   0  0  0  0  0  0  0  0  0  0  0  0
  -28.3239  -23.4685   19.1123 C   0  0  0  0  0  0  0  0  0  0  0  0
  -29.0403  -21.3552   20.7867 C   0  0  0  0  0  0  0  0  0  0  0  0
  -29.6627  -23.0951   19.2303 C   0  0  0  0  0  0  0  0  0  0  0  0
  -25.3969  -28.9092   20.6014 C   0  0  0  0  0  0  0  0  0  0  0  0
  -24.7735  -30.9388   21.1732 C   0  0  0  0  0  0  0  0  0  0  0  0
  -22.0489  -22.2929   19.5421 C   0  0  0  0  0  0  0  0  0  0  0  0
  -21.6535  -21.7409   20.6874 C   0  0  0  0  0  0  0  0  0  0  0  0
  -21.6544  -23.7087   19.5460 C   0  0  0  0  0  0  0  0  0  0  0  0
  -20.9970  -22.7843   21.4988 C   0  0  0  0  0  0  0  0  0  0  0  0
  -17.3341  -30.6953   21.9493 C   0  0  0  0  0  0  0  0  0  0  0  0
  -17.8643  -29.5217   21.5980 C   0  0  0  0  0  0  0  0  0  0  0  0
  -26.6463  -30.8793   19.5186 C   0  0  0  0  0  0  0  0  0  0  0  0
  -26.0222  -14.7470   21.1171 C   0  0  0  0  0  0  0  0  0  0  0  0
  -23.4604  -12.9851   22.0420 C   0  0  0  0  0  0  0  0  0  0  0  0
  -20.2959  -12.9221   23.3183 C   0  0  0  0  0  0  0  0  0  0  0  0
  -19.4630  -29.6001   23.4046 C   0  0  0  0  0  0  0  0  0  0  0  0
  -30.0537  -12.1302   19.3976 C   0  0  0  0  0  0  0  0  0  0  0  0
  -25.5993  -15.6507   23.4324 C   0  0  0  0  0  0  0  0  0  0  0  0
  -23.1071  -15.4758   21.8502 C   0  0  0  0  0  0  0  0  0  0  0  0
  -28.5384  -11.9487   19.3622 C   0  0  0  0  0  0  0  0  0  0  0  0
  -22.3016  -30.4857   25.2340 C   0  0  0  0  0  0  0  0  0  0  0  0
  -27.8577  -13.2327   18.8990 C   0  0  0  0  0  0  0  0  0  0  0  0
  -23.4501  -30.3104   24.2410 C   0  0  0  0  0  0  0  0  0  0  0  0
  -21.2745  -29.3691   25.0851 C   0  0  0  0  0  0  0  0  0  0  0  0
  -21.8555  -29.0666   22.6988 C   0  0  0  0  0  0  0  0  0  0  0  0
  -28.1428  -14.3881   19.8661 C   0  0  1  0  0  0  0  0  0  0  0  0
  -25.3541  -14.5156   22.4430 C   0  0  1  0  0  0  0  0  0  0  0  0
  -22.9207  -30.1767   22.8023 C   0  0  2  0  0  0  0  0  0  0  0  0
  -18.4471  -11.3369   23.9235 C   0  0  0  0  0  0  0  0  0  0  0  0
  -22.7741  -12.6612   19.0867 C   0  0  0  0  0  0  0  0  0  0  0  0
  -20.4822  -11.9221   19.7716 C   0  0  0  0  0  0  0  0  0  0  0  0
  -22.4772  -10.5919   20.4595 C   0  0  0  0  0  0  0  0  0  0  0  0
  -20.3685  -13.7399   26.1617 C   0  0  0  0  0  0  0  0  0  0  0  0
  -21.8130  -20.3387   21.1503 C   0  0  0  0  0  0  0  0  0  1  0  0
  -22.0398  -12.8275   21.5563 C   0  0  1  0  0  0  0  0  0  0  0  0
  -19.6715  -12.0882   24.4225 C   0  0  2  0  0  0  0  0  0  0  0  0
  -21.9535  -12.0259   20.2269 C   0  0  0  0  0  0  0  0  0  0  0  0
  -24.4050  -28.7206   21.4758 N   0  0  0  0  0  0  0  0  0  0  0  0
  -24.0468  -29.9733   21.8055 N   0  0  0  0  0  0  0  0  0  0  0  0
  -21.0274  -23.9462   20.7522 N   0  0  0  0  0  0  0  0  0  0  0  0
  -23.9314  -14.2992   22.1722 N   0  0  0  0  0  0  0  0  0  0  0  0
  -20.8000  -29.2713   23.7043 N   0  0  0  0  0  0  0  0  0  0  0  0
  -21.9883  -25.2255   23.0959 N   0  0  0  0  0  0  0  0  0  0  0  0
  -24.5441  -32.2515   21.3894 N   0  0  0  0  0  0  0  0  0  0  0  0
  -27.4870  -30.0468   18.7673 N   0  0  0  0  0  0  0  0  0  0  0  0
  -27.3180  -14.2718   21.0496 N   0  0  0  0  0  0  0  0  0  0  0  0
  -21.2941  -12.2343   22.6611 N   0  0  0  0  0  0  0  0  0  0  0  0
  -18.8640  -28.8978   22.3266 N   0  0  0  0  0  0  0  0  0  0  0  0
  -19.2577  -12.9595   25.5585 N   0  3  0  0  0  0  0  0  0  0  0  0
  -21.8730  -24.4755   18.6221 O   0  0  0  0  0  0  0  0  0  0  0  0
  -20.5311  -22.5981   22.6116 O   0  0  0  0  0  0  0  0  0  0  0  0
  -26.7805  -32.1237   19.4351 O   0  0  0  0  0  0  0  0  0  0  0  0
  -25.4070  -15.3132   20.2213 O   0  0  0  0  0  0  0  0  0  0  0  0
  -24.1253  -11.9794   22.3033 O   0  0  0  0  0  0  0  0  0  0  0  0
  -19.9319  -14.0676   23.0618 O   0  0  0  0  0  0  0  0  0  0  0  0
  -18.8368  -30.4425   24.0608 O   0  0  0  0  0  0  0  0  0  0  0  0
  -27.9668  -24.5178   18.2823 O   0  0  0  0  0  0  0  0  0  0  0  0
  -22.5586  -20.3101   22.3667 O   0  0  0  0  0  0  0  0  0  1  0  0
  -29.3842  -20.3415   21.5918 F   0  0  0  0  0  0  0  0  0  0  0  0
  -30.6094  -23.7485   18.5428 F   0  0  0  0  0  0  0  0  0  0  0  0
  1  2  1  0  0  0  0
  1  5  2  0  0  0  0
  2  6  2  0  0  0  0
  3 10  2  0  0  0  0
  3 18  1  0  0  0  0
  4 11  1  0  0  0  0
  4 18  2  0  0  0  0
  5 20  1  0  0  0  0
  6 22  1  0  0  0  0
  7 12  2  0  0  0  0
  7 21  1  0  0  0  0
  8  9  2  0  0  0  0
  8 24  1  0  0  0  0
  9 25  1  0  0  0  0
 10 27  1  0  0  0  0
 11 27  2  0  0  0  0
 12 28  1  0  0  0  0
 13 14  2  0  0  0  0
 13 29  1  0  0  0  0
 14 30  1  0  0  0  0
 15 23  1  0  0  0  0
 15 28  2  0  0  0  0
 16 25  2  0  0  0  0
 16 26  1  0  0  0  0
 17 30  2  0  0  0  0
 17 31  1  0  0  0  0
 18 32  1  0  0  0  0
 19 32  1  0  0  0  0
 19 33  2  0  0  0  0
 19 40  1  0  0  0  0
 20 22  2  0  0  0  0
 20 45  1  0  0  0  0
 21 23  2  0  0  0  0
 21 46  1  0  0  0  0
 22 54  1  0  0  0  0
 23 47  1  0  0  0  0
 24 26  2  0  0  0  0
 24 68  1  0  0  0  0
 25 76  1  0  0  0  0
 26 71  1  0  0  0  0
 27 85  1  0  0  0  0
 28 86  1  0  0  0  0
 29 31  2  0  0  0  0
 29 85  1  0  0  0  0
 30 87  1  0  0  0  0
 31 88  1  0  0  0  0
 32 66  2  0  0  0  0
 33 67  1  0  0  0  0
 33 72  1  0  0  0  0
 34 35  2  0  0  0  0
 34 36  1  0  0  0  0
 35 37  1  0  0  0  0
 35 62  1  0  0  0  0
 36 68  1  0  0  0  0
 36 78  2  0  0  0  0
 37 68  1  0  0  0  0
 37 79  2  0  0  0  0
 38 39  2  0  0  0  0
 39 76  1  0  0  0  0
 40 73  1  0  0  0  0
 40 80  2  0  0  0  0
 41 55  1  0  0  0  0
 41 74  1  0  0  0  0
 41 81  2  0  0  0  0
 42 63  1  0  0  0  0
 42 69  1  0  0  0  0
 42 82  2  0  0  0  0
 43 64  1  0  0  0  0
 43 75  1  0  0  0  0
 43 83  2  0  0  0  0
 44 70  1  0  0  0  0
 44 76  1  0  0  0  0
 44 84  2  0  0  0  0
 45 48  1  0  0  0  0
 46 55  1  0  0  0  0
 47 69  1  0  0  0  0
 48 50  1  0  0  0  0
 49 51  1  0  0  0  0
 49 52  1  0  0  0  0
 50 54  1  0  0  0  0
 51 56  1  0  0  0  0
 52 70  1  0  0  0  0
 53 56  1  0  0  0  0
 53 70  1  0  0  0  0
 54 74  1  0  0  0  0
 55 69  1  0  0  0  0
 56 67  1  0  0  0  0
 57 64  1  0  0  0  0
 58 65  1  0  0  0  0
 59 65  1  0  0  0  0
 60 65  1  0  0  0  0
 61 77  1  0  0  0  0
 62 86  1  0  0  0  0
 63 65  1  0  0  0  0
 63 75  1  0  0  0  0
 64 77  1  0  0  0  0
 66 67  1  0  0  0  0
M  CHG  1  77   1
M  ISO  4  44 100  62 101  76 100  86 101
M  END
> <Batch ID>
0086

> <Smiles>
C=C[100N:0](c1ccc(N2C(=O)C=C([101CH2:1][101O:1]c3ccc4c(c3)CN(C(=O)C(NC(=O)C(C)NC)C(C)(C)C)C(C(=O)NC3CCCc5ccccc53)C4)C2=O)c(N)c1)[100C:0](=O)N1CCCC(n2nc(-c3ccc(Oc4ccc(F)cc4F)cc3)c(C(N)=O)c2N)C1

> <Shape>
0.280

> <Color>
0.054

> <Negative vol penalty>
0.000

$$$$

  -OEChem-04052300173D

 89 98  0     1  0  0  0  0  0999 V2000
  -29.6241  -34.4267   26.7064 C   0  0  0  0  0  0  0  0  0  0  0  0
  -29.3620  -33.2586   25.9976 C   0  0  0  0  0  0  0  0  0  0  0  0
  -22.5707   -7.4583   20.0772 C   0  0  0  0  0  0  0  0  0  0  0  0
  -22.6181   -7.1235   22.4694 C   0  0  0  0  0  0  0  0  0  0  0  0
  -27.8329  -19.9460   21.5725 C   0  0  0  0  0  0  0  0  0  0  0  0
  -28.5761  -35.2740   27.0635 C   0  0  0  0  0  0  0  0  0  0  0  0
  -28.0515  -32.9367   25.6464 C   0  0  0  0  0  0  0  0  0  0  0  0
  -27.6590  -31.3478   20.8541 C   0  0  0  0  0  0  0  0  0  0  0  0
  -27.6048  -21.3172   21.6872 C   0  0  0  0  0  0  0  0  0  0  0  0
  -22.3847   -6.0888   19.8892 C   0  0  0  0  0  0  0  0  0  0  0  0
  -22.4321   -5.7539   22.2814 C   0  0  0  0  0  0  0  0  0  0  0  0
  -28.0459  -30.0358   20.5846 C   0  0  0  0  0  0  0  0  0  0  0  0
  -19.8700   -3.6618   21.5893 C   0  0  0  0  0  0  0  0  0  0  0  0
  -18.9343   -3.0191   22.3998 C   0  0  0  0  0  0  0  0  0  0  0  0
  -25.7319  -29.3546   20.6106 C   0  0  0  0  0  0  0  0  0  0  0  0
  -28.8072  -21.6898   19.6250 C   0  0  0  0  0  0  0  0  0  0  0  0
  -20.6700   -1.5741   23.2579 C   0  0  0  0  0  0  0  0  0  0  0  0
  -22.6875   -7.9757   21.3674 C   0  0  0  0  0  0  0  0  0  0  0  0
  -28.5483  -19.4466   20.4841 C   0  0  0  0  0  0  0  0  0  0  0  0
  -21.8821  -10.3705   21.7194 C   0  0  0  0  0  0  0  0  0  0  0  0
  -27.2531  -34.9672   26.7081 C   0  0  0  0  0  0  0  0  0  0  0  0
  -26.3041  -31.6716   21.0149 C   0  0  0  0  0  0  0  0  0  0  0  0
  -26.9846  -33.7801   26.0002 C   0  0  0  0  0  0  0  0  0  0  0  0
  -25.3303  -30.6719   20.8796 C   0  0  0  0  0  0  0  0  0  0  0  0
  -29.0354  -20.3185   19.5103 C   0  0  0  0  0  0  0  0  0  0  0  0
  -28.0919  -22.1891   20.7135 C   0  0  0  0  0  0  0  0  0  0  0  0
  -22.3154   -5.2366   20.9913 C   0  0  0  0  0  0  0  0  0  0  0  0
  -27.0825  -29.0384   20.4657 C   0  0  0  0  0  0  0  0  0  0  0  0
  -21.2057   -3.2606   21.6129 C   0  0  0  0  0  0  0  0  0  0  0  0
  -19.3343   -1.9753   23.2342 C   0  0  0  0  0  0  0  0  0  0  0  0
  -21.6057   -2.2168   22.4473 C   0  0  0  0  0  0  0  0  0  0  0  0
  -22.8802   -9.3902   21.5622 C   0  0  0  0  0  0  0  0  0  0  0  0
  -22.5762  -11.5459   21.8710 C   0  0  0  0  0  0  0  0  0  0  0  0
  -27.4445  -25.4929   20.9563 C   0  0  0  0  0  0  0  0  0  0  0  0
  -27.2171  -24.2875   21.7544 C   0  0  0  0  0  0  0  0  0  0  0  0
  -27.1261  -26.7908   21.1115 C   0  0  0  0  0  0  0  0  0  1  0  0
  -27.5803  -17.1002   20.3199 C   0  0  0  0  0  0  0  0  0  0  0  0
  -27.7487  -15.7779   20.2155 C   0  0  0  0  0  0  0  0  0  0  0  0
  -29.0559  -19.5274   17.3656 C   0  0  0  0  0  0  0  0  0  0  0  0
  -28.7717  -18.0099   20.3900 C   0  0  0  0  0  0  0  0  0  0  0  0
  -20.4552  -10.2309   21.7277 C   0  0  0  0  0  0  0  0  0  0  0  0
  -26.5466  -14.9235   20.1408 C   0  0  0  0  0  0  0  0  0  0  0  0
  -24.5444  -32.8436   23.3885 C   0  0  0  0  0  0  0  0  0  0  0  0
  -22.2210  -32.8857   21.1252 C   0  0  0  0  0  0  0  0  0  0  0  0
  -21.0129  -31.6326   18.1897 C   0  0  0  0  0  0  0  0  0  0  0  0
  -26.1481  -35.8901   27.1574 C   0  0  0  0  0  0  0  0  0  0  0  0
  -25.9014  -33.0966   21.2789 C   0  0  0  0  0  0  0  0  0  0  0  0
  -23.8612  -30.9713   21.0233 C   0  0  0  0  0  0  0  0  0  0  0  0
  -28.1622  -24.6455   19.9309 C   0  0  0  0  0  0  0  0  0  0  0  0
  -24.8297  -35.6653   26.4214 C   0  0  0  0  0  0  0  0  0  0  0  0
  -27.4845  -12.4114   22.6391 C   0  0  0  0  0  0  0  0  0  0  0  0
  -24.5023  -34.1769   26.3554 C   0  0  0  0  0  0  0  0  0  0  0  0
  -26.2982  -11.4548   22.5533 C   0  0  0  0  0  0  0  0  0  0  0  0
  -27.8204  -13.0287   21.2824 C   0  0  0  0  0  0  0  0  0  0  0  0
  -25.4727  -12.7423   20.5431 C   0  0  0  0  0  0  0  0  0  0  0  0
  -25.5792  -33.4089   25.5795 C   0  0  1  0  0  0  0  0  0  0  0  0
  -24.5288  -33.2181   21.9335 C   0  0  1  0  0  0  0  0  0  0  0  0
  -25.0876  -12.1456   21.9058 C   0  0  1  0  0  0  0  0  0  0  0  0
  -29.7148  -19.0033   16.1287 C   0  0  0  0  0  0  0  0  0  0  0  0
  -19.0732  -31.8367   16.6108 C   0  0  0  0  0  0  0  0  0  0  0  0
  -20.4817  -31.2912   23.0597 C   0  0  0  0  0  0  0  0  0  0  0  0
  -18.9863  -30.7197   21.1348 C   0  0  0  0  0  0  0  0  0  0  0  0
  -19.2771  -33.1000   21.8221 C   0  0  0  0  0  0  0  0  0  0  0  0
  -22.7656  -32.4870   15.9633 C   0  0  0  0  0  0  0  0  0  0  0  0
  -21.1736  -31.9078   20.6500 C   0  0  1  0  0  0  0  0  0  0  0  0
  -20.4758  -32.3189   16.9468 C   0  0  2  0  0  0  0  0  0  0  0  0
  -20.0074  -31.7484   21.6658 C   0  0  0  0  0  0  0  0  0  0  0  0
  -24.1144   -9.8988   21.6094 N   0  0  0  0  0  0  0  0  0  0  0  0
  -29.7559  -19.8371   18.4097 N   0  0  0  0  0  0  0  0  0  0  0  0
  -23.8964  -11.2114   21.7979 N   0  0  0  0  0  0  0  0  0  0  0  0
  -27.8657  -23.5413   20.8263 N   0  0  0  0  0  0  0  0  0  0  0  0
  -26.6339  -13.6318   20.6568 N   0  0  0  0  0  0  0  0  0  0  0  0
  -23.5181  -32.3784   21.2872 N   0  0  0  0  0  0  0  0  0  0  0  0
  -22.1798  -12.8228   22.0583 N   0  0  0  0  0  0  0  0  0  0  0  0
  -19.9080   -8.9517   21.5587 N   0  0  0  0  0  0  0  0  0  0  0  0
  -25.4094  -33.6008   24.1551 N   0  0  0  0  0  0  0  0  0  0  0  0
  -20.7570  -32.3659   19.3290 N   0  0  0  0  0  0  0  0  0  0  0  0
  -21.3600  -32.0425   15.7794 N   0  3  0  0  0  0  0  0  0  0  0  0
  -26.6645  -24.0449   22.8071 O   0  0  0  0  0  0  0  0  0  0  0  0
  -29.9209  -17.5488   20.3426 O   0  0  0  0  0  0  0  0  0  0  0  0
  -19.6878  -11.2138   21.8639 O   0  0  0  0  0  0  0  0  0  0  0  0
  -25.5383  -15.4049   19.6209 O   0  0  0  0  0  0  0  0  0  0  0  0
  -23.8239  -31.9357   23.7864 O   0  0  0  0  0  0  0  0  0  0  0  0
  -21.9017  -34.0580   21.3378 O   0  0  0  0  0  0  0  0  0  0  0  0
  -21.5975  -30.5521   18.1540 O   0  0  0  0  0  0  0  0  0  0  0  0
  -22.1336   -3.9001   20.8082 O   0  0  0  0  0  0  0  0  0  0  0  0
  -27.4574  -27.7568   20.2033 O   0  0  0  0  0  0  0  0  0  1  0  0
  -18.4359   -1.3593   24.0136 F   0  0  0  0  0  0  0  0  0  0  0  0
  -22.8878   -1.8277   22.4752 F   0  0  0  0  0  0  0  0  0  0  0  0
  1  2  1  0  0  0  0
  1  6  2  0  0  0  0
  2  7  2  0  0  0  0
  3 10  2  0  0  0  0
  3 18  1  0  0  0  0
  4 11  1  0  0  0  0
  4 18  2  0  0  0  0
  5  9  2  0  0  0  0
  5 19  1  0  0  0  0
  6 21  1  0  0  0  0
  7 23  1  0  0  0  0
  8 12  2  0  0  0  0
  8 22  1  0  0  0  0
  9 26  1  0  0  0  0
 10 27  1  0  0  0  0
 11 27  2  0  0  0  0
 12 28  1  0  0  0  0
 13 14  2  0  0  0  0
 13 29  1  0  0  0  0
 14 30  1  0  0  0  0
 15 24  1  0  0  0  0
 15 28  2  0  0  0  0
 16 25  1  0  0  0  0
 16 26  2  0  0  0  0
 17 30  2  0  0  0  0
 17 31  1  0  0  0  0
 18 32  1  0  0  0  0
 19 25  2  0  0  0  0
 19 40  1  0  0  0  0
 20 32  1  0  0  0  0
 20 33  2  0  0  0  0
 20 41  1  0  0  0  0
 21 23  2  0  0  0  0
 21 46  1  0  0  0  0
 22 24  2  0  0  0  0
 22 47  1  0  0  0  0
 23 56  1  0  0  0  0
 24 48  1  0  0  0  0
 25 69  1  0  0  0  0
 26 71  1  0  0  0  0
 27 86  1  0  0  0  0
 28 87  1  0  0  0  0
 29 31  2  0  0  0  0
 29 86  1  0  0  0  0
 30 88  1  0  0  0  0
 31 89  1  0  0  0  0
 32 68  2  0  0  0  0
 33 70  1  0  0  0  0
 33 74  1  0  0  0  0
 34 35  1  0  0  0  0
 34 36  2  0  0  0  0
 34 49  1  0  0  0  0
 35 71  1  0  0  0  0
 35 79  2  0  0  0  0
 36 87  1  0  0  0  0
 37 38  2  0  0  0  0
 37 40  1  0  0  0  0
 38 42  1  0  0  0  0
 39 59  1  0  0  0  0
 39 69  2  0  0  0  0
 40 80  2  0  0  0  0
 41 75  1  0  0  0  0
 41 81  2  0  0  0  0
 42 72  1  0  0  0  0
 42 82  2  0  0  0  0
 43 57  1  0  0  0  0
 43 76  1  0  0  0  0
 43 83  2  0  0  0  0
 44 65  1  0  0  0  0
 44 73  1  0  0  0  0
 44 84  2  0  0  0  0
 45 66  1  0  0  0  0
 45 77  1  0  0  0  0
 45 85  2  0  0  0  0
 46 50  1  0  0  0  0
 47 57  1  0  0  0  0
 48 73  1  0  0  0  0
 49 71  1  0  0  0  0
 50 52  1  0  0  0  0
 51 53  1  0  0  0  0
 51 54  1  0  0  0  0
 52 56  1  0  0  0  0
 53 58  1  0  0  0  0
 54 72  1  0  0  0  0
 55 58  1  0  0  0  0
 55 72  1  0  0  0  0
 56 76  1  0  0  0  0
 57 73  1  0  0  0  0
 58 70  1  0  0  0  0
 60 66  1  0  0  0  0
 61 67  1  0  0  0  0
 62 67  1  0  0  0  0
 63 67  1  0  0  0  0
 64 78  1  0  0  0  0
 65 67  1  0  0  0  0
 65 77  1  0  0  0  0
 66 78  1  0  0  0  0
 68 70  1  0  0  0  0
M  CHG  1  78   1
M  ISO  4  36 101  38 100  42 100  87 101
M  END
> <Batch ID>
0086

> <Smiles>
C=CNc1cc(N2CC(=[101CH:1][101O:1]c3ccc4c(c3)CN(C(=O)C(NC(=O)C(C)NC)C(C)(C)C)C(C(=O)NC3CCCc5ccccc53)C4)C2=O)ccc1C(=O)C=[100CH:0][100C:0](=O)N1CCCC(n2nc(-c3ccc(Oc4ccc(F)cc4F)cc3)c(C(N)=O)c2N)C1

> <Shape>
0.247

> <Color>
0.085

> <Negative vol penalty>
0.000

$$$$

  -OEChem-04052300173D

 84 93  0     1  0  0  0  0  0999 V2000
  -27.3760  -37.7449   23.8602 C   0  0  0  0  0  0  0  0  0  0  0  0
  -27.9646  -36.8012   23.0246 C   0  0  0  0  0  0  0  0  0  0  0  0
  -24.1838   -9.2870   22.1900 C   0  0  0  0  0  0  0  0  0  0  0  0
  -22.9184  -11.2676   21.6306 C   0  0  0  0  0  0  0  0  0  0  0  0
  -26.4881  -37.3366   24.8546 C   0  0  0  0  0  0  0  0  0  0  0  0
  -27.6666  -35.4483   23.1837 C   0  0  0  0  0  0  0  0  0  0  0  0
  -26.9147  -29.4144   19.3965 C   0  0  0  0  0  0  0  0  0  0  0  0
  -28.5675  -19.7717   19.8358 C   0  0  0  0  0  0  0  0  0  0  0  0
  -28.8333  -18.4103   19.6890 C   0  0  0  0  0  0  0  0  0  0  0  0
  -23.3139   -9.0306   23.2498 C   0  0  0  0  0  0  0  0  0  0  0  0
  -22.0485  -11.0112   22.6904 C   0  0  0  0  0  0  0  0  0  0  0  0
  -27.3679  -28.0962   19.3695 C   0  0  0  0  0  0  0  0  0  0  0  0
  -20.2247   -7.7239   23.6765 C   0  0  0  0  0  0  0  0  0  0  0  0
  -19.7694   -6.4156   23.8394 C   0  0  0  0  0  0  0  0  0  0  0  0
  -25.7587  -27.5146   21.0700 C   0  0  0  0  0  0  0  0  0  0  0  0
  -26.2900  -19.4044   19.1180 C   0  0  0  0  0  0  0  0  0  0  0  0
  -20.7574   -6.3460   26.0430 C   0  0  0  0  0  0  0  0  0  0  0  0
  -23.9860  -10.4056   21.3804 C   0  0  0  0  0  0  0  0  0  0  0  0
  -24.7639  -10.2195   18.9581 C   0  0  0  0  0  0  0  0  0  0  0  0
  -26.1716  -35.9789   25.0197 C   0  0  0  0  0  0  0  0  0  0  0  0
  -25.8859  -29.7956   20.2697 C   0  0  0  0  0  0  0  0  0  0  0  0
  -26.7747  -35.0213   24.1821 C   0  0  0  0  0  0  0  0  0  0  0  0
  -25.2926  -28.8377   21.1043 C   0  0  0  0  0  0  0  0  0  0  0  0
  -27.2958  -20.2688   19.5503 C   0  0  0  0  0  0  0  0  0  0  0  0
  -27.8275  -17.5460   19.2567 C   0  0  0  0  0  0  0  0  0  0  0  0
  -22.2463   -9.8926   23.5000 C   0  0  0  0  0  0  0  0  0  0  0  0
  -26.7918  -27.1467   20.2083 C   0  0  0  0  0  0  0  0  0  0  0  0
  -20.9465   -8.3433   24.6969 C   0  0  0  0  0  0  0  0  0  0  0  0
  -20.0357   -5.7266   25.0226 C   0  0  0  0  0  0  0  0  0  0  0  0
  -26.5558  -18.0430   18.9712 C   0  0  0  0  0  0  0  0  0  0  0  0
  -21.2128   -7.6544   25.8801 C   0  0  0  0  0  0  0  0  0  0  0  0
  -24.8846  -10.6713   20.2859 C   0  0  0  0  0  0  0  0  0  0  0  0
  -25.8612  -10.7405   18.3170 C   0  0  0  0  0  0  0  0  0  0  0  0
  -26.6615  -23.5741   19.8055 C   0  0  0  0  0  0  0  0  0  0  0  0
  -25.9167  -22.3537   19.4937 C   0  0  0  0  0  0  0  0  0  0  0  0
  -26.3377  -24.8788   19.8603 C   0  0  0  0  0  0  0  0  0  1  0  0
  -23.7505   -9.4020   18.3578 C   0  0  0  0  0  0  0  0  0  0  0  0
  -25.6448  -31.8311   22.6991 C   0  0  0  0  0  0  0  0  0  0  0  0
  -22.5079  -31.0167   22.5622 C   0  0  0  0  0  0  0  0  0  0  0  0
  -20.1455  -28.7306   21.6459 C   0  0  0  0  0  0  0  0  0  0  0  0
  -29.3089  -15.5105   19.3492 C   0  0  0  0  0  0  0  0  0  0  0  0
  -25.2427  -35.5810   26.1393 C   0  0  0  0  0  0  0  0  0  0  0  0
  -25.3902  -31.2158   20.2676 C   0  0  0  0  0  0  0  0  0  0  0  0
  -24.1713  -29.1915   22.0455 C   0  0  0  0  0  0  0  0  0  0  0  0
  -27.8975  -22.7317   20.0228 C   0  0  0  0  0  0  0  0  0  0  0  0
  -24.6918  -34.1643   25.9992 C   0  0  0  0  0  0  0  0  0  0  0  0
  -30.3733  -12.1194   19.1378 C   0  0  0  0  0  0  0  0  0  0  0  0
  -25.8111  -33.1882   25.6509 C   0  0  0  0  0  0  0  0  0  0  0  0
  -29.0748  -11.3223   19.2813 C   0  0  0  0  0  0  0  0  0  0  0  0
  -30.3731  -13.3672   20.0192 C   0  0  0  0  0  0  0  0  0  0  0  0
  -27.9110  -13.4497   19.9930 C   0  0  0  0  0  0  0  0  0  0  0  0
  -26.4576  -33.5469   24.3074 C   0  0  1  0  0  0  0  0  0  0  0  0
  -24.6866  -31.6050   21.5640 C   0  0  1  0  0  0  0  0  0  0  0  0
  -27.8378  -12.2183   19.0754 C   0  0  2  0  0  0  0  0  0  0  0  0
  -17.6691  -28.3279   21.6984 C   0  0  0  0  0  0  0  0  0  0  0  0
  -22.6841  -30.3354   25.5312 C   0  0  0  0  0  0  0  0  0  0  0  0
  -20.5322  -29.0770   25.2988 C   0  0  0  0  0  0  0  0  0  0  0  0
  -20.5935  -31.5314   24.8576 C   0  0  0  0  0  0  0  0  0  0  0  0
  -19.9842  -28.6165   18.6929 C   0  0  0  0  0  0  0  0  0  0  0  0
  -21.6525  -29.9466   23.1965 C   0  0  1  0  0  0  0  0  0  0  0  0
  -18.8351  -28.8822   20.8946 C   0  0  2  0  0  0  0  0  0  0  0  0
  -21.3880  -30.2160   24.7048 C   0  0  0  0  0  0  0  0  0  0  0  0
  -25.9728  -11.4216   20.4784 N   0  0  0  0  0  0  0  0  0  0  0  0
  -26.5459  -11.4450   19.2630 N   0  0  0  0  0  0  0  0  0  0  0  0
  -27.0337  -21.6114   19.6944 N   0  0  0  0  0  0  0  0  0  0  0  0
  -23.7259  -30.5943   22.0111 N   0  0  0  0  0  0  0  0  0  0  0  0
  -29.1742  -14.1695   19.7665 N   0  0  0  0  0  0  0  0  0  0  0  0
  -26.2976  -10.6601   17.0420 N   0  0  0  0  0  0  0  0  0  0  0  0
  -22.6930   -8.9520   19.1600 N   0  0  0  0  0  0  0  0  0  0  0  0
  -28.1006  -16.1636   19.1081 N   0  0  0  0  0  0  0  0  0  0  0  0
  -25.6178  -33.1144   23.2110 N   0  0  0  0  0  0  0  0  0  0  0  0
  -20.4436  -29.8559   22.3848 N   0  0  0  0  0  0  0  0  0  0  0  0
  -18.8966  -28.1567   19.5943 N   0  3  0  0  0  0  0  0  0  0  0  0
  -24.7738  -22.1021   19.1729 O   0  0  0  0  0  0  0  0  0  0  0  0
  -23.7905   -9.0664   17.1497 O   0  0  0  0  0  0  0  0  0  0  0  0
  -26.3549  -30.9092   23.0832 O   0  0  0  0  0  0  0  0  0  0  0  0
  -22.1067  -32.1831   22.5497 O   0  0  0  0  0  0  0  0  0  0  0  0
  -20.8337  -27.7141   21.5863 O   0  0  0  0  0  0  0  0  0  0  0  0
  -30.4153  -16.0323   19.1893 O   0  0  0  0  0  0  0  0  0  0  0  0
  -21.3971   -9.6425   24.5339 O   0  0  0  0  0  0  0  0  0  0  0  0
  -27.2326  -25.8594   20.1845 O   0  0  0  0  0  0  0  0  0  1  0  0
  -19.5971   -4.4708   25.1795 F   0  0  0  0  0  0  0  0  0  0  0  0
  -25.5817  -17.2218   18.5536 F   0  0  0  0  0  0  0  0  0  0  0  0
  -21.9047   -8.2446   26.8644 F   0  0  0  0  0  0  0  0  0  0  0  0
  1  2  1  0  0  0  0
  1  5  2  0  0  0  0
  2  6  2  0  0  0  0
  3 10  2  0  0  0  0
  3 18  1  0  0  0  0
  4 11  1  0  0  0  0
  4 18  2  0  0  0  0
  5 20  1  0  0  0  0
  6 22  1  0  0  0  0
  7 12  2  0  0  0  0
  7 21  1  0  0  0  0
  8  9  2  0  0  0  0
  8 24  1  0  0  0  0
  9 25  1  0  0  0  0
 10 26  1  0  0  0  0
 11 26  2  0  0  0  0
 12 27  1  0  0  0  0
 13 14  2  0  0  0  0
 13 28  1  0  0  0  0
 14 29  1  0  0  0  0
 15 23  1  0  0  0  0
 15 27  2  0  0  0  0
 16 24  2  0  0  0  0
 16 30  1  0  0  0  0
 17 29  2  0  0  0  0
 17 31  1  0  0  0  0
 18 32  1  0  0  0  0
 19 32  1  0  0  0  0
 19 33  2  0  0  0  0
 19 37  1  0  0  0  0
 20 22  2  0  0  0  0
 20 42  1  0  0  0  0
 21 23  2  0  0  0  0
 21 43  1  0  0  0  0
 22 52  1  0  0  0  0
 23 44  1  0  0  0  0
 24 65  1  0  0  0  0
 25 30  2  0  0  0  0
 25 70  1  0  0  0  0
 26 80  1  0  0  0  0
 27 81  1  0  0  0  0
 28 31  2  0  0  0  0
 28 80  1  0  0  0  0
 29 82  1  0  0  0  0
 30 83  1  0  0  0  0
 31 84  1  0  0  0  0
 32 63  2  0  0  0  0
 33 64  1  0  0  0  0
 33 68  1  0  0  0  0
 34 35  1  0  0  0  0
 34 36  2  0  0  0  0
 34 45  1  0  0  0  0
 35 65  1  0  0  0  0
 35 74  2  0  0  0  0
 36 81  1  0  0  0  0
 37 69  1  0  0  0  0
 37 75  2  0  0  0  0
 38 53  1  0  0  0  0
 38 71  1  0  0  0  0
 38 76  2  0  0  0  0
 39 60  1  0  0  0  0
 39 66  1  0  0  0  0
 39 77  2  0  0  0  0
 40 61  1  0  0  0  0
 40 72  1  0  0  0  0
 40 78  2  0  0  0  0
 41 67  1  0  0  0  0
 41 70  1  0  0  0  0
 41 79  2  0  0  0  0
 42 46  1  0  0  0  0
 43 53  1  0  0  0  0
 44 66  1  0  0  0  0
 45 65  1  0  0  0  0
 46 48  1  0  0  0  0
 47 49  1  0  0  0  0
 47 50  1  0  0  0  0
 48 52  1  0  0  0  0
 49 54  1  0  0  0  0
 50 67  1  0  0  0  0
 51 54  1  0  0  0  0
 51 67  1  0  0  0  0
 52 71  1  0  0  0  0
 53 66  1  0  0  0  0
 54 64  1  0  0  0  0
 55 61  1  0  0  0  0
 56 62  1  0  0  0  0
 57 62  1  0  0  0  0
 58 62  1  0  0  0  0
 59 73  1  0  0  0  0
 60 62  1  0  0  0  0
 60 72  1  0  0  0  0
 61 73  1  0  0  0  0
 63 64  1  0  0  0  0
M  CHG  1  73   1
M  ISO  4  36 101  41 100  70 100  81 101
M  END
> <Batch ID>
0086

> <Smiles>
CNC(C)C(=O)NC(C(=O)N1Cc2cc([101O:1][101CH:1]=C3CN(c4ccc([100NH:0][100C:0](=O)N5CCCC(n6nc(-c7ccc(Oc8ccc(F)cc8F)cc7)c(C(N)=O)c6N)C5)c(F)c4)C3=O)ccc2CC1C(=O)NC1CCCc2ccccc21)C(C)(C)C

> <Shape>
0.291

> <Color>
0.088

> <Negative vol penalty>
0.000

$$$$

  -OEChem-04052300173D

 88 97  0     1  0  0  0  0  0999 V2000
  -22.4147  -11.5551   20.5788 C   0  0  0  0  0  0  0  0  0  0  0  0
  -23.2893  -11.9809   19.5855 C   0  0  0  0  0  0  0  0  0  0  0  0
  -26.2716  -22.8542   23.8426 C   0  0  0  0  0  0  0  0  0  0  0  0
  -24.0313  -22.0629   24.2806 C   0  0  0  0  0  0  0  0  0  0  0  0
  -22.0923  -12.4092   21.6313 C   0  0  0  0  0  0  0  0  0  0  0  0
  -23.8511  -13.2564   19.6506 C   0  0  0  0  0  0  0  0  0  0  0  0
  -28.2698  -19.4716   17.3990 C   0  0  0  0  0  0  0  0  0  0  0  0
  -26.2787  -27.7544   18.9808 C   0  0  0  0  0  0  0  0  0  0  0  0
  -25.1880  -28.6168   18.8692 C   0  0  0  0  0  0  0  0  0  0  0  0
  -26.7672  -21.9933   24.8218 C   0  0  0  0  0  0  0  0  0  0  0  0
  -24.5269  -21.2020   25.2598 C   0  0  0  0  0  0  0  0  0  0  0  0
  -28.4357  -20.8436   17.5829 C   0  0  0  0  0  0  0  0  0  0  0  0
  -25.5621  -21.4143   28.4714 C   0  0  0  0  0  0  0  0  0  0  0  0
  -24.8804  -21.3543   29.6868 C   0  0  0  0  0  0  0  0  0  0  0  0
  -28.6520  -20.4927   19.9598 C   0  0  0  0  0  0  0  0  0  0  0  0
  -26.7455  -28.6299   21.1836 C   0  0  0  0  0  0  0  0  0  0  0  0
  -24.4753  -18.9974   29.3433 C   0  0  0  0  0  0  0  0  0  0  0  0
  -24.9036  -22.8891   23.5720 C   0  0  0  0  0  0  0  0  0  0  0  0
  -24.2211  -23.5010   21.1914 C   0  0  0  0  0  0  0  0  0  0  0  0
  -22.6412  -13.7002   21.7020 C   0  0  0  0  0  0  0  0  0  0  0  0
  -28.2828  -18.5995   18.4971 C   0  0  0  0  0  0  0  0  0  0  0  0
  -23.5568  -14.1245   20.7176 C   0  0  0  0  0  0  0  0  0  0  0  0
  -28.4886  -19.1098   19.7869 C   0  0  0  0  0  0  0  0  0  0  0  0
  -27.0574  -27.7609   20.1380 C   0  0  0  0  0  0  0  0  0  0  0  0
  -24.8762  -29.4857   19.9148 C   0  0  0  0  0  0  0  0  0  0  0  0
  -25.6549  -29.4923   21.0721 C   0  0  0  0  0  0  0  0  0  0  0  0
  -25.8948  -21.1672   25.5304 C   0  0  0  0  0  0  0  0  0  0  0  0
  -28.6240  -21.3547   18.8637 C   0  0  0  0  0  0  0  0  0  0  0  0
  -25.7003  -20.2658   27.6919 C   0  0  0  0  0  0  0  0  0  0  0  0
  -24.3370  -20.1459   30.1228 C   0  0  0  0  0  0  0  0  0  0  0  0
  -25.1570  -19.0574   28.1279 C   0  0  0  0  0  0  0  0  0  0  0  0
  -24.3910  -23.7786   22.5610 C   0  0  0  0  0  0  0  0  0  0  0  0
  -23.7076  -24.6619   20.6669 C   0  0  0  0  0  0  0  0  0  0  0  0
  -30.3708  -25.1934   20.5784 C   0  0  0  0  0  0  0  0  0  0  0  0
  -29.4369  -27.4035   20.4356 C   0  0  0  0  0  0  0  0  0  0  0  0
  -29.1734  -24.6203   20.3966 C   0  0  0  0  0  0  0  0  0  0  0  0
  -30.5094  -26.6212   20.5879 C   0  0  0  0  0  0  0  0  0  0  0  0
  -27.9571  -25.4863   20.1785 C   0  0  0  0  0  0  0  0  0  0  0  0
  -24.5021  -22.3010   20.4588 C   0  0  0  0  0  0  0  0  0  0  0  0
  -26.1842  -16.5962   19.7957 C   0  0  0  0  0  0  0  0  0  0  0  0
  -28.7040  -15.7891   21.6723 C   0  0  0  0  0  0  0  0  0  0  0  0
  -31.3722  -17.5131   23.3829 C   0  0  0  0  0  0  0  0  0  0  0  0
  -24.1273  -30.3611   22.8617 C   0  0  0  0  0  0  0  0  0  0  0  0
  -22.2641  -14.5804   22.8674 C   0  0  0  0  0  0  0  0  0  0  0  0
  -28.1291  -17.1192   18.2792 C   0  0  0  0  0  0  0  0  0  0  0  0
  -28.5310  -18.2138   20.9967 C   0  0  0  0  0  0  0  0  0  0  0  0
  -22.5560  -16.0563   22.6166 C   0  0  0  0  0  0  0  0  0  0  0  0
  -21.1014  -28.4949   21.8347 C   0  0  0  0  0  0  0  0  0  0  0  0
  -23.9775  -16.2247   22.1014 C   0  0  0  0  0  0  0  0  0  0  0  0
  -21.5704  -27.0416   21.8714 C   0  0  0  0  0  0  0  0  0  0  0  0
  -21.8644  -29.3616   22.8318 C   0  0  0  0  0  0  0  0  0  0  0  0
  -23.8185  -27.8433   22.6990 C   0  0  0  0  0  0  0  0  0  0  0  0
  -24.1563  -15.5187   20.7513 C   0  0  1  0  0  0  0  0  0  0  0  0
  -27.6457  -16.3792   19.5226 C   0  0  1  0  0  0  0  0  0  0  0  0
  -23.0930  -26.9578   21.6747 C   0  0  1  0  0  0  0  0  0  0  0  0
  -33.6642  -16.7294   24.0387 C   0  0  0  0  0  0  0  0  0  0  0  0
  -27.3926  -15.1135   24.3433 C   0  0  0  0  0  0  0  0  0  0  0  0
  -29.4789  -15.8947   25.4859 C   0  0  0  0  0  0  0  0  0  0  0  0
  -29.5670  -13.9509   23.9250 C   0  0  0  0  0  0  0  0  0  0  0  0
  -26.2439  -31.5159   22.3945 C   0  0  0  0  0  0  0  0  0  0  0  0
  -32.6738  -19.7562   21.9571 C   0  0  0  0  0  0  0  0  0  0  0  0
  -28.9740  -23.1485   20.3854 C   0  0  0  0  0  0  0  0  0  1  0  0
  -29.2565  -16.2789   22.9891 C   0  0  1  0  0  0  0  0  0  0  0  0
  -32.8450  -17.5002   23.0152 C   0  0  2  0  0  0  0  0  0  0  0  0
  -28.9095  -15.3268   24.1683 C   0  0  0  0  0  0  0  0  0  0  0  0
  -24.0161  -25.0186   22.8862 N   0  0  0  0  0  0  0  0  0  0  0  0
  -23.6055  -25.5305   21.7134 N   0  0  0  0  0  0  0  0  0  0  0  0
  -28.1535  -26.8904   20.2513 N   0  0  0  0  0  0  0  0  0  0  0  0
  -28.3695  -16.7745   20.7326 N   0  0  0  0  0  0  0  0  0  0  0  0
  -23.3131  -29.2256   22.6721 N   0  0  0  0  0  0  0  0  0  0  0  0
  -23.7682  -30.3522   19.7794 N   0  0  0  0  0  0  0  0  0  0  0  0
  -23.3380  -25.0142   19.4172 N   0  0  0  0  0  0  0  0  0  0  0  0
  -25.0268  -21.2020   21.1526 N   0  0  0  0  0  0  0  0  0  0  0  0
  -25.5591  -15.5217   20.3991 N   0  0  0  0  0  0  0  0  0  0  0  0
  -30.6870  -16.4778   22.7828 N   0  0  0  0  0  0  0  0  0  0  0  0
  -25.3516  -30.3813   22.1668 N   0  0  0  0  0  0  0  0  0  0  0  0
  -33.3729  -18.8920   22.9426 N   0  3  0  0  0  0  0  0  0  0  0  0
  -26.8640  -24.9567   19.9704 O   0  0  0  0  0  0  0  0  0  0  0  0
  -24.3096  -22.2115   19.2225 O   0  0  0  0  0  0  0  0  0  0  0  0
  -25.6627  -17.6603   19.4835 O   0  0  0  0  0  0  0  0  0  0  0  0
  -28.5807  -14.5766   21.4818 O   0  0  0  0  0  0  0  0  0  0  0  0
  -30.8797  -18.3549   24.1307 O   0  0  0  0  0  0  0  0  0  0  0  0
  -23.8120  -31.2698   23.6398 O   0  0  0  0  0  0  0  0  0  0  0  0
  -31.7860  -27.0935   20.7717 O   0  0  0  0  0  0  0  0  0  0  0  0
  -26.3781  -20.3268   26.4858 O   0  0  0  0  0  0  0  0  0  0  0  0
  -28.7856  -22.6935   19.0461 O   0  0  0  0  0  0  0  0  0  1  0  0
  -23.6838  -20.0881   31.2908 F   0  0  0  0  0  0  0  0  0  0  0  0
  -25.2876  -17.9505   27.3839 F   0  0  0  0  0  0  0  0  0  0  0  0
  1  2  1  0  0  0  0
  1  5  2  0  0  0  0
  2  6  2  0  0  0  0
  3 10  2  0  0  0  0
  3 18  1  0  0  0  0
  4 11  1  0  0  0  0
  4 18  2  0  0  0  0
  5 20  1  0  0  0  0
  6 22  1  0  0  0  0
  7 12  2  0  0  0  0
  7 21  1  0  0  0  0
  8  9  2  0  0  0  0
  8 24  1  0  0  0  0
  9 25  1  0  0  0  0
 10 27  1  0  0  0  0
 11 27  2  0  0  0  0
 12 28  1  0  0  0  0
 13 14  2  0  0  0  0
 13 29  1  0  0  0  0
 14 30  1  0  0  0  0
 15 23  1  0  0  0  0
 15 28  2  0  0  0  0
 16 24  2  0  0  0  0
 16 26  1  0  0  0  0
 17 30  2  0  0  0  0
 17 31  1  0  0  0  0
 18 32  1  0  0  0  0
 19 32  1  0  0  0  0
 19 33  2  0  0  0  0
 19 39  1  0  0  0  0
 20 22  2  0  0  0  0
 20 44  1  0  0  0  0
 21 23  2  0  0  0  0
 21 45  1  0  0  0  0
 22 53  1  0  0  0  0
 23 46  1  0  0  0  0
 24 68  1  0  0  0  0
 25 26  2  0  0  0  0
 25 71  1  0  0  0  0
 26 76  1  0  0  0  0
 27 85  1  0  0  0  0
 28 86  1  0  0  0  0
 29 31  2  0  0  0  0
 29 85  1  0  0  0  0
 30 87  1  0  0  0  0
 31 88  1  0  0  0  0
 32 66  2  0  0  0  0
 33 67  1  0  0  0  0
 33 72  1  0  0  0  0
 34 36  2  0  0  0  0
 34 37  1  0  0  0  0
 35 37  2  0  0  0  0
 35 68  1  0  0  0  0
 36 38  1  0  0  0  0
 36 62  1  0  0  0  0
 37 84  1  0  0  0  0
 38 68  1  0  0  0  0
 38 78  2  0  0  0  0
 39 73  1  0  0  0  0
 39 79  2  0  0  0  0
 40 54  1  0  0  0  0
 40 74  1  0  0  0  0
 40 80  2  0  0  0  0
 41 63  1  0  0  0  0
 41 69  1  0  0  0  0
 41 81  2  0  0  0  0
 42 64  1  0  0  0  0
 42 75  1  0  0  0  0
 42 82  2  0  0  0  0
 43 70  1  0  0  0  0
 43 76  1  0  0  0  0
 43 83  2  0  0  0  0
 44 47  1  0  0  0  0
 45 54  1  0  0  0  0
 46 69  1  0  0  0  0
 47 49  1  0  0  0  0
 48 50  1  0  0  0  0
 48 51  1  0  0  0  0
 49 53  1  0  0  0  0
 50 55  1  0  0  0  0
 51 70  1  0  0  0  0
 52 55  1  0  0  0  0
 52 70  1  0  0  0  0
 53 74  1  0  0  0  0
 54 69  1  0  0  0  0
 55 67  1  0  0  0  0
 56 64  1  0  0  0  0
 57 65  1  0  0  0  0
 58 65  1  0  0  0  0
 59 65  1  0  0  0  0
 60 76  1  0  0  0  0
 61 77  1  0  0  0  0
 62 86  1  0  0  0  0
 63 65  1  0  0  0  0
 63 75  1  0  0  0  0
 64 77  1  0  0  0  0
 66 67  1  0  0  0  0
M  CHG  1  77   1
M  ISO  4  43 100  62 101  76 100  86 101
M  END
> <Batch ID>
0086

> <Smiles>
CNC(C)C(=O)NC(C(=O)N1Cc2cc([101O:1][101CH:1]=C3CC(=O)CN(c4ccc(N)c([100N:0](C)[100C:0](=O)N5CCCC(n6nc(-c7ccc(Oc8ccc(F)cc8F)cc7)c(C(N)=O)c6N)C5)c4)C3=O)ccc2CC1C(=O)NC1CCCc2ccccc21)C(C)(C)C

> <Shape>
0.220

> <Color>
0.054

> <Negative vol penalty>
0.000

$$$$

  -OEChem-04052300173D

 88 97  0     1  0  0  0  0  0999 V2000
  -18.4271  -26.0375   25.1701 C   0  0  0  0  0  0  0  0  0  0  0  0
  -19.6953  -26.1848   24.6174 C   0  0  0  0  0  0  0  0  0  0  0  0
  -23.8715   -9.7689   22.0764 C   0  0  0  0  0  0  0  0  0  0  0  0
  -22.6953   -9.7869   19.9661 C   0  0  0  0  0  0  0  0  0  0  0  0
  -27.8384  -21.8264   21.7836 C   0  0  0  0  0  0  0  0  0  0  0  0
  -17.4373  -26.9823   24.9025 C   0  0  0  0  0  0  0  0  0  0  0  0
  -19.9740  -27.2765   23.7958 C   0  0  0  0  0  0  0  0  0  0  0  0
  -24.4202  -29.4423   24.8848 C   0  0  0  0  0  0  0  0  0  0  0  0
  -27.9417  -23.2173   21.7642 C   0  0  0  0  0  0  0  0  0  0  0  0
  -23.0108   -8.7777   22.5477 C   0  0  0  0  0  0  0  0  0  0  0  0
  -21.8346   -8.7956   20.4374 C   0  0  0  0  0  0  0  0  0  0  0  0
  -25.5696  -28.8064   24.4176 C   0  0  0  0  0  0  0  0  0  0  0  0
  -22.6416   -5.4335   22.2120 C   0  0  0  0  0  0  0  0  0  0  0  0
  -23.2069   -4.3508   22.8858 C   0  0  0  0  0  0  0  0  0  0  0  0
  -25.6790  -30.3666   22.5811 C   0  0  0  0  0  0  0  0  0  0  0  0
  -29.2721  -23.0904   19.7514 C   0  0  0  0  0  0  0  0  0  0  0  0
  -21.9153   -4.9004   24.8523 C   0  0  0  0  0  0  0  0  0  0  0  0
  -23.7138  -10.2736   20.7856 C   0  0  0  0  0  0  0  0  0  0  0  0
  -28.4520  -21.0675   20.7869 C   0  0  0  0  0  0  0  0  0  0  0  0
  -25.8205  -11.1132   19.6175 C   0  0  0  0  0  0  0  0  0  0  0  0
  -17.7068  -28.0912   24.0850 C   0  0  0  0  0  0  0  0  0  0  0  0
  -23.8845  -30.5402   24.1964 C   0  0  0  0  0  0  0  0  0  0  0  0
  -18.9865  -28.2363   23.5159 C   0  0  0  0  0  0  0  0  0  0  0  0
  -24.5242  -31.0163   23.0431 C   0  0  0  0  0  0  0  0  0  0  0  0
  -28.6585  -23.8493   20.7481 C   0  0  0  0  0  0  0  0  0  0  0  0
  -21.9923   -8.2910   21.7282 C   0  0  0  0  0  0  0  0  0  0  0  0
  -26.1975  -29.2667   23.2640 C   0  0  0  0  0  0  0  0  0  0  0  0
  -21.7132   -6.2496   22.8583 C   0  0  0  0  0  0  0  0  0  0  0  0
  -22.8437   -4.0843   24.2059 C   0  0  0  0  0  0  0  0  0  0  0  0
  -29.1688  -21.6995   19.7708 C   0  0  0  0  0  0  0  0  0  0  0  0
  -21.3501   -5.9831   24.1784 C   0  0  0  0  0  0  0  0  0  0  0  0
  -24.6022  -11.2980   20.2984 C   0  0  0  0  0  0  0  0  0  0  0  0
  -26.2745  -12.3865   19.3744 C   0  0  0  0  0  0  0  0  0  0  0  0
  -29.5219  -27.3791   20.4041 C   0  0  0  0  0  0  0  0  0  0  0  0
  -28.3250  -27.4762   20.9881 C   0  0  0  0  0  0  0  0  0  0  0  0
  -29.8277  -25.9448   20.2151 C   0  0  0  0  0  0  0  0  0  0  0  0
  -27.8128  -26.1086   21.2196 C   0  0  0  0  0  0  0  0  0  0  0  0
  -28.3419  -19.6171   20.8115 C   0  0  0  0  0  0  0  0  0  0  0  0
  -27.2921  -18.9196   21.2949 C   0  0  0  0  0  0  0  0  0  0  0  0
  -26.4826   -9.8992   19.2387 C   0  0  0  0  0  0  0  0  0  0  0  0
  -27.3254  -17.4443   21.2398 C   0  0  0  0  0  0  0  0  0  0  0  0
  -21.1313  -31.1393   22.7251 C   0  0  0  0  0  0  0  0  0  0  0  0
  -22.3732  -34.1237   22.4549 C   0  0  0  0  0  0  0  0  0  0  0  0
  -25.1467  -36.1102   22.3625 C   0  0  0  0  0  0  0  0  0  0  0  0
  -16.5911  -29.0611   23.7861 C   0  0  0  0  0  0  0  0  0  0  0  0
  -22.6592  -31.2318   24.7283 C   0  0  0  0  0  0  0  0  0  0  0  0
  -24.0007  -32.2039   22.2788 C   0  0  0  0  0  0  0  0  0  0  0  0
  -17.0761  -30.3882   23.2085 C   0  0  0  0  0  0  0  0  0  0  0  0
  -23.9884  -16.8569   19.8431 C   0  0  0  0  0  0  0  0  0  0  0  0
  -18.0968  -30.1472   22.1008 C   0  0  0  0  0  0  0  0  0  0  0  0
  -23.9403  -15.3314   19.8290 C   0  0  0  0  0  0  0  0  0  0  0  0
  -24.7816  -17.3930   21.0340 C   0  0  0  0  0  0  0  0  0  0  0  0
  -26.1108  -15.3034   21.1206 C   0  0  0  0  0  0  0  0  0  0  0  0
  -19.3346  -29.4201   22.6398 C   0  0  1  0  0  0  0  0  0  0  0  0
  -21.9081  -32.0216   23.6609 C   0  0  1  0  0  0  0  0  0  0  0  0
  -25.3574  -14.7414   19.9049 C   0  0  1  0  0  0  0  0  0  0  0  0
  -30.4693  -28.4333   19.9659 C   0  0  0  0  0  0  0  0  0  0  0  0
  -25.8465  -38.5049   22.0928 C   0  0  0  0  0  0  0  0  0  0  0  0
  -21.8348  -33.9409   19.4572 C   0  0  0  0  0  0  0  0  0  0  0  0
  -23.3785  -35.8850   19.1320 C   0  0  0  0  0  0  0  0  0  0  0  0
  -21.2977  -36.1589   20.4802 C   0  0  0  0  0  0  0  0  0  0  0  0
  -26.4031  -36.1659   25.0416 C   0  0  0  0  0  0  0  0  0  0  0  0
  -27.5449  -28.6722   21.3966 C   0  0  0  0  0  0  0  0  0  1  0  0
  -23.2292  -34.8373   21.4366 C   0  0  1  0  0  0  0  0  0  0  0  0
  -25.4820  -37.4059   23.0788 C   0  0  2  0  0  0  0  0  0  0  0  0
  -22.4440  -35.1819   20.1396 C   0  0  0  0  0  0  0  0  0  0  0  0
  -24.3014  -12.5871   20.4765 N   0  0  0  0  0  0  0  0  0  0  0  0
  -25.3372  -13.2239   19.9041 N   0  0  0  0  0  0  0  0  0  0  0  0
  -28.7615  -25.2358   20.7285 N   0  0  0  0  0  0  0  0  0  0  0  0
  -26.1113  -16.7706   21.1190 N   0  0  0  0  0  0  0  0  0  0  0  0
  -22.7964  -32.8423   22.8353 N   0  0  0  0  0  0  0  0  0  0  0  0
  -27.3800  -12.8604   18.7615 N   0  0  0  0  0  0  0  0  0  0  0  0
  -25.8777   -8.6781   19.5663 N   0  0  0  0  0  0  0  0  0  0  0  0
  -20.1924  -30.3426   23.3523 N   0  0  0  0  0  0  0  0  0  0  0  0
  -23.7944  -35.9965   22.1188 N   0  0  0  0  0  0  0  0  0  0  0  0
  -26.6329  -37.2037   24.0037 N   0  3  0  0  0  0  0  0  0  0  0  0
  -30.8498  -25.5237   19.6967 O   0  0  0  0  0  0  0  0  0  0  0  0
  -26.7418  -25.8580   21.7496 O   0  0  0  0  0  0  0  0  0  0  0  0
  -27.5861   -9.8972   18.6423 O   0  0  0  0  0  0  0  0  0  0  0  0
  -28.4277  -16.8975   21.3092 O   0  0  0  0  0  0  0  0  0  0  0  0
  -21.3653  -31.1794   21.5229 O   0  0  0  0  0  0  0  0  0  0  0  0
  -21.3702  -34.6855   22.9020 O   0  0  0  0  0  0  0  0  0  0  0  0
  -25.9997  -35.2834   22.0472 O   0  0  0  0  0  0  0  0  0  0  0  0
  -21.1524   -7.3236   22.1877 O   0  0  0  0  0  0  0  0  0  0  0  0
  -27.3192  -28.6474   22.8055 O   0  0  0  0  0  0  0  0  0  1  0  0
  -23.3854   -3.0437   24.8524 F   0  0  0  0  0  0  0  0  0  0  0  0
  -29.7646  -20.9836   18.8060 F   0  0  0  0  0  0  0  0  0  0  0  0
  -20.4578   -6.7629   24.8042 F   0  0  0  0  0  0  0  0  0  0  0  0
  1  2  1  0  0  0  0
  1  6  2  0  0  0  0
  2  7  2  0  0  0  0
  3 10  2  0  0  0  0
  3 18  1  0  0  0  0
  4 11  1  0  0  0  0
  4 18  2  0  0  0  0
  5  9  2  0  0  0  0
  5 19  1  0  0  0  0
  6 21  1  0  0  0  0
  7 23  1  0  0  0  0
  8 12  2  0  0  0  0
  8 22  1  0  0  0  0
  9 25  1  0  0  0  0
 10 26  1  0  0  0  0
 11 26  2  0  0  0  0
 12 27  1  0  0  0  0
 13 14  2  0  0  0  0
 13 28  1  0  0  0  0
 14 29  1  0  0  0  0
 15 24  1  0  0  0  0
 15 27  2  0  0  0  0
 16 25  2  0  0  0  0
 16 30  1  0  0  0  0
 17 29  2  0  0  0  0
 17 31  1  0  0  0  0
 18 32  1  0  0  0  0
 19 30  2  0  0  0  0
 19 38  1  0  0  0  0
 20 32  1  0  0  0  0
 20 33  2  0  0  0  0
 20 40  1  0  0  0  0
 21 23  2  0  0  0  0
 21 45  1  0  0  0  0
 22 24  2  0  0  0  0
 22 46  1  0  0  0  0
 23 54  1  0  0  0  0
 24 47  1  0  0  0  0
 25 69  1  0  0  0  0
 26 84  1  0  0  0  0
 27 85  1  0  0  0  0
 28 31  2  0  0  0  0
 28 84  1  0  0  0  0
 29 86  1  0  0  0  0
 30 87  1  0  0  0  0
 31 88  1  0  0  0  0
 32 67  2  0  0  0  0
 33 68  1  0  0  0  0
 33 72  1  0  0  0  0
 34 35  2  0  0  0  0
 34 36  1  0  0  0  0
 34 57  1  0  0  0  0
 35 37  1  0  0  0  0
 35 63  1  0  0  0  0
 36 69  1  0  0  0  0
 36 77  2  0  0  0  0
 37 69  1  0  0  0  0
 37 78  2  0  0  0  0
 38 39  2  0  0  0  0
 39 41  1  0  0  0  0
 40 73  1  0  0  0  0
 40 79  2  0  0  0  0
 41 70  1  0  0  0  0
 41 80  2  0  0  0  0
 42 55  1  0  0  0  0
 42 74  1  0  0  0  0
 42 81  2  0  0  0  0
 43 64  1  0  0  0  0
 43 71  1  0  0  0  0
 43 82  2  0  0  0  0
 44 65  1  0  0  0  0
 44 75  1  0  0  0  0
 44 83  2  0  0  0  0
 45 48  1  0  0  0  0
 46 55  1  0  0  0  0
 47 71  1  0  0  0  0
 48 50  1  0  0  0  0
 49 51  1  0  0  0  0
 49 52  1  0  0  0  0
 50 54  1  0  0  0  0
 51 56  1  0  0  0  0
 52 70  1  0  0  0  0
 53 56  1  0  0  0  0
 53 70  1  0  0  0  0
 54 74  1  0  0  0  0
 55 71  1  0  0  0  0
 56 68  1  0  0  0  0
 58 65  1  0  0  0  0
 59 66  1  0  0  0  0
 60 66  1  0  0  0  0
 61 66  1  0  0  0  0
 62 76  1  0  0  0  0
 63 85  1  0  0  0  0
 64 66  1  0  0  0  0
 64 75  1  0  0  0  0
 65 76  1  0  0  0  0
 67 68  1  0  0  0  0
M  CHG  1  76   1
M  ISO  4  39 100  41 100  63 101  85 101
M  END
> <Batch ID>
0086

> <Smiles>
CNC(C)C(=O)NC(C(=O)N1Cc2cc([101O:1][101CH2:1]C3=C(C)C(=O)N(c4ccc(C=[100CH:0][100C:0](=O)N5CCCC(n6nc(-c7ccc(Oc8ccc(F)cc8F)cc7)c(C(N)=O)c6N)C5)c(F)c4)C3=O)ccc2CC1C(=O)NC1CCCc2ccccc21)C(C)(C)C

> <Shape>
0.319

> <Color>
0.135

> <Negative vol penalty>
0.000

$$$$

  -OEChem-04052300173D

 83 91  0     1  0  0  0  0  0999 V2000
  -25.1475  -37.7514   21.4704 C   0  0  0  0  0  0  0  0  0  0  0  0
  -25.9759  -36.6985   21.0952 C   0  0  0  0  0  0  0  0  0  0  0  0
  -24.8196   -8.3166   21.6306 C   0  0  0  0  0  0  0  0  0  0  0  0
  -23.2879   -9.3971   20.1064 C   0  0  0  0  0  0  0  0  0  0  0  0
  -24.1756  -37.5568   22.4510 C   0  0  0  0  0  0  0  0  0  0  0  0
  -25.8335  -35.4508   21.7012 C   0  0  0  0  0  0  0  0  0  0  0  0
  -26.6421  -29.9733   19.0840 C   0  0  0  0  0  0  0  0  0  0  0  0
  -23.7430   -7.8774   22.4012 C   0  0  0  0  0  0  0  0  0  0  0  0
  -22.2113   -8.9579   20.8769 C   0  0  0  0  0  0  0  0  0  0  0  0
  -27.7151  -29.0831   19.0838 C   0  0  0  0  0  0  0  0  0  0  0  0
  -21.4278   -5.4165   22.2730 C   0  0  0  0  0  0  0  0  0  0  0  0
  -21.4378   -4.0901   22.7045 C   0  0  0  0  0  0  0  0  0  0  0  0
  -26.6954  -27.8632   20.8980 C   0  0  0  0  0  0  0  0  0  0  0  0
  -29.0296  -20.4236   19.0147 C   0  0  0  0  0  0  0  0  0  0  0  0
  -21.3898   -4.8371   25.0017 C   0  0  0  0  0  0  0  0  0  0  0  0
  -31.3339  -20.4709   19.3152 C   0  0  0  0  0  0  0  0  0  0  0  0
  -24.5920   -9.0765   20.4832 C   0  0  0  0  0  0  0  0  0  0  0  0
  -26.3057   -8.8596   18.6060 C   0  0  0  0  0  0  0  0  0  0  0  0
  -24.0148  -36.3034   23.0624 C   0  0  0  0  0  0  0  0  0  0  0  0
  -25.5913  -29.8213   20.0000 C   0  0  0  0  0  0  0  0  0  0  0  0
  -24.8594  -35.2396   22.6918 C   0  0  0  0  0  0  0  0  0  0  0  0
  -25.6090  -28.7513   20.9060 C   0  0  0  0  0  0  0  0  0  0  0  0
  -30.1795  -21.2217   19.2810 C   0  0  0  0  0  0  0  0  0  0  0  0
  -22.4389   -8.1981   22.0243 C   0  0  0  0  0  0  0  0  0  0  0  0
  -27.7432  -28.0295   19.9927 C   0  0  0  0  0  0  0  0  0  0  0  0
  -21.3988   -6.4532   23.2058 C   0  0  0  0  0  0  0  0  0  0  0  0
  -21.4188   -3.8004   24.0689 C   0  0  0  0  0  0  0  0  0  0  0  0
  -21.3798   -6.1635   24.5702 C   0  0  0  0  0  0  0  0  0  0  0  0
  -25.7037   -9.5309   19.6871 C   0  0  0  0  0  0  0  0  0  0  0  0
  -29.3491  -19.0930   18.8553 C   0  0  0  0  0  0  0  0  0  0  0  0
  -27.3089   -9.7026   18.1942 C   0  0  0  0  0  0  0  0  0  0  0  0
  -29.4561  -24.8760   19.7375 C   0  0  0  0  0  0  0  0  0  0  0  0
  -28.5283  -25.8381   19.7640 C   0  0  0  0  0  0  0  0  0  1  0  0
  -25.9866   -7.5879   18.0259 C   0  0  0  0  0  0  0  0  0  0  0  0
  -28.3632  -18.0306   18.5661 C   0  0  0  0  0  0  0  0  0  0  0  0
  -29.0566  -23.4627   19.4746 C   0  0  0  0  0  0  0  0  0  0  0  0
  -24.3951  -31.5894   22.3551 C   0  0  0  0  0  0  0  0  0  0  0  0
  -22.1405  -29.2586   22.4358 C   0  0  0  0  0  0  0  0  0  0  0  0
  -21.2910  -26.0246   21.7530 C   0  0  0  0  0  0  0  0  0  0  0  0
  -27.7796  -15.6297   18.8339 C   0  0  0  0  0  0  0  0  0  0  0  0
  -22.9818  -36.1539   24.1510 C   0  0  0  0  0  0  0  0  0  0  0  0
  -24.4281  -30.7745   19.9696 C   0  0  0  0  0  0  0  0  0  0  0  0
  -24.4957  -28.5323   21.8965 C   0  0  0  0  0  0  0  0  0  0  0  0
  -22.6467  -34.7008   24.4773 C   0  0  0  0  0  0  0  0  0  0  0  0
  -30.2845  -13.0634   19.7813 C   0  0  0  0  0  0  0  0  0  0  0  0
  -23.9229  -33.8774   24.6187 C   0  0  0  0  0  0  0  0  0  0  0  0
  -29.4079  -11.8172   19.8398 C   0  0  0  0  0  0  0  0  0  0  0  0
  -29.5191  -14.3269   20.1726 C   0  0  0  0  0  0  0  0  0  0  0  0
  -27.3906  -13.2761   19.4371 C   0  0  0  0  0  0  0  0  0  0  0  0
  -24.7193  -33.8647   23.3084 C   0  0  1  0  0  0  0  0  0  0  0  0
  -23.6628  -30.8256   21.2883 C   0  0  1  0  0  0  0  0  0  0  0  0
  -28.1418  -12.0125   18.9936 C   0  0  2  0  0  0  0  0  0  0  0  0
  -19.3906  -24.3998   21.9672 C   0  0  0  0  0  0  0  0  0  0  0  0
  -22.7323  -28.9627   25.4144 C   0  0  0  0  0  0  0  0  0  0  0  0
  -21.5465  -26.7584   25.3599 C   0  0  0  0  0  0  0  0  0  0  0  0
  -20.3063  -28.8536   24.8169 C   0  0  0  0  0  0  0  0  0  0  0  0
  -21.1271  -25.6514   18.8216 C   0  0  0  0  0  0  0  0  0  0  0  0
  -21.9873  -27.9440   23.1620 C   0  0  1  0  0  0  0  0  0  0  0  0
  -20.0726  -25.4249   21.0745 C   0  0  2  0  0  0  0  0  0  0  0  0
  -21.6652  -28.1347   24.6711 C   0  0  0  0  0  0  0  0  0  0  0  0
  -26.2767  -10.7093   19.9459 N   0  0  0  0  0  0  0  0  0  0  0  0
  -27.2493  -10.7851   19.0216 N   0  0  0  0  0  0  0  0  0  0  0  0
  -23.3835  -29.4948   21.8316 N   0  0  0  0  0  0  0  0  0  0  0  0
  -28.2569  -14.4598   19.4322 N   0  0  0  0  0  0  0  0  0  0  0  0
  -28.2274   -9.6159   17.2086 N   0  0  0  0  0  0  0  0  0  0  0  0
  -24.9259   -6.8520   18.5713 N   0  0  0  0  0  0  0  0  0  0  0  0
  -30.1622  -22.6228   19.4891 N   0  0  0  0  0  0  0  0  0  0  0  0
  -28.6206  -16.7930   19.0169 N   0  0  0  0  0  0  0  0  0  0  0  0
  -24.1235  -32.9443   22.3638 N   0  0  0  0  0  0  0  0  0  0  0  0
  -20.9801  -27.1866   22.4270 N   0  0  0  0  0  0  0  0  0  0  0  0
  -27.2792  -18.3686   17.8683 N   0  3  0  0  0  0  0  0  0  0  0  0
  -20.4655  -24.7538   19.8032 N   0  3  0  0  0  0  0  0  0  0  0  0
  -26.6338   -7.1107   17.0631 O   0  0  0  0  0  0  0  0  0  0  0  0
  -27.8853  -23.1594   19.2803 O   0  0  0  0  0  0  0  0  0  0  0  0
  -25.1494  -30.9935   23.1150 O   0  0  0  0  0  0  0  0  0  0  0  0
  -21.1898  -30.0439   22.3996 O   0  0  0  0  0  0  0  0  0  0  0  0
  -22.4062  -25.5114   21.6943 O   0  0  0  0  0  0  0  0  0  0  0  0
  -26.7253  -15.7364   18.2166 O   0  0  0  0  0  0  0  0  0  0  0  0
  -21.3881   -7.7695   22.7758 O   0  0  0  0  0  0  0  0  0  0  0  0
  -28.7896  -27.1595   19.9951 O   0  0  0  0  0  0  0  0  0  1  0  0
  -21.4268   -2.5266   24.4831 F   0  0  0  0  0  0  0  0  0  0  0  0
  -21.3507   -7.1552   25.4710 F   0  0  0  0  0  0  0  0  0  0  0  0
  -31.0293  -18.8106   19.0270 S   0  0  0  0  0  0  0  0  0  0  0  0
  1  2  1  0  0  0  0
  1  5  2  0  0  0  0
  2  6  2  0  0  0  0
  3  8  2  0  0  0  0
  3 17  1  0  0  0  0
  4  9  1  0  0  0  0
  4 17  2  0  0  0  0
  5 19  1  0  0  0  0
  6 21  1  0  0  0  0
  7 10  2  0  0  0  0
  7 20  1  0  0  0  0
  8 24  1  0  0  0  0
  9 24  2  0  0  0  0
 10 25  1  0  0  0  0
 11 12  2  0  0  0  0
 11 26  1  0  0  0  0
 12 27  1  0  0  0  0
 13 22  1  0  0  0  0
 13 25  2  0  0  0  0
 14 23  1  0  0  0  0
 14 30  2  0  0  0  0
 15 27  2  0  0  0  0
 15 28  1  0  0  0  0
 16 23  2  0  0  0  0
 16 83  1  0  0  0  0
 17 29  1  0  0  0  0
 18 29  1  0  0  0  0
 18 31  2  0  0  0  0
 18 34  1  0  0  0  0
 19 21  2  0  0  0  0
 19 41  1  0  0  0  0
 20 22  2  0  0  0  0
 20 42  1  0  0  0  0
 21 50  1  0  0  0  0
 22 43  1  0  0  0  0
 23 67  1  0  0  0  0
 24 79  1  0  0  0  0
 25 80  1  0  0  0  0
 26 28  2  0  0  0  0
 26 79  1  0  0  0  0
 27 81  1  0  0  0  0
 28 82  1  0  0  0  0
 29 61  2  0  0  0  0
 30 35  1  0  0  0  0
 30 83  1  0  0  0  0
 31 62  1  0  0  0  0
 31 65  1  0  0  0  0
 32 33  2  0  0  0  0
 32 36  1  0  0  0  0
 33 80  1  0  0  0  0
 34 66  1  0  0  0  0
 34 73  2  0  0  0  0
 35 68  1  0  0  0  0
 35 71  2  0  0  0  0
 36 67  1  0  0  0  0
 36 74  2  0  0  0  0
 37 51  1  0  0  0  0
 37 69  1  0  0  0  0
 37 75  2  0  0  0  0
 38 58  1  0  0  0  0
 38 63  1  0  0  0  0
 38 76  2  0  0  0  0
 39 59  1  0  0  0  0
 39 70  1  0  0  0  0
 39 77  2  0  0  0  0
 40 64  1  0  0  0  0
 40 68  1  0  0  0  0
 40 78  2  0  0  0  0
 41 44  1  0  0  0  0
 42 51  1  0  0  0  0
 43 63  1  0  0  0  0
 44 46  1  0  0  0  0
 45 47  1  0  0  0  0
 45 48  1  0  0  0  0
 46 50  1  0  0  0  0
 47 52  1  0  0  0  0
 48 64  1  0  0  0  0
 49 52  1  0  0  0  0
 49 64  1  0  0  0  0
 50 69  1  0  0  0  0
 51 63  1  0  0  0  0
 52 62  1  0  0  0  0
 53 59  1  0  0  0  0
 54 60  1  0  0  0  0
 55 60  1  0  0  0  0
 56 60  1  0  0  0  0
 57 72  1  0  0  0  0
 58 60  1  0  0  0  0
 58 70  1  0  0  0  0
 59 72  1  0  0  0  0
 61 62  1  0  0  0  0
M  CHG  2  71   1  72   1
M  ISO  4  33 101  40 100  68 100  80 101
M  END
> <Batch ID>
0086

> <Smiles>
CNC(C)C(=O)NC(C(=O)N1Cc2cc([101O:1][101CH:1]=CC(=O)Nc3csc(C(=N)[100NH:0][100C:0](=O)N4CCCC(n5nc(-c6ccc(Oc7ccc(F)cc7F)cc6)c(C(N)=O)c5N)C4)c3)ccc2CC1C(=O)NC1CCCc2ccccc21)C(C)(C)C

> <Shape>
0.322

> <Color>
0.094

> <Negative vol penalty>
0.000

$$$$

  -OEChem-04052300173D

 87 96  0     1  0  0  0  0  0999 V2000
  -18.1362   -9.7618   21.5605 C   0  0  0  0  0  0  0  0  0  0  0  0
  -18.2128  -11.0366   21.0087 C   0  0  0  0  0  0  0  0  0  0  0  0
  -27.9600  -29.0714   20.8852 C   0  0  0  0  0  0  0  0  0  0  0  0
  -26.5517  -27.8826   19.3230 C   0  0  0  0  0  0  0  0  0  0  0  0
  -19.0778   -9.3543   22.5045 C   0  0  0  0  0  0  0  0  0  0  0  0
  -19.2306  -11.9051   21.4016 C   0  0  0  0  0  0  0  0  0  0  0  0
  -23.3856  -17.1535   18.8509 C   0  0  0  0  0  0  0  0  0  0  0  0
  -23.1726  -25.4512   23.6112 C   0  0  0  0  0  0  0  0  0  0  0  0
  -29.0511  -28.2971   20.4909 C   0  0  0  0  0  0  0  0  0  0  0  0
  -27.6428  -27.1083   18.9286 C   0  0  0  0  0  0  0  0  0  0  0  0
  -23.7723  -18.4603   19.1449 C   0  0  0  0  0  0  0  0  0  0  0  0
  -29.3596  -24.4422   20.1013 C   0  0  0  0  0  0  0  0  0  0  0  0
  -29.1659  -23.0667   19.9737 C   0  0  0  0  0  0  0  0  0  0  0  0
  -22.1041  -26.3267   23.7696 C   0  0  0  0  0  0  0  0  0  0  0  0
  -25.3898  -17.6197   20.7248 C   0  0  0  0  0  0  0  0  0  0  0  0
  -29.7821  -23.1963   17.6412 C   0  0  0  0  0  0  0  0  0  0  0  0
  -21.9034  -24.2806   21.9755 C   0  0  0  0  0  0  0  0  0  0  0  0
  -26.7103  -28.8641   20.3014 C   0  0  0  0  0  0  0  0  0  0  0  0
  -25.1638  -30.8875   20.1544 C   0  0  0  0  0  0  0  0  0  0  0  0
  -20.1132  -10.2148   22.9020 C   0  0  0  0  0  0  0  0  0  0  0  0
  -23.9915  -16.0686   19.5007 C   0  0  0  0  0  0  0  0  0  0  0  0
  -20.1861  -11.5092   22.3529 C   0  0  0  0  0  0  0  0  0  0  0  0
  -25.0108  -16.3000   20.4354 C   0  0  0  0  0  0  0  0  0  0  0  0
  -23.0784  -24.4060   22.6991 C   0  0  0  0  0  0  0  0  0  0  0  0
  -28.8925  -27.3156   19.5125 C   0  0  0  0  0  0  0  0  0  0  0  0
  -24.7725  -18.6937   20.0841 C   0  0  0  0  0  0  0  0  0  0  0  0
  -29.7645  -25.1947   18.9988 C   0  0  0  0  0  0  0  0  0  0  0  0
  -29.3772  -22.4438   18.7437 C   0  0  0  0  0  0  0  0  0  0  0  0
  -29.9758  -24.5718   17.7688 C   0  0  0  0  0  0  0  0  0  0  0  0
  -25.5826  -29.6632   20.7088 C   0  0  0  0  0  0  0  0  0  0  0  0
  -20.9729  -26.1155   22.9980 C   0  0  0  0  0  0  0  0  0  0  0  0
  -24.0556  -31.2352   20.8876 C   0  0  0  0  0  0  0  0  0  0  0  0
  -26.2204  -22.5888   22.4008 C   0  0  0  0  0  0  0  0  0  0  0  0
  -25.3576  -21.6296   22.0717 C   0  0  0  0  0  0  0  0  0  0  0  0
  -25.4656  -23.8173   22.6861 C   0  0  0  0  0  0  0  0  0  0  0  0
  -23.9946  -22.1906   22.1471 C   0  0  0  0  0  0  0  0  0  0  0  0
  -17.6585  -27.7453   22.5919 C   0  0  0  0  0  0  0  0  0  0  0  0
  -18.6902  -26.9105   22.4480 C   0  0  0  0  0  0  0  0  0  0  0  0
  -25.7261  -31.6430   19.0733 C   0  0  0  0  0  0  0  0  0  0  0  0
  -22.9721  -13.7509   21.4223 C   0  0  0  0  0  0  0  0  0  0  0  0
  -26.0098  -12.6652   21.0821 C   0  0  0  0  0  0  0  0  0  0  0  0
  -29.2741  -13.3644   20.3735 C   0  0  0  0  0  0  0  0  0  0  0  0
  -20.0497  -28.1807   23.9855 C   0  0  0  0  0  0  0  0  0  0  0  0
  -21.0800   -9.7466   23.9607 C   0  0  0  0  0  0  0  0  0  0  0  0
  -23.5816  -14.6639   19.1528 C   0  0  0  0  0  0  0  0  0  0  0  0
  -25.7068  -15.1691   21.1460 C   0  0  0  0  0  0  0  0  0  0  0  0
  -22.3473  -10.5935   24.0457 C   0  0  0  0  0  0  0  0  0  0  0  0
  -22.1050  -30.7203   25.2162 C   0  0  0  0  0  0  0  0  0  0  0  0
  -21.9986  -12.0785   24.0372 C   0  0  0  0  0  0  0  0  0  0  0  0
  -23.1966  -30.8584   24.1553 C   0  0  0  0  0  0  0  0  0  0  0  0
  -21.7454  -29.2566   25.4437 C   0  0  0  0  0  0  0  0  0  0  0  0
  -22.4032  -28.6697   23.1315 C   0  0  0  0  0  0  0  0  0  0  0  0
  -21.2899  -12.4712   22.7352 C   0  0  1  0  0  0  0  0  0  0  0  0
  -23.9085  -13.6567   20.2510 C   0  0  1  0  0  0  0  0  0  0  0  0
  -22.7994  -30.1343   22.8568 C   0  0  2  0  0  0  0  0  0  0  0  0
  -31.5311  -12.2793   20.2125 C   0  0  0  0  0  0  0  0  0  0  0  0
  -26.1985  -12.6113   24.1270 C   0  0  0  0  0  0  0  0  0  0  0  0
  -28.6869  -12.4539   23.9005 C   0  0  0  0  0  0  0  0  0  0  0  0
  -27.2358  -10.6444   22.9826 C   0  0  0  0  0  0  0  0  0  0  0  0
  -29.5296  -14.0540   17.5067 C   0  0  0  0  0  0  0  0  0  0  0  0
  -25.6310  -20.2195   21.6938 C   0  0  0  0  0  0  0  0  0  1  0  0
  -27.3119  -12.8849   21.8137 C   0  0  1  0  0  0  0  0  0  0  0  0
  -30.2743  -12.6829   19.4572 C   0  0  2  0  0  0  0  0  0  0  0  0
  -27.3440  -12.1703   23.1942 C   0  0  0  0  0  0  0  0  0  0  0  0
  -20.8444  -25.1114   22.1019 N   0  0  0  0  0  0  0  0  0  0  0  0
  -24.8041  -29.2603   21.7165 N   0  0  0  0  0  0  0  0  0  0  0  0
  -23.8849  -30.2370   21.8012 N   0  0  0  0  0  0  0  0  0  0  0  0
  -24.1297  -23.5141   22.5194 N   0  0  0  0  0  0  0  0  0  0  0  0
  -25.2663  -13.8138   20.7761 N   0  0  0  0  0  0  0  0  0  0  0  0
  -21.3789  -28.6032   24.1867 N   0  0  0  0  0  0  0  0  0  0  0  0
  -23.2203  -32.2943   20.8335 N   0  0  0  0  0  0  0  0  0  0  0  0
  -26.8653  -31.1413   18.4292 N   0  0  0  0  0  0  0  0  0  0  0  0
  -22.2471  -12.5982   21.6572 N   0  0  0  0  0  0  0  0  0  0  0  0
  -28.3693  -12.4668   20.8997 N   0  0  0  0  0  0  0  0  0  0  0  0
  -19.8659  -27.0335   23.1705 N   0  0  0  0  0  0  0  0  0  0  0  0
  -30.6662  -13.5966   18.3471 N   0  3  0  0  0  0  0  0  0  0  0  0
  -25.9864  -24.8732   23.0069 O   0  0  0  0  0  0  0  0  0  0  0  0
  -22.9771  -21.5587   21.9115 O   0  0  0  0  0  0  0  0  0  0  0  0
  -25.2426  -32.7388   18.7006 O   0  0  0  0  0  0  0  0  0  0  0  0
  -22.9128  -14.7918   22.0663 O   0  0  0  0  0  0  0  0  0  0  0  0
  -25.6685  -11.5173   20.7865 O   0  0  0  0  0  0  0  0  0  0  0  0
  -29.2958  -14.5717   20.6027 O   0  0  0  0  0  0  0  0  0  0  0  0
  -19.0937  -28.7671   24.5094 O   0  0  0  0  0  0  0  0  0  0  0  0
  -29.9571  -26.5600   19.1272 O   0  0  0  0  0  0  0  0  0  0  0  0
  -25.1515  -19.9683   20.3734 O   0  0  0  0  0  0  0  0  0  1  0  0
  -29.1927  -21.1227   18.6218 F   0  0  0  0  0  0  0  0  0  0  0  0
  -30.3659  -25.2893   16.7063 F   0  0  0  0  0  0  0  0  0  0  0  0
  1  2  1  0  0  0  0
  1  5  2  0  0  0  0
  2  6  2  0  0  0  0
  3  9  2  0  0  0  0
  3 18  1  0  0  0  0
  4 10  1  0  0  0  0
  4 18  2  0  0  0  0
  5 20  1  0  0  0  0
  6 22  1  0  0  0  0
  7 11  2  0  0  0  0
  7 21  1  0  0  0  0
  8 14  2  0  0  0  0
  8 24  1  0  0  0  0
  9 25  1  0  0  0  0
 10 25  2  0  0  0  0
 11 26  1  0  0  0  0
 12 13  2  0  0  0  0
 12 27  1  0  0  0  0
 13 28  1  0  0  0  0
 14 31  1  0  0  0  0
 15 23  1  0  0  0  0
 15 26  2  0  0  0  0
 16 28  2  0  0  0  0
 16 29  1  0  0  0  0
 17 24  2  0  0  0  0
 17 65  1  0  0  0  0
 18 30  1  0  0  0  0
 19 30  1  0  0  0  0
 19 32  2  0  0  0  0
 19 39  1  0  0  0  0
 20 22  2  0  0  0  0
 20 44  1  0  0  0  0
 21 23  2  0  0  0  0
 21 45  1  0  0  0  0
 22 53  1  0  0  0  0
 23 46  1  0  0  0  0
 24 68  1  0  0  0  0
 25 84  1  0  0  0  0
 26 85  1  0  0  0  0
 27 29  2  0  0  0  0
 27 84  1  0  0  0  0
 28 86  1  0  0  0  0
 29 87  1  0  0  0  0
 30 66  2  0  0  0  0
 31 65  2  0  0  0  0
 31 75  1  0  0  0  0
 32 67  1  0  0  0  0
 32 71  1  0  0  0  0
 33 34  2  0  0  0  0
 33 35  1  0  0  0  0
 34 36  1  0  0  0  0
 34 61  1  0  0  0  0
 35 68  1  0  0  0  0
 35 77  2  0  0  0  0
 36 68  1  0  0  0  0
 36 78  2  0  0  0  0
 37 38  2  0  0  0  0
 38 75  1  0  0  0  0
 39 72  1  0  0  0  0
 39 79  2  0  0  0  0
 40 54  1  0  0  0  0
 40 73  1  0  0  0  0
 40 80  2  0  0  0  0
 41 62  1  0  0  0  0
 41 69  1  0  0  0  0
 41 81  2  0  0  0  0
 42 63  1  0  0  0  0
 42 74  1  0  0  0  0
 42 82  2  0  0  0  0
 43 70  1  0  0  0  0
 43 75  1  0  0  0  0
 43 83  2  0  0  0  0
 44 47  1  0  0  0  0
 45 54  1  0  0  0  0
 46 69  1  0  0  0  0
 47 49  1  0  0  0  0
 48 50  1  0  0  0  0
 48 51  1  0  0  0  0
 49 53  1  0  0  0  0
 50 55  1  0  0  0  0
 51 70  1  0  0  0  0
 52 55  1  0  0  0  0
 52 70  1  0  0  0  0
 53 73  1  0  0  0  0
 54 69  1  0  0  0  0
 55 67  1  0  0  0  0
 56 63  1  0  0  0  0
 57 64  1  0  0  0  0
 58 64  1  0  0  0  0
 59 64  1  0  0  0  0
 60 76  1  0  0  0  0
 61 85  1  0  0  0  0
 62 64  1  0  0  0  0
 62 74  1  0  0  0  0
 63 76  1  0  0  0  0
 66 67  1  0  0  0  0
M  CHG  1  76   1
M  ISO  4  43 100  61 101  75 100  85 101
M  END
> <Batch ID>
0086

> <Smiles>
C=C[100N:0](c1ccc(N2C(=O)C=C([101CH2:1][101O:1]c3ccc4c(c3)CN(C(=O)C(NC(=O)C(C)NC)C(C)(C)C)C(C(=O)NC3CCCc5ccccc53)C4)C2=O)cn1)[100C:0](=O)N1CCCC(n2nc(-c3ccc(Oc4ccc(F)cc4F)cc3)c(C(N)=O)c2N)C1

> <Shape>
0.262

> <Color>
0.055

> <Negative vol penalty>
0.000

$$$$

  -OEChem-04052300173D

 86 95  0     1  0  0  0  0  0999 V2000
  -27.5152  -37.7848   22.3504 C   0  0  0  0  0  0  0  0  0  0  0  0
  -28.0501  -36.7450   21.5967 C   0  0  0  0  0  0  0  0  0  0  0  0
  -24.0481  -10.2221   22.8634 C   0  0  0  0  0  0  0  0  0  0  0  0
  -23.2457  -12.5008   22.8330 C   0  0  0  0  0  0  0  0  0  0  0  0
  -26.7333  -37.5024   23.4697 C   0  0  0  0  0  0  0  0  0  0  0  0
  -27.8043  -35.4221   21.9625 C   0  0  0  0  0  0  0  0  0  0  0  0
  -26.8713  -28.9204   19.1034 C   0  0  0  0  0  0  0  0  0  0  0  0
  -30.4086  -19.6903   20.7223 C   0  0  0  0  0  0  0  0  0  0  0  0
  -30.2835  -18.3466   20.3696 C   0  0  0  0  0  0  0  0  0  0  0  0
  -23.3690   -9.9989   24.0612 C   0  0  0  0  0  0  0  0  0  0  0  0
  -22.5665  -12.2776   24.0308 C   0  0  0  0  0  0  0  0  0  0  0  0
  -27.3552  -27.6173   19.2103 C   0  0  0  0  0  0  0  0  0  0  0  0
  -20.1961   -9.3698   25.0459 C   0  0  0  0  0  0  0  0  0  0  0  0
  -19.4633   -8.1890   25.1653 C   0  0  0  0  0  0  0  0  0  0  0  0
  -25.9244  -27.2487   21.1172 C   0  0  0  0  0  0  0  0  0  0  0  0
  -28.0174  -19.9673   20.5158 C   0  0  0  0  0  0  0  0  0  0  0  0
  -20.8165   -7.5407   27.0589 C   0  0  0  0  0  0  0  0  0  0  0  0
  -23.9865  -11.4730   22.2494 C   0  0  0  0  0  0  0  0  0  0  0  0
  -24.1960  -11.5138   19.7073 C   0  0  0  0  0  0  0  0  0  0  0  0
  -26.4697  -36.1753   23.8438 C   0  0  0  0  0  0  0  0  0  0  0  0
  -25.9167  -29.4018   20.0109 C   0  0  0  0  0  0  0  0  0  0  0  0
  -27.0192  -35.1216   23.0886 C   0  0  0  0  0  0  0  0  0  0  0  0
  -25.4281  -28.5575   21.0181 C   0  0  0  0  0  0  0  0  0  0  0  0
  -29.2756  -20.5006   20.7954 C   0  0  0  0  0  0  0  0  0  0  0  0
  -29.0253  -17.8132   20.0899 C   0  0  0  0  0  0  0  0  0  0  0  0
  -22.6282  -11.0266   24.6449 C   0  0  0  0  0  0  0  0  0  0  0  0
  -26.8839  -26.7821   20.2190 C   0  0  0  0  0  0  0  0  0  0  0  0
  -21.2392   -9.6360   25.9329 C   0  0  0  0  0  0  0  0  0  0  0  0
  -19.7735   -7.2744   26.1718 C   0  0  0  0  0  0  0  0  0  0  0  0
  -27.8923  -18.6235   20.1630 C   0  0  0  0  0  0  0  0  0  0  0  0
  -21.5493   -8.7215   26.9394 C   0  0  0  0  0  0  0  0  0  0  0  0
  -24.6882  -11.7044   21.0124 C   0  0  0  0  0  0  0  0  0  0  0  0
  -25.2407  -11.8717   18.8906 C   0  0  0  0  0  0  0  0  0  0  0  0
  -29.0020  -24.0919   21.2831 C   0  0  0  0  0  0  0  0  0  0  0  0
  -30.1825  -23.8039   22.1094 C   0  0  0  0  0  0  0  0  0  0  0  0
  -28.5135  -22.8369   20.6768 C   0  0  0  0  0  0  0  0  0  0  0  0
  -28.4559  -25.2950   21.1069 C   0  0  0  0  0  0  0  0  0  1  0  0
  -22.9094  -11.0545   19.2721 C   0  0  0  0  0  0  0  0  0  0  0  0
  -25.8443  -31.7442   22.1583 C   0  0  0  0  0  0  0  0  0  0  0  0
  -22.7309  -30.8742   22.4276 C   0  0  0  0  0  0  0  0  0  0  0  0
  -20.3568  -28.4516   22.0515 C   0  0  0  0  0  0  0  0  0  0  0  0
  -29.9259  -15.5094   19.6129 C   0  0  0  0  0  0  0  0  0  0  0  0
  -25.6580  -35.9197   25.0889 C   0  0  0  0  0  0  0  0  0  0  0  0
  -25.3851  -30.8014   19.8657 C   0  0  0  0  0  0  0  0  0  0  0  0
  -24.3884  -29.0196   22.0050 C   0  0  0  0  0  0  0  0  0  0  0  0
  -30.4682  -22.3328   22.0382 C   0  0  0  0  0  0  0  0  0  0  0  0
  -25.1347  -34.4893   25.1919 C   0  0  0  0  0  0  0  0  0  0  0  0
  -30.0254  -12.0466   18.7902 C   0  0  0  0  0  0  0  0  0  0  0  0
  -26.2433  -33.4911   24.8733 C   0  0  0  0  0  0  0  0  0  0  0  0
  -28.6214  -11.5499   19.1422 C   0  0  0  0  0  0  0  0  0  0  0  0
  -30.5182  -13.1017   19.7790 C   0  0  0  0  0  0  0  0  0  0  0  0
  -28.2040  -13.7396   20.3330 C   0  0  0  0  0  0  0  0  0  0  0  0
  -26.7544  -33.6735   23.4391 C   0  0  1  0  0  0  0  0  0  0  0  0
  -24.7928  -31.3527   21.1590 C   0  0  1  0  0  0  0  0  0  0  0  0
  -27.6387  -12.7227   19.3280 C   0  0  2  0  0  0  0  0  0  0  0  0
  -17.9072  -28.0246   22.3904 C   0  0  0  0  0  0  0  0  0  0  0  0
  -23.1960  -30.6042   25.4310 C   0  0  0  0  0  0  0  0  0  0  0  0
  -21.0664  -29.2954   25.5726 C   0  0  0  0  0  0  0  0  0  0  0  0
  -21.0213  -31.6680   24.8036 C   0  0  0  0  0  0  0  0  0  0  0  0
  -19.9294  -27.9361   19.1687 C   0  0  0  0  0  0  0  0  0  0  0  0
  -21.9661  -29.8879   23.2769 C   0  0  1  0  0  0  0  0  0  0  0  0
  -18.9796  -28.4813   21.4136 C   0  0  2  0  0  0  0  0  0  0  0  0
  -21.8335  -30.3555   24.7538 C   0  0  0  0  0  0  0  0  0  0  0  0
  -25.9477  -12.1486   21.0287 N   0  0  0  0  0  0  0  0  0  0  0  0
  -26.2558  -12.2402   19.7238 N   0  0  0  0  0  0  0  0  0  0  0  0
  -29.4004  -21.8427   21.1471 N   0  0  0  0  0  0  0  0  0  0  0  0
  -23.9044  -30.3984   21.8256 N   0  0  0  0  0  0  0  0  0  0  0  0
  -29.5384  -14.1835   19.9004 N   0  0  0  0  0  0  0  0  0  0  0  0
  -25.3809  -11.9039   17.5484 N   0  0  0  0  0  0  0  0  0  0  0  0
  -21.9524  -10.7296   20.2432 N   0  0  0  0  0  0  0  0  0  0  0  0
  -28.9014  -16.4480   19.7314 N   0  0  0  0  0  0  0  0  0  0  0  0
  -25.8298  -33.0845   22.4943 N   0  0  0  0  0  0  0  0  0  0  0  0
  -20.6910  -29.6708   22.6021 N   0  0  0  0  0  0  0  0  0  0  0  0
  -18.9414  -27.5872   20.2219 N   0  3  0  0  0  0  0  0  0  0  0  0
  -30.8229  -24.6227   22.7459 O   0  0  0  0  0  0  0  0  0  0  0  0
  -27.5513  -22.7255   19.9373 O   0  0  0  0  0  0  0  0  0  0  0  0
  -22.6226  -10.9200   18.0584 O   0  0  0  0  0  0  0  0  0  0  0  0
  -26.6109  -30.8930   22.5936 O   0  0  0  0  0  0  0  0  0  0  0  0
  -22.2992  -32.0223   22.2971 O   0  0  0  0  0  0  0  0  0  0  0  0
  -21.0637  -27.4463   22.0638 O   0  0  0  0  0  0  0  0  0  0  0  0
  -31.0746  -15.7876   19.2593 O   0  0  0  0  0  0  0  0  0  0  0  0
  -21.9652  -10.8092   25.8135 O   0  0  0  0  0  0  0  0  0  0  0  0
  -27.3551  -25.5099   20.3260 O   0  0  0  0  0  0  0  0  0  1  0  0
  -19.0687   -6.1412   26.2873 F   0  0  0  0  0  0  0  0  0  0  0  0
  -26.6781  -18.1220   19.8948 F   0  0  0  0  0  0  0  0  0  0  0  0
  -22.5495   -8.9723   27.7953 F   0  0  0  0  0  0  0  0  0  0  0  0
  1  2  1  0  0  0  0
  1  5  2  0  0  0  0
  2  6  2  0  0  0  0
  3 10  2  0  0  0  0
  3 18  1  0  0  0  0
  4 11  1  0  0  0  0
  4 18  2  0  0  0  0
  5 20  1  0  0  0  0
  6 22  1  0  0  0  0
  7 12  2  0  0  0  0
  7 21  1  0  0  0  0
  8  9  2  0  0  0  0
  8 24  1  0  0  0  0
  9 25  1  0  0  0  0
 10 26  1  0  0  0  0
 11 26  2  0  0  0  0
 12 27  1  0  0  0  0
 13 14  2  0  0  0  0
 13 28  1  0  0  0  0
 14 29  1  0  0  0  0
 15 23  1  0  0  0  0
 15 27  2  0  0  0  0
 16 24  2  0  0  0  0
 16 30  1  0  0  0  0
 17 29  2  0  0  0  0
 17 31  1  0  0  0  0
 18 32  1  0  0  0  0
 19 32  1  0  0  0  0
 19 33  2  0  0  0  0
 19 38  1  0  0  0  0
 20 22  2  0  0  0  0
 20 43  1  0  0  0  0
 21 23  2  0  0  0  0
 21 44  1  0  0  0  0
 22 53  1  0  0  0  0
 23 45  1  0  0  0  0
 24 66  1  0  0  0  0
 25 30  2  0  0  0  0
 25 71  1  0  0  0  0
 26 82  1  0  0  0  0
 27 83  1  0  0  0  0
 28 31  2  0  0  0  0
 28 82  1  0  0  0  0
 29 84  1  0  0  0  0
 30 85  1  0  0  0  0
 31 86  1  0  0  0  0
 32 64  2  0  0  0  0
 33 65  1  0  0  0  0
 33 69  1  0  0  0  0
 34 35  1  0  0  0  0
 34 36  1  0  0  0  0
 34 37  2  0  0  0  0
 35 46  1  0  0  0  0
 35 75  2  0  0  0  0
 36 66  1  0  0  0  0
 36 76  2  0  0  0  0
 37 83  1  0  0  0  0
 38 70  1  0  0  0  0
 38 77  2  0  0  0  0
 39 54  1  0  0  0  0
 39 72  1  0  0  0  0
 39 78  2  0  0  0  0
 40 61  1  0  0  0  0
 40 67  1  0  0  0  0
 40 79  2  0  0  0  0
 41 62  1  0  0  0  0
 41 73  1  0  0  0  0
 41 80  2  0  0  0  0
 42 68  1  0  0  0  0
 42 71  1  0  0  0  0
 42 81  2  0  0  0  0
 43 47  1  0  0  0  0
 44 54  1  0  0  0  0
 45 67  1  0  0  0  0
 46 66  1  0  0  0  0
 47 49  1  0  0  0  0
 48 50  1  0  0  0  0
 48 51  1  0  0  0  0
 49 53  1  0  0  0  0
 50 55  1  0  0  0  0
 51 68  1  0  0  0  0
 52 55  1  0  0  0  0
 52 68  1  0  0  0  0
 53 72  1  0  0  0  0
 54 67  1  0  0  0  0
 55 65  1  0  0  0  0
 56 62  1  0  0  0  0
 57 63  1  0  0  0  0
 58 63  1  0  0  0  0
 59 63  1  0  0  0  0
 60 74  1  0  0  0  0
 61 63  1  0  0  0  0
 61 73  1  0  0  0  0
 62 74  1  0  0  0  0
 64 65  1  0  0  0  0
M  CHG  1  74   1
M  ISO  4  37 101  42 100  71 100  83 101
M  END
> <Batch ID>
0086

> <Smiles>
CNC(C)C(=O)NC(C(=O)N1Cc2cc([101O:1][101CH:1]=C3C(=O)CN(c4ccc([100NH:0][100C:0](=O)N5CCCC(n6nc(-c7ccc(Oc8ccc(F)cc8F)cc7)c(C(N)=O)c6N)C5)c(F)c4)C3=O)ccc2CC1C(=O)NC1CCCc2ccccc21)C(C)(C)C

> <Shape>
0.311

> <Color>
0.087

> <Negative vol penalty>
0.000

$$$$

  -OEChem-04052300173D

 82 90  0     1  0  0  0  0  0999 V2000
  -25.4772  -37.4082   23.1202 C   0  0  0  0  0  0  0  0  0  0  0  0
  -26.3166  -36.3609   22.7542 C   0  0  0  0  0  0  0  0  0  0  0  0
  -24.5565  -11.5309   24.0621 C   0  0  0  0  0  0  0  0  0  0  0  0
  -23.8506  -13.8236   23.7750 C   0  0  0  0  0  0  0  0  0  0  0  0
  -28.3161  -20.4127   19.2541 C   0  0  0  0  0  0  0  0  0  0  0  0
  -30.6877  -20.0051   19.0380 C   0  0  0  0  0  0  0  0  0  0  0  0
  -24.2600  -37.1389   23.7446 C   0  0  0  0  0  0  0  0  0  0  0  0
  -25.9398  -35.0436   23.0136 C   0  0  0  0  0  0  0  0  0  0  0  0
  -27.1384  -30.1251   19.5672 C   0  0  0  0  0  0  0  0  0  0  0  0
  -28.0736  -19.0411   19.1803 C   0  0  0  0  0  0  0  0  0  0  0  0
  -30.4452  -18.6334   18.9642 C   0  0  0  0  0  0  0  0  0  0  0  0
  -24.1300  -11.5659   25.3897 C   0  0  0  0  0  0  0  0  0  0  0  0
  -23.4241  -13.8586   25.1026 C   0  0  0  0  0  0  0  0  0  0  0  0
  -28.1163  -29.1351   19.6534 C   0  0  0  0  0  0  0  0  0  0  0  0
  -21.2057  -11.3485   27.0732 C   0  0  0  0  0  0  0  0  0  0  0  0
  -20.4695  -10.2624   27.5463 C   0  0  0  0  0  0  0  0  0  0  0  0
  -26.5618  -27.7100   20.8247 C   0  0  0  0  0  0  0  0  0  0  0  0
  -22.1576   -9.8492   29.2246 C   0  0  0  0  0  0  0  0  0  0  0  0
  -24.4168  -12.6599   23.2548 C   0  0  0  0  0  0  0  0  0  0  0  0
  -29.6232  -20.8947   19.1828 C   0  0  0  0  0  0  0  0  0  0  0  0
  -24.1012  -12.2508   20.7566 C   0  0  0  0  0  0  0  0  0  0  0  0
  -23.8637  -35.8172   24.0030 C   0  0  0  0  0  0  0  0  0  0  0  0
  -25.8661  -29.9188   20.1196 C   0  0  0  0  0  0  0  0  0  0  0  0
  -24.7168  -34.7564   23.6433 C   0  0  0  0  0  0  0  0  0  0  0  0
  -25.5687  -28.6980   20.7419 C   0  0  0  0  0  0  0  0  0  0  0  0
  -29.1381  -18.1515   19.0354 C   0  0  0  0  0  0  0  0  0  0  0  0
  -23.5638  -12.7296   25.9100 C   0  0  0  0  0  0  0  0  0  0  0  0
  -27.8290  -27.9285   20.2847 C   0  0  0  0  0  0  0  0  0  0  0  0
  -22.4179  -11.6849   27.6757 C   0  0  0  0  0  0  0  0  0  0  0  0
  -20.9454   -9.5127   28.6220 C   0  0  0  0  0  0  0  0  0  0  0  0
  -22.8938  -10.9353   28.7514 C   0  0  0  0  0  0  0  0  0  0  0  0
  -24.8577  -12.6246   21.8835 C   0  0  0  0  0  0  0  0  0  0  0  0
  -24.9685  -12.3864   19.7003 C   0  0  0  0  0  0  0  0  0  0  0  0
  -29.8804  -22.3436   19.2617 C   0  0  0  0  0  0  0  0  0  0  0  0
  -29.0257  -23.2417   19.7709 C   0  0  0  0  0  0  0  0  0  0  0  0
  -22.7364  -11.8196   20.6723 C   0  0  0  0  0  0  0  0  0  0  0  0
  -29.3783  -24.6911   19.7954 C   0  0  0  0  0  0  0  0  0  0  0  0
  -24.1598  -31.3194   22.4067 C   0  0  0  0  0  0  0  0  0  0  0  0
  -21.8449  -29.2912   21.3820 C   0  0  0  0  0  0  0  0  0  0  0  0
  -21.0394  -26.3710   19.8102 C   0  0  0  0  0  0  0  0  0  0  0  0
  -29.8348  -15.7402   18.8189 C   0  0  0  0  0  0  0  0  0  0  0  0
  -22.5603  -35.5778   24.7230 C   0  0  0  0  0  0  0  0  0  0  0  0
  -24.8139  -30.9864   19.9948 C   0  0  0  0  0  0  0  0  0  0  0  0
  -24.2119  -28.4191   21.3332 C   0  0  0  0  0  0  0  0  0  0  0  0
  -22.0655  -34.1371   24.6240 C   0  0  0  0  0  0  0  0  0  0  0  0
  -29.6338  -12.1901   18.6366 C   0  0  0  0  0  0  0  0  0  0  0  0
  -23.2023  -33.1613   24.9112 C   0  0  0  0  0  0  0  0  0  0  0  0
  -28.3144  -11.8650   19.3407 C   0  0  0  0  0  0  0  0  0  0  0  0
  -30.3582  -13.3594   19.3012 C   0  0  0  0  0  0  0  0  0  0  0  0
  -28.2326  -14.2505   20.1714 C   0  0  0  0  0  0  0  0  0  0  0  0
  -24.3320  -33.3130   23.8854 C   0  0  1  0  0  0  0  0  0  0  0  0
  -23.7139  -30.8669   21.0450 C   0  0  1  0  0  0  0  0  0  0  0  0
  -27.4354  -13.1213   19.4983 C   0  0  2  0  0  0  0  0  0  0  0  0
  -19.0664  -24.9640   19.1582 C   0  0  0  0  0  0  0  0  0  0  0  0
  -21.5605  -28.3550   24.2721 C   0  0  0  0  0  0  0  0  0  0  0  0
  -20.3148  -26.3540   23.4280 C   0  0  0  0  0  0  0  0  0  0  0  0
  -19.3970  -28.6427   23.0510 C   0  0  0  0  0  0  0  0  0  0  0  0
  -21.6828  -26.5972   16.9303 C   0  0  0  0  0  0  0  0  0  0  0  0
  -28.3320  -25.6067   20.3950 C   0  0  0  0  0  0  0  0  0  1  0  0
  -21.4203  -27.8866   21.7369 C   0  0  1  0  0  0  0  0  0  0  0  0
  -20.0281  -26.0584   18.7221 C   0  0  2  0  0  0  0  0  0  0  0  0
  -20.6994  -27.8153   23.1127 C   0  0  0  0  0  0  0  0  0  0  0  0
  -26.1094  -12.9715   21.5722 N   0  0  0  0  0  0  0  0  0  0  0  0
  -26.1461  -12.8162   20.2378 N   0  0  0  0  0  0  0  0  0  0  0  0
  -23.2187  -29.4966   21.1914 N   0  0  0  0  0  0  0  0  0  0  0  0
  -29.4653  -14.5149   19.4129 N   0  0  0  0  0  0  0  0  0  0  0  0
  -24.8312  -12.1788   18.3735 N   0  0  0  0  0  0  0  0  0  0  0  0
  -21.9877  -11.7363   21.8542 N   0  0  0  0  0  0  0  0  0  0  0  0
  -28.8923  -16.7579   18.9625 N   0  0  0  0  0  0  0  0  0  0  0  0
  -23.9737  -32.6686   22.6400 N   0  0  0  0  0  0  0  0  0  0  0  0
  -20.6183  -27.4072   20.6165 N   0  0  0  0  0  0  0  0  0  0  0  0
  -20.7229  -25.6073   17.4833 N   0  3  0  0  0  0  0  0  0  0  0  0
  -22.2016  -11.5013   19.5831 O   0  0  0  0  0  0  0  0  0  0  0  0
  -30.4467  -25.1100   19.3580 O   0  0  0  0  0  0  0  0  0  0  0  0
  -24.6359  -30.5045   23.1883 O   0  0  0  0  0  0  0  0  0  0  0  0
  -20.9885  -30.1720   21.2707 O   0  0  0  0  0  0  0  0  0  0  0  0
  -22.0955  -25.7548   19.9349 O   0  0  0  0  0  0  0  0  0  0  0  0
  -30.8960  -15.8689   18.2030 O   0  0  0  0  0  0  0  0  0  0  0  0
  -23.1473  -12.7640   27.2053 O   0  0  0  0  0  0  0  0  0  0  0  0
  -28.7818  -26.9607   20.3708 O   0  0  0  0  0  0  0  0  0  1  0  0
  -20.2375   -8.4707   29.0773 F   0  0  0  0  0  0  0  0  0  0  0  0
  -24.0571  -11.2544   29.3351 F   0  0  0  0  0  0  0  0  0  0  0  0
  1  2  1  0  0  0  0
  1  7  2  0  0  0  0
  2  8  2  0  0  0  0
  3 12  2  0  0  0  0
  3 19  1  0  0  0  0
  4 13  1  0  0  0  0
  4 19  2  0  0  0  0
  5 10  2  0  0  0  0
  5 20  1  0  0  0  0
  6 11  1  0  0  0  0
  6 20  2  0  0  0  0
  7 22  1  0  0  0  0
  8 24  1  0  0  0  0
  9 14  2  0  0  0  0
  9 23  1  0  0  0  0
 10 26  1  0  0  0  0
 11 26  2  0  0  0  0
 12 27  1  0  0  0  0
 13 27  2  0  0  0  0
 14 28  1  0  0  0  0
 15 16  2  0  0  0  0
 15 29  1  0  0  0  0
 16 30  1  0  0  0  0
 17 25  1  0  0  0  0
 17 28  2  0  0  0  0
 18 30  2  0  0  0  0
 18 31  1  0  0  0  0
 19 32  1  0  0  0  0
 20 34  1  0  0  0  0
 21 32  1  0  0  0  0
 21 33  2  0  0  0  0
 21 36  1  0  0  0  0
 22 24  2  0  0  0  0
 22 42  1  0  0  0  0
 23 25  2  0  0  0  0
 23 43  1  0  0  0  0
 24 51  1  0  0  0  0
 25 44  1  0  0  0  0
 26 69  1  0  0  0  0
 27 79  1  0  0  0  0
 28 80  1  0  0  0  0
 29 31  2  0  0  0  0
 29 79  1  0  0  0  0
 30 81  1  0  0  0  0
 31 82  1  0  0  0  0
 32 63  2  0  0  0  0
 33 64  1  0  0  0  0
 33 67  1  0  0  0  0
 34 35  2  0  0  0  0
 35 37  1  0  0  0  0
 36 68  1  0  0  0  0
 36 73  2  0  0  0  0
 37 59  1  0  0  0  0
 37 74  2  0  0  0  0
 38 52  1  0  0  0  0
 38 70  1  0  0  0  0
 38 75  2  0  0  0  0
 39 60  1  0  0  0  0
 39 65  1  0  0  0  0
 39 76  2  0  0  0  0
 40 61  1  0  0  0  0
 40 71  1  0  0  0  0
 40 77  2  0  0  0  0
 41 66  1  0  0  0  0
 41 69  1  0  0  0  0
 41 78  2  0  0  0  0
 42 45  1  0  0  0  0
 43 52  1  0  0  0  0
 44 65  1  0  0  0  0
 45 47  1  0  0  0  0
 46 48  1  0  0  0  0
 46 49  1  0  0  0  0
 47 51  1  0  0  0  0
 48 53  1  0  0  0  0
 49 66  1  0  0  0  0
 50 53  1  0  0  0  0
 50 66  1  0  0  0  0
 51 70  1  0  0  0  0
 52 65  1  0  0  0  0
 53 64  1  0  0  0  0
 54 61  1  0  0  0  0
 55 62  1  0  0  0  0
 56 62  1  0  0  0  0
 57 62  1  0  0  0  0
 58 72  1  0  0  0  0
 59 80  1  0  0  0  0
 60 62  1  0  0  0  0
 60 71  1  0  0  0  0
 61 72  1  0  0  0  0
 63 64  1  0  0  0  0
M  CHG  1  72   1
M  ISO  4  41 100  59 101  69 100  80 101
M  END
> <Batch ID>
0086

> <Smiles>
CNC(C)C(=O)NC(C(=O)N1Cc2cc([101O:1][101CH2:1]C(=O)C=Cc3ccc([100NH:0][100C:0](=O)N4CCCC(n5nc(-c6ccc(Oc7ccc(F)cc7F)cc6)c(C(N)=O)c5N)C4)cc3)ccc2CC1C(=O)NC1CCCc2ccccc21)C(C)(C)C

> <Shape>
0.295

> <Color>
0.097

> <Negative vol penalty>
0.000

$$$$

  -OEChem-04052300173D

 83 91  0     1  0  0  0  0  0999 V2000
  -21.4084  -12.9727   20.4125 C   0  0  0  0  0  0  0  0  0  0  0  0
  -21.4331  -14.3070   20.8056 C   0  0  0  0  0  0  0  0  0  0  0  0
  -25.3372  -27.5454   14.7594 C   0  0  0  0  0  0  0  0  0  0  0  0
  -27.5138  -26.8600   15.5527 C   0  0  0  0  0  0  0  0  0  0  0  0
  -22.6001  -12.2576   20.3021 C   0  0  0  0  0  0  0  0  0  0  0  0
  -22.6495  -14.9267   21.0895 C   0  0  0  0  0  0  0  0  0  0  0  0
  -23.0068  -19.5400   19.0319 C   0  0  0  0  0  0  0  0  0  0  0  0
  -25.8287  -27.5966   13.4550 C   0  0  0  0  0  0  0  0  0  0  0  0
  -28.0054  -26.9112   14.2484 C   0  0  0  0  0  0  0  0  0  0  0  0
  -22.3357  -20.5784   19.6763 C   0  0  0  0  0  0  0  0  0  0  0  0
  -27.9132  -24.9807   11.4761 C   0  0  0  0  0  0  0  0  0  0  0  0
  -28.7063  -23.9187   11.0419 C   0  0  0  0  0  0  0  0  0  0  0  0
  -20.3375  -26.8552   22.2129 C   0  0  0  0  0  0  0  0  0  0  0  0
  -18.6184  -27.8720   23.5722 C   0  0  0  0  0  0  0  0  0  0  0  0
  -24.4077  -21.2769   20.6954 C   0  0  0  0  0  0  0  0  0  0  0  0
  -18.1915  -25.7723   22.4560 C   0  0  0  0  0  0  0  0  0  0  0  0
  -30.5352  -25.4467   10.6450 C   0  0  0  0  0  0  0  0  0  0  0  0
  -26.1798  -27.1771   15.8083 C   0  0  0  0  0  0  0  0  0  0  0  0
  -19.9068  -27.8941   23.0381 C   0  0  0  0  0  0  0  0  0  0  0  0
  -25.0892  -26.0185   17.8022 C   0  0  0  0  0  0  0  0  0  0  0  0
  -23.8326  -12.8715   20.5755 C   0  0  0  0  0  0  0  0  0  0  0  0
  -24.3837  -19.3554   19.2232 C   0  0  0  0  0  0  0  0  0  0  0  0
  -23.8588  -14.2187   20.9840 C   0  0  0  0  0  0  0  0  0  0  0  0
  -25.0943  -20.2370   20.0502 C   0  0  0  0  0  0  0  0  0  0  0  0
  -19.4798  -25.7943   21.9218 C   0  0  0  0  0  0  0  0  0  0  0  0
  -17.7607  -26.8112   23.2812 C   0  0  0  0  0  0  0  0  0  0  0  0
  -27.1627  -27.2795   13.1995 C   0  0  0  0  0  0  0  0  0  0  0  0
  -23.0356  -21.4452   20.5105 C   0  0  0  0  0  0  0  0  0  0  0  0
  -28.4311  -26.2758   11.4947 C   0  0  0  0  0  0  0  0  0  0  0  0
  -30.0174  -24.1516   10.6264 C   0  0  0  0  0  0  0  0  0  0  0  0
  -29.7421  -26.5088   11.0792 C   0  0  0  0  0  0  0  0  0  0  0  0
  -25.6728  -27.1246   17.1560 C   0  0  0  0  0  0  0  0  0  0  0  0
  -24.7776  -26.4795   19.0579 C   0  0  0  0  0  0  0  0  0  0  0  0
  -20.4843  -23.7544   21.6868 C   0  0  0  0  0  0  0  0  0  0  0  0
  -20.8210  -29.0230   23.3486 C   0  0  0  0  0  0  0  0  0  0  0  0
  -24.8502  -24.6927   17.3113 C   0  0  0  0  0  0  0  0  0  0  0  0
  -26.1902  -17.0289   20.4180 C   0  0  0  0  0  0  0  0  0  0  0  0
  -28.6188  -18.9118   19.3793 C   0  0  0  0  0  0  0  0  0  0  0  0
  -29.7062  -22.0343   18.5341 C   0  0  0  0  0  0  0  0  0  0  0  0
  -22.7224  -30.3364   22.4636 C   0  0  0  0  0  0  0  0  0  0  0  0
  -25.0908  -12.0445   20.4880 C   0  0  0  0  0  0  0  0  0  0  0  0
  -25.0978  -18.2468   18.4998 C   0  0  0  0  0  0  0  0  0  0  0  0
  -26.5770  -20.0941   20.2729 C   0  0  0  0  0  0  0  0  0  0  0  0
  -26.3674  -12.8804   20.4446 C   0  0  0  0  0  0  0  0  0  0  0  0
  -26.0665  -30.7783   21.4059 C   0  0  0  0  0  0  0  0  0  0  0  0
  -26.3294  -13.9688   21.5127 C   0  0  0  0  0  0  0  0  0  0  0  0
  -26.2200  -29.7708   20.2632 C   0  0  0  0  0  0  0  0  0  0  0  0
  -24.6830  -31.4268   21.4086 C   0  0  0  0  0  0  0  0  0  0  0  0
  -23.7095  -29.4857   20.2500 C   0  0  0  0  0  0  0  0  0  0  0  0
  -25.1605  -14.9329   21.2766 C   0  0  1  0  0  0  0  0  0  0  0  0
  -26.4057  -17.8401   19.1717 C   0  0  1  0  0  0  0  0  0  0  0  0
  -25.0612  -28.7537   20.2464 C   0  0  1  0  0  0  0  0  0  0  0  0
  -31.7512  -23.2656   17.7601 C   0  0  0  0  0  0  0  0  0  0  0  0
  -29.7700  -18.7689   22.2014 C   0  0  0  0  0  0  0  0  0  0  0  0
  -31.2238  -20.7262   21.6324 C   0  0  0  0  0  0  0  0  0  0  0  0
  -31.4660  -18.5869   20.3725 C   0  0  0  0  0  0  0  0  0  0  0  0
  -28.3852  -22.8878   16.0271 C   0  0  0  0  0  0  0  0  0  0  0  0
  -20.9808  -22.5764   20.9032 C   0  0  0  0  0  0  0  0  0  1  0  0
  -29.4316  -20.0349   19.9768 C   0  0  1  0  0  0  0  0  0  0  0  0
  -30.4855  -22.5387   17.3330 C   0  0  2  0  0  0  0  0  0  0  0  0
  -30.4446  -19.5310   21.0433 C   0  0  0  0  0  0  0  0  0  0  0  0
  -25.7296  -28.2069   17.9367 N   0  0  0  0  0  0  0  0  0  0  0  0
  -19.9137  -24.7489   21.0893 N   0  0  0  0  0  0  0  0  0  0  0  0
  -25.1776  -27.7831   19.0863 N   0  0  0  0  0  0  0  0  0  0  0  0
  -27.2292  -18.9908   19.5484 N   0  0  0  0  0  0  0  0  0  0  0  0
  -23.6422  -30.3972   21.4022 N   0  0  0  0  0  0  0  0  0  0  0  0
  -16.4581  -26.7891   23.8211 N   0  0  0  0  0  0  0  0  0  0  0  0
  -24.2031  -25.8929   20.1295 N   0  0  0  0  0  0  0  0  0  0  0  0
  -25.2320  -24.3877   15.9977 N   0  0  0  0  0  0  0  0  0  0  0  0
  -21.7948  -29.2916   22.3863 N   0  0  0  0  0  0  0  0  0  0  0  0
  -25.4786  -15.8621   20.2137 N   0  0  0  0  0  0  0  0  0  0  0  0
  -30.0450  -20.7367   18.8546 N   0  0  0  0  0  0  0  0  0  0  0  0
  -29.6514  -23.4785   16.5319 N   0  3  0  0  0  0  0  0  0  0  0  0
  -20.6509  -29.6632   24.3826 O   0  0  0  0  0  0  0  0  0  0  0  0
  -24.2989  -23.8096   18.0111 O   0  0  0  0  0  0  0  0  0  0  0  0
  -26.6378  -17.4309   21.4856 O   0  0  0  0  0  0  0  0  0  0  0  0
  -29.1951  -18.0017   18.7783 O   0  0  0  0  0  0  0  0  0  0  0  0
  -28.8821  -22.7238   19.1309 O   0  0  0  0  0  0  0  0  0  0  0  0
  -22.7484  -31.1208   23.4172 O   0  0  0  0  0  0  0  0  0  0  0  0
  -27.6426  -27.3291   11.9268 O   0  0  0  0  0  0  0  0  0  0  0  0
  -22.3829  -22.4591   21.1413 O   0  0  0  0  0  0  0  0  0  1  0  0
  -30.7794  -23.1314   10.2109 F   0  0  0  0  0  0  0  0  0  0  0  0
  -30.2455  -27.7506   11.0960 F   0  0  0  0  0  0  0  0  0  0  0  0
  1  2  1  0  0  0  0
  1  5  2  0  0  0  0
  2  6  2  0  0  0  0
  3  8  2  0  0  0  0
  3 18  1  0  0  0  0
  4  9  1  0  0  0  0
  4 18  2  0  0  0  0
  5 21  1  0  0  0  0
  6 23  1  0  0  0  0
  7 10  2  0  0  0  0
  7 22  1  0  0  0  0
  8 27  1  0  0  0  0
  9 27  2  0  0  0  0
 10 28  1  0  0  0  0
 11 12  2  0  0  0  0
 11 29  1  0  0  0  0
 12 30  1  0  0  0  0
 13 19  1  0  0  0  0
 13 25  2  0  0  0  0
 14 19  2  0  0  0  0
 14 26  1  0  0  0  0
 15 24  1  0  0  0  0
 15 28  2  0  0  0  0
 16 25  1  0  0  0  0
 16 26  2  0  0  0  0
 17 30  2  0  0  0  0
 17 31  1  0  0  0  0
 18 32  1  0  0  0  0
 19 35  1  0  0  0  0
 20 32  1  0  0  0  0
 20 33  2  0  0  0  0
 20 36  1  0  0  0  0
 21 23  2  0  0  0  0
 21 41  1  0  0  0  0
 22 24  2  0  0  0  0
 22 42  1  0  0  0  0
 23 50  1  0  0  0  0
 24 43  1  0  0  0  0
 25 63  1  0  0  0  0
 26 67  1  0  0  0  0
 27 80  1  0  0  0  0
 28 81  1  0  0  0  0
 29 31  2  0  0  0  0
 29 80  1  0  0  0  0
 30 82  1  0  0  0  0
 31 83  1  0  0  0  0
 32 62  2  0  0  0  0
 33 64  1  0  0  0  0
 33 68  1  0  0  0  0
 34 58  1  0  0  0  0
 34 63  2  0  0  0  0
 35 70  1  0  0  0  0
 35 74  2  0  0  0  0
 36 69  1  0  0  0  0
 36 75  2  0  0  0  0
 37 51  1  0  0  0  0
 37 71  1  0  0  0  0
 37 76  2  0  0  0  0
 38 59  1  0  0  0  0
 38 65  1  0  0  0  0
 38 77  2  0  0  0  0
 39 60  1  0  0  0  0
 39 72  1  0  0  0  0
 39 78  2  0  0  0  0
 40 66  1  0  0  0  0
 40 70  1  0  0  0  0
 40 79  2  0  0  0  0
 41 44  1  0  0  0  0
 42 51  1  0  0  0  0
 43 65  1  0  0  0  0
 44 46  1  0  0  0  0
 45 47  1  0  0  0  0
 45 48  1  0  0  0  0
 46 50  1  0  0  0  0
 47 52  1  0  0  0  0
 48 66  1  0  0  0  0
 49 52  1  0  0  0  0
 49 66  1  0  0  0  0
 50 71  1  0  0  0  0
 51 65  1  0  0  0  0
 52 64  1  0  0  0  0
 53 60  1  0  0  0  0
 54 61  1  0  0  0  0
 55 61  1  0  0  0  0
 56 61  1  0  0  0  0
 57 73  1  0  0  0  0
 58 81  1  0  0  0  0
 59 61  1  0  0  0  0
 59 72  1  0  0  0  0
 60 73  1  0  0  0  0
 62 64  1  0  0  0  0
M  CHG  1  73   1
M  ISO  4  40 100  58 101  70 100  81 101
M  END
> <Batch ID>
0086

> <Smiles>
CNC(C)C(=O)NC(C(=O)N1Cc2cc([101O:1][101CH:1]=CNc3cc(N)cc(C(=O)[100NH:0][100C:0](=O)N4CCCC(n5nc(-c6ccc(Oc7ccc(F)cc7F)cc6)c(C(N)=O)c5N)C4)c3)ccc2CC1C(=O)NC1CCCc2ccccc21)C(C)(C)C

> <Shape>
0.221

> <Color>
0.083

> <Negative vol penalty>
0.000

$$$$

  -OEChem-04052300173D

 83 92  0     1  0  0  0  0  0999 V2000
  -30.8446  -34.9293   25.0543 C   0  0  0  0  0  0  0  0  0  0  0  0
  -30.8804  -34.1351   23.9126 C   0  0  0  0  0  0  0  0  0  0  0  0
  -24.7043   -8.6635   21.6947 C   0  0  0  0  0  0  0  0  0  0  0  0
  -22.9944  -10.0828   20.7465 C   0  0  0  0  0  0  0  0  0  0  0  0
  -29.9779  -34.6087   26.0983 C   0  0  0  0  0  0  0  0  0  0  0  0
  -30.0502  -33.0191   23.8148 C   0  0  0  0  0  0  0  0  0  0  0  0
  -26.3909  -29.1887   18.9926 C   0  0  0  0  0  0  0  0  0  0  0  0
  -23.7387   -8.0141   22.4639 C   0  0  0  0  0  0  0  0  0  0  0  0
  -22.0288   -9.4333   21.5156 C   0  0  0  0  0  0  0  0  0  0  0  0
  -26.2300  -27.8733   18.5595 C   0  0  0  0  0  0  0  0  0  0  0  0
  -21.3807   -5.6334   22.0110 C   0  0  0  0  0  0  0  0  0  0  0  0
  -21.4254   -4.2404   22.0666 C   0  0  0  0  0  0  0  0  0  0  0  0
  -24.7163  -27.4615   20.3921 C   0  0  0  0  0  0  0  0  0  0  0  0
  -26.5430  -19.2129   19.2557 C   0  0  0  0  0  0  0  0  0  0  0  0
  -21.7164   -4.3454   24.4627 C   0  0  0  0  0  0  0  0  0  0  0  0
  -24.3321   -9.6979   20.8361 C   0  0  0  0  0  0  0  0  0  0  0  0
  -25.7594  -10.0230   18.7469 C   0  0  0  0  0  0  0  0  0  0  0  0
  -29.1298  -33.4936   26.0091 C   0  0  0  0  0  0  0  0  0  0  0  0
  -25.7231  -29.6481   20.1369 C   0  0  0  0  0  0  0  0  0  0  0  0
  -29.1723  -32.6824   24.8591 C   0  0  0  0  0  0  0  0  0  0  0  0
  -24.8685  -28.7839   20.8361 C   0  0  0  0  0  0  0  0  0  0  0  0
  -25.8847  -17.9498   19.2197 C   0  0  0  0  0  0  0  0  0  0  0  0
  -22.4010   -8.3990   22.3743 C   0  0  0  0  0  0  0  0  0  0  0  0
  -25.3949  -27.0086   19.2610 C   0  0  0  0  0  0  0  0  0  0  0  0
  -21.5039   -6.3825   23.1813 C   0  0  0  0  0  0  0  0  0  0  0  0
  -21.5933   -3.5964   23.2925 C   0  0  0  0  0  0  0  0  0  0  0  0
  -21.6717   -5.7385   24.4071 C   0  0  0  0  0  0  0  0  0  0  0  0
  -25.3292  -10.3695   20.0417 C   0  0  0  0  0  0  0  0  0  0  0  0
  -26.7108  -10.9642   18.4379 C   0  0  0  0  0  0  0  0  0  0  0  0
  -25.7723  -20.2140   18.7068 C   0  0  0  0  0  0  0  0  0  0  0  0
  -24.6355  -18.0337   18.6448 C   0  0  0  0  0  0  0  0  0  0  0  0
  -26.0287  -23.4900   18.9884 C   0  0  0  0  0  0  0  0  0  0  0  0
  -26.7991  -22.3007   19.3538 C   0  0  0  0  0  0  0  0  0  0  0  0
  -26.0916  -24.7769   19.3305 C   0  0  0  0  0  0  0  0  0  1  0  0
  -25.3368   -8.9467   17.8991 C   0  0  0  0  0  0  0  0  0  0  0  0
  -26.6352  -30.7784   22.9642 C   0  0  0  0  0  0  0  0  0  0  0  0
  -23.4567  -31.3041   23.3429 C   0  0  0  0  0  0  0  0  0  0  0  0
  -20.2606  -30.4868   22.4689 C   0  0  0  0  0  0  0  0  0  0  0  0
  -27.6793  -16.5563   20.3076 C   0  0  0  0  0  0  0  0  0  0  0  0
  -28.2439  -33.1597   27.1831 C   0  0  0  0  0  0  0  0  0  0  0  0
  -25.8864  -31.0775   20.5755 C   0  0  0  0  0  0  0  0  0  0  0  0
  -24.1131  -29.2338   22.0590 C   0  0  0  0  0  0  0  0  0  0  0  0
  -25.1682  -22.6251   18.0961 C   0  0  0  0  0  0  0  0  0  0  0  0
  -27.1278  -32.1752   26.8434 C   0  0  0  0  0  0  0  0  0  0  0  0
  -29.9551  -13.8244   20.4941 C   0  0  0  0  0  0  0  0  0  0  0  0
  -27.6774  -31.0025   26.0376 C   0  0  0  0  0  0  0  0  0  0  0  0
  -29.0672  -12.5973   20.2754 C   0  0  0  0  0  0  0  0  0  0  0  0
  -29.2418  -14.9029   21.3076 C   0  0  0  0  0  0  0  0  0  0  0  0
  -27.0408  -14.0785   20.5693 C   0  0  0  0  0  0  0  0  0  0  0  0
  -28.2694  -31.4778   24.7053 C   0  0  1  0  0  0  0  0  0  0  0  0
  -25.5586  -31.2912   22.0500 C   0  0  1  0  0  0  0  0  0  0  0  0
  -27.6930  -12.9915   19.6995 C   0  0  2  0  0  0  0  0  0  0  0  0
  -17.8713  -31.0627   22.9758 C   0  0  0  0  0  0  0  0  0  0  0  0
  -23.6364  -29.7393   25.9561 C   0  0  0  0  0  0  0  0  0  0  0  0
  -21.1417  -29.5311   25.9220 C   0  0  0  0  0  0  0  0  0  0  0  0
  -22.2016  -31.7850   26.0617 C   0  0  0  0  0  0  0  0  0  0  0  0
  -19.7553  -31.3466   19.6824 C   0  0  0  0  0  0  0  0  0  0  0  0
  -22.2977  -30.5029   23.8847 C   0  0  1  0  0  0  0  0  0  0  0  0
  -19.0703  -31.3469   22.0844 C   0  0  2  0  0  0  0  0  0  0  0  0
  -22.3350  -30.3802   25.4343 C   0  0  0  0  0  0  0  0  0  0  0  0
  -25.9559  -11.4466   20.5224 N   0  0  0  0  0  0  0  0  0  0  0  0
  -26.7898  -11.7850   19.5243 N   0  0  0  0  0  0  0  0  0  0  0  0
  -26.0196  -21.5386   18.5472 N   0  0  0  0  0  0  0  0  0  0  0  0
  -24.3107  -30.6388   22.4519 N   0  0  0  0  0  0  0  0  0  0  0  0
  -27.9495  -15.2282   20.7002 N   0  0  0  0  0  0  0  0  0  0  0  0
  -27.4793  -11.1615   17.3456 N   0  0  0  0  0  0  0  0  0  0  0  0
  -24.3493   -8.0719   18.3722 N   0  0  0  0  0  0  0  0  0  0  0  0
  -26.4317  -16.7390   19.7121 N   0  0  0  0  0  0  0  0  0  0  0  0
  -27.2147  -31.7536   23.7534 N   0  0  0  0  0  0  0  0  0  0  0  0
  -21.0883  -31.1311   23.3640 N   0  0  0  0  0  0  0  0  0  0  0  0
  -18.6774  -31.0854   20.6708 N   0  3  0  0  0  0  0  0  0  0  0  0
  -27.7029  -22.0732   20.1313 O   0  0  0  0  0  0  0  0  0  0  0  0
  -25.8322   -8.7565   16.7625 O   0  0  0  0  0  0  0  0  0  0  0  0
  -26.9180  -29.5861   22.9554 O   0  0  0  0  0  0  0  0  0  0  0  0
  -23.5950  -32.4792   23.6916 O   0  0  0  0  0  0  0  0  0  0  0  0
  -20.4365  -29.3551   22.0229 O   0  0  0  0  0  0  0  0  0  0  0  0
  -28.5055  -17.4594   20.4617 O   0  0  0  0  0  0  0  0  0  0  0  0
  -21.4585   -7.7654   23.1245 O   0  0  0  0  0  0  0  0  0  0  0  0
  -25.2366  -25.7240   18.8408 O   0  0  0  0  0  0  0  0  0  1  0  0
  -21.6347   -2.2586   23.3459 F   0  0  0  0  0  0  0  0  0  0  0  0
  -21.7895   -6.4527   25.5349 F   0  0  0  0  0  0  0  0  0  0  0  0
  -23.8067  -16.9954   18.4879 F   0  0  0  0  0  0  0  0  0  0  0  0
  -24.2613  -19.6302   18.1513 S   0  0  0  0  0  0  0  0  0  0  0  0
  1  2  1  0  0  0  0
  1  5  2  0  0  0  0
  2  6  2  0  0  0  0
  3  8  2  0  0  0  0
  3 16  1  0  0  0  0
  4  9  1  0  0  0  0
  4 16  2  0  0  0  0
  5 18  1  0  0  0  0
  6 20  1  0  0  0  0
  7 10  2  0  0  0  0
  7 19  1  0  0  0  0
  8 23  1  0  0  0  0
  9 23  2  0  0  0  0
 10 24  1  0  0  0  0
 11 12  2  0  0  0  0
 11 25  1  0  0  0  0
 12 26  1  0  0  0  0
 13 21  1  0  0  0  0
 13 24  2  0  0  0  0
 14 22  1  0  0  0  0
 14 30  2  0  0  0  0
 15 26  2  0  0  0  0
 15 27  1  0  0  0  0
 16 28  1  0  0  0  0
 17 28  1  0  0  0  0
 17 29  2  0  0  0  0
 17 35  1  0  0  0  0
 18 20  2  0  0  0  0
 18 40  1  0  0  0  0
 19 21  2  0  0  0  0
 19 41  1  0  0  0  0
 20 50  1  0  0  0  0
 21 42  1  0  0  0  0
 22 31  2  0  0  0  0
 22 68  1  0  0  0  0
 23 78  1  0  0  0  0
 24 79  1  0  0  0  0
 25 27  2  0  0  0  0
 25 78  1  0  0  0  0
 26 80  1  0  0  0  0
 27 81  1  0  0  0  0
 28 61  2  0  0  0  0
 29 62  1  0  0  0  0
 29 66  1  0  0  0  0
 30 63  1  0  0  0  0
 30 83  1  0  0  0  0
 31 82  1  0  0  0  0
 31 83  1  0  0  0  0
 32 33  1  0  0  0  0
 32 34  2  0  0  0  0
 32 43  1  0  0  0  0
 33 63  1  0  0  0  0
 33 72  2  0  0  0  0
 34 79  1  0  0  0  0
 35 67  1  0  0  0  0
 35 73  2  0  0  0  0
 36 51  1  0  0  0  0
 36 69  1  0  0  0  0
 36 74  2  0  0  0  0
 37 58  1  0  0  0  0
 37 64  1  0  0  0  0
 37 75  2  0  0  0  0
 38 59  1  0  0  0  0
 38 70  1  0  0  0  0
 38 76  2  0  0  0  0
 39 65  1  0  0  0  0
 39 68  1  0  0  0  0
 39 77  2  0  0  0  0
 40 44  1  0  0  0  0
 41 51  1  0  0  0  0
 42 64  1  0  0  0  0
 43 63  1  0  0  0  0
 44 46  1  0  0  0  0
 45 47  1  0  0  0  0
 45 48  1  0  0  0  0
 46 50  1  0  0  0  0
 47 52  1  0  0  0  0
 48 65  1  0  0  0  0
 49 52  1  0  0  0  0
 49 65  1  0  0  0  0
 50 69  1  0  0  0  0
 51 64  1  0  0  0  0
 52 62  1  0  0  0  0
 53 59  1  0  0  0  0
 54 60  1  0  0  0  0
 55 60  1  0  0  0  0
 56 60  1  0  0  0  0
 57 71  1  0  0  0  0
 58 60  1  0  0  0  0
 58 70  1  0  0  0  0
 59 71  1  0  0  0  0
 61 62  1  0  0  0  0
M  CHG  1  71   1
M  ISO  4  34 101  39 100  68 100  79 101
M  END
> <Batch ID>
0086

> <Smiles>
CNC(C)C(=O)NC(C(=O)N1Cc2cc([101O:1][101CH:1]=C3CN(c4cc([100NH:0][100C:0](=O)N5CCCC(n6nc(-c7ccc(Oc8ccc(F)cc8F)cc7)c(C(N)=O)c6N)C5)c(F)s4)C3=O)ccc2CC1C(=O)NC1CCCc2ccccc21)C(C)(C)C

> <Shape>
0.264

> <Color>
0.099

> <Negative vol penalty>
0.000

$$$$

  -OEChem-04052300173D

 85 94  0     1  0  0  0  0  0999 V2000
  -21.9656  -12.1930   19.0880 C   0  0  0  0  0  0  0  0  0  0  0  0
  -21.8028  -13.5169   19.4833 C   0  0  0  0  0  0  0  0  0  0  0  0
  -20.0405  -26.4231   26.1823 C   0  0  0  0  0  0  0  0  0  0  0  0
  -27.1290  -25.6491   17.3290 C   0  0  0  0  0  0  0  0  0  0  0  0
  -25.0968  -24.8416   18.3562 C   0  0  0  0  0  0  0  0  0  0  0  0
  -20.0616  -27.7022   25.6264 C   0  0  0  0  0  0  0  0  0  0  0  0
  -23.1633  -11.5300   19.3524 C   0  0  0  0  0  0  0  0  0  0  0  0
  -22.8372  -14.1782   20.1443 C   0  0  0  0  0  0  0  0  0  0  0  0
  -23.6100  -18.8526   18.3562 C   0  0  0  0  0  0  0  0  0  0  0  0
  -20.3381  -25.3137   25.3909 C   0  0  0  0  0  0  0  0  0  0  0  0
  -27.0897  -24.5918   16.4200 C   0  0  0  0  0  0  0  0  0  0  0  0
  -25.0574  -23.7843   17.4472 C   0  0  0  0  0  0  0  0  0  0  0  0
  -22.7223  -19.8462   18.7666 C   0  0  0  0  0  0  0  0  0  0  0  0
  -24.1513  -23.3024   14.2274 C   0  0  0  0  0  0  0  0  0  0  0  0
  -22.9262  -23.0104   13.6279 C   0  0  0  0  0  0  0  0  0  0  0  0
  -20.6778  -26.7625   23.4876 C   0  0  0  0  0  0  0  0  0  0  0  0
  -24.3319  -20.6027   20.3964 C   0  0  0  0  0  0  0  0  0  0  0  0
  -22.9966  -20.7858   14.5678 C   0  0  0  0  0  0  0  0  0  0  0  0
  -26.1326  -25.7739   18.2972 C   0  0  0  0  0  0  0  0  0  0  0  0
  -20.3802  -27.8719   24.2791 C   0  0  0  0  0  0  0  0  0  0  0  0
  -27.1935  -27.1525   20.1631 C   0  0  0  0  0  0  0  0  0  0  0  0
  -24.2165  -12.1866   20.0083 C   0  0  0  0  0  0  0  0  0  0  0  0
  -24.8632  -18.7195   18.9712 C   0  0  0  0  0  0  0  0  0  0  0  0
  -24.0497  -13.5230   20.4189 C   0  0  0  0  0  0  0  0  0  0  0  0
  -25.2347  -19.6082   19.9901 C   0  0  0  0  0  0  0  0  0  0  0  0
  -20.6567  -25.4834   24.0436 C   0  0  0  0  0  0  0  0  0  0  0  0
  -26.0539  -23.6595   16.4791 C   0  0  0  0  0  0  0  0  0  0  0  0
  -23.0820  -20.7196   19.7888 C   0  0  0  0  0  0  0  0  0  0  0  0
  -24.7992  -22.3361   14.9970 C   0  0  0  0  0  0  0  0  0  0  0  0
  -22.3488  -21.7521   13.7982 C   0  0  0  0  0  0  0  0  0  0  0  0
  -24.2218  -21.0778   15.1672 C   0  0  0  0  0  0  0  0  0  0  0  0
  -26.1730  -26.8655   19.2368 C   0  0  0  0  0  0  0  0  0  0  0  0
  -26.7589  -28.2812   20.8140 C   0  0  0  0  0  0  0  0  0  0  0  0
  -21.4687  -22.7969   22.1684 C   0  0  0  0  0  0  0  0  0  0  0  0
  -21.0057  -23.0611   23.5312 C   0  0  0  0  0  0  0  0  0  0  0  0
  -21.8023  -21.6817   21.4940 C   0  0  0  0  0  0  0  0  0  1  0  0
  -20.4023  -29.2348   23.6884 C   0  0  0  0  0  0  0  0  0  0  0  0
  -28.4243  -26.4608   20.4128 C   0  0  0  0  0  0  0  0  0  0  0  0
  -26.3069  -16.4392   20.6504 C   0  0  0  0  0  0  0  0  0  0  0  0
  -28.8486  -18.4450   20.4541 C   0  0  0  0  0  0  0  0  0  0  0  0
  -30.0003  -21.6295   20.0306 C   0  0  0  0  0  0  0  0  0  0  0  0
  -21.3838  -30.5908   21.8658 C   0  0  0  0  0  0  0  0  0  0  0  0
  -25.4752  -11.4140   20.3142 C   0  0  0  0  0  0  0  0  0  0  0  0
  -25.8200  -17.6595   18.4987 C   0  0  0  0  0  0  0  0  0  0  0  0
  -26.5764  -19.5203   20.6689 C   0  0  0  0  0  0  0  0  0  0  0  0
  -21.4037  -24.2808   21.8879 C   0  0  0  0  0  0  0  0  0  0  0  0
  -26.6598  -12.3021   20.6861 C   0  0  0  0  0  0  0  0  0  0  0  0
  -24.0407  -32.1739   20.1536 C   0  0  0  0  0  0  0  0  0  0  0  0
  -26.2360  -13.3607   21.6992 C   0  0  0  0  0  0  0  0  0  0  0  0
  -24.9928  -31.0220   19.8204 C   0  0  0  0  0  0  0  0  0  0  0  0
  -22.5767  -31.7538   20.0301 C   0  0  0  0  0  0  0  0  0  0  0  0
  -23.1597  -29.3986   20.4436 C   0  0  0  0  0  0  0  0  0  0  0  0
  -25.1577  -14.2820   21.1161 C   0  0  1  0  0  0  0  0  0  0  0  0
  -26.8665  -17.2897   19.5453 C   0  0  1  0  0  0  0  0  0  0  0  0
  -24.6454  -29.7512   20.6215 C   0  0  1  0  0  0  0  0  0  0  0  0
  -31.6649  -23.4816   19.7203 C   0  0  0  0  0  0  0  0  0  0  0  0
  -29.0559  -18.2782   23.4937 C   0  0  0  0  0  0  0  0  0  0  0  0
  -30.5221  -20.3068   23.4353 C   0  0  0  0  0  0  0  0  0  0  0  0
  -31.2489  -18.2116   22.2932 C   0  0  0  0  0  0  0  0  0  0  0  0
  -29.9875  -21.3047   17.0890 C   0  0  0  0  0  0  0  0  0  0  0  0
  -29.3780  -19.5849   21.2903 C   0  0  1  0  0  0  0  0  0  0  0  0
  -31.0944  -22.1954   19.1433 C   0  0  2  0  0  0  0  0  0  0  0  0
  -30.0251  -19.0961   22.6169 C   0  0  0  0  0  0  0  0  0  0  0  0
  -25.1659  -27.7412   19.2914 N   0  0  0  0  0  0  0  0  0  0  0  0
  -25.5514  -28.5894   20.2598 N   0  0  0  0  0  0  0  0  0  0  0  0
  -20.9504  -24.3892   23.2633 N   0  0  0  0  0  0  0  0  0  0  0  0
  -27.4745  -18.4631   20.1758 N   0  0  0  0  0  0  0  0  0  0  0  0
  -22.3277  -30.5498   20.8248 N   0  0  0  0  0  0  0  0  0  0  0  0
  -27.2956  -29.0301   21.8007 N   0  0  0  0  0  0  0  0  0  0  0  0
  -28.4328  -25.4363   21.3691 N   0  0  0  0  0  0  0  0  0  0  0  0
  -21.2497  -29.4027   22.5929 N   0  0  0  0  0  0  0  0  0  0  0  0
  -25.7512  -15.2499   20.2187 N   0  0  0  0  0  0  0  0  0  0  0  0
  -30.2808  -20.3392   20.4275 N   0  0  0  0  0  0  0  0  0  0  0  0
  -30.5593  -22.4870   17.7833 N   0  3  0  0  0  0  0  0  0  0  0  0
  -20.7766  -22.3796   24.5088 O   0  0  0  0  0  0  0  0  0  0  0  0
  -19.6680  -30.1011   24.1556 O   0  0  0  0  0  0  0  0  0  0  0  0
  -29.4889  -26.7538   19.8175 O   0  0  0  0  0  0  0  0  0  0  0  0
  -26.3755  -16.8322   21.8091 O   0  0  0  0  0  0  0  0  0  0  0  0
  -29.6268  -17.5746   20.0562 O   0  0  0  0  0  0  0  0  0  0  0  0
  -28.9989  -22.2696   20.3436 O   0  0  0  0  0  0  0  0  0  0  0  0
  -20.7433  -31.6082   22.1485 O   0  0  0  0  0  0  0  0  0  0  0  0
  -26.0151  -22.6278   15.5921 O   0  0  0  0  0  0  0  0  0  0  0  0
  -22.2171  -21.6899   20.1918 O   0  0  0  0  0  0  0  0  0  1  0  0
  -21.1715  -21.4724   13.2238 F   0  0  0  0  0  0  0  0  0  0  0  0
  -24.8388  -20.1458   15.9065 F   0  0  0  0  0  0  0  0  0  0  0  0
  1  2  1  0  0  0  0
  1  7  2  0  0  0  0
  2  8  2  0  0  0  0
  3  6  1  0  0  0  0
  3 10  2  0  0  0  0
  4 11  2  0  0  0  0
  4 19  1  0  0  0  0
  5 12  1  0  0  0  0
  5 19  2  0  0  0  0
  6 20  2  0  0  0  0
  7 22  1  0  0  0  0
  8 24  1  0  0  0  0
  9 13  2  0  0  0  0
  9 23  1  0  0  0  0
 10 26  1  0  0  0  0
 11 27  1  0  0  0  0
 12 27  2  0  0  0  0
 13 28  1  0  0  0  0
 14 15  2  0  0  0  0
 14 29  1  0  0  0  0
 15 30  1  0  0  0  0
 16 20  1  0  0  0  0
 16 26  2  0  0  0  0
 17 25  1  0  0  0  0
 17 28  2  0  0  0  0
 18 30  2  0  0  0  0
 18 31  1  0  0  0  0
 19 32  1  0  0  0  0
 20 37  1  0  0  0  0
 21 32  1  0  0  0  0
 21 33  2  0  0  0  0
 21 38  1  0  0  0  0
 22 24  2  0  0  0  0
 22 43  1  0  0  0  0
 23 25  2  0  0  0  0
 23 44  1  0  0  0  0
 24 53  1  0  0  0  0
 25 45  1  0  0  0  0
 26 66  1  0  0  0  0
 27 82  1  0  0  0  0
 28 83  1  0  0  0  0
 29 31  2  0  0  0  0
 29 82  1  0  0  0  0
 30 84  1  0  0  0  0
 31 85  1  0  0  0  0
 32 64  2  0  0  0  0
 33 65  1  0  0  0  0
 33 69  1  0  0  0  0
 34 35  1  0  0  0  0
 34 36  2  0  0  0  0
 34 46  1  0  0  0  0
 35 66  1  0  0  0  0
 35 75  2  0  0  0  0
 36 83  1  0  0  0  0
 37 71  1  0  0  0  0
 37 76  2  0  0  0  0
 38 70  1  0  0  0  0
 38 77  2  0  0  0  0
 39 54  1  0  0  0  0
 39 72  1  0  0  0  0
 39 78  2  0  0  0  0
 40 61  1  0  0  0  0
 40 67  1  0  0  0  0
 40 79  2  0  0  0  0
 41 62  1  0  0  0  0
 41 73  1  0  0  0  0
 41 80  2  0  0  0  0
 42 68  1  0  0  0  0
 42 71  1  0  0  0  0
 42 81  2  0  0  0  0
 43 47  1  0  0  0  0
 44 54  1  0  0  0  0
 45 67  1  0  0  0  0
 46 66  1  0  0  0  0
 47 49  1  0  0  0  0
 48 50  1  0  0  0  0
 48 51  1  0  0  0  0
 49 53  1  0  0  0  0
 50 55  1  0  0  0  0
 51 68  1  0  0  0  0
 52 55  1  0  0  0  0
 52 68  1  0  0  0  0
 53 72  1  0  0  0  0
 54 67  1  0  0  0  0
 55 65  1  0  0  0  0
 56 62  1  0  0  0  0
 57 63  1  0  0  0  0
 58 63  1  0  0  0  0
 59 63  1  0  0  0  0
 60 74  1  0  0  0  0
 61 63  1  0  0  0  0
 61 73  1  0  0  0  0
 62 74  1  0  0  0  0
 64 65  1  0  0  0  0
M  CHG  1  74   1
M  ISO  4  36 101  42 100  71 100  83 101
M  END
> <Batch ID>
0086

> <Smiles>
CNC(C)C(=O)NC(C(=O)N1Cc2cc([101O:1][101CH:1]=C3CN(c4cccc(C(=O)[100NH:0][100C:0](=O)N5CCCC(n6nc(-c7ccc(Oc8ccc(F)cc8F)cc7)c(C(N)=O)c6N)C5)c4)C3=O)ccc2CC1C(=O)NC1CCCc2ccccc21)C(C)(C)C

> <Shape>
0.209

> <Color>
0.087

> <Negative vol penalty>
0.000

$$$$

  -OEChem-04052300173D

 87 96  0     1  0  0  0  0  0999 V2000
  -31.9749  -33.3702   20.3320 C   0  0  0  0  0  0  0  0  0  0  0  0
  -31.3863  -32.1097   20.3466 C   0  0  0  0  0  0  0  0  0  0  0  0
  -23.0256  -10.2481   20.0688 C   0  0  0  0  0  0  0  0  0  0  0  0
  -23.9534   -9.3679   22.1185 C   0  0  0  0  0  0  0  0  0  0  0  0
  -27.2906  -18.0860   18.9400 C   0  0  0  0  0  0  0  0  0  0  0  0
  -31.5292  -34.3567   21.2106 C   0  0  0  0  0  0  0  0  0  0  0  0
  -30.3523  -31.8347   21.2408 C   0  0  0  0  0  0  0  0  0  0  0  0
  -26.5105  -29.3546   19.0648 C   0  0  0  0  0  0  0  0  0  0  0  0
  -26.4216  -19.1691   19.0723 C   0  0  0  0  0  0  0  0  0  0  0  0
  -22.1163   -9.1912   20.0264 C   0  0  0  0  0  0  0  0  0  0  0  0
  -23.0441   -8.3109   22.0762 C   0  0  0  0  0  0  0  0  0  0  0  0
  -26.6767  -27.9874   18.8478 C   0  0  0  0  0  0  0  0  0  0  0  0
  -19.7844   -7.8010   22.8074 C   0  0  0  0  0  0  0  0  0  0  0  0
  -19.1264   -7.4664   23.9909 C   0  0  0  0  0  0  0  0  0  0  0  0
  -25.3730  -27.5215   20.8232 C   0  0  0  0  0  0  0  0  0  0  0  0
  -28.1144  -20.6376   18.1696 C   0  0  0  0  0  0  0  0  0  0  0  0
  -20.0698   -5.2446   23.8873 C   0  0  0  0  0  0  0  0  0  0  0  0
  -23.9442  -10.3364   21.1148 C   0  0  0  0  0  0  0  0  0  0  0  0
  -28.5716  -18.2788   18.4225 C   0  0  0  0  0  0  0  0  0  0  0  0
  -24.7050  -12.6794   21.7776 C   0  0  0  0  0  0  0  0  0  0  0  0
  -30.4826  -34.0966   22.1094 C   0  0  0  0  0  0  0  0  0  0  0  0
  -25.7822  -29.8163   20.1706 C   0  0  0  0  0  0  0  0  0  0  0  0
  -29.8930  -32.8183   22.1332 C   0  0  0  0  0  0  0  0  0  0  0  0
  -25.1968  -28.8949   21.0506 C   0  0  0  0  0  0  0  0  0  0  0  0
  -26.8335  -20.4448   18.6871 C   0  0  0  0  0  0  0  0  0  0  0  0
  -28.9834  -19.5546   18.0373 C   0  0  0  0  0  0  0  0  0  0  0  0
  -22.1256   -8.2226   21.0302 C   0  0  0  0  0  0  0  0  0  0  0  0
  -26.1104  -27.0707   19.7286 C   0  0  0  0  0  0  0  0  0  0  0  0
  -20.5851   -6.8573   22.1638 C   0  0  0  0  0  0  0  0  0  0  0  0
  -19.2691   -6.1883   24.5309 C   0  0  0  0  0  0  0  0  0  0  0  0
  -20.7278   -5.5792   22.7038 C   0  0  0  0  0  0  0  0  0  0  0  0
  -24.8840  -11.4277   21.1588 C   0  0  0  0  0  0  0  0  0  0  0  0
  -25.8778  -13.3524   21.5367 C   0  0  0  0  0  0  0  0  0  0  0  0
  -25.1917  -23.6574   19.1272 C   0  0  0  0  0  0  0  0  0  0  0  0
  -24.0225  -22.7902   18.9276 C   0  0  0  0  0  0  0  0  0  0  0  0
  -26.4212  -22.8421   19.0560 C   0  0  0  0  0  0  0  0  0  0  0  0
  -29.4650  -17.1137   18.2954 C   0  0  0  0  0  0  0  0  0  0  0  0
  -25.1522  -24.9728   19.3393 C   0  0  0  0  0  0  0  0  0  1  0  0
  -23.5792  -13.1883   22.5052 C   0  0  0  0  0  0  0  0  0  0  0  0
  -26.4607  -31.5840   22.7238 C   0  0  0  0  0  0  0  0  0  0  0  0
  -23.2658  -31.3652   23.2409 C   0  0  0  0  0  0  0  0  0  0  0  0
  -20.3583  -29.6539   22.7269 C   0  0  0  0  0  0  0  0  0  0  0  0
  -29.9019  -14.8771   17.9822 C   0  0  0  0  0  0  0  0  0  0  0  0
  -30.0668  -35.1801   23.0726 C   0  0  0  0  0  0  0  0  0  0  0  0
  -25.5896  -31.2939   20.3758 C   0  0  0  0  0  0  0  0  0  0  0  0
  -24.3887  -29.3389   22.2415 C   0  0  0  0  0  0  0  0  0  0  0  0
  -24.5006  -21.3829   18.7236 C   0  0  0  0  0  0  0  0  0  0  0  0
  -28.7138  -34.9232   23.7312 C   0  0  0  0  0  0  0  0  0  0  0  0
  -30.3005  -11.7362   19.7085 C   0  0  0  0  0  0  0  0  0  0  0  0
  -28.6280  -33.4847   24.2312 C   0  0  0  0  0  0  0  0  0  0  0  0
  -28.9013  -11.4634   20.2602 C   0  0  0  0  0  0  0  0  0  0  0  0
  -30.2418  -12.4336   18.3529 C   0  0  0  0  0  0  0  0  0  0  0  0
  -28.0388  -13.4263   18.9101 C   0  0  0  0  0  0  0  0  0  0  0  0
  -28.7521  -32.4892   23.0714 C   0  0  1  0  0  0  0  0  0  0  0  0
  -25.2623  -31.6588   21.8205 C   0  0  1  0  0  0  0  0  0  0  0  0
  -28.0588  -12.7511   20.2921 C   0  0  1  0  0  0  0  0  0  0  0  0
  -17.9173  -29.6984   23.3074 C   0  0  0  0  0  0  0  0  0  0  0  0
  -23.9157  -30.3429   26.0413 C   0  0  0  0  0  0  0  0  0  0  0  0
  -21.5561  -29.5238   26.2142 C   0  0  0  0  0  0  0  0  0  0  0  0
  -22.0114  -31.9607   25.9372 C   0  0  0  0  0  0  0  0  0  0  0  0
  -19.5679  -29.8941   19.8849 C   0  0  0  0  0  0  0  0  0  0  0  0
  -22.3655  -30.4030   23.9775 C   0  0  1  0  0  0  0  0  0  0  0  0
  -18.9773  -30.1192   22.3014 C   0  0  2  0  0  0  0  0  0  0  0  0
  -22.4790  -30.5490   25.5213 C   0  0  0  0  0  0  0  0  0  0  0  0
  -26.0766  -11.3099   20.5690 N   0  0  0  0  0  0  0  0  0  0  0  0
  -29.0053  -15.9230   18.0898 N   0  0  0  0  0  0  0  0  0  0  0  0
  -26.6576  -12.4963   20.8160 N   0  0  0  0  0  0  0  0  0  0  0  0
  -25.9651  -21.5260   18.8196 N   0  0  0  0  0  0  0  0  0  0  0  0
  -24.2340  -30.7941   22.4029 N   0  0  0  0  0  0  0  0  0  0  0  0
  -29.4059  -13.6334   18.4144 N   0  0  0  0  0  0  0  0  0  0  0  0
  -30.2770  -19.7713   17.5125 N   0  0  0  0  0  0  0  0  0  0  0  0
  -26.3079  -14.5870   21.8731 N   0  0  0  0  0  0  0  0  0  0  0  0
  -22.4556  -12.3647   22.6592 N   0  0  0  0  0  0  0  0  0  0  0  0
  -27.5049  -32.4047   22.3422 N   0  0  0  0  0  0  0  0  0  0  0  0
  -21.0211  -30.6198   23.4541 N   0  0  0  0  0  0  0  0  0  0  0  0
  -18.6219  -29.5410   20.9746 N   0  3  0  0  0  0  0  0  0  0  0  0
  -22.8587  -23.1529   18.9279 O   0  0  0  0  0  0  0  0  0  0  0  0
  -27.5617  -23.2532   19.1795 O   0  0  0  0  0  0  0  0  0  0  0  0
  -23.5636  -14.3451   22.9898 O   0  0  0  0  0  0  0  0  0  0  0  0
  -26.4390  -30.8382   23.6958 O   0  0  0  0  0  0  0  0  0  0  0  0
  -23.1110  -32.5789   23.3976 O   0  0  0  0  0  0  0  0  0  0  0  0
  -20.8029  -28.5431   22.4457 O   0  0  0  0  0  0  0  0  0  0  0  0
  -31.0474  -14.9963   17.5410 O   0  0  0  0  0  0  0  0  0  0  0  0
  -21.2383   -7.1913   20.9893 O   0  0  0  0  0  0  0  0  0  0  0  0
  -26.2717  -25.7357   19.5195 O   0  0  0  0  0  0  0  0  0  1  0  0
  -18.6384   -5.8676   25.6682 F   0  0  0  0  0  0  0  0  0  0  0  0
  -21.4966   -4.6688   22.0906 F   0  0  0  0  0  0  0  0  0  0  0  0
  1  2  1  0  0  0  0
  1  6  2  0  0  0  0
  2  7  2  0  0  0  0
  3 10  2  0  0  0  0
  3 18  1  0  0  0  0
  4 11  1  0  0  0  0
  4 18  2  0  0  0  0
  5  9  2  0  0  0  0
  5 19  1  0  0  0  0
  6 21  1  0  0  0  0
  7 23  1  0  0  0  0
  8 12  2  0  0  0  0
  8 22  1  0  0  0  0
  9 25  1  0  0  0  0
 10 27  1  0  0  0  0
 11 27  2  0  0  0  0
 12 28  1  0  0  0  0
 13 14  2  0  0  0  0
 13 29  1  0  0  0  0
 14 30  1  0  0  0  0
 15 24  1  0  0  0  0
 15 28  2  0  0  0  0
 16 25  2  0  0  0  0
 16 26  1  0  0  0  0
 17 30  2  0  0  0  0
 17 31  1  0  0  0  0
 18 32  1  0  0  0  0
 19 26  2  0  0  0  0
 19 37  1  0  0  0  0
 20 32  1  0  0  0  0
 20 33  2  0  0  0  0
 20 39  1  0  0  0  0
 21 23  2  0  0  0  0
 21 44  1  0  0  0  0
 22 24  2  0  0  0  0
 22 45  1  0  0  0  0
 23 54  1  0  0  0  0
 24 46  1  0  0  0  0
 25 68  1  0  0  0  0
 26 71  1  0  0  0  0
 27 84  1  0  0  0  0
 28 85  1  0  0  0  0
 29 31  2  0  0  0  0
 29 84  1  0  0  0  0
 30 86  1  0  0  0  0
 31 87  1  0  0  0  0
 32 65  2  0  0  0  0
 33 67  1  0  0  0  0
 33 72  1  0  0  0  0
 34 35  1  0  0  0  0
 34 36  1  0  0  0  0
 34 38  2  0  0  0  0
 35 47  1  0  0  0  0
 35 77  2  0  0  0  0
 36 68  1  0  0  0  0
 36 78  2  0  0  0  0
 37 66  2  0  0  0  0
 38 85  1  0  0  0  0
 39 73  1  0  0  0  0
 39 79  2  0  0  0  0
 40 55  1  0  0  0  0
 40 74  1  0  0  0  0
 40 80  2  0  0  0  0
 41 62  1  0  0  0  0
 41 69  1  0  0  0  0
 41 81  2  0  0  0  0
 42 63  1  0  0  0  0
 42 75  1  0  0  0  0
 42 82  2  0  0  0  0
 43 66  1  0  0  0  0
 43 70  1  0  0  0  0
 43 83  2  0  0  0  0
 44 48  1  0  0  0  0
 45 55  1  0  0  0  0
 46 69  1  0  0  0  0
 47 68  1  0  0  0  0
 48 50  1  0  0  0  0
 49 51  1  0  0  0  0
 49 52  1  0  0  0  0
 50 54  1  0  0  0  0
 51 56  1  0  0  0  0
 52 70  1  0  0  0  0
 53 56  1  0  0  0  0
 53 70  1  0  0  0  0
 54 74  1  0  0  0  0
 55 69  1  0  0  0  0
 56 67  1  0  0  0  0
 57 63  1  0  0  0  0
 58 64  1  0  0  0  0
 59 64  1  0  0  0  0
 60 64  1  0  0  0  0
 61 76  1  0  0  0  0
 62 64  1  0  0  0  0
 62 75  1  0  0  0  0
 63 76  1  0  0  0  0
 65 67  1  0  0  0  0
M  CHG  1  76   1
M  ISO  4  38 101  43 100  66 100  85 101
M  END
> <Batch ID>
0086

> <Smiles>
CNC(C)C(=O)NC(C(=O)N1Cc2cc([101O:1][101CH:1]=C3C(=O)CN(c4ccc(C=[100N:0][100C:0](=O)N5CCCC(n6nc(-c7ccc(Oc8ccc(F)cc8F)cc7)c(C(N)=O)c6N)C5)c(N)c4)C3=O)ccc2CC1C(=O)NC1CCCc2ccccc21)C(C)(C)C

> <Shape>
0.264

> <Color>
0.130

> <Negative vol penalty>
0.000

$$$$

  -OEChem-04052300173D

 87 96  0     1  0  0  0  0  0999 V2000
  -25.6586  -36.2426   15.9361 C   0  0  0  0  0  0  0  0  0  0  0  0
  -25.8434  -34.8638   15.9268 C   0  0  0  0  0  0  0  0  0  0  0  0
  -24.1629   -8.9827   21.4458 C   0  0  0  0  0  0  0  0  0  0  0  0
  -24.5295  -10.2753   23.4537 C   0  0  0  0  0  0  0  0  0  0  0  0
  -25.8776  -36.9662   17.1076 C   0  0  0  0  0  0  0  0  0  0  0  0
  -26.2485  -34.2079   17.0887 C   0  0  0  0  0  0  0  0  0  0  0  0
  -24.6088  -28.5954   18.9100 C   0  0  0  0  0  0  0  0  0  0  0  0
  -23.7419   -7.9008   22.2191 C   0  0  0  0  0  0  0  0  0  0  0  0
  -24.1085   -9.1935   24.2270 C   0  0  0  0  0  0  0  0  0  0  0  0
  -25.2408  -27.3563   18.8147 C   0  0  0  0  0  0  0  0  0  0  0  0
  -20.9478   -6.9596   23.8743 C   0  0  0  0  0  0  0  0  0  0  0  0
  -19.7965   -6.2834   23.4708 C   0  0  0  0  0  0  0  0  0  0  0  0
  -26.1046  -27.6317   21.0501 C   0  0  0  0  0  0  0  0  0  0  0  0
  -27.8968  -20.2528   19.3116 C   0  0  0  0  0  0  0  0  0  0  0  0
  -30.2818  -20.2027   19.6935 C   0  0  0  0  0  0  0  0  0  0  0  0
  -21.0729   -4.2446   23.2451 C   0  0  0  0  0  0  0  0  0  0  0  0
  -24.5567  -10.1699   22.0631 C   0  0  0  0  0  0  0  0  0  0  0  0
  -24.1931  -12.3231   20.7443 C   0  0  0  0  0  0  0  0  0  0  0  0
  -26.2761  -36.3176   18.2870 C   0  0  0  0  0  0  0  0  0  0  0  0
  -24.7291  -29.3681   20.0739 C   0  0  0  0  0  0  0  0  0  0  0  0
  -26.4743  -34.9237   18.2767 C   0  0  0  0  0  0  0  0  0  0  0  0
  -25.4710  -28.8791   21.1586 C   0  0  0  0  0  0  0  0  0  0  0  0
  -29.1193  -20.9178   19.4055 C   0  0  0  0  0  0  0  0  0  0  0  0
  -27.8367  -18.8728   19.5058 C   0  0  0  0  0  0  0  0  0  0  0  0
  -30.2217  -18.8227   19.8877 C   0  0  0  0  0  0  0  0  0  0  0  0
  -28.9991  -18.1578   19.7938 C   0  0  0  0  0  0  0  0  0  0  0  0
  -23.7147   -8.0062   23.6097 C   0  0  0  0  0  0  0  0  0  0  0  0
  -25.9912  -26.8756   19.8837 C   0  0  0  0  0  0  0  0  0  0  0  0
  -22.1618   -6.2783   23.9631 C   0  0  0  0  0  0  0  0  0  0  0  0
  -19.8590   -4.9260   23.1563 C   0  0  0  0  0  0  0  0  0  0  0  0
  -22.2243   -4.9208   23.6486 C   0  0  0  0  0  0  0  0  0  0  0  0
  -24.9922  -11.2876   21.2648 C   0  0  0  0  0  0  0  0  0  0  0  0
  -25.0744  -13.1289   20.0657 C   0  0  0  0  0  0  0  0  0  0  0  0
  -28.5846  -24.5049   19.1692 C   0  0  0  0  0  0  0  0  0  0  0  0
  -29.9552  -24.4089   18.6482 C   0  0  0  0  0  0  0  0  0  0  0  0
  -28.1024  -23.1548   19.5243 C   0  0  0  0  0  0  0  0  0  0  0  0
  -27.8845  -25.6315   19.3018 C   0  0  0  0  0  0  0  0  0  1  0  0
  -22.7805  -12.5375   20.8636 C   0  0  0  0  0  0  0  0  0  0  0  0
  -25.9270  -32.2337   20.7501 C   0  0  0  0  0  0  0  0  0  0  0  0
  -24.6620  -31.6410   23.6777 C   0  0  0  0  0  0  0  0  0  0  0  0
  -23.6084  -29.3393   25.9666 C   0  0  0  0  0  0  0  0  0  0  0  0
  -29.9361  -15.8206   19.7170 C   0  0  0  0  0  0  0  0  0  0  0  0
  -26.5464  -37.1482   19.5166 C   0  0  0  0  0  0  0  0  0  0  0  0
  -24.0192  -30.6906   20.1710 C   0  0  0  0  0  0  0  0  0  0  0  0
  -25.6146  -29.6608   22.4380 C   0  0  0  0  0  0  0  0  0  0  0  0
  -30.3723  -22.9679   18.6635 C   0  0  0  0  0  0  0  0  0  0  0  0
  -26.6117  -36.3288   20.8029 C   0  0  0  0  0  0  0  0  0  0  0  0
  -29.9179  -12.3802   18.8000 C   0  0  0  0  0  0  0  0  0  0  0  0
  -27.4780  -35.0893   20.6028 C   0  0  0  0  0  0  0  0  0  0  0  0
  -28.5691  -11.8745   19.3167 C   0  0  0  0  0  0  0  0  0  0  0  0
  -30.5370  -13.4095   19.7440 C   0  0  0  0  0  0  0  0  0  0  0  0
  -28.3153  -14.0327   20.6069 C   0  0  0  0  0  0  0  0  0  0  0  0
  -26.8891  -34.1730   19.5235 C   0  0  1  0  0  0  0  0  0  0  0  0
  -24.6333  -31.6235   21.2103 C   0  0  1  0  0  0  0  0  0  0  0  0
  -27.6223  -13.0420   19.6572 C   0  0  2  0  0  0  0  0  0  0  0  0
  -22.6603  -29.1559   28.2828 C   0  0  0  0  0  0  0  0  0  0  0  0
  -27.4168  -32.2314   24.8494 C   0  0  0  0  0  0  0  0  0  0  0  0
  -26.6728  -31.1317   26.9720 C   0  0  0  0  0  0  0  0  0  0  0  0
  -25.5039  -33.1777   26.1532 C   0  0  0  0  0  0  0  0  0  0  0  0
  -21.1438  -28.0315   24.9795 C   0  0  0  0  0  0  0  0  0  0  0  0
  -25.1578  -30.9847   24.9436 C   0  0  1  0  0  0  0  0  0  0  0  0
  -22.3418  -29.2534   26.7990 C   0  0  2  0  0  0  0  0  0  0  0  0
  -26.1869  -31.8673   25.7049 C   0  0  0  0  0  0  0  0  0  0  0  0
  -26.2820  -11.4208   20.9442 N   0  0  0  0  0  0  0  0  0  0  0  0
  -26.3000  -12.5494   20.2148 N   0  0  0  0  0  0  0  0  0  0  0  0
  -29.1795  -22.2959   19.2113 N   0  0  0  0  0  0  0  0  0  0  0  0
  -24.9069  -30.9511   22.4819 N   0  0  0  0  0  0  0  0  0  0  0  0
  -29.5845  -14.4877   20.0179 N   0  0  0  0  0  0  0  0  0  0  0  0
  -26.5864  -18.2214   19.4064 N   0  0  0  0  0  0  0  0  0  0  0  0
  -31.4130  -18.1201   20.1786 N   0  0  0  0  0  0  0  0  0  0  0  0
  -24.9128  -14.2694   19.3618 N   0  0  0  0  0  0  0  0  0  0  0  0
  -22.0239  -11.6128   21.5962 N   0  0  0  0  0  0  0  0  0  0  0  0
  -28.9384  -16.7558   19.9900 N   0  0  0  0  0  0  0  0  0  0  0  0
  -25.7745  -33.4180   20.0547 N   0  0  0  0  0  0  0  0  0  0  0  0
  -23.9700  -30.6470   25.7205 N   0  0  0  0  0  0  0  0  0  0  0  0
  -21.5463  -28.0549   26.4094 N   0  3  0  0  0  0  0  0  0  0  0  0
  -30.6390  -25.3432   18.2670 O   0  0  0  0  0  0  0  0  0  0  0  0
  -27.0071  -22.8833   19.9843 O   0  0  0  0  0  0  0  0  0  0  0  0
  -22.2037  -13.5112   20.3225 O   0  0  0  0  0  0  0  0  0  0  0  0
  -26.9853  -31.6724   21.0082 O   0  0  0  0  0  0  0  0  0  0  0  0
  -24.0727  -32.7224   23.7480 O   0  0  0  0  0  0  0  0  0  0  0  0
  -24.2182  -28.3459   25.5771 O   0  0  0  0  0  0  0  0  0  0  0  0
  -31.0308  -16.1079   19.2259 O   0  0  0  0  0  0  0  0  0  0  0  0
  -23.3038   -6.9509   24.3646 O   0  0  0  0  0  0  0  0  0  0  0  0
  -26.6097  -25.6668   19.7931 O   0  0  0  0  0  0  0  0  0  1  0  0
  -18.7530   -4.2764   22.7703 F   0  0  0  0  0  0  0  0  0  0  0  0
  -23.3874   -4.2607   23.7332 F   0  0  0  0  0  0  0  0  0  0  0  0
  1  2  1  0  0  0  0
  1  5  2  0  0  0  0
  2  6  2  0  0  0  0
  3  8  2  0  0  0  0
  3 17  1  0  0  0  0
  4  9  1  0  0  0  0
  4 17  2  0  0  0  0
  5 19  1  0  0  0  0
  6 21  1  0  0  0  0
  7 10  2  0  0  0  0
  7 20  1  0  0  0  0
  8 27  1  0  0  0  0
  9 27  2  0  0  0  0
 10 28  1  0  0  0  0
 11 12  2  0  0  0  0
 11 29  1  0  0  0  0
 12 30  1  0  0  0  0
 13 22  1  0  0  0  0
 13 28  2  0  0  0  0
 14 23  1  0  0  0  0
 14 24  2  0  0  0  0
 15 23  2  0  0  0  0
 15 25  1  0  0  0  0
 16 30  2  0  0  0  0
 16 31  1  0  0  0  0
 17 32  1  0  0  0  0
 18 32  1  0  0  0  0
 18 33  2  0  0  0  0
 18 38  1  0  0  0  0
 19 21  2  0  0  0  0
 19 43  1  0  0  0  0
 20 22  2  0  0  0  0
 20 44  1  0  0  0  0
 21 53  1  0  0  0  0
 22 45  1  0  0  0  0
 23 66  1  0  0  0  0
 24 26  1  0  0  0  0
 24 69  1  0  0  0  0
 25 26  2  0  0  0  0
 25 70  1  0  0  0  0
 26 73  1  0  0  0  0
 27 84  1  0  0  0  0
 28 85  1  0  0  0  0
 29 31  2  0  0  0  0
 29 84  1  0  0  0  0
 30 86  1  0  0  0  0
 31 87  1  0  0  0  0
 32 64  2  0  0  0  0
 33 65  1  0  0  0  0
 33 71  1  0  0  0  0
 34 35  1  0  0  0  0
 34 36  1  0  0  0  0
 34 37  2  0  0  0  0
 35 46  1  0  0  0  0
 35 77  2  0  0  0  0
 36 66  1  0  0  0  0
 36 78  2  0  0  0  0
 37 85  1  0  0  0  0
 38 72  1  0  0  0  0
 38 79  2  0  0  0  0
 39 54  1  0  0  0  0
 39 74  1  0  0  0  0
 39 80  2  0  0  0  0
 40 61  1  0  0  0  0
 40 67  1  0  0  0  0
 40 81  2  0  0  0  0
 41 62  1  0  0  0  0
 41 75  1  0  0  0  0
 41 82  2  0  0  0  0
 42 68  1  0  0  0  0
 42 73  1  0  0  0  0
 42 83  2  0  0  0  0
 43 47  1  0  0  0  0
 44 54  1  0  0  0  0
 45 67  1  0  0  0  0
 46 66  1  0  0  0  0
 47 49  1  0  0  0  0
 48 50  1  0  0  0  0
 48 51  1  0  0  0  0
 49 53  1  0  0  0  0
 50 55  1  0  0  0  0
 51 68  1  0  0  0  0
 52 55  1  0  0  0  0
 52 68  1  0  0  0  0
 53 74  1  0  0  0  0
 54 67  1  0  0  0  0
 55 65  1  0  0  0  0
 56 62  1  0  0  0  0
 57 63  1  0  0  0  0
 58 63  1  0  0  0  0
 59 63  1  0  0  0  0
 60 76  1  0  0  0  0
 61 63  1  0  0  0  0
 61 75  1  0  0  0  0
 62 76  1  0  0  0  0
 64 65  1  0  0  0  0
M  CHG  1  76   1
M  ISO  4  37 101  42 100  73 100  85 101
M  END
> <Batch ID>
0086

> <Smiles>
CNC(C)C(=O)NC(C(=O)N1Cc2cc([101O:1][101CH:1]=C3C(=O)CN(c4cc(N)c([100NH:0][100C:0](=O)N5CCCC(n6nc(-c7ccc(Oc8ccc(F)cc8F)cc7)c(C(N)=O)c6N)C5)c(N)c4)C3=O)ccc2CC1C(=O)NC1CCCc2ccccc21)C(C)(C)C

> <Shape>
0.335

> <Color>
0.124

> <Negative vol penalty>
0.000

$$$$

  -OEChem-04052300173D

 85 94  0     1  0  0  0  0  0999 V2000
  -28.5733  -37.9768   22.6270 C   0  0  0  0  0  0  0  0  0  0  0  0
  -28.6084  -36.7137   22.0449 C   0  0  0  0  0  0  0  0  0  0  0  0
  -31.2687  -21.6497   18.8700 C   0  0  0  0  0  0  0  0  0  0  0  0
  -25.6337   -8.7971   19.5949 C   0  0  0  0  0  0  0  0  0  0  0  0
  -24.8456   -8.9685   21.8723 C   0  0  0  0  0  0  0  0  0  0  0  0
  -30.5212  -20.4812   18.7244 C   0  0  0  0  0  0  0  0  0  0  0  0
  -28.0025  -38.1465   23.8877 C   0  0  0  0  0  0  0  0  0  0  0  0
  -28.0736  -35.6193   22.7238 C   0  0  0  0  0  0  0  0  0  0  0  0
  -25.2056  -30.8017   20.2600 C   0  0  0  0  0  0  0  0  0  0  0  0
  -30.6271  -22.8601   19.1329 C   0  0  0  0  0  0  0  0  0  0  0  0
  -25.7839   -7.4192   19.7506 C   0  0  0  0  0  0  0  0  0  0  0  0
  -24.9957   -7.5905   22.0280 C   0  0  0  0  0  0  0  0  0  0  0  0
  -25.6383  -29.5158   19.9390 C   0  0  0  0  0  0  0  0  0  0  0  0
  -24.8292   -4.0676   22.9108 C   0  0  0  0  0  0  0  0  0  0  0  0
  -23.7950   -3.3680   23.5325 C   0  0  0  0  0  0  0  0  0  0  0  0
  -24.7913  -28.7105   22.0493 C   0  0  0  0  0  0  0  0  0  0  0  0
  -22.2685   -4.0884   21.8040 C   0  0  0  0  0  0  0  0  0  0  0  0
  -25.1646   -9.5718   20.6558 C   0  0  0  0  0  0  0  0  0  0  0  0
  -29.1318  -20.5230   18.8415 C   0  0  0  0  0  0  0  0  0  0  0  0
  -23.8647  -11.6810   20.0482 C   0  0  0  0  0  0  0  0  0  0  0  0
  -27.4518  -37.0553   24.5782 C   0  0  0  0  0  0  0  0  0  0  0  0
  -24.5711  -31.0542   21.4847 C   0  0  0  0  0  0  0  0  0  0  0  0
  -27.4961  -35.7743   23.9954 C   0  0  0  0  0  0  0  0  0  0  0  0
  -24.3491  -30.0000   22.3823 C   0  0  0  0  0  0  0  0  0  0  0  0
  -29.2378  -22.9019   19.2500 C   0  0  0  0  0  0  0  0  0  0  0  0
  -25.4648   -6.8158   20.9671 C   0  0  0  0  0  0  0  0  0  0  0  0
  -25.4338  -28.4705   20.8350 C   0  0  0  0  0  0  0  0  0  0  0  0
  -24.5830   -4.7777   21.7357 C   0  0  0  0  0  0  0  0  0  0  0  0
  -22.5147   -3.3783   22.9792 C   0  0  0  0  0  0  0  0  0  0  0  0
  -23.3027   -4.7881   21.1823 C   0  0  0  0  0  0  0  0  0  0  0  0
  -28.4901  -21.7333   19.1043 C   0  0  0  0  0  0  0  0  0  0  0  0
  -25.0099  -10.9954   20.4958 C   0  0  0  0  0  0  0  0  0  0  0  0
  -24.2257  -13.0060   20.0742 C   0  0  0  0  0  0  0  0  0  0  0  0
  -27.7180  -25.8258   19.9804 C   0  0  0  0  0  0  0  0  0  0  0  0
  -29.0741  -25.3574   19.6920 C   0  0  0  0  0  0  0  0  0  0  0  0
  -28.3578  -19.3008   18.6882 C   0  0  0  0  0  0  0  0  0  0  0  0
  -27.1892  -27.0224   20.2944 C   0  0  0  0  0  0  0  0  0  1  0  0
  -28.7790  -18.0609   19.0161 C   0  0  0  0  0  0  0  0  0  0  0  0
  -22.5888  -11.1663   19.6449 C   0  0  0  0  0  0  0  0  0  0  0  0
  -27.8686  -16.9168   18.8092 C   0  0  0  0  0  0  0  0  0  0  0  0
  -25.2203  -32.8635   24.0162 C   0  0  0  0  0  0  0  0  0  0  0  0
  -22.2738  -31.9008   24.9724 C   0  0  0  0  0  0  0  0  0  0  0  0
  -19.7797  -29.5795   24.7785 C   0  0  0  0  0  0  0  0  0  0  0  0
  -26.8880  -37.2796   25.9589 C   0  0  0  0  0  0  0  0  0  0  0  0
  -24.0863  -32.4417   21.8044 C   0  0  0  0  0  0  0  0  0  0  0  0
  -23.6548  -30.2146   23.7015 C   0  0  0  0  0  0  0  0  0  0  0  0
  -27.2163  -24.4149   19.7748 C   0  0  0  0  0  0  0  0  0  0  0  0
  -26.0070  -36.1341   26.4506 C   0  0  0  0  0  0  0  0  0  0  0  0
  -28.2475  -15.2977   22.0753 C   0  0  0  0  0  0  0  0  0  0  0  0
  -26.6825  -34.7914   26.1904 C   0  0  0  0  0  0  0  0  0  0  0  0
  -27.3742  -14.0593   21.8921 C   0  0  0  0  0  0  0  0  0  0  0  0
  -28.9467  -15.7011   20.7780 C   0  0  0  0  0  0  0  0  0  0  0  0
  -27.1386  -14.6514   19.4479 C   0  0  0  0  0  0  0  0  0  0  0  0
  -26.9041  -34.5670   24.6897 C   0  0  1  0  0  0  0  0  0  0  0  0
  -23.9114  -32.6836   23.3005 C   0  0  1  0  0  0  0  0  0  0  0  0
  -26.3885  -14.2554   20.7293 C   0  0  1  0  0  0  0  0  0  0  0  0
  -17.5096  -29.0451   25.7050 C   0  0  0  0  0  0  0  0  0  0  0  0
  -23.5582  -30.9832   27.5836 C   0  0  0  0  0  0  0  0  0  0  0  0
  -21.4973  -29.6381   28.0435 C   0  0  0  0  0  0  0  0  0  0  0  0
  -21.3472  -32.1208   27.8518 C   0  0  0  0  0  0  0  0  0  0  0  0
  -18.5289  -29.7050   22.0992 C   0  0  0  0  0  0  0  0  0  0  0  0
  -21.7359  -30.7382   25.7711 C   0  0  1  0  0  0  0  0  0  0  0  0
  -18.2812  -29.7249   24.5846 C   0  0  2  0  0  0  0  0  0  0  0  0
  -22.0495  -30.8661   27.2885 C   0  0  0  0  0  0  0  0  0  0  0  0
  -26.0225  -11.8169   20.7850 N   0  0  0  0  0  0  0  0  0  0  0  0
  -25.5150  -13.0324   20.5183 N   0  0  0  0  0  0  0  0  0  0  0  0
  -28.6081  -24.0972   19.5086 N   0  0  0  0  0  0  0  0  0  0  0  0
  -27.9908  -15.8254   19.6674 N   0  0  0  0  0  0  0  0  0  0  0  0
  -23.2048  -31.5903   23.9711 N   0  0  0  0  0  0  0  0  0  0  0  0
  -23.5629  -14.1393   19.7603 N   0  0  0  0  0  0  0  0  0  0  0  0
  -22.3867   -9.7798   19.6785 N   0  0  0  0  0  0  0  0  0  0  0  0
  -25.6680  -34.1704   24.0501 N   0  0  0  0  0  0  0  0  0  0  0  0
  -20.3131  -30.6529   25.4601 N   0  0  0  0  0  0  0  0  0  0  0  0
  -17.8648  -29.1152   23.2900 N   0  3  0  0  0  0  0  0  0  0  0  0
  -30.1711  -25.8743   19.6474 O   0  0  0  0  0  0  0  0  0  0  0  0
  -21.6609  -11.9125   19.2503 O   0  0  0  0  0  0  0  0  0  0  0  0
  -27.0575  -16.9954   17.8848 O   0  0  0  0  0  0  0  0  0  0  0  0
  -25.7816  -31.8890   24.5031 O   0  0  0  0  0  0  0  0  0  0  0  0
  -21.8771  -33.0417   25.2227 O   0  0  0  0  0  0  0  0  0  0  0  0
  -20.4132  -28.6088   24.3697 O   0  0  0  0  0  0  0  0  0  0  0  0
  -25.6110   -5.4712   21.1193 O   0  0  0  0  0  0  0  0  0  0  0  0
  -25.8558  -27.2146   20.5245 O   0  0  0  0  0  0  0  0  0  1  0  0
  -21.5220   -2.7051   23.5755 F   0  0  0  0  0  0  0  0  0  0  0  0
  -23.0604   -5.4675   20.0529 F   0  0  0  0  0  0  0  0  0  0  0  0
  -27.1533  -21.7773   19.2181 F   0  0  0  0  0  0  0  0  0  0  0  0
  1  2  1  0  0  0  0
  1  7  2  0  0  0  0
  2  8  2  0  0  0  0
  3  6  1  0  0  0  0
  3 10  2  0  0  0  0
  4 11  2  0  0  0  0
  4 18  1  0  0  0  0
  5 12  1  0  0  0  0
  5 18  2  0  0  0  0
  6 19  2  0  0  0  0
  7 21  1  0  0  0  0
  8 23  1  0  0  0  0
  9 13  2  0  0  0  0
  9 22  1  0  0  0  0
 10 25  1  0  0  0  0
 11 26  1  0  0  0  0
 12 26  2  0  0  0  0
 13 27  1  0  0  0  0
 14 15  2  0  0  0  0
 14 28  1  0  0  0  0
 15 29  1  0  0  0  0
 16 24  1  0  0  0  0
 16 27  2  0  0  0  0
 17 29  2  0  0  0  0
 17 30  1  0  0  0  0
 18 32  1  0  0  0  0
 19 31  1  0  0  0  0
 19 36  1  0  0  0  0
 20 32  1  0  0  0  0
 20 33  2  0  0  0  0
 20 39  1  0  0  0  0
 21 23  2  0  0  0  0
 21 44  1  0  0  0  0
 22 24  2  0  0  0  0
 22 45  1  0  0  0  0
 23 54  1  0  0  0  0
 24 46  1  0  0  0  0
 25 31  2  0  0  0  0
 25 67  1  0  0  0  0
 26 81  1  0  0  0  0
 27 82  1  0  0  0  0
 28 30  2  0  0  0  0
 28 81  1  0  0  0  0
 29 83  1  0  0  0  0
 30 84  1  0  0  0  0
 31 85  1  0  0  0  0
 32 65  2  0  0  0  0
 33 66  1  0  0  0  0
 33 70  1  0  0  0  0
 34 35  1  0  0  0  0
 34 37  2  0  0  0  0
 34 47  1  0  0  0  0
 35 67  1  0  0  0  0
 35 75  2  0  0  0  0
 36 38  2  0  0  0  0
 37 82  1  0  0  0  0
 38 40  1  0  0  0  0
 39 71  1  0  0  0  0
 39 76  2  0  0  0  0
 40 68  1  0  0  0  0
 40 77  2  0  0  0  0
 41 55  1  0  0  0  0
 41 72  1  0  0  0  0
 41 78  2  0  0  0  0
 42 62  1  0  0  0  0
 42 69  1  0  0  0  0
 42 79  2  0  0  0  0
 43 63  1  0  0  0  0
 43 73  1  0  0  0  0
 43 80  2  0  0  0  0
 44 48  1  0  0  0  0
 45 55  1  0  0  0  0
 46 69  1  0  0  0  0
 47 67  1  0  0  0  0
 48 50  1  0  0  0  0
 49 51  1  0  0  0  0
 49 52  1  0  0  0  0
 50 54  1  0  0  0  0
 51 56  1  0  0  0  0
 52 68  1  0  0  0  0
 53 56  1  0  0  0  0
 53 68  1  0  0  0  0
 54 72  1  0  0  0  0
 55 69  1  0  0  0  0
 56 66  1  0  0  0  0
 57 63  1  0  0  0  0
 58 64  1  0  0  0  0
 59 64  1  0  0  0  0
 60 64  1  0  0  0  0
 61 74  1  0  0  0  0
 62 64  1  0  0  0  0
 62 73  1  0  0  0  0
 63 74  1  0  0  0  0
 65 66  1  0  0  0  0
M  CHG  1  74   1
M  ISO  4  37 101  38 100  40 100  82 101
M  END
> <Batch ID>
0086

> <Smiles>
CNC(C)C(=O)NC(C(=O)N1Cc2cc([101O:1][101CH:1]=C3CN(c4cccc(C=[100CH:0][100C:0](=O)N5CCCC(n6nc(-c7ccc(Oc8ccc(F)cc8F)cc7)c(C(N)=O)c6N)C5)c4F)C3=O)ccc2CC1C(=O)NC1CCCc2ccccc21)C(C)(C)C

> <Shape>
0.281

> <Color>
0.076

> <Negative vol penalty>
0.000

$$$$

  -OEChem-04052300173D

 86 94  0     1  0  0  0  0  0999 V2000
  -34.0369  -27.0418   16.0122 C   0  0  0  0  0  0  0  0  0  0  0  0
  -32.7399  -27.3698   16.3938 C   0  0  0  0  0  0  0  0  0  0  0  0
  -23.8448  -13.6773   22.5669 C   0  0  0  0  0  0  0  0  0  0  0  0
  -24.8997  -15.2432   21.0595 C   0  0  0  0  0  0  0  0  0  0  0  0
  -19.4212  -25.5820   21.6337 C   0  0  0  0  0  0  0  0  0  0  0  0
  -34.4513  -25.7107   16.0280 C   0  0  0  0  0  0  0  0  0  0  0  0
  -31.8561  -26.3667   16.7902 C   0  0  0  0  0  0  0  0  0  0  0  0
  -29.2661  -27.5975   20.9641 C   0  0  0  0  0  0  0  0  0  0  0  0
  -19.2150  -24.2064   21.7368 C   0  0  0  0  0  0  0  0  0  0  0  0
  -24.5534  -12.6312   21.9762 C   0  0  0  0  0  0  0  0  0  0  0  0
  -25.6084  -14.1970   20.4688 C   0  0  0  0  0  0  0  0  0  0  0  0
  -28.1921  -28.4734   20.8119 C   0  0  0  0  0  0  0  0  0  0  0  0
  -28.3428  -12.3373   21.1650 C   0  0  0  0  0  0  0  0  0  0  0  0
  -29.7020  -12.5338   20.9207 C   0  0  0  0  0  0  0  0  0  0  0  0
  -21.3969  -25.3891   23.0108 C   0  0  0  0  0  0  0  0  0  0  0  0
  -26.6680  -26.6043   20.8643 C   0  0  0  0  0  0  0  0  0  0  0  0
  -29.3280  -12.1851   18.5594 C   0  0  0  0  0  0  0  0  0  0  0  0
  -24.0179  -14.9833   22.1086 C   0  0  0  0  0  0  0  0  0  0  0  0
  -20.5122  -26.1734   22.2706 C   0  0  0  0  0  0  0  0  0  0  0  0
  -23.6866  -16.8505   23.8149 C   0  0  0  0  0  0  0  0  0  0  0  0
  -33.5752  -24.6917   16.4341 C   0  0  0  0  0  0  0  0  0  0  0  0
  -29.0495  -26.2152   21.0568 C   0  0  0  0  0  0  0  0  0  0  0  0
  -32.2589  -25.0205   16.8101 C   0  0  0  0  0  0  0  0  0  0  0  0
  -27.7407  -25.7132   21.0203 C   0  0  0  0  0  0  0  0  0  0  0  0
  -20.0997  -23.4221   22.4769 C   0  0  0  0  0  0  0  0  0  0  0  0
  -25.4352  -12.8910   20.9271 C   0  0  0  0  0  0  0  0  0  0  0  0
  -26.8931  -27.9767   20.7591 C   0  0  0  0  0  0  0  0  0  0  0  0
  -27.4762  -12.0645   20.1065 C   0  0  0  0  0  0  0  0  0  0  0  0
  -30.1946  -12.4577   19.6179 C   0  0  0  0  0  0  0  0  0  0  0  0
  -21.1907  -24.0134   23.1140 C   0  0  0  0  0  0  0  0  0  0  0  0
  -27.9688  -11.9885   18.8037 C   0  0  0  0  0  0  0  0  0  0  0  0
  -23.2857  -16.0644   22.7180 C   0  0  0  0  0  0  0  0  0  0  0  0
  -22.6498  -17.7315   24.0030 C   0  0  0  0  0  0  0  0  0  0  0  0
  -20.7317  -27.6386   22.1609 C   0  0  0  0  0  0  0  0  0  0  0  0
  -24.8887  -16.7899   24.5940 C   0  0  0  0  0  0  0  0  0  0  0  0
  -29.8975  -23.6905   19.3217 C   0  0  0  0  0  0  0  0  0  0  0  0
  -23.7880  -29.6586   21.5834 C   0  0  0  0  0  0  0  0  0  0  0  0
  -28.5299  -22.0445   21.7595 C   0  0  0  0  0  0  0  0  0  0  0  0
  -26.3082  -22.0173   24.3499 C   0  0  0  0  0  0  0  0  0  0  0  0
  -18.8533  -21.2833   22.0094 C   0  0  0  0  0  0  0  0  0  0  0  0
  -34.0540  -23.2622   16.3894 C   0  0  0  0  0  0  0  0  0  0  0  0
  -30.2167  -25.2858   21.2476 C   0  0  0  0  0  0  0  0  0  0  0  0
  -27.4532  -24.2393   21.1357 C   0  0  0  0  0  0  0  0  0  0  0  0
  -33.1722  -22.2996   17.1807 C   0  0  0  0  0  0  0  0  0  0  0  0
  -18.0027  -17.8259   21.9987 C   0  0  0  0  0  0  0  0  0  0  0  0
  -31.6995  -22.5447   16.8677 C   0  0  0  0  0  0  0  0  0  0  0  0
  -19.3343  -17.1241   22.2751 C   0  0  0  0  0  0  0  0  0  0  0  0
  -18.1847  -19.0617   21.1192 C   0  0  0  0  0  0  0  0  0  0  0  0
  -20.5139  -19.3235   21.8778 C   0  0  0  0  0  0  0  0  0  0  0  0
  -31.2786  -23.9633   17.2701 C   0  0  1  0  0  0  0  0  0  0  0  0
  -29.9172  -23.8538   20.8152 C   0  0  1  0  0  0  0  0  0  0  0  0
  -20.3898  -18.1099   22.8134 C   0  0  2  0  0  0  0  0  0  0  0  0
  -22.3713  -30.0804   23.6150 C   0  0  0  0  0  0  0  0  0  0  0  0
  -25.0959  -21.1501   26.3687 C   0  0  0  0  0  0  0  0  0  0  0  0
  -26.8242  -20.6154   19.6719 C   0  0  0  0  0  0  0  0  0  0  0  0
  -25.3106  -19.8688   21.5211 C   0  0  0  0  0  0  0  0  0  0  0  0
  -27.6963  -19.1406   21.4936 C   0  0  0  0  0  0  0  0  0  0  0  0
  -28.3524  -23.1095   26.1904 C   0  0  0  0  0  0  0  0  0  0  0  0
  -24.6004  -28.4374   21.1916 C   0  0  0  0  0  0  0  0  0  1  0  0
  -22.4157  -29.4595   22.2271 C   0  0  2  0  0  0  0  0  0  0  0  0
  -27.1394  -21.5405   22.0616 C   0  0  1  0  0  0  0  0  0  0  0  0
  -26.4433  -21.5500   25.7879 C   0  0  2  0  0  0  0  0  0  0  0  0
  -26.7479  -20.3190   21.1829 C   0  0  0  0  0  0  0  0  0  0  0  0
  -22.0877  -16.4149   22.2429 N   0  0  0  0  0  0  0  0  0  0  0  0
  -21.7267  -17.4309   23.0450 N   0  0  0  0  0  0  0  0  0  0  0  0
  -28.6282  -23.3705   21.3146 N   0  0  0  0  0  0  0  0  0  0  0  0
  -19.1962  -19.9516   21.6936 N   0  0  0  0  0  0  0  0  0  0  0  0
  -22.4467  -18.7261   24.8929 N   0  0  0  0  0  0  0  0  0  0  0  0
  -25.8500  -15.8245   24.2651 N   0  0  0  0  0  0  0  0  0  0  0  0
  -19.8871  -22.0250   22.5802 N   0  0  0  0  0  0  0  0  0  0  0  0
  -22.0463  -28.0701   22.2861 N   0  0  0  0  0  0  0  0  0  0  0  0
  -31.0804  -24.0448   18.7014 N   0  0  0  0  0  0  0  0  0  0  0  0
  -27.1023  -21.2806   23.4967 N   0  0  0  0  0  0  0  0  0  0  0  0
  -27.0162  -22.6352   26.6336 N   0  3  0  0  0  0  0  0  0  0  0  0
  -19.7664  -28.3788   21.9904 O   0  0  0  0  0  0  0  0  0  0  0  0
  -25.0967  -17.5580   25.5636 O   0  0  0  0  0  0  0  0  0  0  0  0
  -28.8847  -23.2725   18.7729 O   0  0  0  0  0  0  0  0  0  0  0  0
  -24.2008  -30.7961   21.3411 O   0  0  0  0  0  0  0  0  0  0  0  0
  -29.4940  -21.2918   21.9194 O   0  0  0  0  0  0  0  0  0  0  0  0
  -25.5693  -22.9410   24.0163 O   0  0  0  0  0  0  0  0  0  0  0  0
  -17.7179  -21.7247   21.8147 O   0  0  0  0  0  0  0  0  0  0  0  0
  -26.1270  -11.8704   20.3506 O   0  0  0  0  0  0  0  0  0  0  0  0
  -25.8431  -28.8294   20.6099 O   0  0  0  0  0  0  0  0  0  1  0  0
  -31.4995  -12.6480   19.3833 F   0  0  0  0  0  0  0  0  0  0  0  0
  -22.0474  -23.2697   23.8287 F   0  0  0  0  0  0  0  0  0  0  0  0
  -27.1410  -11.7280   17.7826 F   0  0  0  0  0  0  0  0  0  0  0  0
  1  2  1  0  0  0  0
  1  6  2  0  0  0  0
  2  7  2  0  0  0  0
  3 10  2  0  0  0  0
  3 18  1  0  0  0  0
  4 11  1  0  0  0  0
  4 18  2  0  0  0  0
  5  9  2  0  0  0  0
  5 19  1  0  0  0  0
  6 21  1  0  0  0  0
  7 23  1  0  0  0  0
  8 12  2  0  0  0  0
  8 22  1  0  0  0  0
  9 25  1  0  0  0  0
 10 26  1  0  0  0  0
 11 26  2  0  0  0  0
 12 27  1  0  0  0  0
 13 14  2  0  0  0  0
 13 28  1  0  0  0  0
 14 29  1  0  0  0  0
 15 19  2  0  0  0  0
 15 30  1  0  0  0  0
 16 24  1  0  0  0  0
 16 27  2  0  0  0  0
 17 29  2  0  0  0  0
 17 31  1  0  0  0  0
 18 32  1  0  0  0  0
 19 34  1  0  0  0  0
 20 32  1  0  0  0  0
 20 33  2  0  0  0  0
 20 35  1  0  0  0  0
 21 23  2  0  0  0  0
 21 41  1  0  0  0  0
 22 24  2  0  0  0  0
 22 42  1  0  0  0  0
 23 50  1  0  0  0  0
 24 43  1  0  0  0  0
 25 30  2  0  0  0  0
 25 70  1  0  0  0  0
 26 82  1  0  0  0  0
 27 83  1  0  0  0  0
 28 31  2  0  0  0  0
 28 82  1  0  0  0  0
 29 84  1  0  0  0  0
 30 85  1  0  0  0  0
 31 86  1  0  0  0  0
 32 64  2  0  0  0  0
 33 65  1  0  0  0  0
 33 68  1  0  0  0  0
 34 71  1  0  0  0  0
 34 75  2  0  0  0  0
 35 69  1  0  0  0  0
 35 76  2  0  0  0  0
 36 51  1  0  0  0  0
 36 72  1  0  0  0  0
 36 77  2  0  0  0  0
 37 59  1  0  0  0  0
 37 60  1  0  0  0  0
 37 78  2  0  0  0  0
 38 61  1  0  0  0  0
 38 66  1  0  0  0  0
 38 79  2  0  0  0  0
 39 62  1  0  0  0  0
 39 73  1  0  0  0  0
 39 80  2  0  0  0  0
 40 67  1  0  0  0  0
 40 70  1  0  0  0  0
 40 81  2  0  0  0  0
 41 44  1  0  0  0  0
 42 51  1  0  0  0  0
 43 66  1  0  0  0  0
 44 46  1  0  0  0  0
 45 47  1  0  0  0  0
 45 48  1  0  0  0  0
 46 50  1  0  0  0  0
 47 52  1  0  0  0  0
 48 67  1  0  0  0  0
 49 52  1  0  0  0  0
 49 67  1  0  0  0  0
 50 72  1  0  0  0  0
 51 66  1  0  0  0  0
 52 65  1  0  0  0  0
 53 60  1  0  0  0  0
 54 62  1  0  0  0  0
 55 63  1  0  0  0  0
 56 63  1  0  0  0  0
 57 63  1  0  0  0  0
 58 74  1  0  0  0  0
 59 83  1  0  0  0  0
 60 71  1  0  0  0  0
 61 63  1  0  0  0  0
 61 73  1  0  0  0  0
 62 74  1  0  0  0  0
 64 65  1  0  0  0  0
M  CHG  1  74   1
M  ISO  4  40 100  59 101  70 100  83 101
M  END
> <Batch ID>
0086

> <Smiles>
CNC(C)C(=O)NC(C(=O)N1Cc2cc([101O:1][101CH2:1]C(=O)C(C)NC(=O)c3ccc([100NH:0][100C:0](=O)N4CCCC(n5nc(-c6ccc(Oc7ccc(F)cc7F)cc6)c(C(N)=O)c5N)C4)c(F)c3)ccc2CC1C(=O)NC1CCCc2ccccc21)C(C)(C)C

> <Shape>
0.214

> <Color>
0.049

> <Negative vol penalty>
0.000

$$$$

  -OEChem-04052300173D

 86 95  0     1  0  0  0  0  0999 V2000
  -16.8030  -30.7227   23.5260 C   0  0  0  0  0  0  0  0  0  0  0  0
  -18.0087  -30.7340   22.8322 C   0  0  0  0  0  0  0  0  0  0  0  0
  -23.2534   -9.6184   20.1092 C   0  0  0  0  0  0  0  0  0  0  0  0
  -23.7454  -10.0509   22.4347 C   0  0  0  0  0  0  0  0  0  0  0  0
  -16.5989  -29.8006   24.5517 C   0  0  0  0  0  0  0  0  0  0  0  0
  -19.0116  -29.8238   23.1644 C   0  0  0  0  0  0  0  0  0  0  0  0
  -24.3205  -26.0375   20.1987 C   0  0  0  0  0  0  0  0  0  0  0  0
  -31.0451  -19.2393   20.0443 C   0  0  0  0  0  0  0  0  0  0  0  0
  -30.9252  -17.8666   20.2606 C   0  0  0  0  0  0  0  0  0  0  0  0
  -22.5262   -8.4853   20.4738 C   0  0  0  0  0  0  0  0  0  0  0  0
  -23.0182   -8.9178   22.7993 C   0  0  0  0  0  0  0  0  0  0  0  0
  -25.6838  -25.7898   20.3538 C   0  0  0  0  0  0  0  0  0  0  0  0
  -19.7719   -8.0604   23.1826 C   0  0  0  0  0  0  0  0  0  0  0  0
  -18.8879   -8.1770   24.2552 C   0  0  0  0  0  0  0  0  0  0  0  0
  -25.1894  -24.1905   22.0908 C   0  0  0  0  0  0  0  0  0  0  0  0
  -29.2168  -19.6399   21.5719 C   0  0  0  0  0  0  0  0  0  0  0  0
  -20.1033   -6.4601   25.4435 C   0  0  0  0  0  0  0  0  0  0  0  0
  -23.8631  -10.4012   21.0896 C   0  0  0  0  0  0  0  0  0  0  0  0
  -24.1287  -12.8850   20.5724 C   0  0  0  0  0  0  0  0  0  0  0  0
  -17.5960  -28.8724   24.8902 C   0  0  0  0  0  0  0  0  0  0  0  0
  -23.3805  -25.3705   20.9974 C   0  0  0  0  0  0  0  0  0  0  0  0
  -18.8211  -28.8893   24.1965 C   0  0  0  0  0  0  0  0  0  0  0  0
  -23.8147  -24.4297   21.9422 C   0  0  0  0  0  0  0  0  0  0  0  0
  -30.1909  -20.1260   20.7000 C   0  0  0  0  0  0  0  0  0  0  0  0
  -29.9510  -17.3805   21.1326 C   0  0  0  0  0  0  0  0  0  0  0  0
  -22.4086   -8.1351   21.8188 C   0  0  0  0  0  0  0  0  0  0  0  0
  -26.1185  -24.8683   21.3019 C   0  0  0  0  0  0  0  0  0  0  0  0
  -20.8216   -7.1436   23.2403 C   0  0  0  0  0  0  0  0  0  0  0  0
  -19.0536   -7.3769   25.3857 C   0  0  0  0  0  0  0  0  0  0  0  0
  -29.0968  -18.2671   21.7883 C   0  0  0  0  0  0  0  0  0  0  0  0
  -20.9873   -6.3435   24.3708 C   0  0  0  0  0  0  0  0  0  0  0  0
  -24.6149  -11.5714   20.7136 C   0  0  0  0  0  0  0  0  0  0  0  0
  -25.2286  -13.6204   20.2037 C   0  0  0  0  0  0  0  0  0  0  0  0
  -30.7205  -24.3346   20.4148 C   0  0  0  0  0  0  0  0  0  0  0  0
  -29.4646  -23.8695   20.4044 C   0  0  0  0  0  0  0  0  0  0  0  0
  -29.1998  -22.3993   20.5648 C   0  0  0  0  0  0  0  0  0  0  0  0
  -22.8016  -13.3949   20.7579 C   0  0  0  0  0  0  0  0  0  0  0  0
  -21.2057  -26.2754   23.1317 C   0  0  0  0  0  0  0  0  0  0  0  0
  -20.3916  -23.1364   23.0546 C   0  0  0  0  0  0  0  0  0  0  0  0
  -21.3230  -19.9166   22.4122 C   0  0  0  0  0  0  0  0  0  0  0  0
  -30.5995  -14.9722   20.7775 C   0  0  0  0  0  0  0  0  0  0  0  0
  -17.3473  -27.9259   26.0379 C   0  0  0  0  0  0  0  0  0  0  0  0
  -21.9121  -25.6294   20.7994 C   0  0  0  0  0  0  0  0  0  0  0  0
  -22.8448  -23.6722   22.8105 C   0  0  0  0  0  0  0  0  0  0  0  0
  -31.9131  -23.4507   20.5015 C   0  0  0  0  0  0  0  0  0  0  0  0
  -18.3184  -26.7488   26.0781 C   0  0  0  0  0  0  0  0  0  0  0  0
  -29.8474  -12.1390   18.7566 C   0  0  0  0  0  0  0  0  0  0  0  0
  -19.7516  -27.2321   25.8798 C   0  0  0  0  0  0  0  0  0  0  0  0
  -28.3790  -11.8468   19.0740 C   0  0  0  0  0  0  0  0  0  0  0  0
  -31.5973  -22.0588   19.9784 C   0  0  0  0  0  0  0  0  0  0  0  0
  -30.6107  -12.6149   19.9913 C   0  0  0  0  0  0  0  0  0  0  0  0
  -28.5344  -13.4575   21.0152 C   0  0  0  0  0  0  0  0  0  0  0  0
  -19.9237  -27.9016   24.5110 C   0  0  1  0  0  0  0  0  0  0  0  0
  -21.0722  -25.2716   22.0217 C   0  0  1  0  0  0  0  0  0  0  0  0
  -27.7092  -13.0372   19.7880 C   0  0  2  0  0  0  0  0  0  0  0  0
  -20.4530  -17.5637   22.4787 C   0  0  0  0  0  0  0  0  0  0  0  0
  -20.7003  -23.1106   26.0901 C   0  0  0  0  0  0  0  0  0  0  0  0
  -20.7630  -20.6096   25.9927 C   0  0  0  0  0  0  0  0  0  0  0  0
  -18.7280  -21.8350   25.2312 C   0  0  0  0  0  0  0  0  0  0  0  0
  -21.7064  -19.5692   19.4983 C   0  0  0  0  0  0  0  0  0  0  0  0
  -28.2739  -24.7741   20.3012 C   0  0  0  0  0  0  0  0  0  1  0  0
  -20.8190  -21.9021   23.8116 C   0  0  1  0  0  0  0  0  0  0  0  0
  -20.6437  -18.8091   21.6270 C   0  0  2  0  0  0  0  0  0  0  0  0
  -20.2712  -21.8799   25.2665 C   0  0  0  0  0  0  0  0  0  0  0  0
  -25.9218  -11.4748   20.4556 N   0  0  0  0  0  0  0  0  0  0  0  0
  -26.2662  -12.7370   20.1484 N   0  0  0  0  0  0  0  0  0  0  0  0
  -30.3144  -21.5464   20.4758 N   0  0  0  0  0  0  0  0  0  0  0  0
  -21.4199  -23.9648   22.5836 N   0  0  0  0  0  0  0  0  0  0  0  0
  -29.9197  -13.7469   20.6127 N   0  0  0  0  0  0  0  0  0  0  0  0
  -25.3998  -14.9301   19.9247 N   0  0  0  0  0  0  0  0  0  0  0  0
  -21.7899  -12.5023   21.1372 N   0  0  0  0  0  0  0  0  0  0  0  0
  -29.8312  -15.9854   21.3499 N   0  0  0  0  0  0  0  0  0  0  0  0
  -20.0214  -26.9026   23.4685 N   0  0  0  0  0  0  0  0  0  0  0  0
  -20.4061  -20.7622   23.0001 N   0  0  0  0  0  0  0  0  0  0  0  0
  -21.4604  -18.4431   20.4354 N   0  3  0  0  0  0  0  0  0  0  0  0
  -28.0335  -22.0384   20.7297 O   0  0  0  0  0  0  0  0  0  0  0  0
  -22.5179  -14.6032   20.5762 O   0  0  0  0  0  0  0  0  0  0  0  0
  -22.3018  -26.4656   23.6456 O   0  0  0  0  0  0  0  0  0  0  0  0
  -19.1897  -23.3535   22.8813 O   0  0  0  0  0  0  0  0  0  0  0  0
  -22.5447  -20.0191   22.4987 O   0  0  0  0  0  0  0  0  0  0  0  0
  -31.7682  -15.1204   20.4109 O   0  0  0  0  0  0  0  0  0  0  0  0
  -21.6988   -7.0296   22.1749 O   0  0  0  0  0  0  0  0  0  0  0  0
  -27.4486  -24.6251   21.4557 O   0  0  0  0  0  0  0  0  0  1  0  0
  -18.2056   -7.4900   26.4163 F   0  0  0  0  0  0  0  0  0  0  0  0
  -28.1557  -17.8111   22.6274 F   0  0  0  0  0  0  0  0  0  0  0  0
  -21.9946   -5.4617   24.4326 F   0  0  0  0  0  0  0  0  0  0  0  0
  1  2  1  0  0  0  0
  1  5  2  0  0  0  0
  2  6  2  0  0  0  0
  3 10  2  0  0  0  0
  3 18  1  0  0  0  0
  4 11  1  0  0  0  0
  4 18  2  0  0  0  0
  5 20  1  0  0  0  0
  6 22  1  0  0  0  0
  7 12  2  0  0  0  0
  7 21  1  0  0  0  0
  8  9  2  0  0  0  0
  8 24  1  0  0  0  0
  9 25  1  0  0  0  0
 10 26  1  0  0  0  0
 11 26  2  0  0  0  0
 12 27  1  0  0  0  0
 13 14  2  0  0  0  0
 13 28  1  0  0  0  0
 14 29  1  0  0  0  0
 15 23  1  0  0  0  0
 15 27  2  0  0  0  0
 16 24  2  0  0  0  0
 16 30  1  0  0  0  0
 17 29  2  0  0  0  0
 17 31  1  0  0  0  0
 18 32  1  0  0  0  0
 19 32  1  0  0  0  0
 19 33  2  0  0  0  0
 19 37  1  0  0  0  0
 20 22  2  0  0  0  0
 20 42  1  0  0  0  0
 21 23  2  0  0  0  0
 21 43  1  0  0  0  0
 22 53  1  0  0  0  0
 23 44  1  0  0  0  0
 24 67  1  0  0  0  0
 25 30  2  0  0  0  0
 25 72  1  0  0  0  0
 26 82  1  0  0  0  0
 27 83  1  0  0  0  0
 28 31  2  0  0  0  0
 28 82  1  0  0  0  0
 29 84  1  0  0  0  0
 30 85  1  0  0  0  0
 31 86  1  0  0  0  0
 32 65  2  0  0  0  0
 33 66  1  0  0  0  0
 33 70  1  0  0  0  0
 34 35  2  0  0  0  0
 34 45  1  0  0  0  0
 35 36  1  0  0  0  0
 35 61  1  0  0  0  0
 36 67  1  0  0  0  0
 36 76  2  0  0  0  0
 37 71  1  0  0  0  0
 37 77  2  0  0  0  0
 38 54  1  0  0  0  0
 38 73  1  0  0  0  0
 38 78  2  0  0  0  0
 39 62  1  0  0  0  0
 39 68  1  0  0  0  0
 39 79  2  0  0  0  0
 40 63  1  0  0  0  0
 40 74  1  0  0  0  0
 40 80  2  0  0  0  0
 41 69  1  0  0  0  0
 41 72  1  0  0  0  0
 41 81  2  0  0  0  0
 42 46  1  0  0  0  0
 43 54  1  0  0  0  0
 44 68  1  0  0  0  0
 45 50  1  0  0  0  0
 46 48  1  0  0  0  0
 47 49  1  0  0  0  0
 47 51  1  0  0  0  0
 48 53  1  0  0  0  0
 49 55  1  0  0  0  0
 50 67  1  0  0  0  0
 51 69  1  0  0  0  0
 52 55  1  0  0  0  0
 52 69  1  0  0  0  0
 53 73  1  0  0  0  0
 54 68  1  0  0  0  0
 55 66  1  0  0  0  0
 56 63  1  0  0  0  0
 57 64  1  0  0  0  0
 58 64  1  0  0  0  0
 59 64  1  0  0  0  0
 60 75  1  0  0  0  0
 61 83  1  0  0  0  0
 62 64  1  0  0  0  0
 62 74  1  0  0  0  0
 63 75  1  0  0  0  0
 65 66  1  0  0  0  0
M  CHG  1  75   1
M  ISO  4  41 100  61 101  72 100  83 101
M  END
> <Batch ID>
0086

> <Smiles>
CNC(C)C(=O)NC(C(=O)N1Cc2cc([101O:1][101CH2:1]C3=CCCN(c4ccc([100NH:0][100C:0](=O)N5CCCC(n6nc(-c7ccc(Oc8ccc(F)cc8F)cc7)c(C(N)=O)c6N)C5)c(F)c4)C3=O)ccc2CC1C(=O)NC1CCCc2ccccc21)C(C)(C)C

> <Shape>
0.263

> <Color>
0.181

> <Negative vol penalty>
0.000

$$$$

  -OEChem-04052300173D

 87 96  0     1  0  0  0  0  0999 V2000
  -32.5556  -31.1745   22.1150 C   0  0  0  0  0  0  0  0  0  0  0  0
  -31.6983  -30.1277   21.7915 C   0  0  0  0  0  0  0  0  0  0  0  0
  -22.6170  -11.1465   19.5965 C   0  0  0  0  0  0  0  0  0  0  0  0
  -23.1676  -10.2037   21.7517 C   0  0  0  0  0  0  0  0  0  0  0  0
  -30.3388  -19.0536   18.5359 C   0  0  0  0  0  0  0  0  0  0  0  0
  -32.1883  -32.0982   23.0927 C   0  0  0  0  0  0  0  0  0  0  0  0
  -30.4736  -30.0033   22.4464 C   0  0  0  0  0  0  0  0  0  0  0  0
  -26.6648  -28.9889   19.2669 C   0  0  0  0  0  0  0  0  0  0  0  0
  -29.5448  -20.1984   18.6025 C   0  0  0  0  0  0  0  0  0  0  0  0
  -21.5111  -10.3009   19.5091 C   0  0  0  0  0  0  0  0  0  0  0  0
  -22.0617   -9.3581   21.6643 C   0  0  0  0  0  0  0  0  0  0  0  0
  -26.5471  -27.6761   18.8126 C   0  0  0  0  0  0  0  0  0  0  0  0
  -19.5903   -6.6994   21.8475 C   0  0  0  0  0  0  0  0  0  0  0  0
  -19.7684   -5.3609   22.1969 C   0  0  0  0  0  0  0  0  0  0  0  0
  -28.4226  -17.7661   17.8233 C   0  0  0  0  0  0  0  0  0  0  0  0
  -24.8083  -27.2766   20.4362 C   0  0  0  0  0  0  0  0  0  0  0  0
  -21.4297   -5.1281   20.4582 C   0  0  0  0  0  0  0  0  0  0  0  0
  -23.4452  -11.0979   20.7178 C   0  0  0  0  0  0  0  0  0  0  0  0
  -29.7777  -17.8374   18.1462 C   0  0  0  0  0  0  0  0  0  0  0  0
  -24.6283  -13.2636   21.3640 C   0  0  0  0  0  0  0  0  0  0  0  0
  -30.9542  -31.9906   23.7531 C   0  0  0  0  0  0  0  0  0  0  0  0
  -25.8614  -29.4530   20.3183 C   0  0  0  0  0  0  0  0  0  0  0  0
  -30.0899  -30.9256   23.4348 C   0  0  0  0  0  0  0  0  0  0  0  0
  -24.9159  -28.5965   20.9003 C   0  0  0  0  0  0  0  0  0  0  0  0
  -28.1897  -20.1272   18.2795 C   0  0  0  0  0  0  0  0  0  0  0  0
  -21.2335   -9.4067   20.5430 C   0  0  0  0  0  0  0  0  0  0  0  0
  -25.6208  -26.8188   19.3992 C   0  0  0  0  0  0  0  0  0  0  0  0
  -20.3318   -7.2523   20.8033 C   0  0  0  0  0  0  0  0  0  0  0  0
  -20.6881   -4.5752   21.5023 C   0  0  0  0  0  0  0  0  0  0  0  0
  -27.6286  -18.9110   17.8899 C   0  0  0  0  0  0  0  0  0  0  0  0
  -21.2515   -6.4667   20.1087 C   0  0  0  0  0  0  0  0  0  0  0  0
  -24.5881  -11.9707   20.8085 C   0  0  0  0  0  0  0  0  0  0  0  0
  -25.9327  -13.6643   21.2070 C   0  0  0  0  0  0  0  0  0  0  0  0
  -26.6026  -23.4543   18.6332 C   0  0  0  0  0  0  0  0  0  0  0  0
  -27.8048  -22.5834   18.7230 C   0  0  0  0  0  0  0  0  0  0  0  0
  -26.6027  -24.7273   19.0359 C   0  0  0  0  0  0  0  0  0  1  0  0
  -30.6234  -16.6181   18.0755 C   0  0  0  0  0  0  0  0  0  0  0  0
  -23.5804  -14.0335   21.9680 C   0  0  0  0  0  0  0  0  0  0  0  0
  -26.4173  -30.5684   23.2425 C   0  0  0  0  0  0  0  0  0  0  0  0
  -23.2219  -31.1265   23.2150 C   0  0  0  0  0  0  0  0  0  0  0  0
  -20.1551  -30.3442   21.9385 C   0  0  0  0  0  0  0  0  0  0  0  0
  -30.5540  -14.1471   18.1891 C   0  0  0  0  0  0  0  0  0  0  0  0
  -30.6213  -32.9858   24.8363 C   0  0  0  0  0  0  0  0  0  0  0  0
  -25.9819  -30.8798   20.7789 C   0  0  0  0  0  0  0  0  0  0  0  0
  -24.0155  -29.0519   22.0184 C   0  0  0  0  0  0  0  0  0  0  0  0
  -25.4545  -22.6929   18.0690 C   0  0  0  0  0  0  0  0  0  0  0  0
  -29.1433  -32.9989   25.2181 C   0  0  0  0  0  0  0  0  0  0  0  0
  -30.0401  -11.0492   19.8127 C   0  0  0  0  0  0  0  0  0  0  0  0
  -28.6279  -31.5756   25.4060 C   0  0  0  0  0  0  0  0  0  0  0  0
  -28.5808  -11.1193   20.2709 C   0  0  0  0  0  0  0  0  0  0  0  0
  -25.9478  -21.2556   18.0919 C   0  0  0  0  0  0  0  0  0  0  0  0
  -30.2375  -11.7017   18.4451 C   0  0  0  0  0  0  0  0  0  0  0  0
  -28.2680  -13.1384   18.7844 C   0  0  0  0  0  0  0  0  0  0  0  0
  -28.7421  -30.7712   24.1054 C   0  0  1  0  0  0  0  0  0  0  0  0
  -25.4711  -31.0941   22.2003 C   0  0  1  0  0  0  0  0  0  0  0  0
  -28.0303  -12.5572   20.1875 C   0  0  1  0  0  0  0  0  0  0  0  0
  -17.7267  -30.9440   22.1389 C   0  0  0  0  0  0  0  0  0  0  0  0
  -23.0516  -29.5548   25.8248 C   0  0  0  0  0  0  0  0  0  0  0  0
  -20.5795  -29.3727   25.4726 C   0  0  0  0  0  0  0  0  0  0  0  0
  -21.6357  -31.6151   25.7534 C   0  0  0  0  0  0  0  0  0  0  0  0
  -20.0175  -31.2146   19.1132 C   0  0  0  0  0  0  0  0  0  0  0  0
  -21.9953  -30.3363   23.6023 C   0  0  1  0  0  0  0  0  0  0  0  0
  -19.0322  -31.2174   21.4084 C   0  0  2  0  0  0  0  0  0  0  0  0
  -21.8337  -30.2103   25.1435 C   0  0  0  0  0  0  0  0  0  0  0  0
  -25.7726  -11.5763   20.3339 N   0  0  0  0  0  0  0  0  0  0  0  0
  -26.5695  -12.6276   20.5907 N   0  0  0  0  0  0  0  0  0  0  0  0
  -27.3785  -21.3023   18.3494 N   0  0  0  0  0  0  0  0  0  0  0  0
  -24.1757  -30.4540   22.4379 N   0  0  0  0  0  0  0  0  0  0  0  0
  -29.6987  -13.0629   18.4522 N   0  0  0  0  0  0  0  0  0  0  0  0
  -26.5855  -14.7988   21.5373 N   0  0  0  0  0  0  0  0  0  0  0  0
  -22.2992  -13.4710   22.0483 N   0  0  0  0  0  0  0  0  0  0  0  0
  -29.9531  -15.4087   18.2615 N   0  0  0  0  0  0  0  0  0  0  0  0
  -27.6781  -31.1317   23.1931 N   0  0  0  0  0  0  0  0  0  0  0  0
  -20.8685  -30.9781   22.9338 N   0  0  0  0  0  0  0  0  0  0  0  0
  -18.8199  -30.9627   19.9554 N   0  3  0  0  0  0  0  0  0  0  0  0
  -28.9012  -22.9894   19.0706 O   0  0  0  0  0  0  0  0  0  0  0  0
  -31.8200  -16.7339   17.8256 O   0  0  0  0  0  0  0  0  0  0  0  0
  -23.7706  -15.1927   22.4081 O   0  0  0  0  0  0  0  0  0  0  0  0
  -26.0315  -29.7159   24.0338 O   0  0  0  0  0  0  0  0  0  0  0  0
  -23.3266  -32.2994   23.5823 O   0  0  0  0  0  0  0  0  0  0  0  0
  -20.3750  -29.2116   21.5149 O   0  0  0  0  0  0  0  0  0  0  0  0
  -31.7572  -14.0069   17.9482 O   0  0  0  0  0  0  0  0  0  0  0  0
  -20.1543   -8.5816   20.4581 O   0  0  0  0  0  0  0  0  0  0  0  0
  -25.5043  -25.5367   18.9582 O   0  0  0  0  0  0  0  0  0  1  0  0
  -20.8602   -3.2902   21.8390 F   0  0  0  0  0  0  0  0  0  0  0  0
  -26.3271  -18.8303   17.5777 F   0  0  0  0  0  0  0  0  0  0  0  0
  -21.9676   -6.9925   19.1055 F   0  0  0  0  0  0  0  0  0  0  0  0
  1  2  1  0  0  0  0
  1  6  2  0  0  0  0
  2  7  2  0  0  0  0
  3 10  2  0  0  0  0
  3 18  1  0  0  0  0
  4 11  1  0  0  0  0
  4 18  2  0  0  0  0
  5  9  2  0  0  0  0
  5 19  1  0  0  0  0
  6 21  1  0  0  0  0
  7 23  1  0  0  0  0
  8 12  2  0  0  0  0
  8 22  1  0  0  0  0
  9 25  1  0  0  0  0
 10 26  1  0  0  0  0
 11 26  2  0  0  0  0
 12 27  1  0  0  0  0
 13 14  2  0  0  0  0
 13 28  1  0  0  0  0
 14 29  1  0  0  0  0
 15 19  2  0  0  0  0
 15 30  1  0  0  0  0
 16 24  1  0  0  0  0
 16 27  2  0  0  0  0
 17 29  2  0  0  0  0
 17 31  1  0  0  0  0
 18 32  1  0  0  0  0
 19 37  1  0  0  0  0
 20 32  1  0  0  0  0
 20 33  2  0  0  0  0
 20 38  1  0  0  0  0
 21 23  2  0  0  0  0
 21 43  1  0  0  0  0
 22 24  2  0  0  0  0
 22 44  1  0  0  0  0
 23 54  1  0  0  0  0
 24 45  1  0  0  0  0
 25 30  2  0  0  0  0
 25 67  1  0  0  0  0
 26 83  1  0  0  0  0
 27 84  1  0  0  0  0
 28 31  2  0  0  0  0
 28 83  1  0  0  0  0
 29 85  1  0  0  0  0
 30 86  1  0  0  0  0
 31 87  1  0  0  0  0
 32 65  2  0  0  0  0
 33 66  1  0  0  0  0
 33 70  1  0  0  0  0
 34 35  1  0  0  0  0
 34 36  2  0  0  0  0
 34 46  1  0  0  0  0
 35 67  1  0  0  0  0
 35 76  2  0  0  0  0
 36 84  1  0  0  0  0
 37 72  1  0  0  0  0
 37 77  2  0  0  0  0
 38 71  1  0  0  0  0
 38 78  2  0  0  0  0
 39 55  1  0  0  0  0
 39 73  1  0  0  0  0
 39 79  2  0  0  0  0
 40 62  1  0  0  0  0
 40 68  1  0  0  0  0
 40 80  2  0  0  0  0
 41 63  1  0  0  0  0
 41 74  1  0  0  0  0
 41 81  2  0  0  0  0
 42 69  1  0  0  0  0
 42 72  1  0  0  0  0
 42 82  2  0  0  0  0
 43 47  1  0  0  0  0
 44 55  1  0  0  0  0
 45 68  1  0  0  0  0
 46 51  1  0  0  0  0
 47 49  1  0  0  0  0
 48 50  1  0  0  0  0
 48 52  1  0  0  0  0
 49 54  1  0  0  0  0
 50 56  1  0  0  0  0
 51 67  1  0  0  0  0
 52 69  1  0  0  0  0
 53 56  1  0  0  0  0
 53 69  1  0  0  0  0
 54 73  1  0  0  0  0
 55 68  1  0  0  0  0
 56 66  1  0  0  0  0
 57 63  1  0  0  0  0
 58 64  1  0  0  0  0
 59 64  1  0  0  0  0
 60 64  1  0  0  0  0
 61 75  1  0  0  0  0
 62 64  1  0  0  0  0
 62 74  1  0  0  0  0
 63 75  1  0  0  0  0
 65 66  1  0  0  0  0
M  CHG  1  75   1
M  ISO  4  36 101  42 100  72 100  84 101
M  END
> <Batch ID>
0086

> <Smiles>
CNC(C)C(=O)NC(C(=O)N1Cc2cc([101O:1][101CH:1]=C3CCN(c4ccc(C(=O)[100NH:0][100C:0](=O)N5CCCC(n6nc(-c7ccc(Oc8ccc(F)cc8F)cc7)c(C(N)=O)c6N)C5)cc4F)C3=O)ccc2CC1C(=O)NC1CCCc2ccccc21)C(C)(C)C

> <Shape>
0.255

> <Color>
0.133

> <Negative vol penalty>
0.000

$$$$

  -OEChem-04052300173D

 77 84  0     1  0  0  0  0  0999 V2000
  -20.9104  -34.4661   23.5539 C   0  0  0  0  0  0  0  0  0  0  0  0
  -22.1246  -33.9099   23.1644 C   0  0  0  0  0  0  0  0  0  0  0  0
  -24.8956  -18.8230   20.6537 C   0  0  0  0  0  0  0  0  0  0  0  0
  -25.8817  -17.6707   22.5343 C   0  0  0  0  0  0  0  0  0  0  0  0
  -19.8958  -33.6468   24.0470 C   0  0  0  0  0  0  0  0  0  0  0  0
  -22.3253  -32.5339   23.2689 C   0  0  0  0  0  0  0  0  0  0  0  0
  -25.6035  -28.9947   19.4962 C   0  0  0  0  0  0  0  0  0  0  0  0
  -24.2462  -17.6483   20.2744 C   0  0  0  0  0  0  0  0  0  0  0  0
  -25.2323  -16.4959   22.1550 C   0  0  0  0  0  0  0  0  0  0  0  0
  -26.9023  -28.4937   19.5721 C   0  0  0  0  0  0  0  0  0  0  0  0
  -25.6500  -14.0474   19.8613 C   0  0  0  0  0  0  0  0  0  0  0  0
  -26.3910  -12.8658   19.8691 C   0  0  0  0  0  0  0  0  0  0  0  0
  -26.0457  -26.4264   20.4731 C   0  0  0  0  0  0  0  0  0  0  0  0
  -24.8637  -11.9187   21.4838 C   0  0  0  0  0  0  0  0  0  0  0  0
  -25.7135  -18.8342   21.7836 C   0  0  0  0  0  0  0  0  0  0  0  0
  -25.9002  -21.0455   23.0418 C   0  0  0  0  0  0  0  0  0  0  0  0
  -20.0807  -32.2589   24.1485 C   0  0  0  0  0  0  0  0  0  0  0  0
  -24.5152  -28.2181   19.9190 C   0  0  0  0  0  0  0  0  0  0  0  0
  -21.3127  -31.6954   23.7651 C   0  0  0  0  0  0  0  0  0  0  0  0
  -24.7338  -26.9189   20.3990 C   0  0  0  0  0  0  0  0  0  0  0  0
  -24.4145  -16.4848   21.0250 C   0  0  0  0  0  0  0  0  0  0  0  0
  -27.1239  -27.2105   20.0634 C   0  0  0  0  0  0  0  0  0  0  0  0
  -24.5158  -14.1648   20.6648 C   0  0  0  0  0  0  0  0  0  0  0  0
  -25.9978  -11.8014   20.6803 C   0  0  0  0  0  0  0  0  0  0  0  0
  -24.1227  -13.1004   21.4760 C   0  0  0  0  0  0  0  0  0  0  0  0
  -26.3850  -20.0472   22.1756 C   0  0  0  0  0  0  0  0  0  0  0  0
  -26.9067  -21.9790   23.0872 C   0  0  0  0  0  0  0  0  0  0  0  0
  -28.6296  -25.0137   17.3442 C   0  0  0  0  0  0  0  0  0  0  0  0
  -24.6518  -21.1220   23.7427 C   0  0  0  0  0  0  0  0  0  0  0  0
  -29.8334  -24.8475   18.2431 C   0  0  0  0  0  0  0  0  0  0  0  0
  -22.2945  -28.5079   22.1747 C   0  0  0  0  0  0  0  0  0  0  0  0
  -21.0833  -25.8427   20.7777 C   0  0  0  0  0  0  0  0  0  0  0  0
  -21.6356  -23.0594   18.8817 C   0  0  0  0  0  0  0  0  0  0  0  0
  -31.2883  -23.3007   19.1990 C   0  0  0  0  0  0  0  0  0  0  0  0
  -18.9717  -31.4196   24.7318 C   0  0  0  0  0  0  0  0  0  0  0  0
  -23.1179  -28.7631   19.8056 C   0  0  0  0  0  0  0  0  0  0  0  0
  -23.5978  -26.0373   20.8467 C   0  0  0  0  0  0  0  0  0  0  0  0
  -19.1306  -29.9260   24.4595 C   0  0  0  0  0  0  0  0  0  0  0  0
  -31.6484  -22.4134   22.6744 C   0  0  0  0  0  0  0  0  0  0  0  0
  -20.5600  -29.4795   24.7495 C   0  0  0  0  0  0  0  0  0  0  0  0
  -30.3050  -21.7654   23.0088 C   0  0  0  0  0  0  0  0  0  0  0  0
  -32.0738  -22.1094   21.2415 C   0  0  0  0  0  0  0  0  0  0  0  0
  -29.7079  -21.8460   20.5474 C   0  0  0  0  0  0  0  0  0  0  0  0
  -21.5596  -30.2042   23.8401 C   0  0  1  0  0  0  0  0  0  0  0  0
  -22.1308  -28.0768   20.7447 C   0  0  1  0  0  0  0  0  0  0  0  0
  -29.2312  -22.1547   21.9768 C   0  0  1  0  0  0  0  0  0  0  0  0
  -31.5533  -26.6700   17.9988 C   0  0  0  0  0  0  0  0  0  0  0  0
  -20.4601  -21.0521   17.9402 C   0  0  0  0  0  0  0  0  0  0  0  0
  -21.1095  -24.5370   23.5353 C   0  0  0  0  0  0  0  0  0  0  0  0
  -20.8499  -22.3160   22.4093 C   0  0  0  0  0  0  0  0  0  0  0  0
  -19.0721  -24.0493   22.1694 C   0  0  0  0  0  0  0  0  0  0  0  0
  -22.2322  -23.8707   16.0988 C   0  0  0  0  0  0  0  0  0  0  0  0
  -29.3288  -27.1902   19.1775 C   0  0  0  0  0  0  0  0  0  1  0  0
  -30.3901  -26.1415   18.8315 C   0  0  1  0  0  0  0  0  0  0  0  0
  -21.2736  -24.3569   20.9649 C   0  0  1  0  0  0  0  0  0  0  0  0
  -20.8900  -22.4890   17.6887 C   0  0  2  0  0  0  0  0  0  0  0  0
  -20.5981  -23.8319   22.2632 C   0  0  0  0  0  0  0  0  0  0  0  0
  -27.6045  -20.3210   21.7046 N   0  0  0  0  0  0  0  0  0  0  0  0
  -30.2111  -23.6193   18.4112 N   0  0  0  0  0  0  0  0  0  0  0  0
  -27.8945  -21.5019   22.2768 N   0  0  0  0  0  0  0  0  0  0  0  0
  -22.2505  -26.6176   20.7223 N   0  0  0  0  0  0  0  0  0  0  0  0
  -31.0169  -22.4608   20.2930 N   0  0  0  0  0  0  0  0  0  0  0  0
  -27.0341  -23.1533   23.7408 N   0  0  0  0  0  0  0  0  0  0  0  0
  -23.7314  -20.0771   23.5841 N   0  0  0  0  0  0  0  0  0  0  0  0
  -21.5514  -29.6221   22.5151 N   0  0  0  0  0  0  0  0  0  0  0  0
  -20.7890  -23.7260   19.7420 N   0  0  0  0  0  0  0  0  0  0  0  0
  -21.7557  -22.5151   16.4760 N   0  3  0  0  0  0  0  0  0  0  0  0
  -27.5712  -24.4774   17.6234 O   0  0  0  0  0  0  0  0  0  0  0  0
  -24.3544  -22.0963   24.4747 O   0  0  0  0  0  0  0  0  0  0  0  0
  -23.0388  -27.8756   22.9150 O   0  0  0  0  0  0  0  0  0  0  0  0
  -19.9413  -26.2982   20.6769 O   0  0  0  0  0  0  0  0  0  0  0  0
  -22.8472  -22.9237   19.0369 O   0  0  0  0  0  0  0  0  0  0  0  0
  -32.4083  -23.7702   18.9937 O   0  0  0  0  0  0  0  0  0  0  0  0
  -23.7807  -15.3384   20.6553 O   0  0  0  0  0  0  0  0  0  0  0  0
  -28.3998  -26.7157   20.1397 O   0  0  0  0  0  0  0  0  0  1  0  0
  -26.7087  -10.6661   20.6865 F   0  0  0  0  0  0  0  0  0  0  0  0
  -23.0333  -13.2068   22.2492 F   0  0  0  0  0  0  0  0  0  0  0  0
  1  2  1  0  0  0  0
  1  5  2  0  0  0  0
  2  6  2  0  0  0  0
  3  8  2  0  0  0  0
  3 15  1  0  0  0  0
  4  9  1  0  0  0  0
  4 15  2  0  0  0  0
  5 17  1  0  0  0  0
  6 19  1  0  0  0  0
  7 10  2  0  0  0  0
  7 18  1  0  0  0  0
  8 21  1  0  0  0  0
  9 21  2  0  0  0  0
 10 22  1  0  0  0  0
 11 12  2  0  0  0  0
 11 23  1  0  0  0  0
 12 24  1  0  0  0  0
 13 20  1  0  0  0  0
 13 22  2  0  0  0  0
 14 24  2  0  0  0  0
 14 25  1  0  0  0  0
 15 26  1  0  0  0  0
 16 26  1  0  0  0  0
 16 27  2  0  0  0  0
 16 29  1  0  0  0  0
 17 19  2  0  0  0  0
 17 35  1  0  0  0  0
 18 20  2  0  0  0  0
 18 36  1  0  0  0  0
 19 44  1  0  0  0  0
 20 37  1  0  0  0  0
 21 74  1  0  0  0  0
 22 75  1  0  0  0  0
 23 25  2  0  0  0  0
 23 74  1  0  0  0  0
 24 76  1  0  0  0  0
 25 77  1  0  0  0  0
 26 58  2  0  0  0  0
 27 60  1  0  0  0  0
 27 63  1  0  0  0  0
 28 30  1  0  0  0  0
 28 68  2  0  0  0  0
 29 64  1  0  0  0  0
 29 69  2  0  0  0  0
 30 54  1  0  0  0  0
 30 59  2  0  0  0  0
 31 45  1  0  0  0  0
 31 65  1  0  0  0  0
 31 70  2  0  0  0  0
 32 55  1  0  0  0  0
 32 61  1  0  0  0  0
 32 71  2  0  0  0  0
 33 56  1  0  0  0  0
 33 66  1  0  0  0  0
 33 72  2  0  0  0  0
 34 59  1  0  0  0  0
 34 62  1  0  0  0  0
 34 73  2  0  0  0  0
 35 38  1  0  0  0  0
 36 45  1  0  0  0  0
 37 61  1  0  0  0  0
 38 40  1  0  0  0  0
 39 41  1  0  0  0  0
 39 42  1  0  0  0  0
 40 44  1  0  0  0  0
 41 46  1  0  0  0  0
 42 62  1  0  0  0  0
 43 46  1  0  0  0  0
 43 62  1  0  0  0  0
 44 65  1  0  0  0  0
 45 61  1  0  0  0  0
 46 60  1  0  0  0  0
 47 54  1  0  0  0  0
 48 56  1  0  0  0  0
 49 57  1  0  0  0  0
 50 57  1  0  0  0  0
 51 57  1  0  0  0  0
 52 67  1  0  0  0  0
 53 54  1  0  0  0  0
 53 75  1  0  0  0  0
 55 57  1  0  0  0  0
 55 66  1  0  0  0  0
 56 67  1  0  0  0  0
 58 60  1  0  0  0  0
M  CHG  1  67   1
M  ISO  4  34 100  53 101  59 100  75 101
M  END
> <Batch ID>
0086

> <Smiles>
CNC(C)C(=O)NC(C(=O)N1Cc2cc([101O:1][101CH2:1]C(C)=C(C=O)[100NH:0][100C:0](=O)N3CCCC(n4nc(-c5ccc(Oc6ccc(F)cc6F)cc5)c(C(N)=O)c4N)C3)ccc2CC1C(=O)NC1CCCc2ccccc21)C(C)(C)C

> <Shape>
0.184

> <Color>
0.078

> <Negative vol penalty>
0.000

$$$$

  -OEChem-04052300173D

 83 91  0     1  0  0  0  0  0999 V2000
  -32.3238  -17.4591   21.7662 C   0  0  0  0  0  0  0  0  0  0  0  0
  -31.1338  -17.8907   21.1892 C   0  0  0  0  0  0  0  0  0  0  0  0
  -24.0067  -30.0036   22.0016 C   0  0  0  0  0  0  0  0  0  0  0  0
  -25.5595  -31.5338   20.9603 C   0  0  0  0  0  0  0  0  0  0  0  0
  -32.5506  -16.0968   21.9575 C   0  0  0  0  0  0  0  0  0  0  0  0
  -30.1702  -16.9601   20.8022 C   0  0  0  0  0  0  0  0  0  0  0  0
  -25.4918  -18.3182   22.1855 C   0  0  0  0  0  0  0  0  0  0  0  0
  -23.3486  -31.0783   22.5995 C   0  0  0  0  0  0  0  0  0  0  0  0
  -24.9014  -32.6085   21.5582 C   0  0  0  0  0  0  0  0  0  0  0  0
  -24.8554  -19.2880   21.4120 C   0  0  0  0  0  0  0  0  0  0  0  0
  -24.7915  -34.0830   24.5987 C   0  0  0  0  0  0  0  0  0  0  0  0
  -25.5742  -35.0716   25.1951 C   0  0  0  0  0  0  0  0  0  0  0  0
  -25.9721  -21.9038   18.6470 C   0  0  0  0  0  0  0  0  0  0  0  0
  -23.6178  -17.5588   20.2729 C   0  0  0  0  0  0  0  0  0  0  0  0
  -24.6355  -36.7185   23.6972 C   0  0  0  0  0  0  0  0  0  0  0  0
  -25.1122  -30.2313   21.1820 C   0  0  0  0  0  0  0  0  0  0  0  0
  -27.1305  -21.1299   18.8971 C   0  0  0  0  0  0  0  0  0  0  0  0
  -25.5171  -28.5473   19.3091 C   0  0  0  0  0  0  0  0  0  0  0  0
  -31.5852  -15.1496   21.5815 C   0  0  0  0  0  0  0  0  0  0  0  0
  -25.2035  -16.9583   22.0006 C   0  0  0  0  0  0  0  0  0  0  0  0
  -30.3848  -15.5838   20.9874 C   0  0  0  0  0  0  0  0  0  0  0  0
  -24.2500  -16.5738   21.0471 C   0  0  0  0  0  0  0  0  0  0  0  0
  -23.7959  -32.3807   22.3778 C   0  0  0  0  0  0  0  0  0  0  0  0
  -23.9204  -18.9082   20.4536 C   0  0  0  0  0  0  0  0  0  0  0  0
  -23.9309  -34.4121   23.5515 C   0  0  0  0  0  0  0  0  0  0  0  0
  -25.4962  -36.3893   24.7444 C   0  0  0  0  0  0  0  0  0  0  0  0
  -23.8528  -35.7299   23.1008 C   0  0  0  0  0  0  0  0  0  0  0  0
  -25.7927  -29.1215   20.5645 C   0  0  0  0  0  0  0  0  0  0  0  0
  -26.9690  -19.9611   18.1902 C   0  0  0  0  0  0  0  0  0  0  0  0
  -25.1855  -21.1528   17.8049 C   0  0  0  0  0  0  0  0  0  0  0  0
  -26.4353  -27.5332   19.1863 C   0  0  0  0  0  0  0  0  0  0  0  0
  -28.3029  -21.4720   19.7428 C   0  0  0  0  0  0  0  0  0  0  0  0
  -24.5202  -28.8991   18.3405 C   0  0  0  0  0  0  0  0  0  0  0  0
  -26.8839  -14.4091   21.1168 C   0  0  0  0  0  0  0  0  0  0  0  0
  -22.9037  -20.7084   17.5039 C   0  0  0  0  0  0  0  0  0  0  0  0
  -24.1424  -12.8344   21.8429 C   0  0  0  0  0  0  0  0  0  0  0  0
  -20.7528  -12.9432   22.2240 C   0  0  0  0  0  0  0  0  0  0  0  0
  -29.2279  -23.2112   21.2406 C   0  0  0  0  0  0  0  0  0  0  0  0
  -31.8952  -13.6850   21.7649 C   0  0  0  0  0  0  0  0  0  0  0  0
  -25.8790  -15.9263   22.8615 C   0  0  0  0  0  0  0  0  0  0  0  0
  -23.8901  -15.1285   20.8237 C   0  0  0  0  0  0  0  0  0  0  0  0
  -30.6653  -12.7857   21.6706 C   0  0  0  0  0  0  0  0  0  0  0  0
  -30.5125  -26.4211   21.9778 C   0  0  0  0  0  0  0  0  0  0  0  0
  -29.8175  -13.1658   20.4609 C   0  0  0  0  0  0  0  0  0  0  0  0
  -29.3807  -27.3664   21.5658 C   0  0  0  0  0  0  0  0  0  0  0  0
  -29.9775  -25.1370   22.6100 C   0  0  0  0  0  0  0  0  0  0  0  0
  -27.8428  -25.3679   21.4068 C   0  0  0  0  0  0  0  0  0  0  0  0
  -29.3048  -14.6063   20.5772 C   0  0  1  0  0  0  0  0  0  0  0  0
  -25.8863  -14.5362   22.2332 C   0  0  1  0  0  0  0  0  0  0  0  0
  -28.3275  -26.6448   20.7011 C   0  0  1  0  0  0  0  0  0  0  0  0
  -27.7955  -18.7557   18.0250 C   0  0  0  0  0  0  0  0  0  0  0  0
  -21.5794  -21.1168   16.9032 C   0  0  0  0  0  0  0  0  0  0  0  0
  -18.7859  -11.4893   22.7856 C   0  0  0  0  0  0  0  0  0  0  0  0
  -24.2551  -11.6077   19.0513 C   0  0  0  0  0  0  0  0  0  0  0  0
  -21.8528  -10.9548   19.3171 C   0  0  0  0  0  0  0  0  0  0  0  0
  -23.5753  -10.0214   20.8612 C   0  0  0  0  0  0  0  0  0  0  0  0
  -20.0851  -14.5671   24.6064 C   0  0  0  0  0  0  0  0  0  0  0  0
  -22.9005  -19.4717   18.3804 C   0  0  0  0  0  0  0  0  0  1  0  0
  -22.8980  -12.4473   21.0810 C   0  0  1  0  0  0  0  0  0  0  0  0
  -19.8466  -12.4334   23.3301 C   0  0  2  0  0  0  0  0  0  0  0  0
  -23.1533  -11.2850   20.0803 C   0  0  0  0  0  0  0  0  0  0  0  0
  -26.8066  -28.5220   21.1943 N   0  0  0  0  0  0  0  0  0  0  0  0
  -23.9323  -21.4626   17.2564 N   0  0  0  0  0  0  0  0  0  0  0  0
  -27.1760  -27.5604   20.3311 N   0  0  0  0  0  0  0  0  0  0  0  0
  -24.5823  -14.1564   21.6859 N   0  0  0  0  0  0  0  0  0  0  0  0
  -28.9940  -24.5099   21.7253 N   0  0  0  0  0  0  0  0  0  0  0  0
  -26.6731  -26.6298   18.2118 N   0  0  0  0  0  0  0  0  0  0  0  0
  -23.6585  -29.9669   18.6262 N   0  0  0  0  0  0  0  0  0  0  0  0
  -28.2507  -22.7177   20.3690 N   0  0  0  0  0  0  0  0  0  0  0  0
  -28.1869  -14.6724   21.4940 N   0  0  0  0  0  0  0  0  0  0  0  0
  -21.8784  -12.1592   22.0839 N   0  0  0  0  0  0  0  0  0  0  0  0
  -19.1610  -13.5720   24.0041 N   0  3  0  0  0  0  0  0  0  0  0  0
  -29.2065  -20.6508   19.8729 O   0  0  0  0  0  0  0  0  0  0  0  0
  -24.3866  -28.2744   17.2610 O   0  0  0  0  0  0  0  0  0  0  0  0
  -26.5000  -14.0939   19.9965 O   0  0  0  0  0  0  0  0  0  0  0  0
  -24.6995  -11.9968   22.5568 O   0  0  0  0  0  0  0  0  0  0  0  0
  -20.4867  -13.9353   21.5491 O   0  0  0  0  0  0  0  0  0  0  0  0
  -30.2382  -22.5617   21.5282 O   0  0  0  0  0  0  0  0  0  0  0  0
  -25.7860  -19.9671   17.5216 O   0  0  0  0  0  0  0  0  0  0  0  0
  -23.1539  -33.4297   22.9609 O   0  0  0  0  0  0  0  0  0  0  0  0
  -23.2982  -19.8527   19.6968 O   0  0  0  0  0  0  0  0  0  1  0  0
  -26.2468  -37.3388   25.3182 F   0  0  0  0  0  0  0  0  0  0  0  0
  -23.0270  -36.0523   22.0959 F   0  0  0  0  0  0  0  0  0  0  0  0
  1  2  1  0  0  0  0
  1  5  2  0  0  0  0
  2  6  2  0  0  0  0
  3  8  2  0  0  0  0
  3 16  1  0  0  0  0
  4  9  1  0  0  0  0
  4 16  2  0  0  0  0
  5 19  1  0  0  0  0
  6 21  1  0  0  0  0
  7 10  2  0  0  0  0
  7 20  1  0  0  0  0
  8 23  1  0  0  0  0
  9 23  2  0  0  0  0
 10 24  1  0  0  0  0
 11 12  2  0  0  0  0
 11 25  1  0  0  0  0
 12 26  1  0  0  0  0
 13 17  1  0  0  0  0
 13 30  2  0  0  0  0
 14 22  1  0  0  0  0
 14 24  2  0  0  0  0
 15 26  2  0  0  0  0
 15 27  1  0  0  0  0
 16 28  1  0  0  0  0
 17 29  2  0  0  0  0
 17 32  1  0  0  0  0
 18 28  1  0  0  0  0
 18 31  2  0  0  0  0
 18 33  1  0  0  0  0
 19 21  2  0  0  0  0
 19 39  1  0  0  0  0
 20 22  2  0  0  0  0
 20 40  1  0  0  0  0
 21 48  1  0  0  0  0
 22 41  1  0  0  0  0
 23 80  1  0  0  0  0
 24 81  1  0  0  0  0
 25 27  2  0  0  0  0
 25 80  1  0  0  0  0
 26 82  1  0  0  0  0
 27 83  1  0  0  0  0
 28 62  2  0  0  0  0
 29 51  1  0  0  0  0
 29 79  1  0  0  0  0
 30 63  1  0  0  0  0
 30 79  1  0  0  0  0
 31 64  1  0  0  0  0
 31 67  1  0  0  0  0
 32 69  1  0  0  0  0
 32 73  2  0  0  0  0
 33 68  1  0  0  0  0
 33 74  2  0  0  0  0
 34 49  1  0  0  0  0
 34 70  1  0  0  0  0
 34 75  2  0  0  0  0
 35 52  1  0  0  0  0
 35 58  1  0  0  0  0
 35 63  2  0  0  0  0
 36 59  1  0  0  0  0
 36 65  1  0  0  0  0
 36 76  2  0  0  0  0
 37 60  1  0  0  0  0
 37 71  1  0  0  0  0
 37 77  2  0  0  0  0
 38 66  1  0  0  0  0
 38 69  1  0  0  0  0
 38 78  2  0  0  0  0
 39 42  1  0  0  0  0
 40 49  1  0  0  0  0
 41 65  1  0  0  0  0
 42 44  1  0  0  0  0
 43 45  1  0  0  0  0
 43 46  1  0  0  0  0
 44 48  1  0  0  0  0
 45 50  1  0  0  0  0
 46 66  1  0  0  0  0
 47 50  1  0  0  0  0
 47 66  1  0  0  0  0
 48 70  1  0  0  0  0
 49 65  1  0  0  0  0
 50 64  1  0  0  0  0
 53 60  1  0  0  0  0
 54 61  1  0  0  0  0
 55 61  1  0  0  0  0
 56 61  1  0  0  0  0
 57 72  1  0  0  0  0
 58 81  1  0  0  0  0
 59 61  1  0  0  0  0
 59 71  1  0  0  0  0
 60 72  1  0  0  0  0
 62 64  1  0  0  0  0
M  CHG  1  72   1
M  ISO  4  38 100  58 101  69 100  81 101
M  END
> <Batch ID>
0086

> <Smiles>
CNC(C)C(=O)NC(C(=O)N1Cc2cc([101O:1][101CH2:1]C(C)=Nc3cc(C(=O)[100NH:0][100C:0](=O)N4CCCC(n5nc(-c6ccc(Oc7ccc(F)cc7F)cc6)c(C(N)=O)c5N)C4)c(C)o3)ccc2CC1C(=O)NC1CCCc2ccccc21)C(C)(C)C

> <Shape>
0.264

> <Color>
0.051

> <Negative vol penalty>
0.000

$$$$

  -OEChem-04052300173D

 87 96  0     1  0  0  0  0  0999 V2000
  -24.1390  -36.5678   16.4306 C   0  0  0  0  0  0  0  0  0  0  0  0
  -24.6874  -35.2964   16.2953 C   0  0  0  0  0  0  0  0  0  0  0  0
  -22.3424  -13.8274   24.6142 C   0  0  0  0  0  0  0  0  0  0  0  0
  -22.0622  -15.3911   22.7939 C   0  0  0  0  0  0  0  0  0  0  0  0
  -24.1789  -37.2153   17.6647 C   0  0  0  0  0  0  0  0  0  0  0  0
  -25.2770  -34.6722   17.3940 C   0  0  0  0  0  0  0  0  0  0  0  0
  -25.2430  -28.6853   18.6832 C   0  0  0  0  0  0  0  0  0  0  0  0
  -28.6152  -20.3548   18.7681 C   0  0  0  0  0  0  0  0  0  0  0  0
  -28.4254  -19.0964   19.3391 C   0  0  0  0  0  0  0  0  0  0  0  0
  -21.1720  -14.3044   25.2042 C   0  0  0  0  0  0  0  0  0  0  0  0
  -20.8917  -15.8681   23.3839 C   0  0  0  0  0  0  0  0  0  0  0  0
  -26.1827  -27.6762   18.4775 C   0  0  0  0  0  0  0  0  0  0  0  0
  -17.8383  -13.9188   24.7916 C   0  0  0  0  0  0  0  0  0  0  0  0
  -16.9305  -12.9803   25.2822 C   0  0  0  0  0  0  0  0  0  0  0  0
  -26.9854  -27.9720   20.7330 C   0  0  0  0  0  0  0  0  0  0  0  0
  -30.3797  -19.4283   20.7203 C   0  0  0  0  0  0  0  0  0  0  0  0
  -17.1539  -13.9215   27.4961 C   0  0  0  0  0  0  0  0  0  0  0  0
  -22.7875  -14.3707   23.4090 C   0  0  0  0  0  0  0  0  0  0  0  0
  -24.1143  -12.8238   21.8747 C   0  0  0  0  0  0  0  0  0  0  0  0
  -24.7607  -36.5947   18.7814 C   0  0  0  0  0  0  0  0  0  0  0  0
  -25.1746  -29.3540   19.9139 C   0  0  0  0  0  0  0  0  0  0  0  0
  -25.3259  -35.3125   18.6439 C   0  0  0  0  0  0  0  0  0  0  0  0
  -26.0422  -28.9875   20.9527 C   0  0  0  0  0  0  0  0  0  0  0  0
  -30.5695  -20.6867   20.1493 C   0  0  0  0  0  0  0  0  0  0  0  0
  -29.6873  -21.1500   19.1732 C   0  0  0  0  0  0  0  0  0  0  0  0
  -29.3076  -18.6332   20.3152 C   0  0  0  0  0  0  0  0  0  0  0  0
  -20.4466  -15.3248   24.5891 C   0  0  0  0  0  0  0  0  0  0  0  0
  -27.0560  -27.3214   19.5015 C   0  0  0  0  0  0  0  0  0  0  0  0
  -18.4039  -14.8587   25.6532 C   0  0  0  0  0  0  0  0  0  0  0  0
  -16.5883  -12.9816   26.6345 C   0  0  0  0  0  0  0  0  0  0  0  0
  -18.0617  -14.8601   27.0055 C   0  0  0  0  0  0  0  0  0  0  0  0
  -23.9968  -13.8788   22.7993 C   0  0  0  0  0  0  0  0  0  0  0  0
  -25.4591  -12.7519   21.6048 C   0  0  0  0  0  0  0  0  0  0  0  0
  -30.2240  -24.8932   17.3117 C   0  0  0  0  0  0  0  0  0  0  0  0
  -31.0347  -22.7062   17.8922 C   0  0  0  0  0  0  0  0  0  0  0  0
  -29.0714  -24.6955   17.9657 C   0  0  0  0  0  0  0  0  0  0  0  0
  -31.2368  -23.8777   17.2821 C   0  0  0  0  0  0  0  0  0  0  0  0
  -28.8425  -23.3962   18.6982 C   0  0  0  0  0  0  0  0  0  0  0  0
  -23.0987  -11.9839   21.3101 C   0  0  0  0  0  0  0  0  0  0  0  0
  -25.5715  -32.3636   20.8567 C   0  0  0  0  0  0  0  0  0  0  0  0
  -24.5713  -31.1912   23.7111 C   0  0  0  0  0  0  0  0  0  0  0  0
  -24.2212  -28.4947   25.7734 C   0  0  0  0  0  0  0  0  0  0  0  0
  -29.8961  -16.7451   21.8756 C   0  0  0  0  0  0  0  0  0  0  0  0
  -24.8224  -37.3534   20.0834 C   0  0  0  0  0  0  0  0  0  0  0  0
  -24.1374  -30.4220   20.1287 C   0  0  0  0  0  0  0  0  0  0  0  0
  -25.9960  -29.6607   22.2992 C   0  0  0  0  0  0  0  0  0  0  0  0
  -25.1313  -36.4698   21.2892 C   0  0  0  0  0  0  0  0  0  0  0  0
  -29.7288  -13.6283   23.5888 C   0  0  0  0  0  0  0  0  0  0  0  0
  -26.2947  -35.5328   20.9803 C   0  0  0  0  0  0  0  0  0  0  0  0
  -28.2517  -13.2399   23.4914 C   0  0  0  0  0  0  0  0  0  0  0  0
  -29.9084  -15.1347   23.7682 C   0  0  0  0  0  0  0  0  0  0  0  0
  -27.7473  -15.5765   22.6710 C   0  0  0  0  0  0  0  0  0  0  0  0
  -25.9521  -34.5924   19.8184 C   0  0  1  0  0  0  0  0  0  0  0  0
  -24.4989  -31.3885   21.2524 C   0  0  1  0  0  0  0  0  0  0  0  0
  -27.5182  -14.0763   22.4246 C   0  0  2  0  0  0  0  0  0  0  0  0
  -31.7265  -21.5172   20.6016 C   0  0  0  0  0  0  0  0  0  0  0  0
  -23.4040  -27.8551   28.0582 C   0  0  0  0  0  0  0  0  0  0  0  0
  -27.0890  -32.3943   24.9457 C   0  0  0  0  0  0  0  0  0  0  0  0
  -26.7107  -30.9486   26.9544 C   0  0  0  0  0  0  0  0  0  0  0  0
  -25.0187  -32.6689   26.3216 C   0  0  0  0  0  0  0  0  0  0  0  0
  -22.1796  -26.6653   24.6581 C   0  0  0  0  0  0  0  0  0  0  0  0
  -27.9882  -25.7101   18.0213 C   0  0  0  0  0  0  0  0  0  1  0  0
  -25.2505  -30.5818   24.9137 C   0  0  1  0  0  0  0  0  0  0  0  0
  -23.0413  -27.9962   26.5881 C   0  0  2  0  0  0  0  0  0  0  0  0
  -26.0196  -31.6368   25.7579 C   0  0  0  0  0  0  0  0  0  0  0  0
  -25.1732  -14.4369   23.0970 N   0  0  0  0  0  0  0  0  0  0  0  0
  -26.0427  -13.7299   22.3552 N   0  0  0  0  0  0  0  0  0  0  0  0
  -29.8612  -22.4138   18.5862 N   0  0  0  0  0  0  0  0  0  0  0  0
  -24.9686  -30.7032   22.4582 N   0  0  0  0  0  0  0  0  0  0  0  0
  -29.1898  -15.8621   22.7197 N   0  0  0  0  0  0  0  0  0  0  0  0
  -26.1875  -11.9482   20.8012 N   0  0  0  0  0  0  0  0  0  0  0  0
  -21.7677  -12.1934   21.6961 N   0  0  0  0  0  0  0  0  0  0  0  0
  -29.1139  -17.3551   20.8955 N   0  0  0  0  0  0  0  0  0  0  0  0
  -25.0923  -33.5205   20.2724 N   0  0  0  0  0  0  0  0  0  0  0  0
  -24.2131  -29.8680   25.6503 N   0  0  0  0  0  0  0  0  0  0  0  0
  -22.5895  -26.6677   26.0860 N   0  3  0  0  0  0  0  0  0  0  0  0
  -27.7991  -23.2328   19.3333 O   0  0  0  0  0  0  0  0  0  0  0  0
  -23.3655  -11.0638   20.5003 O   0  0  0  0  0  0  0  0  0  0  0  0
  -26.7466  -32.0874   21.0673 O   0  0  0  0  0  0  0  0  0  0  0  0
  -23.7146  -32.0630   23.8776 O   0  0  0  0  0  0  0  0  0  0  0  0
  -25.0676  -27.7415   25.2971 O   0  0  0  0  0  0  0  0  0  0  0  0
  -31.1108  -16.9245   21.9950 O   0  0  0  0  0  0  0  0  0  0  0  0
  -32.3795  -24.1976   16.5903 O   0  0  0  0  0  0  0  0  0  0  0  0
  -19.3044  -15.7903   25.1644 O   0  0  0  0  0  0  0  0  0  0  0  0
  -27.9746  -26.3372   19.3031 O   0  0  0  0  0  0  0  0  0  1  0  0
  -15.7155  -12.0813   27.1052 F   0  0  0  0  0  0  0  0  0  0  0  0
  -18.6010  -15.7613   27.8378 F   0  0  0  0  0  0  0  0  0  0  0  0
  1  2  1  0  0  0  0
  1  5  2  0  0  0  0
  2  6  2  0  0  0  0
  3 10  2  0  0  0  0
  3 18  1  0  0  0  0
  4 11  1  0  0  0  0
  4 18  2  0  0  0  0
  5 20  1  0  0  0  0
  6 22  1  0  0  0  0
  7 12  2  0  0  0  0
  7 21  1  0  0  0  0
  8  9  2  0  0  0  0
  8 25  1  0  0  0  0
  9 26  1  0  0  0  0
 10 27  1  0  0  0  0
 11 27  2  0  0  0  0
 12 28  1  0  0  0  0
 13 14  2  0  0  0  0
 13 29  1  0  0  0  0
 14 30  1  0  0  0  0
 15 23  1  0  0  0  0
 15 28  2  0  0  0  0
 16 24  1  0  0  0  0
 16 26  2  0  0  0  0
 17 30  2  0  0  0  0
 17 31  1  0  0  0  0
 18 32  1  0  0  0  0
 19 32  1  0  0  0  0
 19 33  2  0  0  0  0
 19 39  1  0  0  0  0
 20 22  2  0  0  0  0
 20 44  1  0  0  0  0
 21 23  2  0  0  0  0
 21 45  1  0  0  0  0
 22 53  1  0  0  0  0
 23 46  1  0  0  0  0
 24 25  2  0  0  0  0
 24 56  1  0  0  0  0
 25 68  1  0  0  0  0
 26 73  1  0  0  0  0
 27 84  1  0  0  0  0
 28 85  1  0  0  0  0
 29 31  2  0  0  0  0
 29 84  1  0  0  0  0
 30 86  1  0  0  0  0
 31 87  1  0  0  0  0
 32 66  2  0  0  0  0
 33 67  1  0  0  0  0
 33 71  1  0  0  0  0
 34 36  2  0  0  0  0
 34 37  1  0  0  0  0
 35 37  2  0  0  0  0
 35 68  1  0  0  0  0
 36 38  1  0  0  0  0
 36 62  1  0  0  0  0
 37 83  1  0  0  0  0
 38 68  1  0  0  0  0
 38 77  2  0  0  0  0
 39 72  1  0  0  0  0
 39 78  2  0  0  0  0
 40 54  1  0  0  0  0
 40 74  1  0  0  0  0
 40 79  2  0  0  0  0
 41 63  1  0  0  0  0
 41 69  1  0  0  0  0
 41 80  2  0  0  0  0
 42 64  1  0  0  0  0
 42 75  1  0  0  0  0
 42 81  2  0  0  0  0
 43 70  1  0  0  0  0
 43 73  1  0  0  0  0
 43 82  2  0  0  0  0
 44 47  1  0  0  0  0
 45 54  1  0  0  0  0
 46 69  1  0  0  0  0
 47 49  1  0  0  0  0
 48 50  1  0  0  0  0
 48 51  1  0  0  0  0
 49 53  1  0  0  0  0
 50 55  1  0  0  0  0
 51 70  1  0  0  0  0
 52 55  1  0  0  0  0
 52 70  1  0  0  0  0
 53 74  1  0  0  0  0
 54 69  1  0  0  0  0
 55 67  1  0  0  0  0
 57 64  1  0  0  0  0
 58 65  1  0  0  0  0
 59 65  1  0  0  0  0
 60 65  1  0  0  0  0
 61 76  1  0  0  0  0
 62 85  1  0  0  0  0
 63 65  1  0  0  0  0
 63 75  1  0  0  0  0
 64 76  1  0  0  0  0
 66 67  1  0  0  0  0
M  CHG  1  76   1
M  ISO  4  43 100  62 101  73 100  85 101
M  END
> <Batch ID>
0086

> <Smiles>
CNC(C)C(=O)NC(C(=O)N1Cc2cc([101O:1][101CH2:1]C3=CC(=O)CN(c4ccc([100NH:0][100C:0](=O)N5CCCC(n6nc(-c7ccc(Oc8ccc(F)cc8F)cc7)c(C(N)=O)c6N)C5)cc4C)C3=O)ccc2CC1C(=O)NC1CCCc2ccccc21)C(C)(C)C

> <Shape>
0.226

> <Color>
0.097

> <Negative vol penalty>
0.000

$$$$

  -OEChem-04052300173D

 83 91  0     1  0  0  0  0  0999 V2000
  -17.7190  -26.0003   23.0970 C   0  0  0  0  0  0  0  0  0  0  0  0
  -18.9861  -25.6526   22.6400 C   0  0  0  0  0  0  0  0  0  0  0  0
  -23.2347  -13.2530   21.7838 C   0  0  0  0  0  0  0  0  0  0  0  0
  -23.2431  -13.8798   19.4505 C   0  0  0  0  0  0  0  0  0  0  0  0
  -27.3671  -23.8952   18.1936 C   0  0  0  0  0  0  0  0  0  0  0  0
  -25.4476  -25.3409   18.4434 C   0  0  0  0  0  0  0  0  0  0  0  0
  -17.2985  -27.3284   23.0393 C   0  0  0  0  0  0  0  0  0  0  0  0
  -19.8332  -26.6327   22.1240 C   0  0  0  0  0  0  0  0  0  0  0  0
  -25.9324  -26.8638   22.6266 C   0  0  0  0  0  0  0  0  0  0  0  0
  -26.7621  -22.9489   19.0206 C   0  0  0  0  0  0  0  0  0  0  0  0
  -24.8425  -24.3946   19.2704 C   0  0  0  0  0  0  0  0  0  0  0  0
  -22.6764  -12.0191   21.4504 C   0  0  0  0  0  0  0  0  0  0  0  0
  -22.6848  -12.6458   19.1171 C   0  0  0  0  0  0  0  0  0  0  0  0
  -26.9596  -26.4964   21.7586 C   0  0  0  0  0  0  0  0  0  0  0  0
  -21.5830   -8.5630   21.1769 C   0  0  0  0  0  0  0  0  0  0  0  0
  -22.1196   -7.4246   21.7783 C   0  0  0  0  0  0  0  0  0  0  0  0
  -27.1184  -28.7777   20.9905 C   0  0  0  0  0  0  0  0  0  0  0  0
  -24.2720   -7.9225   20.8004 C   0  0  0  0  0  0  0  0  0  0  0  0
  -23.5180  -14.1834   20.7839 C   0  0  0  0  0  0  0  0  0  0  0  0
  -26.7100  -25.0913   17.9050 C   0  0  0  0  0  0  0  0  0  0  0  0
  -25.4627  -15.7764   21.2179 C   0  0  0  0  0  0  0  0  0  0  0  0
  -18.1445  -28.3268   22.5313 C   0  0  0  0  0  0  0  0  0  0  0  0
  -25.4822  -28.1910   22.6753 C   0  0  0  0  0  0  0  0  0  0  0  0
  -19.4231  -27.9752   22.0582 C   0  0  0  0  0  0  0  0  0  0  0  0
  -26.0870  -29.1598   21.8619 C   0  0  0  0  0  0  0  0  0  0  0  0
  -25.4997  -23.1985   19.5589 C   0  0  0  0  0  0  0  0  0  0  0  0
  -22.4014  -11.7154   20.1170 C   0  0  0  0  0  0  0  0  0  0  0  0
  -27.5509  -27.4528   20.9383 C   0  0  0  0  0  0  0  0  0  0  0  0
  -22.3909   -9.3811   20.3871 C   0  0  0  0  0  0  0  0  0  0  0  0
  -23.4641   -7.1043   21.5901 C   0  0  0  0  0  0  0  0  0  0  0  0
  -23.7354   -9.0608   20.1989 C   0  0  0  0  0  0  0  0  0  0  0  0
  -24.0942  -15.4585   21.1278 C   0  0  0  0  0  0  0  0  0  0  0  0
  -25.4843  -17.1029   21.5734 C   0  0  0  0  0  0  0  0  0  0  0  0
  -27.3555  -26.1008   17.0230 C   0  0  0  0  0  0  0  0  0  0  0  0
  -26.6115  -14.9469   20.9996 C   0  0  0  0  0  0  0  0  0  0  0  0
  -22.7189  -29.6456   22.0819 C   0  0  0  0  0  0  0  0  0  0  0  0
  -29.3406  -26.9637   17.8400 C   0  0  0  0  0  0  0  0  0  0  0  0
  -24.2853  -32.2425   23.2330 C   0  0  0  0  0  0  0  0  0  0  0  0
  -27.2619  -33.8020   23.8285 C   0  0  0  0  0  0  0  0  0  0  0  0
  -23.6380  -22.3262   21.0147 C   0  0  0  0  0  0  0  0  0  0  0  0
  -17.6281  -29.7412   22.4453 C   0  0  0  0  0  0  0  0  0  0  0  0
  -24.3912  -28.5765   23.6364 C   0  0  0  0  0  0  0  0  0  0  0  0
  -25.6540  -30.6021   21.8908 C   0  0  0  0  0  0  0  0  0  0  0  0
  -18.7270  -30.7788   22.2307 C   0  0  0  0  0  0  0  0  0  0  0  0
  -21.7587  -20.1588   23.1237 C   0  0  0  0  0  0  0  0  0  0  0  0
  -19.6827  -30.3248   21.1320 C   0  0  0  0  0  0  0  0  0  0  0  0
  -22.3114  -18.7689   22.7999 C   0  0  0  0  0  0  0  0  0  0  0  0
  -21.6926  -21.0463   21.8821 C   0  0  0  0  0  0  0  0  0  0  0  0
  -23.5016  -19.7662   20.8060 C   0  0  0  0  0  0  0  0  0  0  0  0
  -20.3802  -29.0138   21.5145 C   0  0  1  0  0  0  0  0  0  0  0  0
  -23.6629  -29.8546   23.2321 C   0  0  1  0  0  0  0  0  0  0  0  0
  -23.6479  -18.8575   22.0374 C   0  0  2  0  0  0  0  0  0  0  0  0
  -30.8497  -26.9824   17.7978 C   0  0  0  0  0  0  0  0  0  0  0  0
  -28.2210  -35.9323   24.7446 C   0  0  0  0  0  0  0  0  0  0  0  0
  -23.5081  -33.6942   20.6643 C   0  0  0  0  0  0  0  0  0  0  0  0
  -25.2448  -35.4176   21.1952 C   0  0  0  0  0  0  0  0  0  0  0  0
  -23.3174  -35.0743   22.7411 C   0  0  0  0  0  0  0  0  0  0  0  0
  -28.7111  -32.3642   25.9713 C   0  0  0  0  0  0  0  0  0  0  0  0
  -28.6752  -27.8426   18.8792 C   0  0  0  0  0  0  0  0  0  1  0  0
  -25.1426  -33.3285   22.6291 C   0  0  1  0  0  0  0  0  0  0  0  0
  -27.8019  -34.5051   25.0609 C   0  0  2  0  0  0  0  0  0  0  0  0
  -24.3103  -34.3512   21.8052 C   0  0  0  0  0  0  0  0  0  0  0  0
  -23.3038  -16.4992   21.4039 N   0  0  0  0  0  0  0  0  0  0  0  0
  -28.7250  -26.1759   17.0096 N   0  0  0  0  0  0  0  0  0  0  0  0
  -24.1784  -17.4840   21.6712 N   0  0  0  0  0  0  0  0  0  0  0  0
  -24.5793  -30.9283   22.8427 N   0  0  0  0  0  0  0  0  0  0  0  0
  -22.9953  -21.0860   21.2140 N   0  0  0  0  0  0  0  0  0  0  0  0
  -26.4928  -17.9689   21.8089 N   0  0  0  0  0  0  0  0  0  0  0  0
  -26.4098  -13.6074   20.6399 N   0  0  0  0  0  0  0  0  0  0  0  0
  -24.8859  -22.2364   20.3988 N   0  0  0  0  0  0  0  0  0  0  0  0
  -21.4456  -29.2656   22.4611 N   0  0  0  0  0  0  0  0  0  0  0  0
  -25.8913  -33.9189   23.7333 N   0  0  0  0  0  0  0  0  0  0  0  0
  -26.6783  -26.8594   16.2353 N   0  3  0  0  0  0  0  0  0  0  0  0
  -28.9857  -33.7753   25.5965 N   0  3  0  0  0  0  0  0  0  0  0  0
  -27.7822  -15.3763   21.1361 O   0  0  0  0  0  0  0  0  0  0  0  0
  -23.1159  -29.8179   20.9355 O   0  0  0  0  0  0  0  0  0  0  0  0
  -23.3926  -32.5483   24.0274 O   0  0  0  0  0  0  0  0  0  0  0  0
  -27.9842  -33.2116   23.0284 O   0  0  0  0  0  0  0  0  0  0  0  0
  -23.1318  -23.3871   21.3893 O   0  0  0  0  0  0  0  0  0  0  0  0
  -21.8569  -10.5113   19.7912 O   0  0  0  0  0  0  0  0  0  0  0  0
  -28.5533  -27.0967   20.0896 O   0  0  0  0  0  0  0  0  0  1  0  0
  -23.9796   -6.0120   22.1691 F   0  0  0  0  0  0  0  0  0  0  0  0
  -24.5167   -9.8436   19.4422 F   0  0  0  0  0  0  0  0  0  0  0  0
  1  2  1  0  0  0  0
  1  7  2  0  0  0  0
  2  8  2  0  0  0  0
  3 12  2  0  0  0  0
  3 19  1  0  0  0  0
  4 13  1  0  0  0  0
  4 19  2  0  0  0  0
  5 10  2  0  0  0  0
  5 20  1  0  0  0  0
  6 11  1  0  0  0  0
  6 20  2  0  0  0  0
  7 22  1  0  0  0  0
  8 24  1  0  0  0  0
  9 14  2  0  0  0  0
  9 23  1  0  0  0  0
 10 26  1  0  0  0  0
 11 26  2  0  0  0  0
 12 27  1  0  0  0  0
 13 27  2  0  0  0  0
 14 28  1  0  0  0  0
 15 16  2  0  0  0  0
 15 29  1  0  0  0  0
 16 30  1  0  0  0  0
 17 25  1  0  0  0  0
 17 28  2  0  0  0  0
 18 30  2  0  0  0  0
 18 31  1  0  0  0  0
 19 32  1  0  0  0  0
 20 34  1  0  0  0  0
 21 32  1  0  0  0  0
 21 33  2  0  0  0  0
 21 35  1  0  0  0  0
 22 24  2  0  0  0  0
 22 41  1  0  0  0  0
 23 25  2  0  0  0  0
 23 42  1  0  0  0  0
 24 50  1  0  0  0  0
 25 43  1  0  0  0  0
 26 70  1  0  0  0  0
 27 80  1  0  0  0  0
 28 81  1  0  0  0  0
 29 31  2  0  0  0  0
 29 80  1  0  0  0  0
 30 82  1  0  0  0  0
 31 83  1  0  0  0  0
 32 63  2  0  0  0  0
 33 65  1  0  0  0  0
 33 68  1  0  0  0  0
 34 64  1  0  0  0  0
 34 73  2  0  0  0  0
 35 69  1  0  0  0  0
 35 75  2  0  0  0  0
 36 51  1  0  0  0  0
 36 71  1  0  0  0  0
 36 76  2  0  0  0  0
 37 53  1  0  0  0  0
 37 59  1  0  0  0  0
 37 64  2  0  0  0  0
 38 60  1  0  0  0  0
 38 66  1  0  0  0  0
 38 77  2  0  0  0  0
 39 61  1  0  0  0  0
 39 72  1  0  0  0  0
 39 78  2  0  0  0  0
 40 67  1  0  0  0  0
 40 70  1  0  0  0  0
 40 79  2  0  0  0  0
 41 44  1  0  0  0  0
 42 51  1  0  0  0  0
 43 66  1  0  0  0  0
 44 46  1  0  0  0  0
 45 47  1  0  0  0  0
 45 48  1  0  0  0  0
 46 50  1  0  0  0  0
 47 52  1  0  0  0  0
 48 67  1  0  0  0  0
 49 52  1  0  0  0  0
 49 67  1  0  0  0  0
 50 71  1  0  0  0  0
 51 66  1  0  0  0  0
 52 65  1  0  0  0  0
 54 61  1  0  0  0  0
 55 62  1  0  0  0  0
 56 62  1  0  0  0  0
 57 62  1  0  0  0  0
 58 74  1  0  0  0  0
 59 81  1  0  0  0  0
 60 62  1  0  0  0  0
 60 72  1  0  0  0  0
 61 74  1  0  0  0  0
 63 65  1  0  0  0  0
M  CHG  2  73   1  74   1
M  ISO  4  40 100  59 101  70 100  81 101
M  END
> <Batch ID>
0086

> <Smiles>
CNC(C)C(=O)NC(C(=O)N1Cc2cc([101O:1][101CH2:1]C(C)=NC(=N)c3ccc([100NH:0][100C:0](=O)N4CCCC(n5nc(-c6ccc(Oc7ccc(F)cc7F)cc6)c(C(N)=O)c5N)C4)cc3)ccc2CC1C(=O)NC1CCCc2ccccc21)C(C)(C)C

> <Shape>
0.243

> <Color>
0.080

> <Negative vol penalty>
0.000

$$$$

  -OEChem-04052300173D

 87 96  0     1  0  0  0  0  0999 V2000
  -16.9742  -28.2999   23.5092 C   0  0  0  0  0  0  0  0  0  0  0  0
  -17.8529  -28.1324   22.4437 C   0  0  0  0  0  0  0  0  0  0  0  0
  -25.9673  -11.9950   20.9947 C   0  0  0  0  0  0  0  0  0  0  0  0
  -27.7135  -12.0813   22.6621 C   0  0  0  0  0  0  0  0  0  0  0  0
  -29.1870  -21.4794   15.8246 C   0  0  0  0  0  0  0  0  0  0  0  0
  -17.0702  -29.4306   24.3193 C   0  0  0  0  0  0  0  0  0  0  0  0
  -18.8275  -29.0962   22.1870 C   0  0  0  0  0  0  0  0  0  0  0  0
  -23.4460  -27.0336   21.2349 C   0  0  0  0  0  0  0  0  0  0  0  0
  -29.7227  -20.4899   16.6488 C   0  0  0  0  0  0  0  0  0  0  0  0
  -25.0376  -11.6771   21.9847 C   0  0  0  0  0  0  0  0  0  0  0  0
  -26.7837  -11.7634   23.6522 C   0  0  0  0  0  0  0  0  0  0  0  0
  -23.6813  -26.4899   19.9728 C   0  0  0  0  0  0  0  0  0  0  0  0
  -24.1098   -8.9446   23.7446 C   0  0  0  0  0  0  0  0  0  0  0  0
  -23.2072   -7.9151   23.4784 C   0  0  0  0  0  0  0  0  0  0  0  0
  -27.1126  -20.2477   15.6940 C   0  0  0  0  0  0  0  0  0  0  0  0
  -24.7918  -28.5259   19.3096 C   0  0  0  0  0  0  0  0  0  0  0  0
  -21.3675   -9.4565   23.7555 C   0  0  0  0  0  0  0  0  0  0  0  0
  -27.3052  -12.1971   21.3334 C   0  0  0  0  0  0  0  0  0  0  0  0
  -27.8819  -21.3583   15.3472 C   0  0  0  0  0  0  0  0  0  0  0  0
  -28.6052  -11.7527   19.1839 C   0  0  0  0  0  0  0  0  0  0  0  0
  -18.0525  -30.4040   24.0783 C   0  0  0  0  0  0  0  0  0  0  0  0
  -23.8733  -28.3336   21.5415 C   0  0  0  0  0  0  0  0  0  0  0  0
  -18.9358  -30.2416   22.9939 C   0  0  0  0  0  0  0  0  0  0  0  0
  -24.5648  -29.0818   20.5778 C   0  0  0  0  0  0  0  0  0  0  0  0
  -28.9535  -19.3792   16.9956 C   0  0  0  0  0  0  0  0  0  0  0  0
  -25.4458  -11.5613   23.3134 C   0  0  0  0  0  0  0  0  0  0  0  0
  -24.3523  -27.2370   19.0093 C   0  0  0  0  0  0  0  0  0  0  0  0
  -23.6413  -10.2301   24.0164 C   0  0  0  0  0  0  0  0  0  0  0  0
  -21.8360   -8.1710   23.4838 C   0  0  0  0  0  0  0  0  0  0  0  0
  -27.6484  -19.2581   16.5183 C   0  0  0  0  0  0  0  0  0  0  0  0
  -22.2702  -10.4860   24.0218 C   0  0  0  0  0  0  0  0  0  0  0  0
  -28.2662  -12.5250   20.3110 C   0  0  0  0  0  0  0  0  0  0  0  0
  -29.5579  -12.4968   18.5318 C   0  0  0  0  0  0  0  0  0  0  0  0
  -25.6166  -24.9599   16.5418 C   0  0  0  0  0  0  0  0  0  0  0  0
  -26.4263  -23.7176   16.4732 C   0  0  0  0  0  0  0  0  0  0  0  0
  -25.3275  -25.5649   17.6964 C   0  0  0  0  0  0  0  0  0  1  0  0
  -27.3180  -22.4002   14.4792 C   0  0  0  0  0  0  0  0  0  0  0  0
  -28.1037  -10.4769   18.7638 C   0  0  0  0  0  0  0  0  0  0  0  0
  -22.4896  -31.0803   22.4286 C   0  0  0  0  0  0  0  0  0  0  0  0
  -25.6748  -31.9986   22.6835 C   0  0  0  0  0  0  0  0  0  0  0  0
  -24.6827  -34.7870   24.3807 C   0  0  0  0  0  0  0  0  0  0  0  0
  -30.7788  -18.3444   18.3898 C   0  0  0  0  0  0  0  0  0  0  0  0
  -18.0870  -31.6325   24.9525 C   0  0  0  0  0  0  0  0  0  0  0  0
  -23.6361  -28.8903   22.9193 C   0  0  0  0  0  0  0  0  0  0  0  0
  -25.0469  -30.4794   20.8587 C   0  0  0  0  0  0  0  0  0  0  0  0
  -25.2191  -25.3970   15.1745 C   0  0  0  0  0  0  0  0  0  0  0  0
  -19.3880  -32.4232   24.8407 C   0  0  0  0  0  0  0  0  0  0  0  0
  -32.9945  -15.7293   19.3535 C   0  0  0  0  0  0  0  0  0  0  0  0
  -19.7777  -32.6059   23.3773 C   0  0  0  0  0  0  0  0  0  0  0  0
  -32.0649  -14.5388   19.6000 C   0  0  0  0  0  0  0  0  0  0  0  0
  -26.0295  -24.4910   14.2672 C   0  0  0  0  0  0  0  0  0  0  0  0
  -32.3605  -17.0458   19.7993 C   0  0  0  0  0  0  0  0  0  0  0  0
  -30.0978  -16.1217   19.4905 C   0  0  0  0  0  0  0  0  0  0  0  0
  -20.0222  -31.2528   22.6984 C   0  0  1  0  0  0  0  0  0  0  0  0
  -23.7165  -30.4141   22.9839 C   0  0  1  0  0  0  0  0  0  0  0  0
  -30.6670  -14.7813   18.9977 C   0  0  2  0  0  0  0  0  0  0  0  0
  -25.5929  -36.7187   25.6987 C   0  0  0  0  0  0  0  0  0  0  0  0
  -26.1449  -30.1489   25.0633 C   0  0  0  0  0  0  0  0  0  0  0  0
  -26.1149  -32.1656   26.5466 C   0  0  0  0  0  0  0  0  0  0  0  0
  -27.8634  -31.9439   24.7813 C   0  0  0  0  0  0  0  0  0  0  0  0
  -23.5822  -36.7601   22.4689 C   0  0  0  0  0  0  0  0  0  0  0  0
  -25.4803  -32.4538   24.1083 C   0  0  1  0  0  0  0  0  0  0  0  0
  -25.1655  -36.2252   24.3253 C   0  0  2  0  0  0  0  0  0  0  0  0
  -26.3787  -31.6722   25.1080 C   0  0  0  0  0  0  0  0  0  0  0  0
  -28.9482  -13.6717   20.3745 N   0  0  0  0  0  0  0  0  0  0  0  0
  -29.7253  -13.6254   19.2791 N   0  0  0  0  0  0  0  0  0  0  0  0
  -26.6444  -23.4693   15.0989 N   0  0  0  0  0  0  0  0  0  0  0  0
  -24.8665  -30.9440   22.2403 N   0  0  0  0  0  0  0  0  0  0  0  0
  -31.0407  -17.2093   19.1859 N   0  0  0  0  0  0  0  0  0  0  0  0
  -30.2604  -12.2892   17.3979 N   0  0  0  0  0  0  0  0  0  0  0  0
  -27.1270   -9.8510   19.5503 N   0  0  0  0  0  0  0  0  0  0  0  0
  -29.5008  -18.3754   17.8326 N   0  0  0  0  0  0  0  0  0  0  0  0
  -21.3182  -30.7274   23.0709 N   0  0  0  0  0  0  0  0  0  0  0  0
  -25.6995  -33.8961   24.1095 N   0  0  0  0  0  0  0  0  0  0  0  0
  -24.0821  -37.1162   23.8218 N   0  3  0  0  0  0  0  0  0  0  0  0
  -26.7853  -23.0746   17.4459 O   0  0  0  0  0  0  0  0  0  0  0  0
  -27.4623  -22.2614   13.2661 O   0  0  0  0  0  0  0  0  0  0  0  0
  -28.5216   -9.9012   17.7306 O   0  0  0  0  0  0  0  0  0  0  0  0
  -22.5979  -31.8583   21.4879 O   0  0  0  0  0  0  0  0  0  0  0  0
  -26.5245  -32.5559   21.9832 O   0  0  0  0  0  0  0  0  0  0  0  0
  -23.5206  -34.4841   24.6423 O   0  0  0  0  0  0  0  0  0  0  0  0
  -31.6349  -19.2107   18.1931 O   0  0  0  0  0  0  0  0  0  0  0  0
  -24.5388  -11.2513   24.2798 O   0  0  0  0  0  0  0  0  0  0  0  0
  -24.5838  -26.7086   17.7767 O   0  0  0  0  0  0  0  0  0  1  0  0
  -20.9694   -7.1826   23.2265 F   0  0  0  0  0  0  0  0  0  0  0  0
  -26.8997  -18.1946   16.8445 F   0  0  0  0  0  0  0  0  0  0  0  0
  -21.8141  -11.7191   24.2810 F   0  0  0  0  0  0  0  0  0  0  0  0
  1  2  1  0  0  0  0
  1  6  2  0  0  0  0
  2  7  2  0  0  0  0
  3 10  2  0  0  0  0
  3 18  1  0  0  0  0
  4 11  1  0  0  0  0
  4 18  2  0  0  0  0
  5  9  2  0  0  0  0
  5 19  1  0  0  0  0
  6 21  1  0  0  0  0
  7 23  1  0  0  0  0
  8 12  2  0  0  0  0
  8 22  1  0  0  0  0
  9 25  1  0  0  0  0
 10 26  1  0  0  0  0
 11 26  2  0  0  0  0
 12 27  1  0  0  0  0
 13 14  2  0  0  0  0
 13 28  1  0  0  0  0
 14 29  1  0  0  0  0
 15 19  2  0  0  0  0
 15 30  1  0  0  0  0
 16 24  1  0  0  0  0
 16 27  2  0  0  0  0
 17 29  2  0  0  0  0
 17 31  1  0  0  0  0
 18 32  1  0  0  0  0
 19 37  1  0  0  0  0
 20 32  1  0  0  0  0
 20 33  2  0  0  0  0
 20 38  1  0  0  0  0
 21 23  2  0  0  0  0
 21 43  1  0  0  0  0
 22 24  2  0  0  0  0
 22 44  1  0  0  0  0
 23 54  1  0  0  0  0
 24 45  1  0  0  0  0
 25 30  2  0  0  0  0
 25 72  1  0  0  0  0
 26 83  1  0  0  0  0
 27 84  1  0  0  0  0
 28 31  2  0  0  0  0
 28 83  1  0  0  0  0
 29 85  1  0  0  0  0
 30 86  1  0  0  0  0
 31 87  1  0  0  0  0
 32 65  2  0  0  0  0
 33 66  1  0  0  0  0
 33 70  1  0  0  0  0
 34 35  1  0  0  0  0
 34 36  2  0  0  0  0
 34 46  1  0  0  0  0
 35 67  1  0  0  0  0
 35 76  2  0  0  0  0
 36 84  1  0  0  0  0
 37 67  1  0  0  0  0
 37 77  2  0  0  0  0
 38 71  1  0  0  0  0
 38 78  2  0  0  0  0
 39 55  1  0  0  0  0
 39 73  1  0  0  0  0
 39 79  2  0  0  0  0
 40 62  1  0  0  0  0
 40 68  1  0  0  0  0
 40 80  2  0  0  0  0
 41 63  1  0  0  0  0
 41 74  1  0  0  0  0
 41 81  2  0  0  0  0
 42 69  1  0  0  0  0
 42 72  1  0  0  0  0
 42 82  2  0  0  0  0
 43 47  1  0  0  0  0
 44 55  1  0  0  0  0
 45 68  1  0  0  0  0
 46 51  1  0  0  0  0
 47 49  1  0  0  0  0
 48 50  1  0  0  0  0
 48 52  1  0  0  0  0
 49 54  1  0  0  0  0
 50 56  1  0  0  0  0
 51 67  1  0  0  0  0
 52 69  1  0  0  0  0
 53 56  1  0  0  0  0
 53 69  1  0  0  0  0
 54 73  1  0  0  0  0
 55 68  1  0  0  0  0
 56 66  1  0  0  0  0
 57 63  1  0  0  0  0
 58 64  1  0  0  0  0
 59 64  1  0  0  0  0
 60 64  1  0  0  0  0
 61 75  1  0  0  0  0
 62 64  1  0  0  0  0
 62 74  1  0  0  0  0
 63 75  1  0  0  0  0
 65 66  1  0  0  0  0
M  CHG  1  75   1
M  ISO  4  36 101  42 100  72 100  84 101
M  END
> <Batch ID>
0086

> <Smiles>
CNC(C)C(=O)NC(C(=O)N1Cc2cc([101O:1][101CH:1]=C3CCN(C(=O)c4ccc([100NH:0][100C:0](=O)N5CCCC(n6nc(-c7ccc(Oc8ccc(F)cc8F)cc7)c(C(N)=O)c6N)C5)c(F)c4)C3=O)ccc2CC1C(=O)NC1CCCc2ccccc21)C(C)(C)C

> <Shape>
0.268

> <Color>
0.083

> <Negative vol penalty>
0.000

$$$$

  -OEChem-04052300173D

 83 91  0     1  0  0  0  0  0999 V2000
  -16.6220  -28.0476   23.6655 C   0  0  0  0  0  0  0  0  0  0  0  0
  -17.5553  -27.5543   22.7594 C   0  0  0  0  0  0  0  0  0  0  0  0
  -23.8142  -13.3473   24.6198 C   0  0  0  0  0  0  0  0  0  0  0  0
  -23.1004  -15.4664   23.7050 C   0  0  0  0  0  0  0  0  0  0  0  0
  -30.6184  -21.2318   19.4987 C   0  0  0  0  0  0  0  0  0  0  0  0
  -16.9471  -29.1330   24.4779 C   0  0  0  0  0  0  0  0  0  0  0  0
  -18.8140  -28.1469   22.6645 C   0  0  0  0  0  0  0  0  0  0  0  0
  -24.1253  -25.3389   21.4767 C   0  0  0  0  0  0  0  0  0  0  0  0
  -30.4590  -19.8556   19.6605 C   0  0  0  0  0  0  0  0  0  0  0  0
  -23.0729  -13.5962   25.7748 C   0  0  0  0  0  0  0  0  0  0  0  0
  -22.3589  -15.7153   24.8600 C   0  0  0  0  0  0  0  0  0  0  0  0
  -24.8672  -25.1919   20.3055 C   0  0  0  0  0  0  0  0  0  0  0  0
  -19.8366  -13.4337   26.7407 C   0  0  0  0  0  0  0  0  0  0  0  0
  -19.0552  -12.3946   27.2459 C   0  0  0  0  0  0  0  0  0  0  0  0
  -28.2515  -21.4556   19.0692 C   0  0  0  0  0  0  0  0  0  0  0  0
  -26.2191  -27.0894   20.9310 C   0  0  0  0  0  0  0  0  0  0  0  0
  -20.2946  -12.4702   29.3184 C   0  0  0  0  0  0  0  0  0  0  0  0
  -23.8280  -14.2825   23.5849 C   0  0  0  0  0  0  0  0  0  0  0  0
  -29.5147  -22.0318   19.2031 C   0  0  0  0  0  0  0  0  0  0  0  0
  -24.1556  -13.3744   21.2236 C   0  0  0  0  0  0  0  0  0  0  0  0
  -18.2137  -29.7332   24.3997 C   0  0  0  0  0  0  0  0  0  0  0  0
  -24.4182  -26.3706   22.3801 C   0  0  0  0  0  0  0  0  0  0  0  0
  -19.1558  -29.2423   23.4756 C   0  0  0  0  0  0  0  0  0  0  0  0
  -25.4810  -27.2457   22.1141 C   0  0  0  0  0  0  0  0  0  0  0  0
  -29.1958  -19.2794   19.5266 C   0  0  0  0  0  0  0  0  0  0  0  0
  -22.3452  -14.7801   25.8949 C   0  0  0  0  0  0  0  0  0  0  0  0
  -25.9124  -26.0690   20.0310 C   0  0  0  0  0  0  0  0  0  0  0  0
  -20.8471  -13.9911   27.5244 C   0  0  0  0  0  0  0  0  0  0  0  0
  -19.2842  -11.9129   28.5347 C   0  0  0  0  0  0  0  0  0  0  0  0
  -28.0920  -20.0794   19.2310 C   0  0  0  0  0  0  0  0  0  0  0  0
  -21.0760  -13.5093   28.8132 C   0  0  0  0  0  0  0  0  0  0  0  0
  -24.5941  -14.0262   22.3918 C   0  0  0  0  0  0  0  0  0  0  0  0
  -25.2495  -13.3853   20.3931 C   0  0  0  0  0  0  0  0  0  0  0  0
  -29.6847  -23.4976   19.0306 C   0  0  0  0  0  0  0  0  0  0  0  0
  -22.8740  -12.8096   20.9166 C   0  0  0  0  0  0  0  0  0  0  0  0
  -22.8337  -28.8880   23.5007 C   0  0  0  0  0  0  0  0  0  0  0  0
  -25.4402  -29.1894   25.4079 C   0  0  0  0  0  0  0  0  0  0  0  0
  -28.7543  -28.5462   25.9078 C   0  0  0  0  0  0  0  0  0  0  0  0
  -30.0300  -16.9470   19.9856 C   0  0  0  0  0  0  0  0  0  0  0  0
  -18.5026  -30.9342   25.2650 C   0  0  0  0  0  0  0  0  0  0  0  0
  -23.6256  -26.4993   23.6519 C   0  0  0  0  0  0  0  0  0  0  0  0
  -25.8489  -28.3574   23.0614 C   0  0  0  0  0  0  0  0  0  0  0  0
  -19.9887  -31.2681   25.3670 C   0  0  0  0  0  0  0  0  0  0  0  0
  -30.0370  -13.4248   20.5064 C   0  0  0  0  0  0  0  0  0  0  0  0
  -20.6384  -31.2388   23.9872 C   0  0  0  0  0  0  0  0  0  0  0  0
  -28.6005  -13.1192   20.9368 C   0  0  0  0  0  0  0  0  0  0  0  0
  -30.5231  -14.7623   21.0620 C   0  0  0  0  0  0  0  0  0  0  0  0
  -28.2115  -15.6014   21.2094 C   0  0  0  0  0  0  0  0  0  0  0  0
  -20.5402  -29.8426   23.3607 C   0  0  1  0  0  0  0  0  0  0  0  0
  -23.6817  -27.9008   24.2518 C   0  0  1  0  0  0  0  0  0  0  0  0
  -27.6552  -14.2947   20.6205 C   0  0  2  0  0  0  0  0  0  0  0  0
  -30.6152  -28.9524   27.5417 C   0  0  0  0  0  0  0  0  0  0  0  0
  -25.6706  -32.0691   24.4260 C   0  0  0  0  0  0  0  0  0  0  0  0
  -28.0111  -32.1111   25.3141 C   0  0  0  0  0  0  0  0  0  0  0  0
  -26.0939  -31.7639   26.8718 C   0  0  0  0  0  0  0  0  0  0  0  0
  -29.1314  -25.6484   26.3762 C   0  0  0  0  0  0  0  0  0  0  0  0
  -28.8052  -25.5368   17.9241 C   0  0  0  0  0  0  0  0  0  0  0  0
  -28.0028  -26.3422   18.9303 C   0  0  0  0  0  0  0  0  0  1  0  0
  -26.7671  -29.9013   25.3003 C   0  0  1  0  0  0  0  0  0  0  0  0
  -29.5052  -28.0060   27.1115 C   0  0  2  0  0  0  0  0  0  0  0  0
  -26.6277  -31.4417   25.4591 C   0  0  0  0  0  0  0  0  0  0  0  0
  -25.8674  -14.4223   22.3142 N   0  0  0  0  0  0  0  0  0  0  0  0
  -26.2383  -14.0181   21.0874 N   0  0  0  0  0  0  0  0  0  0  0  0
  -25.0403  -28.4459   24.2885 N   0  0  0  0  0  0  0  0  0  0  0  0
  -29.5802  -15.8293   20.7199 N   0  0  0  0  0  0  0  0  0  0  0  0
  -25.4525  -12.9153   19.1440 N   0  0  0  0  0  0  0  0  0  0  0  0
  -21.8618  -12.8850   21.8831 N   0  0  0  0  0  0  0  0  0  0  0  0
  -29.0373  -17.8809   19.6910 N   0  0  0  0  0  0  0  0  0  0  0  0
  -28.7585  -24.1270   18.2083 N   0  0  0  0  0  0  0  0  0  0  0  0
  -21.5262  -28.9571   23.9424 N   0  0  0  0  0  0  0  0  0  0  0  0
  -27.6464  -29.2765   26.2826 N   0  0  0  0  0  0  0  0  0  0  0  0
  -30.1128  -26.6833   26.7921 N   0  3  0  0  0  0  0  0  0  0  0  0
  -30.6205  -24.0630   19.5901 O   0  0  0  0  0  0  0  0  0  0  0  0
  -22.6385  -12.2400   19.8241 O   0  0  0  0  0  0  0  0  0  0  0  0
  -23.3293  -29.5398   22.5890 O   0  0  0  0  0  0  0  0  0  0  0  0
  -24.7862  -29.2834   26.4496 O   0  0  0  0  0  0  0  0  0  0  0  0
  -29.1166  -28.3439   24.7510 O   0  0  0  0  0  0  0  0  0  0  0  0
  -31.2035  -17.0537   19.6200 O   0  0  0  0  0  0  0  0  0  0  0  0
  -21.6215  -15.0232   27.0217 O   0  0  0  0  0  0  0  0  0  0  0  0
  -26.6378  -25.9282   18.8883 O   0  0  0  0  0  0  0  0  0  1  0  0
  -18.5327  -10.9160   29.0203 F   0  0  0  0  0  0  0  0  0  0  0  0
  -26.8730  -19.5365   19.0994 F   0  0  0  0  0  0  0  0  0  0  0  0
  -22.0445  -14.0415   29.5712 F   0  0  0  0  0  0  0  0  0  0  0  0
  1  2  1  0  0  0  0
  1  6  2  0  0  0  0
  2  7  2  0  0  0  0
  3 10  2  0  0  0  0
  3 18  1  0  0  0  0
  4 11  1  0  0  0  0
  4 18  2  0  0  0  0
  5  9  2  0  0  0  0
  5 19  1  0  0  0  0
  6 21  1  0  0  0  0
  7 23  1  0  0  0  0
  8 12  2  0  0  0  0
  8 22  1  0  0  0  0
  9 25  1  0  0  0  0
 10 26  1  0  0  0  0
 11 26  2  0  0  0  0
 12 27  1  0  0  0  0
 13 14  2  0  0  0  0
 13 28  1  0  0  0  0
 14 29  1  0  0  0  0
 15 19  2  0  0  0  0
 15 30  1  0  0  0  0
 16 24  1  0  0  0  0
 16 27  2  0  0  0  0
 17 29  2  0  0  0  0
 17 31  1  0  0  0  0
 18 32  1  0  0  0  0
 19 34  1  0  0  0  0
 20 32  1  0  0  0  0
 20 33  2  0  0  0  0
 20 35  1  0  0  0  0
 21 23  2  0  0  0  0
 21 40  1  0  0  0  0
 22 24  2  0  0  0  0
 22 41  1  0  0  0  0
 23 49  1  0  0  0  0
 24 42  1  0  0  0  0
 25 30  2  0  0  0  0
 25 68  1  0  0  0  0
 26 79  1  0  0  0  0
 27 80  1  0  0  0  0
 28 31  2  0  0  0  0
 28 79  1  0  0  0  0
 29 81  1  0  0  0  0
 30 82  1  0  0  0  0
 31 83  1  0  0  0  0
 32 62  2  0  0  0  0
 33 63  1  0  0  0  0
 33 66  1  0  0  0  0
 34 69  1  0  0  0  0
 34 73  2  0  0  0  0
 35 67  1  0  0  0  0
 35 74  2  0  0  0  0
 36 50  1  0  0  0  0
 36 70  1  0  0  0  0
 36 75  2  0  0  0  0
 37 59  1  0  0  0  0
 37 64  1  0  0  0  0
 37 76  2  0  0  0  0
 38 60  1  0  0  0  0
 38 71  1  0  0  0  0
 38 77  2  0  0  0  0
 39 65  1  0  0  0  0
 39 68  1  0  0  0  0
 39 78  2  0  0  0  0
 40 43  1  0  0  0  0
 41 50  1  0  0  0  0
 42 64  1  0  0  0  0
 43 45  1  0  0  0  0
 44 46  1  0  0  0  0
 44 47  1  0  0  0  0
 45 49  1  0  0  0  0
 46 51  1  0  0  0  0
 47 65  1  0  0  0  0
 48 51  1  0  0  0  0
 48 65  1  0  0  0  0
 49 70  1  0  0  0  0
 50 64  1  0  0  0  0
 51 63  1  0  0  0  0
 52 60  1  0  0  0  0
 53 61  1  0  0  0  0
 54 61  1  0  0  0  0
 55 61  1  0  0  0  0
 56 72  1  0  0  0  0
 57 58  1  0  0  0  0
 57 69  1  0  0  0  0
 58 80  1  0  0  0  0
 59 61  1  0  0  0  0
 59 71  1  0  0  0  0
 60 72  1  0  0  0  0
 62 63  1  0  0  0  0
M  CHG  1  72   1
M  ISO  4  39 100  58 101  68 100  80 101
M  END
> <Batch ID>
0086

> <Smiles>
CNC(C)C(=O)NC(C(=O)N1Cc2cc([101O:1][101CH2:1]CNC(=O)c3ccc([100NH:0][100C:0](=O)N4CCCC(n5nc(-c6ccc(Oc7ccc(F)cc7F)cc6)c(C(N)=O)c5N)C4)c(F)c3)ccc2CC1C(=O)NC1CCCc2ccccc21)C(C)(C)C

> <Shape>
0.250

> <Color>
0.066

> <Negative vol penalty>
0.000

$$$$

  -OEChem-04052300173D

 85 94  0     1  0  0  0  0  0999 V2000
  -18.0258  -12.2484   24.4558 C   0  0  0  0  0  0  0  0  0  0  0  0
  -19.3161  -12.6979   24.7175 C   0  0  0  0  0  0  0  0  0  0  0  0
  -32.6519  -17.4897   23.4573 C   0  0  0  0  0  0  0  0  0  0  0  0
  -23.0735   -9.8699   19.9415 C   0  0  0  0  0  0  0  0  0  0  0  0
  -23.8315   -9.8778   22.2355 C   0  0  0  0  0  0  0  0  0  0  0  0
  -17.0060  -13.1662   24.2075 C   0  0  0  0  0  0  0  0  0  0  0  0
  -19.5876  -14.0656   24.7300 C   0  0  0  0  0  0  0  0  0  0  0  0
  -23.5879  -16.9921   28.3270 C   0  0  0  0  0  0  0  0  0  0  0  0
  -31.8541  -18.3575   24.2030 C   0  0  0  0  0  0  0  0  0  0  0  0
  -32.0640  -16.6055   22.5527 C   0  0  0  0  0  0  0  0  0  0  0  0
  -22.3285   -8.7175   20.1916 C   0  0  0  0  0  0  0  0  0  0  0  0
  -23.0864   -8.7254   22.4856 C   0  0  0  0  0  0  0  0  0  0  0  0
  -24.8922  -17.4356   28.1126 C   0  0  0  0  0  0  0  0  0  0  0  0
  -19.3784   -7.9243   21.6410 C   0  0  0  0  0  0  0  0  0  0  0  0
  -18.0719   -7.8788   21.1546 C   0  0  0  0  0  0  0  0  0  0  0  0
  -24.0505  -19.6306   27.5714 C   0  0  0  0  0  0  0  0  0  0  0  0
  -29.8805  -17.4567   23.1398 C   0  0  0  0  0  0  0  0  0  0  0  0
  -18.6311   -5.9344   19.8342 C   0  0  0  0  0  0  0  0  0  0  0  0
  -23.8251  -10.4500   20.9634 C   0  0  0  0  0  0  0  0  0  0  0  0
  -24.1691  -12.9748   20.8420 C   0  0  0  0  0  0  0  0  0  0  0  0
  -17.2631  -14.5461   24.2265 C   0  0  0  0  0  0  0  0  0  0  0  0
  -22.5026  -17.8631   28.1543 C   0  0  0  0  0  0  0  0  0  0  0  0
  -18.5705  -15.0027   24.4804 C   0  0  0  0  0  0  0  0  0  0  0  0
  -22.7336  -19.1963   27.7866 C   0  0  0  0  0  0  0  0  0  0  0  0
  -30.4684  -18.3410   24.0443 C   0  0  0  0  0  0  0  0  0  0  0  0
  -30.6783  -16.5889   22.3940 C   0  0  0  0  0  0  0  0  0  0  0  0
  -22.3349   -8.1453   21.4637 C   0  0  0  0  0  0  0  0  0  0  0  0
  -25.1235  -18.7542   27.7319 C   0  0  0  0  0  0  0  0  0  0  0  0
  -20.3113   -6.9749   21.2238 C   0  0  0  0  0  0  0  0  0  0  0  0
  -17.6982   -6.8839   20.2513 C   0  0  0  0  0  0  0  0  0  0  0  0
  -19.9377   -5.9799   20.3205 C   0  0  0  0  0  0  0  0  0  0  0  0
  -24.5953  -11.6401   20.7055 C   0  0  0  0  0  0  0  0  0  0  0  0
  -25.2621  -13.7232   20.4791 C   0  0  0  0  0  0  0  0  0  0  0  0
  -28.9181  -21.0172   25.9672 C   0  0  0  0  0  0  0  0  0  0  0  0
  -27.9269  -20.1283   25.9530 C   0  0  0  0  0  0  0  0  0  0  0  0
  -30.0608  -20.4535   25.2345 C   0  0  0  0  0  0  0  0  0  0  0  0
  -28.3779  -18.9481   25.1901 C   0  0  0  0  0  0  0  0  0  0  0  0
  -22.8987  -13.4920   21.2595 C   0  0  0  0  0  0  0  0  0  0  0  0
  -19.9702  -17.9381   26.2346 C   0  0  0  0  0  0  0  0  0  0  0  0
  -19.1427  -20.4825   28.0686 C   0  0  0  0  0  0  0  0  0  0  0  0
  -20.1356  -23.0029   30.1443 C   0  0  0  0  0  0  0  0  0  0  0  0
  -30.7290  -14.7644   20.6577 C   0  0  0  0  0  0  0  0  0  0  0  0
  -16.1385  -15.4985   23.9057 C   0  0  0  0  0  0  0  0  0  0  0  0
  -21.1035  -17.3764   28.4154 C   0  0  0  0  0  0  0  0  0  0  0  0
  -21.6042  -20.1767   27.6076 C   0  0  0  0  0  0  0  0  0  0  0  0
  -16.4297  -16.9422   24.3072 C   0  0  0  0  0  0  0  0  0  0  0  0
  -29.6146  -12.3499   18.2901 C   0  0  0  0  0  0  0  0  0  0  0  0
  -17.8291  -17.3496   23.8573 C   0  0  0  0  0  0  0  0  0  0  0  0
  -28.1744  -12.0598   18.7187 C   0  0  0  0  0  0  0  0  0  0  0  0
  -30.5289  -12.5788   19.4924 C   0  0  0  0  0  0  0  0  0  0  0  0
  -28.6214  -13.3057   20.8715 C   0  0  0  0  0  0  0  0  0  0  0  0
  -18.8992  -16.4791   24.5272 C   0  0  1  0  0  0  0  0  0  0  0  0
  -20.0390  -18.2115   27.7104 C   0  0  1  0  0  0  0  0  0  0  0  0
  -27.6494  -13.1325   19.6930 C   0  0  2  0  0  0  0  0  0  0  0  0
  -19.2366  -24.9443   31.4557 C   0  0  0  0  0  0  0  0  0  0  0  0
  -18.8606  -22.0901   25.4906 C   0  0  0  0  0  0  0  0  0  0  0  0
  -18.9063  -24.1788   26.8703 C   0  0  0  0  0  0  0  0  0  0  0  0
  -17.0732  -22.5168   27.1869 C   0  0  0  0  0  0  0  0  0  0  0  0
  -21.0681  -21.8531   32.7070 C   0  0  0  0  0  0  0  0  0  0  0  0
  -26.5755  -20.2293   26.5607 C   0  0  0  0  0  0  0  0  0  1  0  0
  -19.3992  -21.9691   28.0128 C   0  0  1  0  0  0  0  0  0  0  0  0
  -19.6049  -23.4692   31.4880 C   0  0  2  0  0  0  0  0  0  0  0  0
  -18.5812  -22.6700   26.8915 C   0  0  0  0  0  0  0  0  0  0  0  0
  -25.8605  -11.5429   20.2884 N   0  0  0  0  0  0  0  0  0  0  0  0
  -26.2385  -12.8261   20.1595 N   0  0  0  0  0  0  0  0  0  0  0  0
  -29.6738  -19.2065   24.7876 N   0  0  0  0  0  0  0  0  0  0  0  0
  -20.2539  -19.6513   27.8685 N   0  0  0  0  0  0  0  0  0  0  0  0
  -29.9701  -13.6106   20.3686 N   0  0  0  0  0  0  0  0  0  0  0  0
  -25.4737  -15.0544   20.4054 N   0  0  0  0  0  0  0  0  0  0  0  0
  -21.8857  -12.5838   21.5965 N   0  0  0  0  0  0  0  0  0  0  0  0
  -30.0817  -15.6905   21.4749 N   0  0  0  0  0  0  0  0  0  0  0  0
  -19.1165  -16.9068   25.8926 N   0  0  0  0  0  0  0  0  0  0  0  0
  -19.1345  -22.4797   29.3536 N   0  0  0  0  0  0  0  0  0  0  0  0
  -20.6307  -23.2641   32.5495 N   0  3  0  0  0  0  0  0  0  0  0  0
  -31.1235  -21.0346   25.0858 O   0  0  0  0  0  0  0  0  0  0  0  0
  -27.6932  -17.9581   24.9872 O   0  0  0  0  0  0  0  0  0  0  0  0
  -22.6634  -14.7228   21.3158 O   0  0  0  0  0  0  0  0  0  0  0  0
  -20.6408  -18.6140   25.4630 O   0  0  0  0  0  0  0  0  0  0  0  0
  -17.9998  -20.0739   28.2889 O   0  0  0  0  0  0  0  0  0  0  0  0
  -21.3191  -23.0970   29.8265 O   0  0  0  0  0  0  0  0  0  0  0  0
  -31.8587  -14.9319   20.1909 O   0  0  0  0  0  0  0  0  0  0  0  0
  -21.6078   -7.0210   21.7082 O   0  0  0  0  0  0  0  0  0  0  0  0
  -26.3955  -19.1895   27.5214 O   0  0  0  0  0  0  0  0  0  1  0  0
  -16.4431   -6.8394   19.7856 F   0  0  0  0  0  0  0  0  0  0  0  0
  -20.8292   -5.0644   19.9170 F   0  0  0  0  0  0  0  0  0  0  0  0
  1  2  1  0  0  0  0
  1  6  2  0  0  0  0
  2  7  2  0  0  0  0
  3  9  2  0  0  0  0
  3 10  1  0  0  0  0
  4 11  2  0  0  0  0
  4 19  1  0  0  0  0
  5 12  1  0  0  0  0
  5 19  2  0  0  0  0
  6 21  1  0  0  0  0
  7 23  1  0  0  0  0
  8 13  2  0  0  0  0
  8 22  1  0  0  0  0
  9 25  1  0  0  0  0
 10 26  2  0  0  0  0
 11 27  1  0  0  0  0
 12 27  2  0  0  0  0
 13 28  1  0  0  0  0
 14 15  2  0  0  0  0
 14 29  1  0  0  0  0
 15 30  1  0  0  0  0
 16 24  1  0  0  0  0
 16 28  2  0  0  0  0
 17 25  2  0  0  0  0
 17 26  1  0  0  0  0
 18 30  2  0  0  0  0
 18 31  1  0  0  0  0
 19 32  1  0  0  0  0
 20 32  1  0  0  0  0
 20 33  2  0  0  0  0
 20 38  1  0  0  0  0
 21 23  2  0  0  0  0
 21 43  1  0  0  0  0
 22 24  2  0  0  0  0
 22 44  1  0  0  0  0
 23 52  1  0  0  0  0
 24 45  1  0  0  0  0
 25 66  1  0  0  0  0
 26 71  1  0  0  0  0
 27 82  1  0  0  0  0
 28 83  1  0  0  0  0
 29 31  2  0  0  0  0
 29 82  1  0  0  0  0
 30 84  1  0  0  0  0
 31 85  1  0  0  0  0
 32 64  2  0  0  0  0
 33 65  1  0  0  0  0
 33 69  1  0  0  0  0
 34 35  2  0  0  0  0
 34 36  1  0  0  0  0
 35 37  1  0  0  0  0
 35 60  1  0  0  0  0
 36 66  1  0  0  0  0
 36 75  2  0  0  0  0
 37 66  1  0  0  0  0
 37 76  2  0  0  0  0
 38 70  1  0  0  0  0
 38 77  2  0  0  0  0
 39 53  1  0  0  0  0
 39 72  1  0  0  0  0
 39 78  2  0  0  0  0
 40 61  1  0  0  0  0
 40 67  1  0  0  0  0
 40 79  2  0  0  0  0
 41 62  1  0  0  0  0
 41 73  1  0  0  0  0
 41 80  2  0  0  0  0
 42 68  1  0  0  0  0
 42 71  1  0  0  0  0
 42 81  2  0  0  0  0
 43 46  1  0  0  0  0
 44 53  1  0  0  0  0
 45 67  1  0  0  0  0
 46 48  1  0  0  0  0
 47 49  1  0  0  0  0
 47 50  1  0  0  0  0
 48 52  1  0  0  0  0
 49 54  1  0  0  0  0
 50 68  1  0  0  0  0
 51 54  1  0  0  0  0
 51 68  1  0  0  0  0
 52 72  1  0  0  0  0
 53 67  1  0  0  0  0
 54 65  1  0  0  0  0
 55 62  1  0  0  0  0
 56 63  1  0  0  0  0
 57 63  1  0  0  0  0
 58 63  1  0  0  0  0
 59 74  1  0  0  0  0
 60 83  1  0  0  0  0
 61 63  1  0  0  0  0
 61 73  1  0  0  0  0
 62 74  1  0  0  0  0
 64 65  1  0  0  0  0
M  CHG  1  74   1
M  ISO  4  42 100  60 101  71 100  83 101
M  END
> <Batch ID>
0086

> <Smiles>
CNC(C)C(=O)NC(C(=O)N1Cc2cc([101O:1][101CH2:1]C3=CC(=O)N(c4cccc([100NH:0][100C:0](=O)N5CCCC(n6nc(-c7ccc(Oc8ccc(F)cc8F)cc7)c(C(N)=O)c6N)C5)c4)C3=O)ccc2CC1C(=O)NC1CCCc2ccccc21)C(C)(C)C

> <Shape>
0.145

> <Color>
0.187

> <Negative vol penalty>
0.000

$$$$

  -OEChem-04052300173D

 85 94  0     1  0  0  0  0  0999 V2000
  -25.3270  -35.2237   23.7167 C   0  0  0  0  0  0  0  0  0  0  0  0
  -25.9987  -34.0397   23.4298 C   0  0  0  0  0  0  0  0  0  0  0  0
  -31.9907  -21.1366   16.1070 C   0  0  0  0  0  0  0  0  0  0  0  0
  -23.7936  -13.4160   19.6865 C   0  0  0  0  0  0  0  0  0  0  0  0
  -25.8523  -13.9524   20.8316 C   0  0  0  0  0  0  0  0  0  0  0  0
  -24.0011  -35.1850   24.1464 C   0  0  0  0  0  0  0  0  0  0  0  0
  -25.3453  -32.8162   23.5734 C   0  0  0  0  0  0  0  0  0  0  0  0
  -26.1643  -29.7055   19.6622 C   0  0  0  0  0  0  0  0  0  0  0  0
  -30.8596  -20.3494   16.3226 C   0  0  0  0  0  0  0  0  0  0  0  0
  -32.0486  -22.4308   16.6242 C   0  0  0  0  0  0  0  0  0  0  0  0
  -24.0464  -12.0564   19.8688 C   0  0  0  0  0  0  0  0  0  0  0  0
  -26.1051  -12.5928   21.0140 C   0  0  0  0  0  0  0  0  0  0  0  0
  -27.3883  -29.0391   19.6242 C   0  0  0  0  0  0  0  0  0  0  0  0
  -23.9707   -8.4540   20.3501 C   0  0  0  0  0  0  0  0  0  0  0  0
  -22.9150   -7.6500   20.7799 C   0  0  0  0  0  0  0  0  0  0  0  0
  -26.3297  -27.0571   20.5018 C   0  0  0  0  0  0  0  0  0  0  0  0
  -29.8442  -22.1505   17.5724 C   0  0  0  0  0  0  0  0  0  0  0  0
  -22.7204   -8.9791   22.7881 C   0  0  0  0  0  0  0  0  0  0  0  0
  -24.6966  -14.3640   20.1678 C   0  0  0  0  0  0  0  0  0  0  0  0
  -23.7315  -16.6262   20.8450 C   0  0  0  0  0  0  0  0  0  0  0  0
  -23.3281  -33.9610   24.2861 C   0  0  0  0  0  0  0  0  0  0  0  0
  -25.0140  -29.0550   20.1314 C   0  0  0  0  0  0  0  0  0  0  0  0
  -24.0096  -32.7611   24.0066 C   0  0  0  0  0  0  0  0  0  0  0  0
  -25.0918  -27.7166   20.5424 C   0  0  0  0  0  0  0  0  0  0  0  0
  -29.7864  -20.8563   17.0553 C   0  0  0  0  0  0  0  0  0  0  0  0
  -30.9753  -22.9378   17.3568 C   0  0  0  0  0  0  0  0  0  0  0  0
  -25.2021  -11.6448   20.5326 C   0  0  0  0  0  0  0  0  0  0  0  0
  -27.4718  -27.7156   20.0467 C   0  0  0  0  0  0  0  0  0  0  0  0
  -24.4013   -9.5205   21.1394 C   0  0  0  0  0  0  0  0  0  0  0  0
  -22.2899   -7.9125   21.9989 C   0  0  0  0  0  0  0  0  0  0  0  0
  -23.7761   -9.7830   22.3583 C   0  0  0  0  0  0  0  0  0  0  0  0
  -24.4363  -15.7686   19.9793 C   0  0  0  0  0  0  0  0  0  0  0  0
  -23.7627  -17.8480   20.2183 C   0  0  0  0  0  0  0  0  0  0  0  0
  -31.7896  -26.2092   18.7346 C   0  0  0  0  0  0  0  0  0  0  0  0
  -30.4657  -26.3131   18.6389 C   0  0  0  0  0  0  0  0  0  0  0  0
  -32.1885  -24.8769   18.2589 C   0  0  0  0  0  0  0  0  0  0  0  0
  -29.9443  -25.0524   18.0761 C   0  0  0  0  0  0  0  0  0  0  0  0
  -23.1047  -16.3438   22.1032 C   0  0  0  0  0  0  0  0  0  0  0  0
  -23.0056  -29.5165   22.5515 C   0  0  0  0  0  0  0  0  0  0  0  0
  -27.5552  -20.1966   16.1919 C   0  0  0  0  0  0  0  0  0  0  0  0
  -21.3649  -27.0998   21.1408 C   0  0  0  0  0  0  0  0  0  0  0  0
  -21.4199  -24.3645   19.1008 C   0  0  0  0  0  0  0  0  0  0  0  0
  -21.9098  -33.9669   24.7989 C   0  0  0  0  0  0  0  0  0  0  0  0
  -23.6959  -29.7794   20.1410 C   0  0  0  0  0  0  0  0  0  0  0  0
  -23.8822  -26.9670   21.0356 C   0  0  0  0  0  0  0  0  0  0  0  0
  -21.1724  -32.6508   24.5658 C   0  0  0  0  0  0  0  0  0  0  0  0
  -24.0038  -19.8354   15.8812 C   0  0  0  0  0  0  0  0  0  0  0  0
  -22.0481  -31.4692   24.9706 C   0  0  0  0  0  0  0  0  0  0  0  0
  -23.6520  -18.8083   16.9566 C   0  0  0  0  0  0  0  0  0  0  0  0
  -25.3629  -19.5432   15.2532 C   0  0  0  0  0  0  0  0  0  0  0  0
  -26.1300  -18.4154   17.3176 C   0  0  0  0  0  0  0  0  0  0  0  0
  -23.3271  -31.4157   24.1264 C   0  0  1  0  0  0  0  0  0  0  0  0
  -22.6919  -29.1802   21.1210 C   0  0  1  0  0  0  0  0  0  0  0  0
  -24.7781  -18.6916   17.9991 C   0  0  2  0  0  0  0  0  0  0  0  0
  -19.9312  -22.5727   18.1677 C   0  0  0  0  0  0  0  0  0  0  0  0
  -21.4029  -25.6685   23.8352 C   0  0  0  0  0  0  0  0  0  0  0  0
  -20.7798  -23.5567   22.6435 C   0  0  0  0  0  0  0  0  0  0  0  0
  -19.2328  -25.5131   22.6019 C   0  0  0  0  0  0  0  0  0  0  0  0
  -21.9315  -25.2275   16.3164 C   0  0  0  0  0  0  0  0  0  0  0  0
  -28.5774  -20.0142   17.2855 C   0  0  0  0  0  0  0  0  0  0  0  0
  -29.5921  -27.4585   19.0007 C   0  0  0  0  0  0  0  0  0  1  0  0
  -21.3706  -25.5945   21.2546 C   0  0  1  0  0  0  0  0  0  0  0  0
  -20.5283  -23.9532   17.9431 C   0  0  2  0  0  0  0  0  0  0  0  0
  -20.7199  -25.0976   22.5764 C   0  0  0  0  0  0  0  0  0  0  0  0
  -24.8825  -16.3926   18.8859 N   0  0  0  0  0  0  0  0  0  0  0  0
  -24.4569  -17.6553   19.0603 N   0  0  0  0  0  0  0  0  0  0  0  0
  -31.0336  -24.2275   17.8727 N   0  0  0  0  0  0  0  0  0  0  0  0
  -22.6174  -27.7205   21.0320 N   0  0  0  0  0  0  0  0  0  0  0  0
  -26.4013  -19.4175   16.2775 N   0  0  0  0  0  0  0  0  0  0  0  0
  -23.2636  -19.0576   20.5504 N   0  0  0  0  0  0  0  0  0  0  0  0
  -23.1672  -15.0355   22.6020 N   0  0  0  0  0  0  0  0  0  0  0  0
  -23.0448  -30.8724   22.8151 N   0  0  0  0  0  0  0  0  0  0  0  0
  -20.7272  -25.0913   20.0458 N   0  0  0  0  0  0  0  0  0  0  0  0
  -21.3074  -23.9273   16.6729 N   0  3  0  0  0  0  0  0  0  0  0  0
  -33.3434  -24.4836   18.2354 O   0  0  0  0  0  0  0  0  0  0  0  0
  -28.7637  -24.8343   17.8557 O   0  0  0  0  0  0  0  0  0  0  0  0
  -22.4927  -17.2217   22.7576 O   0  0  0  0  0  0  0  0  0  0  0  0
  -23.1963  -28.6127   23.3568 O   0  0  0  0  0  0  0  0  0  0  0  0
  -27.7763  -21.0099   15.2908 O   0  0  0  0  0  0  0  0  0  0  0  0
  -20.2884  -27.7022   21.1409 O   0  0  0  0  0  0  0  0  0  0  0  0
  -22.6109  -24.0673   19.1625 O   0  0  0  0  0  0  0  0  0  0  0  0
  -25.4490  -10.3183   20.7109 O   0  0  0  0  0  0  0  0  0  0  0  0
  -28.6654  -27.0630   20.0112 O   0  0  0  0  0  0  0  0  0  1  0  0
  -21.2751   -7.1413   22.4108 F   0  0  0  0  0  0  0  0  0  0  0  0
  -24.1846  -10.8069   23.1203 F   0  0  0  0  0  0  0  0  0  0  0  0
  1  2  1  0  0  0  0
  1  6  2  0  0  0  0
  2  7  2  0  0  0  0
  3  9  1  0  0  0  0
  3 10  2  0  0  0  0
  4 11  2  0  0  0  0
  4 19  1  0  0  0  0
  5 12  1  0  0  0  0
  5 19  2  0  0  0  0
  6 21  1  0  0  0  0
  7 23  1  0  0  0  0
  8 13  2  0  0  0  0
  8 22  1  0  0  0  0
  9 25  2  0  0  0  0
 10 26  1  0  0  0  0
 11 27  1  0  0  0  0
 12 27  2  0  0  0  0
 13 28  1  0  0  0  0
 14 15  2  0  0  0  0
 14 29  1  0  0  0  0
 15 30  1  0  0  0  0
 16 24  1  0  0  0  0
 16 28  2  0  0  0  0
 17 25  1  0  0  0  0
 17 26  2  0  0  0  0
 18 30  2  0  0  0  0
 18 31  1  0  0  0  0
 19 32  1  0  0  0  0
 20 32  1  0  0  0  0
 20 33  2  0  0  0  0
 20 38  1  0  0  0  0
 21 23  2  0  0  0  0
 21 43  1  0  0  0  0
 22 24  2  0  0  0  0
 22 44  1  0  0  0  0
 23 52  1  0  0  0  0
 24 45  1  0  0  0  0
 25 60  1  0  0  0  0
 26 67  1  0  0  0  0
 27 82  1  0  0  0  0
 28 83  1  0  0  0  0
 29 31  2  0  0  0  0
 29 82  1  0  0  0  0
 30 84  1  0  0  0  0
 31 85  1  0  0  0  0
 32 65  2  0  0  0  0
 33 66  1  0  0  0  0
 33 70  1  0  0  0  0
 34 35  2  0  0  0  0
 34 36  1  0  0  0  0
 35 37  1  0  0  0  0
 35 61  1  0  0  0  0
 36 67  1  0  0  0  0
 36 75  2  0  0  0  0
 37 67  1  0  0  0  0
 37 76  2  0  0  0  0
 38 71  1  0  0  0  0
 38 77  2  0  0  0  0
 39 53  1  0  0  0  0
 39 72  1  0  0  0  0
 39 78  2  0  0  0  0
 40 60  1  0  0  0  0
 40 69  1  0  0  0  0
 40 79  2  0  0  0  0
 41 62  1  0  0  0  0
 41 68  1  0  0  0  0
 41 80  2  0  0  0  0
 42 63  1  0  0  0  0
 42 73  1  0  0  0  0
 42 81  2  0  0  0  0
 43 46  1  0  0  0  0
 44 53  1  0  0  0  0
 45 68  1  0  0  0  0
 46 48  1  0  0  0  0
 47 49  1  0  0  0  0
 47 50  1  0  0  0  0
 48 52  1  0  0  0  0
 49 54  1  0  0  0  0
 50 69  1  0  0  0  0
 51 54  1  0  0  0  0
 51 69  1  0  0  0  0
 52 72  1  0  0  0  0
 53 68  1  0  0  0  0
 54 66  1  0  0  0  0
 55 63  1  0  0  0  0
 56 64  1  0  0  0  0
 57 64  1  0  0  0  0
 58 64  1  0  0  0  0
 59 74  1  0  0  0  0
 61 83  1  0  0  0  0
 62 64  1  0  0  0  0
 62 73  1  0  0  0  0
 63 74  1  0  0  0  0
 65 66  1  0  0  0  0
M  CHG  1  74   1
M  ISO  4  40 100  60 100  61 101  83 101
M  END
> <Batch ID>
0086

> <Smiles>
CNC(C)C(=O)NC(C(=O)N1Cc2cc([101O:1][101CH2:1]C3=CC(=O)N(c4cccc([100CH2:0][100C:0](=O)N5CCCC(n6nc(-c7ccc(Oc8ccc(F)cc8F)cc7)c(C(N)=O)c6N)C5)c4)C3=O)ccc2CC1C(=O)NC1CCCc2ccccc21)C(C)(C)C

> <Shape>
0.231

> <Color>
0.082

> <Negative vol penalty>
0.000

$$$$

  -OEChem-04052300173D

 86 95  0     1  0  0  0  0  0999 V2000
  -18.2917  -26.0956   24.9960 C   0  0  0  0  0  0  0  0  0  0  0  0
  -19.5629  -26.2331   24.4477 C   0  0  0  0  0  0  0  0  0  0  0  0
  -24.2030   -9.6355   21.8194 C   0  0  0  0  0  0  0  0  0  0  0  0
  -22.6781   -9.7491   19.9489 C   0  0  0  0  0  0  0  0  0  0  0  0
  -27.7690  -21.7776   21.4152 C   0  0  0  0  0  0  0  0  0  0  0  0
  -29.1370  -21.7415   19.4242 C   0  0  0  0  0  0  0  0  0  0  0  0
  -17.3187  -27.0630   24.7485 C   0  0  0  0  0  0  0  0  0  0  0  0
  -19.8614  -27.3376   23.6506 C   0  0  0  0  0  0  0  0  0  0  0  0
  -24.3430  -29.4016   24.7907 C   0  0  0  0  0  0  0  0  0  0  0  0
  -27.8586  -23.1690   21.4516 C   0  0  0  0  0  0  0  0  0  0  0  0
  -29.2266  -23.1330   19.4605 C   0  0  0  0  0  0  0  0  0  0  0  0
  -23.4444   -8.6054   22.3754 C   0  0  0  0  0  0  0  0  0  0  0  0
  -21.9194   -8.7190   20.5049 C   0  0  0  0  0  0  0  0  0  0  0  0
  -25.4818  -28.7563   24.3105 C   0  0  0  0  0  0  0  0  0  0  0  0
  -23.0467   -5.2788   21.9189 C   0  0  0  0  0  0  0  0  0  0  0  0
  -23.7281   -4.1707   22.4221 C   0  0  0  0  0  0  0  0  0  0  0  0
  -25.6204  -30.3545   22.5089 C   0  0  0  0  0  0  0  0  0  0  0  0
  -22.7938   -4.5898   24.6104 C   0  0  0  0  0  0  0  0  0  0  0  0
  -23.8198  -10.2073   20.6062 C   0  0  0  0  0  0  0  0  0  0  0  0
  -28.4083  -21.0638   20.4015 C   0  0  0  0  0  0  0  0  0  0  0  0
  -25.6855  -11.1453   19.1409 C   0  0  0  0  0  0  0  0  0  0  0  0
  -17.6083  -28.1848   23.9559 C   0  0  0  0  0  0  0  0  0  0  0  0
  -23.8272  -30.5236   24.1262 C   0  0  0  0  0  0  0  0  0  0  0  0
  -18.8909  -28.3202   23.3912 C   0  0  0  0  0  0  0  0  0  0  0  0
  -24.4764  -31.0138   22.9842 C   0  0  0  0  0  0  0  0  0  0  0  0
  -28.5873  -23.8468   20.4743 C   0  0  0  0  0  0  0  0  0  0  0  0
  -22.3026   -8.1472   21.7181 C   0  0  0  0  0  0  0  0  0  0  0  0
  -26.1190  -29.2310   23.1678 C   0  0  0  0  0  0  0  0  0  0  0  0
  -22.2388   -6.0425   22.7615 C   0  0  0  0  0  0  0  0  0  0  0  0
  -23.6017   -3.8261   23.7678 C   0  0  0  0  0  0  0  0  0  0  0  0
  -22.1124   -5.6979   24.1072 C   0  0  0  0  0  0  0  0  0  0  0  0
  -24.6028  -11.2718   20.0316 C   0  0  0  0  0  0  0  0  0  0  0  0
  -26.0812  -12.4375   18.8957 C   0  0  0  0  0  0  0  0  0  0  0  0
  -29.4133  -27.3880   20.2720 C   0  0  0  0  0  0  0  0  0  0  0  0
  -28.2180  -27.4545   20.8547 C   0  0  0  0  0  0  0  0  0  0  0  0
  -29.7428  -25.9740   20.0436 C   0  0  0  0  0  0  0  0  0  0  0  0
  -27.7067  -26.0793   21.0148 C   0  0  0  0  0  0  0  0  0  0  0  0
  -28.3147  -19.6128   20.3623 C   0  0  0  0  0  0  0  0  0  0  0  0
  -27.3698  -18.8720   20.9796 C   0  0  0  0  0  0  0  0  0  0  0  0
  -26.2805   -9.9652   18.5848 C   0  0  0  0  0  0  0  0  0  0  0  0
  -27.4037  -17.4026   20.8357 C   0  0  0  0  0  0  0  0  0  0  0  0
  -21.0865  -31.2024   22.6662 C   0  0  0  0  0  0  0  0  0  0  0  0
  -22.3802  -34.1701   22.4629 C   0  0  0  0  0  0  0  0  0  0  0  0
  -25.1877  -36.1098   22.4165 C   0  0  0  0  0  0  0  0  0  0  0  0
  -16.5099  -29.1802   23.6775 C   0  0  0  0  0  0  0  0  0  0  0  0
  -22.6134  -31.2243   24.6722 C   0  0  0  0  0  0  0  0  0  0  0  0
  -23.9745  -32.2268   22.2458 C   0  0  0  0  0  0  0  0  0  0  0  0
  -17.0185  -30.5112   23.1297 C   0  0  0  0  0  0  0  0  0  0  0  0
  -23.8791  -16.8361   20.0064 C   0  0  0  0  0  0  0  0  0  0  0  0
  -18.0361  -30.2769   22.0178 C   0  0  0  0  0  0  0  0  0  0  0  0
  -23.8403  -15.3130   19.9140 C   0  0  0  0  0  0  0  0  0  0  0  0
  -24.8632  -17.3195   21.0705 C   0  0  0  0  0  0  0  0  0  0  0  0
  -26.2023  -15.2512   20.8069 C   0  0  0  0  0  0  0  0  0  0  0  0
  -19.2605  -29.5168   22.5417 C   0  0  1  0  0  0  0  0  0  0  0  0
  -21.8774  -32.0503   23.6219 C   0  0  1  0  0  0  0  0  0  0  0  0
  -25.2533  -14.7439   19.7099 C   0  0  1  0  0  0  0  0  0  0  0  0
  -25.9290  -38.4975   22.2002 C   0  0  0  0  0  0  0  0  0  0  0  0
  -21.8422  -34.0627   19.4614 C   0  0  0  0  0  0  0  0  0  0  0  0
  -23.4197  -35.9864   19.1804 C   0  0  0  0  0  0  0  0  0  0  0  0
  -21.3423  -36.2666   20.5326 C   0  0  0  0  0  0  0  0  0  0  0  0
  -26.4417  -36.0848   25.0971 C   0  0  0  0  0  0  0  0  0  0  0  0
  -27.4581  -28.6545   21.2889 C   0  0  0  0  0  0  0  0  0  1  0  0
  -23.2496  -34.8910   21.4612 C   0  0  1  0  0  0  0  0  0  0  0  0
  -25.5445  -37.3835   23.1614 C   0  0  2  0  0  0  0  0  0  0  0  0
  -22.4720  -35.2776   20.1715 C   0  0  0  0  0  0  0  0  0  0  0  0
  -24.3282  -12.5439   20.3321 N   0  0  0  0  0  0  0  0  0  0  0  0
  -25.2442  -13.2286   19.6263 N   0  0  0  0  0  0  0  0  0  0  0  0
  -28.6751  -25.2339   20.5091 N   0  0  0  0  0  0  0  0  0  0  0  0
  -26.1920  -16.7161   20.8886 N   0  0  0  0  0  0  0  0  0  0  0  0
  -22.7807  -32.8735   22.8152 N   0  0  0  0  0  0  0  0  0  0  0  0
  -27.0600  -12.9629   18.1287 N   0  0  0  0  0  0  0  0  0  0  0  0
  -25.7505   -8.7179   18.9421 N   0  0  0  0  0  0  0  0  0  0  0  0
  -20.1333  -30.4085   23.2749 N   0  0  0  0  0  0  0  0  0  0  0  0
  -23.8339  -36.0249   22.1692 N   0  0  0  0  0  0  0  0  0  0  0  0
  -26.6906  -37.1411   24.0826 N   0  3  0  0  0  0  0  0  0  0  0  0
  -30.7837  -25.5951   19.5314 O   0  0  0  0  0  0  0  0  0  0  0  0
  -26.6263  -25.8009   21.5101 O   0  0  0  0  0  0  0  0  0  0  0  0
  -27.2636  -10.0146   17.8073 O   0  0  0  0  0  0  0  0  0  0  0  0
  -28.5051  -16.8716   20.6822 O   0  0  0  0  0  0  0  0  0  0  0  0
  -21.3226  -31.2649   21.4654 O   0  0  0  0  0  0  0  0  0  0  0  0
  -21.3865  -34.7392   22.9214 O   0  0  0  0  0  0  0  0  0  0  0  0
  -26.0266  -35.2755   22.0837 O   0  0  0  0  0  0  0  0  0  0  0  0
  -21.5623   -7.1419   22.2602 O   0  0  0  0  0  0  0  0  0  0  0  0
  -27.2304  -28.6027   22.6967 O   0  0  0  0  0  0  0  0  0  1  0  0
  -24.2550   -2.7611   24.2505 F   0  0  0  0  0  0  0  0  0  0  0  0
  -21.3368   -6.4271   24.9212 F   0  0  0  0  0  0  0  0  0  0  0  0
  1  2  1  0  0  0  0
  1  7  2  0  0  0  0
  2  8  2  0  0  0  0
  3 12  2  0  0  0  0
  3 19  1  0  0  0  0
  4 13  1  0  0  0  0
  4 19  2  0  0  0  0
  5 10  2  0  0  0  0
  5 20  1  0  0  0  0
  6 11  1  0  0  0  0
  6 20  2  0  0  0  0
  7 22  1  0  0  0  0
  8 24  1  0  0  0  0
  9 14  2  0  0  0  0
  9 23  1  0  0  0  0
 10 26  1  0  0  0  0
 11 26  2  0  0  0  0
 12 27  1  0  0  0  0
 13 27  2  0  0  0  0
 14 28  1  0  0  0  0
 15 16  2  0  0  0  0
 15 29  1  0  0  0  0
 16 30  1  0  0  0  0
 17 25  1  0  0  0  0
 17 28  2  0  0  0  0
 18 30  2  0  0  0  0
 18 31  1  0  0  0  0
 19 32  1  0  0  0  0
 20 38  1  0  0  0  0
 21 32  1  0  0  0  0
 21 33  2  0  0  0  0
 21 40  1  0  0  0  0
 22 24  2  0  0  0  0
 22 45  1  0  0  0  0
 23 25  2  0  0  0  0
 23 46  1  0  0  0  0
 24 54  1  0  0  0  0
 25 47  1  0  0  0  0
 26 68  1  0  0  0  0
 27 83  1  0  0  0  0
 28 84  1  0  0  0  0
 29 31  2  0  0  0  0
 29 83  1  0  0  0  0
 30 85  1  0  0  0  0
 31 86  1  0  0  0  0
 32 66  2  0  0  0  0
 33 67  1  0  0  0  0
 33 71  1  0  0  0  0
 34 35  2  0  0  0  0
 34 36  1  0  0  0  0
 35 37  1  0  0  0  0
 35 62  1  0  0  0  0
 36 68  1  0  0  0  0
 36 76  2  0  0  0  0
 37 68  1  0  0  0  0
 37 77  2  0  0  0  0
 38 39  2  0  0  0  0
 39 41  1  0  0  0  0
 40 72  1  0  0  0  0
 40 78  2  0  0  0  0
 41 69  1  0  0  0  0
 41 79  2  0  0  0  0
 42 55  1  0  0  0  0
 42 73  1  0  0  0  0
 42 80  2  0  0  0  0
 43 63  1  0  0  0  0
 43 70  1  0  0  0  0
 43 81  2  0  0  0  0
 44 64  1  0  0  0  0
 44 74  1  0  0  0  0
 44 82  2  0  0  0  0
 45 48  1  0  0  0  0
 46 55  1  0  0  0  0
 47 70  1  0  0  0  0
 48 50  1  0  0  0  0
 49 51  1  0  0  0  0
 49 52  1  0  0  0  0
 50 54  1  0  0  0  0
 51 56  1  0  0  0  0
 52 69  1  0  0  0  0
 53 56  1  0  0  0  0
 53 69  1  0  0  0  0
 54 73  1  0  0  0  0
 55 70  1  0  0  0  0
 56 67  1  0  0  0  0
 57 64  1  0  0  0  0
 58 65  1  0  0  0  0
 59 65  1  0  0  0  0
 60 65  1  0  0  0  0
 61 75  1  0  0  0  0
 62 84  1  0  0  0  0
 63 65  1  0  0  0  0
 63 74  1  0  0  0  0
 64 75  1  0  0  0  0
 66 67  1  0  0  0  0
M  CHG  1  75   1
M  ISO  4  39 100  41 100  62 101  84 101
M  END
> <Batch ID>
0086

> <Smiles>
CNC(C)C(=O)NC(C(=O)N1Cc2cc([101O:1][101CH2:1]C3=CC(=O)N(c4ccc(C=[100CH:0][100C:0](=O)N5CCCC(n6nc(-c7ccc(Oc8ccc(F)cc8F)cc7)c(C(N)=O)c6N)C5)cc4)C3=O)ccc2CC1C(=O)NC1CCCc2ccccc21)C(C)(C)C

> <Shape>
0.305

> <Color>
0.123

> <Negative vol penalty>
0.000

$$$$

  -OEChem-04052300173D

 85 94  0     1  0  0  0  0  0999 V2000
  -27.6919  -37.6416   22.6451 C   0  0  0  0  0  0  0  0  0  0  0  0
  -28.1108  -36.6529   21.7607 C   0  0  0  0  0  0  0  0  0  0  0  0
  -24.7626   -8.8219   21.7060 C   0  0  0  0  0  0  0  0  0  0  0  0
  -23.2709  -10.0481   20.2539 C   0  0  0  0  0  0  0  0  0  0  0  0
  -27.0663  -37.2872   23.8397 C   0  0  0  0  0  0  0  0  0  0  0  0
  -27.9055  -35.3090   22.0708 C   0  0  0  0  0  0  0  0  0  0  0  0
  -26.5384  -29.0057   18.9537 C   0  0  0  0  0  0  0  0  0  0  0  0
  -25.0086  -19.6935   17.3485 C   0  0  0  0  0  0  0  0  0  0  0  0
  -23.6715   -8.3816   22.4550 C   0  0  0  0  0  0  0  0  0  0  0  0
  -22.1798   -9.6077   21.0029 C   0  0  0  0  0  0  0  0  0  0  0  0
  -27.0212  -27.6985   18.9101 C   0  0  0  0  0  0  0  0  0  0  0  0
  -21.2606   -6.0250   22.1963 C   0  0  0  0  0  0  0  0  0  0  0  0
  -24.5926  -18.4530   16.8652 C   0  0  0  0  0  0  0  0  0  0  0  0
  -21.2193   -4.6765   22.5506 C   0  0  0  0  0  0  0  0  0  0  0  0
  -25.8588  -27.2070   20.9659 C   0  0  0  0  0  0  0  0  0  0  0  0
  -26.8645  -18.6327   18.4742 C   0  0  0  0  0  0  0  0  0  0  0  0
  -21.2065   -5.2908   24.8871 C   0  0  0  0  0  0  0  0  0  0  0  0
  -24.5624   -9.6552   20.6054 C   0  0  0  0  0  0  0  0  0  0  0  0
  -26.2615   -9.4802   18.7107 C   0  0  0  0  0  0  0  0  0  0  0  0
  -26.8446  -35.9386   24.1602 C   0  0  0  0  0  0  0  0  0  0  0  0
  -25.7197  -29.4272   20.0113 C   0  0  0  0  0  0  0  0  0  0  0  0
  -27.2776  -34.9361   23.2715 C   0  0  0  0  0  0  0  0  0  0  0  0
  -25.3648  -28.5193   21.0193 C   0  0  0  0  0  0  0  0  0  0  0  0
  -26.1446  -19.7834   18.1529 C   0  0  0  0  0  0  0  0  0  0  0  0
  -26.4484  -17.3921   17.9909 C   0  0  0  0  0  0  0  0  0  0  0  0
  -22.3800   -8.7744   22.1035 C   0  0  0  0  0  0  0  0  0  0  0  0
  -26.6838  -26.7997   19.9178 C   0  0  0  0  0  0  0  0  0  0  0  0
  -21.2749   -7.0064   23.1874 C   0  0  0  0  0  0  0  0  0  0  0  0
  -21.1922   -4.3094   23.8960 C   0  0  0  0  0  0  0  0  0  0  0  0
  -25.3125  -17.3023   17.1864 C   0  0  0  0  0  0  0  0  0  0  0  0
  -21.2478   -6.6393   24.5328 C   0  0  0  0  0  0  0  0  0  0  0  0
  -25.6891  -10.1109   19.8316 C   0  0  0  0  0  0  0  0  0  0  0  0
  -27.2961  -10.3054   18.3434 C   0  0  0  0  0  0  0  0  0  0  0  0
  -26.7677  -23.3004   19.1303 C   0  0  0  0  0  0  0  0  0  0  0  0
  -25.9506  -22.2882   18.4095 C   0  0  0  0  0  0  0  0  0  0  0  0
  -26.4045  -24.5813   19.2315 C   0  0  0  0  0  0  0  0  0  1  0  0
  -25.8910   -8.2576   18.0597 C   0  0  0  0  0  0  0  0  0  0  0  0
  -25.9588  -31.6257   22.2945 C   0  0  0  0  0  0  0  0  0  0  0  0
  -22.9033  -30.7392   22.9275 C   0  0  0  0  0  0  0  0  0  0  0  0
  -20.4795  -28.3455   22.7225 C   0  0  0  0  0  0  0  0  0  0  0  0
  -28.3305  -16.1412   19.1043 C   0  0  0  0  0  0  0  0  0  0  0  0
  -26.2068  -35.6027   25.4850 C   0  0  0  0  0  0  0  0  0  0  0  0
  -25.1853  -30.8330   20.0297 C   0  0  0  0  0  0  0  0  0  0  0  0
  -24.4724  -28.9163   22.1658 C   0  0  0  0  0  0  0  0  0  0  0  0
  -27.9829  -22.6649   19.7097 C   0  0  0  0  0  0  0  0  0  0  0  0
  -25.6902  -34.1685   25.5661 C   0  0  0  0  0  0  0  0  0  0  0  0
  -30.4063  -13.4535   20.1740 C   0  0  0  0  0  0  0  0  0  0  0  0
  -26.7368  -33.1933   25.0366 C   0  0  0  0  0  0  0  0  0  0  0  0
  -29.4860  -12.2329   20.0998 C   0  0  0  0  0  0  0  0  0  0  0  0
  -27.7059  -21.1793   19.5491 C   0  0  0  0  0  0  0  0  0  0  0  0
  -29.6564  -14.7018   20.6357 C   0  0  0  0  0  0  0  0  0  0  0  0
  -27.5252  -13.7977   19.7934 C   0  0  0  0  0  0  0  0  0  0  0  0
  -27.0505  -33.4682   23.5610 C   0  0  1  0  0  0  0  0  0  0  0  0
  -24.7783  -31.2993   21.4241 C   0  0  1  0  0  0  0  0  0  0  0  0
  -28.2212  -12.5304   19.2707 C   0  0  2  0  0  0  0  0  0  0  0  0
  -18.0949  -27.8968   23.3626 C   0  0  0  0  0  0  0  0  0  0  0  0
  -23.7686  -30.2756   25.8165 C   0  0  0  0  0  0  0  0  0  0  0  0
  -21.6667  -28.9598   26.1615 C   0  0  0  0  0  0  0  0  0  0  0  0
  -21.5382  -31.3772   25.5595 C   0  0  0  0  0  0  0  0  0  0  0  0
  -19.6612  -28.0175   19.8973 C   0  0  0  0  0  0  0  0  0  0  0  0
  -22.2522  -29.6999   23.8077 C   0  0  1  0  0  0  0  0  0  0  0  0
  -19.0289  -28.4160   22.2806 C   0  0  2  0  0  0  0  0  0  0  0  0
  -22.3248  -30.0709   25.3159 C   0  0  0  0  0  0  0  0  0  0  0  0
  -26.3088  -11.2490   20.1552 N   0  0  0  0  0  0  0  0  0  0  0  0
  -27.2814  -11.3399   19.2321 N   0  0  0  0  0  0  0  0  0  0  0  0
  -26.5707  -21.0549   18.6482 N   0  0  0  0  0  0  0  0  0  0  0  0
  -23.9803  -30.3037   22.1425 N   0  0  0  0  0  0  0  0  0  0  0  0
  -28.4729  -14.9230   19.8019 N   0  0  0  0  0  0  0  0  0  0  0  0
  -28.2080  -10.2399   17.3501 N   0  0  0  0  0  0  0  0  0  0  0  0
  -24.8034   -7.5336   18.5669 N   0  0  0  0  0  0  0  0  0  0  0  0
  -27.1816  -16.2246   18.3183 N   0  0  0  0  0  0  0  0  0  0  0  0
  -26.0014  -32.9414   22.7146 N   0  0  0  0  0  0  0  0  0  0  0  0
  -20.8956  -29.5266   23.2997 N   0  0  0  0  0  0  0  0  0  0  0  0
  -18.8220  -27.6010   21.0503 N   0  3  0  0  0  0  0  0  0  0  0  0
  -24.9504  -22.5676   17.7696 O   0  0  0  0  0  0  0  0  0  0  0  0
  -26.5165   -7.8117   17.0680 O   0  0  0  0  0  0  0  0  0  0  0  0
  -26.7701  -30.7483   22.5661 O   0  0  0  0  0  0  0  0  0  0  0  0
  -22.4677  -31.8933   22.9307 O   0  0  0  0  0  0  0  0  0  0  0  0
  -21.1729  -27.3417   22.5742 O   0  0  0  0  0  0  0  0  0  0  0  0
  -29.1797  -17.0332   19.1760 O   0  0  0  0  0  0  0  0  0  0  0  0
  -21.3151   -8.3448   22.8341 O   0  0  0  0  0  0  0  0  0  0  0  0
  -27.1542  -25.5234   19.8779 O   0  0  0  0  0  0  0  0  0  1  0  0
  -21.1511   -3.0145   24.2360 F   0  0  0  0  0  0  0  0  0  0  0  0
  -24.9030  -16.1155   16.7165 F   0  0  0  0  0  0  0  0  0  0  0  0
  -21.2601   -7.5777   25.4895 F   0  0  0  0  0  0  0  0  0  0  0  0
  1  2  1  0  0  0  0
  1  5  2  0  0  0  0
  2  6  2  0  0  0  0
  3  9  2  0  0  0  0
  3 18  1  0  0  0  0
  4 10  1  0  0  0  0
  4 18  2  0  0  0  0
  5 20  1  0  0  0  0
  6 22  1  0  0  0  0
  7 11  2  0  0  0  0
  7 21  1  0  0  0  0
  8 13  2  0  0  0  0
  8 24  1  0  0  0  0
  9 26  1  0  0  0  0
 10 26  2  0  0  0  0
 11 27  1  0  0  0  0
 12 14  2  0  0  0  0
 12 28  1  0  0  0  0
 13 30  1  0  0  0  0
 14 29  1  0  0  0  0
 15 23  1  0  0  0  0
 15 27  2  0  0  0  0
 16 24  2  0  0  0  0
 16 25  1  0  0  0  0
 17 29  2  0  0  0  0
 17 31  1  0  0  0  0
 18 32  1  0  0  0  0
 19 32  1  0  0  0  0
 19 33  2  0  0  0  0
 19 37  1  0  0  0  0
 20 22  2  0  0  0  0
 20 42  1  0  0  0  0
 21 23  2  0  0  0  0
 21 43  1  0  0  0  0
 22 53  1  0  0  0  0
 23 44  1  0  0  0  0
 24 66  1  0  0  0  0
 25 30  2  0  0  0  0
 25 71  1  0  0  0  0
 26 81  1  0  0  0  0
 27 82  1  0  0  0  0
 28 31  2  0  0  0  0
 28 81  1  0  0  0  0
 29 83  1  0  0  0  0
 30 84  1  0  0  0  0
 31 85  1  0  0  0  0
 32 64  2  0  0  0  0
 33 65  1  0  0  0  0
 33 69  1  0  0  0  0
 34 35  1  0  0  0  0
 34 36  2  0  0  0  0
 34 45  1  0  0  0  0
 35 66  1  0  0  0  0
 35 75  2  0  0  0  0
 36 82  1  0  0  0  0
 37 70  1  0  0  0  0
 37 76  2  0  0  0  0
 38 54  1  0  0  0  0
 38 72  1  0  0  0  0
 38 77  2  0  0  0  0
 39 61  1  0  0  0  0
 39 67  1  0  0  0  0
 39 78  2  0  0  0  0
 40 62  1  0  0  0  0
 40 73  1  0  0  0  0
 40 79  2  0  0  0  0
 41 68  1  0  0  0  0
 41 71  1  0  0  0  0
 41 80  2  0  0  0  0
 42 46  1  0  0  0  0
 43 54  1  0  0  0  0
 44 67  1  0  0  0  0
 45 50  1  0  0  0  0
 46 48  1  0  0  0  0
 47 49  1  0  0  0  0
 47 51  1  0  0  0  0
 48 53  1  0  0  0  0
 49 55  1  0  0  0  0
 50 66  1  0  0  0  0
 51 68  1  0  0  0  0
 52 55  1  0  0  0  0
 52 68  1  0  0  0  0
 53 72  1  0  0  0  0
 54 67  1  0  0  0  0
 55 65  1  0  0  0  0
 56 62  1  0  0  0  0
 57 63  1  0  0  0  0
 58 63  1  0  0  0  0
 59 63  1  0  0  0  0
 60 74  1  0  0  0  0
 61 63  1  0  0  0  0
 61 73  1  0  0  0  0
 62 74  1  0  0  0  0
 64 65  1  0  0  0  0
M  CHG  1  74   1
M  ISO  4  36 101  41 100  71 100  82 101
M  END
> <Batch ID>
0086

> <Smiles>
CNC(C)C(=O)NC(C(=O)N1Cc2cc([101O:1][101CH:1]=C3CCN(c4ccc(F)c([100NH:0][100C:0](=O)N5CCCC(n6nc(-c7ccc(Oc8ccc(F)cc8F)cc7)c(C(N)=O)c6N)C5)c4)C3=O)ccc2CC1C(=O)NC1CCCc2ccccc21)C(C)(C)C

> <Shape>
0.302

> <Color>
0.100

> <Negative vol penalty>
0.000

$$$$

  -OEChem-04052300173D

 83 91  0     1  0  0  0  0  0999 V2000
  -28.2036  -33.9910   25.1235 C   0  0  0  0  0  0  0  0  0  0  0  0
  -28.3157  -32.6490   24.7745 C   0  0  0  0  0  0  0  0  0  0  0  0
  -23.9291  -11.9275   23.7189 C   0  0  0  0  0  0  0  0  0  0  0  0
  -23.2166  -14.0765   22.8756 C   0  0  0  0  0  0  0  0  0  0  0  0
  -30.6868  -19.8546   18.6019 C   0  0  0  0  0  0  0  0  0  0  0  0
  -26.9434  -34.5659   25.2821 C   0  0  0  0  0  0  0  0  0  0  0  0
  -27.1675  -31.8808   24.5849 C   0  0  0  0  0  0  0  0  0  0  0  0
  -27.4267  -28.9912   20.4342 C   0  0  0  0  0  0  0  0  0  0  0  0
  -30.5148  -18.4768   18.7348 C   0  0  0  0  0  0  0  0  0  0  0  0
  -23.2230  -12.1567   24.8997 C   0  0  0  0  0  0  0  0  0  0  0  0
  -22.5104  -14.3058   24.0565 C   0  0  0  0  0  0  0  0  0  0  0  0
  -28.1850  -27.8243   20.5171 C   0  0  0  0  0  0  0  0  0  0  0  0
  -21.3127  -12.0206   27.9896 C   0  0  0  0  0  0  0  0  0  0  0  0
  -20.5355  -10.9776   28.4934 C   0  0  0  0  0  0  0  0  0  0  0  0
  -28.3119  -20.1165   18.2440 C   0  0  0  0  0  0  0  0  0  0  0  0
  -26.1663  -26.5422   20.8341 C   0  0  0  0  0  0  0  0  0  0  0  0
  -19.2355  -10.9629   26.4570 C   0  0  0  0  0  0  0  0  0  0  0  0
  -23.9260  -12.8874   22.7068 C   0  0  0  0  0  0  0  0  0  0  0  0
  -29.5853  -20.6745   18.3565 C   0  0  0  0  0  0  0  0  0  0  0  0
  -24.1771  -12.0336   20.3161 C   0  0  0  0  0  0  0  0  0  0  0  0
  -25.7791  -33.8068   25.0850 C   0  0  0  0  0  0  0  0  0  0  0  0
  -26.0310  -28.9437   20.5617 C   0  0  0  0  0  0  0  0  0  0  0  0
  -25.8905  -32.4457   24.7424 C   0  0  0  0  0  0  0  0  0  0  0  0
  -25.3924  -27.7097   20.7499 C   0  0  0  0  0  0  0  0  0  0  0  0
  -29.2414  -17.9188   18.6223 C   0  0  0  0  0  0  0  0  0  0  0  0
  -22.5136  -13.3458   25.0685 C   0  0  0  0  0  0  0  0  0  0  0  0
  -27.5551  -26.5998   20.7200 C   0  0  0  0  0  0  0  0  0  0  0  0
  -21.0513  -12.5348   26.7196 C   0  0  0  0  0  0  0  0  0  0  0  0
  -19.4969  -10.4487   27.7271 C   0  0  0  0  0  0  0  0  0  0  0  0
  -28.1399  -18.7387   18.3769 C   0  0  0  0  0  0  0  0  0  0  0  0
  -20.0127  -12.0059   25.9533 C   0  0  0  0  0  0  0  0  0  0  0  0
  -24.6557  -12.6515   21.4870 C   0  0  0  0  0  0  0  0  0  0  0  0
  -25.2478  -12.0520   19.4560 C   0  0  0  0  0  0  0  0  0  0  0  0
  -28.7537  -23.3604   19.8259 C   0  0  0  0  0  0  0  0  0  0  0  0
  -29.7690  -22.1452   18.2144 C   0  0  0  0  0  0  0  0  0  0  0  0
  -22.8807  -11.4915   20.0314 C   0  0  0  0  0  0  0  0  0  0  0  0
  -23.9219  -30.1672   22.6010 C   0  0  0  0  0  0  0  0  0  0  0  0
  -21.7701  -28.9159   20.5210 C   0  0  0  0  0  0  0  0  0  0  0  0
  -21.0836  -26.6115   18.0992 C   0  0  0  0  0  0  0  0  0  0  0  0
  -30.0590  -15.5664   19.0016 C   0  0  0  0  0  0  0  0  0  0  0  0
  -24.4392  -34.4601   25.3141 C   0  0  0  0  0  0  0  0  0  0  0  0
  -25.2251  -30.2082   20.4432 C   0  0  0  0  0  0  0  0  0  0  0  0
  -23.8951  -27.6022   20.8728 C   0  0  0  0  0  0  0  0  0  0  0  0
  -23.2697  -33.6728   24.7286 C   0  0  0  0  0  0  0  0  0  0  0  0
  -30.0367  -12.0326   19.4369 C   0  0  0  0  0  0  0  0  0  0  0  0
  -23.3878  -32.1950   25.0879 C   0  0  0  0  0  0  0  0  0  0  0  0
  -28.6089  -11.7334   19.8996 C   0  0  0  0  0  0  0  0  0  0  0  0
  -30.5544  -13.3503   20.0109 C   0  0  0  0  0  0  0  0  0  0  0  0
  -28.2584  -14.2126   20.2427 C   0  0  0  0  0  0  0  0  0  0  0  0
  -24.6682  -31.5860   24.5038 C   0  0  1  0  0  0  0  0  0  0  0  0
  -23.8526  -30.1059   21.1013 C   0  0  1  0  0  0  0  0  0  0  0  0
  -27.6699  -12.9273   19.6382 C   0  0  2  0  0  0  0  0  0  0  0  0
  -19.2269  -25.8073   16.6148 C   0  0  0  0  0  0  0  0  0  0  0  0
  -20.4942  -27.4862   22.8954 C   0  0  0  0  0  0  0  0  0  0  0  0
  -19.2991  -26.0028   21.2707 C   0  0  0  0  0  0  0  0  0  0  0  0
  -18.8658  -28.4594   21.2658 C   0  0  0  0  0  0  0  0  0  0  0  0
  -22.5963  -27.2857   15.6465 C   0  0  0  0  0  0  0  0  0  0  0  0
  -27.6740  -24.2521   20.3596 C   0  0  0  0  0  0  0  0  0  1  0  0
  -21.0673  -27.5873   20.3800 C   0  0  1  0  0  0  0  0  0  0  0  0
  -20.4176  -26.7449   16.7416 C   0  0  2  0  0  0  0  0  0  0  0  0
  -19.9600  -27.3858   21.4526 C   0  0  0  0  0  0  0  0  0  0  0  0
  -25.9311  -13.0344   21.3836 N   0  0  0  0  0  0  0  0  0  0  0  0
  -28.7389  -22.9725   18.5919 N   0  0  0  0  0  0  0  0  0  0  0  0
  -26.2631  -12.6560   20.1375 N   0  0  0  0  0  0  0  0  0  0  0  0
  -23.1514  -28.8674   20.7565 N   0  0  0  0  0  0  0  0  0  0  0  0
  -29.6157  -14.4364   19.7209 N   0  0  0  0  0  0  0  0  0  0  0  0
  -25.4104  -11.6102   18.1908 N   0  0  0  0  0  0  0  0  0  0  0  0
  -21.8965  -11.5551   21.0272 N   0  0  0  0  0  0  0  0  0  0  0  0
  -29.0701  -16.5187   18.7573 N   0  0  0  0  0  0  0  0  0  0  0  0
  -24.5030  -31.3213   23.0906 N   0  0  0  0  0  0  0  0  0  0  0  0
  -20.5853  -27.5245   19.0044 N   0  0  0  0  0  0  0  0  0  0  0  0
  -30.8359  -22.6628   17.7161 N   0  3  0  0  0  0  0  0  0  0  0  0
  -21.3864  -26.4238   15.6556 N   0  3  0  0  0  0  0  0  0  0  0  0
  -22.6081  -10.9516   18.9324 O   0  0  0  0  0  0  0  0  0  0  0  0
  -23.4795  -29.2369   23.2648 O   0  0  0  0  0  0  0  0  0  0  0  0
  -21.1187  -29.9585   20.4186 O   0  0  0  0  0  0  0  0  0  0  0  0
  -21.9557  -25.7780   18.3343 O   0  0  0  0  0  0  0  0  0  0  0  0
  -31.2232  -15.6682   18.6061 O   0  0  0  0  0  0  0  0  0  0  0  0
  -21.8243  -13.5697   26.2206 O   0  0  0  0  0  0  0  0  0  0  0  0
  -28.2930  -25.4594   20.8020 O   0  0  0  0  0  0  0  0  0  1  0  0
  -18.7517   -9.4461   28.2103 F   0  0  0  0  0  0  0  0  0  0  0  0
  -26.9111  -18.2135   18.2663 F   0  0  0  0  0  0  0  0  0  0  0  0
  -19.7575  -12.4949   24.7320 F   0  0  0  0  0  0  0  0  0  0  0  0
  1  2  1  0  0  0  0
  1  6  2  0  0  0  0
  2  7  2  0  0  0  0
  3 10  2  0  0  0  0
  3 18  1  0  0  0  0
  4 11  1  0  0  0  0
  4 18  2  0  0  0  0
  5  9  2  0  0  0  0
  5 19  1  0  0  0  0
  6 21  1  0  0  0  0
  7 23  1  0  0  0  0
  8 12  2  0  0  0  0
  8 22  1  0  0  0  0
  9 25  1  0  0  0  0
 10 26  1  0  0  0  0
 11 26  2  0  0  0  0
 12 27  1  0  0  0  0
 13 14  2  0  0  0  0
 13 28  1  0  0  0  0
 14 29  1  0  0  0  0
 15 19  2  0  0  0  0
 15 30  1  0  0  0  0
 16 24  1  0  0  0  0
 16 27  2  0  0  0  0
 17 29  2  0  0  0  0
 17 31  1  0  0  0  0
 18 32  1  0  0  0  0
 19 35  1  0  0  0  0
 20 32  1  0  0  0  0
 20 33  2  0  0  0  0
 20 36  1  0  0  0  0
 21 23  2  0  0  0  0
 21 41  1  0  0  0  0
 22 24  2  0  0  0  0
 22 42  1  0  0  0  0
 23 50  1  0  0  0  0
 24 43  1  0  0  0  0
 25 30  2  0  0  0  0
 25 69  1  0  0  0  0
 26 79  1  0  0  0  0
 27 80  1  0  0  0  0
 28 31  2  0  0  0  0
 28 79  1  0  0  0  0
 29 81  1  0  0  0  0
 30 82  1  0  0  0  0
 31 83  1  0  0  0  0
 32 62  2  0  0  0  0
 33 64  1  0  0  0  0
 33 67  1  0  0  0  0
 34 58  1  0  0  0  0
 34 63  2  0  0  0  0
 35 63  1  0  0  0  0
 35 72  2  0  0  0  0
 36 68  1  0  0  0  0
 36 74  2  0  0  0  0
 37 51  1  0  0  0  0
 37 70  1  0  0  0  0
 37 75  2  0  0  0  0
 38 59  1  0  0  0  0
 38 65  1  0  0  0  0
 38 76  2  0  0  0  0
 39 60  1  0  0  0  0
 39 71  1  0  0  0  0
 39 77  2  0  0  0  0
 40 66  1  0  0  0  0
 40 69  1  0  0  0  0
 40 78  2  0  0  0  0
 41 44  1  0  0  0  0
 42 51  1  0  0  0  0
 43 65  1  0  0  0  0
 44 46  1  0  0  0  0
 45 47  1  0  0  0  0
 45 48  1  0  0  0  0
 46 50  1  0  0  0  0
 47 52  1  0  0  0  0
 48 66  1  0  0  0  0
 49 52  1  0  0  0  0
 49 66  1  0  0  0  0
 50 70  1  0  0  0  0
 51 65  1  0  0  0  0
 52 64  1  0  0  0  0
 53 60  1  0  0  0  0
 54 61  1  0  0  0  0
 55 61  1  0  0  0  0
 56 61  1  0  0  0  0
 57 73  1  0  0  0  0
 58 80  1  0  0  0  0
 59 61  1  0  0  0  0
 59 71  1  0  0  0  0
 60 73  1  0  0  0  0
 62 64  1  0  0  0  0
M  CHG  2  72   1  73   1
M  ISO  4  40 100  58 101  69 100  80 101
M  END
> <Batch ID>
0086

> <Smiles>
CNC(C)C(=O)NC(C(=O)N1Cc2cc([101O:1][101CH2:1]C=NC(=N)c3ccc([100NH:0][100C:0](=O)N4CCCC(n5nc(-c6ccc(Oc7ccc(F)cc7F)cc6)c(C(N)=O)c5N)C4)c(F)c3)ccc2CC1C(=O)NC1CCCc2ccccc21)C(C)(C)C

> <Shape>
0.274

> <Color>
0.084

> <Negative vol penalty>
0.000

$$$$

  -OEChem-04052300173D

 84 93  0     1  0  0  0  0  0999 V2000
  -16.6441  -28.9129   24.2136 C   0  0  0  0  0  0  0  0  0  0  0  0
  -17.5378  -27.8468   24.2048 C   0  0  0  0  0  0  0  0  0  0  0  0
  -32.5355  -18.4705   21.6503 C   0  0  0  0  0  0  0  0  0  0  0  0
  -23.0562   -9.9687   21.5325 C   0  0  0  0  0  0  0  0  0  0  0  0
  -23.7553  -10.9695   23.6173 C   0  0  0  0  0  0  0  0  0  0  0  0
  -16.8985  -30.0408   23.4344 C   0  0  0  0  0  0  0  0  0  0  0  0
  -18.6861  -27.9076   23.4160 C   0  0  0  0  0  0  0  0  0  0  0  0
  -24.1825  -25.5462   24.7269 C   0  0  0  0  0  0  0  0  0  0  0  0
  -31.7205  -19.5663   21.9340 C   0  0  0  0  0  0  0  0  0  0  0  0
  -31.9691  -17.2780   21.2000 C   0  0  0  0  0  0  0  0  0  0  0  0
  -22.3064   -9.0263   22.2363 C   0  0  0  0  0  0  0  0  0  0  0  0
  -23.0055  -10.0271   24.3212 C   0  0  0  0  0  0  0  0  0  0  0  0
  -24.8126  -24.3647   24.3387 C   0  0  0  0  0  0  0  0  0  0  0  0
  -22.8721   -6.1619   23.9391 C   0  0  0  0  0  0  0  0  0  0  0  0
  -22.9641   -4.8297   23.5362 C   0  0  0  0  0  0  0  0  0  0  0  0
  -25.9472  -25.5565   22.5747 C   0  0  0  0  0  0  0  0  0  0  0  0
  -20.5897   -4.8003   23.0910 C   0  0  0  0  0  0  0  0  0  0  0  0
  -23.7807  -10.9403   22.2230 C   0  0  0  0  0  0  0  0  0  0  0  0
  -24.1246  -13.1725   21.0371 C   0  0  0  0  0  0  0  0  0  0  0  0
  -18.0553  -30.1194   22.6431 C   0  0  0  0  0  0  0  0  0  0  0  0
  -24.4221  -26.7415   24.0340 C   0  0  0  0  0  0  0  0  0  0  0  0
  -18.9555  -29.0370   22.6245 C   0  0  0  0  0  0  0  0  0  0  0  0
  -25.3209  -26.7523   22.9578 C   0  0  0  0  0  0  0  0  0  0  0  0
  -30.3390  -19.4696   21.7675 C   0  0  0  0  0  0  0  0  0  0  0  0
  -30.5876  -17.1813   21.0335 C   0  0  0  0  0  0  0  0  0  0  0  0
  -22.2810   -9.0555   23.6306 C   0  0  0  0  0  0  0  0  0  0  0  0
  -25.6929  -24.3691   23.2606 C   0  0  0  0  0  0  0  0  0  0  0  0
  -21.6389   -6.8133   23.9181 C   0  0  0  0  0  0  0  0  0  0  0  0
  -21.8229   -4.1489   23.1121 C   0  0  0  0  0  0  0  0  0  0  0  0
  -20.4977   -6.1326   23.4940 C   0  0  0  0  0  0  0  0  0  0  0  0
  -29.7725  -18.2771   21.3173 C   0  0  0  0  0  0  0  0  0  0  0  0
  -24.5558  -11.9137   21.4966 C   0  0  0  0  0  0  0  0  0  0  0  0
  -25.2256  -13.7059   20.4129 C   0  0  0  0  0  0  0  0  0  0  0  0
  -28.3814  -22.1047   22.5528 C   0  0  0  0  0  0  0  0  0  0  0  0
  -29.8123  -21.8048   22.4896 C   0  0  0  0  0  0  0  0  0  0  0  0
  -27.6747  -23.1788   22.9047 C   0  0  0  0  0  0  0  0  0  1  0  0
  -22.8433  -13.8034   21.1634 C   0  0  0  0  0  0  0  0  0  0  0  0
  -22.6298  -28.7573   22.3523 C   0  0  0  0  0  0  0  0  0  0  0  0
  -25.3528  -30.5192   22.2959 C   0  0  0  0  0  0  0  0  0  0  0  0
  -28.7577  -30.5979   22.5138 C   0  0  0  0  0  0  0  0  0  0  0  0
  -30.6849  -14.7889   20.2503 C   0  0  0  0  0  0  0  0  0  0  0  0
  -18.2636  -31.3394   21.7812 C   0  0  0  0  0  0  0  0  0  0  0  0
  -23.7550  -28.0130   24.4821 C   0  0  0  0  0  0  0  0  0  0  0  0
  -25.6278  -28.0133   22.1935 C   0  0  0  0  0  0  0  0  0  0  0  0
  -28.0940  -20.7042   22.0624 C   0  0  0  0  0  0  0  0  0  0  0  0
  -19.6919  -31.4814   21.2616 C   0  0  0  0  0  0  0  0  0  0  0  0
  -29.6343  -11.5787   19.1243 C   0  0  0  0  0  0  0  0  0  0  0  0
  -20.1934  -30.1513   20.7083 C   0  0  0  0  0  0  0  0  0  0  0  0
  -28.1839  -11.4832   19.6033 C   0  0  0  0  0  0  0  0  0  0  0  0
  -30.5173  -12.3124   20.1321 C   0  0  0  0  0  0  0  0  0  0  0  0
  -28.5743  -13.5378   21.0222 C   0  0  0  0  0  0  0  0  0  0  0  0
  -20.2245  -29.0758   21.8009 C   0  0  1  0  0  0  0  0  0  0  0  0
  -23.6789  -29.0675   23.3822 C   0  0  1  0  0  0  0  0  0  0  0  0
  -27.6329  -12.8638   20.0106 C   0  0  2  0  0  0  0  0  0  0  0  0
  -30.7035  -32.1778   22.3903 C   0  0  0  0  0  0  0  0  0  0  0  0
  -25.0811  -30.6126   19.2583 C   0  0  0  0  0  0  0  0  0  0  0  0
  -27.4725  -31.3438   19.1366 C   0  0  0  0  0  0  0  0  0  0  0  0
  -25.7928  -32.7677   20.3087 C   0  0  0  0  0  0  0  0  0  0  0  0
  -29.5773  -29.9893   25.2917 C   0  0  0  0  0  0  0  0  0  0  0  0
  -26.5505  -30.6072   21.3812 C   0  0  1  0  0  0  0  0  0  0  0  0
  -29.6962  -31.4940   23.3016 C   0  0  2  0  0  0  0  0  0  0  0  0
  -26.2172  -31.3085   20.0342 C   0  0  0  0  0  0  0  0  0  0  0  0
  -25.8313  -11.6622   21.1902 N   0  0  0  0  0  0  0  0  0  0  0  0
  -26.2110  -12.7703   20.5314 N   0  0  0  0  0  0  0  0  0  0  0  0
  -29.5382  -20.5523   22.0481 N   0  0  0  0  0  0  0  0  0  0  0  0
  -24.9458  -29.2296   22.6660 N   0  0  0  0  0  0  0  0  0  0  0  0
  -29.9350  -13.6136   20.4676 N   0  0  0  0  0  0  0  0  0  0  0  0
  -25.4374  -14.8791   19.7795 N   0  0  0  0  0  0  0  0  0  0  0  0
  -21.8232  -13.1157   21.8347 N   0  0  0  0  0  0  0  0  0  0  0  0
  -30.0158  -15.9682   20.5760 N   0  0  0  0  0  0  0  0  0  0  0  0
  -21.3780  -29.2573   22.6560 N   0  0  0  0  0  0  0  0  0  0  0  0
  -27.6044  -31.2604   22.1502 N   0  0  0  0  0  0  0  0  0  0  0  0
  -30.4442  -30.6973   24.3149 N   0  3  0  0  0  0  0  0  0  0  0  0
  -30.8307  -22.4151   22.7405 O   0  0  0  0  0  0  0  0  0  0  0  0
  -22.6051  -14.9364   20.6805 O   0  0  0  0  0  0  0  0  0  0  0  0
  -22.9340  -28.1133   21.3550 O   0  0  0  0  0  0  0  0  0  0  0  0
  -24.8032  -31.5568   22.6742 O   0  0  0  0  0  0  0  0  0  0  0  0
  -29.0230  -29.4285   22.2444 O   0  0  0  0  0  0  0  0  0  0  0  0
  -31.8259  -14.7535   19.7825 O   0  0  0  0  0  0  0  0  0  0  0  0
  -21.5493   -8.1362   24.3177 O   0  0  0  0  0  0  0  0  0  0  0  0
  -26.3088  -23.2171   22.8792 O   0  0  0  0  0  0  0  0  0  1  0  0
  -21.9117   -2.8701   22.7238 F   0  0  0  0  0  0  0  0  0  0  0  0
  -19.3103   -6.7535   23.4705 F   0  0  0  0  0  0  0  0  0  0  0  0
  -28.4433  -18.1839   21.1580 F   0  0  0  0  0  0  0  0  0  0  0  0
  1  2  1  0  0  0  0
  1  6  2  0  0  0  0
  2  7  2  0  0  0  0
  3  9  2  0  0  0  0
  3 10  1  0  0  0  0
  4 11  2  0  0  0  0
  4 18  1  0  0  0  0
  5 12  1  0  0  0  0
  5 18  2  0  0  0  0
  6 20  1  0  0  0  0
  7 22  1  0  0  0  0
  8 13  2  0  0  0  0
  8 21  1  0  0  0  0
  9 24  1  0  0  0  0
 10 25  2  0  0  0  0
 11 26  1  0  0  0  0
 12 26  2  0  0  0  0
 13 27  1  0  0  0  0
 14 15  2  0  0  0  0
 14 28  1  0  0  0  0
 15 29  1  0  0  0  0
 16 23  1  0  0  0  0
 16 27  2  0  0  0  0
 17 29  2  0  0  0  0
 17 30  1  0  0  0  0
 18 32  1  0  0  0  0
 19 32  1  0  0  0  0
 19 33  2  0  0  0  0
 19 37  1  0  0  0  0
 20 22  2  0  0  0  0
 20 42  1  0  0  0  0
 21 23  2  0  0  0  0
 21 43  1  0  0  0  0
 22 52  1  0  0  0  0
 23 44  1  0  0  0  0
 24 31  2  0  0  0  0
 24 65  1  0  0  0  0
 25 31  1  0  0  0  0
 25 70  1  0  0  0  0
 26 80  1  0  0  0  0
 27 81  1  0  0  0  0
 28 30  2  0  0  0  0
 28 80  1  0  0  0  0
 29 82  1  0  0  0  0
 30 83  1  0  0  0  0
 31 84  1  0  0  0  0
 32 63  2  0  0  0  0
 33 64  1  0  0  0  0
 33 68  1  0  0  0  0
 34 35  1  0  0  0  0
 34 36  2  0  0  0  0
 34 45  1  0  0  0  0
 35 65  1  0  0  0  0
 35 74  2  0  0  0  0
 36 81  1  0  0  0  0
 37 69  1  0  0  0  0
 37 75  2  0  0  0  0
 38 53  1  0  0  0  0
 38 71  1  0  0  0  0
 38 76  2  0  0  0  0
 39 60  1  0  0  0  0
 39 66  1  0  0  0  0
 39 77  2  0  0  0  0
 40 61  1  0  0  0  0
 40 72  1  0  0  0  0
 40 78  2  0  0  0  0
 41 67  1  0  0  0  0
 41 70  1  0  0  0  0
 41 79  2  0  0  0  0
 42 46  1  0  0  0  0
 43 53  1  0  0  0  0
 44 66  1  0  0  0  0
 45 65  1  0  0  0  0
 46 48  1  0  0  0  0
 47 49  1  0  0  0  0
 47 50  1  0  0  0  0
 48 52  1  0  0  0  0
 49 54  1  0  0  0  0
 50 67  1  0  0  0  0
 51 54  1  0  0  0  0
 51 67  1  0  0  0  0
 52 71  1  0  0  0  0
 53 66  1  0  0  0  0
 54 64  1  0  0  0  0
 55 61  1  0  0  0  0
 56 62  1  0  0  0  0
 57 62  1  0  0  0  0
 58 62  1  0  0  0  0
 59 73  1  0  0  0  0
 60 62  1  0  0  0  0
 60 72  1  0  0  0  0
 61 73  1  0  0  0  0
 63 64  1  0  0  0  0
M  CHG  1  73   1
M  ISO  4  36 101  41 100  70 100  81 101
M  END
> <Batch ID>
0086

> <Smiles>
CNC(C)C(=O)NC(C(=O)N1Cc2cc([101O:1][101CH:1]=C3CN(c4cccc([100NH:0][100C:0](=O)N5CCCC(n6nc(-c7ccc(Oc8ccc(F)cc8F)cc7)c(C(N)=O)c6N)C5)c4F)C3=O)ccc2CC1C(=O)NC1CCCc2ccccc21)C(C)(C)C

> <Shape>
0.280

> <Color>
0.190

> <Negative vol penalty>
0.000

$$$$

  -OEChem-04052300173D

 85 94  0     1  0  0  0  0  0999 V2000
  -28.9639  -36.9426   19.5723 C   0  0  0  0  0  0  0  0  0  0  0  0
  -29.2454  -35.5809   19.5283 C   0  0  0  0  0  0  0  0  0  0  0  0
  -23.7423   -8.7798   19.7191 C   0  0  0  0  0  0  0  0  0  0  0  0
  -23.3146  -10.2918   21.5543 C   0  0  0  0  0  0  0  0  0  0  0  0
  -28.0157  -37.4286   20.4715 C   0  0  0  0  0  0  0  0  0  0  0  0
  -28.5796  -34.7045   20.3844 C   0  0  0  0  0  0  0  0  0  0  0  0
  -26.8870  -28.9458   19.1687 C   0  0  0  0  0  0  0  0  0  0  0  0
  -30.3953  -19.5896   20.7444 C   0  0  0  0  0  0  0  0  0  0  0  0
  -30.3182  -18.2230   20.4760 C   0  0  0  0  0  0  0  0  0  0  0  0
  -22.9823   -7.7964   20.3522 C   0  0  0  0  0  0  0  0  0  0  0  0
  -22.5544   -9.3084   22.1873 C   0  0  0  0  0  0  0  0  0  0  0  0
  -27.4637  -27.7140   19.4752 C   0  0  0  0  0  0  0  0  0  0  0  0
  -19.4395   -8.0224   21.9340 C   0  0  0  0  0  0  0  0  0  0  0  0
  -18.2158   -8.4048   22.4833 C   0  0  0  0  0  0  0  0  0  0  0  0
  -26.0344  -27.5330   21.4100 C   0  0  0  0  0  0  0  0  0  0  0  0
  -29.9283  -23.7396   21.6188 C   0  0  0  0  0  0  0  0  0  0  0  0
  -28.1865  -19.8968   19.8150 C   0  0  0  0  0  0  0  0  0  0  0  0
  -18.9762   -7.7024   24.6664 C   0  0  0  0  0  0  0  0  0  0  0  0
  -28.7817  -22.7660   19.9433 C   0  0  0  0  0  0  0  0  0  0  0  0
  -23.9086  -10.0275   20.3202 C   0  0  0  0  0  0  0  0  0  0  0  0
  -24.2382  -12.0175   18.7585 C   0  0  0  0  0  0  0  0  0  0  0  0
  -27.3309  -36.5564   21.3323 C   0  0  0  0  0  0  0  0  0  0  0  0
  -25.8856  -29.4864   19.9880 C   0  0  0  0  0  0  0  0  0  0  0  0
  -27.6223  -35.1794   21.2969 C   0  0  0  0  0  0  0  0  0  0  0  0
  -25.4448  -28.7706   21.1103 C   0  0  0  0  0  0  0  0  0  0  0  0
  -29.0890  -23.9859   20.5043 C   0  0  0  0  0  0  0  0  0  0  0  0
  -29.3294  -20.4265   20.4140 C   0  0  0  0  0  0  0  0  0  0  0  0
  -29.1753  -17.6933   19.8770 C   0  0  0  0  0  0  0  0  0  0  0  0
  -22.3883   -8.0607   21.5862 C   0  0  0  0  0  0  0  0  0  0  0  0
  -27.0395  -27.0088   20.5976 C   0  0  0  0  0  0  0  0  0  0  0  0
  -20.4316   -7.4799   22.7509 C   0  0  0  0  0  0  0  0  0  0  0  0
  -17.9841   -8.2449   23.8495 C   0  0  0  0  0  0  0  0  0  0  0  0
  -28.1094  -18.5302   19.5465 C   0  0  0  0  0  0  0  0  0  0  0  0
  -20.1999   -7.3199   24.1170 C   0  0  0  0  0  0  0  0  0  0  0  0
  -24.6941  -11.0436   19.6670 C   0  0  0  0  0  0  0  0  0  0  0  0
  -25.3628  -12.7347   18.4309 C   0  0  0  0  0  0  0  0  0  0  0  0
  -30.1085  -22.3767   21.7048 C   0  0  0  0  0  0  0  0  0  0  0  0
  -22.9162  -12.2530   18.2558 C   0  0  0  0  0  0  0  0  0  0  0  0
  -25.6076  -32.1157   21.7525 C   0  0  0  0  0  0  0  0  0  0  0  0
  -22.5629  -31.0654   22.1384 C   0  0  0  0  0  0  0  0  0  0  0  0
  -20.3795  -28.4425   22.1266 C   0  0  0  0  0  0  0  0  0  0  0  0
  -30.0699  -15.3384   19.8685 C   0  0  0  0  0  0  0  0  0  0  0  0
  -26.3485  -37.1343   22.3201 C   0  0  0  0  0  0  0  0  0  0  0  0
  -25.2548  -30.8037   19.6287 C   0  0  0  0  0  0  0  0  0  0  0  0
  -24.3587  -29.2979   22.0108 C   0  0  0  0  0  0  0  0  0  0  0  0
  -25.4165  -36.0921   22.9329 C   0  0  0  0  0  0  0  0  0  0  0  0
  -30.2487  -11.8158   19.3824 C   0  0  0  0  0  0  0  0  0  0  0  0
  -26.2069  -34.8670   23.3814 C   0  0  0  0  0  0  0  0  0  0  0  0
  -28.7820  -11.3809   19.3384 C   0  0  0  0  0  0  0  0  0  0  0  0
  -30.4762  -12.9426   20.3884 C   0  0  0  0  0  0  0  0  0  0  0  0
  -28.1333  -13.6744   20.1786 C   0  0  0  0  0  0  0  0  0  0  0  0
  -26.9031  -34.1939   22.1923 C   0  0  1  0  0  0  0  0  0  0  0  0
  -24.6034  -31.4990   20.8202 C   0  0  1  0  0  0  0  0  0  0  0  0
  -27.8430  -12.5857   19.1326 C   0  0  2  0  0  0  0  0  0  0  0  0
  -17.9630  -27.8892   22.5165 C   0  0  0  0  0  0  0  0  0  0  0  0
  -22.9997  -31.2904   25.1498 C   0  0  0  0  0  0  0  0  0  0  0  0
  -20.9702  -29.8622   25.4806 C   0  0  0  0  0  0  0  0  0  0  0  0
  -20.7628  -32.0803   24.3583 C   0  0  0  0  0  0  0  0  0  0  0  0
  -20.0361  -27.4644   19.3546 C   0  0  0  0  0  0  0  0  0  0  0  0
  -28.6201  -25.3274   20.0228 C   0  0  0  0  0  0  0  0  0  1  0  0
  -21.8595  -30.1650   23.1251 C   0  0  1  0  0  0  0  0  0  0  0  0
  -19.0140  -28.2715   21.4859 C   0  0  2  0  0  0  0  0  0  0  0  0
  -21.6699  -30.8402   24.5128 C   0  0  0  0  0  0  0  0  0  0  0  0
  -26.0061  -11.1311   19.9014 N   0  0  0  0  0  0  0  0  0  0  0  0
  -29.4072  -21.7951   20.6810 N   0  0  0  0  0  0  0  0  0  0  0  0
  -26.3843  -12.1685   19.1353 N   0  0  0  0  0  0  0  0  0  0  0  0
  -23.7774  -30.5931   21.6210 N   0  0  0  0  0  0  0  0  0  0  0  0
  -29.5547  -14.0510   20.1293 N   0  0  0  0  0  0  0  0  0  0  0  0
  -25.5678  -13.7879   17.6117 N   0  0  0  0  0  0  0  0  0  0  0  0
  -21.8763  -11.4230   18.6962 N   0  0  0  0  0  0  0  0  0  0  0  0
  -29.1001  -16.3049   19.6043 N   0  0  0  0  0  0  0  0  0  0  0  0
  -25.9547  -33.4130   21.4273 N   0  0  0  0  0  0  0  0  0  0  0  0
  -20.6145  -29.7528   22.4860 N   0  0  0  0  0  0  0  0  0  0  0  0
  -19.0602  -27.2064   20.4445 N   0  3  0  0  0  0  0  0  0  0  0  0
  -22.6677  -13.1617   17.4276 O   0  0  0  0  0  0  0  0  0  0  0  0
  -26.0347  -31.4632   22.6978 O   0  0  0  0  0  0  0  0  0  0  0  0
  -22.0499  -32.1447   21.8324 O   0  0  0  0  0  0  0  0  0  0  0  0
  -21.1581  -27.5067   22.2951 O   0  0  0  0  0  0  0  0  0  0  0  0
  -31.2833  -15.5607   19.8520 O   0  0  0  0  0  0  0  0  0  0  0  0
  -30.8077  -21.6525   22.5703 O   0  0  0  0  0  0  0  0  0  0  0  0
  -21.6463   -7.1014   22.2042 O   0  0  0  0  0  0  0  0  0  0  0  0
  -27.6012  -25.8066   20.8994 O   0  0  0  0  0  0  0  0  0  1  0  0
  -16.8094   -8.6136   24.3771 F   0  0  0  0  0  0  0  0  0  0  0  0
  -27.0067  -18.0322   18.9690 F   0  0  0  0  0  0  0  0  0  0  0  0
  -21.1496   -6.8004   24.9070 F   0  0  0  0  0  0  0  0  0  0  0  0
  1  2  1  0  0  0  0
  1  5  2  0  0  0  0
  2  6  2  0  0  0  0
  3 10  2  0  0  0  0
  3 20  1  0  0  0  0
  4 11  1  0  0  0  0
  4 20  2  0  0  0  0
  5 22  1  0  0  0  0
  6 24  1  0  0  0  0
  7 12  2  0  0  0  0
  7 23  1  0  0  0  0
  8  9  2  0  0  0  0
  8 27  1  0  0  0  0
  9 28  1  0  0  0  0
 10 29  1  0  0  0  0
 11 29  2  0  0  0  0
 12 30  1  0  0  0  0
 13 14  2  0  0  0  0
 13 31  1  0  0  0  0
 14 32  1  0  0  0  0
 15 25  1  0  0  0  0
 15 30  2  0  0  0  0
 16 26  1  0  0  0  0
 16 37  2  0  0  0  0
 17 27  2  0  0  0  0
 17 33  1  0  0  0  0
 18 32  2  0  0  0  0
 18 34  1  0  0  0  0
 19 26  2  0  0  0  0
 19 65  1  0  0  0  0
 20 35  1  0  0  0  0
 21 35  1  0  0  0  0
 21 36  2  0  0  0  0
 21 38  1  0  0  0  0
 22 24  2  0  0  0  0
 22 43  1  0  0  0  0
 23 25  2  0  0  0  0
 23 44  1  0  0  0  0
 24 52  1  0  0  0  0
 25 45  1  0  0  0  0
 26 60  1  0  0  0  0
 27 65  1  0  0  0  0
 28 33  2  0  0  0  0
 28 71  1  0  0  0  0
 29 81  1  0  0  0  0
 30 82  1  0  0  0  0
 31 34  2  0  0  0  0
 31 81  1  0  0  0  0
 32 83  1  0  0  0  0
 33 84  1  0  0  0  0
 34 85  1  0  0  0  0
 35 64  2  0  0  0  0
 36 66  1  0  0  0  0
 36 69  1  0  0  0  0
 37 65  1  0  0  0  0
 37 80  1  0  0  0  0
 38 70  1  0  0  0  0
 38 75  2  0  0  0  0
 39 53  1  0  0  0  0
 39 72  1  0  0  0  0
 39 76  2  0  0  0  0
 40 61  1  0  0  0  0
 40 67  1  0  0  0  0
 40 77  2  0  0  0  0
 41 62  1  0  0  0  0
 41 73  1  0  0  0  0
 41 78  2  0  0  0  0
 42 68  1  0  0  0  0
 42 71  1  0  0  0  0
 42 79  2  0  0  0  0
 43 46  1  0  0  0  0
 44 53  1  0  0  0  0
 45 67  1  0  0  0  0
 46 48  1  0  0  0  0
 47 49  1  0  0  0  0
 47 50  1  0  0  0  0
 48 52  1  0  0  0  0
 49 54  1  0  0  0  0
 50 68  1  0  0  0  0
 51 54  1  0  0  0  0
 51 68  1  0  0  0  0
 52 72  1  0  0  0  0
 53 67  1  0  0  0  0
 54 66  1  0  0  0  0
 55 62  1  0  0  0  0
 56 63  1  0  0  0  0
 57 63  1  0  0  0  0
 58 63  1  0  0  0  0
 59 74  1  0  0  0  0
 60 82  1  0  0  0  0
 61 63  1  0  0  0  0
 61 73  1  0  0  0  0
 62 74  1  0  0  0  0
 64 66  1  0  0  0  0
M  CHG  1  74   1
M  ISO  4  42 100  60 101  71 100  82 101
M  END
> <Batch ID>
0086

> <Smiles>
CNC(C)C(=O)NC(C(=O)N1Cc2cc([101O:1][101CH2:1]C3=CN(c4ccc([100NH:0][100C:0](=O)N5CCCC(n6nc(-c7ccc(Oc8ccc(F)cc8F)cc7)c(C(N)=O)c6N)C5)c(F)c4)C(=O)C3)ccc2CC1C(=O)NC1CCCc2ccccc21)C(C)(C)C

> <Shape>
0.308

> <Color>
0.109

> <Negative vol penalty>
0.000

$$$$

  -OEChem-04052300173D

 88 97  0     1  0  0  0  0  0999 V2000
  -28.9579  -37.1155   20.7018 C   0  0  0  0  0  0  0  0  0  0  0  0
  -29.2079  -35.7935   20.3479 C   0  0  0  0  0  0  0  0  0  0  0  0
  -23.8692   -9.5545   21.9732 C   0  0  0  0  0  0  0  0  0  0  0  0
  -25.8363   -8.3996   21.1769 C   0  0  0  0  0  0  0  0  0  0  0  0
  -26.9000  -18.5875   18.8984 C   0  0  0  0  0  0  0  0  0  0  0  0
  -28.1241  -37.4010   21.7822 C   0  0  0  0  0  0  0  0  0  0  0  0
  -28.6251  -34.7561   21.0749 C   0  0  0  0  0  0  0  0  0  0  0  0
  -26.7034  -29.3632   18.9004 C   0  0  0  0  0  0  0  0  0  0  0  0
  -27.6471  -19.7056   19.2690 C   0  0  0  0  0  0  0  0  0  0  0  0
  -23.1412   -8.3672   21.8967 C   0  0  0  0  0  0  0  0  0  0  0  0
  -25.1082   -7.2123   21.1005 C   0  0  0  0  0  0  0  0  0  0  0  0
  -27.2879  -28.0976   18.8808 C   0  0  0  0  0  0  0  0  0  0  0  0
  -22.7760   -5.5470   23.7258 C   0  0  0  0  0  0  0  0  0  0  0  0
  -21.9503   -5.2224   24.8022 C   0  0  0  0  0  0  0  0  0  0  0  0
  -26.6958  -19.4668   16.6574 C   0  0  0  0  0  0  0  0  0  0  0  0
  -26.0787  -27.5146   20.8850 C   0  0  0  0  0  0  0  0  0  0  0  0
  -20.0315   -5.2355   23.3342 C   0  0  0  0  0  0  0  0  0  0  0  0
  -25.2168   -9.5707   21.6132 C   0  0  0  0  0  0  0  0  0  0  0  0
  -26.4244  -18.4681   17.5925 C   0  0  0  0  0  0  0  0  0  0  0  0
  -26.6987  -11.2778   22.7953 C   0  0  0  0  0  0  0  0  0  0  0  0
  -27.5231  -36.3667   22.5168 C   0  0  0  0  0  0  0  0  0  0  0  0
  -25.8089  -29.7183   19.9203 C   0  0  0  0  0  0  0  0  0  0  0  0
  -27.7836  -35.0280   22.1670 C   0  0  0  0  0  0  0  0  0  0  0  0
  -25.4822  -28.7844   20.9139 C   0  0  0  0  0  0  0  0  0  0  0  0
  -27.9185  -20.7043   18.3338 C   0  0  0  0  0  0  0  0  0  0  0  0
  -23.7606   -7.1961   21.4604 C   0  0  0  0  0  0  0  0  0  0  0  0
  -26.9779  -27.1741   19.8748 C   0  0  0  0  0  0  0  0  0  0  0  0
  -22.2294   -5.7159   22.4536 C   0  0  0  0  0  0  0  0  0  0  0  0
  -20.5781   -5.0666   24.6064 C   0  0  0  0  0  0  0  0  0  0  0  0
  -27.4429  -20.5849   17.0280 C   0  0  0  0  0  0  0  0  0  0  0  0
  -20.8572   -5.5601   22.2578 C   0  0  0  0  0  0  0  0  0  0  0  0
  -25.9693  -10.7970   21.6914 C   0  0  0  0  0  0  0  0  0  0  0  0
  -27.2260  -12.4708   22.3651 C   0  0  0  0  0  0  0  0  0  0  0  0
  -30.2541  -24.0504   19.3889 C   0  0  0  0  0  0  0  0  0  0  0  0
  -29.9730  -21.6723   19.1826 C   0  0  0  0  0  0  0  0  0  0  0  0
  -29.0097  -24.2869   18.9521 C   0  0  0  0  0  0  0  0  0  0  0  0
  -30.7462  -22.7091   19.5180 C   0  0  0  0  0  0  0  0  0  0  0  0
  -28.1059  -23.1278   18.6105 C   0  0  0  0  0  0  0  0  0  0  0  0
  -25.6454  -17.3024   17.2063 C   0  0  0  0  0  0  0  0  0  0  0  0
  -26.8832  -10.6979   24.0935 C   0  0  0  0  0  0  0  0  0  0  0  0
  -25.3399  -16.2274   18.1717 C   0  0  0  0  0  0  0  0  0  0  0  0
  -25.7762  -31.9261   22.2068 C   0  0  0  0  0  0  0  0  0  0  0  0
  -22.7743  -30.8036   22.7079 C   0  0  0  0  0  0  0  0  0  0  0  0
  -20.5555  -28.2286   22.4028 C   0  0  0  0  0  0  0  0  0  0  0  0
  -26.6669  -36.7237   23.7061 C   0  0  0  0  0  0  0  0  0  0  0  0
  -25.1664  -31.0783   19.9122 C   0  0  0  0  0  0  0  0  0  0  0  0
  -24.5124  -29.1094   22.0195 C   0  0  0  0  0  0  0  0  0  0  0  0
  -25.7896  -35.5729   24.1923 C   0  0  0  0  0  0  0  0  0  0  0  0
  -28.6759  -14.7307   18.4224 C   0  0  0  0  0  0  0  0  0  0  0  0
  -26.6024  -34.2857   24.2882 C   0  0  0  0  0  0  0  0  0  0  0  0
  -28.4026  -13.5599   19.3628 C   0  0  0  0  0  0  0  0  0  0  0  0
  -27.4872  -15.0179   17.5064 C   0  0  0  0  0  0  0  0  0  0  0  0
  -25.9332  -14.0593   19.1816 C   0  0  0  0  0  0  0  0  0  0  0  0
  -27.1501  -33.8756   22.9159 C   0  0  1  0  0  0  0  0  0  0  0  0
  -24.6638  -31.5098   21.2865 C   0  0  1  0  0  0  0  0  0  0  0  0
  -27.0983  -13.7828   20.1446 C   0  0  1  0  0  0  0  0  0  0  0  0
  -18.1875  -27.5948   22.9393 C   0  0  0  0  0  0  0  0  0  0  0  0
  -23.5461  -30.4054   25.6329 C   0  0  0  0  0  0  0  0  0  0  0  0
  -21.5400  -28.9296   25.8890 C   0  0  0  0  0  0  0  0  0  0  0  0
  -21.2500  -31.3303   25.2765 C   0  0  0  0  0  0  0  0  0  0  0  0
  -19.8894  -27.8411   19.5454 C   0  0  0  0  0  0  0  0  0  0  0  0
  -28.4541  -25.6551   18.7934 C   0  0  0  0  0  0  0  0  0  1  0  0
  -22.1683  -29.7157   23.5612 C   0  0  1  0  0  0  0  0  0  0  0  0
  -19.1245  -28.1865   21.8979 C   0  0  2  0  0  0  0  0  0  0  0  0
  -22.1459  -30.0895   25.0703 C   0  0  0  0  0  0  0  0  0  0  0  0
  -26.0257  -11.6176   20.6391 N   0  0  0  0  0  0  0  0  0  0  0  0
  -25.1675  -17.1260   16.0040 N   0  0  0  0  0  0  0  0  0  0  0  0
  -26.7968  -12.6262   21.0798 N   0  0  0  0  0  0  0  0  0  0  0  0
  -28.6705  -21.8290   18.7103 N   0  0  0  0  0  0  0  0  0  0  0  0
  -26.2413  -15.1692   18.2729 N   0  0  0  0  0  0  0  0  0  0  0  0
  -23.9152  -30.4542   21.9717 N   0  0  0  0  0  0  0  0  0  0  0  0
  -28.0103  -13.3917   22.9646 N   0  0  0  0  0  0  0  0  0  0  0  0
  -26.2712   -9.4674   24.3687 N   0  0  0  0  0  0  0  0  0  0  0  0
  -26.1087  -33.2644   22.1181 N   0  0  0  0  0  0  0  0  0  0  0  0
  -20.8528  -29.4379   22.9949 N   0  0  0  0  0  0  0  0  0  0  0  0
  -19.0356  -27.3592   20.6616 N   0  3  0  0  0  0  0  0  0  0  0  0
  -26.9485  -23.3464   18.2485 O   0  0  0  0  0  0  0  0  0  0  0  0
  -27.5568  -11.2623   24.9886 O   0  0  0  0  0  0  0  0  0  0  0  0
  -24.3013  -16.3299   18.8270 O   0  0  0  0  0  0  0  0  0  0  0  0
  -26.2934  -31.0950   22.9440 O   0  0  0  0  0  0  0  0  0  0  0  0
  -22.2504  -31.9203   22.6896 O   0  0  0  0  0  0  0  0  0  0  0  0
  -21.3309  -27.2820   22.2871 O   0  0  0  0  0  0  0  0  0  0  0  0
  -32.0322  -22.5900   19.9855 O   0  0  0  0  0  0  0  0  0  0  0  0
  -23.0505   -6.0373   21.3859 O   0  0  0  0  0  0  0  0  0  0  0  0
  -27.5475  -25.9383   19.8584 O   0  0  0  0  0  0  0  0  0  1  0  0
  -19.7856   -4.7534   25.6398 F   0  0  0  0  0  0  0  0  0  0  0  0
  -27.6971  -21.5388   16.1206 F   0  0  0  0  0  0  0  0  0  0  0  0
  -20.3264   -5.7199   21.0378 F   0  0  0  0  0  0  0  0  0  0  0  0
  1  2  1  0  0  0  0
  1  6  2  0  0  0  0
  2  7  2  0  0  0  0
  3 10  2  0  0  0  0
  3 18  1  0  0  0  0
  4 11  1  0  0  0  0
  4 18  2  0  0  0  0
  5  9  2  0  0  0  0
  5 19  1  0  0  0  0
  6 21  1  0  0  0  0
  7 23  1  0  0  0  0
  8 12  2  0  0  0  0
  8 22  1  0  0  0  0
  9 25  1  0  0  0  0
 10 26  1  0  0  0  0
 11 26  2  0  0  0  0
 12 27  1  0  0  0  0
 13 14  2  0  0  0  0
 13 28  1  0  0  0  0
 14 29  1  0  0  0  0
 15 19  2  0  0  0  0
 15 30  1  0  0  0  0
 16 24  1  0  0  0  0
 16 27  2  0  0  0  0
 17 29  2  0  0  0  0
 17 31  1  0  0  0  0
 18 32  1  0  0  0  0
 19 39  1  0  0  0  0
 20 32  1  0  0  0  0
 20 33  2  0  0  0  0
 20 40  1  0  0  0  0
 21 23  2  0  0  0  0
 21 45  1  0  0  0  0
 22 24  2  0  0  0  0
 22 46  1  0  0  0  0
 23 54  1  0  0  0  0
 24 47  1  0  0  0  0
 25 30  2  0  0  0  0
 25 69  1  0  0  0  0
 26 84  1  0  0  0  0
 27 85  1  0  0  0  0
 28 31  2  0  0  0  0
 28 84  1  0  0  0  0
 29 86  1  0  0  0  0
 30 87  1  0  0  0  0
 31 88  1  0  0  0  0
 32 66  2  0  0  0  0
 33 68  1  0  0  0  0
 33 72  1  0  0  0  0
 34 36  2  0  0  0  0
 34 37  1  0  0  0  0
 35 37  2  0  0  0  0
 35 69  1  0  0  0  0
 36 38  1  0  0  0  0
 36 62  1  0  0  0  0
 37 83  1  0  0  0  0
 38 69  1  0  0  0  0
 38 77  2  0  0  0  0
 39 41  1  0  0  0  0
 39 67  2  0  0  0  0
 40 73  1  0  0  0  0
 40 78  2  0  0  0  0
 41 70  1  0  0  0  0
 41 79  2  0  0  0  0
 42 55  1  0  0  0  0
 42 74  1  0  0  0  0
 42 80  2  0  0  0  0
 43 63  1  0  0  0  0
 43 71  1  0  0  0  0
 43 81  2  0  0  0  0
 44 64  1  0  0  0  0
 44 75  1  0  0  0  0
 44 82  2  0  0  0  0
 45 48  1  0  0  0  0
 46 55  1  0  0  0  0
 47 71  1  0  0  0  0
 48 50  1  0  0  0  0
 49 51  1  0  0  0  0
 49 52  1  0  0  0  0
 50 54  1  0  0  0  0
 51 56  1  0  0  0  0
 52 70  1  0  0  0  0
 53 56  1  0  0  0  0
 53 70  1  0  0  0  0
 54 74  1  0  0  0  0
 55 71  1  0  0  0  0
 56 68  1  0  0  0  0
 57 64  1  0  0  0  0
 58 65  1  0  0  0  0
 59 65  1  0  0  0  0
 60 65  1  0  0  0  0
 61 76  1  0  0  0  0
 62 85  1  0  0  0  0
 63 65  1  0  0  0  0
 63 75  1  0  0  0  0
 64 76  1  0  0  0  0
 66 68  1  0  0  0  0
M  CHG  1  76   1
M  ISO  4  39 100  41 100  62 101  85 101
M  END
> <Batch ID>
0086

> <Smiles>
CNC(C)C(=O)NC(C(=O)N1Cc2cc([101O:1][101CH:1]=C3CC(=O)CN(c4ccc([100C:0](=N)[100C:0](=O)N5CCCC(n6nc(-c7ccc(Oc8ccc(F)cc8F)cc7)c(C(N)=O)c6N)C5)cc4F)C3=O)ccc2CC1C(=O)NC1CCCc2ccccc21)C(C)(C)C

> <Shape>
0.276

> <Color>
0.086

> <Negative vol penalty>
0.000

$$$$

  -OEChem-04052300173D

 87 96  0     1  0  0  0  0  0999 V2000
  -31.2155  -26.3531   18.1873 C   0  0  0  0  0  0  0  0  0  0  0  0
  -30.2333  -25.3972   18.4263 C   0  0  0  0  0  0  0  0  0  0  0  0
  -22.6310  -16.5711   26.6362 C   0  0  0  0  0  0  0  0  0  0  0  0
  -27.4628  -17.0079   19.0009 C   0  0  0  0  0  0  0  0  0  0  0  0
  -27.8393  -16.9978   21.3873 C   0  0  0  0  0  0  0  0  0  0  0  0
  -22.5718  -15.3068   26.0499 C   0  0  0  0  0  0  0  0  0  0  0  0
  -31.2574  -27.5151   18.9566 C   0  0  0  0  0  0  0  0  0  0  0  0
  -29.2932  -25.6024   19.4355 C   0  0  0  0  0  0  0  0  0  0  0  0
  -23.4198  -23.8681   19.4033 C   0  0  0  0  0  0  0  0  0  0  0  0
  -21.9041  -17.6284   26.0890 C   0  0  0  0  0  0  0  0  0  0  0  0
  -28.0953  -18.2474   18.9063 C   0  0  0  0  0  0  0  0  0  0  0  0
  -28.4718  -18.2374   21.2928 C   0  0  0  0  0  0  0  0  0  0  0  0
  -22.7619  -22.7733   19.9623 C   0  0  0  0  0  0  0  0  0  0  0  0
  -29.8665  -21.5648   21.7324 C   0  0  0  0  0  0  0  0  0  0  0  0
  -29.5317  -22.5371   22.6748 C   0  0  0  0  0  0  0  0  0  0  0  0
  -21.0588  -16.1571   24.3691 C   0  0  0  0  0  0  0  0  0  0  0  0
  -22.1661  -24.1160   21.8758 C   0  0  0  0  0  0  0  0  0  0  0  0
  -27.2309  -22.4547   21.9423 C   0  0  0  0  0  0  0  0  0  0  0  0
  -27.3347  -16.3830   20.2414 C   0  0  0  0  0  0  0  0  0  0  0  0
  -21.7857  -15.0998   24.9164 C   0  0  0  0  0  0  0  0  0  0  0  0
  -27.2797  -13.8326   20.2402 C   0  0  0  0  0  0  0  0  0  0  0  0
  -30.3115  -27.7391   19.9693 C   0  0  0  0  0  0  0  0  0  0  0  0
  -23.4651  -25.0941   20.0825 C   0  0  0  0  0  0  0  0  0  0  0  0
  -29.3234  -26.7679   20.2199 C   0  0  0  0  0  0  0  0  0  0  0  0
  -22.8230  -25.2255   21.3221 C   0  0  0  0  0  0  0  0  0  0  0  0
  -21.1180  -17.4213   24.9554 C   0  0  0  0  0  0  0  0  0  0  0  0
  -28.5999  -18.8622   20.0522 C   0  0  0  0  0  0  0  0  0  0  0  0
  -22.1374  -22.8963   21.2000 C   0  0  0  0  0  0  0  0  0  0  0  0
  -28.8835  -21.0375   20.8949 C   0  0  0  0  0  0  0  0  0  0  0  0
  -28.2139  -22.9820   22.7798 C   0  0  0  0  0  0  0  0  0  0  0  0
  -27.5657  -21.4824   20.9999 C   0  0  0  0  0  0  0  0  0  0  0  0
  -26.6809  -15.1028   20.3398 C   0  0  0  0  0  0  0  0  0  0  0  0
  -26.2402  -12.9495   20.4013 C   0  0  0  0  0  0  0  0  0  0  0  0
  -18.8623  -20.6234   23.3986 C   0  0  0  0  0  0  0  0  0  0  0  0
  -18.9973  -18.4034   24.3102 C   0  0  0  0  0  0  0  0  0  0  0  0
  -20.1921  -20.7793   23.4471 C   0  0  0  0  0  0  0  0  0  0  0  0
  -18.2485  -19.4009   23.8310 C   0  0  0  0  0  0  0  0  0  0  0  0
  -21.0585  -19.6479   23.9436 C   0  0  0  0  0  0  0  0  0  0  0  0
  -21.7249  -13.7812   24.3063 C   0  0  0  0  0  0  0  0  0  0  0  0
  -28.6527  -13.4824   20.0217 C   0  0  0  0  0  0  0  0  0  0  0  0
  -20.9009  -13.5257   23.1026 C   0  0  0  0  0  0  0  0  0  0  0  0
  -25.7834  -26.9171   21.2683 C   0  0  0  0  0  0  0  0  0  0  0  0
  -23.3435  -28.9812   21.8241 C   0  0  0  0  0  0  0  0  0  0  0  0
  -19.9998  -29.4476   22.3228 C   0  0  0  0  0  0  0  0  0  0  0  0
  -30.4258  -28.9887   20.8060 C   0  0  0  0  0  0  0  0  0  0  0  0
  -24.1559  -26.2730   19.4537 C   0  0  0  0  0  0  0  0  0  0  0  0
  -22.8253  -26.5256   22.0825 C   0  0  0  0  0  0  0  0  0  0  0  0
  -29.1652  -29.3024   21.6077 C   0  0  0  0  0  0  0  0  0  0  0  0
  -21.5326  -12.5251   19.7178 C   0  0  0  0  0  0  0  0  0  0  0  0
  -28.6512  -28.0479   22.3069 C   0  0  0  0  0  0  0  0  0  0  0  0
  -22.9670  -12.9926   19.4733 C   0  0  0  0  0  0  0  0  0  0  0  0
  -20.7841  -13.4799   20.6423 C   0  0  0  0  0  0  0  0  0  0  0  0
  -22.9086  -14.1833   21.7103 C   0  0  0  0  0  0  0  0  0  0  0  0
  -28.2709  -26.9657   21.2892 C   0  0  1  0  0  0  0  0  0  0  0  0
  -24.5791  -27.3293   20.4698 C   0  0  1  0  0  0  0  0  0  0  0  0
  -23.7048  -13.2293   20.8031 C   0  0  2  0  0  0  0  0  0  0  0  0
  -18.3091  -31.2426   22.7884 C   0  0  0  0  0  0  0  0  0  0  0  0
  -24.2648  -29.0917   24.7308 C   0  0  0  0  0  0  0  0  0  0  0  0
  -22.0486  -30.0951   25.3223 C   0  0  0  0  0  0  0  0  0  0  0  0
  -23.5849  -31.2971   23.7674 C   0  0  0  0  0  0  0  0  0  0  0  0
  -18.5458  -28.8926   19.8055 C   0  0  0  0  0  0  0  0  0  0  0  0
  -20.8769  -22.0259   23.0192 C   0  0  0  0  0  0  0  0  0  1  0  0
  -22.3852  -29.2212   22.9655 C   0  0  1  0  0  0  0  0  0  0  0  0
  -19.0184  -30.4329   21.7141 C   0  0  2  0  0  0  0  0  0  0  0  0
  -23.0723  -29.9011   24.1833 C   0  0  0  0  0  0  0  0  0  0  0  0
  -25.3632  -15.0369   20.5479 N   0  0  0  0  0  0  0  0  0  0  0  0
  -22.3801  -12.7486   24.7642 N   0  0  0  0  0  0  0  0  0  0  0  0
  -25.1253  -13.7146   20.5803 N   0  0  0  0  0  0  0  0  0  0  0  0
  -20.3860  -18.4858   24.4048 N   0  0  0  0  0  0  0  0  0  0  0  0
  -21.5286  -13.7107   21.8787 N   0  0  0  0  0  0  0  0  0  0  0  0
  -23.5194  -27.6475   21.4289 N   0  0  0  0  0  0  0  0  0  0  0  0
  -26.1801  -11.6008   20.4058 N   0  0  0  0  0  0  0  0  0  0  0  0
  -29.5905  -14.5139   19.8774 N   0  0  0  0  0  0  0  0  0  0  0  0
  -26.9886  -27.2649   20.6887 N   0  0  0  0  0  0  0  0  0  0  0  0
  -21.2693  -29.9787   22.4093 N   0  0  0  0  0  0  0  0  0  0  0  0
  -17.9894  -29.7113   20.9133 N   0  3  0  0  0  0  0  0  0  0  0  0
  -22.2839  -19.7785   23.9486 O   0  0  0  0  0  0  0  0  0  0  0  0
  -29.0340  -12.2901   19.9400 O   0  0  0  0  0  0  0  0  0  0  0  0
  -19.7474  -13.1771   23.3174 O   0  0  0  0  0  0  0  0  0  0  0  0
  -25.6304  -26.3285   22.3321 O   0  0  0  0  0  0  0  0  0  0  0  0
  -23.9097  -29.9425   21.2976 O   0  0  0  0  0  0  0  0  0  0  0  0
  -19.6722  -28.3210   22.6886 O   0  0  0  0  0  0  0  0  0  0  0  0
  -16.8799  -19.3528   23.7247 O   0  0  0  0  0  0  0  0  0  0  0  0
  -29.2174  -20.0717   19.9603 O   0  0  0  0  0  0  0  0  0  0  0  0
  -21.4952  -21.8291   21.7482 O   0  0  0  0  0  0  0  0  0  1  0  0
  -27.8922  -23.9146   23.6859 F   0  0  0  0  0  0  0  0  0  0  0  0
  -26.6168  -20.9787   20.1989 F   0  0  0  0  0  0  0  0  0  0  0  0
  1  2  1  0  0  0  0
  1  7  2  0  0  0  0
  2  8  2  0  0  0  0
  3  6  1  0  0  0  0
  3 10  2  0  0  0  0
  4 11  2  0  0  0  0
  4 19  1  0  0  0  0
  5 12  1  0  0  0  0
  5 19  2  0  0  0  0
  6 20  2  0  0  0  0
  7 22  1  0  0  0  0
  8 24  1  0  0  0  0
  9 13  2  0  0  0  0
  9 23  1  0  0  0  0
 10 26  1  0  0  0  0
 11 27  1  0  0  0  0
 12 27  2  0  0  0  0
 13 28  1  0  0  0  0
 14 15  2  0  0  0  0
 14 29  1  0  0  0  0
 15 30  1  0  0  0  0
 16 20  1  0  0  0  0
 16 26  2  0  0  0  0
 17 25  1  0  0  0  0
 17 28  2  0  0  0  0
 18 30  2  0  0  0  0
 18 31  1  0  0  0  0
 19 32  1  0  0  0  0
 20 39  1  0  0  0  0
 21 32  1  0  0  0  0
 21 33  2  0  0  0  0
 21 40  1  0  0  0  0
 22 24  2  0  0  0  0
 22 45  1  0  0  0  0
 23 25  2  0  0  0  0
 23 46  1  0  0  0  0
 24 54  1  0  0  0  0
 25 47  1  0  0  0  0
 26 69  1  0  0  0  0
 27 84  1  0  0  0  0
 28 85  1  0  0  0  0
 29 31  2  0  0  0  0
 29 84  1  0  0  0  0
 30 86  1  0  0  0  0
 31 87  1  0  0  0  0
 32 66  2  0  0  0  0
 33 68  1  0  0  0  0
 33 72  1  0  0  0  0
 34 36  2  0  0  0  0
 34 37  1  0  0  0  0
 35 37  2  0  0  0  0
 35 69  1  0  0  0  0
 36 38  1  0  0  0  0
 36 62  1  0  0  0  0
 37 83  1  0  0  0  0
 38 69  1  0  0  0  0
 38 77  2  0  0  0  0
 39 41  1  0  0  0  0
 39 67  2  0  0  0  0
 40 73  1  0  0  0  0
 40 78  2  0  0  0  0
 41 70  1  0  0  0  0
 41 79  2  0  0  0  0
 42 55  1  0  0  0  0
 42 74  1  0  0  0  0
 42 80  2  0  0  0  0
 43 63  1  0  0  0  0
 43 71  1  0  0  0  0
 43 81  2  0  0  0  0
 44 64  1  0  0  0  0
 44 75  1  0  0  0  0
 44 82  2  0  0  0  0
 45 48  1  0  0  0  0
 46 55  1  0  0  0  0
 47 71  1  0  0  0  0
 48 50  1  0  0  0  0
 49 51  1  0  0  0  0
 49 52  1  0  0  0  0
 50 54  1  0  0  0  0
 51 56  1  0  0  0  0
 52 70  1  0  0  0  0
 53 56  1  0  0  0  0
 53 70  1  0  0  0  0
 54 74  1  0  0  0  0
 55 71  1  0  0  0  0
 56 68  1  0  0  0  0
 57 64  1  0  0  0  0
 58 65  1  0  0  0  0
 59 65  1  0  0  0  0
 60 65  1  0  0  0  0
 61 76  1  0  0  0  0
 62 85  1  0  0  0  0
 63 65  1  0  0  0  0
 63 75  1  0  0  0  0
 64 76  1  0  0  0  0
 66 68  1  0  0  0  0
M  CHG  1  76   1
M  ISO  4  39 100  41 100  62 101  85 101
M  END
> <Batch ID>
0086

> <Smiles>
CNC(C)C(=O)NC(C(=O)N1Cc2cc([101O:1][101CH2:1]C3=CC(=O)CN(c4cccc([100C:0](=N)[100C:0](=O)N5CCCC(n6nc(-c7ccc(Oc8ccc(F)cc8F)cc7)c(C(N)=O)c6N)C5)c4)C3=O)ccc2CC1C(=O)NC1CCCc2ccccc21)C(C)(C)C

> <Shape>
0.226

> <Color>
0.062

> <Negative vol penalty>
0.000

$$$$

  -OEChem-04052300173D

 92102  0     1  0  0  0  0  0999 V2000
  -27.3106  -31.3321   21.3822 C   0  0  0  0  0  0  0  0  0  0  0  0
  -22.7654  -17.1366   19.2634 C   0  0  0  0  0  0  0  0  0  0  0  0
  -23.4233  -18.3494   19.0849 C   0  0  0  0  0  0  0  0  0  0  0  0
  -28.5638  -31.9036   21.3588 C   0  0  0  0  0  0  0  0  0  0  0  0
  -26.7097  -13.0593   18.8530 C   0  0  0  0  0  0  0  0  0  0  0  0
  -26.4810  -13.0136   21.2577 C   0  0  0  0  0  0  0  0  0  0  0  0
  -27.1659  -30.0036   20.9974 C   0  0  0  0  0  0  0  0  0  0  0  0
  -21.3719  -17.0971   19.2825 C   0  0  0  0  0  0  0  0  0  0  0  0
  -22.6879  -19.5232   18.9242 C   0  0  0  0  0  0  0  0  0  0  0  0
  -24.5158  -23.3542   21.6860 C   0  0  0  0  0  0  0  0  0  0  0  0
  -29.6604  -31.1417   20.9518 C   0  0  0  0  0  0  0  0  0  0  0  0
  -29.4966  -24.4272   19.6545 C   0  0  0  0  0  0  0  0  0  0  0  0
  -29.5604  -23.1049   20.0940 C   0  0  0  0  0  0  0  0  0  0  0  0
  -25.4635  -12.4464   18.7228 C   0  0  0  0  0  0  0  0  0  0  0  0
  -25.2348  -12.4007   21.1276 C   0  0  0  0  0  0  0  0  0  0  0  0
  -25.6485  -24.0058   21.1999 C   0  0  0  0  0  0  0  0  0  0  0  0
  -24.0355   -9.3015   20.5054 C   0  0  0  0  0  0  0  0  0  0  0  0
  -23.7580   -8.2147   21.3346 C   0  0  0  0  0  0  0  0  0  0  0  0
  -24.2538  -25.7770   20.3416 C   0  0  0  0  0  0  0  0  0  0  0  0
  -30.8090  -25.1238   21.5596 C   0  0  0  0  0  0  0  0  0  0  0  0
  -21.8763   -9.4080   22.2687 C   0  0  0  0  0  0  0  0  0  0  0  0
  -27.2185  -13.3429   20.1205 C   0  0  0  0  0  0  0  0  0  0  0  0
  -28.2659  -29.1995   20.5941 C   0  0  0  0  0  0  0  0  0  0  0  0
  -29.7454  -13.4864   19.8011 C   0  0  0  0  0  0  0  0  0  0  0  0
  -20.6191  -18.2723   19.1316 C   0  0  0  0  0  0  0  0  0  0  0  0
  -23.2405  -23.9046   21.4936 C   0  0  0  0  0  0  0  0  0  0  0  0
  -21.2830  -19.4991   18.9400 C   0  0  0  0  0  0  0  0  0  0  0  0
  -23.1067  -25.1317   20.8284 C   0  0  0  0  0  0  0  0  0  0  0  0
  -30.1209  -25.4366   20.3873 C   0  0  0  0  0  0  0  0  0  0  0  0
  -29.5632  -29.7782   20.5577 C   0  0  0  0  0  0  0  0  0  0  0  0
  -30.2485  -22.7921   21.2663 C   0  0  0  0  0  0  0  0  0  0  0  0
  -24.7260  -12.1171   19.8601 C   0  0  0  0  0  0  0  0  0  0  0  0
  -25.5173  -25.2160   20.5251 C   0  0  0  0  0  0  0  0  0  0  0  0
  -23.2335  -10.4415   20.5579 C   0  0  0  0  0  0  0  0  0  0  0  0
  -22.6784   -8.2680   22.2162 C   0  0  0  0  0  0  0  0  0  0  0  0
  -30.8728  -23.8015   21.9991 C   0  0  0  0  0  0  0  0  0  0  0  0
  -22.1539  -10.4948   21.4395 C   0  0  0  0  0  0  0  0  0  0  0  0
  -28.5060  -13.9754   20.2556 C   0  0  0  0  0  0  0  0  0  0  0  0
  -30.6515  -14.4497   20.1718 C   0  0  0  0  0  0  0  0  0  0  0  0
  -27.9490  -27.8348   20.1120 C   0  0  0  0  0  0  0  0  0  0  0  0
  -31.0888  -27.7106   20.2072 C   0  0  0  0  0  0  0  0  0  0  0  0
  -26.8874  -27.1116   20.5124 C   0  0  0  0  0  0  0  0  0  1  0  0
  -30.0502  -12.2701   19.1058 C   0  0  0  0  0  0  0  0  0  0  0  0
  -20.6020  -22.9779   19.9827 C   0  0  0  0  0  0  0  0  0  0  0  0
  -19.3520  -25.6414   21.3486 C   0  0  0  0  0  0  0  0  0  0  0  0
  -19.8882  -28.7320   22.6929 C   0  0  0  0  0  0  0  0  0  0  0  0
  -29.7481  -20.3205   21.1062 C   0  0  0  0  0  0  0  0  0  0  0  0
  -19.1143  -18.1731   19.1118 C   0  0  0  0  0  0  0  0  0  0  0  0
  -22.0310  -23.2026   22.0475 C   0  0  0  0  0  0  0  0  0  0  0  0
  -21.7619  -25.7748   20.6136 C   0  0  0  0  0  0  0  0  0  0  0  0
  -28.9203  -27.2599   19.1392 C   0  0  0  0  0  0  0  0  0  0  0  0
  -18.4128  -19.5144   19.3094 C   0  0  0  0  0  0  0  0  0  0  0  0
  -30.5896  -17.6873   23.7674 C   0  0  0  0  0  0  0  0  0  0  0  0
  -19.0460  -20.5835   18.4246 C   0  0  0  0  0  0  0  0  0  0  0  0
  -30.9273  -16.5076   22.8589 C   0  0  0  0  0  0  0  0  0  0  0  0
  -30.7529  -19.0265   23.0598 C   0  0  0  0  0  0  0  0  0  0  0  0
  -29.4400  -17.8586   21.2799 C   0  0  0  0  0  0  0  0  0  0  0  0
  -20.5205  -20.7973   18.7871 C   0  0  1  0  0  0  0  0  0  0  0  0
  -20.7362  -23.5985   21.3445 C   0  0  1  0  0  0  0  0  0  0  0  0
  -30.4520  -16.7091   21.4064 C   0  0  2  0  0  0  0  0  0  0  0  0
  -18.6680  -30.6860   23.6882 C   0  0  0  0  0  0  0  0  0  0  0  0
  -18.4553  -26.4984   18.5609 C   0  0  0  0  0  0  0  0  0  0  0  0
  -18.1180  -28.8119   19.4565 C   0  0  0  0  0  0  0  0  0  0  0  0
  -16.7795  -26.9153   20.3698 C   0  0  0  0  0  0  0  0  0  0  0  0
  -31.9908  -29.9457   19.9648 C   0  0  0  0  0  0  0  0  0  0  0  0
  -21.3007  -28.4459   25.2778 C   0  0  0  0  0  0  0  0  0  0  0  0
  -19.2340  -27.0926   20.9497 C   0  0  1  0  0  0  0  0  0  0  0  0
  -19.3846  -29.3751   23.9725 C   0  0  2  0  0  0  0  0  0  0  0  0
  -18.1720  -27.3167   19.8364 C   0  0  0  0  0  0  0  0  0  0  0  0
  -28.6115  -15.1575   20.8685 N   0  0  0  0  0  0  0  0  0  0  0  0
  -29.9280  -15.4192   20.8017 N   0  0  0  0  0  0  0  0  0  0  0  0
  -30.0542  -26.8115   19.9309 N   0  0  0  0  0  0  0  0  0  0  0  0
  -30.8090  -29.0989   20.1895 N   0  0  0  0  0  0  0  0  0  0  0  0
  -20.6088  -25.0466   21.1682 N   0  0  0  0  0  0  0  0  0  0  0  0
  -29.9928  -19.1127   21.8044 N   0  0  0  0  0  0  0  0  0  0  0  0
  -31.9886  -14.5534   20.0174 N   0  0  0  0  0  0  0  0  0  0  0  0
  -30.3611  -11.1298   19.8590 N   0  0  0  0  0  0  0  0  0  0  0  0
  -30.3111  -21.4476   21.7106 N   0  0  0  0  0  0  0  0  0  0  0  0
  -20.6349  -21.5964   19.9883 N   0  0  0  0  0  0  0  0  0  0  0  0
  -18.9763  -27.8342   22.1793 N   0  0  0  0  0  0  0  0  0  0  0  0
  -20.5215  -29.6516   24.8955 N   0  3  0  0  0  0  0  0  0  0  0  0
  -32.2478  -27.3106   20.3995 O   0  0  0  0  0  0  0  0  0  0  0  0
  -30.0632  -12.2009   17.8533 O   0  0  0  0  0  0  0  0  0  0  0  0
  -20.4762  -23.6989   18.9998 O   0  0  0  0  0  0  0  0  0  0  0  0
  -18.3673  -25.0591   21.8101 O   0  0  0  0  0  0  0  0  0  0  0  0
  -20.9795  -29.0021   22.1964 O   0  0  0  0  0  0  0  0  0  0  0  0
  -29.1041  -20.3423   20.0552 O   0  0  0  0  0  0  0  0  0  0  0  0
  -23.5099  -11.5193   19.7334 O   0  0  0  0  0  0  0  0  0  0  0  0
  -26.6212  -25.8538   20.0491 O   0  0  0  0  0  0  0  0  0  1  0  0
  -22.4111   -7.2237   23.0114 F   0  0  0  0  0  0  0  0  0  0  0  0
  -31.5357  -23.5127   23.1282 F   0  0  0  0  0  0  0  0  0  0  0  0
  -21.3791  -11.5868   21.4936 F   0  0  0  0  0  0  0  0  0  0  0  0
  1  4  1  0  0  0  0
  1  7  2  0  0  0  0
  2  3  1  0  0  0  0
  2  8  2  0  0  0  0
  3  9  2  0  0  0  0
  4 11  2  0  0  0  0
  5 14  2  0  0  0  0
  5 22  1  0  0  0  0
  6 15  1  0  0  0  0
  6 22  2  0  0  0  0
  7 23  1  0  0  0  0
  8 25  1  0  0  0  0
  9 27  1  0  0  0  0
 10 16  2  0  0  0  0
 10 26  1  0  0  0  0
 11 30  1  0  0  0  0
 12 13  2  0  0  0  0
 12 29  1  0  0  0  0
 13 31  1  0  0  0  0
 14 32  1  0  0  0  0
 15 32  2  0  0  0  0
 16 33  1  0  0  0  0
 17 18  2  0  0  0  0
 17 34  1  0  0  0  0
 18 35  1  0  0  0  0
 19 28  1  0  0  0  0
 19 33  2  0  0  0  0
 20 29  2  0  0  0  0
 20 36  1  0  0  0  0
 21 35  2  0  0  0  0
 21 37  1  0  0  0  0
 22 38  1  0  0  0  0
 23 30  2  0  0  0  0
 23 40  1  0  0  0  0
 24 38  1  0  0  0  0
 24 39  2  0  0  0  0
 24 43  1  0  0  0  0
 25 27  2  0  0  0  0
 25 48  1  0  0  0  0
 26 28  2  0  0  0  0
 26 49  1  0  0  0  0
 27 58  1  0  0  0  0
 28 50  1  0  0  0  0
 29 72  1  0  0  0  0
 30 73  1  0  0  0  0
 31 36  2  0  0  0  0
 31 78  1  0  0  0  0
 32 88  1  0  0  0  0
 33 89  1  0  0  0  0
 34 37  2  0  0  0  0
 34 88  1  0  0  0  0
 35 90  1  0  0  0  0
 36 91  1  0  0  0  0
 37 92  1  0  0  0  0
 38 70  2  0  0  0  0
 39 71  1  0  0  0  0
 39 76  1  0  0  0  0
 40 42  2  0  0  0  0
 40 51  1  0  0  0  0
 41 72  1  0  0  0  0
 41 73  1  0  0  0  0
 41 82  2  0  0  0  0
 42 89  1  0  0  0  0
 43 77  1  0  0  0  0
 43 83  2  0  0  0  0
 44 59  1  0  0  0  0
 44 79  1  0  0  0  0
 44 84  2  0  0  0  0
 45 67  1  0  0  0  0
 45 74  1  0  0  0  0
 45 85  2  0  0  0  0
 46 68  1  0  0  0  0
 46 80  1  0  0  0  0
 46 86  2  0  0  0  0
 47 75  1  0  0  0  0
 47 78  1  0  0  0  0
 47 87  2  0  0  0  0
 48 52  1  0  0  0  0
 49 59  1  0  0  0  0
 50 74  1  0  0  0  0
 51 72  1  0  0  0  0
 52 54  1  0  0  0  0
 53 55  1  0  0  0  0
 53 56  1  0  0  0  0
 54 58  1  0  0  0  0
 55 60  1  0  0  0  0
 56 75  1  0  0  0  0
 57 60  1  0  0  0  0
 57 75  1  0  0  0  0
 58 79  1  0  0  0  0
 59 74  1  0  0  0  0
 60 71  1  0  0  0  0
 61 68  1  0  0  0  0
 62 69  1  0  0  0  0
 63 69  1  0  0  0  0
 64 69  1  0  0  0  0
 65 73  1  0  0  0  0
 66 81  1  0  0  0  0
 67 69  1  0  0  0  0
 67 80  1  0  0  0  0
 68 81  1  0  0  0  0
 70 71  1  0  0  0  0
M  CHG  1  81   1
M  ISO  4  42 101  47 100  78 100  89 101
M  END
> <Batch ID>
0086

> <Smiles>
CNC(C)C(=O)NC(C(=O)N1Cc2cc([101O:1][101CH:1]=C3CN(c4ccc([100NH:0][100C:0](=O)N5CCCC(n6nc(-c7ccc(Oc8ccc(F)cc8F)cc7)c(C(N)=O)c6N)C5)c(F)c4)C(=O)N(C)c4ccccc43)ccc2CC1C(=O)NC1CCCc2ccccc21)C(C)(C)C

> <Shape>
0.279

> <Color>
0.059

> <Negative vol penalty>
0.000

$$$$

  -OEChem-04052300173D

 85 94  0     1  0  0  0  0  0999 V2000
  -29.7355  -30.0400   26.6561 C   0  0  0  0  0  0  0  0  0  0  0  0
  -29.2962  -29.1793   25.6553 C   0  0  0  0  0  0  0  0  0  0  0  0
  -24.8756   -8.4091   21.0620 C   0  0  0  0  0  0  0  0  0  0  0  0
  -23.1892   -9.7016   19.9120 C   0  0  0  0  0  0  0  0  0  0  0  0
  -28.8240  -30.8637   27.3152 C   0  0  0  0  0  0  0  0  0  0  0  0
  -27.9448  -29.1410   25.3138 C   0  0  0  0  0  0  0  0  0  0  0  0
  -27.2069  -29.1207   20.3038 C   0  0  0  0  0  0  0  0  0  0  0  0
  -23.9233   -7.4359   21.3646 C   0  0  0  0  0  0  0  0  0  0  0  0
  -22.2369   -8.7284   20.2146 C   0  0  0  0  0  0  0  0  0  0  0  0
  -27.4024  -27.9123   19.6364 C   0  0  0  0  0  0  0  0  0  0  0  0
  -21.4272   -7.0050   23.6026 C   0  0  0  0  0  0  0  0  0  0  0  0
  -21.4058   -6.5029   24.9037 C   0  0  0  0  0  0  0  0  0  0  0  0
  -25.0184  -27.5446   19.6166 C   0  0  0  0  0  0  0  0  0  0  0  0
  -27.3562  -20.2063   16.3363 C   0  0  0  0  0  0  0  0  0  0  0  0
  -27.3590  -19.3895   18.6099 C   0  0  0  0  0  0  0  0  0  0  0  0
  -21.8354   -4.2824   24.0540 C   0  0  0  0  0  0  0  0  0  0  0  0
  -24.5085   -9.5420   20.3357 C   0  0  0  0  0  0  0  0  0  0  0  0
  -26.3145  -10.6070   18.8825 C   0  0  0  0  0  0  0  0  0  0  0  0
  -27.4622  -30.8425   26.9750 C   0  0  0  0  0  0  0  0  0  0  0  0
  -25.9143  -29.5455   20.6429 C   0  0  0  0  0  0  0  0  0  0  0  0
  -27.0140  -29.9643   25.9699 C   0  0  0  0  0  0  0  0  0  0  0  0
  -24.8090  -28.7599   20.2861 C   0  0  0  0  0  0  0  0  0  0  0  0
  -27.5640  -17.8385   16.7689 C   0  0  0  0  0  0  0  0  0  0  0  0
  -27.2888  -20.4510   17.7078 C   0  0  0  0  0  0  0  0  0  0  0  0
  -27.4937  -18.9000   15.8668 C   0  0  0  0  0  0  0  0  0  0  0  0
  -27.4966  -18.0832   18.1405 C   0  0  0  0  0  0  0  0  0  0  0  0
  -22.6040   -7.5955   20.9410 C   0  0  0  0  0  0  0  0  0  0  0  0
  -26.3082  -27.1227   19.2952 C   0  0  0  0  0  0  0  0  0  0  0  0
  -21.6527   -6.1458   22.5271 C   0  0  0  0  0  0  0  0  0  0  0  0
  -21.6099   -5.1416   25.1295 C   0  0  0  0  0  0  0  0  0  0  0  0
  -21.8568   -4.7845   22.7528 C   0  0  0  0  0  0  0  0  0  0  0  0
  -25.4916  -10.5479   20.0232 C   0  0  0  0  0  0  0  0  0  0  0  0
  -27.0646  -11.7440   19.0587 C   0  0  0  0  0  0  0  0  0  0  0  0
  -26.8604  -23.5945   18.8601 C   0  0  0  0  0  0  0  0  0  0  0  0
  -27.0647  -22.2584   19.4211 C   0  0  0  0  0  0  0  0  0  0  0  0
  -26.6670  -24.8136   19.3953 C   0  0  0  0  0  0  0  0  0  1  0  0
  -26.3937   -9.7140   17.7636 C   0  0  0  0  0  0  0  0  0  0  0  0
  -24.3977  -30.1602   23.3680 C   0  0  0  0  0  0  0  0  0  0  0  0
  -22.0412  -31.1633   21.3774 C   0  0  0  0  0  0  0  0  0  0  0  0
  -20.5926  -31.0051   18.2914 C   0  0  0  0  0  0  0  0  0  0  0  0
  -27.5152  -17.1126   20.4652 C   0  0  0  0  0  0  0  0  0  0  0  0
  -26.5071  -31.7172   27.7480 C   0  0  0  0  0  0  0  0  0  0  0  0
  -25.7184  -30.8643   21.3392 C   0  0  0  0  0  0  0  0  0  0  0  0
  -23.3994  -29.1808   20.6093 C   0  0  0  0  0  0  0  0  0  0  0  0
  -26.9597  -22.9983   17.4747 C   0  0  0  0  0  0  0  0  0  0  0  0
  -25.1508  -31.8869   27.0684 C   0  0  0  0  0  0  0  0  0  0  0  0
  -27.6190  -14.7296   23.1085 C   0  0  0  0  0  0  0  0  0  0  0  0
  -24.6203  -30.5387   26.5912 C   0  0  0  0  0  0  0  0  0  0  0  0
  -27.1425  -13.4341   22.4476 C   0  0  0  0  0  0  0  0  0  0  0  0
  -26.8764  -15.9494   22.5661 C   0  0  0  0  0  0  0  0  0  0  0  0
  -26.4126  -14.7890   20.4430 C   0  0  0  0  0  0  0  0  0  0  0  0
  -25.5599  -29.9119   25.5540 C   0  0  1  0  0  0  0  0  0  0  0  0
  -24.3939  -30.9521   22.0911 C   0  0  1  0  0  0  0  0  0  0  0  0
  -27.1773  -13.5398   20.9104 C   0  0  2  0  0  0  0  0  0  0  0  0
  -27.7123  -16.4363   16.2648 C   0  0  0  0  0  0  0  0  0  0  0  0
  -18.6568  -31.9095   16.9752 C   0  0  0  0  0  0  0  0  0  0  0  0
  -20.1529  -29.2894   22.8716 C   0  0  0  0  0  0  0  0  0  0  0  0
  -18.5411  -29.5089   20.9684 C   0  0  0  0  0  0  0  0  0  0  0  0
  -19.1747  -31.5195   22.3021 C   0  0  0  0  0  0  0  0  0  0  0  0
  -22.3845  -32.2646   16.3009 C   0  0  0  0  0  0  0  0  0  0  0  0
  -20.8568  -30.5092   20.7077 C   0  0  1  0  0  0  0  0  0  0  0  0
  -20.1210  -32.0927   17.3431 C   0  0  2  0  0  0  0  0  0  0  0  0
  -19.7079  -30.1976   21.7080 C   0  0  0  0  0  0  0  0  0  0  0  0
  -25.6993  -11.5663   20.8621 N   0  0  0  0  0  0  0  0  0  0  0  0
  -26.6613  -12.2760   20.2481 N   0  0  0  0  0  0  0  0  0  0  0  0
  -27.1537  -21.7390   18.1716 N   0  0  0  0  0  0  0  0  0  0  0  0
  -23.2602  -30.4754   21.2964 N   0  0  0  0  0  0  0  0  0  0  0  0
  -26.9558  -15.9859   21.1042 N   0  0  0  0  0  0  0  0  0  0  0  0
  -27.5599  -18.6730   14.4743 N   0  0  0  0  0  0  0  0  0  0  0  0
  -28.0232  -12.3307   18.3108 N   0  0  0  0  0  0  0  0  0  0  0  0
  -25.5513   -8.5941   17.7416 N   0  0  0  0  0  0  0  0  0  0  0  0
  -27.5674  -17.0202   19.0747 N   0  0  0  0  0  0  0  0  0  0  0  0
  -25.3792  -30.5408   24.2632 N   0  0  0  0  0  0  0  0  0  0  0  0
  -20.4711  -31.3894   19.6100 N   0  0  0  0  0  0  0  0  0  0  0  0
  -20.9267  -32.0719   16.0895 N   0  3  0  0  0  0  0  0  0  0  0  0
  -27.1191  -21.7952   20.5413 O   0  0  0  0  0  0  0  0  0  0  0  0
  -27.1995   -9.8947   16.8193 O   0  0  0  0  0  0  0  0  0  0  0  0
  -23.5705  -29.2707   23.5298 O   0  0  0  0  0  0  0  0  0  0  0  0
  -21.8918  -32.2482   21.9451 O   0  0  0  0  0  0  0  0  0  0  0  0
  -21.0220  -29.9216   17.9015 O   0  0  0  0  0  0  0  0  0  0  0  0
  -27.9433  -18.0761   21.1059 O   0  0  0  0  0  0  0  0  0  0  0  0
  -21.6745   -6.6459   21.2359 O   0  0  0  0  0  0  0  0  0  0  0  0
  -26.4963  -25.9425   18.6442 O   0  0  0  0  0  0  0  0  0  1  0  0
  -21.5907   -4.6599   26.3792 F   0  0  0  0  0  0  0  0  0  0  0  0
  -22.0751   -3.9544   21.7237 F   0  0  0  0  0  0  0  0  0  0  0  0
  1  2  1  0  0  0  0
  1  5  2  0  0  0  0
  2  6  2  0  0  0  0
  3  8  2  0  0  0  0
  3 17  1  0  0  0  0
  4  9  1  0  0  0  0
  4 17  2  0  0  0  0
  5 19  1  0  0  0  0
  6 21  1  0  0  0  0
  7 10  2  0  0  0  0
  7 20  1  0  0  0  0
  8 27  1  0  0  0  0
  9 27  2  0  0  0  0
 10 28  1  0  0  0  0
 11 12  2  0  0  0  0
 11 29  1  0  0  0  0
 12 30  1  0  0  0  0
 13 22  1  0  0  0  0
 13 28  2  0  0  0  0
 14 24  1  0  0  0  0
 14 25  2  0  0  0  0
 15 24  2  0  0  0  0
 15 26  1  0  0  0  0
 16 30  2  0  0  0  0
 16 31  1  0  0  0  0
 17 32  1  0  0  0  0
 18 32  1  0  0  0  0
 18 33  2  0  0  0  0
 18 37  1  0  0  0  0
 19 21  2  0  0  0  0
 19 42  1  0  0  0  0
 20 22  2  0  0  0  0
 20 43  1  0  0  0  0
 21 52  1  0  0  0  0
 22 44  1  0  0  0  0
 23 25  1  0  0  0  0
 23 26  2  0  0  0  0
 23 55  1  0  0  0  0
 24 66  1  0  0  0  0
 25 69  1  0  0  0  0
 26 72  1  0  0  0  0
 27 82  1  0  0  0  0
 28 83  1  0  0  0  0
 29 31  2  0  0  0  0
 29 82  1  0  0  0  0
 30 84  1  0  0  0  0
 31 85  1  0  0  0  0
 32 64  2  0  0  0  0
 33 65  1  0  0  0  0
 33 70  1  0  0  0  0
 34 35  1  0  0  0  0
 34 36  2  0  0  0  0
 34 45  1  0  0  0  0
 35 66  1  0  0  0  0
 35 76  2  0  0  0  0
 36 83  1  0  0  0  0
 37 71  1  0  0  0  0
 37 77  2  0  0  0  0
 38 53  1  0  0  0  0
 38 73  1  0  0  0  0
 38 78  2  0  0  0  0
 39 61  1  0  0  0  0
 39 67  1  0  0  0  0
 39 79  2  0  0  0  0
 40 62  1  0  0  0  0
 40 74  1  0  0  0  0
 40 80  2  0  0  0  0
 41 68  1  0  0  0  0
 41 72  1  0  0  0  0
 41 81  2  0  0  0  0
 42 46  1  0  0  0  0
 43 53  1  0  0  0  0
 44 67  1  0  0  0  0
 45 66  1  0  0  0  0
 46 48  1  0  0  0  0
 47 49  1  0  0  0  0
 47 50  1  0  0  0  0
 48 52  1  0  0  0  0
 49 54  1  0  0  0  0
 50 68  1  0  0  0  0
 51 54  1  0  0  0  0
 51 68  1  0  0  0  0
 52 73  1  0  0  0  0
 53 67  1  0  0  0  0
 54 65  1  0  0  0  0
 56 62  1  0  0  0  0
 57 63  1  0  0  0  0
 58 63  1  0  0  0  0
 59 63  1  0  0  0  0
 60 75  1  0  0  0  0
 61 63  1  0  0  0  0
 61 74  1  0  0  0  0
 62 75  1  0  0  0  0
 64 65  1  0  0  0  0
M  CHG  1  75   1
M  ISO  4  36 101  41 100  72 100  83 101
M  END
> <Batch ID>
0086

> <Smiles>
CNC(C)C(=O)NC(C(=O)N1Cc2cc([101O:1][101CH:1]=C3CN(c4cc(N)c(C)c([100NH:0][100C:0](=O)N5CCCC(n6nc(-c7ccc(Oc8ccc(F)cc8F)cc7)c(C(N)=O)c6N)C5)c4)C3=O)ccc2CC1C(=O)NC1CCCc2ccccc21)C(C)(C)C

> <Shape>
0.261

> <Color>
0.109

> <Negative vol penalty>
0.000

$$$$

  -OEChem-04052300173D

 84 93  0     1  0  0  0  0  0999 V2000
  -35.1275  -33.4042   26.4475 C   0  0  0  0  0  0  0  0  0  0  0  0
  -35.2950  -32.0243   26.3897 C   0  0  0  0  0  0  0  0  0  0  0  0
  -23.0004   -9.8938   19.9809 C   0  0  0  0  0  0  0  0  0  0  0  0
  -23.7253   -9.9445   22.2851 C   0  0  0  0  0  0  0  0  0  0  0  0
  -34.5447  -34.0799   25.3763 C   0  0  0  0  0  0  0  0  0  0  0  0
  -34.8787  -31.3192   25.2610 C   0  0  0  0  0  0  0  0  0  0  0  0
  -37.5352  -26.3673   22.8264 C   0  0  0  0  0  0  0  0  0  0  0  0
  -22.2337   -8.7594   20.2471 C   0  0  0  0  0  0  0  0  0  0  0  0
  -22.9585   -8.8101   22.5513 C   0  0  0  0  0  0  0  0  0  0  0  0
  -37.2555  -25.0055   22.9315 C   0  0  0  0  0  0  0  0  0  0  0  0
  -23.2025   -5.4712   22.0792 C   0  0  0  0  0  0  0  0  0  0  0  0
  -23.7898   -4.4538   22.8313 C   0  0  0  0  0  0  0  0  0  0  0  0
  -35.9922  -25.1128   20.8793 C   0  0  0  0  0  0  0  0  0  0  0  0
  -31.8203  -17.4766   21.6974 C   0  0  0  0  0  0  0  0  0  0  0  0
  -22.0657   -4.6969   24.5063 C   0  0  0  0  0  0  0  0  0  0  0  0
  -23.7463  -10.4863   20.9999 C   0  0  0  0  0  0  0  0  0  0  0  0
  -24.1319  -13.0019   20.8241 C   0  0  0  0  0  0  0  0  0  0  0  0
  -34.1298  -33.3840   24.2298 C   0  0  0  0  0  0  0  0  0  0  0  0
  -37.0356  -27.1156   21.7509 C   0  0  0  0  0  0  0  0  0  0  0  0
  -34.2885  -31.9862   24.1740 C   0  0  0  0  0  0  0  0  0  0  0  0
  -36.2692  -26.4834   20.7615 C   0  0  0  0  0  0  0  0  0  0  0  0
  -31.9194  -18.7498   22.3291 C   0  0  0  0  0  0  0  0  0  0  0  0
  -22.2127   -8.2175   21.5322 C   0  0  0  0  0  0  0  0  0  0  0  0
  -36.4815  -24.3787   21.9594 C   0  0  0  0  0  0  0  0  0  0  0  0
  -22.0468   -6.1014   22.5406 C   0  0  0  0  0  0  0  0  0  0  0  0
  -23.2214   -4.0667   24.0448 C   0  0  0  0  0  0  0  0  0  0  0  0
  -21.4784   -5.7142   23.7541 C   0  0  0  0  0  0  0  0  0  0  0  0
  -24.5389  -11.6579   20.7255 C   0  0  0  0  0  0  0  0  0  0  0  0
  -30.7666  -19.0830   23.0056 C   0  0  0  0  0  0  0  0  0  0  0  0
  -25.2418  -13.7244   20.4600 C   0  0  0  0  0  0  0  0  0  0  0  0
  -30.5954  -16.8849   21.9153 C   0  0  0  0  0  0  0  0  0  0  0  0
  -34.5107  -21.3939   22.2421 C   0  0  0  0  0  0  0  0  0  0  0  0
  -33.0815  -20.9920   22.3291 C   0  0  0  0  0  0  0  0  0  0  0  0
  -34.8966  -22.6681   22.1406 C   0  0  0  0  0  0  0  0  0  1  0  0
  -22.8640  -13.5484   21.2105 C   0  0  0  0  0  0  0  0  0  0  0  0
  -35.0688  -29.5964   21.4660 C   0  0  0  0  0  0  0  0  0  0  0  0
  -35.9380  -29.4297   18.3452 C   0  0  0  0  0  0  0  0  0  0  0  0
  -37.1357  -27.5397   15.7683 C   0  0  0  0  0  0  0  0  0  0  0  0
  -30.7214  -14.6846   20.6949 C   0  0  0  0  0  0  0  0  0  0  0  0
  -33.4619  -34.1517   23.1166 C   0  0  0  0  0  0  0  0  0  0  0  0
  -37.3687  -28.5781   21.6378 C   0  0  0  0  0  0  0  0  0  0  0  0
  -35.7260  -27.2377   19.5763 C   0  0  0  0  0  0  0  0  0  0  0  0
  -35.3875  -20.1910   22.2622 C   0  0  0  0  0  0  0  0  0  0  0  0
  -33.3897  -33.3792   21.8020 C   0  0  0  0  0  0  0  0  0  0  0  0
  -29.6031  -12.2322   18.3685 C   0  0  0  0  0  0  0  0  0  0  0  0
  -32.9039  -31.9541   22.0462 C   0  0  0  0  0  0  0  0  0  0  0  0
  -28.1524  -11.9747   18.7824 C   0  0  0  0  0  0  0  0  0  0  0  0
  -34.4065  -19.0447   22.0791 C   0  0  0  0  0  0  0  0  0  0  0  0
  -30.5035  -12.4753   19.5784 C   0  0  0  0  0  0  0  0  0  0  0  0
  -28.5881  -13.2643   20.9118 C   0  0  0  0  0  0  0  0  0  0  0  0
  -33.8724  -31.1894   22.9566 C   0  0  1  0  0  0  0  0  0  0  0  0
  -36.3787  -29.3512   20.7720 C   0  0  1  0  0  0  0  0  0  0  0  0
  -27.6306  -13.0782   19.7234 C   0  0  2  0  0  0  0  0  0  0  0  0
  -30.4624  -20.3049   23.7850 C   0  0  0  0  0  0  0  0  0  0  0  0
  -37.7021  -27.6701   13.3271 C   0  0  0  0  0  0  0  0  0  0  0  0
  -32.9681  -29.3270   17.6531 C   0  0  0  0  0  0  0  0  0  0  0  0
  -33.5994  -28.5144   15.3707 C   0  0  0  0  0  0  0  0  0  0  0  0
  -34.3426  -30.7679   16.1402 C   0  0  0  0  0  0  0  0  0  0  0  0
  -39.9762  -26.8799   16.2734 C   0  0  0  0  0  0  0  0  0  0  0  0
  -35.4180  -28.7039   17.1279 C   0  0  1  0  0  0  0  0  0  0  0  0
  -38.2279  -27.8044   14.7478 C   0  0  2  0  0  0  0  0  0  0  0  0
  -34.0905  -29.3142   16.5962 C   0  0  0  0  0  0  0  0  0  0  0  0
  -25.8083  -11.5312   20.3295 N   0  0  0  0  0  0  0  0  0  0  0  0
  -26.2084  -12.8050   20.1760 N   0  0  0  0  0  0  0  0  0  0  0  0
  -33.0732  -19.5922   22.2750 N   0  0  0  0  0  0  0  0  0  0  0  0
  -36.0738  -28.6669   19.5138 N   0  0  0  0  0  0  0  0  0  0  0  0
  -29.9485  -13.5362   20.4218 N   0  0  0  0  0  0  0  0  0  0  0  0
  -25.4755  -15.0500   20.3580 N   0  0  0  0  0  0  0  0  0  0  0  0
  -21.8320  -12.6644   21.5538 N   0  0  0  0  0  0  0  0  0  0  0  0
  -30.0772  -15.6398   21.4805 N   0  0  0  0  0  0  0  0  0  0  0  0
  -35.0356  -30.7604   22.2100 N   0  0  0  0  0  0  0  0  0  0  0  0
  -36.5067  -28.7036   16.1568 N   0  0  0  0  0  0  0  0  0  0  0  0
  -39.3493  -26.8394   14.9271 N   0  3  0  0  0  0  0  0  0  0  0  0
  -32.1653  -21.7922   22.4189 O   0  0  0  0  0  0  0  0  0  0  0  0
  -22.6474  -14.7838   21.2343 O   0  0  0  0  0  0  0  0  0  0  0  0
  -34.1553  -28.7901   21.3349 O   0  0  0  0  0  0  0  0  0  0  0  0
  -36.2203  -30.6275   18.2605 O   0  0  0  0  0  0  0  0  0  0  0  0
  -36.8649  -26.4127   16.1771 O   0  0  0  0  0  0  0  0  0  0  0  0
  -31.8602  -14.8234   20.2411 O   0  0  0  0  0  0  0  0  0  0  0  0
  -21.4645   -7.1107   21.7923 O   0  0  0  0  0  0  0  0  0  0  0  0
  -36.2064  -23.0497   22.0600 O   0  0  0  0  0  0  0  0  0  1  0  0
  -23.7846   -3.0887   24.7662 F   0  0  0  0  0  0  0  0  0  0  0  0
  -20.3675   -6.3152   24.2020 F   0  0  0  0  0  0  0  0  0  0  0  0
  -29.5714  -17.8633   22.8778 S   0  0  0  0  0  0  0  0  0  0  0  0
  1  2  1  0  0  0  0
  1  5  2  0  0  0  0
  2  6  2  0  0  0  0
  3  8  2  0  0  0  0
  3 16  1  0  0  0  0
  4  9  1  0  0  0  0
  4 16  2  0  0  0  0
  5 18  1  0  0  0  0
  6 20  1  0  0  0  0
  7 10  2  0  0  0  0
  7 19  1  0  0  0  0
  8 23  1  0  0  0  0
  9 23  2  0  0  0  0
 10 24  1  0  0  0  0
 11 12  2  0  0  0  0
 11 25  1  0  0  0  0
 12 26  1  0  0  0  0
 13 21  1  0  0  0  0
 13 24  2  0  0  0  0
 14 22  1  0  0  0  0
 14 31  2  0  0  0  0
 15 26  2  0  0  0  0
 15 27  1  0  0  0  0
 16 28  1  0  0  0  0
 17 28  1  0  0  0  0
 17 30  2  0  0  0  0
 17 35  1  0  0  0  0
 18 20  2  0  0  0  0
 18 40  1  0  0  0  0
 19 21  2  0  0  0  0
 19 41  1  0  0  0  0
 20 51  1  0  0  0  0
 21 42  1  0  0  0  0
 22 29  2  0  0  0  0
 22 65  1  0  0  0  0
 23 80  1  0  0  0  0
 24 81  1  0  0  0  0
 25 27  2  0  0  0  0
 25 80  1  0  0  0  0
 26 82  1  0  0  0  0
 27 83  1  0  0  0  0
 28 63  2  0  0  0  0
 29 54  1  0  0  0  0
 29 84  1  0  0  0  0
 30 64  1  0  0  0  0
 30 68  1  0  0  0  0
 31 70  1  0  0  0  0
 31 84  1  0  0  0  0
 32 33  1  0  0  0  0
 32 34  2  0  0  0  0
 32 43  1  0  0  0  0
 33 65  1  0  0  0  0
 33 74  2  0  0  0  0
 34 81  1  0  0  0  0
 35 69  1  0  0  0  0
 35 75  2  0  0  0  0
 36 52  1  0  0  0  0
 36 71  1  0  0  0  0
 36 76  2  0  0  0  0
 37 60  1  0  0  0  0
 37 66  1  0  0  0  0
 37 77  2  0  0  0  0
 38 61  1  0  0  0  0
 38 72  1  0  0  0  0
 38 78  2  0  0  0  0
 39 67  1  0  0  0  0
 39 70  1  0  0  0  0
 39 79  2  0  0  0  0
 40 44  1  0  0  0  0
 41 52  1  0  0  0  0
 42 66  1  0  0  0  0
 43 48  1  0  0  0  0
 44 46  1  0  0  0  0
 45 47  1  0  0  0  0
 45 49  1  0  0  0  0
 46 51  1  0  0  0  0
 47 53  1  0  0  0  0
 48 65  1  0  0  0  0
 49 67  1  0  0  0  0
 50 53  1  0  0  0  0
 50 67  1  0  0  0  0
 51 71  1  0  0  0  0
 52 66  1  0  0  0  0
 53 64  1  0  0  0  0
 55 61  1  0  0  0  0
 56 62  1  0  0  0  0
 57 62  1  0  0  0  0
 58 62  1  0  0  0  0
 59 73  1  0  0  0  0
 60 62  1  0  0  0  0
 60 72  1  0  0  0  0
 61 73  1  0  0  0  0
 63 64  1  0  0  0  0
M  CHG  1  73   1
M  ISO  4  34 101  39 100  70 100  81 101
M  END
> <Batch ID>
0086

> <Smiles>
CNC(C)C(=O)NC(C(=O)N1Cc2cc([101O:1][101CH:1]=C3CCN(c4cc([100NH:0][100C:0](=O)N5CCCC(n6nc(-c7ccc(Oc8ccc(F)cc8F)cc7)c(C(N)=O)c6N)C5)sc4C)C3=O)ccc2CC1C(=O)NC1CCCc2ccccc21)C(C)(C)C

> <Shape>
0.173

> <Color>
0.198

> <Negative vol penalty>
0.000

$$$$

  -OEChem-04052300173D

 86 95  0     1  0  0  0  0  0999 V2000
  -28.5287  -36.0948   27.2473 C   0  0  0  0  0  0  0  0  0  0  0  0
  -28.9138  -34.8875   26.6732 C   0  0  0  0  0  0  0  0  0  0  0  0
  -24.1153   -9.6157   20.1249 C   0  0  0  0  0  0  0  0  0  0  0  0
  -24.5251  -10.0503   22.4659 C   0  0  0  0  0  0  0  0  0  0  0  0
  -27.1878  -36.4766   27.2313 C   0  0  0  0  0  0  0  0  0  0  0  0
  -27.9581  -34.0609   26.0836 C   0  0  0  0  0  0  0  0  0  0  0  0
  -28.7071  -30.4962   21.1604 C   0  0  0  0  0  0  0  0  0  0  0  0
  -28.5867  -20.7063   20.8341 C   0  0  0  0  0  0  0  0  0  0  0  0
  -28.7489  -19.3215   20.8763 C   0  0  0  0  0  0  0  0  0  0  0  0
  -23.7006   -8.3213   20.4377 C   0  0  0  0  0  0  0  0  0  0  0  0
  -24.1103   -8.7558   22.7787 C   0  0  0  0  0  0  0  0  0  0  0  0
  -28.9696  -29.1342   21.0197 C   0  0  0  0  0  0  0  0  0  0  0  0
  -21.1882   -7.0968   23.1383 C   0  0  0  0  0  0  0  0  0  0  0  0
  -20.3223   -6.9391   24.2204 C   0  0  0  0  0  0  0  0  0  0  0  0
  -26.6107  -28.7147   20.7392 C   0  0  0  0  0  0  0  0  0  0  0  0
  -29.5906  -19.4890   23.1348 C   0  0  0  0  0  0  0  0  0  0  0  0
  -21.9488   -5.5281   25.3162 C   0  0  0  0  0  0  0  0  0  0  0  0
  -24.5276  -10.4803   21.1389 C   0  0  0  0  0  0  0  0  0  0  0  0
  -24.1555  -12.9726   20.7423 C   0  0  0  0  0  0  0  0  0  0  0  0
  -26.2166  -35.6588   26.6327 C   0  0  0  0  0  0  0  0  0  0  0  0
  -27.3911  -30.9772   21.1023 C   0  0  0  0  0  0  0  0  0  0  0  0
  -26.6028  -34.4315   26.0607 C   0  0  0  0  0  0  0  0  0  0  0  0
  -26.3344  -30.0835   20.8769 C   0  0  0  0  0  0  0  0  0  0  0  0
  -28.9266  -21.4824   21.9422 C   0  0  0  0  0  0  0  0  0  0  0  0
  -29.2508  -18.7129   22.0267 C   0  0  0  0  0  0  0  0  0  0  0  0
  -29.4285  -20.8737   23.0925 C   0  0  0  0  0  0  0  0  0  0  0  0
  -23.6980   -7.8913   21.7646 C   0  0  0  0  0  0  0  0  0  0  0  0
  -27.9211  -28.2429   20.8120 C   0  0  0  0  0  0  0  0  0  0  0  0
  -22.4344   -6.4701   23.1451 C   0  0  0  0  0  0  0  0  0  0  0  0
  -20.7026   -6.1548   25.3093 C   0  0  0  0  0  0  0  0  0  0  0  0
  -22.8147   -5.6858   24.2340 C   0  0  0  0  0  0  0  0  0  0  0  0
  -24.9566  -11.8174   20.8163 C   0  0  0  0  0  0  0  0  0  0  0  0
  -25.0303  -13.9760   20.4038 C   0  0  0  0  0  0  0  0  0  0  0  0
  -28.4191  -24.8157   21.7860 C   0  0  0  0  0  0  0  0  0  0  0  0
  -28.4830  -23.7815   22.8194 C   0  0  0  0  0  0  0  0  0  0  0  0
  -28.5285  -16.9386   24.2634 C   0  0  0  0  0  0  0  0  0  0  0  0
  -28.1809  -26.1397   21.8018 C   0  0  0  0  0  0  0  0  0  1  0  0
  -29.3120  -16.5586   23.2517 C   0  0  0  0  0  0  0  0  0  0  0  0
  -22.7467  -13.1252   20.9602 C   0  0  0  0  0  0  0  0  0  0  0  0
  -25.4666  -32.4956   23.1257 C   0  0  0  0  0  0  0  0  0  0  0  0
  -23.5062  -32.6370   20.5451 C   0  0  0  0  0  0  0  0  0  0  0  0
  -22.5831  -31.3254   17.5328 C   0  0  0  0  0  0  0  0  0  0  0  0
  -29.8585  -16.6019   20.9011 C   0  0  0  0  0  0  0  0  0  0  0  0
  -24.7726  -36.0917   26.6817 C   0  0  0  0  0  0  0  0  0  0  0  0
  -27.1272  -32.4525   21.2293 C   0  0  0  0  0  0  0  0  0  0  0  0
  -24.9057  -30.5516   20.7864 C   0  0  0  0  0  0  0  0  0  0  0  0
  -28.7260  -23.7598   20.7489 C   0  0  0  0  0  0  0  0  0  0  0  0
  -23.8762  -35.3340   25.7057 C   0  0  0  0  0  0  0  0  0  0  0  0
  -29.8276  -13.7855   18.8382 C   0  0  0  0  0  0  0  0  0  0  0  0
  -24.1507  -33.8354   25.7820 C   0  0  0  0  0  0  0  0  0  0  0  0
  -28.4968  -13.1065   19.1606 C   0  0  0  0  0  0  0  0  0  0  0  0
  -30.4805  -14.3366   20.1006 C   0  0  0  0  0  0  0  0  0  0  0  0
  -28.2778  -14.6209   21.1920 C   0  0  0  0  0  0  0  0  0  0  0  0
  -25.5990  -33.5192   25.3897 C   0  0  1  0  0  0  0  0  0  0  0  0
  -25.7003  -32.7687   21.6668 C   0  0  1  0  0  0  0  0  0  0  0  0
  -27.5704  -14.0518   19.9457 C   0  0  2  0  0  0  0  0  0  0  0  0
  -20.9228  -31.6323   15.6763 C   0  0  0  0  0  0  0  0  0  0  0  0
  -21.3353  -31.3799   22.2821 C   0  0  0  0  0  0  0  0  0  0  0  0
  -20.0685  -30.8452   20.1898 C   0  0  0  0  0  0  0  0  0  0  0  0
  -20.5400  -33.2207   20.7877 C   0  0  0  0  0  0  0  0  0  0  0  0
  -24.7204  -31.8271   15.5480 C   0  0  0  0  0  0  0  0  0  0  0  0
  -22.4276  -31.7498   19.9721 C   0  0  1  0  0  0  0  0  0  0  0  0
  -22.3114  -31.9795   16.1901 C   0  0  2  0  0  0  0  0  0  0  0  0
  -21.1195  -31.7895   20.8115 C   0  0  0  0  0  0  0  0  0  0  0  0
  -26.2415  -12.0628   20.5463 N   0  0  0  0  0  0  0  0  0  0  0  0
  -26.2544  -13.3837   20.2993 N   0  0  0  0  0  0  0  0  0  0  0  0
  -28.7599  -22.8463   21.8773 N   0  0  0  0  0  0  0  0  0  0  0  0
  -24.6982  -32.0027   20.9231 N   0  0  0  0  0  0  0  0  0  0  0  0
  -29.5676  -15.2255   20.8202 N   0  0  0  0  0  0  0  0  0  0  0  0
  -29.7804  -21.6409   24.2260 N   0  0  0  0  0  0  0  0  0  0  0  0
  -24.8641  -15.2982   20.1882 N   0  0  0  0  0  0  0  0  0  0  0  0
  -21.9967  -11.9913   21.3011 N   0  0  0  0  0  0  0  0  0  0  0  0
  -25.7547  -33.5653   23.9516 N   0  0  0  0  0  0  0  0  0  0  0  0
  -22.2582  -32.1590   18.5820 N   0  0  0  0  0  0  0  0  0  0  0  0
  -29.4185  -17.2749   22.0705 N   0  0  0  0  0  0  0  0  0  0  0  0
  -23.3119  -31.5281   15.1821 N   0  3  0  0  0  0  0  0  0  0  0  0
  -28.3361  -23.7590   24.0237 O   0  0  0  0  0  0  0  0  0  0  0  0
  -22.1671  -14.2311   20.8395 O   0  0  0  0  0  0  0  0  0  0  0  0
  -25.0538  -31.3962   23.4760 O   0  0  0  0  0  0  0  0  0  0  0  0
  -23.3015  -33.8492   20.6469 O   0  0  0  0  0  0  0  0  0  0  0  0
  -23.0345  -30.1874   17.6401 O   0  0  0  0  0  0  0  0  0  0  0  0
  -30.4838  -17.1888   20.0085 O   0  0  0  0  0  0  0  0  0  0  0  0
  -23.2932   -6.6283   22.0703 O   0  0  0  0  0  0  0  0  0  0  0  0
  -28.1745  -26.9129   20.6749 O   0  0  0  0  0  0  0  0  0  1  0  0
  -19.8716   -6.0047   26.3491 F   0  0  0  0  0  0  0  0  0  0  0  0
  -24.0111   -5.0822   24.2468 F   0  0  0  0  0  0  0  0  0  0  0  0
  1  2  1  0  0  0  0
  1  5  2  0  0  0  0
  2  6  2  0  0  0  0
  3 10  2  0  0  0  0
  3 18  1  0  0  0  0
  4 11  1  0  0  0  0
  4 18  2  0  0  0  0
  5 20  1  0  0  0  0
  6 22  1  0  0  0  0
  7 12  2  0  0  0  0
  7 21  1  0  0  0  0
  8  9  2  0  0  0  0
  8 24  1  0  0  0  0
  9 25  1  0  0  0  0
 10 27  1  0  0  0  0
 11 27  2  0  0  0  0
 12 28  1  0  0  0  0
 13 14  2  0  0  0  0
 13 29  1  0  0  0  0
 14 30  1  0  0  0  0
 15 23  1  0  0  0  0
 15 28  2  0  0  0  0
 16 25  2  0  0  0  0
 16 26  1  0  0  0  0
 17 30  2  0  0  0  0
 17 31  1  0  0  0  0
 18 32  1  0  0  0  0
 19 32  1  0  0  0  0
 19 33  2  0  0  0  0
 19 39  1  0  0  0  0
 20 22  2  0  0  0  0
 20 44  1  0  0  0  0
 21 23  2  0  0  0  0
 21 45  1  0  0  0  0
 22 54  1  0  0  0  0
 23 46  1  0  0  0  0
 24 26  2  0  0  0  0
 24 67  1  0  0  0  0
 25 75  1  0  0  0  0
 26 70  1  0  0  0  0
 27 83  1  0  0  0  0
 28 84  1  0  0  0  0
 29 31  2  0  0  0  0
 29 83  1  0  0  0  0
 30 85  1  0  0  0  0
 31 86  1  0  0  0  0
 32 65  2  0  0  0  0
 33 66  1  0  0  0  0
 33 71  1  0  0  0  0
 34 35  1  0  0  0  0
 34 37  2  0  0  0  0
 34 47  1  0  0  0  0
 35 67  1  0  0  0  0
 35 77  2  0  0  0  0
 36 38  2  0  0  0  0
 37 84  1  0  0  0  0
 38 75  1  0  0  0  0
 39 72  1  0  0  0  0
 39 78  2  0  0  0  0
 40 55  1  0  0  0  0
 40 73  1  0  0  0  0
 40 79  2  0  0  0  0
 41 62  1  0  0  0  0
 41 68  1  0  0  0  0
 41 80  2  0  0  0  0
 42 63  1  0  0  0  0
 42 74  1  0  0  0  0
 42 81  2  0  0  0  0
 43 69  1  0  0  0  0
 43 75  1  0  0  0  0
 43 82  2  0  0  0  0
 44 48  1  0  0  0  0
 45 55  1  0  0  0  0
 46 68  1  0  0  0  0
 47 67  1  0  0  0  0
 48 50  1  0  0  0  0
 49 51  1  0  0  0  0
 49 52  1  0  0  0  0
 50 54  1  0  0  0  0
 51 56  1  0  0  0  0
 52 69  1  0  0  0  0
 53 56  1  0  0  0  0
 53 69  1  0  0  0  0
 54 73  1  0  0  0  0
 55 68  1  0  0  0  0
 56 66  1  0  0  0  0
 57 63  1  0  0  0  0
 58 64  1  0  0  0  0
 59 64  1  0  0  0  0
 60 64  1  0  0  0  0
 61 76  1  0  0  0  0
 62 64  1  0  0  0  0
 62 74  1  0  0  0  0
 63 76  1  0  0  0  0
 65 66  1  0  0  0  0
M  CHG  1  76   1
M  ISO  4  37 101  43 100  75 100  84 101
M  END
> <Batch ID>
0086

> <Smiles>
C=C[100N:0](c1ccc(N2CC(=[101CH:1][101O:1]c3ccc4c(c3)CN(C(=O)C(NC(=O)C(C)NC)C(C)(C)C)C(C(=O)NC3CCCc5ccccc53)C4)C2=O)c(N)c1)[100C:0](=O)N1CCCC(n2nc(-c3ccc(Oc4ccc(F)cc4F)cc3)c(C(N)=O)c2N)C1

> <Shape>
0.290

> <Color>
0.146

> <Negative vol penalty>
0.000

$$$$
