
  -OEChem-04052300203D

 86 94  0     1  0  0  0  0  0999 V2000
  -25.5218  -32.0964   13.4256 C   0  0  0  0  0  0  0  0  0  0  0  0
  -25.8641  -31.0535   14.2803 C   0  0  0  0  0  0  0  0  0  0  0  0
  -23.1128   -9.8002   20.4831 C   0  0  0  0  0  0  0  0  0  0  0  0
  -23.7856  -10.2664   22.7562 C   0  0  0  0  0  0  0  0  0  0  0  0
  -31.2826  -19.0619   19.6162 C   0  0  0  0  0  0  0  0  0  0  0  0
  -25.8506  -33.4088   13.7624 C   0  0  0  0  0  0  0  0  0  0  0  0
  -26.5366  -31.3223   15.4720 C   0  0  0  0  0  0  0  0  0  0  0  0
  -24.6117  -28.7789   19.4053 C   0  0  0  0  0  0  0  0  0  0  0  0
  -31.1199  -17.7015   19.8777 C   0  0  0  0  0  0  0  0  0  0  0  0
  -22.3656   -8.7096   20.9279 C   0  0  0  0  0  0  0  0  0  0  0  0
  -23.0384   -9.1758   23.2011 C   0  0  0  0  0  0  0  0  0  0  0  0
  -24.9559  -27.4330   19.5231 C   0  0  0  0  0  0  0  0  0  0  0  0
  -19.7937   -8.4725   23.8319 C   0  0  0  0  0  0  0  0  0  0  0  0
  -18.9933   -8.6539   24.9598 C   0  0  0  0  0  0  0  0  0  0  0  0
  -29.5852  -19.5801   21.2555 C   0  0  0  0  0  0  0  0  0  0  0  0
  -26.6124  -28.0078   21.1798 C   0  0  0  0  0  0  0  0  0  0  0  0
  -20.2154   -6.9140   26.1069 C   0  0  0  0  0  0  0  0  0  0  0  0
  -23.8228  -10.5786   21.3973 C   0  0  0  0  0  0  0  0  0  0  0  0
  -30.5153  -20.0012   20.3052 C   0  0  0  0  0  0  0  0  0  0  0  0
  -24.1567  -13.0351   20.7956 C   0  0  0  0  0  0  0  0  0  0  0  0
  -26.5189  -33.6948   14.9633 C   0  0  0  0  0  0  0  0  0  0  0  0
  -25.2740  -29.7522   20.1672 C   0  0  0  0  0  0  0  0  0  0  0  0
  -26.8759  -32.6396   15.8245 C   0  0  0  0  0  0  0  0  0  0  0  0
  -26.2730  -29.3651   21.0717 C   0  0  0  0  0  0  0  0  0  0  0  0
  -30.1898  -17.2803   20.8281 C   0  0  0  0  0  0  0  0  0  0  0  0
  -22.3284   -8.3974   22.2869 C   0  0  0  0  0  0  0  0  0  0  0  0
  -25.9583  -27.0476   20.4084 C   0  0  0  0  0  0  0  0  0  0  0  0
  -20.8049   -7.5117   23.8415 C   0  0  0  0  0  0  0  0  0  0  0  0
  -19.2042   -7.8747   26.0973 C   0  0  0  0  0  0  0  0  0  0  0  0
  -29.4224  -18.2196   21.5170 C   0  0  0  0  0  0  0  0  0  0  0  0
  -21.0158   -6.7325   24.9790 C   0  0  0  0  0  0  0  0  0  0  0  0
  -24.5953  -11.7050   20.9384 C   0  0  0  0  0  0  0  0  0  0  0  0
  -25.2581  -13.7119   20.3317 C   0  0  0  0  0  0  0  0  0  0  0  0
  -27.5831  -25.3738   20.2379 C   0  0  0  0  0  0  0  0  0  1  0  0
  -28.0144  -24.1154   20.3209 C   0  0  0  0  0  0  0  0  0  0  0  0
  -30.6901  -21.4632   20.0239 C   0  0  0  0  0  0  0  0  0  0  0  0
  -22.8688  -13.6076   21.0589 C   0  0  0  0  0  0  0  0  0  0  0  0
  -27.0817  -32.2792   19.4961 C   0  0  0  0  0  0  0  0  0  0  0  0
  -26.9023  -32.7693   22.6977 C   0  0  0  0  0  0  0  0  0  0  0  0
  -26.4064  -31.4527   25.8069 C   0  0  0  0  0  0  0  0  0  0  0  0
  -30.7087  -14.8379   20.4943 C   0  0  0  0  0  0  0  0  0  0  0  0
  -26.8952  -35.1244   15.2620 C   0  0  0  0  0  0  0  0  0  0  0  0
  -24.8726  -31.1969   20.0479 C   0  0  0  0  0  0  0  0  0  0  0  0
  -27.0004  -30.3688   21.9272 C   0  0  0  0  0  0  0  0  0  0  0  0
  -27.2760  -35.3619   16.7211 C   0  0  0  0  0  0  0  0  0  0  0  0
  -29.6961  -11.9928   18.6081 C   0  0  0  0  0  0  0  0  0  0  0  0
  -28.2358  -34.2797   17.2053 C   0  0  0  0  0  0  0  0  0  0  0  0
  -28.2427  -11.7737   19.0345 C   0  0  0  0  0  0  0  0  0  0  0  0
  -30.5641  -12.4641   19.7735 C   0  0  0  0  0  0  0  0  0  0  0  0
  -28.6030  -13.4223   20.9158 C   0  0  0  0  0  0  0  0  0  0  0  0
  -27.5836  -32.8935   17.1378 C   0  0  1  0  0  0  0  0  0  0  0  0
  -25.9672  -32.1602   20.4968 C   0  0  1  0  0  0  0  0  0  0  0  0
  -27.6761  -13.0095   19.7607 C   0  0  2  0  0  0  0  0  0  0  0  0
  -26.3588  -32.0932   28.2328 C   0  0  0  0  0  0  0  0  0  0  0  0
  -29.9513  -32.8842   22.7246 C   0  0  0  0  0  0  0  0  0  0  0  0
  -29.8718  -32.5685   25.2070 C   0  0  0  0  0  0  0  0  0  0  0  0
  -28.8304  -34.5862   24.1741 C   0  0  0  0  0  0  0  0  0  0  0  0
  -23.5754  -30.6366   26.0865 C   0  0  0  0  0  0  0  0  0  0  0  0
  -27.7155  -32.3345   23.8930 C   0  0  1  0  0  0  0  0  0  0  0  0
  -25.5379  -31.9067   26.9662 C   0  0  2  0  0  0  0  0  0  0  0  0
  -29.0800  -33.0744   23.9823 C   0  0  0  0  0  0  0  0  0  0  0  0
  -25.8755  -11.5443   20.5929 N   0  0  0  0  0  0  0  0  0  0  0  0
  -29.6348  -22.2110   20.1880 N   0  0  0  0  0  0  0  0  0  0  0  0
  -26.2507  -12.7823   20.2284 N   0  0  0  0  0  0  0  0  0  0  0  0
  -26.5763  -31.7699   21.7699 N   0  0  0  0  0  0  0  0  0  0  0  0
  -29.9675  -13.6402   20.4104 N   0  0  0  0  0  0  0  0  0  0  0  0
  -25.4647  -15.0056   20.0060 N   0  0  0  0  0  0  0  0  0  0  0  0
  -31.9380  -21.8930   19.6236 N   0  0  0  0  0  0  0  0  0  0  0  0
  -21.8493  -12.7700   21.5316 N   0  0  0  0  0  0  0  0  0  0  0  0
  -30.0264  -15.8976   21.0910 N   0  0  0  0  0  0  0  0  0  0  0  0
  -26.6735  -32.7086   18.2478 N   0  0  0  0  0  0  0  0  0  0  0  0
  -26.8582  -32.5193   25.0589 N   0  0  0  0  0  0  0  0  0  0  0  0
  -24.4728  -30.9010   27.2404 N   0  3  0  0  0  0  0  0  0  0  0  0
  -22.6246  -14.8226   20.8647 O   0  0  0  0  0  0  0  0  0  0  0  0
  -28.2274  -32.0034   19.8322 O   0  0  0  0  0  0  0  0  0  0  0  0
  -26.5627  -33.9507   22.5947 O   0  0  0  0  0  0  0  0  0  0  0  0
  -26.6618  -30.2704   25.5890 O   0  0  0  0  0  0  0  0  0  0  0  0
  -31.8538  -14.9252   20.0436 O   0  0  0  0  0  0  0  0  0  0  0  0
  -30.5057  -24.4679   20.9194 O   0  0  0  0  0  0  0  0  0  0  0  0
  -29.8625  -24.0884   18.5117 O   0  0  0  0  0  0  0  0  0  0  0  0
  -21.5992   -7.3334   22.7213 O   0  0  0  0  0  0  0  0  0  0  0  0
  -26.2966  -25.7346   20.5249 O   0  0  0  0  0  0  0  0  0  1  0  0
  -18.4365   -8.0501   27.1808 F   0  0  0  0  0  0  0  0  0  0  0  0
  -28.5249  -17.8266   22.4324 F   0  0  0  0  0  0  0  0  0  0  0  0
  -21.9865   -5.8087   24.9946 F   0  0  0  0  0  0  0  0  0  0  0  0
  -29.6605  -23.8191   19.9277 S   0  0  0  0  0  0  0  0  0  0  0  0
  1  2  1  0  0  0  0
  1  6  2  0  0  0  0
  2  7  2  0  0  0  0
  3 10  2  0  0  0  0
  3 18  1  0  0  0  0
  4 11  1  0  0  0  0
  4 18  2  0  0  0  0
  5  9  2  0  0  0  0
  5 19  1  0  0  0  0
  6 21  1  0  0  0  0
  7 23  1  0  0  0  0
  8 12  2  0  0  0  0
  8 22  1  0  0  0  0
  9 25  1  0  0  0  0
 10 26  1  0  0  0  0
 11 26  2  0  0  0  0
 12 27  1  0  0  0  0
 13 14  2  0  0  0  0
 13 28  1  0  0  0  0
 14 29  1  0  0  0  0
 15 19  2  0  0  0  0
 15 30  1  0  0  0  0
 16 24  1  0  0  0  0
 16 27  2  0  0  0  0
 17 29  2  0  0  0  0
 17 31  1  0  0  0  0
 18 32  1  0  0  0  0
 19 36  1  0  0  0  0
 20 32  1  0  0  0  0
 20 33  2  0  0  0  0
 20 37  1  0  0  0  0
 21 23  2  0  0  0  0
 21 42  1  0  0  0  0
 22 24  2  0  0  0  0
 22 43  1  0  0  0  0
 23 51  1  0  0  0  0
 24 44  1  0  0  0  0
 25 30  2  0  0  0  0
 25 70  1  0  0  0  0
 26 81  1  0  0  0  0
 27 82  1  0  0  0  0
 28 31  2  0  0  0  0
 28 81  1  0  0  0  0
 29 83  1  0  0  0  0
 30 84  1  0  0  0  0
 31 85  1  0  0  0  0
 32 62  2  0  0  0  0
 33 64  1  0  0  0  0
 33 67  1  0  0  0  0
 34 35  2  0  0  0  0
 34 82  1  0  0  0  0
 35 86  1  0  0  0  0
 36 63  2  0  0  0  0
 36 68  1  0  0  0  0
 37 69  1  0  0  0  0
 37 74  2  0  0  0  0
 38 52  1  0  0  0  0
 38 71  1  0  0  0  0
 38 75  2  0  0  0  0
 39 59  1  0  0  0  0
 39 65  1  0  0  0  0
 39 76  2  0  0  0  0
 40 60  1  0  0  0  0
 40 72  1  0  0  0  0
 40 77  2  0  0  0  0
 41 66  1  0  0  0  0
 41 70  1  0  0  0  0
 41 78  2  0  0  0  0
 42 45  1  0  0  0  0
 43 52  1  0  0  0  0
 44 65  1  0  0  0  0
 45 47  1  0  0  0  0
 46 48  1  0  0  0  0
 46 49  1  0  0  0  0
 47 51  1  0  0  0  0
 48 53  1  0  0  0  0
 49 66  1  0  0  0  0
 50 53  1  0  0  0  0
 50 66  1  0  0  0  0
 51 71  1  0  0  0  0
 52 65  1  0  0  0  0
 53 64  1  0  0  0  0
 54 60  1  0  0  0  0
 55 61  1  0  0  0  0
 56 61  1  0  0  0  0
 57 61  1  0  0  0  0
 58 73  1  0  0  0  0
 59 61  1  0  0  0  0
 59 72  1  0  0  0  0
 60 73  1  0  0  0  0
 62 64  1  0  0  0  0
 63 86  1  0  0  0  0
 79 86  2  0  0  0  0
 80 86  2  0  0  0  0
M  CHG  1  73   1
M  ISO  4  34 101  41 100  70 100  82 101
M  END
> <Batch ID>
0087

> <Smiles>
CNC(C)C(=O)NC(C(=O)N1Cc2cc([101O:1][101CH:1]=CS(=O)(=O)NC(=N)c3ccc([100NH:0][100C:0](=O)N4CCCC(n5nc(-c6ccc(Oc7ccc(F)cc7F)cc6)c(C(N)=O)c5N)C4)c(F)c3)ccc2CC1C(=O)NC1CCCc2ccccc21)C(C)(C)C

> <Shape>
0.327

> <Color>
0.195

> <Negative vol penalty>
0.000

$$$$

  -OEChem-04052300203D

 87 96  0     1  0  0  0  0  0999 V2000
  -23.8604  -30.1797   28.8326 C   0  0  0  0  0  0  0  0  0  0  0  0
  -24.3065  -28.8846   28.5897 C   0  0  0  0  0  0  0  0  0  0  0  0
  -32.6377  -17.4651   23.4312 C   0  0  0  0  0  0  0  0  0  0  0  0
  -23.0000   -9.8877   19.9874 C   0  0  0  0  0  0  0  0  0  0  0  0
  -23.7212   -9.9535   22.2923 C   0  0  0  0  0  0  0  0  0  0  0  0
  -22.5070  -30.4168   29.0693 C   0  0  0  0  0  0  0  0  0  0  0  0
  -23.3994  -27.8255   28.5843 C   0  0  0  0  0  0  0  0  0  0  0  0
  -24.1209  -24.6694   24.6903 C   0  0  0  0  0  0  0  0  0  0  0  0
  -31.8416  -18.3663   24.1379 C   0  0  0  0  0  0  0  0  0  0  0  0
  -32.0509  -16.5633   22.5435 C   0  0  0  0  0  0  0  0  0  0  0  0
  -22.2333   -8.7547   20.2596 C   0  0  0  0  0  0  0  0  0  0  0  0
  -22.9544   -8.8205   22.5646 C   0  0  0  0  0  0  0  0  0  0  0  0
  -25.1719  -23.7593   24.7946 C   0  0  0  0  0  0  0  0  0  0  0  0
  -23.2004   -5.4787   22.1143 C   0  0  0  0  0  0  0  0  0  0  0  0
  -23.7869   -4.4665   22.8738 C   0  0  0  0  0  0  0  0  0  0  0  0
  -23.6076  -22.0341   25.4239 C   0  0  0  0  0  0  0  0  0  0  0  0
  -28.6898  -20.3541   26.3431 C   0  0  0  0  0  0  0  0  0  0  0  0
  -29.8716  -17.4640   23.0692 C   0  0  0  0  0  0  0  0  0  0  0  0
  -22.0600   -4.7196   24.5445 C   0  0  0  0  0  0  0  0  0  0  0  0
  -23.7440  -10.4871   21.0038 C   0  0  0  0  0  0  0  0  0  0  0  0
  -24.1290  -13.0016   20.8124 C   0  0  0  0  0  0  0  0  0  0  0  0
  -21.5815  -29.3614   29.0573 C   0  0  0  0  0  0  0  0  0  0  0  0
  -22.8044  -24.2707   24.9630 C   0  0  0  0  0  0  0  0  0  0  0  0
  -22.0326  -28.0484   28.8224 C   0  0  0  0  0  0  0  0  0  0  0  0
  -22.5414  -22.9405   25.3198 C   0  0  0  0  0  0  0  0  0  0  0  0
  -28.2304  -20.9066   25.1222 C   0  0  0  0  0  0  0  0  0  0  0  0
  -30.4585  -18.3658   23.9569 C   0  0  0  0  0  0  0  0  0  0  0  0
  -30.6678  -16.5628   22.3625 C   0  0  0  0  0  0  0  0  0  0  0  0
  -22.2104   -8.2211   21.5482 C   0  0  0  0  0  0  0  0  0  0  0  0
  -24.9157  -22.4421   25.1643 C   0  0  0  0  0  0  0  0  0  0  0  0
  -22.0437   -6.1115   22.5699 C   0  0  0  0  0  0  0  0  0  0  0  0
  -23.2167   -4.0869   24.0890 C   0  0  0  0  0  0  0  0  0  0  0  0
  -21.4736   -5.7319   23.7850 C   0  0  0  0  0  0  0  0  0  0  0  0
  -24.5366  -11.6571   20.7230 C   0  0  0  0  0  0  0  0  0  0  0  0
  -28.8465  -20.2172   24.1011 C   0  0  0  0  0  0  0  0  0  0  0  0
  -25.2392  -13.7221   20.4454 C   0  0  0  0  0  0  0  0  0  0  0  0
  -29.5729  -19.3440   26.0311 C   0  0  0  0  0  0  0  0  0  0  0  0
  -22.8602  -13.5501   21.1933 C   0  0  0  0  0  0  0  0  0  0  0  0
  -28.6900  -20.4244   22.6911 C   0  0  0  0  0  0  0  0  0  0  0  0
  -20.6020  -25.1121   27.0949 C   0  0  0  0  0  0  0  0  0  0  0  0
  -18.7210  -23.1190   25.3594 C   0  0  0  0  0  0  0  0  0  0  0  0
  -18.5064  -20.4644   23.2255 C   0  0  0  0  0  0  0  0  0  0  0  0
  -30.7180  -14.6861   20.6826 C   0  0  0  0  0  0  0  0  0  0  0  0
  -20.1356  -29.6602   29.3653 C   0  0  0  0  0  0  0  0  0  0  0  0
  -21.6787  -25.2579   24.8200 C   0  0  0  0  0  0  0  0  0  0  0  0
  -21.1434  -22.4571   25.6034 C   0  0  0  0  0  0  0  0  0  0  0  0
  -19.1835  -28.5339   28.9713 C   0  0  0  0  0  0  0  0  0  0  0  0
  -29.6043  -12.2182   18.3704 C   0  0  0  0  0  0  0  0  0  0  0  0
  -19.7256  -27.1878   29.4413 C   0  0  0  0  0  0  0  0  0  0  0  0
  -28.1531  -11.9628   18.7837 C   0  0  0  0  0  0  0  0  0  0  0  0
  -30.5027  -12.4695   19.5802 C   0  0  0  0  0  0  0  0  0  0  0  0
  -28.5849  -13.2663   20.9054 C   0  0  0  0  0  0  0  0  0  0  0  0
  -21.0756  -26.8767   28.7839 C   0  0  1  0  0  0  0  0  0  0  0  0
  -20.4392  -24.8709   25.6208 C   0  0  1  0  0  0  0  0  0  0  0  0
  -27.6293  -13.0722   19.7167 C   0  0  2  0  0  0  0  0  0  0  0  0
  -27.3112  -20.2646   22.0946 C   0  0  0  0  0  0  0  0  0  0  0  0
  -16.8319  -19.0427   22.0120 C   0  0  0  0  0  0  0  0  0  0  0  0
  -18.0644  -21.6729   27.9647 C   0  0  0  0  0  0  0  0  0  0  0  0
  -17.1986  -19.7588   26.6027 C   0  0  0  0  0  0  0  0  0  0  0  0
  -16.1148  -21.9991   26.4326 C   0  0  0  0  0  0  0  0  0  0  0  0
  -19.5898  -21.2400   20.5828 C   0  0  0  0  0  0  0  0  0  0  0  0
  -27.2518  -22.0354   24.9827 C   0  0  0  0  0  0  0  0  0  1  0  0
  -18.3973  -21.6452   25.4045 C   0  0  1  0  0  0  0  0  0  0  0  0
  -17.7290  -20.2685   21.9364 C   0  0  2  0  0  0  0  0  0  0  0  0
  -17.4705  -21.2783   26.5977 C   0  0  0  0  0  0  0  0  0  0  0  0
  -25.8066  -11.5284   20.3299 N   0  0  0  0  0  0  0  0  0  0  0  0
  -29.6605  -19.2700   24.6654 N   0  0  0  0  0  0  0  0  0  0  0  0
  -26.2065  -12.8013   20.1689 N   0  0  0  0  0  0  0  0  0  0  0  0
  -20.0772  -23.4616   25.4561 N   0  0  0  0  0  0  0  0  0  0  0  0
  -29.9460  -13.5356   20.4158 N   0  0  0  0  0  0  0  0  0  0  0  0
  -25.4725  -15.0472   20.3353 N   0  0  0  0  0  0  0  0  0  0  0  0
  -21.8280  -12.6679   21.5407 N   0  0  0  0  0  0  0  0  0  0  0  0
  -30.0722  -15.6461   21.4610 N   0  0  0  0  0  0  0  0  0  0  0  0
  -20.8827  -26.4248   27.4226 N   0  0  0  0  0  0  0  0  0  0  0  0
  -17.8484  -21.3076   24.0957 N   0  0  0  0  0  0  0  0  0  0  0  0
  -18.6639  -20.0966   20.7887 N   0  3  0  0  0  0  0  0  0  0  0  0
  -22.6432  -14.7855   21.2088 O   0  0  0  0  0  0  0  0  0  0  0  0
  -29.5986  -20.7244   21.8951 O   0  0  0  0  0  0  0  0  0  0  0  0
  -20.4804  -24.1767   27.8772 O   0  0  0  0  0  0  0  0  0  0  0  0
  -17.8050  -23.9359   25.2354 O   0  0  0  0  0  0  0  0  0  0  0  0
  -19.5874  -19.9206   23.4406 O   0  0  0  0  0  0  0  0  0  0  0  0
  -31.8574  -14.8224   20.2297 O   0  0  0  0  0  0  0  0  0  0  0  0
  -30.2654  -18.5317   26.8203 O   0  0  0  0  0  0  0  0  0  0  0  0
  -21.4622   -7.1157   21.8142 O   0  0  0  0  0  0  0  0  0  0  0  0
  -25.9398  -21.5519   25.2675 O   0  0  0  0  0  0  0  0  0  1  0  0
  -23.7792   -3.1137   24.8175 F   0  0  0  0  0  0  0  0  0  0  0  0
  -20.3618   -6.3353   24.2272 F   0  0  0  0  0  0  0  0  0  0  0  0
  1  2  1  0  0  0  0
  1  6  2  0  0  0  0
  2  7  2  0  0  0  0
  3  9  2  0  0  0  0
  3 10  1  0  0  0  0
  4 11  2  0  0  0  0
  4 20  1  0  0  0  0
  5 12  1  0  0  0  0
  5 20  2  0  0  0  0
  6 22  1  0  0  0  0
  7 24  1  0  0  0  0
  8 13  2  0  0  0  0
  8 23  1  0  0  0  0
  9 27  1  0  0  0  0
 10 28  2  0  0  0  0
 11 29  1  0  0  0  0
 12 29  2  0  0  0  0
 13 30  1  0  0  0  0
 14 15  2  0  0  0  0
 14 31  1  0  0  0  0
 15 32  1  0  0  0  0
 16 25  1  0  0  0  0
 16 30  2  0  0  0  0
 17 26  1  0  0  0  0
 17 37  2  0  0  0  0
 18 27  2  0  0  0  0
 18 28  1  0  0  0  0
 19 32  2  0  0  0  0
 19 33  1  0  0  0  0
 20 34  1  0  0  0  0
 21 34  1  0  0  0  0
 21 36  2  0  0  0  0
 21 38  1  0  0  0  0
 22 24  2  0  0  0  0
 22 44  1  0  0  0  0
 23 25  2  0  0  0  0
 23 45  1  0  0  0  0
 24 53  1  0  0  0  0
 25 46  1  0  0  0  0
 26 35  2  0  0  0  0
 26 62  1  0  0  0  0
 27 67  1  0  0  0  0
 28 73  1  0  0  0  0
 29 84  1  0  0  0  0
 30 85  1  0  0  0  0
 31 33  2  0  0  0  0
 31 84  1  0  0  0  0
 32 86  1  0  0  0  0
 33 87  1  0  0  0  0
 34 66  2  0  0  0  0
 35 39  1  0  0  0  0
 35 67  1  0  0  0  0
 36 68  1  0  0  0  0
 36 71  1  0  0  0  0
 37 67  1  0  0  0  0
 37 83  1  0  0  0  0
 38 72  1  0  0  0  0
 38 77  2  0  0  0  0
 39 56  1  0  0  0  0
 39 78  2  0  0  0  0
 40 54  1  0  0  0  0
 40 74  1  0  0  0  0
 40 79  2  0  0  0  0
 41 63  1  0  0  0  0
 41 69  1  0  0  0  0
 41 80  2  0  0  0  0
 42 64  1  0  0  0  0
 42 75  1  0  0  0  0
 42 81  2  0  0  0  0
 43 70  1  0  0  0  0
 43 73  1  0  0  0  0
 43 82  2  0  0  0  0
 44 47  1  0  0  0  0
 45 54  1  0  0  0  0
 46 69  1  0  0  0  0
 47 49  1  0  0  0  0
 48 50  1  0  0  0  0
 48 51  1  0  0  0  0
 49 53  1  0  0  0  0
 50 55  1  0  0  0  0
 51 70  1  0  0  0  0
 52 55  1  0  0  0  0
 52 70  1  0  0  0  0
 53 74  1  0  0  0  0
 54 69  1  0  0  0  0
 55 68  1  0  0  0  0
 57 64  1  0  0  0  0
 58 65  1  0  0  0  0
 59 65  1  0  0  0  0
 60 65  1  0  0  0  0
 61 76  1  0  0  0  0
 62 85  1  0  0  0  0
 63 65  1  0  0  0  0
 63 75  1  0  0  0  0
 64 76  1  0  0  0  0
 66 68  1  0  0  0  0
M  CHG  1  76   1
M  ISO  4  43 100  62 101  73 100  85 101
M  END
> <Batch ID>
0087

> <Smiles>
CNC(C)C(=O)NC(C(=O)N1Cc2cc([101O:1][101CH2:1]C3=C(C(C)=O)N(c4cccc([100NH:0][100C:0](=O)N5CCCC(n6nc(-c7ccc(Oc8ccc(F)cc8F)cc7)c(C(N)=O)c6N)C5)c4)C(=O)C3)ccc2CC1C(=O)NC1CCCc2ccccc21)C(C)(C)C

> <Shape>
0.177

> <Color>
0.190

> <Negative vol penalty>
0.000

$$$$

  -OEChem-04052300203D

 85 94  0     1  0  0  0  0  0999 V2000
  -22.5406   -8.1881   20.7882 C   0  0  0  0  0  0  0  0  0  0  0  0
  -22.0481   -9.4284   20.3953 C   0  0  0  0  0  0  0  0  0  0  0  0
  -25.7036  -23.8248   14.8333 C   0  0  0  0  0  0  0  0  0  0  0  0
  -25.3138  -31.2501   22.0679 C   0  0  0  0  0  0  0  0  0  0  0  0
  -26.9931  -31.8537   20.4392 C   0  0  0  0  0  0  0  0  0  0  0  0
  -26.9698  -24.1777   15.3000 C   0  0  0  0  0  0  0  0  0  0  0  0
  -23.6425   -8.1146   21.6393 C   0  0  0  0  0  0  0  0  0  0  0  0
  -22.6566  -10.5961   20.8542 C   0  0  0  0  0  0  0  0  0  0  0  0
  -23.2969  -15.8617   17.7932 C   0  0  0  0  0  0  0  0  0  0  0  0
  -24.8286  -23.1174   15.6578 C   0  0  0  0  0  0  0  0  0  0  0  0
  -25.4332  -32.5086   22.6575 C   0  0  0  0  0  0  0  0  0  0  0  0
  -27.1124  -33.1123   21.0288 C   0  0  0  0  0  0  0  0  0  0  0  0
  -22.5717  -17.0522   17.8128 C   0  0  0  0  0  0  0  0  0  0  0  0
  -27.5565  -34.0793   24.7666 C   0  0  0  0  0  0  0  0  0  0  0  0
  -27.6294  -34.1380   26.1583 C   0  0  0  0  0  0  0  0  0  0  0  0
  -26.4861  -23.1158   17.4155 C   0  0  0  0  0  0  0  0  0  0  0  0
  -24.1521  -17.9820   19.3804 C   0  0  0  0  0  0  0  0  0  0  0  0
  -23.0366  -21.5176   19.4907 C   0  0  0  0  0  0  0  0  0  0  0  0
  -25.6297  -35.4931   26.2058 C   0  0  0  0  0  0  0  0  0  0  0  0
  -26.0938  -30.9226   20.9588 C   0  0  0  0  0  0  0  0  0  0  0  0
  -27.3611  -23.8232   16.5911 C   0  0  0  0  0  0  0  0  0  0  0  0
  -25.0979  -29.2495   19.3106 C   0  0  0  0  0  0  0  0  0  0  0  0
  -24.2708   -9.2819   22.1011 C   0  0  0  0  0  0  0  0  0  0  0  0
  -24.4511  -15.7182   18.5766 C   0  0  0  0  0  0  0  0  0  0  0  0
  -23.7671  -10.5382   21.7134 C   0  0  0  0  0  0  0  0  0  0  0  0
  -24.8916  -16.7895   19.3669 C   0  0  0  0  0  0  0  0  0  0  0  0
  -25.2199  -22.7629   16.9489 C   0  0  0  0  0  0  0  0  0  0  0  0
  -26.3325  -33.4397   22.1379 C   0  0  0  0  0  0  0  0  0  0  0  0
  -22.9977  -18.1116   18.6087 C   0  0  0  0  0  0  0  0  0  0  0  0
  -26.5204  -34.7276   24.0944 C   0  0  0  0  0  0  0  0  0  0  0  0
  -23.0012  -20.4608   18.5476 C   0  0  0  0  0  0  0  0  0  1  0  0
  -26.6659  -34.8448   26.8779 C   0  0  0  0  0  0  0  0  0  0  0  0
  -25.5569  -35.4345   24.8141 C   0  0  0  0  0  0  0  0  0  0  0  0
  -25.9714  -29.6226   20.3497 C   0  0  0  0  0  0  0  0  0  0  0  0
  -25.3683  -27.9202   19.0955 C   0  0  0  0  0  0  0  0  0  0  0  0
  -23.8733  -22.4896   18.9879 C   0  0  0  0  0  0  0  0  0  0  0  0
  -23.8170  -20.8193   17.4972 C   0  0  0  0  0  0  0  0  0  0  0  0
  -28.6816  -24.1918   17.0764 C   0  0  0  0  0  0  0  0  0  0  0  0
  -24.1289  -30.0344   18.6031 C   0  0  0  0  0  0  0  0  0  0  0  0
  -29.1296  -23.8317   18.4413 C   0  0  0  0  0  0  0  0  0  0  0  0
  -25.3187  -13.8067   20.9635 C   0  0  0  0  0  0  0  0  0  0  0  0
  -28.1871  -15.2713   20.5767 C   0  0  0  0  0  0  0  0  0  0  0  0
  -29.9234  -17.9998   19.4870 C   0  0  0  0  0  0  0  0  0  0  0  0
  -25.4298   -9.1527   23.0575 C   0  0  0  0  0  0  0  0  0  0  0  0
  -25.2371  -14.4369   18.5238 C   0  0  0  0  0  0  0  0  0  0  0  0
  -26.1354  -16.6934   20.2108 C   0  0  0  0  0  0  0  0  0  0  0  0
  -26.2483  -10.4334   23.1991 C   0  0  0  0  0  0  0  0  0  0  0  0
  -28.0959  -24.6266   21.7813 C   0  0  0  0  0  0  0  0  0  0  0  0
  -25.3293  -11.6363   23.3866 C   0  0  0  0  0  0  0  0  0  0  0  0
  -27.4138  -25.9854   21.6259 C   0  0  0  0  0  0  0  0  0  0  0  0
  -29.2664  -24.4757   20.8151 C   0  0  0  0  0  0  0  0  0  0  0  0
  -28.2139  -26.0574   19.2217 C   0  0  0  0  0  0  0  0  0  0  0  0
  -24.4153  -11.8271   22.1701 C   0  0  1  0  0  0  0  0  0  0  0  0
  -26.1107  -14.2206   19.7556 C   0  0  1  0  0  0  0  0  0  0  0  0
  -27.0093  -26.2359   20.1622 C   0  0  2  0  0  0  0  0  0  0  0  0
  -32.2522  -18.9230   19.3400 C   0  0  0  0  0  0  0  0  0  0  0  0
  -28.1114  -15.9301   23.5550 C   0  0  0  0  0  0  0  0  0  0  0  0
  -29.9182  -17.6168   23.1567 C   0  0  0  0  0  0  0  0  0  0  0  0
  -30.3474  -15.2016   22.7042 C   0  0  0  0  0  0  0  0  0  0  0  0
  -29.8157  -18.1149   16.5316 C   0  0  0  0  0  0  0  0  0  0  0  0
  -28.8426  -16.5060   21.1467 C   0  0  1  0  0  0  0  0  0  0  0  0
  -31.1703  -18.1240   18.6301 C   0  0  2  0  0  0  0  0  0  0  0  0
  -29.2803  -16.3151   22.6264 C   0  0  0  0  0  0  0  0  0  0  0  0
  -26.7390  -28.6119   20.7659 N   0  0  0  0  0  0  0  0  0  0  0  0
  -29.5506  -24.8512   16.3588 N   0  0  0  0  0  0  0  0  0  0  0  0
  -24.3419  -22.0543   17.7757 N   0  0  0  0  0  0  0  0  0  0  0  0
  -26.3488  -27.5906   19.9844 N   0  0  0  0  0  0  0  0  0  0  0  0
  -28.8564  -24.7554   19.4404 N   0  0  0  0  0  0  0  0  0  0  0  0
  -26.8662  -15.4178   20.1300 N   0  0  0  0  0  0  0  0  0  0  0  0
  -24.8606  -27.0128   18.2346 N   0  0  0  0  0  0  0  0  0  0  0  0
  -23.9798  -31.3840   18.9506 N   0  0  0  0  0  0  0  0  0  0  0  0
  -25.1447  -12.4410   21.0812 N   0  0  0  0  0  0  0  0  0  0  0  0
  -29.9339  -16.8445   20.2396 N   0  0  0  0  0  0  0  0  0  0  0  0
  -30.8496  -18.8060   17.3445 N   0  3  0  0  0  0  0  0  0  0  0  0
  -23.4049  -29.5491   17.7009 O   0  0  0  0  0  0  0  0  0  0  0  0
  -29.6968  -22.7517   18.5424 O   0  0  0  0  0  0  0  0  0  0  0  0
  -24.8979  -14.6630   21.7325 O   0  0  0  0  0  0  0  0  0  0  0  0
  -28.8261  -14.2175   20.5229 O   0  0  0  0  0  0  0  0  0  0  0  0
  -29.0312  -18.8451   19.4912 O   0  0  0  0  0  0  0  0  0  0  0  0
  -24.2303  -23.6637   19.4939 O   0  0  0  0  0  0  0  0  0  0  0  0
  -24.1143  -20.1741   16.3750 O   0  0  0  0  0  0  0  0  0  0  0  0
  -26.4490  -34.6679   22.7128 O   0  0  0  0  0  0  0  0  0  0  0  0
  -22.2913  -19.2746   18.6303 O   0  0  0  0  0  0  0  0  0  1  0  0
  -26.7351  -34.8997   28.2144 F   0  0  0  0  0  0  0  0  0  0  0  0
  -24.5585  -36.0583   24.1740 F   0  0  0  0  0  0  0  0  0  0  0  0
  1  2  1  0  0  0  0
  1  7  2  0  0  0  0
  2  8  2  0  0  0  0
  3  6  1  0  0  0  0
  3 10  2  0  0  0  0
  4 11  2  0  0  0  0
  4 20  1  0  0  0  0
  5 12  1  0  0  0  0
  5 20  2  0  0  0  0
  6 21  2  0  0  0  0
  7 23  1  0  0  0  0
  8 25  1  0  0  0  0
  9 13  2  0  0  0  0
  9 24  1  0  0  0  0
 10 27  1  0  0  0  0
 11 28  1  0  0  0  0
 12 28  2  0  0  0  0
 13 29  1  0  0  0  0
 14 15  2  0  0  0  0
 14 30  1  0  0  0  0
 15 32  1  0  0  0  0
 16 21  1  0  0  0  0
 16 27  2  0  0  0  0
 17 26  1  0  0  0  0
 17 29  2  0  0  0  0
 18 31  1  0  0  0  0
 18 36  2  0  0  0  0
 19 32  2  0  0  0  0
 19 33  1  0  0  0  0
 20 34  1  0  0  0  0
 21 38  1  0  0  0  0
 22 34  1  0  0  0  0
 22 35  2  0  0  0  0
 22 39  1  0  0  0  0
 23 25  2  0  0  0  0
 23 44  1  0  0  0  0
 24 26  2  0  0  0  0
 24 45  1  0  0  0  0
 25 53  1  0  0  0  0
 26 46  1  0  0  0  0
 27 66  1  0  0  0  0
 28 82  1  0  0  0  0
 29 83  1  0  0  0  0
 30 33  2  0  0  0  0
 30 82  1  0  0  0  0
 31 37  2  0  0  0  0
 31 83  1  0  0  0  0
 32 84  1  0  0  0  0
 33 85  1  0  0  0  0
 34 64  2  0  0  0  0
 35 67  1  0  0  0  0
 35 70  1  0  0  0  0
 36 66  1  0  0  0  0
 36 80  1  0  0  0  0
 37 66  1  0  0  0  0
 37 81  1  0  0  0  0
 38 40  1  0  0  0  0
 38 65  2  0  0  0  0
 39 71  1  0  0  0  0
 39 75  2  0  0  0  0
 40 68  1  0  0  0  0
 40 76  2  0  0  0  0
 41 54  1  0  0  0  0
 41 72  1  0  0  0  0
 41 77  2  0  0  0  0
 42 61  1  0  0  0  0
 42 69  1  0  0  0  0
 42 78  2  0  0  0  0
 43 62  1  0  0  0  0
 43 73  1  0  0  0  0
 43 79  2  0  0  0  0
 44 47  1  0  0  0  0
 45 54  1  0  0  0  0
 46 69  1  0  0  0  0
 47 49  1  0  0  0  0
 48 50  1  0  0  0  0
 48 51  1  0  0  0  0
 49 53  1  0  0  0  0
 50 55  1  0  0  0  0
 51 68  1  0  0  0  0
 52 55  1  0  0  0  0
 52 68  1  0  0  0  0
 53 72  1  0  0  0  0
 54 69  1  0  0  0  0
 55 67  1  0  0  0  0
 56 62  1  0  0  0  0
 57 63  1  0  0  0  0
 58 63  1  0  0  0  0
 59 63  1  0  0  0  0
 60 74  1  0  0  0  0
 61 63  1  0  0  0  0
 61 73  1  0  0  0  0
 62 74  1  0  0  0  0
 64 67  1  0  0  0  0
M  CHG  1  74   1
M  ISO  4  31 101  38 100  40 100  83 101
M  END
> <Batch ID>
0087

> <Smiles>
CNC(C)C(=O)NC(C(=O)N1Cc2cc([101O:1][101CH:1]3CC(=O)N(c4cccc([100C:0](=N)[100C:0](=O)N5CCCC(n6nc(-c7ccc(Oc8ccc(F)cc8F)cc7)c(C(N)=O)c6N)C5)c4)C3=O)ccc2CC1C(=O)NC1CCCc2ccccc21)C(C)(C)C

> <Shape>
0.241

> <Color>
0.060

> <Negative vol penalty>
0.000

$$$$

  -OEChem-04052300203D

 86 95  0     1  0  0  0  0  0999 V2000
  -26.4680  -35.5749   15.2764 C   0  0  0  0  0  0  0  0  0  0  0  0
  -26.2247  -34.2063   15.3312 C   0  0  0  0  0  0  0  0  0  0  0  0
  -23.0130  -10.3111   19.7939 C   0  0  0  0  0  0  0  0  0  0  0  0
  -23.7421   -9.4998   21.9497 C   0  0  0  0  0  0  0  0  0  0  0  0
  -28.7445  -19.7750   18.8704 C   0  0  0  0  0  0  0  0  0  0  0  0
  -27.1791  -18.0913   18.1278 C   0  0  0  0  0  0  0  0  0  0  0  0
  -26.9856  -36.2349   16.3901 C   0  0  0  0  0  0  0  0  0  0  0  0
  -26.5000  -33.4966   16.4996 C   0  0  0  0  0  0  0  0  0  0  0  0
  -23.3809  -28.7199   18.7268 C   0  0  0  0  0  0  0  0  0  0  0  0
  -27.7101  -20.7084   18.9347 C   0  0  0  0  0  0  0  0  0  0  0  0
  -26.1446  -19.0247   18.1920 C   0  0  0  0  0  0  0  0  0  0  0  0
  -22.1294   -9.2370   19.6885 C   0  0  0  0  0  0  0  0  0  0  0  0
  -22.8584   -8.4258   21.8444 C   0  0  0  0  0  0  0  0  0  0  0  0
  -23.5981  -27.3444   18.6600 C   0  0  0  0  0  0  0  0  0  0  0  0
  -22.7419   -5.4415   20.2596 C   0  0  0  0  0  0  0  0  0  0  0  0
  -23.2176   -4.1752   20.5996 C   0  0  0  0  0  0  0  0  0  0  0  0
  -24.6741  -27.4156   20.8178 C   0  0  0  0  0  0  0  0  0  0  0  0
  -23.3645  -22.1817   18.9035 C   0  0  0  0  0  0  0  0  0  0  0  0
  -21.5317   -4.0043   22.3217 C   0  0  0  0  0  0  0  0  0  0  0  0
  -25.5299  -22.6142   18.4627 C   0  0  0  0  0  0  0  0  0  0  0  0
  -23.8195  -10.4425   20.9244 C   0  0  0  0  0  0  0  0  0  0  0  0
  -28.4790  -18.4664   18.4669 C   0  0  0  0  0  0  0  0  0  0  0  0
  -24.4727  -12.8149   21.5973 C   0  0  0  0  0  0  0  0  0  0  0  0
  -27.2583  -35.5347   17.5759 C   0  0  0  0  0  0  0  0  0  0  0  0
  -23.8191  -29.4566   19.8365 C   0  0  0  0  0  0  0  0  0  0  0  0
  -27.0230  -34.1476   17.6298 C   0  0  0  0  0  0  0  0  0  0  0  0
  -24.4590  -28.8000   20.8974 C   0  0  0  0  0  0  0  0  0  0  0  0
  -24.2954  -23.2079   18.6077 C   0  0  0  0  0  0  0  0  0  0  0  0
  -26.4101  -20.3333   18.5955 C   0  0  0  0  0  0  0  0  0  0  0  0
  -22.0520   -8.2944   20.7138 C   0  0  0  0  0  0  0  0  0  0  0  0
  -24.2474  -26.6925   19.7043 C   0  0  0  0  0  0  0  0  0  0  0  0
  -21.6612   -5.9893   20.9507 C   0  0  0  0  0  0  0  0  0  0  0  0
  -22.6125   -3.4565   21.6307 C   0  0  0  0  0  0  0  0  0  0  0  0
  -21.0561   -5.2707   21.9817 C   0  0  0  0  0  0  0  0  0  0  0  0
  -24.7329  -11.5514   21.0336 C   0  0  0  0  0  0  0  0  0  0  0  0
  -25.6532  -13.5028   21.4578 C   0  0  0  0  0  0  0  0  0  0  0  0
  -24.0585  -20.9921   18.9305 C   0  0  0  0  0  0  0  0  0  0  0  0
  -29.5804  -17.4718   18.3987 C   0  0  0  0  0  0  0  0  0  0  0  0
  -23.2712  -13.3213   22.1936 C   0  0  0  0  0  0  0  0  0  0  0  0
  -25.8779  -31.8381   20.2770 C   0  0  0  0  0  0  0  0  0  0  0  0
  -24.7221  -31.7587   23.3069 C   0  0  0  0  0  0  0  0  0  0  0  0
  -23.1996  -29.9676   25.7809 C   0  0  0  0  0  0  0  0  0  0  0  0
  -30.0736  -15.0489   18.4967 C   0  0  0  0  0  0  0  0  0  0  0  0
  -27.8615  -36.2828   18.7383 C   0  0  0  0  0  0  0  0  0  0  0  0
  -23.5534  -30.9355   19.9054 C   0  0  0  0  0  0  0  0  0  0  0  0
  -24.9309  -29.5420   22.1202 C   0  0  0  0  0  0  0  0  0  0  0  0
  -27.7742  -35.5258   20.0610 C   0  0  0  0  0  0  0  0  0  0  0  0
  -30.2614  -11.9016   20.0957 C   0  0  0  0  0  0  0  0  0  0  0  0
  -28.2057  -34.0746   19.8751 C   0  0  0  0  0  0  0  0  0  0  0  0
  -28.8199  -11.6344   20.5373 C   0  0  0  0  0  0  0  0  0  0  0  0
  -30.3188  -12.5934   18.7345 C   0  0  0  0  0  0  0  0  0  0  0  0
  -28.0710  -13.5420   19.0594 C   0  0  0  0  0  0  0  0  0  0  0  0
  -27.2853  -33.3476   18.8872 C   0  0  1  0  0  0  0  0  0  0  0  0
  -24.4995  -31.6692   20.8509 C   0  0  1  0  0  0  0  0  0  0  0  0
  -27.9577  -12.9101   20.4562 C   0  0  1  0  0  0  0  0  0  0  0  0
  -22.4219  -30.1602   28.1590 C   0  0  0  0  0  0  0  0  0  0  0  0
  -27.6078  -31.5149   24.2678 C   0  0  0  0  0  0  0  0  0  0  0  0
  -26.7311  -30.7669   26.4904 C   0  0  0  0  0  0  0  0  0  0  0  0
  -26.1783  -33.0444   25.6359 C   0  0  0  0  0  0  0  0  0  0  0  0
  -20.3862  -29.4459   25.0250 C   0  0  0  0  0  0  0  0  0  0  0  0
  -23.9940  -24.6718   18.4760 C   0  0  0  0  0  0  0  0  0  1  0  0
  -25.0914  -31.0243   24.5731 C   0  0  1  0  0  0  0  0  0  0  0  0
  -22.0347  -30.3014   26.6952 C   0  0  2  0  0  0  0  0  0  0  0  0
  -26.3951  -31.5737   25.2180 C   0  0  0  0  0  0  0  0  0  0  0  0
  -25.9808  -11.4406   20.5704 N   0  0  0  0  0  0  0  0  0  0  0  0
  -25.3738  -21.2672   18.6615 N   0  0  0  0  0  0  0  0  0  0  0  0
  -26.5152  -12.6432   20.8428 N   0  0  0  0  0  0  0  0  0  0  0  0
  -24.6534  -30.9877   22.1378 N   0  0  0  0  0  0  0  0  0  0  0  0
  -29.4846  -13.7964   18.7434 N   0  0  0  0  0  0  0  0  0  0  0  0
  -26.0277  -14.7532   21.8025 N   0  0  0  0  0  0  0  0  0  0  0  0
  -22.1508  -12.4816   22.2557 N   0  0  0  0  0  0  0  0  0  0  0  0
  -29.2009  -16.1402   18.5697 N   0  0  0  0  0  0  0  0  0  0  0  0
  -26.0386  -32.9885   19.5285 N   0  0  0  0  0  0  0  0  0  0  0  0
  -23.9207  -31.0926   25.4409 N   0  0  0  0  0  0  0  0  0  0  0  0
  -20.8856  -29.3922   26.4231 N   0  3  0  0  0  0  0  0  0  0  0  0
  -30.7219  -17.8587   18.1635 O   0  0  0  0  0  0  0  0  0  0  0  0
  -23.1885  -14.4896   22.6429 O   0  0  0  0  0  0  0  0  0  0  0  0
  -26.7327  -30.9884   20.4982 O   0  0  0  0  0  0  0  0  0  0  0  0
  -24.4957  -32.9703   23.3546 O   0  0  0  0  0  0  0  0  0  0  0  0
  -23.4476  -28.8228   25.4089 O   0  0  0  0  0  0  0  0  0  0  0  0
  -31.2795  -15.1878   18.2690 O   0  0  0  0  0  0  0  0  0  0  0  0
  -23.6388  -19.7544   19.1633 O   0  0  0  0  0  0  0  0  0  0  0  0
  -21.1896   -7.2464   20.6114 O   0  0  0  0  0  0  0  0  0  0  0  0
  -24.4612  -25.3500   19.6414 O   0  0  0  0  0  0  0  0  0  1  0  0
  -23.0684   -2.2398   21.9560 F   0  0  0  0  0  0  0  0  0  0  0  0
  -20.0167   -5.7912   22.6485 F   0  0  0  0  0  0  0  0  0  0  0  0
  1  2  1  0  0  0  0
  1  7  2  0  0  0  0
  2  8  2  0  0  0  0
  3 12  2  0  0  0  0
  3 21  1  0  0  0  0
  4 13  1  0  0  0  0
  4 21  2  0  0  0  0
  5 10  2  0  0  0  0
  5 22  1  0  0  0  0
  6 11  1  0  0  0  0
  6 22  2  0  0  0  0
  7 24  1  0  0  0  0
  8 26  1  0  0  0  0
  9 14  2  0  0  0  0
  9 25  1  0  0  0  0
 10 29  1  0  0  0  0
 11 29  2  0  0  0  0
 12 30  1  0  0  0  0
 13 30  2  0  0  0  0
 14 31  1  0  0  0  0
 15 16  2  0  0  0  0
 15 32  1  0  0  0  0
 16 33  1  0  0  0  0
 17 27  1  0  0  0  0
 17 31  2  0  0  0  0
 18 28  1  0  0  0  0
 18 37  2  0  0  0  0
 19 33  2  0  0  0  0
 19 34  1  0  0  0  0
 20 28  2  0  0  0  0
 20 66  1  0  0  0  0
 21 35  1  0  0  0  0
 22 38  1  0  0  0  0
 23 35  1  0  0  0  0
 23 36  2  0  0  0  0
 23 39  1  0  0  0  0
 24 26  2  0  0  0  0
 24 44  1  0  0  0  0
 25 27  2  0  0  0  0
 25 45  1  0  0  0  0
 26 53  1  0  0  0  0
 27 46  1  0  0  0  0
 28 61  1  0  0  0  0
 29 66  1  0  0  0  0
 30 83  1  0  0  0  0
 31 84  1  0  0  0  0
 32 34  2  0  0  0  0
 32 83  1  0  0  0  0
 33 85  1  0  0  0  0
 34 86  1  0  0  0  0
 35 65  2  0  0  0  0
 36 67  1  0  0  0  0
 36 70  1  0  0  0  0
 37 66  1  0  0  0  0
 37 82  1  0  0  0  0
 38 72  1  0  0  0  0
 38 76  2  0  0  0  0
 39 71  1  0  0  0  0
 39 77  2  0  0  0  0
 40 54  1  0  0  0  0
 40 73  1  0  0  0  0
 40 78  2  0  0  0  0
 41 62  1  0  0  0  0
 41 68  1  0  0  0  0
 41 79  2  0  0  0  0
 42 63  1  0  0  0  0
 42 74  1  0  0  0  0
 42 80  2  0  0  0  0
 43 69  1  0  0  0  0
 43 72  1  0  0  0  0
 43 81  2  0  0  0  0
 44 47  1  0  0  0  0
 45 54  1  0  0  0  0
 46 68  1  0  0  0  0
 47 49  1  0  0  0  0
 48 50  1  0  0  0  0
 48 51  1  0  0  0  0
 49 53  1  0  0  0  0
 50 55  1  0  0  0  0
 51 69  1  0  0  0  0
 52 55  1  0  0  0  0
 52 69  1  0  0  0  0
 53 73  1  0  0  0  0
 54 68  1  0  0  0  0
 55 67  1  0  0  0  0
 56 63  1  0  0  0  0
 57 64  1  0  0  0  0
 58 64  1  0  0  0  0
 59 64  1  0  0  0  0
 60 75  1  0  0  0  0
 61 84  1  0  0  0  0
 62 64  1  0  0  0  0
 62 74  1  0  0  0  0
 63 75  1  0  0  0  0
 65 67  1  0  0  0  0
M  CHG  1  75   1
M  ISO  4  43 100  61 101  72 100  84 101
M  END
> <Batch ID>
0087

> <Smiles>
CNC(C)C(=O)NC(C(=O)N1Cc2cc([101O:1][101CH2:1]C3=CN(c4ccc(C(=O)[100NH:0][100C:0](=O)N5CCCC(n6nc(-c7ccc(Oc8ccc(F)cc8F)cc7)c(C(N)=O)c6N)C5)cc4)C(=O)C3)ccc2CC1C(=O)NC1CCCc2ccccc21)C(C)(C)C

> <Shape>
0.265

> <Color>
0.134

> <Negative vol penalty>
0.000

$$$$

  -OEChem-04052300203D

 83 92  0     1  0  0  0  0  0999 V2000
  -31.7061  -34.3265   22.3121 C   0  0  0  0  0  0  0  0  0  0  0  0
  -31.4129  -33.0942   21.7367 C   0  0  0  0  0  0  0  0  0  0  0  0
  -23.4334  -18.2740   16.2350 C   0  0  0  0  0  0  0  0  0  0  0  0
  -24.6694   -9.1822   21.8871 C   0  0  0  0  0  0  0  0  0  0  0  0
  -23.1915  -10.0101   20.1645 C   0  0  0  0  0  0  0  0  0  0  0  0
  -31.0048  -34.7528   23.4392 C   0  0  0  0  0  0  0  0  0  0  0  0
  -30.4190  -32.2870   22.2889 C   0  0  0  0  0  0  0  0  0  0  0  0
  -26.5819  -28.5883   19.2719 C   0  0  0  0  0  0  0  0  0  0  0  0
  -23.5500  -19.5998   16.6524 C   0  0  0  0  0  0  0  0  0  0  0  0
  -24.2991  -17.3046   16.7414 C   0  0  0  0  0  0  0  0  0  0  0  0
  -23.5839   -8.5931   22.5354 C   0  0  0  0  0  0  0  0  0  0  0  0
  -22.1059   -9.4210   20.8127 C   0  0  0  0  0  0  0  0  0  0  0  0
  -26.5986  -27.2154   19.0298 C   0  0  0  0  0  0  0  0  0  0  0  0
  -21.6893   -5.8131   22.1963 C   0  0  0  0  0  0  0  0  0  0  0  0
  -21.8422   -4.5064   22.6597 C   0  0  0  0  0  0  0  0  0  0  0  0
  -25.1507  -26.8692   20.9279 C   0  0  0  0  0  0  0  0  0  0  0  0
  -25.3983  -18.9869   18.0826 C   0  0  0  0  0  0  0  0  0  0  0  0
  -21.4064   -5.2554   24.9150 C   0  0  0  0  0  0  0  0  0  0  0  0
  -24.4732   -9.8908   20.7017 C   0  0  0  0  0  0  0  0  0  0  0  0
  -26.4150   -9.9179   19.0476 C   0  0  0  0  0  0  0  0  0  0  0  0
  -29.9951  -33.9547   23.9997 C   0  0  0  0  0  0  0  0  0  0  0  0
  -25.8571  -29.1118   20.3521 C   0  0  0  0  0  0  0  0  0  0  0  0
  -29.7044  -32.7025   23.4254 C   0  0  0  0  0  0  0  0  0  0  0  0
  -25.1244  -28.2494   21.1800 C   0  0  0  0  0  0  0  0  0  0  0  0
  -24.5324  -19.9562   17.5762 C   0  0  0  0  0  0  0  0  0  0  0  0
  -25.2816  -17.6610   17.6652 C   0  0  0  0  0  0  0  0  0  0  0  0
  -22.3021   -8.7125   21.9982 C   0  0  0  0  0  0  0  0  0  0  0  0
  -25.8853  -26.3553   19.8596 C   0  0  0  0  0  0  0  0  0  0  0  0
  -21.3950   -6.8410   23.0921 C   0  0  0  0  0  0  0  0  0  0  0  0
  -21.7007   -4.2276   24.0191 C   0  0  0  0  0  0  0  0  0  0  0  0
  -21.2535   -6.5621   24.4515 C   0  0  0  0  0  0  0  0  0  0  0  0
  -25.5941  -10.5000   20.0320 C   0  0  0  0  0  0  0  0  0  0  0  0
  -27.3255  -10.8980   18.7363 C   0  0  0  0  0  0  0  0  0  0  0  0
  -24.8600  -23.1857   18.5014 C   0  0  0  0  0  0  0  0  0  0  0  0
  -23.9577  -22.3879   17.6702 C   0  0  0  0  0  0  0  0  0  0  0  0
  -24.9417  -24.4943   18.8027 C   0  0  0  0  0  0  0  0  0  1  0  0
  -26.3595   -8.6084   18.4664 C   0  0  0  0  0  0  0  0  0  0  0  0
  -26.6060  -30.7398   22.9775 C   0  0  0  0  0  0  0  0  0  0  0  0
  -23.3853  -30.8884   23.3340 C   0  0  0  0  0  0  0  0  0  0  0  0
  -20.3281  -29.5406   22.6384 C   0  0  0  0  0  0  0  0  0  0  0  0
  -27.1899  -16.8607   19.1019 C   0  0  0  0  0  0  0  0  0  0  0  0
  -29.2968  -34.4369   25.2465 C   0  0  0  0  0  0  0  0  0  0  0  0
  -25.8276  -30.5977   20.5838 C   0  0  0  0  0  0  0  0  0  0  0  0
  -24.3139  -28.7631   22.3409 C   0  0  0  0  0  0  0  0  0  0  0  0
  -25.6178  -21.9232   18.8428 C   0  0  0  0  0  0  0  0  0  0  0  0
  -28.0011  -33.6879   25.5473 C   0  0  0  0  0  0  0  0  0  0  0  0
  -29.5494  -14.6858   20.6445 C   0  0  0  0  0  0  0  0  0  0  0  0
  -28.2106  -32.1831   25.4115 C   0  0  0  0  0  0  0  0  0  0  0  0
  -28.8803  -13.3116   20.5675 C   0  0  0  0  0  0  0  0  0  0  0  0
  -28.5338  -15.7976   20.9016 C   0  0  0  0  0  0  0  0  0  0  0  0
  -26.7308  -14.4564   19.8919 C   0  0  0  0  0  0  0  0  0  0  0  0
  -28.6161  -31.8095   23.9806 C   0  0  1  0  0  0  0  0  0  0  0  0
  -25.4720  -30.9717   22.0194 C   0  0  1  0  0  0  0  0  0  0  0  0
  -27.7056  -13.3120   19.5696 C   0  0  2  0  0  0  0  0  0  0  0  0
  -17.8826  -29.8610   23.1011 C   0  0  0  0  0  0  0  0  0  0  0  0
  -23.7683  -29.7449   26.1368 C   0  0  0  0  0  0  0  0  0  0  0  0
  -21.3237  -29.2058   26.1754 C   0  0  0  0  0  0  0  0  0  0  0  0
  -22.0732  -31.5771   25.9802 C   0  0  0  0  0  0  0  0  0  0  0  0
  -19.7168  -29.9249   19.7683 C   0  0  0  0  0  0  0  0  0  0  0  0
  -22.3427  -30.0252   24.0025 C   0  0  1  0  0  0  0  0  0  0  0  0
  -19.0342  -30.1728   22.1581 C   0  0  2  0  0  0  0  0  0  0  0  0
  -22.3937  -30.1281   25.5531 C   0  0  0  0  0  0  0  0  0  0  0  0
  -25.9515  -11.7527   20.3267 N   0  0  0  0  0  0  0  0  0  0  0  0
  -27.0072  -11.9659   19.5228 N   0  0  0  0  0  0  0  0  0  0  0  0
  -24.6466  -21.2638   17.9878 N   0  0  0  0  0  0  0  0  0  0  0  0
  -24.3218  -30.2231   22.5301 N   0  0  0  0  0  0  0  0  0  0  0  0
  -27.4526  -15.7383   19.9155 N   0  0  0  0  0  0  0  0  0  0  0  0
  -28.3594  -10.9420   17.8694 N   0  0  0  0  0  0  0  0  0  0  0  0
  -25.3605   -7.7265   18.9007 N   0  0  0  0  0  0  0  0  0  0  0  0
  -26.1607  -16.6758   18.1793 N   0  0  0  0  0  0  0  0  0  0  0  0
  -27.4606  -31.8177   23.1093 N   0  0  0  0  0  0  0  0  0  0  0  0
  -21.0611  -30.4083   23.4201 N   0  0  0  0  0  0  0  0  0  0  0  0
  -18.6819  -29.6652   20.8020 N   0  3  0  0  0  0  0  0  0  0  0  0
  -22.9957  -22.6276   16.9706 O   0  0  0  0  0  0  0  0  0  0  0  0
  -27.1819   -8.2258   17.5999 O   0  0  0  0  0  0  0  0  0  0  0  0
  -26.6981  -29.6631   23.5555 O   0  0  0  0  0  0  0  0  0  0  0  0
  -23.3651  -32.1088   23.5126 O   0  0  0  0  0  0  0  0  0  0  0  0
  -20.6541  -28.3907   22.3519 O   0  0  0  0  0  0  0  0  0  0  0  0
  -27.8488  -17.8994   19.1967 O   0  0  0  0  0  0  0  0  0  0  0  0
  -21.2427   -8.1376   22.6303 O   0  0  0  0  0  0  0  0  0  0  0  0
  -25.9004  -25.0148   19.6260 O   0  0  0  0  0  0  0  0  0  1  0  0
  -21.8461   -2.9725   24.4639 F   0  0  0  0  0  0  0  0  0  0  0  0
  -20.9696   -7.5452   25.3168 F   0  0  0  0  0  0  0  0  0  0  0  0
  1  2  1  0  0  0  0
  1  6  2  0  0  0  0
  2  7  2  0  0  0  0
  3  9  2  0  0  0  0
  3 10  1  0  0  0  0
  4 11  2  0  0  0  0
  4 19  1  0  0  0  0
  5 12  1  0  0  0  0
  5 19  2  0  0  0  0
  6 21  1  0  0  0  0
  7 23  1  0  0  0  0
  8 13  2  0  0  0  0
  8 22  1  0  0  0  0
  9 25  1  0  0  0  0
 10 26  2  0  0  0  0
 11 27  1  0  0  0  0
 12 27  2  0  0  0  0
 13 28  1  0  0  0  0
 14 15  2  0  0  0  0
 14 29  1  0  0  0  0
 15 30  1  0  0  0  0
 16 24  1  0  0  0  0
 16 28  2  0  0  0  0
 17 25  2  0  0  0  0
 17 26  1  0  0  0  0
 18 30  2  0  0  0  0
 18 31  1  0  0  0  0
 19 32  1  0  0  0  0
 20 32  1  0  0  0  0
 20 33  2  0  0  0  0
 20 37  1  0  0  0  0
 21 23  2  0  0  0  0
 21 42  1  0  0  0  0
 22 24  2  0  0  0  0
 22 43  1  0  0  0  0
 23 52  1  0  0  0  0
 24 44  1  0  0  0  0
 25 65  1  0  0  0  0
 26 70  1  0  0  0  0
 27 80  1  0  0  0  0
 28 81  1  0  0  0  0
 29 31  2  0  0  0  0
 29 80  1  0  0  0  0
 30 82  1  0  0  0  0
 31 83  1  0  0  0  0
 32 63  2  0  0  0  0
 33 64  1  0  0  0  0
 33 68  1  0  0  0  0
 34 35  1  0  0  0  0
 34 36  2  0  0  0  0
 34 45  1  0  0  0  0
 35 65  1  0  0  0  0
 35 74  2  0  0  0  0
 36 81  1  0  0  0  0
 37 69  1  0  0  0  0
 37 75  2  0  0  0  0
 38 53  1  0  0  0  0
 38 71  1  0  0  0  0
 38 76  2  0  0  0  0
 39 60  1  0  0  0  0
 39 66  1  0  0  0  0
 39 77  2  0  0  0  0
 40 61  1  0  0  0  0
 40 72  1  0  0  0  0
 40 78  2  0  0  0  0
 41 67  1  0  0  0  0
 41 70  1  0  0  0  0
 41 79  2  0  0  0  0
 42 46  1  0  0  0  0
 43 53  1  0  0  0  0
 44 66  1  0  0  0  0
 45 65  1  0  0  0  0
 46 48  1  0  0  0  0
 47 49  1  0  0  0  0
 47 50  1  0  0  0  0
 48 52  1  0  0  0  0
 49 54  1  0  0  0  0
 50 67  1  0  0  0  0
 51 54  1  0  0  0  0
 51 67  1  0  0  0  0
 52 71  1  0  0  0  0
 53 66  1  0  0  0  0
 54 64  1  0  0  0  0
 55 61  1  0  0  0  0
 56 62  1  0  0  0  0
 57 62  1  0  0  0  0
 58 62  1  0  0  0  0
 59 73  1  0  0  0  0
 60 62  1  0  0  0  0
 60 72  1  0  0  0  0
 61 73  1  0  0  0  0
 63 64  1  0  0  0  0
M  CHG  1  73   1
M  ISO  4  36 101  41 100  70 100  81 101
M  END
> <Batch ID>
0087

> <Smiles>
CNC(C)C(=O)NC(C(=O)N1Cc2cc([101O:1][101CH:1]=C3CN(c4cccc([100NH:0][100C:0](=O)N5CCCC(n6nc(-c7ccc(Oc8ccc(F)cc8F)cc7)c(C(N)=O)c6N)C5)c4)C3=O)ccc2CC1C(=O)NC1CCCc2ccccc21)C(C)(C)C

> <Shape>
0.244

> <Color>
0.100

> <Negative vol penalty>
0.000

$$$$

  -OEChem-04052300203D

 86 95  0     1  0  0  0  0  0999 V2000
  -23.5285   -7.7856   21.7142 C   0  0  0  0  0  0  0  0  0  0  0  0
  -23.5013   -8.5263   20.5369 C   0  0  0  0  0  0  0  0  0  0  0  0
  -25.6527  -28.1547   20.3603 C   0  0  0  0  0  0  0  0  0  0  0  0
  -26.4060  -26.7808   22.1994 C   0  0  0  0  0  0  0  0  0  0  0  0
  -23.0465   -8.3425   22.8980 C   0  0  0  0  0  0  0  0  0  0  0  0
  -22.9910   -9.8240   20.5425 C   0  0  0  0  0  0  0  0  0  0  0  0
  -26.3271  -16.5202   18.2935 C   0  0  0  0  0  0  0  0  0  0  0  0
  -30.7010  -23.0593   20.6218 C   0  0  0  0  0  0  0  0  0  0  0  0
  -31.8945  -23.6041   21.0952 C   0  0  0  0  0  0  0  0  0  0  0  0
  -24.5742  -28.5923   21.1289 C   0  0  0  0  0  0  0  0  0  0  0  0
  -25.3274  -27.2184   22.9680 C   0  0  0  0  0  0  0  0  0  0  0  0
  -26.8659  -17.7883   18.0752 C   0  0  0  0  0  0  0  0  0  0  0  0
  -21.5502  -27.4154   22.0749 C   0  0  0  0  0  0  0  0  0  0  0  0
  -20.2947  -27.4499   21.4682 C   0  0  0  0  0  0  0  0  0  0  0  0
  -25.3243  -18.7315   19.6821 C   0  0  0  0  0  0  0  0  0  0  0  0
  -29.6084  -23.6526   22.6933 C   0  0  0  0  0  0  0  0  0  0  0  0
  -20.1636  -29.8279   21.8751 C   0  0  0  0  0  0  0  0  0  0  0  0
  -26.5686  -27.2489   20.8955 C   0  0  0  0  0  0  0  0  0  0  0  0
  -27.6283  -26.1089   18.8744 C   0  0  0  0  0  0  0  0  0  0  0  0
  -22.5389   -9.6512   22.9202 C   0  0  0  0  0  0  0  0  0  0  0  0
  -25.2940  -16.3502   19.2193 C   0  0  0  0  0  0  0  0  0  0  0  0
  -22.5005  -10.3984   21.7275 C   0  0  0  0  0  0  0  0  0  0  0  0
  -24.7891  -17.4616   19.9140 C   0  0  0  0  0  0  0  0  0  0  0  0
  -29.5579  -23.0835   21.4208 C   0  0  0  0  0  0  0  0  0  0  0  0
  -31.9451  -24.1732   22.3677 C   0  0  0  0  0  0  0  0  0  0  0  0
  -30.8020  -24.1974   23.1668 C   0  0  0  0  0  0  0  0  0  0  0  0
  -24.4115  -28.1242   22.4328 C   0  0  0  0  0  0  0  0  0  0  0  0
  -26.3655  -18.8913   18.7676 C   0  0  0  0  0  0  0  0  0  0  0  0
  -22.1124  -28.5870   22.5818 C   0  0  0  0  0  0  0  0  0  0  0  0
  -19.6014  -28.6562   21.3683 C   0  0  0  0  0  0  0  0  0  0  0  0
  -21.4191  -29.7932   22.4819 C   0  0  0  0  0  0  0  0  0  0  0  0
  -27.6827  -26.7961   20.1018 C   0  0  0  0  0  0  0  0  0  0  0  0
  -28.9439  -25.9088   18.5343 C   0  0  0  0  0  0  0  0  0  0  0  0
  -28.2940  -21.4436   20.0201 C   0  0  0  0  0  0  0  0  0  0  0  0
  -26.4904  -25.6889   18.1099 C   0  0  0  0  0  0  0  0  0  0  0  0
  -22.9399  -13.9782   20.9246 C   0  0  0  0  0  0  0  0  0  0  0  0
  -23.9091  -15.9589   23.0572 C   0  0  0  0  0  0  0  0  0  0  0  0
  -25.5375  -18.0704   25.1850 C   0  0  0  0  0  0  0  0  0  0  0  0
  -33.8582  -25.7846   22.1825 C   0  0  0  0  0  0  0  0  0  0  0  0
  -21.9855  -10.1933   24.2141 C   0  0  0  0  0  0  0  0  0  0  0  0
  -24.6419  -15.0125   19.4413 C   0  0  0  0  0  0  0  0  0  0  0  0
  -23.6538  -17.2368   20.8750 C   0  0  0  0  0  0  0  0  0  0  0  0
  -21.8065  -11.7093   24.2123 C   0  0  0  0  0  0  0  0  0  0  0  0
  -26.0894  -23.3605   20.2853 C   0  0  0  0  0  0  0  0  0  0  0  0
  -33.3092  -27.7698   19.1083 C   0  0  0  0  0  0  0  0  0  0  0  0
  -21.1259  -12.1650   22.9255 C   0  0  0  0  0  0  0  0  0  0  0  0
  -26.0851  -22.2720   19.2134 C   0  0  0  0  0  0  0  0  0  0  0  0
  -31.7888  -27.7544   18.9615 C   0  0  0  0  0  0  0  0  0  0  0  0
  -27.0464  -23.0404   21.4283 C   0  0  0  0  0  0  0  0  0  0  0  0
  -33.7384  -27.6551   20.5678 C   0  0  0  0  0  0  0  0  0  0  0  0
  -31.6468  -26.4448   21.1170 C   0  0  0  0  0  0  0  0  0  0  0  0
  -21.9775  -11.8182   21.6983 C   0  0  1  0  0  0  0  0  0  0  0  0
  -26.8715  -21.0364   19.6377 C   0  0  1  0  0  0  0  0  0  1  0  0
  -24.2012  -14.7906   20.8993 C   0  0  1  0  0  0  0  0  0  0  0  0
  -31.1896  -26.5184   19.6524 C   0  0  1  0  0  0  0  0  0  0  0  0
  -25.6660  -18.7124   27.6075 C   0  0  0  0  0  0  0  0  0  0  0  0
  -21.2919  -17.5012   22.7836 C   0  0  0  0  0  0  0  0  0  0  0  0
  -21.9480  -18.8326   24.7998 C   0  0  0  0  0  0  0  0  0  0  0  0
  -21.6098  -16.3684   24.9904 C   0  0  0  0  0  0  0  0  0  0  0  0
  -33.9187  -24.0045   23.8734 C   0  0  0  0  0  0  0  0  0  0  0  0
  -28.3846  -17.2823   25.3624 C   0  0  0  0  0  0  0  0  0  0  0  0
  -23.6548  -17.2499   23.7933 C   0  0  1  0  0  0  0  0  0  0  0  0
  -26.2340  -17.8245   26.5112 C   0  0  2  0  0  0  0  0  0  0  0  0
  -22.1431  -17.4870   24.0689 C   0  0  0  0  0  0  0  0  0  0  0  0
  -28.9337  -27.0176   20.5138 N   0  0  0  0  0  0  0  0  0  0  0  0
  -29.6777  -26.4664   19.5398 N   0  0  0  0  0  0  0  0  0  0  0  0
  -28.3275  -22.5219   20.9323 N   0  0  0  0  0  0  0  0  0  0  0  0
  -23.8931  -16.0146   21.6582 N   0  0  0  0  0  0  0  0  0  0  0  0
  -33.1132  -26.5086   21.2291 N   0  0  0  0  0  0  0  0  0  0  0  0
  -30.8309  -24.7691   24.4587 N   0  0  0  0  0  0  0  0  0  0  0  0
  -29.5331  -25.3121   17.4764 N   0  0  0  0  0  0  0  0  0  0  0  0
  -25.2106  -25.9754   18.6044 N   0  0  0  0  0  0  0  0  0  0  0  0
  -23.0695  -12.7575   21.5591 N   0  0  0  0  0  0  0  0  0  0  0  0
  -24.4813  -17.2046   24.9946 N   0  0  0  0  0  0  0  0  0  0  0  0
  -33.1909  -24.7304   22.8348 N   0  0  0  0  0  0  0  0  0  0  0  0
  -27.6930  -18.1032   26.3894 N   0  3  0  0  0  0  0  0  0  0  0  0
  -29.2612  -20.8759   19.5156 O   0  0  0  0  0  0  0  0  0  0  0  0
  -26.6049  -25.0634   17.0287 O   0  0  0  0  0  0  0  0  0  0  0  0
  -21.9227  -14.4256   20.4080 O   0  0  0  0  0  0  0  0  0  0  0  0
  -24.1112  -14.9264   23.7025 O   0  0  0  0  0  0  0  0  0  0  0  0
  -25.8923  -18.9455   24.3983 O   0  0  0  0  0  0  0  0  0  0  0  0
  -35.0209  -26.0907   22.4741 O   0  0  0  0  0  0  0  0  0  0  0  0
  -23.3593  -28.5511   23.1832 O   0  0  0  0  0  0  0  0  0  0  0  0
  -26.8991  -20.1258   18.5530 O   0  0  0  0  0  0  0  0  0  1  0  0
  -18.3964  -28.6895   20.7842 F   0  0  0  0  0  0  0  0  0  0  0  0
  -21.9546  -30.9223   22.9659 F   0  0  0  0  0  0  0  0  0  0  0  0
  1  2  1  0  0  0  0
  1  5  2  0  0  0  0
  2  6  2  0  0  0  0
  3 10  2  0  0  0  0
  3 18  1  0  0  0  0
  4 11  1  0  0  0  0
  4 18  2  0  0  0  0
  5 20  1  0  0  0  0
  6 22  1  0  0  0  0
  7 12  2  0  0  0  0
  7 21  1  0  0  0  0
  8  9  2  0  0  0  0
  8 24  1  0  0  0  0
  9 25  1  0  0  0  0
 10 27  1  0  0  0  0
 11 27  2  0  0  0  0
 12 28  1  0  0  0  0
 13 14  2  0  0  0  0
 13 29  1  0  0  0  0
 14 30  1  0  0  0  0
 15 23  1  0  0  0  0
 15 28  2  0  0  0  0
 16 24  2  0  0  0  0
 16 26  1  0  0  0  0
 17 30  2  0  0  0  0
 17 31  1  0  0  0  0
 18 32  1  0  0  0  0
 19 32  1  0  0  0  0
 19 33  2  0  0  0  0
 19 35  1  0  0  0  0
 20 22  2  0  0  0  0
 20 40  1  0  0  0  0
 21 23  2  0  0  0  0
 21 41  1  0  0  0  0
 22 52  1  0  0  0  0
 23 42  1  0  0  0  0
 24 67  1  0  0  0  0
 25 26  2  0  0  0  0
 25 75  1  0  0  0  0
 26 70  1  0  0  0  0
 27 83  1  0  0  0  0
 28 84  1  0  0  0  0
 29 31  2  0  0  0  0
 29 83  1  0  0  0  0
 30 85  1  0  0  0  0
 31 86  1  0  0  0  0
 32 65  2  0  0  0  0
 33 66  1  0  0  0  0
 33 71  1  0  0  0  0
 34 53  1  0  0  0  0
 34 67  1  0  0  0  0
 34 77  2  0  0  0  0
 35 72  1  0  0  0  0
 35 78  2  0  0  0  0
 36 54  1  0  0  0  0
 36 73  1  0  0  0  0
 36 79  2  0  0  0  0
 37 62  1  0  0  0  0
 37 68  1  0  0  0  0
 37 80  2  0  0  0  0
 38 63  1  0  0  0  0
 38 74  1  0  0  0  0
 38 81  2  0  0  0  0
 39 69  1  0  0  0  0
 39 75  1  0  0  0  0
 39 82  2  0  0  0  0
 40 43  1  0  0  0  0
 41 54  1  0  0  0  0
 42 68  1  0  0  0  0
 43 46  1  0  0  0  0
 44 47  1  0  0  0  0
 44 49  1  0  0  0  0
 45 48  1  0  0  0  0
 45 50  1  0  0  0  0
 46 52  1  0  0  0  0
 47 53  1  0  0  0  0
 48 55  1  0  0  0  0
 49 67  1  0  0  0  0
 50 69  1  0  0  0  0
 51 55  1  0  0  0  0
 51 69  1  0  0  0  0
 52 73  1  0  0  0  0
 53 84  1  0  0  0  0
 54 68  1  0  0  0  0
 55 66  1  0  0  0  0
 56 63  1  0  0  0  0
 57 64  1  0  0  0  0
 58 64  1  0  0  0  0
 59 64  1  0  0  0  0
 60 75  1  0  0  0  0
 61 76  1  0  0  0  0
 62 64  1  0  0  0  0
 62 74  1  0  0  0  0
 63 76  1  0  0  0  0
 65 66  1  0  0  0  0
M  CHG  1  76   1
M  ISO  4  39 100  53 101  75 100  84 101
M  END
> <Batch ID>
0087

> <Smiles>
CNC(C)C(=O)NC(C(=O)N1Cc2cc([101O:1][101CH:1]3CCCN(c4ccc([100N:0](C)[100C:0](=O)N5CCCC(n6nc(-c7ccc(Oc8ccc(F)cc8F)cc7)c(C(N)=O)c6N)C5)c(N)c4)C3=O)ccc2CC1C(=O)NC1CCCc2ccccc21)C(C)(C)C

> <Shape>
0.190

> <Color>
0.075

> <Negative vol penalty>
0.000

$$$$

  -OEChem-04052300203D

 86 95  0     1  0  0  0  0  0999 V2000
  -19.4849  -26.9891   21.7665 C   0  0  0  0  0  0  0  0  0  0  0  0
  -19.7903  -25.9775   20.8617 C   0  0  0  0  0  0  0  0  0  0  0  0
  -29.3229  -12.0001   18.6619 C   0  0  0  0  0  0  0  0  0  0  0  0
  -29.6208  -24.2150   22.2500 C   0  0  0  0  0  0  0  0  0  0  0  0
  -28.2591  -23.5403   20.3719 C   0  0  0  0  0  0  0  0  0  0  0  0
  -19.6821  -26.7848   23.1315 C   0  0  0  0  0  0  0  0  0  0  0  0
  -20.2944  -24.7613   21.3213 C   0  0  0  0  0  0  0  0  0  0  0  0
  -20.2071  -17.7572   19.8208 C   0  0  0  0  0  0  0  0  0  0  0  0
  -28.0172  -11.7736   19.0973 C   0  0  0  0  0  0  0  0  0  0  0  0
  -30.0181  -13.1278   19.0986 C   0  0  0  0  0  0  0  0  0  0  0  0
  -29.4400  -25.5532   21.9005 C   0  0  0  0  0  0  0  0  0  0  0  0
  -28.0782  -24.8785   20.0223 C   0  0  0  0  0  0  0  0  0  0  0  0
  -21.0789  -16.6889   19.6149 C   0  0  0  0  0  0  0  0  0  0  0  0
  -26.1777  -27.4817   21.0385 C   0  0  0  0  0  0  0  0  0  0  0  0
  -24.8882  -27.8934   20.7023 C   0  0  0  0  0  0  0  0  0  0  0  0
  -21.3041  -16.4205   22.0017 C   0  0  0  0  0  0  0  0  0  0  0  0
  -28.1019  -13.8027   20.4061 C   0  0  0  0  0  0  0  0  0  0  0  0
  -25.6674  -28.5431   18.5096 C   0  0  0  0  0  0  0  0  0  0  0  0
  -29.0304  -23.2086   21.4857 C   0  0  0  0  0  0  0  0  0  0  0  0
  -28.4124  -21.0554   22.7061 C   0  0  0  0  0  0  0  0  0  0  0  0
  -20.1797  -25.5620   23.6089 C   0  0  0  0  0  0  0  0  0  0  0  0
  -19.8852  -18.1728   21.1208 C   0  0  0  0  0  0  0  0  0  0  0  0
  -20.4997  -24.5409   22.6939 C   0  0  0  0  0  0  0  0  0  0  0  0
  -20.4259  -17.4927   22.2214 C   0  0  0  0  0  0  0  0  0  0  0  0
  -27.4067  -12.6750   19.9694 C   0  0  0  0  0  0  0  0  0  0  0  0
  -29.4075  -14.0291   19.9706 C   0  0  0  0  0  0  0  0  0  0  0  0
  -28.6686  -25.8850   20.7867 C   0  0  0  0  0  0  0  0  0  0  0  0
  -21.6298  -16.0222   20.7054 C   0  0  0  0  0  0  0  0  0  0  0  0
  -27.2122  -27.6007   20.1104 C   0  0  0  0  0  0  0  0  0  0  0  0
  -24.6330  -28.4241   19.4378 C   0  0  0  0  0  0  0  0  0  0  0  0
  -26.9570  -28.1313   18.8459 C   0  0  0  0  0  0  0  0  0  0  0  0
  -29.2173  -21.8260   21.8459 C   0  0  0  0  0  0  0  0  0  0  0  0
  -29.0085  -19.8180   22.7172 C   0  0  0  0  0  0  0  0  0  0  0  0
  -23.5025  -11.9260   21.3697 C   0  0  0  0  0  0  0  0  0  0  0  0
  -25.6141  -11.1421   20.5307 C   0  0  0  0  0  0  0  0  0  0  0  0
  -23.8816  -13.2074   21.2727 C   0  0  0  0  0  0  0  0  0  0  0  0
  -24.3862  -10.8655   20.9793 C   0  0  0  0  0  0  0  0  0  0  0  0
  -25.2481  -13.5419   20.7267 C   0  0  0  0  0  0  0  0  0  0  0  0
  -27.2314  -21.4249   23.4302 C   0  0  0  0  0  0  0  0  0  0  0  0
  -20.2839  -20.8533   22.7821 C   0  0  0  0  0  0  0  0  0  0  0  0
  -18.4952  -19.2900   24.9909 C   0  0  0  0  0  0  0  0  0  0  0  0
  -17.4043  -16.3140   26.2561 C   0  0  0  0  0  0  0  0  0  0  0  0
  -31.4153  -15.5469   20.0776 C   0  0  0  0  0  0  0  0  0  0  0  0
  -20.4207  -25.4047   25.0894 C   0  0  0  0  0  0  0  0  0  0  0  0
  -18.9223  -19.3099   21.3261 C   0  0  0  0  0  0  0  0  0  0  0  0
  -20.0964  -17.8868   23.6372 C   0  0  0  0  0  0  0  0  0  0  0  0
  -20.6057  -23.9536   25.5256 C   0  0  0  0  0  0  0  0  0  0  0  0
  -33.4965  -18.3076   20.9287 C   0  0  0  0  0  0  0  0  0  0  0  0
  -21.5701  -23.2333   24.5886 C   0  0  0  0  0  0  0  0  0  0  0  0
  -32.5025  -19.4057   21.3139 C   0  0  0  0  0  0  0  0  0  0  0  0
  -32.9787  -17.4542   19.7723 C   0  0  0  0  0  0  0  0  0  0  0  0
  -30.6448  -17.9850   20.3560 C   0  0  0  0  0  0  0  0  0  0  0  0
  -21.0250  -23.1989   23.1558 C   0  0  1  0  0  0  0  0  0  0  0  0
  -19.0671  -19.9766   22.6907 C   0  0  1  0  0  0  0  0  0  0  0  0
  -31.0940  -18.8301   21.5593 C   0  0  2  0  0  0  0  0  0  0  0  0
  -15.9819  -15.3550   28.0875 C   0  0  0  0  0  0  0  0  0  0  0  0
  -20.7092  -19.8673   27.0095 C   0  0  0  0  0  0  0  0  0  0  0  0
  -19.7112  -18.1199   28.4990 C   0  0  0  0  0  0  0  0  0  0  0  0
  -18.3883  -20.1476   27.8980 C   0  0  0  0  0  0  0  0  0  0  0  0
  -15.5653  -15.0397   24.3188 C   0  0  0  0  0  0  0  0  0  0  0  0
  -23.0091  -14.3418   21.6698 C   0  0  0  0  0  0  0  0  0  1  0  0
  -18.7920  -18.3676   26.1485 C   0  0  1  0  0  0  0  0  0  0  0  0
  -16.0181  -15.8319   26.6439 C   0  0  2  0  0  0  0  0  0  0  0  0
  -19.4081  -19.1192   27.3622 C   0  0  0  0  0  0  0  0  0  0  0  0
  -30.2465  -21.1361   21.3469 N   0  0  0  0  0  0  0  0  0  0  0  0
  -30.0923  -19.9190   21.8954 N   0  0  0  0  0  0  0  0  0  0  0  0
  -26.0923  -12.4461   20.4078 N   0  0  0  0  0  0  0  0  0  0  0  0
  -19.1548  -19.0088   23.7861 N   0  0  0  0  0  0  0  0  0  0  0  0
  -31.6419  -16.9395   20.0774 N   0  0  0  0  0  0  0  0  0  0  0  0
  -28.7062  -18.6644   23.3499 N   0  0  0  0  0  0  0  0  0  0  0  0
  -26.7545  -22.7369   23.3057 N   0  0  0  0  0  0  0  0  0  0  0  0
  -30.1143  -15.1745   20.4139 N   0  0  0  0  0  0  0  0  0  0  0  0
  -20.0018  -22.1834   23.0285 N   0  0  0  0  0  0  0  0  0  0  0  0
  -17.5445  -17.6724   26.4468 N   0  0  0  0  0  0  0  0  0  0  0  0
  -15.5975  -14.7038   25.7656 N   0  3  0  0  0  0  0  0  0  0  0  0
  -25.5790  -14.7222   20.5998 O   0  0  0  0  0  0  0  0  0  0  0  0
  -26.6266  -20.6202   24.1787 O   0  0  0  0  0  0  0  0  0  0  0  0
  -21.3965  -20.3593   22.6412 O   0  0  0  0  0  0  0  0  0  0  0  0
  -17.7016  -20.2213   25.1478 O   0  0  0  0  0  0  0  0  0  0  0  0
  -18.2768  -15.5604   25.8302 O   0  0  0  0  0  0  0  0  0  0  0  0
  -32.3166  -14.7427   19.8266 O   0  0  0  0  0  0  0  0  0  0  0  0
  -23.8845   -9.5939   21.1129 O   0  0  0  0  0  0  0  0  0  0  0  0
  -28.4917  -27.1907   20.4455 O   0  0  0  0  0  0  0  0  0  0  0  0
  -22.4815  -14.9795   20.5073 O   0  0  0  0  0  0  0  0  0  1  0  0
  -23.3943  -28.8181   19.1144 F   0  0  0  0  0  0  0  0  0  0  0  0
  -27.9465  -28.2470   17.9496 F   0  0  0  0  0  0  0  0  0  0  0  0
  1  2  1  0  0  0  0
  1  6  2  0  0  0  0
  2  7  2  0  0  0  0
  3  9  2  0  0  0  0
  3 10  1  0  0  0  0
  4 11  2  0  0  0  0
  4 19  1  0  0  0  0
  5 12  1  0  0  0  0
  5 19  2  0  0  0  0
  6 21  1  0  0  0  0
  7 23  1  0  0  0  0
  8 13  2  0  0  0  0
  8 22  1  0  0  0  0
  9 25  1  0  0  0  0
 10 26  2  0  0  0  0
 11 27  1  0  0  0  0
 12 27  2  0  0  0  0
 13 28  1  0  0  0  0
 14 15  2  0  0  0  0
 14 29  1  0  0  0  0
 15 30  1  0  0  0  0
 16 24  1  0  0  0  0
 16 28  2  0  0  0  0
 17 25  2  0  0  0  0
 17 26  1  0  0  0  0
 18 30  2  0  0  0  0
 18 31  1  0  0  0  0
 19 32  1  0  0  0  0
 20 32  1  0  0  0  0
 20 33  2  0  0  0  0
 20 39  1  0  0  0  0
 21 23  2  0  0  0  0
 21 44  1  0  0  0  0
 22 24  2  0  0  0  0
 22 45  1  0  0  0  0
 23 53  1  0  0  0  0
 24 46  1  0  0  0  0
 25 67  1  0  0  0  0
 26 72  1  0  0  0  0
 27 83  1  0  0  0  0
 28 84  1  0  0  0  0
 29 31  2  0  0  0  0
 29 83  1  0  0  0  0
 30 85  1  0  0  0  0
 31 86  1  0  0  0  0
 32 65  2  0  0  0  0
 33 66  1  0  0  0  0
 33 70  1  0  0  0  0
 34 36  2  0  0  0  0
 34 37  1  0  0  0  0
 35 37  2  0  0  0  0
 35 67  1  0  0  0  0
 36 38  1  0  0  0  0
 36 61  1  0  0  0  0
 37 82  1  0  0  0  0
 38 67  1  0  0  0  0
 38 76  2  0  0  0  0
 39 71  1  0  0  0  0
 39 77  2  0  0  0  0
 40 54  1  0  0  0  0
 40 73  1  0  0  0  0
 40 78  2  0  0  0  0
 41 62  1  0  0  0  0
 41 68  1  0  0  0  0
 41 79  2  0  0  0  0
 42 63  1  0  0  0  0
 42 74  1  0  0  0  0
 42 80  2  0  0  0  0
 43 69  1  0  0  0  0
 43 72  1  0  0  0  0
 43 81  2  0  0  0  0
 44 47  1  0  0  0  0
 45 54  1  0  0  0  0
 46 68  1  0  0  0  0
 47 49  1  0  0  0  0
 48 50  1  0  0  0  0
 48 51  1  0  0  0  0
 49 53  1  0  0  0  0
 50 55  1  0  0  0  0
 51 69  1  0  0  0  0
 52 55  1  0  0  0  0
 52 69  1  0  0  0  0
 53 73  1  0  0  0  0
 54 68  1  0  0  0  0
 55 66  1  0  0  0  0
 56 63  1  0  0  0  0
 57 64  1  0  0  0  0
 58 64  1  0  0  0  0
 59 64  1  0  0  0  0
 60 75  1  0  0  0  0
 61 84  1  0  0  0  0
 62 64  1  0  0  0  0
 62 74  1  0  0  0  0
 63 75  1  0  0  0  0
 65 66  1  0  0  0  0
M  CHG  1  75   1
M  ISO  4  43 100  61 101  72 100  84 101
M  END
> <Batch ID>
0087

> <Smiles>
CNC(C)C(=O)NC(C(=O)N1Cc2cc([101O:1][101CH:1]=C3CC(=O)CN(c4cccc([100NH:0][100C:0](=O)N5CCCC(n6nc(-c7ccc(Oc8ccc(F)cc8F)cc7)c(C(N)=O)c6N)C5)c4)C3=O)ccc2CC1C(=O)NC1CCCc2ccccc21)C(C)(C)C

> <Shape>
0.194

> <Color>
0.101

> <Negative vol penalty>
0.000

$$$$

  -OEChem-04052300203D

 86 94  0     1  0  0  0  0  0999 V2000
  -29.4249  -35.8408   18.4793 C   0  0  0  0  0  0  0  0  0  0  0  0
  -29.5203  -34.5052   18.8570 C   0  0  0  0  0  0  0  0  0  0  0  0
  -23.3471  -10.2761   21.8146 C   0  0  0  0  0  0  0  0  0  0  0  0
  -22.8824  -12.6444   21.7027 C   0  0  0  0  0  0  0  0  0  0  0  0
  -28.5115  -36.6804   19.1154 C   0  0  0  0  0  0  0  0  0  0  0  0
  -28.7030  -34.0088   19.8720 C   0  0  0  0  0  0  0  0  0  0  0  0
  -26.6636  -29.5229   18.7046 C   0  0  0  0  0  0  0  0  0  0  0  0
  -22.3934  -10.1366   22.8228 C   0  0  0  0  0  0  0  0  0  0  0  0
  -21.9286  -12.5048   22.7109 C   0  0  0  0  0  0  0  0  0  0  0  0
  -27.4822  -28.4007   18.8248 C   0  0  0  0  0  0  0  0  0  0  0  0
  -19.0258   -9.9438   23.0566 C   0  0  0  0  0  0  0  0  0  0  0  0
  -18.1345   -8.8750   22.9623 C   0  0  0  0  0  0  0  0  0  0  0  0
  -30.2186  -19.7523   21.3765 C   0  0  0  0  0  0  0  0  0  0  0  0
  -28.7790  -18.0883   20.3786 C   0  0  0  0  0  0  0  0  0  0  0  0
  -26.4646  -27.8938   20.9524 C   0  0  0  0  0  0  0  0  0  0  0  0
  -31.0058  -17.4853   21.0964 C   0  0  0  0  0  0  0  0  0  0  0  0
  -18.9303   -8.0246   25.0791 C   0  0  0  0  0  0  0  0  0  0  0  0
  -23.5917  -11.5301   21.2545 C   0  0  0  0  0  0  0  0  0  0  0  0
  -28.9965  -19.3986   20.8046 C   0  0  0  0  0  0  0  0  0  0  0  0
  -24.3691  -11.5687   18.8252 C   0  0  0  0  0  0  0  0  0  0  0  0
  -27.6758  -36.1917   20.1320 C   0  0  0  0  0  0  0  0  0  0  0  0
  -25.7455  -29.8456   19.7143 C   0  0  0  0  0  0  0  0  0  0  0  0
  -27.7785  -34.8430   20.5232 C   0  0  0  0  0  0  0  0  0  0  0  0
  -25.6338  -29.0192   20.8415 C   0  0  0  0  0  0  0  0  0  0  0  0
  -31.2233  -18.7957   21.5223 C   0  0  0  0  0  0  0  0  0  0  0  0
  -29.7837  -17.1316   20.5245 C   0  0  0  0  0  0  0  0  0  0  0  0
  -21.6841  -11.2509   23.2709 C   0  0  0  0  0  0  0  0  0  0  0  0
  -27.3848  -27.5876   19.9501 C   0  0  0  0  0  0  0  0  0  0  0  0
  -19.8695  -10.0529   24.1621 C   0  0  0  0  0  0  0  0  0  0  0  0
  -18.0867   -7.9154   23.9736 C   0  0  0  0  0  0  0  0  0  0  0  0
  -19.8217   -9.0934   25.1733 C   0  0  0  0  0  0  0  0  0  0  0  0
  -24.5771  -11.6750   20.2134 C   0  0  0  0  0  0  0  0  0  0  0  0
  -25.6083  -11.7868   18.2745 C   0  0  0  0  0  0  0  0  0  0  0  0
  -27.5842  -25.2683   20.1780 C   0  0  0  0  0  0  0  0  0  1  0  0
  -27.9265  -20.4170   20.6507 C   0  0  0  0  0  0  0  0  0  0  0  0
  -23.1634  -11.2973   18.0983 C   0  0  0  0  0  0  0  0  0  0  0  0
  -28.2709  -24.1262   20.3006 C   0  0  0  0  0  0  0  0  0  0  0  0
  -27.5185  -22.8391   20.4121 C   0  0  0  0  0  0  0  0  0  0  0  0
  -25.3471  -32.3122   21.6791 C   0  0  0  0  0  0  0  0  0  0  0  0
  -22.6353  -30.7277   22.4904 C   0  0  0  0  0  0  0  0  0  0  0  0
  -20.9517  -27.7639   22.6581 C   0  0  0  0  0  0  0  0  0  0  0  0
  -30.4536  -14.7303   20.1625 C   0  0  0  0  0  0  0  0  0  0  0  0
  -26.7371  -37.1488   20.8229 C   0  0  0  0  0  0  0  0  0  0  0  0
  -24.8510  -31.0446   19.5571 C   0  0  0  0  0  0  0  0  0  0  0  0
  -24.6499  -29.3105   21.9441 C   0  0  0  0  0  0  0  0  0  0  0  0
  -25.6449  -36.4536   21.6317 C   0  0  0  0  0  0  0  0  0  0  0  0
  -30.2735  -11.2964   19.2389 C   0  0  0  0  0  0  0  0  0  0  0  0
  -26.2400  -35.3356   22.4818 C   0  0  0  0  0  0  0  0  0  0  0  0
  -28.7730  -10.9957   19.2517 C   0  0  0  0  0  0  0  0  0  0  0  0
  -30.6680  -12.2621   20.3550 C   0  0  0  0  0  0  0  0  0  0  0  0
  -28.3944  -13.2092   20.4111 C   0  0  0  0  0  0  0  0  0  0  0  0
  -26.8918  -34.2613   21.6027 C   0  0  1  0  0  0  0  0  0  0  0  0
  -24.3120  -31.5662   20.8856 C   0  0  1  0  0  0  0  0  0  0  0  0
  -27.9386  -12.2916   19.2648 C   0  0  2  0  0  0  0  0  0  0  0  0
  -18.7675  -26.7787   23.4037 C   0  0  0  0  0  0  0  0  0  0  0  0
  -23.5497  -30.9057   25.3959 C   0  0  0  0  0  0  0  0  0  0  0  0
  -21.8763  -29.1304   25.9584 C   0  0  0  0  0  0  0  0  0  0  0  0
  -21.1088  -31.3203   25.0431 C   0  0  0  0  0  0  0  0  0  0  0  0
  -20.2955  -26.8522   19.9201 C   0  0  0  0  0  0  0  0  0  0  0  0
  -22.2759  -29.6788   23.5149 C   0  0  1  0  0  0  0  0  0  0  0  0
  -19.5428  -27.3809   22.2423 C   0  0  2  0  0  0  0  0  0  0  0  0
  -22.2226  -30.2541   24.9584 C   0  0  0  0  0  0  0  0  0  0  0  0
  -25.8486  -11.9398   20.5254 N   0  0  0  0  0  0  0  0  0  0  0  0
  -26.4506  -12.0017   19.3255 N   0  0  0  0  0  0  0  0  0  0  0  0
  -23.8018  -30.4977   21.7472 N   0  0  0  0  0  0  0  0  0  0  0  0
  -29.8387  -13.4680   20.3022 N   0  0  0  0  0  0  0  0  0  0  0  0
  -32.4592  -19.1531   22.1001 N   0  0  0  0  0  0  0  0  0  0  0  0
  -26.0488  -11.8137   16.9987 N   0  0  0  0  0  0  0  0  0  0  0  0
  -21.9786  -11.0981   18.8201 N   0  0  0  0  0  0  0  0  0  0  0  0
  -29.5628  -15.8008   20.0911 N   0  0  0  0  0  0  0  0  0  0  0  0
  -28.3617  -21.7363   20.5337 N   0  0  0  0  0  0  0  0  0  0  0  0
  -25.8819  -33.4032   21.0210 N   0  0  0  0  0  0  0  0  0  0  0  0
  -21.0244  -29.0797   23.0639 N   0  0  0  0  0  0  0  0  0  0  0  0
  -19.5825  -26.3831   21.1360 N   0  3  0  0  0  0  0  0  0  0  0  0
  -26.7524  -20.0571   20.6618 O   0  0  0  0  0  0  0  0  0  0  0  0
  -23.1406  -11.2171   16.8467 O   0  0  0  0  0  0  0  0  0  0  0  0
  -26.2917  -22.7966   20.3920 O   0  0  0  0  0  0  0  0  0  0  0  0
  -25.6378  -31.9275   22.8057 O   0  0  0  0  0  0  0  0  0  0  0  0
  -21.9042  -31.7111   22.3495 O   0  0  0  0  0  0  0  0  0  0  0  0
  -21.8927  -26.9738   22.6296 O   0  0  0  0  0  0  0  0  0  0  0  0
  -31.6789  -14.8500   20.0828 O   0  0  0  0  0  0  0  0  0  0  0  0
  -29.6496  -24.0853   20.3286 O   0  0  0  0  0  0  0  0  0  0  0  0
  -20.7532  -11.1150   24.2546 O   0  0  0  0  0  0  0  0  0  0  0  0
  -28.1830  -26.4920   20.0702 O   0  0  0  0  0  0  0  0  0  1  0  0
  -17.2297   -6.8900   23.8837 F   0  0  0  0  0  0  0  0  0  0  0  0
  -20.6289   -9.1936   26.2383 F   0  0  0  0  0  0  0  0  0  0  0  0
  1  2  1  0  0  0  0
  1  5  2  0  0  0  0
  2  6  2  0  0  0  0
  3  8  2  0  0  0  0
  3 18  1  0  0  0  0
  4  9  1  0  0  0  0
  4 18  2  0  0  0  0
  5 21  1  0  0  0  0
  6 23  1  0  0  0  0
  7 10  2  0  0  0  0
  7 22  1  0  0  0  0
  8 27  1  0  0  0  0
  9 27  2  0  0  0  0
 10 28  1  0  0  0  0
 11 12  2  0  0  0  0
 11 29  1  0  0  0  0
 12 30  1  0  0  0  0
 13 19  1  0  0  0  0
 13 25  2  0  0  0  0
 14 19  2  0  0  0  0
 14 26  1  0  0  0  0
 15 24  1  0  0  0  0
 15 28  2  0  0  0  0
 16 25  1  0  0  0  0
 16 26  2  0  0  0  0
 17 30  2  0  0  0  0
 17 31  1  0  0  0  0
 18 32  1  0  0  0  0
 19 35  1  0  0  0  0
 20 32  1  0  0  0  0
 20 33  2  0  0  0  0
 20 36  1  0  0  0  0
 21 23  2  0  0  0  0
 21 43  1  0  0  0  0
 22 24  2  0  0  0  0
 22 44  1  0  0  0  0
 23 52  1  0  0  0  0
 24 45  1  0  0  0  0
 25 67  1  0  0  0  0
 26 70  1  0  0  0  0
 27 83  1  0  0  0  0
 28 84  1  0  0  0  0
 29 31  2  0  0  0  0
 29 83  1  0  0  0  0
 30 85  1  0  0  0  0
 31 86  1  0  0  0  0
 32 63  2  0  0  0  0
 33 64  1  0  0  0  0
 33 68  1  0  0  0  0
 34 37  2  0  0  0  0
 34 84  1  0  0  0  0
 35 71  1  0  0  0  0
 35 75  2  0  0  0  0
 36 69  1  0  0  0  0
 36 76  2  0  0  0  0
 37 38  1  0  0  0  0
 37 82  1  0  0  0  0
 38 71  1  0  0  0  0
 38 77  2  0  0  0  0
 39 53  1  0  0  0  0
 39 72  1  0  0  0  0
 39 78  2  0  0  0  0
 40 60  1  0  0  0  0
 40 65  1  0  0  0  0
 40 79  2  0  0  0  0
 41 61  1  0  0  0  0
 41 73  1  0  0  0  0
 41 80  2  0  0  0  0
 42 66  1  0  0  0  0
 42 70  1  0  0  0  0
 42 81  2  0  0  0  0
 43 46  1  0  0  0  0
 44 53  1  0  0  0  0
 45 65  1  0  0  0  0
 46 48  1  0  0  0  0
 47 49  1  0  0  0  0
 47 50  1  0  0  0  0
 48 52  1  0  0  0  0
 49 54  1  0  0  0  0
 50 66  1  0  0  0  0
 51 54  1  0  0  0  0
 51 66  1  0  0  0  0
 52 72  1  0  0  0  0
 53 65  1  0  0  0  0
 54 64  1  0  0  0  0
 55 61  1  0  0  0  0
 56 62  1  0  0  0  0
 57 62  1  0  0  0  0
 58 62  1  0  0  0  0
 59 74  1  0  0  0  0
 60 62  1  0  0  0  0
 60 73  1  0  0  0  0
 61 74  1  0  0  0  0
 63 64  1  0  0  0  0
M  CHG  1  74   1
M  ISO  4  34 101  42 100  70 100  84 101
M  END
> <Batch ID>
0087

> <Smiles>
CNC(C)C(=O)NC(C(=O)N1Cc2cc([101O:1][101CH2:1]C(=O)C(=O)NC(=O)c3cc(N)cc([100NH:0][100C:0](=O)N4CCCC(n5nc(-c6ccc(Oc7ccc(F)cc7F)cc6)c(C(N)=O)c5N)C4)c3)ccc2CC1C(=O)NC1CCCc2ccccc21)C(C)(C)C

> <Shape>
0.279

> <Color>
0.103

> <Negative vol penalty>
0.000

$$$$

  -OEChem-04052300203D

 88 97  0     1  0  0  0  0  0999 V2000
  -27.8463  -24.0363   17.4911 C   0  0  0  0  0  0  0  0  0  0  0  0
  -26.6624  -24.3534   18.1493 C   0  0  0  0  0  0  0  0  0  0  0  0
  -14.7772  -22.8726   22.9988 C   0  0  0  0  0  0  0  0  0  0  0  0
  -25.4443  -17.8685   22.6264 C   0  0  0  0  0  0  0  0  0  0  0  0
  -23.8460  -18.3234   20.8726 C   0  0  0  0  0  0  0  0  0  0  0  0
  -29.0609  -24.5275   17.9681 C   0  0  0  0  0  0  0  0  0  0  0  0
  -26.6925  -25.1612   19.2855 C   0  0  0  0  0  0  0  0  0  0  0  0
  -23.0936  -28.7236   19.2322 C   0  0  0  0  0  0  0  0  0  0  0  0
  -15.0728  -24.2209   22.7982 C   0  0  0  0  0  0  0  0  0  0  0  0
  -15.7177  -22.0339   23.5970 C   0  0  0  0  0  0  0  0  0  0  0  0
  -25.7528  -16.6467   22.0284 C   0  0  0  0  0  0  0  0  0  0  0  0
  -24.1545  -17.1016   20.2746 C   0  0  0  0  0  0  0  0  0  0  0  0
  -21.7982  -28.3248   19.5588 C   0  0  0  0  0  0  0  0  0  0  0  0
  -27.6139  -15.5450   19.4293 C   0  0  0  0  0  0  0  0  0  0  0  0
  -28.9609  -15.2017   19.3137 C   0  0  0  0  0  0  0  0  0  0  0  0
  -22.1015  -29.1884   21.7907 C   0  0  0  0  0  0  0  0  0  0  0  0
  -17.2494  -23.8918   23.7937 C   0  0  0  0  0  0  0  0  0  0  0  0
  -28.5721  -13.2268   20.6500 C   0  0  0  0  0  0  0  0  0  0  0  0
  -24.4908  -18.7068   22.0485 C   0  0  0  0  0  0  0  0  0  0  0  0
  -24.7869  -21.2121   22.4273 C   0  0  0  0  0  0  0  0  0  0  0  0
  -29.1048  -25.3497   19.1051 C   0  0  0  0  0  0  0  0  0  0  0  0
  -23.9079  -29.3490   20.1873 C   0  0  0  0  0  0  0  0  0  0  0  0
  -27.9089  -25.6629   19.7789 C   0  0  0  0  0  0  0  0  0  0  0  0
  -23.4060  -29.5964   21.4729 C   0  0  0  0  0  0  0  0  0  0  0  0
  -16.3089  -24.7305   23.1956 C   0  0  0  0  0  0  0  0  0  0  0  0
  -16.9538  -22.5435   23.9944 C   0  0  0  0  0  0  0  0  0  0  0  0
  -25.1079  -16.2632   20.8525 C   0  0  0  0  0  0  0  0  0  0  0  0
  -21.3029  -28.5547   20.8390 C   0  0  0  0  0  0  0  0  0  0  0  0
  -26.7460  -14.7293   20.1553 C   0  0  0  0  0  0  0  0  0  0  0  0
  -29.4400  -14.0426   19.9240 C   0  0  0  0  0  0  0  0  0  0  0  0
  -27.2251  -13.5702   20.7657 C   0  0  0  0  0  0  0  0  0  0  0  0
  -24.1713  -19.9688   22.6661 C   0  0  0  0  0  0  0  0  0  0  0  0
  -24.1264  -22.0869   23.2550 C   0  0  0  0  0  0  0  0  0  0  0  0
  -17.1521  -28.8289   22.6889 C   0  0  0  0  0  0  0  0  0  0  0  0
  -15.5829  -27.0360   23.0059 C   0  0  0  0  0  0  0  0  0  0  0  0
  -18.1903  -27.9827   22.6556 C   0  0  0  0  0  0  0  0  0  0  0  0
  -15.8126  -28.3439   22.8577 C   0  0  0  0  0  0  0  0  0  0  0  0
  -17.9473  -26.4983   22.7767 C   0  0  0  0  0  0  0  0  0  0  0  0
  -17.6617  -19.8187   23.1300 C   0  0  0  0  0  0  0  0  0  0  0  0
  -18.0021  -20.3207   24.3191 C   0  0  0  0  0  0  0  0  0  0  0  0
  -25.8597  -21.5465   21.5369 C   0  0  0  0  0  0  0  0  0  0  0  0
  -26.6799  -28.6483   21.5761 C   0  0  0  0  0  0  0  0  0  0  0  0
  -26.3509  -31.6168   22.8417 C   0  0  0  0  0  0  0  0  0  0  0  0
  -24.2716  -34.1706   23.7370 C   0  0  0  0  0  0  0  0  0  0  0  0
  -18.7293  -22.1834   25.6708 C   0  0  0  0  0  0  0  0  0  0  0  0
  -30.4463  -25.8182   19.6107 C   0  0  0  0  0  0  0  0  0  0  0  0
  -25.2936  -29.7970   19.8113 C   0  0  0  0  0  0  0  0  0  0  0  0
  -24.2327  -30.2825   22.5285 C   0  0  0  0  0  0  0  0  0  0  0  0
  -30.3533  -26.9748   20.6027 C   0  0  0  0  0  0  0  0  0  0  0  0
  -21.7612  -22.2740   27.3995 C   0  0  0  0  0  0  0  0  0  0  0  0
  -29.2801  -26.6948   21.6499 C   0  0  0  0  0  0  0  0  0  0  0  0
  -22.7883  -21.8086   26.3678 C   0  0  0  0  0  0  0  0  0  0  0  0
  -20.4710  -21.4697   27.2883 C   0  0  0  0  0  0  0  0  0  0  0  0
  -20.8705  -21.0416   24.8840 C   0  0  0  0  0  0  0  0  0  0  0  0
  -27.8980  -26.5565   21.0001 C   0  0  1  0  0  0  0  0  0  0  0  0
  -26.2154  -29.9627   21.0155 C   0  0  1  0  0  0  0  0  0  0  0  0
  -22.1941  -21.8299   24.9484 C   0  0  2  0  0  0  0  0  0  0  0  0
  -24.2904  -36.4520   24.7820 C   0  0  0  0  0  0  0  0  0  0  0  0
  -26.7403  -30.3517   25.5909 C   0  0  0  0  0  0  0  0  0  0  0  0
  -25.8195  -32.4459   26.6080 C   0  0  0  0  0  0  0  0  0  0  0  0
  -27.9224  -32.5319   25.2689 C   0  0  0  0  0  0  0  0  0  0  0  0
  -23.1508  -35.4229   21.3009 C   0  0  0  0  0  0  0  0  0  0  0  0
  -19.5961  -28.4327   22.4906 C   0  0  0  0  0  0  0  0  0  1  0  0
  -25.7143  -32.1832   24.0879 C   0  0  1  0  0  0  0  0  0  0  0  0
  -24.3441  -35.6652   23.4817 C   0  0  2  0  0  0  0  0  0  0  0  0
  -26.5340  -31.8635   25.3698 C   0  0  0  0  0  0  0  0  0  0  0  0
  -23.1949  -20.0429   23.5745 N   0  0  0  0  0  0  0  0  0  0  0  0
  -23.1920  -21.3432   23.9138 N   0  0  0  0  0  0  0  0  0  0  0  0
  -16.6056  -26.0882   22.9937 N   0  0  0  0  0  0  0  0  0  0  0  0
  -25.5836  -30.6961   22.1142 N   0  0  0  0  0  0  0  0  0  0  0  0
  -19.9412  -21.5107   25.9249 N   0  0  0  0  0  0  0  0  0  0  0  0
  -24.2596  -23.4119   23.4762 N   0  0  0  0  0  0  0  0  0  0  0  0
  -26.4245  -20.5268   20.7587 N   0  0  0  0  0  0  0  0  0  0  0  0
  -27.3623  -27.8597   20.6694 N   0  0  0  0  0  0  0  0  0  0  0  0
  -25.5265  -33.6083   23.8387 N   0  0  0  0  0  0  0  0  0  0  0  0
  -17.9299  -21.6721   24.6155 N   0  0  0  0  0  0  0  0  0  0  0  0
  -23.2069  -36.0997   22.6221 N   0  3  0  0  0  0  0  0  0  0  0  0
  -18.8994  -25.7192   22.7045 O   0  0  0  0  0  0  0  0  0  0  0  0
  -26.3153  -22.7117   21.4464 O   0  0  0  0  0  0  0  0  0  0  0  0
  -26.4385  -28.3708   22.7450 O   0  0  0  0  0  0  0  0  0  0  0  0
  -27.4844  -31.9834   22.5216 O   0  0  0  0  0  0  0  0  0  0  0  0
  -23.2081  -33.5632   23.8398 O   0  0  0  0  0  0  0  0  0  0  0  0
  -18.3707  -23.1566   26.3465 O   0  0  0  0  0  0  0  0  0  0  0  0
  -14.8294  -29.3032   22.8654 O   0  0  0  0  0  0  0  0  0  0  0  0
  -25.4089  -15.0712   20.2685 O   0  0  0  0  0  0  0  0  0  0  0  0
  -20.0391  -28.1659   21.1606 O   0  0  0  0  0  0  0  0  0  1  0  0
  -30.7332  -13.7121   19.8116 F   0  0  0  0  0  0  0  0  0  0  0  0
  -26.3959  -12.7820   21.4635 F   0  0  0  0  0  0  0  0  0  0  0  0
  1  2  1  0  0  0  0
  1  6  2  0  0  0  0
  2  7  2  0  0  0  0
  3  9  1  0  0  0  0
  3 10  2  0  0  0  0
  4 11  2  0  0  0  0
  4 19  1  0  0  0  0
  5 12  1  0  0  0  0
  5 19  2  0  0  0  0
  6 21  1  0  0  0  0
  7 23  1  0  0  0  0
  8 13  2  0  0  0  0
  8 22  1  0  0  0  0
  9 25  2  0  0  0  0
 10 26  1  0  0  0  0
 11 27  1  0  0  0  0
 12 27  2  0  0  0  0
 13 28  1  0  0  0  0
 14 15  2  0  0  0  0
 14 29  1  0  0  0  0
 15 30  1  0  0  0  0
 16 24  1  0  0  0  0
 16 28  2  0  0  0  0
 17 25  1  0  0  0  0
 17 26  2  0  0  0  0
 18 30  2  0  0  0  0
 18 31  1  0  0  0  0
 19 32  1  0  0  0  0
 20 32  1  0  0  0  0
 20 33  2  0  0  0  0
 20 41  1  0  0  0  0
 21 23  2  0  0  0  0
 21 46  1  0  0  0  0
 22 24  2  0  0  0  0
 22 47  1  0  0  0  0
 23 55  1  0  0  0  0
 24 48  1  0  0  0  0
 25 69  1  0  0  0  0
 26 76  1  0  0  0  0
 27 85  1  0  0  0  0
 28 86  1  0  0  0  0
 29 31  2  0  0  0  0
 29 85  1  0  0  0  0
 30 87  1  0  0  0  0
 31 88  1  0  0  0  0
 32 67  2  0  0  0  0
 33 68  1  0  0  0  0
 33 72  1  0  0  0  0
 34 36  2  0  0  0  0
 34 37  1  0  0  0  0
 35 37  2  0  0  0  0
 35 69  1  0  0  0  0
 36 38  1  0  0  0  0
 36 63  1  0  0  0  0
 37 84  1  0  0  0  0
 38 69  1  0  0  0  0
 38 78  2  0  0  0  0
 39 40  2  0  0  0  0
 40 76  1  0  0  0  0
 41 73  1  0  0  0  0
 41 79  2  0  0  0  0
 42 56  1  0  0  0  0
 42 74  1  0  0  0  0
 42 80  2  0  0  0  0
 43 64  1  0  0  0  0
 43 70  1  0  0  0  0
 43 81  2  0  0  0  0
 44 65  1  0  0  0  0
 44 75  1  0  0  0  0
 44 82  2  0  0  0  0
 45 71  1  0  0  0  0
 45 76  1  0  0  0  0
 45 83  2  0  0  0  0
 46 49  1  0  0  0  0
 47 56  1  0  0  0  0
 48 70  1  0  0  0  0
 49 51  1  0  0  0  0
 50 52  1  0  0  0  0
 50 53  1  0  0  0  0
 51 55  1  0  0  0  0
 52 57  1  0  0  0  0
 53 71  1  0  0  0  0
 54 57  1  0  0  0  0
 54 71  1  0  0  0  0
 55 74  1  0  0  0  0
 56 70  1  0  0  0  0
 57 68  1  0  0  0  0
 58 65  1  0  0  0  0
 59 66  1  0  0  0  0
 60 66  1  0  0  0  0
 61 66  1  0  0  0  0
 62 77  1  0  0  0  0
 63 86  1  0  0  0  0
 64 66  1  0  0  0  0
 64 75  1  0  0  0  0
 65 77  1  0  0  0  0
 67 68  1  0  0  0  0
M  CHG  1  77   1
M  ISO  4  45 100  63 101  76 100  86 101
M  END
> <Batch ID>
0087

> <Smiles>
C=C[100N:0](c1cccc(N2CC(=O)C=C([101CH2:1][101O:1]c3ccc4c(c3)CN(C(=O)C(NC(=O)C(C)NC)C(C)(C)C)C(C(=O)NC3CCCc5ccccc53)C4)C2=O)c1)[100C:0](=O)N1CCCC(n2nc(-c3ccc(Oc4ccc(F)cc4F)cc3)c(C(N)=O)c2N)C1

> <Shape>
0.264

> <Color>
0.068

> <Negative vol penalty>
0.000

$$$$

  -OEChem-04052300203D

 86 95  0     1  0  0  0  0  0999 V2000
  -28.8304  -36.3620   17.4285 C   0  0  0  0  0  0  0  0  0  0  0  0
  -28.8507  -34.9739   17.3380 C   0  0  0  0  0  0  0  0  0  0  0  0
  -31.0157  -20.0119   19.9257 C   0  0  0  0  0  0  0  0  0  0  0  0
  -23.9974   -9.5514   21.7900 C   0  0  0  0  0  0  0  0  0  0  0  0
  -24.6581  -10.9141   23.6725 C   0  0  0  0  0  0  0  0  0  0  0  0
  -28.6094  -36.9759   18.6607 C   0  0  0  0  0  0  0  0  0  0  0  0
  -28.6509  -34.1989   18.4798 C   0  0  0  0  0  0  0  0  0  0  0  0
  -25.7940  -28.7916   18.8055 C   0  0  0  0  0  0  0  0  0  0  0  0
  -29.9916  -20.9085   20.2302 C   0  0  0  0  0  0  0  0  0  0  0  0
  -30.7161  -18.6769   19.6541 C   0  0  0  0  0  0  0  0  0  0  0  0
  -23.5905   -8.5426   22.6630 C   0  0  0  0  0  0  0  0  0  0  0  0
  -24.2512   -9.9052   24.5456 C   0  0  0  0  0  0  0  0  0  0  0  0
  -26.2679  -27.4809   18.8377 C   0  0  0  0  0  0  0  0  0  0  0  0
  -20.9312   -7.8872   24.6459 C   0  0  0  0  0  0  0  0  0  0  0  0
  -19.7019   -7.2753   24.4014 C   0  0  0  0  0  0  0  0  0  0  0  0
  -26.1268  -27.4953   21.2458 C   0  0  0  0  0  0  0  0  0  0  0  0
  -20.8109   -5.1420   24.1642 C   0  0  0  0  0  0  0  0  0  0  0  0
  -24.5313  -10.7372   22.2947 C   0  0  0  0  0  0  0  0  0  0  0  0
  -24.1724  -12.8417   20.8984 C   0  0  0  0  0  0  0  0  0  0  0  0
  -28.3971  -36.2080   19.8165 C   0  0  0  0  0  0  0  0  0  0  0  0
  -25.4928  -29.4690   19.9958 C   0  0  0  0  0  0  0  0  0  0  0  0
  -28.4280  -34.8031   19.7288 C   0  0  0  0  0  0  0  0  0  0  0  0
  -25.6468  -28.8138   21.2259 C   0  0  0  0  0  0  0  0  0  0  0  0
  -28.6678  -20.4702   20.2633 C   0  0  0  0  0  0  0  0  0  0  0  0
  -29.3924  -18.2386   19.6872 C   0  0  0  0  0  0  0  0  0  0  0  0
  -23.7173   -8.7195   24.0408 C   0  0  0  0  0  0  0  0  0  0  0  0
  -26.4371  -26.8335   20.0580 C   0  0  0  0  0  0  0  0  0  0  0  0
  -22.1005   -7.1265   24.6494 C   0  0  0  0  0  0  0  0  0  0  0  0
  -19.6416   -5.9027   24.1606 C   0  0  0  0  0  0  0  0  0  0  0  0
  -22.0403   -5.7539   24.4086 C   0  0  0  0  0  0  0  0  0  0  0  0
  -28.3682  -19.1352   19.9918 C   0  0  0  0  0  0  0  0  0  0  0  0
  -24.9524  -11.7795   21.3933 C   0  0  0  0  0  0  0  0  0  0  0  0
  -25.0280  -13.5475   20.0883 C   0  0  0  0  0  0  0  0  0  0  0  0
  -26.4568  -23.3144   20.7448 C   0  0  0  0  0  0  0  0  0  0  0  0
  -25.6433  -22.2456   21.3406 C   0  0  0  0  0  0  0  0  0  0  0  0
  -27.7288  -22.7442   20.2565 C   0  0  0  0  0  0  0  0  0  0  0  0
  -26.1050  -24.5971   20.6573 C   0  0  0  0  0  0  0  0  0  1  0  0
  -22.7974  -13.1619   21.1487 C   0  0  0  0  0  0  0  0  0  0  0  0
  -26.5948  -32.0830   21.4298 C   0  0  0  0  0  0  0  0  0  0  0  0
  -24.1518  -31.5127   23.4862 C   0  0  0  0  0  0  0  0  0  0  0  0
  -21.9837  -29.2613   24.8562 C   0  0  0  0  0  0  0  0  0  0  0  0
  -29.9916  -15.8653   19.0916 C   0  0  0  0  0  0  0  0  0  0  0  0
  -28.2092  -36.9167   21.1345 C   0  0  0  0  0  0  0  0  0  0  0  0
  -24.9572  -30.8735   19.9427 C   0  0  0  0  0  0  0  0  0  0  0  0
  -25.3185  -29.4899   22.5311 C   0  0  0  0  0  0  0  0  0  0  0  0
  -26.4014  -20.9550   21.2389 C   0  0  0  0  0  0  0  0  0  0  0  0
  -27.6335  -36.0229   22.2299 C   0  0  0  0  0  0  0  0  0  0  0  0
  -29.6510  -12.3932   18.3804 C   0  0  0  0  0  0  0  0  0  0  0  0
  -28.3624  -34.6833   22.2640 C   0  0  0  0  0  0  0  0  0  0  0  0
  -28.3341  -12.0114   19.0602 C   0  0  0  0  0  0  0  0  0  0  0  0
  -30.4326  -13.4220   19.1956 C   0  0  0  0  0  0  0  0  0  0  0  0
  -28.3601  -14.2444   20.2434 C   0  0  0  0  0  0  0  0  0  0  0  0
  -28.1908  -33.9281   20.9405 C   0  0  1  0  0  0  0  0  0  0  0  0
  -25.1702  -31.6438   21.2422 C   0  0  1  0  0  0  0  0  0  0  0  0
  -27.5072  -13.2591   19.4277 C   0  0  2  0  0  0  0  0  0  0  0  0
  -20.1293  -29.0842   26.5377 C   0  0  0  0  0  0  0  0  0  0  0  0
  -26.1961  -31.6224   25.7486 C   0  0  0  0  0  0  0  0  0  0  0  0
  -24.5076  -30.5220   27.2340 C   0  0  0  0  0  0  0  0  0  0  0  0
  -24.0264  -32.7618   26.2470 C   0  0  0  0  0  0  0  0  0  0  0  0
  -20.0440  -28.3897   22.7978 C   0  0  0  0  0  0  0  0  0  0  0  0
  -23.9895  -30.7179   24.7593 C   0  0  1  0  0  0  0  0  0  0  0  0
  -20.4826  -29.3139   25.0765 C   0  0  2  0  0  0  0  0  0  0  0  0
  -24.6880  -31.3937   25.9729 C   0  0  0  0  0  0  0  0  0  0  0  0
  -26.2070  -11.8041   20.9357 N   0  0  0  0  0  0  0  0  0  0  0  0
  -26.2218  -12.8905   20.1447 N   0  0  0  0  0  0  0  0  0  0  0  0
  -27.6475  -21.3684   20.5677 N   0  0  0  0  0  0  0  0  0  0  0  0
  -24.8039  -30.8653   22.4272 N   0  0  0  0  0  0  0  0  0  0  0  0
  -29.5871  -14.5776   19.5029 N   0  0  0  0  0  0  0  0  0  0  0  0
  -24.8680  -14.6598   19.3402 N   0  0  0  0  0  0  0  0  0  0  0  0
  -22.0634  -12.3314   22.0065 N   0  0  0  0  0  0  0  0  0  0  0  0
  -29.0919  -16.8817   19.4108 N   0  0  0  0  0  0  0  0  0  0  0  0
  -26.8813  -33.3154   20.8743 N   0  0  0  0  0  0  0  0  0  0  0  0
  -22.5554  -30.5137   24.9330 N   0  0  0  0  0  0  0  0  0  0  0  0
  -19.8022  -28.2702   24.2587 N   0  3  0  0  0  0  0  0  0  0  0  0
  -24.5378  -22.3840   21.8351 O   0  0  0  0  0  0  0  0  0  0  0  0
  -28.6269  -23.3601   19.7097 O   0  0  0  0  0  0  0  0  0  0  0  0
  -22.2318  -14.1457   20.6141 O   0  0  0  0  0  0  0  0  0  0  0  0
  -27.3759  -31.3582   22.0349 O   0  0  0  0  0  0  0  0  0  0  0  0
  -23.7097  -32.6630   23.4308 O   0  0  0  0  0  0  0  0  0  0  0  0
  -22.5891  -28.2134   24.6415 O   0  0  0  0  0  0  0  0  0  0  0  0
  -31.0447  -16.0488   18.4758 O   0  0  0  0  0  0  0  0  0  0  0  0
  -23.3201   -7.7354   24.8930 O   0  0  0  0  0  0  0  0  0  0  0  0
  -26.9001  -25.5543   20.0923 O   0  0  0  0  0  0  0  0  0  1  0  0
  -18.4608   -5.3149   23.9274 F   0  0  0  0  0  0  0  0  0  0  0  0
  -23.1600   -5.0177   24.4120 F   0  0  0  0  0  0  0  0  0  0  0  0
  -27.0946  -18.7134   20.0246 F   0  0  0  0  0  0  0  0  0  0  0  0
  1  2  1  0  0  0  0
  1  6  2  0  0  0  0
  2  7  2  0  0  0  0
  3  9  2  0  0  0  0
  3 10  1  0  0  0  0
  4 11  2  0  0  0  0
  4 18  1  0  0  0  0
  5 12  1  0  0  0  0
  5 18  2  0  0  0  0
  6 20  1  0  0  0  0
  7 22  1  0  0  0  0
  8 13  2  0  0  0  0
  8 21  1  0  0  0  0
  9 24  1  0  0  0  0
 10 25  2  0  0  0  0
 11 26  1  0  0  0  0
 12 26  2  0  0  0  0
 13 27  1  0  0  0  0
 14 15  2  0  0  0  0
 14 28  1  0  0  0  0
 15 29  1  0  0  0  0
 16 23  1  0  0  0  0
 16 27  2  0  0  0  0
 17 29  2  0  0  0  0
 17 30  1  0  0  0  0
 18 32  1  0  0  0  0
 19 32  1  0  0  0  0
 19 33  2  0  0  0  0
 19 38  1  0  0  0  0
 20 22  2  0  0  0  0
 20 43  1  0  0  0  0
 21 23  2  0  0  0  0
 21 44  1  0  0  0  0
 22 53  1  0  0  0  0
 23 45  1  0  0  0  0
 24 31  2  0  0  0  0
 24 66  1  0  0  0  0
 25 31  1  0  0  0  0
 25 71  1  0  0  0  0
 26 82  1  0  0  0  0
 27 83  1  0  0  0  0
 28 30  2  0  0  0  0
 28 82  1  0  0  0  0
 29 84  1  0  0  0  0
 30 85  1  0  0  0  0
 31 86  1  0  0  0  0
 32 64  2  0  0  0  0
 33 65  1  0  0  0  0
 33 69  1  0  0  0  0
 34 35  1  0  0  0  0
 34 36  1  0  0  0  0
 34 37  2  0  0  0  0
 35 46  1  0  0  0  0
 35 75  2  0  0  0  0
 36 66  1  0  0  0  0
 36 76  2  0  0  0  0
 37 83  1  0  0  0  0
 38 70  1  0  0  0  0
 38 77  2  0  0  0  0
 39 54  1  0  0  0  0
 39 72  1  0  0  0  0
 39 78  2  0  0  0  0
 40 61  1  0  0  0  0
 40 67  1  0  0  0  0
 40 79  2  0  0  0  0
 41 62  1  0  0  0  0
 41 73  1  0  0  0  0
 41 80  2  0  0  0  0
 42 68  1  0  0  0  0
 42 71  1  0  0  0  0
 42 81  2  0  0  0  0
 43 47  1  0  0  0  0
 44 54  1  0  0  0  0
 45 67  1  0  0  0  0
 46 66  1  0  0  0  0
 47 49  1  0  0  0  0
 48 50  1  0  0  0  0
 48 51  1  0  0  0  0
 49 53  1  0  0  0  0
 50 55  1  0  0  0  0
 51 68  1  0  0  0  0
 52 55  1  0  0  0  0
 52 68  1  0  0  0  0
 53 72  1  0  0  0  0
 54 67  1  0  0  0  0
 55 65  1  0  0  0  0
 56 62  1  0  0  0  0
 57 63  1  0  0  0  0
 58 63  1  0  0  0  0
 59 63  1  0  0  0  0
 60 74  1  0  0  0  0
 61 63  1  0  0  0  0
 61 73  1  0  0  0  0
 62 74  1  0  0  0  0
 64 65  1  0  0  0  0
M  CHG  1  74   1
M  ISO  4  37 101  42 100  71 100  83 101
M  END
> <Batch ID>
0087

> <Smiles>
CNC(C)C(=O)NC(C(=O)N1Cc2cc([101O:1][101CH:1]=C3C(=O)CN(c4cccc([100NH:0][100C:0](=O)N5CCCC(n6nc(-c7ccc(Oc8ccc(F)cc8F)cc7)c(C(N)=O)c6N)C5)c4F)C3=O)ccc2CC1C(=O)NC1CCCc2ccccc21)C(C)(C)C

> <Shape>
0.295

> <Color>
0.148

> <Negative vol penalty>
0.000

$$$$

  -OEChem-04052300203D

 86 95  0     1  0  0  0  0  0999 V2000
  -26.2919  -37.7396   19.3476 C   0  0  0  0  0  0  0  0  0  0  0  0
  -26.8841  -36.5045   19.1041 C   0  0  0  0  0  0  0  0  0  0  0  0
  -24.4284   -8.6377   20.6703 C   0  0  0  0  0  0  0  0  0  0  0  0
  -23.0684  -10.5457   21.2593 C   0  0  0  0  0  0  0  0  0  0  0  0
  -25.5467  -37.9371   20.5093 C   0  0  0  0  0  0  0  0  0  0  0  0
  -26.7323  -35.4665   20.0227 C   0  0  0  0  0  0  0  0  0  0  0  0
  -26.2775  -29.4871   18.7791 C   0  0  0  0  0  0  0  0  0  0  0  0
  -23.3759   -7.7849   21.0028 C   0  0  0  0  0  0  0  0  0  0  0  0
  -22.0159   -9.6930   21.5917 C   0  0  0  0  0  0  0  0  0  0  0  0
  -27.2092  -28.4503   18.8043 C   0  0  0  0  0  0  0  0  0  0  0  0
  -22.0013   -6.5035   23.8122 C   0  0  0  0  0  0  0  0  0  0  0  0
  -22.2991   -5.3748   24.5757 C   0  0  0  0  0  0  0  0  0  0  0  0
  -26.4809  -27.8580   21.0265 C   0  0  0  0  0  0  0  0  0  0  0  0
  -28.6261  -18.4343   19.9443 C   0  0  0  0  0  0  0  0  0  0  0  0
  -29.7759  -18.7636   22.0434 C   0  0  0  0  0  0  0  0  0  0  0  0
  -21.4679   -3.9573   22.8045 C   0  0  0  0  0  0  0  0  0  0  0  0
  -24.2747  -10.0181   20.7986 C   0  0  0  0  0  0  0  0  0  0  0  0
  -25.6251  -11.4755   19.1986 C   0  0  0  0  0  0  0  0  0  0  0  0
  -25.3775  -36.8980   21.4379 C   0  0  0  0  0  0  0  0  0  0  0  0
  -25.4466  -29.7244   19.8834 C   0  0  0  0  0  0  0  0  0  0  0  0
  -25.9851  -35.6506   21.1985 C   0  0  0  0  0  0  0  0  0  0  0  0
  -25.5377  -28.8969   21.0117 C   0  0  0  0  0  0  0  0  0  0  0  0
  -29.1801  -20.6676   20.6807 C   0  0  0  0  0  0  0  0  0  0  0  0
  -29.2080  -17.9094   21.0982 C   0  0  0  0  0  0  0  0  0  0  0  0
  -28.6122  -19.8134   19.7355 C   0  0  0  0  0  0  0  0  0  0  0  0
  -22.1696   -8.3125   21.4635 C   0  0  0  0  0  0  0  0  0  0  0  0
  -27.3131  -27.6374   19.9292 C   0  0  0  0  0  0  0  0  0  0  0  0
  -21.4367   -6.3591   22.5449 C   0  0  0  0  0  0  0  0  0  0  0  0
  -22.0324   -4.1017   24.0719 C   0  0  0  0  0  0  0  0  0  0  0  0
  -29.7620  -20.1428   21.8347 C   0  0  0  0  0  0  0  0  0  0  0  0
  -21.1700   -5.0861   22.0410 C   0  0  0  0  0  0  0  0  0  0  0  0
  -25.3617  -10.8995   20.4558 C   0  0  0  0  0  0  0  0  0  0  0  0
  -26.7595  -12.2245   19.3948 C   0  0  0  0  0  0  0  0  0  0  0  0
  -28.5603  -24.2817   20.1638 C   0  0  0  0  0  0  0  0  0  0  0  0
  -28.0450  -22.8983   20.3440 C   0  0  0  0  0  0  0  0  0  0  0  0
  -27.7599  -25.3496   20.1219 C   0  0  0  0  0  0  0  0  0  1  0  0
  -24.9083  -11.3452   17.9637 C   0  0  0  0  0  0  0  0  0  0  0  0
  -25.0248  -32.1509   21.8930 C   0  0  0  0  0  0  0  0  0  0  0  0
  -22.5829  -30.3149   22.9832 C   0  0  0  0  0  0  0  0  0  0  0  0
  -21.2227  -27.2027   23.3156 C   0  0  0  0  0  0  0  0  0  0  0  0
  -29.7593  -15.8252   22.4014 C   0  0  0  0  0  0  0  0  0  0  0  0
  -24.6026  -37.1733   22.7022 C   0  0  0  0  0  0  0  0  0  0  0  0
  -24.4282  -30.8301   19.8300 C   0  0  0  0  0  0  0  0  0  0  0  0
  -24.6548  -29.0971   22.2154 C   0  0  0  0  0  0  0  0  0  0  0  0
  -30.0459  -24.2707   20.0690 C   0  0  0  0  0  0  0  0  0  0  0  0
  -24.1774  -35.9084   23.4436 C   0  0  0  0  0  0  0  0  0  0  0  0
  -29.9613  -12.3890   23.3119 C   0  0  0  0  0  0  0  0  0  0  0  0
  -25.3453  -34.9329   23.5482 C   0  0  0  0  0  0  0  0  0  0  0  0
  -28.8043  -11.7425   22.5466 C   0  0  0  0  0  0  0  0  0  0  0  0
  -30.4086  -22.8562   20.4901 C   0  0  0  0  0  0  0  0  0  0  0  0
  -29.5995  -13.7861   23.8128 C   0  0  0  0  0  0  0  0  0  0  0  0
  -27.9327  -14.0553   22.0188 C   0  0  0  0  0  0  0  0  0  0  0  0
  -25.8226  -34.4926   22.1590 C   0  0  1  0  0  0  0  0  0  0  0  0
  -23.9875  -31.3038   21.2116 C   0  0  1  0  0  0  0  0  0  0  0  0
  -28.2721  -12.6725   21.4387 C   0  0  2  0  0  0  0  0  0  0  0  0
  -19.2375  -26.0139   24.2870 C   0  0  0  0  0  0  0  0  0  0  0  0
  -23.7834  -30.5958   25.7742 C   0  0  0  0  0  0  0  0  0  0  0  0
  -22.3606  -28.6694   26.5042 C   0  0  0  0  0  0  0  0  0  0  0  0
  -21.2901  -30.7698   25.6888 C   0  0  0  0  0  0  0  0  0  0  0  0
  -20.3668  -26.2174   20.6594 C   0  0  0  0  0  0  0  0  0  0  0  0
  -22.4394  -29.2414   24.0349 C   0  0  1  0  0  0  0  0  0  0  0  0
  -19.8211  -26.6825   23.0520 C   0  0  2  0  0  0  0  0  0  0  0  0
  -22.4865  -29.8163   25.4788 C   0  0  0  0  0  0  0  0  0  0  0  0
  -26.2569  -11.2522   21.3822 N   0  0  0  0  0  0  0  0  0  0  0  0
  -27.0939  -12.0578   20.7065 N   0  0  0  0  0  0  0  0  0  0  0  0
  -29.1760  -22.0840   20.4867 N   0  0  0  0  0  0  0  0  0  0  0  0
  -23.6792  -30.1953   22.1174 N   0  0  0  0  0  0  0  0  0  0  0  0
  -29.1073  -14.6120   22.7080 N   0  0  0  0  0  0  0  0  0  0  0  0
  -28.0177  -20.3236   18.5594 N   0  0  0  0  0  0  0  0  0  0  0  0
  -27.4937  -13.0028   18.5716 N   0  0  0  0  0  0  0  0  0  0  0  0
  -23.7638  -10.5366   17.9376 N   0  0  0  0  0  0  0  0  0  0  0  0
  -29.2226  -16.5086   21.3108 N   0  0  0  0  0  0  0  0  0  0  0  0
  -24.9258  -33.4993   21.6078 N   0  0  0  0  0  0  0  0  0  0  0  0
  -21.2107  -28.5214   23.7182 N   0  0  0  0  0  0  0  0  0  0  0  0
  -19.8379  -25.6876   21.9426 N   0  3  0  0  0  0  0  0  0  0  0  0
  -26.8568  -22.6230   20.3592 O   0  0  0  0  0  0  0  0  0  0  0  0
  -25.2812  -11.9154   16.9105 O   0  0  0  0  0  0  0  0  0  0  0  0
  -25.8527  -31.6205   22.6244 O   0  0  0  0  0  0  0  0  0  0  0  0
  -21.7489  -31.2220   22.9273 O   0  0  0  0  0  0  0  0  0  0  0  0
  -22.2273  -26.5075   23.1816 O   0  0  0  0  0  0  0  0  0  0  0  0
  -30.7396  -16.2147   23.0411 O   0  0  0  0  0  0  0  0  0  0  0  0
  -21.1423   -7.4807   21.7878 O   0  0  0  0  0  0  0  0  0  0  0  0
  -28.2221  -26.6251   19.9568 O   0  0  0  0  0  0  0  0  0  1  0  0
  -22.3199   -3.0179   24.8046 F   0  0  0  0  0  0  0  0  0  0  0  0
  -30.3108  -20.9537   22.7506 F   0  0  0  0  0  0  0  0  0  0  0  0
  -20.6288   -4.9411   20.8237 F   0  0  0  0  0  0  0  0  0  0  0  0
  1  2  1  0  0  0  0
  1  5  2  0  0  0  0
  2  6  2  0  0  0  0
  3  8  2  0  0  0  0
  3 17  1  0  0  0  0
  4  9  1  0  0  0  0
  4 17  2  0  0  0  0
  5 19  1  0  0  0  0
  6 21  1  0  0  0  0
  7 10  2  0  0  0  0
  7 20  1  0  0  0  0
  8 26  1  0  0  0  0
  9 26  2  0  0  0  0
 10 27  1  0  0  0  0
 11 12  2  0  0  0  0
 11 28  1  0  0  0  0
 12 29  1  0  0  0  0
 13 22  1  0  0  0  0
 13 27  2  0  0  0  0
 14 24  1  0  0  0  0
 14 25  2  0  0  0  0
 15 24  2  0  0  0  0
 15 30  1  0  0  0  0
 16 29  2  0  0  0  0
 16 31  1  0  0  0  0
 17 32  1  0  0  0  0
 18 32  1  0  0  0  0
 18 33  2  0  0  0  0
 18 37  1  0  0  0  0
 19 21  2  0  0  0  0
 19 42  1  0  0  0  0
 20 22  2  0  0  0  0
 20 43  1  0  0  0  0
 21 53  1  0  0  0  0
 22 44  1  0  0  0  0
 23 25  1  0  0  0  0
 23 30  2  0  0  0  0
 23 66  1  0  0  0  0
 24 72  1  0  0  0  0
 25 69  1  0  0  0  0
 26 82  1  0  0  0  0
 27 83  1  0  0  0  0
 28 31  2  0  0  0  0
 28 82  1  0  0  0  0
 29 84  1  0  0  0  0
 30 85  1  0  0  0  0
 31 86  1  0  0  0  0
 32 64  2  0  0  0  0
 33 65  1  0  0  0  0
 33 70  1  0  0  0  0
 34 35  1  0  0  0  0
 34 36  2  0  0  0  0
 34 45  1  0  0  0  0
 35 66  1  0  0  0  0
 35 76  2  0  0  0  0
 36 83  1  0  0  0  0
 37 71  1  0  0  0  0
 37 77  2  0  0  0  0
 38 54  1  0  0  0  0
 38 73  1  0  0  0  0
 38 78  2  0  0  0  0
 39 61  1  0  0  0  0
 39 67  1  0  0  0  0
 39 79  2  0  0  0  0
 40 62  1  0  0  0  0
 40 74  1  0  0  0  0
 40 80  2  0  0  0  0
 41 68  1  0  0  0  0
 41 72  1  0  0  0  0
 41 81  2  0  0  0  0
 42 46  1  0  0  0  0
 43 54  1  0  0  0  0
 44 67  1  0  0  0  0
 45 50  1  0  0  0  0
 46 48  1  0  0  0  0
 47 49  1  0  0  0  0
 47 51  1  0  0  0  0
 48 53  1  0  0  0  0
 49 55  1  0  0  0  0
 50 66  1  0  0  0  0
 51 68  1  0  0  0  0
 52 55  1  0  0  0  0
 52 68  1  0  0  0  0
 53 73  1  0  0  0  0
 54 67  1  0  0  0  0
 55 65  1  0  0  0  0
 56 62  1  0  0  0  0
 57 63  1  0  0  0  0
 58 63  1  0  0  0  0
 59 63  1  0  0  0  0
 60 75  1  0  0  0  0
 61 63  1  0  0  0  0
 61 74  1  0  0  0  0
 62 75  1  0  0  0  0
 64 65  1  0  0  0  0
M  CHG  1  75   1
M  ISO  4  36 101  41 100  72 100  83 101
M  END
> <Batch ID>
0087

> <Smiles>
CNC(C)C(=O)NC(C(=O)N1Cc2cc([101O:1][101CH:1]=C3CCN(c4c(N)cc([100NH:0][100C:0](=O)N5CCCC(n6nc(-c7ccc(Oc8ccc(F)cc8F)cc7)c(C(N)=O)c6N)C5)cc4F)C3=O)ccc2CC1C(=O)NC1CCCc2ccccc21)C(C)(C)C

> <Shape>
0.340

> <Color>
0.108

> <Negative vol penalty>
0.000

$$$$

  -OEChem-04052300203D

 85 93  0     1  0  0  0  0  0999 V2000
  -31.4997  -33.3989   25.0618 C   0  0  0  0  0  0  0  0  0  0  0  0
  -31.3007  -32.6194   23.9268 C   0  0  0  0  0  0  0  0  0  0  0  0
  -22.9104  -10.2981   20.7459 C   0  0  0  0  0  0  0  0  0  0  0  0
  -24.6257   -8.9447   21.7770 C   0  0  0  0  0  0  0  0  0  0  0  0
  -30.6197  -33.2979   26.1385 C   0  0  0  0  0  0  0  0  0  0  0  0
  -30.2220  -31.7376   23.8683 C   0  0  0  0  0  0  0  0  0  0  0  0
  -26.9304  -30.2708   18.9167 C   0  0  0  0  0  0  0  0  0  0  0  0
  -27.7823  -19.2513   18.8195 C   0  0  0  0  0  0  0  0  0  0  0  0
  -27.5015  -20.5890   18.5418 C   0  0  0  0  0  0  0  0  0  0  0  0
  -22.0261   -9.2210   20.8031 C   0  0  0  0  0  0  0  0  0  0  0  0
  -23.7414   -7.8676   21.8342 C   0  0  0  0  0  0  0  0  0  0  0  0
  -26.9791  -29.1826   18.0465 C   0  0  0  0  0  0  0  0  0  0  0  0
  -21.1595   -6.8668   23.7716 C   0  0  0  0  0  0  0  0  0  0  0  0
  -21.1015   -6.1405   24.9609 C   0  0  0  0  0  0  0  0  0  0  0  0
  -25.2271  -28.1044   19.3065 C   0  0  0  0  0  0  0  0  0  0  0  0
  -27.4889  -18.7050   16.4844 C   0  0  0  0  0  0  0  0  0  0  0  0
  -21.7664   -4.1439   23.7740 C   0  0  0  0  0  0  0  0  0  0  0  0
  -24.2102  -10.1600   21.2328 C   0  0  0  0  0  0  0  0  0  0  0  0
  -25.3198  -12.2651   22.1521 C   0  0  0  0  0  0  0  0  0  0  0  0
  -29.5242  -32.4215   26.0893 C   0  0  0  0  0  0  0  0  0  0  0  0
  -26.0357  -30.2793   19.9965 C   0  0  0  0  0  0  0  0  0  0  0  0
  -29.3273  -31.6238   24.9459 C   0  0  0  0  0  0  0  0  0  0  0  0
  -25.1672  -29.1951   20.1874 C   0  0  0  0  0  0  0  0  0  0  0  0
  -27.7761  -18.3093   17.7907 C   0  0  0  0  0  0  0  0  0  0  0  0
  -27.2143  -20.9848   17.2355 C   0  0  0  0  0  0  0  0  0  0  0  0
  -22.4415   -8.0057   21.3473 C   0  0  0  0  0  0  0  0  0  0  0  0
  -26.1294  -28.0979   18.2431 C   0  0  0  0  0  0  0  0  0  0  0  0
  -21.5209   -6.2317   22.5834 C   0  0  0  0  0  0  0  0  0  0  0  0
  -27.2080  -20.0428   16.2067 C   0  0  0  0  0  0  0  0  0  0  0  0
  -21.4049   -4.7790   24.9622 C   0  0  0  0  0  0  0  0  0  0  0  0
  -21.8243   -4.8703   22.5846 C   0  0  0  0  0  0  0  0  0  0  0  0
  -25.1244  -11.2722   21.1735 C   0  0  0  0  0  0  0  0  0  0  0  0
  -26.2862  -13.0844   21.6218 C   0  0  0  0  0  0  0  0  0  0  0  0
  -26.5585  -24.6800   17.2049 C   0  0  0  0  0  0  0  0  0  0  0  0
  -26.4787  -25.8082   17.9179 C   0  0  0  0  0  0  0  0  0  1  0  0
  -24.6846  -12.4319   23.4266 C   0  0  0  0  0  0  0  0  0  0  0  0
  -26.8977  -23.3939   17.8809 C   0  0  0  0  0  0  0  0  0  0  0  0
  -26.3376  -30.3906   23.1588 C   0  0  0  0  0  0  0  0  0  0  0  0
  -23.1042  -30.6341   23.0686 C   0  0  0  0  0  0  0  0  0  0  0  0
  -20.2013  -30.0534   21.3708 C   0  0  0  0  0  0  0  0  0  0  0  0
  -28.0673  -15.9482   17.0587 C   0  0  0  0  0  0  0  0  0  0  0  0
  -28.6271  -32.3123   27.2968 C   0  0  0  0  0  0  0  0  0  0  0  0
  -25.9769  -31.4725   20.9103 C   0  0  0  0  0  0  0  0  0  0  0  0
  -24.1744  -29.1642   21.3196 C   0  0  0  0  0  0  0  0  0  0  0  0
  -27.2943  -31.6274   27.0055 C   0  0  0  0  0  0  0  0  0  0  0  0
  -29.2720  -12.5022   17.5918 C   0  0  0  0  0  0  0  0  0  0  0  0
  -27.5141  -30.3562   26.1914 C   0  0  0  0  0  0  0  0  0  0  0  0
  -28.2714  -11.9443   18.6025 C   0  0  0  0  0  0  0  0  0  0  0  0
  -28.6413  -13.5656   16.6977 C   0  0  0  0  0  0  0  0  0  0  0  0
  -26.9969  -14.1218   18.4631 C   0  0  0  0  0  0  0  0  0  0  0  0
  -28.1547  -30.6737   24.8348 C   0  0  1  0  0  0  0  0  0  0  0  0
  -25.3847  -31.1487   22.2785 C   0  0  1  0  0  0  0  0  0  0  0  0
  -27.6138  -13.0788   19.4072 C   0  0  1  0  0  0  0  0  0  0  0  0
  -17.7148  -30.3287   21.5684 C   0  0  0  0  0  0  0  0  0  0  0  0
  -22.9974  -28.2672   24.9911 C   0  0  0  0  0  0  0  0  0  0  0  0
  -20.5785  -27.9916   24.4073 C   0  0  0  0  0  0  0  0  0  0  0  0
  -21.3656  -30.0943   25.4943 C   0  0  0  0  0  0  0  0  0  0  0  0
  -28.5993  -16.5812   19.4010 C   0  0  0  0  0  0  0  0  0  0  0  0
  -20.0896  -31.8078   18.9899 C   0  0  0  0  0  0  0  0  0  0  0  0
  -25.5610  -20.3637   14.5214 C   0  0  0  0  0  0  0  0  0  0  0  0
  -21.9575  -29.6523   23.0764 C   0  0  1  0  0  0  0  0  0  0  0  0
  -19.0121  -30.9488   21.0731 C   0  0  2  0  0  0  0  0  0  0  0  0
  -21.7447  -29.0008   24.4720 C   0  0  0  0  0  0  0  0  0  0  0  0
  -25.9039  -11.4433   20.1024 N   0  0  0  0  0  0  0  0  0  0  0  0
  -26.5985  -12.5533   20.4049 N   0  0  0  0  0  0  0  0  0  0  0  0
  -24.1595  -30.3517   22.1897 N   0  0  0  0  0  0  0  0  0  0  0  0
  -27.9840  -14.6080   17.4869 N   0  0  0  0  0  0  0  0  0  0  0  0
  -26.8908  -14.2002   22.0822 N   0  0  0  0  0  0  0  0  0  0  0  0
  -23.7136  -11.4994   23.8163 N   0  0  0  0  0  0  0  0  0  0  0  0
  -26.9301  -22.3469   16.9695 N   0  0  0  0  0  0  0  0  0  0  0  0
  -27.1642  -31.1965   23.9182 N   0  0  0  0  0  0  0  0  0  0  0  0
  -20.7962  -30.3770   22.5719 N   0  0  0  0  0  0  0  0  0  0  0  0
  -28.0661  -16.9244   18.0785 N   0  0  0  0  0  0  0  0  0  0  0  0
  -18.8923  -31.1800   19.6058 N   0  3  0  0  0  0  0  0  0  0  0  0
  -24.9580  -13.3890   24.1900 O   0  0  0  0  0  0  0  0  0  0  0  0
  -27.1074  -23.3464   19.0873 O   0  0  0  0  0  0  0  0  0  0  0  0
  -26.3230  -29.1653   23.1507 O   0  0  0  0  0  0  0  0  0  0  0  0
  -23.0618  -31.6193   23.8097 O   0  0  0  0  0  0  0  0  0  0  0  0
  -20.5638  -29.1543   20.6153 O   0  0  0  0  0  0  0  0  0  0  0  0
  -28.1652  -16.2460   15.8623 O   0  0  0  0  0  0  0  0  0  0  0  0
  -21.5788   -6.9544   21.4035 O   0  0  0  0  0  0  0  0  0  0  0  0
  -26.1754  -27.0341   17.3956 O   0  0  0  0  0  0  0  0  0  1  0  0
  -26.9282  -20.4081   14.9236 O   0  0  0  0  0  0  0  0  0  0  0  0
  -21.3507   -4.0819   26.1047 F   0  0  0  0  0  0  0  0  0  0  0  0
  -22.1733   -4.2549   21.4465 F   0  0  0  0  0  0  0  0  0  0  0  0
  1  2  1  0  0  0  0
  1  5  2  0  0  0  0
  2  6  2  0  0  0  0
  3 10  2  0  0  0  0
  3 18  1  0  0  0  0
  4 11  1  0  0  0  0
  4 18  2  0  0  0  0
  5 20  1  0  0  0  0
  6 22  1  0  0  0  0
  7 12  2  0  0  0  0
  7 21  1  0  0  0  0
  8  9  2  0  0  0  0
  8 24  1  0  0  0  0
  9 25  1  0  0  0  0
 10 26  1  0  0  0  0
 11 26  2  0  0  0  0
 12 27  1  0  0  0  0
 13 14  2  0  0  0  0
 13 28  1  0  0  0  0
 14 30  1  0  0  0  0
 15 23  1  0  0  0  0
 15 27  2  0  0  0  0
 16 24  2  0  0  0  0
 16 29  1  0  0  0  0
 17 30  2  0  0  0  0
 17 31  1  0  0  0  0
 18 32  1  0  0  0  0
 19 32  1  0  0  0  0
 19 33  2  0  0  0  0
 19 36  1  0  0  0  0
 20 22  2  0  0  0  0
 20 42  1  0  0  0  0
 21 23  2  0  0  0  0
 21 43  1  0  0  0  0
 22 51  1  0  0  0  0
 23 44  1  0  0  0  0
 24 73  1  0  0  0  0
 25 29  2  0  0  0  0
 25 70  1  0  0  0  0
 26 81  1  0  0  0  0
 27 82  1  0  0  0  0
 28 31  2  0  0  0  0
 28 81  1  0  0  0  0
 29 83  1  0  0  0  0
 30 84  1  0  0  0  0
 31 85  1  0  0  0  0
 32 64  2  0  0  0  0
 33 65  1  0  0  0  0
 33 68  1  0  0  0  0
 34 35  2  0  0  0  0
 34 37  1  0  0  0  0
 35 82  1  0  0  0  0
 36 69  1  0  0  0  0
 36 75  2  0  0  0  0
 37 70  1  0  0  0  0
 37 76  2  0  0  0  0
 38 52  1  0  0  0  0
 38 71  1  0  0  0  0
 38 77  2  0  0  0  0
 39 61  1  0  0  0  0
 39 66  1  0  0  0  0
 39 78  2  0  0  0  0
 40 62  1  0  0  0  0
 40 72  1  0  0  0  0
 40 79  2  0  0  0  0
 41 67  1  0  0  0  0
 41 73  1  0  0  0  0
 41 80  2  0  0  0  0
 42 45  1  0  0  0  0
 43 52  1  0  0  0  0
 44 66  1  0  0  0  0
 45 47  1  0  0  0  0
 46 48  1  0  0  0  0
 46 49  1  0  0  0  0
 47 51  1  0  0  0  0
 48 53  1  0  0  0  0
 49 67  1  0  0  0  0
 50 53  1  0  0  0  0
 50 67  1  0  0  0  0
 51 71  1  0  0  0  0
 52 66  1  0  0  0  0
 53 65  1  0  0  0  0
 54 62  1  0  0  0  0
 55 63  1  0  0  0  0
 56 63  1  0  0  0  0
 57 63  1  0  0  0  0
 58 73  1  0  0  0  0
 59 74  1  0  0  0  0
 60 83  1  0  0  0  0
 61 63  1  0  0  0  0
 61 72  1  0  0  0  0
 62 74  1  0  0  0  0
 64 65  1  0  0  0  0
M  CHG  1  74   1
M  ISO  4  35 101  41 100  73 100  82 101
M  END
> <Batch ID>
0087

> <Smiles>
CNC(C)C(=O)NC(C(=O)N1Cc2cc([101O:1][101CH:1]=CC(=O)Nc3ccc([100N:0](C)[100C:0](=O)N4CCCC(n5nc(-c6ccc(Oc7ccc(F)cc7F)cc6)c(C(N)=O)c5N)C4)cc3OC)ccc2CC1C(=O)NC1CCCc2ccccc21)C(C)(C)C

> <Shape>
0.264

> <Color>
0.117

> <Negative vol penalty>
0.000

$$$$

  -OEChem-04052300203D

 85 94  0     1  0  0  0  0  0999 V2000
  -29.3991  -31.3526   20.8942 C   0  0  0  0  0  0  0  0  0  0  0  0
  -29.1088  -29.9989   21.0311 C   0  0  0  0  0  0  0  0  0  0  0  0
  -29.2950  -17.5203   24.1129 C   0  0  0  0  0  0  0  0  0  0  0  0
  -22.9130  -10.1740   20.5174 C   0  0  0  0  0  0  0  0  0  0  0  0
  -24.4207   -9.1659   22.1135 C   0  0  0  0  0  0  0  0  0  0  0  0
  -29.9777  -16.3662   23.7286 C   0  0  0  0  0  0  0  0  0  0  0  0
  -28.4939  -32.3084   21.3535 C   0  0  0  0  0  0  0  0  0  0  0  0
  -27.9135  -29.6003   21.6284 C   0  0  0  0  0  0  0  0  0  0  0  0
  -25.6134  -25.8792   19.0773 C   0  0  0  0  0  0  0  0  0  0  0  0
  -28.7232  -18.3470   23.1458 C   0  0  0  0  0  0  0  0  0  0  0  0
  -22.1698   -8.9944   20.4744 C   0  0  0  0  0  0  0  0  0  0  0  0
  -23.6774   -7.9863   22.0706 C   0  0  0  0  0  0  0  0  0  0  0  0
  -26.1168  -24.5894   19.2408 C   0  0  0  0  0  0  0  0  0  0  0  0
  -21.9690   -4.8306   22.6547 C   0  0  0  0  0  0  0  0  0  0  0  0
  -21.6699   -4.2072   23.8661 C   0  0  0  0  0  0  0  0  0  0  0  0
  -29.5168  -16.8656   21.4102 C   0  0  0  0  0  0  0  0  0  0  0  0
  -24.3495  -24.1049   20.8096 C   0  0  0  0  0  0  0  0  0  0  0  0
  -27.2968  -19.5601   18.9571 C   0  0  0  0  0  0  0  0  0  0  0  0
  -20.4919   -6.1870   24.5941 C   0  0  0  0  0  0  0  0  0  0  0  0
  -28.1012  -20.2017   20.9599 C   0  0  0  0  0  0  0  0  0  0  0  0
  -24.0385  -10.2597   21.3369 C   0  0  0  0  0  0  0  0  0  0  0  0
  -30.0887  -16.0389   22.3773 C   0  0  0  0  0  0  0  0  0  0  0  0
  -24.6192  -12.5702   22.2490 C   0  0  0  0  0  0  0  0  0  0  0  0
  -27.2825  -31.9213   21.9480 C   0  0  0  0  0  0  0  0  0  0  0  0
  -24.4787  -26.2958   19.7882 C   0  0  0  0  0  0  0  0  0  0  0  0
  -26.9918  -30.5518   22.0973 C   0  0  0  0  0  0  0  0  0  0  0  0
  -23.8322  -25.3996   20.6514 C   0  0  0  0  0  0  0  0  0  0  0  0
  -27.5034  -20.6713   19.8113 C   0  0  0  0  0  0  0  0  0  0  0  0
  -28.8341  -18.0197   21.7945 C   0  0  0  0  0  0  0  0  0  0  0  0
  -22.5519   -7.9006   21.2510 C   0  0  0  0  0  0  0  0  0  0  0  0
  -25.4866  -23.7030   20.1092 C   0  0  0  0  0  0  0  0  0  0  0  0
  -21.5297   -6.1323   22.4130 C   0  0  0  0  0  0  0  0  0  0  0  0
  -20.9314   -4.8854   24.8358 C   0  0  0  0  0  0  0  0  0  0  0  0
  -20.7911   -6.8104   23.3827 C   0  0  0  0  0  0  0  0  0  0  0  0
  -24.8070  -11.4777   21.3813 C   0  0  0  0  0  0  0  0  0  0  0  0
  -25.5978  -13.4651   21.8912 C   0  0  0  0  0  0  0  0  0  0  0  0
  -27.7745  -18.4451   19.6099 C   0  0  0  0  0  0  0  0  0  0  0  0
  -30.8007  -14.8353   21.9779 C   0  0  0  0  0  0  0  0  0  0  0  0
  -23.6472  -12.7592   23.2859 C   0  0  0  0  0  0  0  0  0  0  0  0
  -30.9376  -14.4576   20.5525 C   0  0  0  0  0  0  0  0  0  0  0  0
  -23.8871  -28.5541   21.9454 C   0  0  0  0  0  0  0  0  0  0  0  0
  -20.8192  -27.5743   21.5579 C   0  0  0  0  0  0  0  0  0  0  0  0
  -18.6647  -25.0914   20.6413 C   0  0  0  0  0  0  0  0  0  0  0  0
  -26.3568  -32.9905   22.4719 C   0  0  0  0  0  0  0  0  0  0  0  0
  -23.9324  -27.6817   19.5805 C   0  0  0  0  0  0  0  0  0  0  0  0
  -22.5991  -25.7912   21.4225 C   0  0  0  0  0  0  0  0  0  0  0  0
  -24.9435  -32.4875   22.7544 C   0  0  0  0  0  0  0  0  0  0  0  0
  -28.6957  -13.5538   17.9042 C   0  0  0  0  0  0  0  0  0  0  0  0
  -24.9890  -31.1738   23.5282 C   0  0  0  0  0  0  0  0  0  0  0  0
  -27.4850  -12.9867   18.6446 C   0  0  0  0  0  0  0  0  0  0  0  0
  -29.9965  -13.2331   18.6332 C   0  0  0  0  0  0  0  0  0  0  0  0
  -28.8046  -13.1204   20.8047 C   0  0  0  0  0  0  0  0  0  0  0  0
  -25.6945  -30.0800   22.7173 C   0  0  1  0  0  0  0  0  0  0  0  0
  -23.0726  -28.1656   20.7441 C   0  0  1  0  0  0  0  0  0  0  0  0
  -27.4699  -13.4480   20.1129 C   0  0  2  0  0  0  0  0  0  0  0  0
  -16.2155  -24.5729   20.4683 C   0  0  0  0  0  0  0  0  0  0  0  0
  -20.6853  -27.2094   24.5842 C   0  0  0  0  0  0  0  0  0  0  0  0
  -18.6232  -25.8279   24.2564 C   0  0  0  0  0  0  0  0  0  0  0  0
  -18.6398  -28.2245   23.5643 C   0  0  0  0  0  0  0  0  0  0  0  0
  -18.8422  -24.6684   17.7175 C   0  0  0  0  0  0  0  0  0  0  0  0
  -27.1392  -22.0974   19.5199 C   0  0  0  0  0  0  0  0  0  1  0  0
  -19.9394  -26.5332   22.2068 C   0  0  1  0  0  0  0  0  0  0  0  0
  -17.4426  -25.0998   19.7408 C   0  0  2  0  0  0  0  0  0  0  0  0
  -19.4963  -26.9417   23.6400 C   0  0  0  0  0  0  0  0  0  0  0  0
  -25.8248  -11.6598   20.5357 N   0  0  0  0  0  0  0  0  0  0  0  0
  -31.3609  -14.0185   22.8288 N   0  0  0  0  0  0  0  0  0  0  0  0
  -28.2608  -18.8471   20.8265 N   0  0  0  0  0  0  0  0  0  0  0  0
  -26.2852  -12.8772   20.8704 N   0  0  0  0  0  0  0  0  0  0  0  0
  -29.9351  -13.6510   20.0324 N   0  0  0  0  0  0  0  0  0  0  0  0
  -22.1070  -27.1592   21.1902 N   0  0  0  0  0  0  0  0  0  0  0  0
  -25.9286  -14.6896   22.3532 N   0  0  0  0  0  0  0  0  0  0  0  0
  -22.7148  -11.7396   23.5216 N   0  0  0  0  0  0  0  0  0  0  0  0
  -24.8090  -29.5540   21.7007 N   0  0  0  0  0  0  0  0  0  0  0  0
  -18.8342  -26.2998   21.2834 N   0  0  0  0  0  0  0  0  0  0  0  0
  -17.6782  -24.2493   18.5399 N   0  3  0  0  0  0  0  0  0  0  0  0
  -23.5963  -13.8082   23.9718 O   0  0  0  0  0  0  0  0  0  0  0  0
  -31.9266  -14.8996   19.9825 O   0  0  0  0  0  0  0  0  0  0  0  0
  -23.6926  -27.9896   23.0155 O   0  0  0  0  0  0  0  0  0  0  0  0
  -20.3776  -28.7118   21.3772 O   0  0  0  0  0  0  0  0  0  0  0  0
  -19.3937  -24.1098   20.7657 O   0  0  0  0  0  0  0  0  0  0  0  0
  -27.8084  -17.1731   19.2315 O   0  0  0  0  0  0  0  0  0  0  0  0
  -21.8268   -6.7495   21.2095 O   0  0  0  0  0  0  0  0  0  0  0  0
  -25.9763  -22.4437   20.2711 O   0  0  0  0  0  0  0  0  0  1  0  0
  -20.6429   -4.2860   25.9984 F   0  0  0  0  0  0  0  0  0  0  0  0
  -20.3653   -8.0606   23.1557 F   0  0  0  0  0  0  0  0  0  0  0  0
  1  2  1  0  0  0  0
  1  7  2  0  0  0  0
  2  8  2  0  0  0  0
  3  6  1  0  0  0  0
  3 10  2  0  0  0  0
  4 11  2  0  0  0  0
  4 21  1  0  0  0  0
  5 12  1  0  0  0  0
  5 21  2  0  0  0  0
  6 22  2  0  0  0  0
  7 24  1  0  0  0  0
  8 26  1  0  0  0  0
  9 13  2  0  0  0  0
  9 25  1  0  0  0  0
 10 29  1  0  0  0  0
 11 30  1  0  0  0  0
 12 30  2  0  0  0  0
 13 31  1  0  0  0  0
 14 15  2  0  0  0  0
 14 32  1  0  0  0  0
 15 33  1  0  0  0  0
 16 22  1  0  0  0  0
 16 29  2  0  0  0  0
 17 27  1  0  0  0  0
 17 31  2  0  0  0  0
 18 28  1  0  0  0  0
 18 37  2  0  0  0  0
 19 33  2  0  0  0  0
 19 34  1  0  0  0  0
 20 28  2  0  0  0  0
 20 67  1  0  0  0  0
 21 35  1  0  0  0  0
 22 38  1  0  0  0  0
 23 35  1  0  0  0  0
 23 36  2  0  0  0  0
 23 39  1  0  0  0  0
 24 26  2  0  0  0  0
 24 44  1  0  0  0  0
 25 27  2  0  0  0  0
 25 45  1  0  0  0  0
 26 53  1  0  0  0  0
 27 46  1  0  0  0  0
 28 61  1  0  0  0  0
 29 67  1  0  0  0  0
 30 82  1  0  0  0  0
 31 83  1  0  0  0  0
 32 34  2  0  0  0  0
 32 82  1  0  0  0  0
 33 84  1  0  0  0  0
 34 85  1  0  0  0  0
 35 65  2  0  0  0  0
 36 68  1  0  0  0  0
 36 71  1  0  0  0  0
 37 67  1  0  0  0  0
 37 81  1  0  0  0  0
 38 40  1  0  0  0  0
 38 66  2  0  0  0  0
 39 72  1  0  0  0  0
 39 76  2  0  0  0  0
 40 69  1  0  0  0  0
 40 77  2  0  0  0  0
 41 54  1  0  0  0  0
 41 73  1  0  0  0  0
 41 78  2  0  0  0  0
 42 62  1  0  0  0  0
 42 70  1  0  0  0  0
 42 79  2  0  0  0  0
 43 63  1  0  0  0  0
 43 74  1  0  0  0  0
 43 80  2  0  0  0  0
 44 47  1  0  0  0  0
 45 54  1  0  0  0  0
 46 70  1  0  0  0  0
 47 49  1  0  0  0  0
 48 50  1  0  0  0  0
 48 51  1  0  0  0  0
 49 53  1  0  0  0  0
 50 55  1  0  0  0  0
 51 69  1  0  0  0  0
 52 55  1  0  0  0  0
 52 69  1  0  0  0  0
 53 73  1  0  0  0  0
 54 70  1  0  0  0  0
 55 68  1  0  0  0  0
 56 63  1  0  0  0  0
 57 64  1  0  0  0  0
 58 64  1  0  0  0  0
 59 64  1  0  0  0  0
 60 75  1  0  0  0  0
 61 83  1  0  0  0  0
 62 64  1  0  0  0  0
 62 74  1  0  0  0  0
 63 75  1  0  0  0  0
 65 68  1  0  0  0  0
M  CHG  1  75   1
M  ISO  4  38 100  40 100  61 101  83 101
M  END
> <Batch ID>
0087

> <Smiles>
CNC(C)C(=O)NC(C(=O)N1Cc2cc([101O:1][101CH2:1]C3=CN(c4cccc([100C:0](=N)[100C:0](=O)N5CCCC(n6nc(-c7ccc(Oc8ccc(F)cc8F)cc7)c(C(N)=O)c6N)C5)c4)C(=O)C3)ccc2CC1C(=O)NC1CCCc2ccccc21)C(C)(C)C

> <Shape>
0.325

> <Color>
0.119

> <Negative vol penalty>
0.000

$$$$

  -OEChem-04052300203D

 84 93  0     1  0  0  0  0  0999 V2000
  -28.4867  -38.1817   21.4592 C   0  0  0  0  0  0  0  0  0  0  0  0
  -28.6506  -37.0945   20.6069 C   0  0  0  0  0  0  0  0  0  0  0  0
  -22.9486   -9.6365   23.0678 C   0  0  0  0  0  0  0  0  0  0  0  0
  -23.5673   -9.7789   20.7367 C   0  0  0  0  0  0  0  0  0  0  0  0
  -28.1286  -37.9744   22.7907 C   0  0  0  0  0  0  0  0  0  0  0  0
  -28.4576  -35.7992   21.0858 C   0  0  0  0  0  0  0  0  0  0  0  0
  -26.1357  -29.3572   18.9820 C   0  0  0  0  0  0  0  0  0  0  0  0
  -22.2962   -8.4287   22.8209 C   0  0  0  0  0  0  0  0  0  0  0  0
  -22.9150   -8.5709   20.4898 C   0  0  0  0  0  0  0  0  0  0  0  0
  -26.5351  -28.0216   18.9635 C   0  0  0  0  0  0  0  0  0  0  0  0
  -23.1427   -5.1845   22.3831 C   0  0  0  0  0  0  0  0  0  0  0  0
  -23.3563   -4.1373   23.2794 C   0  0  0  0  0  0  0  0  0  0  0  0
  -25.8408  -27.7884   21.2619 C   0  0  0  0  0  0  0  0  0  0  0  0
  -27.1927  -20.2263   20.3009 C   0  0  0  0  0  0  0  0  0  0  0  0
  -20.9918   -4.0769   23.7724 C   0  0  0  0  0  0  0  0  0  0  0  0
  -28.5730  -18.3668   20.1031 C   0  0  0  0  0  0  0  0  0  0  0  0
  -23.5841  -10.3117   22.0257 C   0  0  0  0  0  0  0  0  0  0  0  0
  -25.6046  -11.7392   22.6482 C   0  0  0  0  0  0  0  0  0  0  0  0
  -27.9217  -36.6765   23.2837 C   0  0  0  0  0  0  0  0  0  0  0  0
  -25.5950  -29.9224   20.1459 C   0  0  0  0  0  0  0  0  0  0  0  0
  -28.0977  -35.5743   22.4255 C   0  0  0  0  0  0  0  0  0  0  0  0
  -25.4329  -29.1307   21.2918 C   0  0  0  0  0  0  0  0  0  0  0  0
  -27.2920  -18.8060   20.3553 C   0  0  0  0  0  0  0  0  0  0  0  0
  -22.2794   -7.8958   21.5319 C   0  0  0  0  0  0  0  0  0  0  0  0
  -26.3904  -27.2377   20.1045 C   0  0  0  0  0  0  0  0  0  0  0  0
  -21.8536   -5.6779   22.1815 C   0  0  0  0  0  0  0  0  0  0  0  0
  -22.2809   -3.5835   23.9741 C   0  0  0  0  0  0  0  0  0  0  0  0
  -20.7782   -5.1241   22.8761 C   0  0  0  0  0  0  0  0  0  0  0  0
  -24.2578  -11.5598   22.2800 C   0  0  0  0  0  0  0  0  0  0  0  0
  -25.7492  -13.0997   22.7688 C   0  0  0  0  0  0  0  0  0  0  0  0
  -28.4018  -20.8187   20.0094 C   0  0  0  0  0  0  0  0  0  0  0  0
  -28.5826  -24.4189   19.7817 C   0  0  0  0  0  0  0  0  0  0  0  0
  -29.9808  -24.0656   19.4999 C   0  0  0  0  0  0  0  0  0  0  0  0
  -27.8052  -23.1847   20.0138 C   0  0  0  0  0  0  0  0  0  0  0  0
  -28.0915  -25.6575   19.8221 C   0  0  0  0  0  0  0  0  0  1  0  0
  -26.6330  -10.7634   22.8621 C   0  0  0  0  0  0  0  0  0  0  0  0
  -26.4411  -32.2883   22.0927 C   0  0  0  0  0  0  0  0  0  0  0  0
  -23.5669  -31.6674   23.4625 C   0  0  0  0  0  0  0  0  0  0  0  0
  -21.0501  -29.4336   24.0299 C   0  0  0  0  0  0  0  0  0  0  0  0
  -24.8906  -18.2740   20.9001 C   0  0  0  0  0  0  0  0  0  0  0  0
  -27.5817  -36.4997   24.7424 C   0  0  0  0  0  0  0  0  0  0  0  0
  -25.1443  -31.3574   20.1414 C   0  0  0  0  0  0  0  0  0  0  0  0
  -24.8392  -29.6842   22.5606 C   0  0  0  0  0  0  0  0  0  0  0  0
  -30.1153  -22.5722   19.5484 C   0  0  0  0  0  0  0  0  0  0  0  0
  -27.0302  -35.1159   25.0759 C   0  0  0  0  0  0  0  0  0  0  0  0
  -22.2840  -16.7891   22.8178 C   0  0  0  0  0  0  0  0  0  0  0  0
  -27.8852  -34.0305   24.4297 C   0  0  0  0  0  0  0  0  0  0  0  0
  -22.6759  -15.3110   22.8791 C   0  0  0  0  0  0  0  0  0  0  0  0
  -22.6298  -17.4120   21.4664 C   0  0  0  0  0  0  0  0  0  0  0  0
  -24.4149  -15.7542   21.0997 C   0  0  0  0  0  0  0  0  0  0  0  0
  -27.8731  -34.1555   22.9014 C   0  0  1  0  0  0  0  0  0  0  0  0
  -25.0819  -31.9684   21.5379 C   0  0  1  0  0  0  0  0  0  0  0  0
  -24.1453  -15.1000   22.4646 C   0  0  2  0  0  0  0  0  0  0  0  0
  -18.8510  -29.2032   25.2167 C   0  0  0  0  0  0  0  0  0  0  0  0
  -25.0344  -31.3972   26.1240 C   0  0  0  0  0  0  0  0  0  0  0  0
  -23.0042  -30.2606   27.0484 C   0  0  0  0  0  0  0  0  0  0  0  0
  -22.8568  -32.6203   26.2528 C   0  0  0  0  0  0  0  0  0  0  0  0
  -19.6058  -28.9192   21.4984 C   0  0  0  0  0  0  0  0  0  0  0  0
  -23.0817  -30.7540   24.5621 C   0  0  1  0  0  0  0  0  0  0  0  0
  -19.5423  -29.5633   23.9108 C   0  0  2  0  0  0  0  0  0  0  0  0
  -23.5073  -31.2478   25.9737 C   0  0  0  0  0  0  0  0  0  0  0  0
  -23.5941  -12.7140   22.1738 N   0  0  0  0  0  0  0  0  0  0  0  0
  -24.5277  -13.6317   22.4772 N   0  0  0  0  0  0  0  0  0  0  0  0
  -28.7426  -22.1379   19.8668 N   0  0  0  0  0  0  0  0  0  0  0  0
  -24.4195  -31.0944   22.5082 N   0  0  0  0  0  0  0  0  0  0  0  0
  -24.0383  -17.1759   21.1419 N   0  0  0  0  0  0  0  0  0  0  0  0
  -26.8008  -13.8809   23.0949 N   0  0  0  0  0  0  0  0  0  0  0  0
  -26.3139   -9.4088   22.6954 N   0  0  0  0  0  0  0  0  0  0  0  0
  -26.2150  -17.9282   20.6337 N   0  0  0  0  0  0  0  0  0  0  0  0
  -26.6378  -33.6295   22.3611 N   0  0  0  0  0  0  0  0  0  0  0  0
  -21.6393  -30.6293   24.3824 N   0  0  0  0  0  0  0  0  0  0  0  0
  -19.0275  -28.6610   22.8422 N   0  3  0  0  0  0  0  0  0  0  0  0
  -30.8810  -24.8534   19.2655 O   0  0  0  0  0  0  0  0  0  0  0  0
  -26.6151  -23.1321   20.2728 O   0  0  0  0  0  0  0  0  0  0  0  0
  -27.7961  -11.0821   23.2072 O   0  0  0  0  0  0  0  0  0  0  0  0
  -27.2508  -31.3850   22.2660 O   0  0  0  0  0  0  0  0  0  0  0  0
  -23.1973  -32.8442   23.4466 O   0  0  0  0  0  0  0  0  0  0  0  0
  -21.6452  -28.3763   23.8337 O   0  0  0  0  0  0  0  0  0  0  0  0
  -24.4821  -19.4368   20.9541 O   0  0  0  0  0  0  0  0  0  0  0  0
  -21.6431   -6.7171   21.2907 O   0  0  0  0  0  0  0  0  0  0  0  0
  -26.7800  -25.9340   20.0893 O   0  0  0  0  0  0  0  0  0  1  0  0
  -22.4860   -2.5769   24.8336 F   0  0  0  0  0  0  0  0  0  0  0  0
  -19.5375   -5.5932   22.6857 F   0  0  0  0  0  0  0  0  0  0  0  0
  -29.6495  -19.6642   19.8024 S   0  0  0  0  0  0  0  0  0  0  0  0
  1  2  1  0  0  0  0
  1  5  2  0  0  0  0
  2  6  2  0  0  0  0
  3  8  2  0  0  0  0
  3 17  1  0  0  0  0
  4  9  1  0  0  0  0
  4 17  2  0  0  0  0
  5 19  1  0  0  0  0
  6 21  1  0  0  0  0
  7 10  2  0  0  0  0
  7 20  1  0  0  0  0
  8 24  1  0  0  0  0
  9 24  2  0  0  0  0
 10 25  1  0  0  0  0
 11 12  2  0  0  0  0
 11 26  1  0  0  0  0
 12 27  1  0  0  0  0
 13 22  1  0  0  0  0
 13 25  2  0  0  0  0
 14 23  1  0  0  0  0
 14 31  2  0  0  0  0
 15 27  2  0  0  0  0
 15 28  1  0  0  0  0
 16 23  2  0  0  0  0
 16 84  1  0  0  0  0
 17 29  1  0  0  0  0
 18 29  1  0  0  0  0
 18 30  2  0  0  0  0
 18 36  1  0  0  0  0
 19 21  2  0  0  0  0
 19 41  1  0  0  0  0
 20 22  2  0  0  0  0
 20 42  1  0  0  0  0
 21 51  1  0  0  0  0
 22 43  1  0  0  0  0
 23 69  1  0  0  0  0
 24 80  1  0  0  0  0
 25 81  1  0  0  0  0
 26 28  2  0  0  0  0
 26 80  1  0  0  0  0
 27 82  1  0  0  0  0
 28 83  1  0  0  0  0
 29 62  2  0  0  0  0
 30 63  1  0  0  0  0
 30 67  1  0  0  0  0
 31 64  1  0  0  0  0
 31 84  1  0  0  0  0
 32 33  1  0  0  0  0
 32 34  1  0  0  0  0
 32 35  2  0  0  0  0
 33 44  1  0  0  0  0
 33 73  2  0  0  0  0
 34 64  1  0  0  0  0
 34 74  2  0  0  0  0
 35 81  1  0  0  0  0
 36 68  1  0  0  0  0
 36 75  2  0  0  0  0
 37 52  1  0  0  0  0
 37 70  1  0  0  0  0
 37 76  2  0  0  0  0
 38 59  1  0  0  0  0
 38 65  1  0  0  0  0
 38 77  2  0  0  0  0
 39 60  1  0  0  0  0
 39 71  1  0  0  0  0
 39 78  2  0  0  0  0
 40 66  1  0  0  0  0
 40 69  1  0  0  0  0
 40 79  2  0  0  0  0
 41 45  1  0  0  0  0
 42 52  1  0  0  0  0
 43 65  1  0  0  0  0
 44 64  1  0  0  0  0
 45 47  1  0  0  0  0
 46 48  1  0  0  0  0
 46 49  1  0  0  0  0
 47 51  1  0  0  0  0
 48 53  1  0  0  0  0
 49 66  1  0  0  0  0
 50 53  1  0  0  0  0
 50 66  1  0  0  0  0
 51 70  1  0  0  0  0
 52 65  1  0  0  0  0
 53 63  1  0  0  0  0
 54 60  1  0  0  0  0
 55 61  1  0  0  0  0
 56 61  1  0  0  0  0
 57 61  1  0  0  0  0
 58 72  1  0  0  0  0
 59 61  1  0  0  0  0
 59 71  1  0  0  0  0
 60 72  1  0  0  0  0
 62 63  1  0  0  0  0
M  CHG  1  72   1
M  ISO  4  35 101  40 100  69 100  81 101
M  END
> <Batch ID>
0087

> <Smiles>
CNC(C)C(=O)NC(C(=O)N1Cc2cc([101O:1][101CH:1]=C3C(=O)CN(c4cc([100NH:0][100C:0](=O)N5CCCC(n6nc(-c7ccc(Oc8ccc(F)cc8F)cc7)c(C(N)=O)c6N)C5)cs4)C3=O)ccc2CC1C(=O)NC1CCCc2ccccc21)C(C)(C)C

> <Shape>
0.274

> <Color>
0.095

> <Negative vol penalty>
0.000

$$$$

  -OEChem-04052300203D

 84 93  0     1  0  0  0  0  0999 V2000
  -16.5616  -29.1082   23.8360 C   0  0  0  0  0  0  0  0  0  0  0  0
  -17.4910  -28.1010   24.0752 C   0  0  0  0  0  0  0  0  0  0  0  0
  -32.1328  -18.5587   22.5941 C   0  0  0  0  0  0  0  0  0  0  0  0
  -23.2563   -9.6360   20.6569 C   0  0  0  0  0  0  0  0  0  0  0  0
  -23.8313  -10.2999   22.9076 C   0  0  0  0  0  0  0  0  0  0  0  0
  -16.9744  -30.3184   23.2801 C   0  0  0  0  0  0  0  0  0  0  0  0
  -18.8336  -28.3030   23.7575 C   0  0  0  0  0  0  0  0  0  0  0  0
  -23.6986  -26.1463   26.7885 C   0  0  0  0  0  0  0  0  0  0  0  0
  -31.2361  -19.5338   23.0309 C   0  0  0  0  0  0  0  0  0  0  0  0
  -31.6631  -17.4296   21.9232 C   0  0  0  0  0  0  0  0  0  0  0  0
  -22.5532   -8.5412   21.1594 C   0  0  0  0  0  0  0  0  0  0  0  0
  -23.1283   -9.2050   23.4102 C   0  0  0  0  0  0  0  0  0  0  0  0
  -24.5264  -25.0456   26.5718 C   0  0  0  0  0  0  0  0  0  0  0  0
  -19.9063   -8.3737   24.0002 C   0  0  0  0  0  0  0  0  0  0  0  0
  -19.0621   -8.5918   25.0890 C   0  0  0  0  0  0  0  0  0  0  0  0
  -26.1010  -26.4643   25.4199 C   0  0  0  0  0  0  0  0  0  0  0  0
  -29.3999  -18.2505   22.1261 C   0  0  0  0  0  0  0  0  0  0  0  0
  -20.3363   -7.0075   26.3942 C   0  0  0  0  0  0  0  0  0  0  0  0
  -23.8954  -10.5154   21.5310 C   0  0  0  0  0  0  0  0  0  0  0  0
  -24.1197  -12.9368   20.7604 C   0  0  0  0  0  0  0  0  0  0  0  0
  -18.3244  -30.5389   22.9645 C   0  0  0  0  0  0  0  0  0  0  0  0
  -24.0612  -27.4143   26.3122 C   0  0  0  0  0  0  0  0  0  0  0  0
  -19.2647  -29.5168   23.1957 C   0  0  0  0  0  0  0  0  0  0  0  0
  -25.2773  -27.5799   25.6341 C   0  0  0  0  0  0  0  0  0  0  0  0
  -29.8697  -19.3796   22.7969 C   0  0  0  0  0  0  0  0  0  0  0  0
  -30.2966  -17.2754   21.6892 C   0  0  0  0  0  0  0  0  0  0  0  0
  -22.4892   -8.3256   22.5361 C   0  0  0  0  0  0  0  0  0  0  0  0
  -25.7264  -25.2039   25.8849 C   0  0  0  0  0  0  0  0  0  0  0  0
  -20.9654   -7.4724   24.1084 C   0  0  0  0  0  0  0  0  0  0  0  0
  -19.2771   -7.9087   26.2860 C   0  0  0  0  0  0  0  0  0  0  0  0
  -21.1804   -6.7893   25.3054 C   0  0  0  0  0  0  0  0  0  0  0  0
  -24.6223  -11.6462   21.0125 C   0  0  0  0  0  0  0  0  0  0  0  0
  -25.1985  -13.6375   20.2790 C   0  0  0  0  0  0  0  0  0  0  0  0
  -26.8718  -21.5759   22.9976 C   0  0  0  0  0  0  0  0  0  0  0  0
  -27.7581  -20.6522   22.5998 C   0  0  0  0  0  0  0  0  0  0  0  0
  -27.0902  -22.3287   24.2169 C   0  0  0  0  0  0  0  0  0  0  0  0
  -26.3520  -23.4033   24.5295 C   0  0  0  0  0  0  0  0  0  1  0  0
  -22.7960  -13.4560   20.9450 C   0  0  0  0  0  0  0  0  0  0  0  0
  -22.8080  -29.4759   24.2426 C   0  0  0  0  0  0  0  0  0  0  0  0
  -25.2096  -31.3885   25.2898 C   0  0  0  0  0  0  0  0  0  0  0  0
  -28.2975  -31.6413   26.7208 C   0  0  0  0  0  0  0  0  0  0  0  0
  -30.5751  -15.0665   20.5105 C   0  0  0  0  0  0  0  0  0  0  0  0
  -18.7154  -31.8459   22.3214 C   0  0  0  0  0  0  0  0  0  0  0  0
  -23.1699  -28.5965   26.5775 C   0  0  0  0  0  0  0  0  0  0  0  0
  -25.7221  -28.9239   25.1201 C   0  0  0  0  0  0  0  0  0  0  0  0
  -28.1867  -21.8094   25.1168 C   0  0  0  0  0  0  0  0  0  0  0  0
  -20.2168  -32.1188   22.3605 C   0  0  0  0  0  0  0  0  0  0  0  0
  -29.7726  -12.0427   18.8105 C   0  0  0  0  0  0  0  0  0  0  0  0
  -20.9961  -30.8789   21.9338 C   0  0  0  0  0  0  0  0  0  0  0  0
  -28.3198  -11.7762   19.2111 C   0  0  0  0  0  0  0  0  0  0  0  0
  -29.3951  -21.2569   24.3411 C   0  0  0  0  0  0  0  0  0  0  0  0
  -30.5774  -12.6428   19.9620 C   0  0  0  0  0  0  0  0  0  0  0  0
  -28.5337  -13.5726   20.9758 C   0  0  0  0  0  0  0  0  0  0  0  0
  -20.7340  -29.7072   22.8876 C   0  0  1  0  0  0  0  0  0  0  0  0
  -23.3945  -29.7456   25.5994 C   0  0  1  0  0  0  0  0  0  0  0  0
  -27.6667  -13.0282   19.8287 C   0  0  2  0  0  0  0  0  0  0  0  0
  -30.0148  -33.3349   27.4138 C   0  0  0  0  0  0  0  0  0  0  0  0
  -26.0203  -31.7571   22.3714 C   0  0  0  0  0  0  0  0  0  0  0  0
  -28.2266  -32.6327   23.1675 C   0  0  0  0  0  0  0  0  0  0  0  0
  -26.1231  -33.8388   23.7536 C   0  0  0  0  0  0  0  0  0  0  0  0
  -28.1341  -30.8171   29.5585 C   0  0  0  0  0  0  0  0  0  0  0  0
  -26.6403  -31.6324   24.8746 C   0  0  1  0  0  0  0  0  0  0  0  0
  -28.8149  -32.5101   27.8530 C   0  0  2  0  0  0  0  0  0  0  0  0
  -26.7436  -32.4394   23.5497 C   0  0  0  0  0  0  0  0  0  0  0  0
  -25.9194  -11.5310   20.7155 N   0  0  0  0  0  0  0  0  0  0  0  0
  -26.2410  -12.7581   20.2719 N   0  0  0  0  0  0  0  0  0  0  0  0
  -28.9577  -20.3721   23.2409 N   0  0  0  0  0  0  0  0  0  0  0  0
  -24.8131  -30.0480   25.3989 N   0  0  0  0  0  0  0  0  0  0  0  0
  -29.9003  -13.8274   20.4941 N   0  0  0  0  0  0  0  0  0  0  0  0
  -25.3476  -14.9138   19.8652 N   0  0  0  0  0  0  0  0  0  0  0  0
  -21.8071  -12.6004   21.4493 N   0  0  0  0  0  0  0  0  0  0  0  0
  -29.8199  -16.1277   21.0087 N   0  0  0  0  0  0  0  0  0  0  0  0
  -21.4907  -29.8717   24.1102 N   0  0  0  0  0  0  0  0  0  0  0  0
  -27.2932  -32.2682   26.0139 N   0  0  0  0  0  0  0  0  0  0  0  0
  -29.2241  -31.6641   29.0096 N   0  3  0  0  0  0  0  0  0  0  0  0
  -22.4951  -14.6388   20.6555 O   0  0  0  0  0  0  0  0  0  0  0  0
  -23.4999  -28.9490   23.3792 O   0  0  0  0  0  0  0  0  0  0  0  0
  -24.4729  -32.3517   25.5161 O   0  0  0  0  0  0  0  0  0  0  0  0
  -28.7425  -30.5203   26.4845 O   0  0  0  0  0  0  0  0  0  0  0  0
  -31.7278  -15.1834   20.0867 O   0  0  0  0  0  0  0  0  0  0  0  0
  -21.8030   -7.2575   23.0268 O   0  0  0  0  0  0  0  0  0  0  0  0
  -26.5360  -24.1311   25.6714 O   0  0  0  0  0  0  0  0  0  1  0  0
  -18.4674   -8.1194   27.3320 F   0  0  0  0  0  0  0  0  0  0  0  0
  -22.1969   -5.9231   25.4157 F   0  0  0  0  0  0  0  0  0  0  0  0
  1  2  1  0  0  0  0
  1  6  2  0  0  0  0
  2  7  2  0  0  0  0
  3  9  2  0  0  0  0
  3 10  1  0  0  0  0
  4 11  2  0  0  0  0
  4 19  1  0  0  0  0
  5 12  1  0  0  0  0
  5 19  2  0  0  0  0
  6 21  1  0  0  0  0
  7 23  1  0  0  0  0
  8 13  2  0  0  0  0
  8 22  1  0  0  0  0
  9 25  1  0  0  0  0
 10 26  2  0  0  0  0
 11 27  1  0  0  0  0
 12 27  2  0  0  0  0
 13 28  1  0  0  0  0
 14 15  2  0  0  0  0
 14 29  1  0  0  0  0
 15 30  1  0  0  0  0
 16 24  1  0  0  0  0
 16 28  2  0  0  0  0
 17 25  2  0  0  0  0
 17 26  1  0  0  0  0
 18 30  2  0  0  0  0
 18 31  1  0  0  0  0
 19 32  1  0  0  0  0
 20 32  1  0  0  0  0
 20 33  2  0  0  0  0
 20 38  1  0  0  0  0
 21 23  2  0  0  0  0
 21 43  1  0  0  0  0
 22 24  2  0  0  0  0
 22 44  1  0  0  0  0
 23 54  1  0  0  0  0
 24 45  1  0  0  0  0
 25 67  1  0  0  0  0
 26 72  1  0  0  0  0
 27 81  1  0  0  0  0
 28 82  1  0  0  0  0
 29 31  2  0  0  0  0
 29 81  1  0  0  0  0
 30 83  1  0  0  0  0
 31 84  1  0  0  0  0
 32 65  2  0  0  0  0
 33 66  1  0  0  0  0
 33 70  1  0  0  0  0
 34 35  2  0  0  0  0
 34 36  1  0  0  0  0
 35 67  1  0  0  0  0
 36 37  2  0  0  0  0
 36 46  1  0  0  0  0
 37 82  1  0  0  0  0
 38 71  1  0  0  0  0
 38 76  2  0  0  0  0
 39 55  1  0  0  0  0
 39 73  1  0  0  0  0
 39 77  2  0  0  0  0
 40 62  1  0  0  0  0
 40 68  1  0  0  0  0
 40 78  2  0  0  0  0
 41 63  1  0  0  0  0
 41 74  1  0  0  0  0
 41 79  2  0  0  0  0
 42 69  1  0  0  0  0
 42 72  1  0  0  0  0
 42 80  2  0  0  0  0
 43 47  1  0  0  0  0
 44 55  1  0  0  0  0
 45 68  1  0  0  0  0
 46 51  1  0  0  0  0
 47 49  1  0  0  0  0
 48 50  1  0  0  0  0
 48 52  1  0  0  0  0
 49 54  1  0  0  0  0
 50 56  1  0  0  0  0
 51 67  1  0  0  0  0
 52 69  1  0  0  0  0
 53 56  1  0  0  0  0
 53 69  1  0  0  0  0
 54 73  1  0  0  0  0
 55 68  1  0  0  0  0
 56 66  1  0  0  0  0
 57 63  1  0  0  0  0
 58 64  1  0  0  0  0
 59 64  1  0  0  0  0
 60 64  1  0  0  0  0
 61 75  1  0  0  0  0
 62 64  1  0  0  0  0
 62 74  1  0  0  0  0
 63 75  1  0  0  0  0
 65 66  1  0  0  0  0
M  CHG  1  75   1
M  ISO  4  37 101  42 100  72 100  82 101
M  END
> <Batch ID>
0087

> <Smiles>
CNC(C)C(=O)NC(C(=O)N1Cc2cc([101O:1][101CH:1]=C3C=CN(c4cccc([100NH:0][100C:0](=O)N5CCCC(n6nc(-c7ccc(Oc8ccc(F)cc8F)cc7)c(C(N)=O)c6N)C5)c4)CC3)ccc2CC1C(=O)NC1CCCc2ccccc21)C(C)(C)C

> <Shape>
0.286

> <Color>
0.201

> <Negative vol penalty>
0.000

$$$$

  -OEChem-04052300203D

 89 98  0     1  0  0  0  0  0999 V2000
  -33.5828  -29.2234   17.5328 C   0  0  0  0  0  0  0  0  0  0  0  0
  -32.5423  -28.5120   18.1217 C   0  0  0  0  0  0  0  0  0  0  0  0
  -23.0790  -10.4822   20.7483 C   0  0  0  0  0  0  0  0  0  0  0  0
  -24.4461   -9.1534   22.2324 C   0  0  0  0  0  0  0  0  0  0  0  0
  -27.2694  -18.4358   20.4683 C   0  0  0  0  0  0  0  0  0  0  0  0
  -34.0091  -30.4260   18.0948 C   0  0  0  0  0  0  0  0  0  0  0  0
  -31.9282  -29.0024   19.2736 C   0  0  0  0  0  0  0  0  0  0  0  0
  -26.8781  -28.6892   19.0665 C   0  0  0  0  0  0  0  0  0  0  0  0
  -26.5083  -19.4403   21.0660 C   0  0  0  0  0  0  0  0  0  0  0  0
  -22.1424   -9.4504   20.6872 C   0  0  0  0  0  0  0  0  0  0  0  0
  -23.5094   -8.1216   22.1713 C   0  0  0  0  0  0  0  0  0  0  0  0
  -26.3074  -27.4393   19.3031 C   0  0  0  0  0  0  0  0  0  0  0  0
  -20.5132   -7.3945   23.5549 C   0  0  0  0  0  0  0  0  0  0  0  0
  -20.1547   -6.7750   24.7521 C   0  0  0  0  0  0  0  0  0  0  0  0
  -25.8039  -28.1044   21.5666 C   0  0  0  0  0  0  0  0  0  0  0  0
  -27.9873  -21.1116   20.1404 C   0  0  0  0  0  0  0  0  0  0  0  0
  -20.9453   -4.6594   23.8940 C   0  0  0  0  0  0  0  0  0  0  0  0
  -24.2309  -10.3337   21.5209 C   0  0  0  0  0  0  0  0  0  0  0  0
  -28.3895  -18.7692   19.7067 C   0  0  0  0  0  0  0  0  0  0  0  0
  -25.2335  -12.4629   22.5051 C   0  0  0  0  0  0  0  0  0  0  0  0
  -33.3935  -30.9363   19.2486 C   0  0  0  0  0  0  0  0  0  0  0  0
  -26.9258  -29.6538   20.0832 C   0  0  0  0  0  0  0  0  0  0  0  0
  -32.3476  -30.2124   19.8523 C   0  0  0  0  0  0  0  0  0  0  0  0
  -26.3734  -29.3666   21.3395 C   0  0  0  0  0  0  0  0  0  0  0  0
  -26.8672  -20.7782   20.9020 C   0  0  0  0  0  0  0  0  0  0  0  0
  -28.7484  -20.1070   19.5427 C   0  0  0  0  0  0  0  0  0  0  0  0
  -22.3576   -8.2701   21.3987 C   0  0  0  0  0  0  0  0  0  0  0  0
  -25.7728  -27.1457   20.5541 C   0  0  0  0  0  0  0  0  0  0  0  0
  -21.0877   -6.6465   22.5272 C   0  0  0  0  0  0  0  0  0  0  0  0
  -20.3708   -5.4075   24.9217 C   0  0  0  0  0  0  0  0  0  0  0  0
  -21.3038   -5.2790   22.6968 C   0  0  0  0  0  0  0  0  0  0  0  0
  -25.1991  -11.3989   21.5839 C   0  0  0  0  0  0  0  0  0  0  0  0
  -26.3384  -13.1944   22.1436 C   0  0  0  0  0  0  0  0  0  0  0  0
  -25.2937  -23.9401   22.1048 C   0  0  0  0  0  0  0  0  0  0  0  0
  -24.4540  -23.0401   22.6287 C   0  0  0  0  0  0  0  0  0  0  0  0
  -26.3635  -23.1919   21.4114 C   0  0  0  0  0  0  0  0  0  0  0  0
  -29.1719  -17.6842   19.0884 C   0  0  0  0  0  0  0  0  0  0  0  0
  -24.3462  -12.7631   23.5906 C   0  0  0  0  0  0  0  0  0  0  0  0
  -29.2526  -31.1707   21.6286 C   0  0  0  0  0  0  0  0  0  0  0  0
  -26.7818  -32.8206   22.9307 C   0  0  0  0  0  0  0  0  0  0  0  0
  -23.4689  -32.9128   23.7450 C   0  0  0  0  0  0  0  0  0  0  0  0
  -29.4198  -15.5955   18.1571 C   0  0  0  0  0  0  0  0  0  0  0  0
  -33.9204  -32.2167   19.8467 C   0  0  0  0  0  0  0  0  0  0  0  0
  -27.5207  -31.0067   19.8039 C   0  0  0  0  0  0  0  0  0  0  0  0
  -26.3813  -30.3748   22.4585 C   0  0  0  0  0  0  0  0  0  0  0  0
  -32.9678  -32.8556   20.8540 C   0  0  0  0  0  0  0  0  0  0  0  0
  -30.0960  -12.1401   18.9368 C   0  0  0  0  0  0  0  0  0  0  0  0
  -32.4367  -31.8068   21.8260 C   0  0  0  0  0  0  0  0  0  0  0  0
  -28.8664  -11.7189   19.7413 C   0  0  0  0  0  0  0  0  0  0  0  0
  -29.7340  -13.1406   17.8434 C   0  0  0  0  0  0  0  0  0  0  0  0
  -27.7829  -13.9324   19.1531 C   0  0  0  0  0  0  0  0  0  0  0  0
  -31.6399  -30.7241   21.0882 C   0  0  1  0  0  0  0  0  0  0  0  0
  -27.9768  -31.7312   21.0667 C   0  0  1  0  0  0  0  0  0  0  0  0
  -28.1150  -12.9466   20.2863 C   0  0  1  0  0  0  0  0  0  0  0  0
  -24.8802  -21.5976   22.3542 C   0  0  0  0  0  0  0  0  0  0  0  0
  -23.2180  -23.3529   23.4159 C   0  0  0  0  0  0  0  0  0  0  0  0
  -25.2056  -20.9425   23.7093 C   0  0  0  0  0  0  0  0  0  0  0  0
  -23.7416  -20.8905   21.5990 C   0  0  0  0  0  0  0  0  0  0  0  0
  -21.7484  -34.3788   24.8350 C   0  0  0  0  0  0  0  0  0  0  0  0
  -27.9127  -32.1050   25.6728 C   0  0  0  0  0  0  0  0  0  0  0  0
  -25.7091  -32.7482   26.6722 C   0  0  0  0  0  0  0  0  0  0  0  0
  -27.0764  -34.4532   25.4696 C   0  0  0  0  0  0  0  0  0  0  0  0
  -21.8538  -33.0559   21.2692 C   0  0  0  0  0  0  0  0  0  0  0  0
  -25.2868  -25.4249   22.1221 C   0  0  0  0  0  0  0  0  0  1  0  0
  -25.9027  -32.6472   24.1457 C   0  0  1  0  0  0  0  0  0  0  0  0
  -22.4067  -33.9748   23.5250 C   0  0  2  0  0  0  0  0  0  0  0  0
  -26.6516  -32.9685   25.4698 C   0  0  0  0  0  0  0  0  0  0  0  0
  -26.2022  -11.4466   20.7033 N   0  0  0  0  0  0  0  0  0  0  0  0
  -28.6242  -16.5694   18.7297 N   0  0  0  0  0  0  0  0  0  0  0  0
  -26.8774  -12.5494   21.0695 N   0  0  0  0  0  0  0  0  0  0  0  0
  -26.0783  -21.8182   21.5215 N   0  0  0  0  0  0  0  0  0  0  0  0
  -26.9799  -31.6811   22.1381 N   0  0  0  0  0  0  0  0  0  0  0  0
  -28.9925  -14.2760   18.3938 N   0  0  0  0  0  0  0  0  0  0  0  0
  -29.8799  -20.4656   18.7768 N   0  0  0  0  0  0  0  0  0  0  0  0
  -26.8918  -14.3199   22.6429 N   0  0  0  0  0  0  0  0  0  0  0  0
  -23.2610  -11.9071   23.8227 N   0  0  0  0  0  0  0  0  0  0  0  0
  -30.3191  -31.2101   20.7509 N   0  0  0  0  0  0  0  0  0  0  0  0
  -24.7195  -33.4686   23.9140 N   0  0  0  0  0  0  0  0  0  0  0  0
  -21.3500  -33.4676   22.6047 N   0  3  0  0  0  0  0  0  0  0  0  0
  -27.2923  -23.7754   20.8736 O   0  0  0  0  0  0  0  0  0  0  0  0
  -24.5015  -13.7699   24.3225 O   0  0  0  0  0  0  0  0  0  0  0  0
  -29.2686  -30.7361   22.7743 O   0  0  0  0  0  0  0  0  0  0  0  0
  -27.2687  -33.9280   22.6897 O   0  0  0  0  0  0  0  0  0  0  0  0
  -23.2141  -31.7107   23.7687 O   0  0  0  0  0  0  0  0  0  0  0  0
  -30.4245  -15.8368   17.4837 O   0  0  0  0  0  0  0  0  0  0  0  0
  -21.4437   -7.2632   21.3395 O   0  0  0  0  0  0  0  0  0  0  0  0
  -25.2158  -25.9263   20.7879 O   0  0  0  0  0  0  0  0  0  1  0  0
  -20.0279   -4.8130   26.0720 F   0  0  0  0  0  0  0  0  0  0  0  0
  -21.8564   -4.5553   21.7136 F   0  0  0  0  0  0  0  0  0  0  0  0
  1  2  1  0  0  0  0
  1  6  2  0  0  0  0
  2  7  2  0  0  0  0
  3 10  2  0  0  0  0
  3 18  1  0  0  0  0
  4 11  1  0  0  0  0
  4 18  2  0  0  0  0
  5  9  2  0  0  0  0
  5 19  1  0  0  0  0
  6 21  1  0  0  0  0
  7 23  1  0  0  0  0
  8 12  2  0  0  0  0
  8 22  1  0  0  0  0
  9 25  1  0  0  0  0
 10 27  1  0  0  0  0
 11 27  2  0  0  0  0
 12 28  1  0  0  0  0
 13 14  2  0  0  0  0
 13 29  1  0  0  0  0
 14 30  1  0  0  0  0
 15 24  1  0  0  0  0
 15 28  2  0  0  0  0
 16 25  2  0  0  0  0
 16 26  1  0  0  0  0
 17 30  2  0  0  0  0
 17 31  1  0  0  0  0
 18 32  1  0  0  0  0
 19 26  2  0  0  0  0
 19 37  1  0  0  0  0
 20 32  1  0  0  0  0
 20 33  2  0  0  0  0
 20 38  1  0  0  0  0
 21 23  2  0  0  0  0
 21 43  1  0  0  0  0
 22 24  2  0  0  0  0
 22 44  1  0  0  0  0
 23 52  1  0  0  0  0
 24 45  1  0  0  0  0
 25 71  1  0  0  0  0
 26 74  1  0  0  0  0
 27 86  1  0  0  0  0
 28 87  1  0  0  0  0
 29 31  2  0  0  0  0
 29 86  1  0  0  0  0
 30 88  1  0  0  0  0
 31 89  1  0  0  0  0
 32 68  2  0  0  0  0
 33 70  1  0  0  0  0
 33 75  1  0  0  0  0
 34 35  2  0  0  0  0
 34 36  1  0  0  0  0
 34 64  1  0  0  0  0
 35 55  1  0  0  0  0
 35 56  1  0  0  0  0
 36 71  1  0  0  0  0
 36 80  2  0  0  0  0
 37 69  2  0  0  0  0
 38 76  1  0  0  0  0
 38 81  2  0  0  0  0
 39 53  1  0  0  0  0
 39 77  1  0  0  0  0
 39 82  2  0  0  0  0
 40 65  1  0  0  0  0
 40 72  1  0  0  0  0
 40 83  2  0  0  0  0
 41 66  1  0  0  0  0
 41 78  1  0  0  0  0
 41 84  2  0  0  0  0
 42 69  1  0  0  0  0
 42 73  1  0  0  0  0
 42 85  2  0  0  0  0
 43 46  1  0  0  0  0
 44 53  1  0  0  0  0
 45 72  1  0  0  0  0
 46 48  1  0  0  0  0
 47 49  1  0  0  0  0
 47 50  1  0  0  0  0
 48 52  1  0  0  0  0
 49 54  1  0  0  0  0
 50 73  1  0  0  0  0
 51 54  1  0  0  0  0
 51 73  1  0  0  0  0
 52 77  1  0  0  0  0
 53 72  1  0  0  0  0
 54 70  1  0  0  0  0
 55 57  1  0  0  0  0
 55 58  1  0  0  0  0
 55 71  1  0  0  0  0
 59 66  1  0  0  0  0
 60 67  1  0  0  0  0
 61 67  1  0  0  0  0
 62 67  1  0  0  0  0
 63 79  1  0  0  0  0
 64 87  1  0  0  0  0
 65 67  1  0  0  0  0
 65 78  1  0  0  0  0
 66 79  1  0  0  0  0
 68 70  1  0  0  0  0
M  CHG  1  79   1
M  ISO  4  42 100  64 101  69 100  87 101
M  END
> <Batch ID>
0087

> <Smiles>
CNC(C)C(=O)NC(C(=O)N1Cc2cc([101O:1][101CH2:1]C3=C(C)C(C)(C)N(c4ccc(C=[100N:0][100C:0](=O)N5CCCC(n6nc(-c7ccc(Oc8ccc(F)cc8F)cc7)c(C(N)=O)c6N)C5)c(N)c4)C3=O)ccc2CC1C(=O)NC1CCCc2ccccc21)C(C)(C)C

> <Shape>
0.255

> <Color>
0.115

> <Negative vol penalty>
0.000

$$$$

  -OEChem-04052300203D

 85 94  0     1  0  0  0  0  0999 V2000
  -21.9656  -12.1930   19.0880 C   0  0  0  0  0  0  0  0  0  0  0  0
  -21.8028  -13.5169   19.4833 C   0  0  0  0  0  0  0  0  0  0  0  0
  -20.0405  -26.4231   26.1823 C   0  0  0  0  0  0  0  0  0  0  0  0
  -27.1290  -25.6491   17.3290 C   0  0  0  0  0  0  0  0  0  0  0  0
  -25.0968  -24.8416   18.3562 C   0  0  0  0  0  0  0  0  0  0  0  0
  -20.0616  -27.7022   25.6264 C   0  0  0  0  0  0  0  0  0  0  0  0
  -23.1633  -11.5300   19.3524 C   0  0  0  0  0  0  0  0  0  0  0  0
  -22.8372  -14.1782   20.1443 C   0  0  0  0  0  0  0  0  0  0  0  0
  -23.6100  -18.8526   18.3562 C   0  0  0  0  0  0  0  0  0  0  0  0
  -20.3381  -25.3137   25.3909 C   0  0  0  0  0  0  0  0  0  0  0  0
  -27.0897  -24.5918   16.4200 C   0  0  0  0  0  0  0  0  0  0  0  0
  -25.0574  -23.7843   17.4472 C   0  0  0  0  0  0  0  0  0  0  0  0
  -22.7223  -19.8462   18.7666 C   0  0  0  0  0  0  0  0  0  0  0  0
  -24.1513  -23.3024   14.2274 C   0  0  0  0  0  0  0  0  0  0  0  0
  -22.9262  -23.0104   13.6279 C   0  0  0  0  0  0  0  0  0  0  0  0
  -20.6778  -26.7625   23.4876 C   0  0  0  0  0  0  0  0  0  0  0  0
  -24.3319  -20.6027   20.3964 C   0  0  0  0  0  0  0  0  0  0  0  0
  -22.9966  -20.7858   14.5678 C   0  0  0  0  0  0  0  0  0  0  0  0
  -26.1326  -25.7739   18.2972 C   0  0  0  0  0  0  0  0  0  0  0  0
  -20.3802  -27.8719   24.2791 C   0  0  0  0  0  0  0  0  0  0  0  0
  -27.1935  -27.1525   20.1631 C   0  0  0  0  0  0  0  0  0  0  0  0
  -24.2165  -12.1866   20.0083 C   0  0  0  0  0  0  0  0  0  0  0  0
  -24.8632  -18.7195   18.9712 C   0  0  0  0  0  0  0  0  0  0  0  0
  -24.0497  -13.5230   20.4189 C   0  0  0  0  0  0  0  0  0  0  0  0
  -25.2347  -19.6082   19.9901 C   0  0  0  0  0  0  0  0  0  0  0  0
  -20.6567  -25.4834   24.0436 C   0  0  0  0  0  0  0  0  0  0  0  0
  -26.0539  -23.6595   16.4791 C   0  0  0  0  0  0  0  0  0  0  0  0
  -23.0820  -20.7196   19.7888 C   0  0  0  0  0  0  0  0  0  0  0  0
  -24.7992  -22.3361   14.9970 C   0  0  0  0  0  0  0  0  0  0  0  0
  -22.3488  -21.7521   13.7982 C   0  0  0  0  0  0  0  0  0  0  0  0
  -24.2218  -21.0778   15.1672 C   0  0  0  0  0  0  0  0  0  0  0  0
  -26.1730  -26.8655   19.2368 C   0  0  0  0  0  0  0  0  0  0  0  0
  -26.7589  -28.2812   20.8140 C   0  0  0  0  0  0  0  0  0  0  0  0
  -21.4687  -22.7969   22.1684 C   0  0  0  0  0  0  0  0  0  0  0  0
  -21.0057  -23.0611   23.5312 C   0  0  0  0  0  0  0  0  0  0  0  0
  -21.8023  -21.6817   21.4940 C   0  0  0  0  0  0  0  0  0  1  0  0
  -20.4023  -29.2348   23.6884 C   0  0  0  0  0  0  0  0  0  0  0  0
  -28.4243  -26.4608   20.4128 C   0  0  0  0  0  0  0  0  0  0  0  0
  -26.3069  -16.4392   20.6504 C   0  0  0  0  0  0  0  0  0  0  0  0
  -28.8486  -18.4450   20.4541 C   0  0  0  0  0  0  0  0  0  0  0  0
  -30.0003  -21.6295   20.0306 C   0  0  0  0  0  0  0  0  0  0  0  0
  -21.3838  -30.5908   21.8658 C   0  0  0  0  0  0  0  0  0  0  0  0
  -25.4752  -11.4140   20.3142 C   0  0  0  0  0  0  0  0  0  0  0  0
  -25.8200  -17.6595   18.4987 C   0  0  0  0  0  0  0  0  0  0  0  0
  -26.5764  -19.5203   20.6689 C   0  0  0  0  0  0  0  0  0  0  0  0
  -21.4037  -24.2808   21.8879 C   0  0  0  0  0  0  0  0  0  0  0  0
  -26.6598  -12.3021   20.6861 C   0  0  0  0  0  0  0  0  0  0  0  0
  -24.0407  -32.1739   20.1536 C   0  0  0  0  0  0  0  0  0  0  0  0
  -26.2360  -13.3607   21.6992 C   0  0  0  0  0  0  0  0  0  0  0  0
  -24.9928  -31.0220   19.8204 C   0  0  0  0  0  0  0  0  0  0  0  0
  -22.5767  -31.7538   20.0301 C   0  0  0  0  0  0  0  0  0  0  0  0
  -23.1597  -29.3986   20.4436 C   0  0  0  0  0  0  0  0  0  0  0  0
  -25.1577  -14.2820   21.1161 C   0  0  1  0  0  0  0  0  0  0  0  0
  -26.8665  -17.2897   19.5453 C   0  0  1  0  0  0  0  0  0  0  0  0
  -24.6454  -29.7512   20.6215 C   0  0  1  0  0  0  0  0  0  0  0  0
  -31.6649  -23.4816   19.7203 C   0  0  0  0  0  0  0  0  0  0  0  0
  -29.0559  -18.2782   23.4937 C   0  0  0  0  0  0  0  0  0  0  0  0
  -30.5221  -20.3068   23.4353 C   0  0  0  0  0  0  0  0  0  0  0  0
  -31.2489  -18.2116   22.2932 C   0  0  0  0  0  0  0  0  0  0  0  0
  -29.9875  -21.3047   17.0890 C   0  0  0  0  0  0  0  0  0  0  0  0
  -29.3780  -19.5849   21.2903 C   0  0  1  0  0  0  0  0  0  0  0  0
  -31.0944  -22.1954   19.1433 C   0  0  2  0  0  0  0  0  0  0  0  0
  -30.0251  -19.0961   22.6169 C   0  0  0  0  0  0  0  0  0  0  0  0
  -25.1659  -27.7412   19.2914 N   0  0  0  0  0  0  0  0  0  0  0  0
  -25.5514  -28.5894   20.2598 N   0  0  0  0  0  0  0  0  0  0  0  0
  -20.9504  -24.3892   23.2633 N   0  0  0  0  0  0  0  0  0  0  0  0
  -27.4745  -18.4631   20.1758 N   0  0  0  0  0  0  0  0  0  0  0  0
  -22.3277  -30.5498   20.8248 N   0  0  0  0  0  0  0  0  0  0  0  0
  -27.2956  -29.0301   21.8007 N   0  0  0  0  0  0  0  0  0  0  0  0
  -28.4328  -25.4363   21.3691 N   0  0  0  0  0  0  0  0  0  0  0  0
  -21.2497  -29.4027   22.5929 N   0  0  0  0  0  0  0  0  0  0  0  0
  -25.7512  -15.2499   20.2187 N   0  0  0  0  0  0  0  0  0  0  0  0
  -30.2808  -20.3392   20.4275 N   0  0  0  0  0  0  0  0  0  0  0  0
  -30.5593  -22.4870   17.7833 N   0  3  0  0  0  0  0  0  0  0  0  0
  -20.7766  -22.3796   24.5088 O   0  0  0  0  0  0  0  0  0  0  0  0
  -19.6680  -30.1011   24.1556 O   0  0  0  0  0  0  0  0  0  0  0  0
  -29.4889  -26.7538   19.8175 O   0  0  0  0  0  0  0  0  0  0  0  0
  -26.3755  -16.8322   21.8091 O   0  0  0  0  0  0  0  0  0  0  0  0
  -29.6268  -17.5746   20.0562 O   0  0  0  0  0  0  0  0  0  0  0  0
  -28.9989  -22.2696   20.3436 O   0  0  0  0  0  0  0  0  0  0  0  0
  -20.7433  -31.6082   22.1485 O   0  0  0  0  0  0  0  0  0  0  0  0
  -26.0151  -22.6278   15.5921 O   0  0  0  0  0  0  0  0  0  0  0  0
  -22.2171  -21.6899   20.1918 O   0  0  0  0  0  0  0  0  0  1  0  0
  -21.1715  -21.4724   13.2238 F   0  0  0  0  0  0  0  0  0  0  0  0
  -24.8388  -20.1458   15.9065 F   0  0  0  0  0  0  0  0  0  0  0  0
  1  2  1  0  0  0  0
  1  7  2  0  0  0  0
  2  8  2  0  0  0  0
  3  6  1  0  0  0  0
  3 10  2  0  0  0  0
  4 11  2  0  0  0  0
  4 19  1  0  0  0  0
  5 12  1  0  0  0  0
  5 19  2  0  0  0  0
  6 20  2  0  0  0  0
  7 22  1  0  0  0  0
  8 24  1  0  0  0  0
  9 13  2  0  0  0  0
  9 23  1  0  0  0  0
 10 26  1  0  0  0  0
 11 27  1  0  0  0  0
 12 27  2  0  0  0  0
 13 28  1  0  0  0  0
 14 15  2  0  0  0  0
 14 29  1  0  0  0  0
 15 30  1  0  0  0  0
 16 20  1  0  0  0  0
 16 26  2  0  0  0  0
 17 25  1  0  0  0  0
 17 28  2  0  0  0  0
 18 30  2  0  0  0  0
 18 31  1  0  0  0  0
 19 32  1  0  0  0  0
 20 37  1  0  0  0  0
 21 32  1  0  0  0  0
 21 33  2  0  0  0  0
 21 38  1  0  0  0  0
 22 24  2  0  0  0  0
 22 43  1  0  0  0  0
 23 25  2  0  0  0  0
 23 44  1  0  0  0  0
 24 53  1  0  0  0  0
 25 45  1  0  0  0  0
 26 66  1  0  0  0  0
 27 82  1  0  0  0  0
 28 83  1  0  0  0  0
 29 31  2  0  0  0  0
 29 82  1  0  0  0  0
 30 84  1  0  0  0  0
 31 85  1  0  0  0  0
 32 64  2  0  0  0  0
 33 65  1  0  0  0  0
 33 69  1  0  0  0  0
 34 35  1  0  0  0  0
 34 36  2  0  0  0  0
 34 46  1  0  0  0  0
 35 66  1  0  0  0  0
 35 75  2  0  0  0  0
 36 83  1  0  0  0  0
 37 71  1  0  0  0  0
 37 76  2  0  0  0  0
 38 70  1  0  0  0  0
 38 77  2  0  0  0  0
 39 54  1  0  0  0  0
 39 72  1  0  0  0  0
 39 78  2  0  0  0  0
 40 61  1  0  0  0  0
 40 67  1  0  0  0  0
 40 79  2  0  0  0  0
 41 62  1  0  0  0  0
 41 73  1  0  0  0  0
 41 80  2  0  0  0  0
 42 68  1  0  0  0  0
 42 71  1  0  0  0  0
 42 81  2  0  0  0  0
 43 47  1  0  0  0  0
 44 54  1  0  0  0  0
 45 67  1  0  0  0  0
 46 66  1  0  0  0  0
 47 49  1  0  0  0  0
 48 50  1  0  0  0  0
 48 51  1  0  0  0  0
 49 53  1  0  0  0  0
 50 55  1  0  0  0  0
 51 68  1  0  0  0  0
 52 55  1  0  0  0  0
 52 68  1  0  0  0  0
 53 72  1  0  0  0  0
 54 67  1  0  0  0  0
 55 65  1  0  0  0  0
 56 62  1  0  0  0  0
 57 63  1  0  0  0  0
 58 63  1  0  0  0  0
 59 63  1  0  0  0  0
 60 74  1  0  0  0  0
 61 63  1  0  0  0  0
 61 73  1  0  0  0  0
 62 74  1  0  0  0  0
 64 65  1  0  0  0  0
M  CHG  1  74   1
M  ISO  4  36 101  42 100  71 100  83 101
M  END
> <Batch ID>
0087

> <Smiles>
CNC(C)C(=O)NC(C(=O)N1Cc2cc([101O:1][101CH:1]=C3CN(c4cccc(C(=O)[100NH:0][100C:0](=O)N5CCCC(n6nc(-c7ccc(Oc8ccc(F)cc8F)cc7)c(C(N)=O)c6N)C5)c4)C3=O)ccc2CC1C(=O)NC1CCCc2ccccc21)C(C)(C)C

> <Shape>
0.209

> <Color>
0.087

> <Negative vol penalty>
0.000

$$$$

  -OEChem-04052300203D

 80 88  0     1  0  0  0  0  0999 V2000
  -29.6378  -32.5034   25.5139 C   0  0  0  0  0  0  0  0  0  0  0  0
  -29.3999  -31.3099   24.8398 C   0  0  0  0  0  0  0  0  0  0  0  0
  -22.9472  -14.3729   22.4745 C   0  0  0  0  0  0  0  0  0  0  0  0
  -22.2330  -13.2921   20.4352 C   0  0  0  0  0  0  0  0  0  0  0  0
  -28.5717  -33.2232   26.0518 C   0  0  0  0  0  0  0  0  0  0  0  0
  -28.0959  -30.8349   24.7042 C   0  0  0  0  0  0  0  0  0  0  0  0
  -27.1041  -29.1923   20.0177 C   0  0  0  0  0  0  0  0  0  0  0  0
  -21.6188  -14.4700   22.8883 C   0  0  0  0  0  0  0  0  0  0  0  0
  -20.9045  -13.3891   20.8490 C   0  0  0  0  0  0  0  0  0  0  0  0
  -27.5912  -27.9337   19.6677 C   0  0  0  0  0  0  0  0  0  0  0  0
  -17.3517  -13.0273   21.5310 C   0  0  0  0  0  0  0  0  0  0  0  0
  -16.5396  -11.9040   21.3756 C   0  0  0  0  0  0  0  0  0  0  0  0
  -30.0107  -21.4060   22.4480 C   0  0  0  0  0  0  0  0  0  0  0  0
  -29.9933  -20.0040   22.2548 C   0  0  0  0  0  0  0  0  0  0  0  0
  -25.4087  -26.9855   20.0638 C   0  0  0  0  0  0  0  0  0  0  0  0
  -18.0160  -10.6382   22.8092 C   0  0  0  0  0  0  0  0  0  0  0  0
  -23.2544  -13.7840   21.2478 C   0  0  0  0  0  0  0  0  0  0  0  0
  -25.5195  -12.6245   21.0681 C   0  0  0  0  0  0  0  0  0  0  0  0
  -27.2531  -32.7617   25.9144 C   0  0  0  0  0  0  0  0  0  0  0  0
  -25.7661  -29.3553   20.4045 C   0  0  0  0  0  0  0  0  0  0  0  0
  -27.0114  -31.5485   25.2419 C   0  0  0  0  0  0  0  0  0  0  0  0
  -24.9065  -28.2477   20.4157 C   0  0  0  0  0  0  0  0  0  0  0  0
  -20.5974  -13.9781   22.0756 C   0  0  0  0  0  0  0  0  0  0  0  0
  -26.7443  -26.8296   19.6935 C   0  0  0  0  0  0  0  0  0  0  0  0
  -18.4961  -12.9561   22.3254 C   0  0  0  0  0  0  0  0  0  0  0  0
  -16.8717  -10.7095   22.0147 C   0  0  0  0  0  0  0  0  0  0  0  0
  -18.8282  -11.7616   22.9645 C   0  0  0  0  0  0  0  0  0  0  0  0
  -24.6265  -13.6840   20.8195 C   0  0  0  0  0  0  0  0  0  0  0  0
  -29.4755  -21.9555   21.3062 C   0  0  0  0  0  0  0  0  0  0  0  0
  -26.6869  -13.0084   20.4547 C   0  0  0  0  0  0  0  0  0  0  0  0
  -29.4485  -19.7967   21.0089 C   0  0  0  0  0  0  0  0  0  0  0  0
  -29.2754  -23.3845   21.0126 C   0  0  0  0  0  0  0  0  0  0  0  0
  -28.7677  -23.8767   19.8719 C   0  0  0  0  0  0  0  0  0  0  0  0
  -25.3123  -11.4025   21.7888 C   0  0  0  0  0  0  0  0  0  0  0  0
  -24.2988  -30.3217   23.0534 C   0  0  0  0  0  0  0  0  0  0  0  0
  -21.6443  -30.0818   21.2046 C   0  0  0  0  0  0  0  0  0  0  0  0
  -20.1216  -28.6841   18.4889 C   0  0  0  0  0  0  0  0  0  0  0  0
  -28.6028  -18.6239   18.9830 C   0  0  0  0  0  0  0  0  0  0  0  0
  -26.1377  -33.5502   26.5538 C   0  0  0  0  0  0  0  0  0  0  0  0
  -25.2494  -30.7242   20.7533 C   0  0  0  0  0  0  0  0  0  0  0  0
  -23.4567  -28.3730   20.8041 C   0  0  0  0  0  0  0  0  0  0  0  0
  -24.7511  -33.1692   26.0415 C   0  0  0  0  0  0  0  0  0  0  0  0
  -28.3318  -15.6444   16.8244 C   0  0  0  0  0  0  0  0  0  0  0  0
  -24.5928  -31.6524   26.0072 C   0  0  0  0  0  0  0  0  0  0  0  0
  -27.3733  -14.7455   17.6037 C   0  0  0  0  0  0  0  0  0  0  0  0
  -28.0625  -17.1230   17.0877 C   0  0  0  0  0  0  0  0  0  0  0  0
  -27.1187  -16.5886   19.3135 C   0  0  0  0  0  0  0  0  0  0  0  0
  -25.6086  -31.0133   25.0527 C   0  0  1  0  0  0  0  0  0  0  0  0
  -23.9992  -30.6862   21.6268 C   0  0  1  0  0  0  0  0  0  0  0  0
  -27.3925  -15.0918   19.1026 C   0  0  1  0  0  0  0  0  0  0  0  0
  -17.9371  -28.6528   17.2543 C   0  0  0  0  0  0  0  0  0  0  0  0
  -20.4465  -28.3016   23.3740 C   0  0  0  0  0  0  0  0  0  0  0  0
  -18.7303  -27.5510   21.7128 C   0  0  0  0  0  0  0  0  0  0  0  0
  -18.8515  -29.9516   22.3800 C   0  0  0  0  0  0  0  0  0  0  0  0
  -29.7319  -17.3228   20.7724 C   0  0  0  0  0  0  0  0  0  0  0  0
  -21.3704  -29.7298   16.0178 C   0  0  0  0  0  0  0  0  0  0  0  0
  -28.5959  -25.3393   19.6137 C   0  0  0  0  0  0  0  0  0  1  0  0
  -20.6538  -28.9859   20.8931 C   0  0  1  0  0  0  0  0  0  0  0  0
  -19.3101  -29.2977   17.3622 C   0  0  2  0  0  0  0  0  0  0  0  0
  -19.6983  -28.6945   22.0845 C   0  0  0  0  0  0  0  0  0  0  0  0
  -25.1792  -14.6672   20.1042 N   0  0  0  0  0  0  0  0  0  0  0  0
  -26.4322  -14.2272   19.8981 N   0  0  0  0  0  0  0  0  0  0  0  0
  -23.0004  -29.7311   21.1428 N   0  0  0  0  0  0  0  0  0  0  0  0
  -28.0410  -17.4167   18.5212 N   0  0  0  0  0  0  0  0  0  0  0  0
  -27.8963  -12.4190   20.3427 N   0  0  0  0  0  0  0  0  0  0  0  0
  -24.0524  -11.1667   22.3559 N   0  0  0  0  0  0  0  0  0  0  0  0
  -25.1845  -31.1783   23.6789 N   0  0  0  0  0  0  0  0  0  0  0  0
  -19.9740  -29.3868   19.6661 N   0  0  0  0  0  0  0  0  0  0  0  0
  -29.1784  -18.5851   20.2715 N   0  0  0  0  0  0  0  0  0  0  0  0
  -20.0152  -29.1226   16.0610 N   0  3  0  0  0  0  0  0  0  0  0  0
  -26.2223  -10.5525   21.9399 O   0  0  0  0  0  0  0  0  0  0  0  0
  -23.7647  -29.3371   23.5504 O   0  0  0  0  0  0  0  0  0  0  0  0
  -21.2301  -31.2094   21.4851 O   0  0  0  0  0  0  0  0  0  0  0  0
  -20.8141  -27.6796   18.3405 O   0  0  0  0  0  0  0  0  0  0  0  0
  -28.6152  -19.6461   18.2868 O   0  0  0  0  0  0  0  0  0  0  0  0
  -29.1302  -20.9813   20.4241 O   0  0  0  0  0  0  0  0  0  0  0  0
  -19.3009  -14.0724   22.4793 O   0  0  0  0  0  0  0  0  0  0  0  0
  -27.2173  -25.5999   19.3530 O   0  0  0  0  0  0  0  0  0  1  0  0
  -16.0908   -9.6313   21.8667 F   0  0  0  0  0  0  0  0  0  0  0  0
  -19.9257  -11.6874   23.7299 F   0  0  0  0  0  0  0  0  0  0  0  0
  1  2  1  0  0  0  0
  1  5  2  0  0  0  0
  2  6  2  0  0  0  0
  3  8  2  0  0  0  0
  3 17  1  0  0  0  0
  4  9  1  0  0  0  0
  4 17  2  0  0  0  0
  5 19  1  0  0  0  0
  6 21  1  0  0  0  0
  7 10  2  0  0  0  0
  7 20  1  0  0  0  0
  8 23  1  0  0  0  0
  9 23  2  0  0  0  0
 10 24  1  0  0  0  0
 11 12  2  0  0  0  0
 11 25  1  0  0  0  0
 12 26  1  0  0  0  0
 13 14  1  0  0  0  0
 13 29  2  0  0  0  0
 14 31  2  0  0  0  0
 15 22  1  0  0  0  0
 15 24  2  0  0  0  0
 16 26  2  0  0  0  0
 16 27  1  0  0  0  0
 17 28  1  0  0  0  0
 18 28  1  0  0  0  0
 18 30  2  0  0  0  0
 18 34  1  0  0  0  0
 19 21  2  0  0  0  0
 19 39  1  0  0  0  0
 20 22  2  0  0  0  0
 20 40  1  0  0  0  0
 21 48  1  0  0  0  0
 22 41  1  0  0  0  0
 23 77  1  0  0  0  0
 24 78  1  0  0  0  0
 25 27  2  0  0  0  0
 25 77  1  0  0  0  0
 26 79  1  0  0  0  0
 27 80  1  0  0  0  0
 28 61  2  0  0  0  0
 29 32  1  0  0  0  0
 29 76  1  0  0  0  0
 30 62  1  0  0  0  0
 30 65  1  0  0  0  0
 31 69  1  0  0  0  0
 31 76  1  0  0  0  0
 32 33  2  0  0  0  0
 33 57  1  0  0  0  0
 34 66  1  0  0  0  0
 34 71  2  0  0  0  0
 35 49  1  0  0  0  0
 35 67  1  0  0  0  0
 35 72  2  0  0  0  0
 36 58  1  0  0  0  0
 36 63  1  0  0  0  0
 36 73  2  0  0  0  0
 37 59  1  0  0  0  0
 37 68  1  0  0  0  0
 37 74  2  0  0  0  0
 38 64  1  0  0  0  0
 38 69  1  0  0  0  0
 38 75  2  0  0  0  0
 39 42  1  0  0  0  0
 40 49  1  0  0  0  0
 41 63  1  0  0  0  0
 42 44  1  0  0  0  0
 43 45  1  0  0  0  0
 43 46  1  0  0  0  0
 44 48  1  0  0  0  0
 45 50  1  0  0  0  0
 46 64  1  0  0  0  0
 47 50  1  0  0  0  0
 47 64  1  0  0  0  0
 48 67  1  0  0  0  0
 49 63  1  0  0  0  0
 50 62  1  0  0  0  0
 51 59  1  0  0  0  0
 52 60  1  0  0  0  0
 53 60  1  0  0  0  0
 54 60  1  0  0  0  0
 55 69  1  0  0  0  0
 56 70  1  0  0  0  0
 57 78  1  0  0  0  0
 58 60  1  0  0  0  0
 58 68  1  0  0  0  0
 59 70  1  0  0  0  0
 61 62  1  0  0  0  0
M  CHG  1  70   1
M  ISO  4  38 100  57 101  69 100  78 101
M  END
> <Batch ID>
0087

> <Smiles>
CNC(C)C(=O)NC(C(=O)N1Cc2cc([101O:1][101CH2:1]C=Cc3ccc([100N:0](C)[100C:0](=O)N4CCCC(n5nc(-c6ccc(Oc7ccc(F)cc7F)cc6)c(C(N)=O)c5N)C4)o3)ccc2CC1C(=O)NC1CCCc2ccccc21)C(C)(C)C

> <Shape>
0.293

> <Color>
0.076

> <Negative vol penalty>
0.000

$$$$

  -OEChem-04052300203D

 85 94  0     1  0  0  0  0  0999 V2000
  -28.0130  -35.6213   16.7192 C   0  0  0  0  0  0  0  0  0  0  0  0
  -27.8849  -34.3300   16.2176 C   0  0  0  0  0  0  0  0  0  0  0  0
  -23.0889   -9.9001   19.9505 C   0  0  0  0  0  0  0  0  0  0  0  0
  -23.6654  -10.0214   22.2936 C   0  0  0  0  0  0  0  0  0  0  0  0
  -28.3402  -35.8176   18.0603 C   0  0  0  0  0  0  0  0  0  0  0  0
  -28.0850  -33.2343   17.0565 C   0  0  0  0  0  0  0  0  0  0  0  0
  -30.4441  -19.2529   22.9741 C   0  0  0  0  0  0  0  0  0  0  0  0
  -25.8013  -26.5287   18.1223 C   0  0  0  0  0  0  0  0  0  0  0  0
  -29.6463  -20.3274   22.5671 C   0  0  0  0  0  0  0  0  0  0  0  0
  -22.3204   -8.7628   20.1984 C   0  0  0  0  0  0  0  0  0  0  0  0
  -22.8968   -8.8841   22.5415 C   0  0  0  0  0  0  0  0  0  0  0  0
  -26.2954  -25.2337   18.2729 C   0  0  0  0  0  0  0  0  0  0  0  0
  -23.2100   -5.5375   22.1767 C   0  0  0  0  0  0  0  0  0  0  0  0
  -23.7604   -4.5484   22.9918 C   0  0  0  0  0  0  0  0  0  0  0  0
  -28.5177  -18.9373   20.9167 C   0  0  0  0  0  0  0  0  0  0  0  0
  -26.7790  -25.6941   20.5909 C   0  0  0  0  0  0  0  0  0  0  0  0
  -21.9307   -4.8121   24.5473 C   0  0  0  0  0  0  0  0  0  0  0  0
  -23.7615  -10.5294   20.9981 C   0  0  0  0  0  0  0  0  0  0  0  0
  -29.3161  -17.8927   21.3417 C   0  0  0  0  0  0  0  0  0  0  0  0
  -24.1275  -13.0444   20.7787 C   0  0  0  0  0  0  0  0  0  0  0  0
  -30.2652  -18.0333   22.3487 C   0  0  0  0  0  0  0  0  0  0  0  0
  -28.5349  -34.7238   18.9183 C   0  0  0  0  0  0  0  0  0  0  0  0
  -25.8024  -27.4211   19.2040 C   0  0  0  0  0  0  0  0  0  0  0  0
  -28.4164  -33.4162   18.4099 C   0  0  0  0  0  0  0  0  0  0  0  0
  -26.2820  -26.9991   20.4522 C   0  0  0  0  0  0  0  0  0  0  0  0
  -28.6912  -20.1705   21.5464 C   0  0  0  0  0  0  0  0  0  0  0  0
  -22.2243   -8.2548   21.4939 C   0  0  0  0  0  0  0  0  0  0  0  0
  -26.7870  -24.8172   19.5065 C   0  0  0  0  0  0  0  0  0  0  0  0
  -22.0199   -6.1639   22.5469 C   0  0  0  0  0  0  0  0  0  0  0  0
  -23.1208   -4.1857   24.1771 C   0  0  0  0  0  0  0  0  0  0  0  0
  -21.3803   -5.8012   23.7322 C   0  0  0  0  0  0  0  0  0  0  0  0
  -24.5560  -11.7039   20.7425 C   0  0  0  0  0  0  0  0  0  0  0  0
  -25.2497  -13.7721   20.4658 C   0  0  0  0  0  0  0  0  0  0  0  0
  -29.3538  -16.5088   20.8632 C   0  0  0  0  0  0  0  0  0  0  0  0
  -22.8312  -13.5837   21.0692 C   0  0  0  0  0  0  0  0  0  0  0  0
  -26.9273  -21.2932   20.1784 C   0  0  0  0  0  0  0  0  0  0  0  0
  -26.2995  -22.6479   20.0411 C   0  0  0  0  0  0  0  0  0  1  0  0
  -27.1804  -30.2231   19.7989 C   0  0  0  0  0  0  0  0  0  0  0  0
  -25.3622  -30.1070   22.4828 C   0  0  0  0  0  0  0  0  0  0  0  0
  -23.6688  -28.2054   24.7550 C   0  0  0  0  0  0  0  0  0  0  0  0
  -30.7898  -14.5174   21.4838 C   0  0  0  0  0  0  0  0  0  0  0  0
  -28.9336  -34.9855   20.3491 C   0  0  0  0  0  0  0  0  0  0  0  0
  -25.2412  -28.8061   19.0322 C   0  0  0  0  0  0  0  0  0  0  0  0
  -30.9776  -16.7483   22.5710 C   0  0  0  0  0  0  0  0  0  0  0  0
  -26.2865  -27.9121   21.6500 C   0  0  0  0  0  0  0  0  0  0  0  0
  -28.7612  -33.7734   21.2609 C   0  0  0  0  0  0  0  0  0  0  0  0
  -29.7459  -12.3362   18.6828 C   0  0  0  0  0  0  0  0  0  0  0  0
  -29.3357  -32.5236   20.6017 C   0  0  0  0  0  0  0  0  0  0  0  0
  -28.2892  -12.0278   19.0229 C   0  0  0  0  0  0  0  0  0  0  0  0
  -30.5749  -12.6056   19.9347 C   0  0  0  0  0  0  0  0  0  0  0  0
  -28.5555  -13.3724   21.1455 C   0  0  0  0  0  0  0  0  0  0  0  0
  -28.6013  -32.2023   19.2944 C   0  0  1  0  0  0  0  0  0  0  0  0
  -25.7652  -29.7958   20.0682 C   0  0  1  0  0  0  0  0  0  0  0  0
  -27.6879  -13.1393   19.8994 C   0  0  2  0  0  0  0  0  0  0  0  0
  -22.3143  -28.3907   26.8594 C   0  0  0  0  0  0  0  0  0  0  0  0
  -27.9174  -30.5747   24.0834 C   0  0  0  0  0  0  0  0  0  0  0  0
  -26.6925  -29.8122   26.1294 C   0  0  0  0  0  0  0  0  0  0  0  0
  -25.9254  -31.8449   24.9037 C   0  0  0  0  0  0  0  0  0  0  0  0
  -21.2835  -27.0237   23.4616 C   0  0  0  0  0  0  0  0  0  0  0  0
  -25.5503  -29.5643   23.8789 C   0  0  1  0  0  0  0  0  0  0  0  0
  -22.2743  -28.3384   25.3400 C   0  0  2  0  0  0  0  0  0  0  0  0
  -26.5233  -30.4322   24.7260 C   0  0  0  0  0  0  0  0  0  0  0  0
  -25.8493  -11.5842   20.4310 N   0  0  0  0  0  0  0  0  0  0  0  0
  -26.2432  -12.8587   20.2686 N   0  0  0  0  0  0  0  0  0  0  0  0
  -30.2846  -15.8161   21.6773 N   0  0  0  0  0  0  0  0  0  0  0  0
  -25.7332  -29.2585   21.4300 N   0  0  0  0  0  0  0  0  0  0  0  0
  -29.9585  -13.6255   20.7842 N   0  0  0  0  0  0  0  0  0  0  0  0
  -25.4735  -15.0976   20.3428 N   0  0  0  0  0  0  0  0  0  0  0  0
  -21.7901  -12.6950   21.3706 N   0  0  0  0  0  0  0  0  0  0  0  0
  -27.9112  -21.2612   21.1590 N   0  0  0  0  0  0  0  0  0  0  0  0
  -27.3253  -31.5784   19.5717 N   0  0  0  0  0  0  0  0  0  0  0  0
  -24.2141  -29.4345   24.4498 N   0  0  0  0  0  0  0  0  0  0  0  0
  -21.4287  -27.1812   24.9317 N   0  3  0  0  0  0  0  0  0  0  0  0
  -28.6877  -16.1124   19.9236 O   0  0  0  0  0  0  0  0  0  0  0  0
  -22.5989  -14.8162   21.0457 O   0  0  0  0  0  0  0  0  0  0  0  0
  -26.4974  -20.4144   19.4503 O   0  0  0  0  0  0  0  0  0  0  0  0
  -25.1118  -22.8184   20.2364 O   0  0  0  0  0  0  0  0  0  0  0  0
  -28.0748  -29.3854   19.7988 O   0  0  0  0  0  0  0  0  0  0  0  0
  -24.8963  -31.2391   22.3317 O   0  0  0  0  0  0  0  0  0  0  0  0
  -24.2207  -27.1198   24.5890 O   0  0  0  0  0  0  0  0  0  0  0  0
  -31.9233  -14.2077   21.8680 O   0  0  0  0  0  0  0  0  0  0  0  0
  -21.4743   -7.1451   21.7363 O   0  0  0  0  0  0  0  0  0  0  0  0
  -27.2828  -23.5218   19.6598 O   0  0  0  0  0  0  0  0  0  1  0  0
  -23.6486   -3.2348   24.9589 F   0  0  0  0  0  0  0  0  0  0  0  0
  -20.2361   -6.3986   24.0926 F   0  0  0  0  0  0  0  0  0  0  0  0
  1  2  1  0  0  0  0
  1  5  2  0  0  0  0
  2  6  2  0  0  0  0
  3 10  2  0  0  0  0
  3 18  1  0  0  0  0
  4 11  1  0  0  0  0
  4 18  2  0  0  0  0
  5 22  1  0  0  0  0
  6 24  1  0  0  0  0
  7  9  2  0  0  0  0
  7 21  1  0  0  0  0
  8 12  2  0  0  0  0
  8 23  1  0  0  0  0
  9 26  1  0  0  0  0
 10 27  1  0  0  0  0
 11 27  2  0  0  0  0
 12 28  1  0  0  0  0
 13 14  2  0  0  0  0
 13 29  1  0  0  0  0
 14 30  1  0  0  0  0
 15 19  1  0  0  0  0
 15 26  2  0  0  0  0
 16 25  1  0  0  0  0
 16 28  2  0  0  0  0
 17 30  2  0  0  0  0
 17 31  1  0  0  0  0
 18 32  1  0  0  0  0
 19 21  2  0  0  0  0
 19 34  1  0  0  0  0
 20 32  1  0  0  0  0
 20 33  2  0  0  0  0
 20 35  1  0  0  0  0
 21 44  1  0  0  0  0
 22 24  2  0  0  0  0
 22 42  1  0  0  0  0
 23 25  2  0  0  0  0
 23 43  1  0  0  0  0
 24 52  1  0  0  0  0
 25 45  1  0  0  0  0
 26 70  1  0  0  0  0
 27 82  1  0  0  0  0
 28 83  1  0  0  0  0
 29 31  2  0  0  0  0
 29 82  1  0  0  0  0
 30 84  1  0  0  0  0
 31 85  1  0  0  0  0
 32 63  2  0  0  0  0
 33 64  1  0  0  0  0
 33 68  1  0  0  0  0
 34 65  1  0  0  0  0
 34 74  2  0  0  0  0
 35 69  1  0  0  0  0
 35 75  2  0  0  0  0
 36 37  1  0  0  0  0
 36 70  1  0  0  0  0
 36 76  2  0  0  0  0
 37 77  2  0  0  0  0
 37 83  1  0  0  0  0
 38 53  1  0  0  0  0
 38 71  1  0  0  0  0
 38 78  2  0  0  0  0
 39 60  1  0  0  0  0
 39 66  1  0  0  0  0
 39 79  2  0  0  0  0
 40 61  1  0  0  0  0
 40 72  1  0  0  0  0
 40 80  2  0  0  0  0
 41 65  1  0  0  0  0
 41 67  1  0  0  0  0
 41 81  2  0  0  0  0
 42 46  1  0  0  0  0
 43 53  1  0  0  0  0
 44 65  1  0  0  0  0
 45 66  1  0  0  0  0
 46 48  1  0  0  0  0
 47 49  1  0  0  0  0
 47 50  1  0  0  0  0
 48 52  1  0  0  0  0
 49 54  1  0  0  0  0
 50 67  1  0  0  0  0
 51 54  1  0  0  0  0
 51 67  1  0  0  0  0
 52 71  1  0  0  0  0
 53 66  1  0  0  0  0
 54 64  1  0  0  0  0
 55 61  1  0  0  0  0
 56 62  1  0  0  0  0
 57 62  1  0  0  0  0
 58 62  1  0  0  0  0
 59 73  1  0  0  0  0
 60 62  1  0  0  0  0
 60 72  1  0  0  0  0
 61 73  1  0  0  0  0
 63 64  1  0  0  0  0
M  CHG  1  73   1
M  ISO  4  37 101  41 100  65 100  83 101
M  END
> <Batch ID>
0087

> <Smiles>
CNC(C)C(=O)NC(C(=O)N1Cc2cc([101O:1][101C:1](=O)C(=O)Nc3ccc4c(c3)C(=O)[100N:0]([100C:0](=O)N3CCCC(n5nc(-c6ccc(Oc7ccc(F)cc7F)cc6)c(C(N)=O)c5N)C3)C4)ccc2CC1C(=O)NC1CCCc2ccccc21)C(C)(C)C

> <Shape>
0.320

> <Color>
0.207

> <Negative vol penalty>
0.000

$$$$

  -OEChem-04052300203D

 87 96  0     1  0  0  0  0  0999 V2000
  -28.8338  -37.5658   22.0846 C   0  0  0  0  0  0  0  0  0  0  0  0
  -28.9359  -36.5836   21.1047 C   0  0  0  0  0  0  0  0  0  0  0  0
  -30.2343  -19.8863   17.4650 C   0  0  0  0  0  0  0  0  0  0  0  0
  -23.0529  -10.5726   19.3405 C   0  0  0  0  0  0  0  0  0  0  0  0
  -23.7640   -9.3963   21.3274 C   0  0  0  0  0  0  0  0  0  0  0  0
  -28.5382  -37.2090   23.3996 C   0  0  0  0  0  0  0  0  0  0  0  0
  -28.7434  -35.2437   21.4394 C   0  0  0  0  0  0  0  0  0  0  0  0
  -26.2047  -29.1201   18.7243 C   0  0  0  0  0  0  0  0  0  0  0  0
  -29.2327  -20.7982   17.7979 C   0  0  0  0  0  0  0  0  0  0  0  0
  -30.2167  -18.6018   18.0085 C   0  0  0  0  0  0  0  0  0  0  0  0
  -22.2380   -9.4950   18.9941 C   0  0  0  0  0  0  0  0  0  0  0  0
  -22.9489   -8.3186   20.9810 C   0  0  0  0  0  0  0  0  0  0  0  0
  -26.5786  -27.7910   18.5306 C   0  0  0  0  0  0  0  0  0  0  0  0
  -19.6679   -7.5259   21.1439 C   0  0  0  0  0  0  0  0  0  0  0  0
  -18.8856   -6.9575   22.1492 C   0  0  0  0  0  0  0  0  0  0  0  0
  -25.9944  -27.2996   20.8189 C   0  0  0  0  0  0  0  0  0  0  0  0
  -19.9961   -4.8380   21.8150 C   0  0  0  0  0  0  0  0  0  0  0  0
  -23.8160  -10.5233   20.5071 C   0  0  0  0  0  0  0  0  0  0  0  0
  -24.3072  -12.7500   21.6508 C   0  0  0  0  0  0  0  0  0  0  0  0
  -28.3325  -35.8649   23.7487 C   0  0  0  0  0  0  0  0  0  0  0  0
  -25.7324  -29.5521   19.9719 C   0  0  0  0  0  0  0  0  0  0  0  0
  -28.4461  -34.8684   22.7606 C   0  0  0  0  0  0  0  0  0  0  0  0
  -25.6128  -28.6341   21.0251 C   0  0  0  0  0  0  0  0  0  0  0  0
  -28.2135  -20.4257   18.6743 C   0  0  0  0  0  0  0  0  0  0  0  0
  -29.1975  -18.2292   18.8849 C   0  0  0  0  0  0  0  0  0  0  0  0
  -22.1859   -8.3680   19.8143 C   0  0  0  0  0  0  0  0  0  0  0  0
  -26.4762  -26.8811   19.5788 C   0  0  0  0  0  0  0  0  0  0  0  0
  -20.6142   -6.7503   20.4740 C   0  0  0  0  0  0  0  0  0  0  0  0
  -19.0498   -5.6136   22.4848 C   0  0  0  0  0  0  0  0  0  0  0  0
  -20.7783   -5.4064   20.8096 C   0  0  0  0  0  0  0  0  0  0  0  0
  -28.1959  -19.1412   19.2178 C   0  0  0  0  0  0  0  0  0  0  0  0
  -24.6585  -11.6359   20.8652 C   0  0  0  0  0  0  0  0  0  0  0  0
  -25.4486  -13.5128   21.6949 C   0  0  0  0  0  0  0  0  0  0  0  0
  -26.1404  -23.3146   19.4265 C   0  0  0  0  0  0  0  0  0  0  0  0
  -25.1630  -22.2338   19.6153 C   0  0  0  0  0  0  0  0  0  0  0  0
  -27.4412  -22.7331   19.0378 C   0  0  0  0  0  0  0  0  0  0  0  0
  -25.8946  -24.6156   19.5809 C   0  0  0  0  0  0  0  0  0  1  0  0
  -23.0605  -13.0671   22.2841 C   0  0  0  0  0  0  0  0  0  0  0  0
  -26.7160  -31.6641   22.1342 C   0  0  0  0  0  0  0  0  0  0  0  0
  -23.9023  -30.9226   23.5678 C   0  0  0  0  0  0  0  0  0  0  0  0
  -21.3766  -28.6686   24.0002 C   0  0  0  0  0  0  0  0  0  0  0  0
  -29.7185  -15.7997   18.7399 C   0  0  0  0  0  0  0  0  0  0  0  0
  -28.0618  -35.5232   25.1926 C   0  0  0  0  0  0  0  0  0  0  0  0
  -25.3079  -30.9832   20.1569 C   0  0  0  0  0  0  0  0  0  0  0  0
  -25.0925  -29.0429   22.3781 C   0  0  0  0  0  0  0  0  0  0  0  0
  -25.8417  -20.9234   19.3452 C   0  0  0  0  0  0  0  0  0  0  0  0
  -27.5025  -34.1168   25.3911 C   0  0  0  0  0  0  0  0  0  0  0  0
  -30.1800  -12.4747   20.2701 C   0  0  0  0  0  0  0  0  0  0  0  0
  -28.3049  -33.1039   24.5805 C   0  0  0  0  0  0  0  0  0  0  0  0
  -28.7470  -12.0322   20.5616 C   0  0  0  0  0  0  0  0  0  0  0  0
  -30.2519  -13.4019   19.0605 C   0  0  0  0  0  0  0  0  0  0  0  0
  -27.9242  -14.1488   19.4533 C   0  0  0  0  0  0  0  0  0  0  0  0
  -28.2196  -33.4065   23.0797 C   0  0  1  0  0  0  0  0  0  0  0  0
  -25.3255  -31.4277   21.6162 C   0  0  1  0  0  0  0  0  0  0  0  0
  -27.8133  -13.2479   20.6926 C   0  0  1  0  0  0  0  0  0  0  0  0
  -19.2350  -28.3281   25.2631 C   0  0  0  0  0  0  0  0  0  0  0  0
  -25.4941  -30.3258   26.1015 C   0  0  0  0  0  0  0  0  0  0  0  0
  -23.4918  -29.1138   26.9904 C   0  0  0  0  0  0  0  0  0  0  0  0
  -23.3480  -31.5518   26.4824 C   0  0  0  0  0  0  0  0  0  0  0  0
  -28.8255  -16.7388   20.8589 C   0  0  0  0  0  0  0  0  0  0  0  0
  -19.8001  -28.4708   21.5033 C   0  0  0  0  0  0  0  0  0  0  0  0
  -23.4555  -29.8931   24.5774 C   0  0  1  0  0  0  0  0  0  0  0  0
  -19.8673  -28.8297   23.9742 C   0  0  2  0  0  0  0  0  0  0  0  0
  -23.9590  -30.2135   26.0131 C   0  0  0  0  0  0  0  0  0  0  0  0
  -25.9241  -11.6829   20.4407 N   0  0  0  0  0  0  0  0  0  0  0  0
  -26.3779  -12.8357   20.9614 N   0  0  0  0  0  0  0  0  0  0  0  0
  -27.2148  -21.3389   19.0044 N   0  0  0  0  0  0  0  0  0  0  0  0
  -24.6962  -30.4545   22.5112 N   0  0  0  0  0  0  0  0  0  0  0  0
  -29.3219  -14.5243   19.1899 N   0  0  0  0  0  0  0  0  0  0  0  0
  -25.7379  -14.6899   22.2892 N   0  0  0  0  0  0  0  0  0  0  0  0
  -21.9904  -12.1739   22.1373 N   0  0  0  0  0  0  0  0  0  0  0  0
  -26.9499  -32.9623   22.5458 N   0  0  0  0  0  0  0  0  0  0  0  0
  -22.0040  -29.8078   24.4584 N   0  0  0  0  0  0  0  0  0  0  0  0
  -29.1827  -16.8987   19.4455 N   0  0  0  0  0  0  0  0  0  0  0  0
  -19.2843  -28.0646   22.8359 N   0  3  0  0  0  0  0  0  0  0  0  0
  -23.9962  -22.3773   19.9377 O   0  0  0  0  0  0  0  0  0  0  0  0
  -28.4632  -23.3549   18.8053 O   0  0  0  0  0  0  0  0  0  0  0  0
  -22.8954  -14.1195   22.9464 O   0  0  0  0  0  0  0  0  0  0  0  0
  -27.5169  -30.7370   22.1599 O   0  0  0  0  0  0  0  0  0  0  0  0
  -23.5535  -32.0976   23.7074 O   0  0  0  0  0  0  0  0  0  0  0  0
  -21.9422  -27.6343   23.6526 O   0  0  0  0  0  0  0  0  0  0  0  0
  -30.5116  -15.9430   17.8017 O   0  0  0  0  0  0  0  0  0  0  0  0
  -21.3906   -7.3163   19.4767 O   0  0  0  0  0  0  0  0  0  0  0  0
  -26.8410  -25.5834   19.3927 O   0  0  0  0  0  0  0  0  0  1  0  0
  -18.2996   -5.0683   23.4512 F   0  0  0  0  0  0  0  0  0  0  0  0
  -21.6867   -4.6566   20.1704 F   0  0  0  0  0  0  0  0  0  0  0  0
  -27.2158  -18.7832   20.0617 F   0  0  0  0  0  0  0  0  0  0  0  0
  1  2  1  0  0  0  0
  1  6  2  0  0  0  0
  2  7  2  0  0  0  0
  3  9  2  0  0  0  0
  3 10  1  0  0  0  0
  4 11  2  0  0  0  0
  4 18  1  0  0  0  0
  5 12  1  0  0  0  0
  5 18  2  0  0  0  0
  6 20  1  0  0  0  0
  7 22  1  0  0  0  0
  8 13  2  0  0  0  0
  8 21  1  0  0  0  0
  9 24  1  0  0  0  0
 10 25  2  0  0  0  0
 11 26  1  0  0  0  0
 12 26  2  0  0  0  0
 13 27  1  0  0  0  0
 14 15  2  0  0  0  0
 14 28  1  0  0  0  0
 15 29  1  0  0  0  0
 16 23  1  0  0  0  0
 16 27  2  0  0  0  0
 17 29  2  0  0  0  0
 17 30  1  0  0  0  0
 18 32  1  0  0  0  0
 19 32  1  0  0  0  0
 19 33  2  0  0  0  0
 19 38  1  0  0  0  0
 20 22  2  0  0  0  0
 20 43  1  0  0  0  0
 21 23  2  0  0  0  0
 21 44  1  0  0  0  0
 22 53  1  0  0  0  0
 23 45  1  0  0  0  0
 24 31  2  0  0  0  0
 24 67  1  0  0  0  0
 25 31  1  0  0  0  0
 25 74  1  0  0  0  0
 26 83  1  0  0  0  0
 27 84  1  0  0  0  0
 28 30  2  0  0  0  0
 28 83  1  0  0  0  0
 29 85  1  0  0  0  0
 30 86  1  0  0  0  0
 31 87  1  0  0  0  0
 32 65  2  0  0  0  0
 33 66  1  0  0  0  0
 33 70  1  0  0  0  0
 34 35  1  0  0  0  0
 34 36  1  0  0  0  0
 34 37  2  0  0  0  0
 35 46  1  0  0  0  0
 35 76  2  0  0  0  0
 36 67  1  0  0  0  0
 36 77  2  0  0  0  0
 37 84  1  0  0  0  0
 38 71  1  0  0  0  0
 38 78  2  0  0  0  0
 39 54  1  0  0  0  0
 39 72  1  0  0  0  0
 39 79  2  0  0  0  0
 40 62  1  0  0  0  0
 40 68  1  0  0  0  0
 40 80  2  0  0  0  0
 41 63  1  0  0  0  0
 41 73  1  0  0  0  0
 41 81  2  0  0  0  0
 42 69  1  0  0  0  0
 42 74  1  0  0  0  0
 42 82  2  0  0  0  0
 43 47  1  0  0  0  0
 44 54  1  0  0  0  0
 45 68  1  0  0  0  0
 46 67  1  0  0  0  0
 47 49  1  0  0  0  0
 48 50  1  0  0  0  0
 48 51  1  0  0  0  0
 49 53  1  0  0  0  0
 50 55  1  0  0  0  0
 51 69  1  0  0  0  0
 52 55  1  0  0  0  0
 52 69  1  0  0  0  0
 53 72  1  0  0  0  0
 54 68  1  0  0  0  0
 55 66  1  0  0  0  0
 56 63  1  0  0  0  0
 57 64  1  0  0  0  0
 58 64  1  0  0  0  0
 59 64  1  0  0  0  0
 60 74  1  0  0  0  0
 61 75  1  0  0  0  0
 62 64  1  0  0  0  0
 62 73  1  0  0  0  0
 63 75  1  0  0  0  0
 65 66  1  0  0  0  0
M  CHG  1  75   1
M  ISO  4  37 101  42 100  74 100  84 101
M  END
> <Batch ID>
0087

> <Smiles>
CNC(C)C(=O)NC(C(=O)N1Cc2cc([101O:1][101CH:1]=C3C(=O)CN(c4cccc([100N:0](C)[100C:0](=O)N5CCCC(n6nc(-c7ccc(Oc8ccc(F)cc8F)cc7)c(C(N)=O)c6N)C5)c4F)C3=O)ccc2CC1C(=O)NC1CCCc2ccccc21)C(C)(C)C

> <Shape>
0.289

> <Color>
0.137

> <Negative vol penalty>
0.000

$$$$

  -OEChem-04052300203D

 84 93  0     1  0  0  0  0  0999 V2000
  -27.3783  -37.7506   23.8460 C   0  0  0  0  0  0  0  0  0  0  0  0
  -27.9648  -36.8071   23.0086 C   0  0  0  0  0  0  0  0  0  0  0  0
  -24.1859   -9.2995   22.2135 C   0  0  0  0  0  0  0  0  0  0  0  0
  -22.9231  -11.2834   21.6598 C   0  0  0  0  0  0  0  0  0  0  0  0
  -26.4957  -37.3416   24.8447 C   0  0  0  0  0  0  0  0  0  0  0  0
  -27.6698  -35.4538   23.1702 C   0  0  0  0  0  0  0  0  0  0  0  0
  -26.9110  -29.4153   19.3918 C   0  0  0  0  0  0  0  0  0  0  0  0
  -26.2998  -19.4060   19.1256 C   0  0  0  0  0  0  0  0  0  0  0  0
  -26.5644  -18.0444   18.9786 C   0  0  0  0  0  0  0  0  0  0  0  0
  -23.3208   -9.0459   23.2778 C   0  0  0  0  0  0  0  0  0  0  0  0
  -22.0579  -11.0298   22.7241 C   0  0  0  0  0  0  0  0  0  0  0  0
  -27.3662  -28.0978   19.3639 C   0  0  0  0  0  0  0  0  0  0  0  0
  -20.2302   -7.7480   23.7209 C   0  0  0  0  0  0  0  0  0  0  0  0
  -19.7721   -6.4410   23.8866 C   0  0  0  0  0  0  0  0  0  0  0  0
  -25.7657  -27.5151   21.0721 C   0  0  0  0  0  0  0  0  0  0  0  0
  -28.8456  -18.4116   19.6847 C   0  0  0  0  0  0  0  0  0  0  0  0
  -20.7712   -6.3696   26.0852 C   0  0  0  0  0  0  0  0  0  0  0  0
  -23.9871  -10.4183   21.4045 C   0  0  0  0  0  0  0  0  0  0  0  0
  -24.7521  -10.2291   18.9782 C   0  0  0  0  0  0  0  0  0  0  0  0
  -26.1822  -35.9836   25.0125 C   0  0  0  0  0  0  0  0  0  0  0  0
  -25.8855  -29.7956   20.2693 C   0  0  0  0  0  0  0  0  0  0  0  0
  -26.7831  -35.0262   24.1730 C   0  0  0  0  0  0  0  0  0  0  0  0
  -25.2975  -28.8374   21.1073 C   0  0  0  0  0  0  0  0  0  0  0  0
  -27.3081  -20.2704   19.5521 C   0  0  0  0  0  0  0  0  0  0  0  0
  -27.8373  -17.5472   19.2582 C   0  0  0  0  0  0  0  0  0  0  0  0
  -22.2568   -9.9110   23.5331 C   0  0  0  0  0  0  0  0  0  0  0  0
  -26.7956  -27.1481   20.2062 C   0  0  0  0  0  0  0  0  0  0  0  0
  -20.9588   -8.3658   24.7373 C   0  0  0  0  0  0  0  0  0  0  0  0
  -20.0426   -5.7518   25.0688 C   0  0  0  0  0  0  0  0  0  0  0  0
  -28.5810  -19.7732   19.8317 C   0  0  0  0  0  0  0  0  0  0  0  0
  -21.2293   -7.6766   25.9194 C   0  0  0  0  0  0  0  0  0  0  0  0
  -24.8808  -10.6812   20.3052 C   0  0  0  0  0  0  0  0  0  0  0  0
  -25.8475  -10.7468   18.3314 C   0  0  0  0  0  0  0  0  0  0  0  0
  -26.6694  -23.5750   19.8071 C   0  0  0  0  0  0  0  0  0  0  0  0
  -25.9252  -22.3530   19.4998 C   0  0  0  0  0  0  0  0  0  0  0  0
  -26.3437  -24.8791   19.8622 C   0  0  0  0  0  0  0  0  0  1  0  0
  -23.7334   -9.4141   18.3835 C   0  0  0  0  0  0  0  0  0  0  0  0
  -25.6518  -31.8329   22.6980 C   0  0  0  0  0  0  0  0  0  0  0  0
  -22.5157  -31.0131   22.5759 C   0  0  0  0  0  0  0  0  0  0  0  0
  -20.1531  -28.7222   21.6721 C   0  0  0  0  0  0  0  0  0  0  0  0
  -29.3136  -15.5077   19.3439 C   0  0  0  0  0  0  0  0  0  0  0  0
  -25.2589  -35.5851   26.1365 C   0  0  0  0  0  0  0  0  0  0  0  0
  -25.3875  -31.2149   20.2681 C   0  0  0  0  0  0  0  0  0  0  0  0
  -24.1798  -29.1901   22.0533 C   0  0  0  0  0  0  0  0  0  0  0  0
  -27.9078  -22.7348   20.0196 C   0  0  0  0  0  0  0  0  0  0  0  0
  -24.7098  -34.1674   26.0001 C   0  0  0  0  0  0  0  0  0  0  0  0
  -30.3676  -12.1136   19.1285 C   0  0  0  0  0  0  0  0  0  0  0  0
  -25.8291  -33.1929   25.6477 C   0  0  0  0  0  0  0  0  0  0  0  0
  -29.0676  -11.3201   19.2790 C   0  0  0  0  0  0  0  0  0  0  0  0
  -30.3753  -13.3618   20.0093 C   0  0  0  0  0  0  0  0  0  0  0  0
  -27.9134  -13.4510   19.9957 C   0  0  0  0  0  0  0  0  0  0  0  0
  -26.4690  -33.5514   24.3010 C   0  0  1  0  0  0  0  0  0  0  0  0
  -24.6890  -31.6041   21.5674 C   0  0  1  0  0  0  0  0  0  0  0  0
  -27.8320  -12.2195   19.0791 C   0  0  2  0  0  0  0  0  0  0  0  0
  -17.6776  -28.3154   21.7361 C   0  0  0  0  0  0  0  0  0  0  0  0
  -22.7064  -30.3347   25.5446 C   0  0  0  0  0  0  0  0  0  0  0  0
  -20.5556  -29.0725   25.3230 C   0  0  0  0  0  0  0  0  0  0  0  0
  -20.6109  -31.5266   24.8793 C   0  0  0  0  0  0  0  0  0  0  0  0
  -19.9788  -28.6052   18.7200 C   0  0  0  0  0  0  0  0  0  0  0  0
  -21.6650  -29.9422   23.2149 C   0  0  1  0  0  0  0  0  0  0  0  0
  -18.8391  -28.8709   20.9266 C   0  0  2  0  0  0  0  0  0  0  0  0
  -21.4068  -30.2125   24.7241 C   0  0  0  0  0  0  0  0  0  0  0  0
  -25.9720  -11.4284   20.4918 N   0  0  0  0  0  0  0  0  0  0  0  0
  -26.5390  -11.4499   19.2736 N   0  0  0  0  0  0  0  0  0  0  0  0
  -27.0443  -21.6128   19.6962 N   0  0  0  0  0  0  0  0  0  0  0  0
  -23.7320  -30.5922   22.0197 N   0  0  0  0  0  0  0  0  0  0  0  0
  -29.1773  -14.1672   19.7625 N   0  0  0  0  0  0  0  0  0  0  0  0
  -26.2771  -10.6647   17.0542 N   0  0  0  0  0  0  0  0  0  0  0  0
  -22.6788   -8.9674   19.1913 N   0  0  0  0  0  0  0  0  0  0  0  0
  -28.1059  -16.1640   19.1087 N   0  0  0  0  0  0  0  0  0  0  0  0
  -25.6250  -33.1165   23.2088 N   0  0  0  0  0  0  0  0  0  0  0  0
  -20.4527  -29.8487   22.4087 N   0  0  0  0  0  0  0  0  0  0  0  0
  -18.8959  -28.1444   19.6267 N   0  3  0  0  0  0  0  0  0  0  0  0
  -24.7813  -22.0992   19.1844 O   0  0  0  0  0  0  0  0  0  0  0  0
  -23.7663   -9.0780   17.1754 O   0  0  0  0  0  0  0  0  0  0  0  0
  -26.3652  -30.9125   23.0797 O   0  0  0  0  0  0  0  0  0  0  0  0
  -22.1125  -32.1788   22.5641 O   0  0  0  0  0  0  0  0  0  0  0  0
  -20.8427  -27.7068   21.6104 O   0  0  0  0  0  0  0  0  0  0  0  0
  -30.4206  -16.0264   19.1781 O   0  0  0  0  0  0  0  0  0  0  0  0
  -21.4123   -9.6637   24.5715 O   0  0  0  0  0  0  0  0  0  0  0  0
  -27.2384  -25.8616   20.1816 O   0  0  0  0  0  0  0  0  0  1  0  0
  -19.6013   -4.4972   25.2284 F   0  0  0  0  0  0  0  0  0  0  0  0
  -29.5580  -20.5949   20.2417 F   0  0  0  0  0  0  0  0  0  0  0  0
  -21.9278   -8.2654   26.8999 F   0  0  0  0  0  0  0  0  0  0  0  0
  1  2  1  0  0  0  0
  1  5  2  0  0  0  0
  2  6  2  0  0  0  0
  3 10  2  0  0  0  0
  3 18  1  0  0  0  0
  4 11  1  0  0  0  0
  4 18  2  0  0  0  0
  5 20  1  0  0  0  0
  6 22  1  0  0  0  0
  7 12  2  0  0  0  0
  7 21  1  0  0  0  0
  8  9  2  0  0  0  0
  8 24  1  0  0  0  0
  9 25  1  0  0  0  0
 10 26  1  0  0  0  0
 11 26  2  0  0  0  0
 12 27  1  0  0  0  0
 13 14  2  0  0  0  0
 13 28  1  0  0  0  0
 14 29  1  0  0  0  0
 15 23  1  0  0  0  0
 15 27  2  0  0  0  0
 16 25  2  0  0  0  0
 16 30  1  0  0  0  0
 17 29  2  0  0  0  0
 17 31  1  0  0  0  0
 18 32  1  0  0  0  0
 19 32  1  0  0  0  0
 19 33  2  0  0  0  0
 19 37  1  0  0  0  0
 20 22  2  0  0  0  0
 20 42  1  0  0  0  0
 21 23  2  0  0  0  0
 21 43  1  0  0  0  0
 22 52  1  0  0  0  0
 23 44  1  0  0  0  0
 24 30  2  0  0  0  0
 24 65  1  0  0  0  0
 25 70  1  0  0  0  0
 26 80  1  0  0  0  0
 27 81  1  0  0  0  0
 28 31  2  0  0  0  0
 28 80  1  0  0  0  0
 29 82  1  0  0  0  0
 30 83  1  0  0  0  0
 31 84  1  0  0  0  0
 32 63  2  0  0  0  0
 33 64  1  0  0  0  0
 33 68  1  0  0  0  0
 34 35  1  0  0  0  0
 34 36  2  0  0  0  0
 34 45  1  0  0  0  0
 35 65  1  0  0  0  0
 35 74  2  0  0  0  0
 36 81  1  0  0  0  0
 37 69  1  0  0  0  0
 37 75  2  0  0  0  0
 38 53  1  0  0  0  0
 38 71  1  0  0  0  0
 38 76  2  0  0  0  0
 39 60  1  0  0  0  0
 39 66  1  0  0  0  0
 39 77  2  0  0  0  0
 40 61  1  0  0  0  0
 40 72  1  0  0  0  0
 40 78  2  0  0  0  0
 41 67  1  0  0  0  0
 41 70  1  0  0  0  0
 41 79  2  0  0  0  0
 42 46  1  0  0  0  0
 43 53  1  0  0  0  0
 44 66  1  0  0  0  0
 45 65  1  0  0  0  0
 46 48  1  0  0  0  0
 47 49  1  0  0  0  0
 47 50  1  0  0  0  0
 48 52  1  0  0  0  0
 49 54  1  0  0  0  0
 50 67  1  0  0  0  0
 51 54  1  0  0  0  0
 51 67  1  0  0  0  0
 52 71  1  0  0  0  0
 53 66  1  0  0  0  0
 54 64  1  0  0  0  0
 55 61  1  0  0  0  0
 56 62  1  0  0  0  0
 57 62  1  0  0  0  0
 58 62  1  0  0  0  0
 59 73  1  0  0  0  0
 60 62  1  0  0  0  0
 60 72  1  0  0  0  0
 61 73  1  0  0  0  0
 63 64  1  0  0  0  0
M  CHG  1  73   1
M  ISO  4  36 101  41 100  70 100  81 101
M  END
> <Batch ID>
0087

> <Smiles>
CNC(C)C(=O)NC(C(=O)N1Cc2cc([101O:1][101CH:1]=C3CN(c4ccc([100NH:0][100C:0](=O)N5CCCC(n6nc(-c7ccc(Oc8ccc(F)cc8F)cc7)c(C(N)=O)c6N)C5)cc4F)C3=O)ccc2CC1C(=O)NC1CCCc2ccccc21)C(C)(C)C

> <Shape>
0.297

> <Color>
0.088

> <Negative vol penalty>
0.000

$$$$

  -OEChem-04052300203D

 87 96  0     1  0  0  0  0  0999 V2000
  -27.0741  -38.0132   22.0353 C   0  0  0  0  0  0  0  0  0  0  0  0
  -27.6271  -36.9846   21.2793 C   0  0  0  0  0  0  0  0  0  0  0  0
  -23.4199  -10.5182   21.7461 C   0  0  0  0  0  0  0  0  0  0  0  0
  -24.8612   -8.5910   21.5327 C   0  0  0  0  0  0  0  0  0  0  0  0
  -26.3537  -37.7172   23.1917 C   0  0  0  0  0  0  0  0  0  0  0  0
  -27.4611  -35.6593   21.6800 C   0  0  0  0  0  0  0  0  0  0  0  0
  -26.7271  -29.0624   18.9857 C   0  0  0  0  0  0  0  0  0  0  0  0
  -30.1082  -19.8491   21.6160 C   0  0  0  0  0  0  0  0  0  0  0  0
  -30.0346  -18.4938   21.2944 C   0  0  0  0  0  0  0  0  0  0  0  0
  -22.3038   -9.6818   21.7617 C   0  0  0  0  0  0  0  0  0  0  0  0
  -23.7451   -7.7545   21.5485 C   0  0  0  0  0  0  0  0  0  0  0  0
  -27.2777  -27.7864   19.0965 C   0  0  0  0  0  0  0  0  0  0  0  0
  -21.6263   -6.4741   23.8488 C   0  0  0  0  0  0  0  0  0  0  0  0
  -21.6841   -5.3339   24.6502 C   0  0  0  0  0  0  0  0  0  0  0  0
  -25.9466  -27.3898   21.0688 C   0  0  0  0  0  0  0  0  0  0  0  0
  -29.0284  -20.4036   19.5271 C   0  0  0  0  0  0  0  0  0  0  0  0
  -21.3571   -3.9464   22.6994 C   0  0  0  0  0  0  0  0  0  0  0  0
  -24.6986   -9.9728   21.6315 C   0  0  0  0  0  0  0  0  0  0  0  0
  -26.6021  -11.2745   22.7224 C   0  0  0  0  0  0  0  0  0  0  0  0
  -26.1706  -36.3871   23.6016 C   0  0  0  0  0  0  0  0  0  0  0  0
  -25.7887  -29.5166   19.9235 C   0  0  0  0  0  0  0  0  0  0  0  0
  -26.7388  -35.3453   22.8438 C   0  0  0  0  0  0  0  0  0  0  0  0
  -25.3837  -28.6711   20.9662 C   0  0  0  0  0  0  0  0  0  0  0  0
  -29.6051  -20.8040   20.7324 C   0  0  0  0  0  0  0  0  0  0  0  0
  -29.4579  -18.0934   20.0891 C   0  0  0  0  0  0  0  0  0  0  0  0
  -22.4664   -8.3000   21.6630 C   0  0  0  0  0  0  0  0  0  0  0  0
  -26.8897  -26.9509   20.1398 C   0  0  0  0  0  0  0  0  0  0  0  0
  -21.4339   -6.3505   22.4728 C   0  0  0  0  0  0  0  0  0  0  0  0
  -21.5495   -4.0700   24.0755 C   0  0  0  0  0  0  0  0  0  0  0  0
  -28.9548  -19.0483   19.2054 C   0  0  0  0  0  0  0  0  0  0  0  0
  -21.2993   -5.0867   21.8981 C   0  0  0  0  0  0  0  0  0  0  0  0
  -25.8520  -10.8364   21.6146 C   0  0  0  0  0  0  0  0  0  0  0  0
  -27.5837  -12.0676   22.1803 C   0  0  0  0  0  0  0  0  0  0  0  0
  -29.1780  -24.3874   21.1636 C   0  0  0  0  0  0  0  0  0  0  0  0
  -30.4042  -24.1734   21.9444 C   0  0  0  0  0  0  0  0  0  0  0  0
  -28.7263  -23.0982   20.6022 C   0  0  0  0  0  0  0  0  0  0  0  0
  -28.5673  -25.5593   20.9880 C   0  0  0  0  0  0  0  0  0  1  0  0
  -26.4273  -10.9900   24.1167 C   0  0  0  0  0  0  0  0  0  0  0  0
  -25.6916  -31.8970   22.0277 C   0  0  0  0  0  0  0  0  0  0  0  0
  -22.6380  -30.8853   22.4449 C   0  0  0  0  0  0  0  0  0  0  0  0
  -20.3706  -28.3450   22.2153 C   0  0  0  0  0  0  0  0  0  0  0  0
  -28.8064  -16.2512   18.5474 C   0  0  0  0  0  0  0  0  0  0  0  0
  -25.4244  -36.1190   24.8845 C   0  0  0  0  0  0  0  0  0  0  0  0
  -25.1843  -30.8859   19.7747 C   0  0  0  0  0  0  0  0  0  0  0  0
  -24.3646  -29.1035   21.9874 C   0  0  0  0  0  0  0  0  0  0  0  0
  -30.7578  -22.7164   21.8888 C   0  0  0  0  0  0  0  0  0  0  0  0
  -24.9759  -34.6678   25.0365 C   0  0  0  0  0  0  0  0  0  0  0  0
  -29.0112  -12.7555   17.3862 C   0  0  0  0  0  0  0  0  0  0  0  0
  -26.1174  -33.7171   24.6900 C   0  0  0  0  0  0  0  0  0  0  0  0
  -28.2108  -11.9978   18.4442 C   0  0  0  0  0  0  0  0  0  0  0  0
  -28.5092  -14.1858   17.2122 C   0  0  0  0  0  0  0  0  0  0  0  0
  -27.6682  -14.2088   19.5408 C   0  0  0  0  0  0  0  0  0  0  0  0
  -26.5593  -33.8938   23.2323 C   0  0  1  0  0  0  0  0  0  0  0  0
  -24.6199  -31.4351   21.0813 C   0  0  1  0  0  0  0  0  0  0  0  0
  -28.1776  -12.7778   19.7699 C   0  0  1  0  0  0  0  0  0  0  0  0
  -17.9608  -27.8088   22.6656 C   0  0  0  0  0  0  0  0  0  0  0  0
  -23.2395  -30.7004   25.4305 C   0  0  0  0  0  0  0  0  0  0  0  0
  -21.1836  -29.2948   25.6867 C   0  0  0  0  0  0  0  0  0  0  0  0
  -20.9917  -31.6460   24.8758 C   0  0  0  0  0  0  0  0  0  0  0  0
  -30.1333  -15.7362   20.5830 C   0  0  0  0  0  0  0  0  0  0  0  0
  -19.8498  -27.7498   19.3634 C   0  0  0  0  0  0  0  0  0  0  0  0
  -21.9577  -29.8816   23.3442 C   0  0  1  0  0  0  0  0  0  0  0  0
  -18.9684  -28.2957   21.6358 C   0  0  2  0  0  0  0  0  0  0  0  0
  -21.8638  -30.3730   24.8163 C   0  0  0  0  0  0  0  0  0  0  0  0
  -26.3171  -11.3118   20.4563 N   0  0  0  0  0  0  0  0  0  0  0  0
  -27.3700  -12.0570   20.8333 N   0  0  0  0  0  0  0  0  0  0  0  0
  -29.6791  -22.1575   21.0531 N   0  0  0  0  0  0  0  0  0  0  0  0
  -23.8072  -30.4536   21.8028 N   0  0  0  0  0  0  0  0  0  0  0  0
  -28.4442  -14.8902   18.4933 N   0  0  0  0  0  0  0  0  0  0  0  0
  -28.6002  -12.7662   22.7291 N   0  0  0  0  0  0  0  0  0  0  0  0
  -25.3681  -10.1564   24.5008 N   0  0  0  0  0  0  0  0  0  0  0  0
  -25.6261  -33.2418   22.3387 N   0  0  0  0  0  0  0  0  0  0  0  0
  -20.6678  -29.5900   22.7282 N   0  0  0  0  0  0  0  0  0  0  0  0
  -29.3836  -16.6898   19.7587 N   0  0  0  0  0  0  0  0  0  0  0  0
  -18.9243  -27.3762   20.4638 N   0  3  0  0  0  0  0  0  0  0  0  0
  -31.0300  -25.0349   22.5378 O   0  0  0  0  0  0  0  0  0  0  0  0
  -27.7408  -22.9258   19.9063 O   0  0  0  0  0  0  0  0  0  0  0  0
  -27.1778  -11.4744   24.9974 O   0  0  0  0  0  0  0  0  0  0  0  0
  -26.5160  -31.0927   22.4460 O   0  0  0  0  0  0  0  0  0  0  0  0
  -22.1460  -32.0086   22.3112 O   0  0  0  0  0  0  0  0  0  0  0  0
  -21.1254  -27.3750   22.2165 O   0  0  0  0  0  0  0  0  0  0  0  0
  -28.6535  -17.0060   17.5797 O   0  0  0  0  0  0  0  0  0  0  0  0
  -21.3775   -7.4835   21.6785 O   0  0  0  0  0  0  0  0  0  0  0  0
  -27.4260  -25.7051   20.2506 O   0  0  0  0  0  0  0  0  0  1  0  0
  -21.6066   -2.9751   24.8449 F   0  0  0  0  0  0  0  0  0  0  0  0
  -28.3997  -18.6751   18.0434 F   0  0  0  0  0  0  0  0  0  0  0  0
  -21.1154   -4.9616   20.5766 F   0  0  0  0  0  0  0  0  0  0  0  0
  1  2  1  0  0  0  0
  1  5  2  0  0  0  0
  2  6  2  0  0  0  0
  3 10  2  0  0  0  0
  3 18  1  0  0  0  0
  4 11  1  0  0  0  0
  4 18  2  0  0  0  0
  5 20  1  0  0  0  0
  6 22  1  0  0  0  0
  7 12  2  0  0  0  0
  7 21  1  0  0  0  0
  8  9  2  0  0  0  0
  8 24  1  0  0  0  0
  9 25  1  0  0  0  0
 10 26  1  0  0  0  0
 11 26  2  0  0  0  0
 12 27  1  0  0  0  0
 13 14  2  0  0  0  0
 13 28  1  0  0  0  0
 14 29  1  0  0  0  0
 15 23  1  0  0  0  0
 15 27  2  0  0  0  0
 16 24  2  0  0  0  0
 16 30  1  0  0  0  0
 17 29  2  0  0  0  0
 17 31  1  0  0  0  0
 18 32  1  0  0  0  0
 19 32  1  0  0  0  0
 19 33  2  0  0  0  0
 19 38  1  0  0  0  0
 20 22  2  0  0  0  0
 20 43  1  0  0  0  0
 21 23  2  0  0  0  0
 21 44  1  0  0  0  0
 22 53  1  0  0  0  0
 23 45  1  0  0  0  0
 24 67  1  0  0  0  0
 25 30  2  0  0  0  0
 25 74  1  0  0  0  0
 26 83  1  0  0  0  0
 27 84  1  0  0  0  0
 28 31  2  0  0  0  0
 28 83  1  0  0  0  0
 29 85  1  0  0  0  0
 30 86  1  0  0  0  0
 31 87  1  0  0  0  0
 32 65  2  0  0  0  0
 33 66  1  0  0  0  0
 33 70  1  0  0  0  0
 34 35  1  0  0  0  0
 34 36  1  0  0  0  0
 34 37  2  0  0  0  0
 35 46  1  0  0  0  0
 35 76  2  0  0  0  0
 36 67  1  0  0  0  0
 36 77  2  0  0  0  0
 37 84  1  0  0  0  0
 38 71  1  0  0  0  0
 38 78  2  0  0  0  0
 39 54  1  0  0  0  0
 39 72  1  0  0  0  0
 39 79  2  0  0  0  0
 40 62  1  0  0  0  0
 40 68  1  0  0  0  0
 40 80  2  0  0  0  0
 41 63  1  0  0  0  0
 41 73  1  0  0  0  0
 41 81  2  0  0  0  0
 42 69  1  0  0  0  0
 42 74  1  0  0  0  0
 42 82  2  0  0  0  0
 43 47  1  0  0  0  0
 44 54  1  0  0  0  0
 45 68  1  0  0  0  0
 46 67  1  0  0  0  0
 47 49  1  0  0  0  0
 48 50  1  0  0  0  0
 48 51  1  0  0  0  0
 49 53  1  0  0  0  0
 50 55  1  0  0  0  0
 51 69  1  0  0  0  0
 52 55  1  0  0  0  0
 52 69  1  0  0  0  0
 53 72  1  0  0  0  0
 54 68  1  0  0  0  0
 55 66  1  0  0  0  0
 56 63  1  0  0  0  0
 57 64  1  0  0  0  0
 58 64  1  0  0  0  0
 59 64  1  0  0  0  0
 60 74  1  0  0  0  0
 61 75  1  0  0  0  0
 62 64  1  0  0  0  0
 62 73  1  0  0  0  0
 63 75  1  0  0  0  0
 65 66  1  0  0  0  0
M  CHG  1  75   1
M  ISO  4  37 101  42 100  74 100  84 101
M  END
> <Batch ID>
0087

> <Smiles>
CNC(C)C(=O)NC(C(=O)N1Cc2cc([101O:1][101CH:1]=C3C(=O)CN(c4ccc([100N:0](C)[100C:0](=O)N5CCCC(n6nc(-c7ccc(Oc8ccc(F)cc8F)cc7)c(C(N)=O)c6N)C5)c(F)c4)C3=O)ccc2CC1C(=O)NC1CCCc2ccccc21)C(C)(C)C

> <Shape>
0.374

> <Color>
0.112

> <Negative vol penalty>
0.000

$$$$

  -OEChem-04052300203D

 86 95  0     1  0  0  0  0  0999 V2000
  -19.6934  -34.0585   22.3566 C   0  0  0  0  0  0  0  0  0  0  0  0
  -21.0116  -33.7233   22.0644 C   0  0  0  0  0  0  0  0  0  0  0  0
  -36.3142  -25.4588   20.4275 C   0  0  0  0  0  0  0  0  0  0  0  0
  -27.0964  -18.4863   21.4251 C   0  0  0  0  0  0  0  0  0  0  0  0
  -28.1627  -17.1342   19.7304 C   0  0  0  0  0  0  0  0  0  0  0  0
  -18.8798  -33.1539   23.0375 C   0  0  0  0  0  0  0  0  0  0  0  0
  -21.5173  -32.4836   22.4539 C   0  0  0  0  0  0  0  0  0  0  0  0
  -25.6073  -29.0641   19.4399 C   0  0  0  0  0  0  0  0  0  0  0  0
  -36.0225  -24.2537   19.7887 C   0  0  0  0  0  0  0  0  0  0  0  0
  -35.3239  -26.4310   20.5685 C   0  0  0  0  0  0  0  0  0  0  0  0
  -26.0184  -17.6015   21.4528 C   0  0  0  0  0  0  0  0  0  0  0  0
  -27.0847  -16.2493   19.7582 C   0  0  0  0  0  0  0  0  0  0  0  0
  -26.9838  -28.8996   19.5885 C   0  0  0  0  0  0  0  0  0  0  0  0
  -24.7800  -13.4399   19.6420 C   0  0  0  0  0  0  0  0  0  0  0  0
  -25.0616  -12.0740   19.6634 C   0  0  0  0  0  0  0  0  0  0  0  0
  -26.5977  -26.9316   20.9292 C   0  0  0  0  0  0  0  0  0  0  0  0
  -33.7502  -24.9929   19.4316 C   0  0  0  0  0  0  0  0  0  0  0  0
  -26.2676  -12.3551   21.7380 C   0  0  0  0  0  0  0  0  0  0  0  0
  -28.1685  -18.2527   20.5638 C   0  0  0  0  0  0  0  0  0  0  0  0
  -30.4510  -19.1078   21.3165 C   0  0  0  0  0  0  0  0  0  0  0  0
  -19.3729  -31.8986   23.4271 C   0  0  0  0  0  0  0  0  0  0  0  0
  -24.7140  -28.1684   20.0449 C   0  0  0  0  0  0  0  0  0  0  0  0
  -20.7099  -31.5618   23.1419 C   0  0  0  0  0  0  0  0  0  0  0  0
  -25.2104  -27.0855   20.7846 C   0  0  0  0  0  0  0  0  0  0  0  0
  -34.7406  -24.0207   19.2907 C   0  0  0  0  0  0  0  0  0  0  0  0
  -34.0419  -26.1980   20.0705 C   0  0  0  0  0  0  0  0  0  0  0  0
  -26.0126  -16.4830   20.6194 C   0  0  0  0  0  0  0  0  0  0  0  0
  -27.4791  -27.8349   20.3356 C   0  0  0  0  0  0  0  0  0  0  0  0
  -25.2422  -14.2635   20.6686 C   0  0  0  0  0  0  0  0  0  0  0  0
  -25.8054  -11.5315   20.7113 C   0  0  0  0  0  0  0  0  0  0  0  0
  -25.9859  -13.7210   21.7166 C   0  0  0  0  0  0  0  0  0  0  0  0
  -29.2820  -19.1666   20.5343 C   0  0  0  0  0  0  0  0  0  0  0  0
  -31.1889  -20.1938   20.9132 C   0  0  0  0  0  0  0  0  0  0  0  0
  -31.9557  -29.1242   20.7700 C   0  0  0  0  0  0  0  0  0  0  0  0
  -31.0896  -28.3268   20.1408 C   0  0  0  0  0  0  0  0  0  0  0  0
  -33.2441  -28.4059   20.8356 C   0  0  0  0  0  0  0  0  0  0  0  0
  -30.8355  -18.1566   22.3180 C   0  0  0  0  0  0  0  0  0  0  0  0
  -22.4303  -28.4181   22.2417 C   0  0  0  0  0  0  0  0  0  0  0  0
  -21.8920  -25.3129   21.4734 C   0  0  0  0  0  0  0  0  0  0  0  0
  -23.1099  -22.3905   20.1993 C   0  0  0  0  0  0  0  0  0  0  0  0
  -33.1551  -23.1262   16.4576 C   0  0  0  0  0  0  0  0  0  0  0  0
  -18.4697  -30.9727   24.2027 C   0  0  0  0  0  0  0  0  0  0  0  0
  -23.2326  -28.3444   19.8528 C   0  0  0  0  0  0  0  0  0  0  0  0
  -24.2939  -26.0844   21.4373 C   0  0  0  0  0  0  0  0  0  0  0  0
  -31.6955  -27.0281   19.7331 C   0  0  0  0  0  0  0  0  0  0  0  0
  -18.9709  -29.5316   24.2503 C   0  0  0  0  0  0  0  0  0  0  0  0
  -29.9563  -24.1429   18.0183 C   0  0  0  0  0  0  0  0  0  0  0  0
  -20.4568  -29.4941   24.5932 C   0  0  0  0  0  0  0  0  0  0  0  0
  -29.5655  -22.9004   18.8168 C   0  0  0  0  0  0  0  0  0  0  0  0
  -30.8026  -23.7904   16.7988 C   0  0  0  0  0  0  0  0  0  0  0  0
  -31.6220  -21.7425   17.9163 C   0  0  0  0  0  0  0  0  0  0  0  0
  -21.2876  -30.2169   23.5260 C   0  0  1  0  0  0  0  0  0  0  0  0
  -22.4044  -27.6672   20.9404 C   0  0  1  0  0  0  0  0  0  0  0  0
  -30.8076  -22.0671   19.1777 C   0  0  2  0  0  0  0  0  0  0  0  0
  -22.4456  -20.0155   19.7353 C   0  0  0  0  0  0  0  0  0  0  0  0
  -22.1460  -24.6641   24.4440 C   0  0  0  0  0  0  0  0  0  0  0  0
  -22.4265  -22.2551   23.8226 C   0  0  0  0  0  0  0  0  0  0  0  0
  -20.3075  -23.4469   23.2638 C   0  0  0  0  0  0  0  0  0  0  0  0
  -35.6194  -23.0458   16.4699 C   0  0  0  0  0  0  0  0  0  0  0  0
  -23.5754  -22.7058   17.2936 C   0  0  0  0  0  0  0  0  0  0  0  0
  -34.4293  -22.7321   18.6079 C   0  0  0  0  0  0  0  0  0  0  0  0
  -29.6661  -28.6298   19.8446 C   0  0  0  0  0  0  0  0  0  1  0  0
  -22.4106  -23.9840   21.9674 C   0  0  1  0  0  0  0  0  0  0  0  0
  -22.5435  -21.4253   19.1736 C   0  0  2  0  0  0  0  0  0  0  0  0
  -21.8401  -23.6073   23.3639 C   0  0  0  0  0  0  0  0  0  0  0  0
  -29.2733  -20.2077   19.6975 N   0  0  0  0  0  0  0  0  0  0  0  0
  -30.4459  -20.8131   19.9517 N   0  0  0  0  0  0  0  0  0  0  0  0
  -33.0555  -27.1664   20.2117 N   0  0  0  0  0  0  0  0  0  0  0  0
  -22.8534  -26.3030   21.2257 N   0  0  0  0  0  0  0  0  0  0  0  0
  -31.9523  -22.9623   17.1643 N   0  0  0  0  0  0  0  0  0  0  0  0
  -32.3944  -20.6698   21.2908 N   0  0  0  0  0  0  0  0  0  0  0  0
  -29.9595  -17.1020   22.6092 N   0  0  0  0  0  0  0  0  0  0  0  0
  -21.4450  -29.3802   22.3557 N   0  0  0  0  0  0  0  0  0  0  0  0
  -22.1128  -23.0143   20.9189 N   0  0  0  0  0  0  0  0  0  0  0  0
  -34.3463  -22.8783   17.1563 N   0  0  0  0  0  0  0  0  0  0  0  0
  -23.4105  -21.3893   17.9620 N   0  3  0  0  0  0  0  0  0  0  0  0
  -34.2515  -28.8620   21.3517 O   0  0  0  0  0  0  0  0  0  0  0  0
  -31.9163  -18.2486   22.9479 O   0  0  0  0  0  0  0  0  0  0  0  0
  -23.2802  -28.1438   23.0807 O   0  0  0  0  0  0  0  0  0  0  0  0
  -20.6793  -25.4645   21.3063 O   0  0  0  0  0  0  0  0  0  0  0  0
  -24.3164  -22.5702   20.3498 O   0  0  0  0  0  0  0  0  0  0  0  0
  -33.1639  -23.4836   15.2726 O   0  0  0  0  0  0  0  0  0  0  0  0
  -24.9611  -15.6193   20.6464 O   0  0  0  0  0  0  0  0  0  0  0  0
  -28.8222  -27.6723   20.4828 O   0  0  0  0  0  0  0  0  0  1  0  0
  -26.0745  -10.2195   20.7325 F   0  0  0  0  0  0  0  0  0  0  0  0
  -26.4316  -14.5070   22.7062 F   0  0  0  0  0  0  0  0  0  0  0  0
  1  2  1  0  0  0  0
  1  6  2  0  0  0  0
  2  7  2  0  0  0  0
  3  9  1  0  0  0  0
  3 10  2  0  0  0  0
  4 11  2  0  0  0  0
  4 19  1  0  0  0  0
  5 12  1  0  0  0  0
  5 19  2  0  0  0  0
  6 21  1  0  0  0  0
  7 23  1  0  0  0  0
  8 13  2  0  0  0  0
  8 22  1  0  0  0  0
  9 25  2  0  0  0  0
 10 26  1  0  0  0  0
 11 27  1  0  0  0  0
 12 27  2  0  0  0  0
 13 28  1  0  0  0  0
 14 15  2  0  0  0  0
 14 29  1  0  0  0  0
 15 30  1  0  0  0  0
 16 24  1  0  0  0  0
 16 28  2  0  0  0  0
 17 25  1  0  0  0  0
 17 26  2  0  0  0  0
 18 30  2  0  0  0  0
 18 31  1  0  0  0  0
 19 32  1  0  0  0  0
 20 32  1  0  0  0  0
 20 33  2  0  0  0  0
 20 37  1  0  0  0  0
 21 23  2  0  0  0  0
 21 42  1  0  0  0  0
 22 24  2  0  0  0  0
 22 43  1  0  0  0  0
 23 52  1  0  0  0  0
 24 44  1  0  0  0  0
 25 61  1  0  0  0  0
 26 68  1  0  0  0  0
 27 83  1  0  0  0  0
 28 84  1  0  0  0  0
 29 31  2  0  0  0  0
 29 83  1  0  0  0  0
 30 85  1  0  0  0  0
 31 86  1  0  0  0  0
 32 66  2  0  0  0  0
 33 67  1  0  0  0  0
 33 71  1  0  0  0  0
 34 35  2  0  0  0  0
 34 36  1  0  0  0  0
 35 45  1  0  0  0  0
 35 62  1  0  0  0  0
 36 68  1  0  0  0  0
 36 77  2  0  0  0  0
 37 72  1  0  0  0  0
 37 78  2  0  0  0  0
 38 53  1  0  0  0  0
 38 73  1  0  0  0  0
 38 79  2  0  0  0  0
 39 63  1  0  0  0  0
 39 69  1  0  0  0  0
 39 80  2  0  0  0  0
 40 64  1  0  0  0  0
 40 74  1  0  0  0  0
 40 81  2  0  0  0  0
 41 70  1  0  0  0  0
 41 75  1  0  0  0  0
 41 82  2  0  0  0  0
 42 46  1  0  0  0  0
 43 53  1  0  0  0  0
 44 69  1  0  0  0  0
 45 68  1  0  0  0  0
 46 48  1  0  0  0  0
 47 49  1  0  0  0  0
 47 50  1  0  0  0  0
 48 52  1  0  0  0  0
 49 54  1  0  0  0  0
 50 70  1  0  0  0  0
 51 54  1  0  0  0  0
 51 70  1  0  0  0  0
 52 73  1  0  0  0  0
 53 69  1  0  0  0  0
 54 67  1  0  0  0  0
 55 64  1  0  0  0  0
 56 65  1  0  0  0  0
 57 65  1  0  0  0  0
 58 65  1  0  0  0  0
 59 75  1  0  0  0  0
 60 76  1  0  0  0  0
 61 75  1  0  0  0  0
 62 84  1  0  0  0  0
 63 65  1  0  0  0  0
 63 74  1  0  0  0  0
 64 76  1  0  0  0  0
 66 67  1  0  0  0  0
M  CHG  1  76   1
M  ISO  4  41 100  62 101  75 100  84 101
M  END
> <Batch ID>
0087

> <Smiles>
CNC(C)C(=O)NC(C(=O)N1Cc2cc([101O:1][101CH2:1]C3=CC(=O)N(c4cccc(C[100N:0](C)[100C:0](=O)N5CCCC(n6nc(-c7ccc(Oc8ccc(F)cc8F)cc7)c(C(N)=O)c6N)C5)c4)C3)ccc2CC1C(=O)NC1CCCc2ccccc21)C(C)(C)C

> <Shape>
0.188

> <Color>
0.105

> <Negative vol penalty>
0.000

$$$$

  -OEChem-04052300203D

 84 93  0     1  0  0  0  0  0999 V2000
  -27.3783  -37.7506   23.8460 C   0  0  0  0  0  0  0  0  0  0  0  0
  -27.9648  -36.8071   23.0086 C   0  0  0  0  0  0  0  0  0  0  0  0
  -24.1859   -9.2995   22.2135 C   0  0  0  0  0  0  0  0  0  0  0  0
  -22.9231  -11.2834   21.6598 C   0  0  0  0  0  0  0  0  0  0  0  0
  -26.4957  -37.3416   24.8447 C   0  0  0  0  0  0  0  0  0  0  0  0
  -27.6698  -35.4538   23.1702 C   0  0  0  0  0  0  0  0  0  0  0  0
  -26.9110  -29.4153   19.3918 C   0  0  0  0  0  0  0  0  0  0  0  0
  -26.2998  -19.4060   19.1256 C   0  0  0  0  0  0  0  0  0  0  0  0
  -26.5644  -18.0444   18.9786 C   0  0  0  0  0  0  0  0  0  0  0  0
  -23.3208   -9.0459   23.2778 C   0  0  0  0  0  0  0  0  0  0  0  0
  -22.0579  -11.0298   22.7241 C   0  0  0  0  0  0  0  0  0  0  0  0
  -27.3662  -28.0978   19.3639 C   0  0  0  0  0  0  0  0  0  0  0  0
  -20.2302   -7.7480   23.7209 C   0  0  0  0  0  0  0  0  0  0  0  0
  -19.7721   -6.4410   23.8866 C   0  0  0  0  0  0  0  0  0  0  0  0
  -25.7657  -27.5151   21.0721 C   0  0  0  0  0  0  0  0  0  0  0  0
  -28.8456  -18.4116   19.6847 C   0  0  0  0  0  0  0  0  0  0  0  0
  -20.7712   -6.3696   26.0852 C   0  0  0  0  0  0  0  0  0  0  0  0
  -23.9871  -10.4183   21.4045 C   0  0  0  0  0  0  0  0  0  0  0  0
  -24.7521  -10.2291   18.9782 C   0  0  0  0  0  0  0  0  0  0  0  0
  -26.1822  -35.9836   25.0125 C   0  0  0  0  0  0  0  0  0  0  0  0
  -25.8855  -29.7956   20.2693 C   0  0  0  0  0  0  0  0  0  0  0  0
  -26.7831  -35.0262   24.1730 C   0  0  0  0  0  0  0  0  0  0  0  0
  -25.2975  -28.8374   21.1073 C   0  0  0  0  0  0  0  0  0  0  0  0
  -27.3081  -20.2704   19.5521 C   0  0  0  0  0  0  0  0  0  0  0  0
  -27.8373  -17.5472   19.2582 C   0  0  0  0  0  0  0  0  0  0  0  0
  -22.2568   -9.9110   23.5331 C   0  0  0  0  0  0  0  0  0  0  0  0
  -26.7956  -27.1481   20.2062 C   0  0  0  0  0  0  0  0  0  0  0  0
  -20.9588   -8.3658   24.7373 C   0  0  0  0  0  0  0  0  0  0  0  0
  -20.0426   -5.7518   25.0688 C   0  0  0  0  0  0  0  0  0  0  0  0
  -28.5810  -19.7732   19.8317 C   0  0  0  0  0  0  0  0  0  0  0  0
  -21.2293   -7.6766   25.9194 C   0  0  0  0  0  0  0  0  0  0  0  0
  -24.8808  -10.6812   20.3052 C   0  0  0  0  0  0  0  0  0  0  0  0
  -25.8475  -10.7468   18.3314 C   0  0  0  0  0  0  0  0  0  0  0  0
  -26.6694  -23.5750   19.8071 C   0  0  0  0  0  0  0  0  0  0  0  0
  -25.9252  -22.3530   19.4998 C   0  0  0  0  0  0  0  0  0  0  0  0
  -26.3437  -24.8791   19.8622 C   0  0  0  0  0  0  0  0  0  1  0  0
  -23.7334   -9.4141   18.3835 C   0  0  0  0  0  0  0  0  0  0  0  0
  -25.6518  -31.8329   22.6980 C   0  0  0  0  0  0  0  0  0  0  0  0
  -22.5157  -31.0131   22.5759 C   0  0  0  0  0  0  0  0  0  0  0  0
  -20.1531  -28.7222   21.6721 C   0  0  0  0  0  0  0  0  0  0  0  0
  -29.3136  -15.5077   19.3439 C   0  0  0  0  0  0  0  0  0  0  0  0
  -25.2589  -35.5851   26.1365 C   0  0  0  0  0  0  0  0  0  0  0  0
  -25.3875  -31.2149   20.2681 C   0  0  0  0  0  0  0  0  0  0  0  0
  -24.1798  -29.1901   22.0533 C   0  0  0  0  0  0  0  0  0  0  0  0
  -27.9078  -22.7348   20.0196 C   0  0  0  0  0  0  0  0  0  0  0  0
  -24.7098  -34.1674   26.0001 C   0  0  0  0  0  0  0  0  0  0  0  0
  -30.3676  -12.1136   19.1285 C   0  0  0  0  0  0  0  0  0  0  0  0
  -25.8291  -33.1929   25.6477 C   0  0  0  0  0  0  0  0  0  0  0  0
  -29.0676  -11.3201   19.2790 C   0  0  0  0  0  0  0  0  0  0  0  0
  -30.3753  -13.3618   20.0093 C   0  0  0  0  0  0  0  0  0  0  0  0
  -27.9134  -13.4510   19.9957 C   0  0  0  0  0  0  0  0  0  0  0  0
  -26.4690  -33.5514   24.3010 C   0  0  1  0  0  0  0  0  0  0  0  0
  -24.6890  -31.6041   21.5674 C   0  0  1  0  0  0  0  0  0  0  0  0
  -27.8320  -12.2195   19.0791 C   0  0  2  0  0  0  0  0  0  0  0  0
  -17.6776  -28.3154   21.7361 C   0  0  0  0  0  0  0  0  0  0  0  0
  -22.7064  -30.3347   25.5446 C   0  0  0  0  0  0  0  0  0  0  0  0
  -20.5556  -29.0725   25.3230 C   0  0  0  0  0  0  0  0  0  0  0  0
  -20.6109  -31.5266   24.8793 C   0  0  0  0  0  0  0  0  0  0  0  0
  -19.9788  -28.6052   18.7200 C   0  0  0  0  0  0  0  0  0  0  0  0
  -21.6650  -29.9422   23.2149 C   0  0  1  0  0  0  0  0  0  0  0  0
  -18.8391  -28.8709   20.9266 C   0  0  2  0  0  0  0  0  0  0  0  0
  -21.4068  -30.2125   24.7241 C   0  0  0  0  0  0  0  0  0  0  0  0
  -25.9720  -11.4284   20.4918 N   0  0  0  0  0  0  0  0  0  0  0  0
  -26.5390  -11.4499   19.2736 N   0  0  0  0  0  0  0  0  0  0  0  0
  -27.0443  -21.6128   19.6962 N   0  0  0  0  0  0  0  0  0  0  0  0
  -23.7320  -30.5922   22.0197 N   0  0  0  0  0  0  0  0  0  0  0  0
  -29.1773  -14.1672   19.7625 N   0  0  0  0  0  0  0  0  0  0  0  0
  -26.2771  -10.6647   17.0542 N   0  0  0  0  0  0  0  0  0  0  0  0
  -22.6788   -8.9674   19.1913 N   0  0  0  0  0  0  0  0  0  0  0  0
  -28.1059  -16.1640   19.1087 N   0  0  0  0  0  0  0  0  0  0  0  0
  -25.6250  -33.1165   23.2088 N   0  0  0  0  0  0  0  0  0  0  0  0
  -20.4527  -29.8487   22.4087 N   0  0  0  0  0  0  0  0  0  0  0  0
  -18.8959  -28.1444   19.6267 N   0  3  0  0  0  0  0  0  0  0  0  0
  -24.7813  -22.0992   19.1844 O   0  0  0  0  0  0  0  0  0  0  0  0
  -23.7663   -9.0780   17.1754 O   0  0  0  0  0  0  0  0  0  0  0  0
  -26.3652  -30.9125   23.0797 O   0  0  0  0  0  0  0  0  0  0  0  0
  -22.1125  -32.1788   22.5641 O   0  0  0  0  0  0  0  0  0  0  0  0
  -20.8427  -27.7068   21.6104 O   0  0  0  0  0  0  0  0  0  0  0  0
  -30.4206  -16.0264   19.1781 O   0  0  0  0  0  0  0  0  0  0  0  0
  -21.4123   -9.6637   24.5715 O   0  0  0  0  0  0  0  0  0  0  0  0
  -27.2384  -25.8616   20.1816 O   0  0  0  0  0  0  0  0  0  1  0  0
  -19.6013   -4.4972   25.2284 F   0  0  0  0  0  0  0  0  0  0  0  0
  -29.5580  -20.5949   20.2417 F   0  0  0  0  0  0  0  0  0  0  0  0
  -21.9278   -8.2654   26.8999 F   0  0  0  0  0  0  0  0  0  0  0  0
  1  2  1  0  0  0  0
  1  5  2  0  0  0  0
  2  6  2  0  0  0  0
  3 10  2  0  0  0  0
  3 18  1  0  0  0  0
  4 11  1  0  0  0  0
  4 18  2  0  0  0  0
  5 20  1  0  0  0  0
  6 22  1  0  0  0  0
  7 12  2  0  0  0  0
  7 21  1  0  0  0  0
  8  9  2  0  0  0  0
  8 24  1  0  0  0  0
  9 25  1  0  0  0  0
 10 26  1  0  0  0  0
 11 26  2  0  0  0  0
 12 27  1  0  0  0  0
 13 14  2  0  0  0  0
 13 28  1  0  0  0  0
 14 29  1  0  0  0  0
 15 23  1  0  0  0  0
 15 27  2  0  0  0  0
 16 25  2  0  0  0  0
 16 30  1  0  0  0  0
 17 29  2  0  0  0  0
 17 31  1  0  0  0  0
 18 32  1  0  0  0  0
 19 32  1  0  0  0  0
 19 33  2  0  0  0  0
 19 37  1  0  0  0  0
 20 22  2  0  0  0  0
 20 42  1  0  0  0  0
 21 23  2  0  0  0  0
 21 43  1  0  0  0  0
 22 52  1  0  0  0  0
 23 44  1  0  0  0  0
 24 30  2  0  0  0  0
 24 65  1  0  0  0  0
 25 70  1  0  0  0  0
 26 80  1  0  0  0  0
 27 81  1  0  0  0  0
 28 31  2  0  0  0  0
 28 80  1  0  0  0  0
 29 82  1  0  0  0  0
 30 83  1  0  0  0  0
 31 84  1  0  0  0  0
 32 63  2  0  0  0  0
 33 64  1  0  0  0  0
 33 68  1  0  0  0  0
 34 35  1  0  0  0  0
 34 36  2  0  0  0  0
 34 45  1  0  0  0  0
 35 65  1  0  0  0  0
 35 74  2  0  0  0  0
 36 81  1  0  0  0  0
 37 69  1  0  0  0  0
 37 75  2  0  0  0  0
 38 53  1  0  0  0  0
 38 71  1  0  0  0  0
 38 76  2  0  0  0  0
 39 60  1  0  0  0  0
 39 66  1  0  0  0  0
 39 77  2  0  0  0  0
 40 61  1  0  0  0  0
 40 72  1  0  0  0  0
 40 78  2  0  0  0  0
 41 67  1  0  0  0  0
 41 70  1  0  0  0  0
 41 79  2  0  0  0  0
 42 46  1  0  0  0  0
 43 53  1  0  0  0  0
 44 66  1  0  0  0  0
 45 65  1  0  0  0  0
 46 48  1  0  0  0  0
 47 49  1  0  0  0  0
 47 50  1  0  0  0  0
 48 52  1  0  0  0  0
 49 54  1  0  0  0  0
 50 67  1  0  0  0  0
 51 54  1  0  0  0  0
 51 67  1  0  0  0  0
 52 71  1  0  0  0  0
 53 66  1  0  0  0  0
 54 64  1  0  0  0  0
 55 61  1  0  0  0  0
 56 62  1  0  0  0  0
 57 62  1  0  0  0  0
 58 62  1  0  0  0  0
 59 73  1  0  0  0  0
 60 62  1  0  0  0  0
 60 72  1  0  0  0  0
 61 73  1  0  0  0  0
 63 64  1  0  0  0  0
M  CHG  1  73   1
M  ISO  4  36 101  41 100  70 100  81 101
M  END
> <Batch ID>
0087

> <Smiles>
CNC(C)C(=O)NC(C(=O)N1Cc2cc([101O:1][101CH:1]=C3CN(c4ccc([100NH:0][100C:0](=O)N5CCCC(n6nc(-c7ccc(Oc8ccc(F)cc8F)cc7)c(C(N)=O)c6N)C5)cc4F)C3=O)ccc2CC1C(=O)NC1CCCc2ccccc21)C(C)(C)C

> <Shape>
0.297

> <Color>
0.088

> <Negative vol penalty>
0.000

$$$$

  -OEChem-04052300203D

 86 95  0     1  0  0  0  0  0999 V2000
  -26.2550  -37.6320   20.7607 C   0  0  0  0  0  0  0  0  0  0  0  0
  -26.8913  -36.4478   20.4024 C   0  0  0  0  0  0  0  0  0  0  0  0
  -23.7943   -8.9025   19.9827 C   0  0  0  0  0  0  0  0  0  0  0  0
  -23.1903  -10.6396   21.5494 C   0  0  0  0  0  0  0  0  0  0  0  0
  -25.3952  -37.6556   21.8580 C   0  0  0  0  0  0  0  0  0  0  0  0
  -26.6689  -35.2868   21.1420 C   0  0  0  0  0  0  0  0  0  0  0  0
  -26.4508  -29.5495   19.0109 C   0  0  0  0  0  0  0  0  0  0  0  0
  -30.2862  -19.8562   20.1579 C   0  0  0  0  0  0  0  0  0  0  0  0
  -30.2392  -18.4650   20.0693 C   0  0  0  0  0  0  0  0  0  0  0  0
  -22.9810   -8.0007   20.6689 C   0  0  0  0  0  0  0  0  0  0  0  0
  -22.3769   -9.7379   22.2356 C   0  0  0  0  0  0  0  0  0  0  0  0
  -27.3946  -28.5239   18.9799 C   0  0  0  0  0  0  0  0  0  0  0  0
  -19.6833   -7.2846   20.8825 C   0  0  0  0  0  0  0  0  0  0  0  0
  -18.8471   -6.4619   20.1279 C   0  0  0  0  0  0  0  0  0  0  0  0
  -26.4619  -27.6122   21.0092 C   0  0  0  0  0  0  0  0  0  0  0  0
  -28.1738  -20.0016   18.9945 C   0  0  0  0  0  0  0  0  0  0  0  0
  -19.9427   -4.5114   21.0403 C   0  0  0  0  0  0  0  0  0  0  0  0
  -23.8990  -10.2219   20.4230 C   0  0  0  0  0  0  0  0  0  0  0  0
  -24.3683  -11.9899   18.6449 C   0  0  0  0  0  0  0  0  0  0  0  0
  -25.1547  -36.4920   22.6056 C   0  0  0  0  0  0  0  0  0  0  0  0
  -25.5107  -29.6205   20.0490 C   0  0  0  0  0  0  0  0  0  0  0  0
  -25.8062  -35.2952   22.2512 C   0  0  0  0  0  0  0  0  0  0  0  0
  -25.5055  -28.6383   21.0497 C   0  0  0  0  0  0  0  0  0  0  0  0
  -29.2534  -20.6246   19.6205 C   0  0  0  0  0  0  0  0  0  0  0  0
  -29.1596  -17.8421   19.4433 C   0  0  0  0  0  0  0  0  0  0  0  0
  -22.2722   -8.4184   21.7954 C   0  0  0  0  0  0  0  0  0  0  0  0
  -27.4022  -27.5567   19.9807 C   0  0  0  0  0  0  0  0  0  0  0  0
  -20.6493   -6.7207   21.7160 C   0  0  0  0  0  0  0  0  0  0  0  0
  -18.9768   -5.0753   20.2068 C   0  0  0  0  0  0  0  0  0  0  0  0
  -28.1268  -18.6104   18.9058 C   0  0  0  0  0  0  0  0  0  0  0  0
  -20.7790   -5.3341   21.7949 C   0  0  0  0  0  0  0  0  0  0  0  0
  -24.7395  -11.1537   19.7149 C   0  0  0  0  0  0  0  0  0  0  0  0
  -25.5166  -12.6745   18.3298 C   0  0  0  0  0  0  0  0  0  0  0  0
  -28.6813  -24.2095   19.8534 C   0  0  0  0  0  0  0  0  0  0  0  0
  -28.1758  -22.8215   19.7803 C   0  0  0  0  0  0  0  0  0  0  0  0
  -30.4827  -22.7501   19.7337 C   0  0  0  0  0  0  0  0  0  0  0  0
  -27.8704  -25.2671   19.8857 C   0  0  0  0  0  0  0  0  0  1  0  0
  -23.0990  -12.1349   17.9941 C   0  0  0  0  0  0  0  0  0  0  0  0
  -24.8475  -31.7277   22.3345 C   0  0  0  0  0  0  0  0  0  0  0  0
  -22.3447  -29.7428   22.8984 C   0  0  0  0  0  0  0  0  0  0  0  0
  -21.0166  -26.6096   22.6410 C   0  0  0  0  0  0  0  0  0  0  0  0
  -30.0585  -15.5217   19.8357 C   0  0  0  0  0  0  0  0  0  0  0  0
  -24.2538  -36.5776   23.8121 C   0  0  0  0  0  0  0  0  0  0  0  0
  -24.4821  -30.7180   20.0535 C   0  0  0  0  0  0  0  0  0  0  0  0
  -24.5046  -28.6580   22.1750 C   0  0  0  0  0  0  0  0  0  0  0  0
  -30.1628  -24.2167   19.8786 C   0  0  0  0  0  0  0  0  0  0  0  0
  -23.7813  -35.2168   24.3172 C   0  0  0  0  0  0  0  0  0  0  0  0
  -30.2937  -11.9690   19.8475 C   0  0  0  0  0  0  0  0  0  0  0  0
  -24.9512  -34.2413   24.3969 C   0  0  0  0  0  0  0  0  0  0  0  0
  -28.8391  -11.5090   19.7260 C   0  0  0  0  0  0  0  0  0  0  0  0
  -30.4216  -13.2238   20.7093 C   0  0  0  0  0  0  0  0  0  0  0  0
  -28.1065  -13.8837   20.1854 C   0  0  0  0  0  0  0  0  0  0  0  0
  -25.5713  -34.0093   23.0137 C   0  0  1  0  0  0  0  0  0  0  0  0
  -23.8985  -30.9842   21.4377 C   0  0  1  0  0  0  0  0  0  0  0  0
  -27.9199  -12.6603   19.2732 C   0  0  2  0  0  0  0  0  0  0  0  0
  -18.9678  -25.2842   23.2269 C   0  0  0  0  0  0  0  0  0  0  0  0
  -23.2586  -29.6205   25.8070 C   0  0  0  0  0  0  0  0  0  0  0  0
  -21.8069  -27.6026   26.1055 C   0  0  0  0  0  0  0  0  0  0  0  0
  -20.7830  -29.7946   25.4978 C   0  0  0  0  0  0  0  0  0  0  0  0
  -20.4454  -26.0168   19.7982 C   0  0  0  0  0  0  0  0  0  0  0  0
  -22.1182  -28.5274   23.7648 C   0  0  1  0  0  0  0  0  0  0  0  0
  -19.6578  -26.1274   22.1659 C   0  0  2  0  0  0  0  0  0  0  0  0
  -22.0119  -28.8867   25.2738 C   0  0  0  0  0  0  0  0  0  0  0  0
  -26.0232  -11.2927   20.0565 N   0  0  0  0  0  0  0  0  0  0  0  0
  -26.4687  -12.2241   19.1962 N   0  0  0  0  0  0  0  0  0  0  0  0
  -29.3004  -22.0139   19.7083 N   0  0  0  0  0  0  0  0  0  0  0  0
  -23.5231  -29.7547   22.1388 N   0  0  0  0  0  0  0  0  0  0  0  0
  -29.5251  -14.2728   20.2184 N   0  0  0  0  0  0  0  0  0  0  0  0
  -25.7946  -13.6118   17.3989 N   0  0  0  0  0  0  0  0  0  0  0  0
  -22.0248  -11.3550   18.4435 N   0  0  0  0  0  0  0  0  0  0  0  0
  -29.1149  -16.4286   19.3544 N   0  0  0  0  0  0  0  0  0  0  0  0
  -24.7520  -33.1029   22.2381 N   0  0  0  0  0  0  0  0  0  0  0  0
  -20.9404  -27.8558   23.2261 N   0  0  0  0  0  0  0  0  0  0  0  0
  -19.8026  -25.3042   20.9321 N   0  3  0  0  0  0  0  0  0  0  0  0
  -26.9993  -22.4977   19.7794 O   0  0  0  0  0  0  0  0  0  0  0  0
  -31.6263  -22.3152   19.6627 O   0  0  0  0  0  0  0  0  0  0  0  0
  -22.9269  -12.9206   17.0314 O   0  0  0  0  0  0  0  0  0  0  0  0
  -25.6089  -31.1002   23.0612 O   0  0  0  0  0  0  0  0  0  0  0  0
  -21.5034  -30.6449   22.8903 O   0  0  0  0  0  0  0  0  0  0  0  0
  -22.0423  -25.9454   22.5097 O   0  0  0  0  0  0  0  0  0  0  0  0
  -31.2673  -15.7590   19.9024 O   0  0  0  0  0  0  0  0  0  0  0  0
  -21.4783   -7.5388   22.4651 O   0  0  0  0  0  0  0  0  0  0  0  0
  -28.3228  -26.5549   19.9531 O   0  0  0  0  0  0  0  0  0  1  0  0
  -18.1726   -4.2854   19.4833 F   0  0  0  0  0  0  0  0  0  0  0  0
  -27.0848  -18.0225   18.3005 F   0  0  0  0  0  0  0  0  0  0  0  0
  -21.7044   -4.7866   22.5947 F   0  0  0  0  0  0  0  0  0  0  0  0
  1  2  1  0  0  0  0
  1  5  2  0  0  0  0
  2  6  2  0  0  0  0
  3 10  2  0  0  0  0
  3 18  1  0  0  0  0
  4 11  1  0  0  0  0
  4 18  2  0  0  0  0
  5 20  1  0  0  0  0
  6 22  1  0  0  0  0
  7 12  2  0  0  0  0
  7 21  1  0  0  0  0
  8  9  2  0  0  0  0
  8 24  1  0  0  0  0
  9 25  1  0  0  0  0
 10 26  1  0  0  0  0
 11 26  2  0  0  0  0
 12 27  1  0  0  0  0
 13 14  2  0  0  0  0
 13 28  1  0  0  0  0
 14 29  1  0  0  0  0
 15 23  1  0  0  0  0
 15 27  2  0  0  0  0
 16 24  2  0  0  0  0
 16 30  1  0  0  0  0
 17 29  2  0  0  0  0
 17 31  1  0  0  0  0
 18 32  1  0  0  0  0
 19 32  1  0  0  0  0
 19 33  2  0  0  0  0
 19 38  1  0  0  0  0
 20 22  2  0  0  0  0
 20 43  1  0  0  0  0
 21 23  2  0  0  0  0
 21 44  1  0  0  0  0
 22 53  1  0  0  0  0
 23 45  1  0  0  0  0
 24 66  1  0  0  0  0
 25 30  2  0  0  0  0
 25 71  1  0  0  0  0
 26 82  1  0  0  0  0
 27 83  1  0  0  0  0
 28 31  2  0  0  0  0
 28 82  1  0  0  0  0
 29 84  1  0  0  0  0
 30 85  1  0  0  0  0
 31 86  1  0  0  0  0
 32 64  2  0  0  0  0
 33 65  1  0  0  0  0
 33 69  1  0  0  0  0
 34 35  1  0  0  0  0
 34 37  2  0  0  0  0
 34 46  1  0  0  0  0
 35 66  1  0  0  0  0
 35 75  2  0  0  0  0
 36 46  1  0  0  0  0
 36 66  1  0  0  0  0
 36 76  2  0  0  0  0
 37 83  1  0  0  0  0
 38 70  1  0  0  0  0
 38 77  2  0  0  0  0
 39 54  1  0  0  0  0
 39 72  1  0  0  0  0
 39 78  2  0  0  0  0
 40 61  1  0  0  0  0
 40 67  1  0  0  0  0
 40 79  2  0  0  0  0
 41 62  1  0  0  0  0
 41 73  1  0  0  0  0
 41 80  2  0  0  0  0
 42 68  1  0  0  0  0
 42 71  1  0  0  0  0
 42 81  2  0  0  0  0
 43 47  1  0  0  0  0
 44 54  1  0  0  0  0
 45 67  1  0  0  0  0
 47 49  1  0  0  0  0
 48 50  1  0  0  0  0
 48 51  1  0  0  0  0
 49 53  1  0  0  0  0
 50 55  1  0  0  0  0
 51 68  1  0  0  0  0
 52 55  1  0  0  0  0
 52 68  1  0  0  0  0
 53 72  1  0  0  0  0
 54 67  1  0  0  0  0
 55 65  1  0  0  0  0
 56 62  1  0  0  0  0
 57 63  1  0  0  0  0
 58 63  1  0  0  0  0
 59 63  1  0  0  0  0
 60 74  1  0  0  0  0
 61 63  1  0  0  0  0
 61 73  1  0  0  0  0
 62 74  1  0  0  0  0
 64 65  1  0  0  0  0
M  CHG  1  74   1
M  ISO  4  37 101  42 100  71 100  83 101
M  END
> <Batch ID>
0087

> <Smiles>
CNC(C)C(=O)NC(C(=O)N1Cc2cc([101O:1][101CH:1]=C3CC(=O)N(c4ccc([100NH:0][100C:0](=O)N5CCCC(n6nc(-c7ccc(Oc8ccc(F)cc8F)cc7)c(C(N)=O)c6N)C5)c(F)c4)C3=O)ccc2CC1C(=O)NC1CCCc2ccccc21)C(C)(C)C

> <Shape>
0.334

> <Color>
0.108

> <Negative vol penalty>
0.000

$$$$

  -OEChem-04052300203D

 85 93  0     1  0  0  0  0  0999 V2000
  -31.7757  -26.0887   22.9934 C   0  0  0  0  0  0  0  0  0  0  0  0
  -30.4594  -25.6488   22.8966 C   0  0  0  0  0  0  0  0  0  0  0  0
  -29.2417  -26.3062   18.1690 C   0  0  0  0  0  0  0  0  0  0  0  0
  -27.8833  -27.8532   16.9046 C   0  0  0  0  0  0  0  0  0  0  0  0
  -32.7608  -25.5195   22.1876 C   0  0  0  0  0  0  0  0  0  0  0  0
  -30.1273  -24.6401   21.9929 C   0  0  0  0  0  0  0  0  0  0  0  0
  -27.0784  -21.1419   24.0206 C   0  0  0  0  0  0  0  0  0  0  0  0
  -17.9095  -27.4234   21.8608 C   0  0  0  0  0  0  0  0  0  0  0  0
  -18.5002  -26.1755   22.0591 C   0  0  0  0  0  0  0  0  0  0  0  0
  -30.1199  -26.1961   17.0909 C   0  0  0  0  0  0  0  0  0  0  0  0
  -28.7616  -27.7432   15.8265 C   0  0  0  0  0  0  0  0  0  0  0  0
  -25.7282  -21.4675   24.1423 C   0  0  0  0  0  0  0  0  0  0  0  0
  -30.2351  -24.5732   14.1283 C   0  0  0  0  0  0  0  0  0  0  0  0
  -30.6646  -23.2951   13.7711 C   0  0  0  0  0  0  0  0  0  0  0  0
  -20.4593  -27.2489   22.9792 C   0  0  0  0  0  0  0  0  0  0  0  0
  -25.2483  -20.1968   22.1487 C   0  0  0  0  0  0  0  0  0  0  0  0
  -32.9536  -23.9494   14.1826 C   0  0  0  0  0  0  0  0  0  0  0  0
  -28.1234  -27.1347   18.0758 C   0  0  0  0  0  0  0  0  0  0  0  0
  -19.8686  -28.4969   22.7809 C   0  0  0  0  0  0  0  0  0  0  0  0
  -26.4741  -26.2137   19.7903 C   0  0  0  0  0  0  0  0  0  0  0  0
  -32.4423  -24.4965   21.2804 C   0  0  0  0  0  0  0  0  0  0  0  0
  -27.5260  -20.3490   22.9541 C   0  0  0  0  0  0  0  0  0  0  0  0
  -31.1088  -24.0576   21.1732 C   0  0  0  0  0  0  0  0  0  0  0  0
  -26.6043  -19.8605   22.0172 C   0  0  0  0  0  0  0  0  0  0  0  0
  -18.5938  -28.5842   22.2217 C   0  0  0  0  0  0  0  0  0  0  0  0
  -19.7751  -26.0882   22.6183 C   0  0  0  0  0  0  0  0  0  0  0  0
  -29.8799  -26.9146   15.9197 C   0  0  0  0  0  0  0  0  0  0  0  0
  -24.8134  -20.9973   23.2047 C   0  0  0  0  0  0  0  0  0  0  0  0
  -31.1648  -25.5394   14.5126 C   0  0  0  0  0  0  0  0  0  0  0  0
  -32.0238  -22.9832   13.7983 C   0  0  0  0  0  0  0  0  0  0  0  0
  -32.5241  -25.2275   14.5397 C   0  0  0  0  0  0  0  0  0  0  0  0
  -27.2155  -27.2483   19.1889 C   0  0  0  0  0  0  0  0  0  0  0  0
  -25.7727  -26.8334   20.7955 C   0  0  0  0  0  0  0  0  0  0  0  0
  -21.8931  -23.0898   23.3985 C   0  0  0  0  0  0  0  0  0  0  0  0
  -23.1461  -22.6353   23.2952 C   0  0  0  0  0  0  0  0  0  1  0  0
  -20.6193  -29.7168   23.1749 C   0  0  0  0  0  0  0  0  0  0  0  0
  -26.4241  -24.8173   19.4691 C   0  0  0  0  0  0  0  0  0  0  0  0
  -21.6271  -24.5574   23.3577 C   0  0  0  0  0  0  0  0  0  0  0  0
  -29.5280  -20.7816   20.5234 C   0  0  0  0  0  0  0  0  0  0  0  0
  -28.9761  -17.6258   20.0149 C   0  0  0  0  0  0  0  0  0  0  0  0
  -26.9090  -14.9423   20.4307 C   0  0  0  0  0  0  0  0  0  0  0  0
  -22.6826  -31.0072   22.7265 C   0  0  0  0  0  0  0  0  0  0  0  0
  -33.5327  -23.9446   20.3966 C   0  0  0  0  0  0  0  0  0  0  0  0
  -28.9818  -19.9846   22.8520 C   0  0  0  0  0  0  0  0  0  0  0  0
  -27.0308  -18.9890   20.8652 C   0  0  0  0  0  0  0  0  0  0  0  0
  -33.1658  -22.6205   19.7315 C   0  0  0  0  0  0  0  0  0  0  0  0
  -26.1822  -31.5067   22.7052 C   0  0  0  0  0  0  0  0  0  0  0  0
  -31.7638  -22.6933   19.1347 C   0  0  0  0  0  0  0  0  0  0  0  0
  -26.7063  -30.3540   21.8444 C   0  0  0  0  0  0  0  0  0  0  0  0
  -24.8595  -32.0564   22.1731 C   0  0  0  0  0  0  0  0  0  0  0  0
  -24.3347  -29.9060   21.0968 C   0  0  0  0  0  0  0  0  0  0  0  0
  -30.7137  -22.9483   20.2226 C   0  0  1  0  0  0  0  0  0  0  0  0
  -29.4027  -19.5961   21.4380 C   0  0  1  0  0  0  0  0  0  0  0  0
  -25.6288  -29.2717   21.6316 C   0  0  1  0  0  0  0  0  0  0  0  0
  -17.9379  -29.9078   21.9985 C   0  0  0  0  0  0  0  0  0  0  0  0
  -26.7096  -12.5041   19.8717 C   0  0  0  0  0  0  0  0  0  0  0  0
  -28.2265  -18.3473   17.1465 C   0  0  0  0  0  0  0  0  0  0  0  0
  -27.1533  -16.0953   16.9343 C   0  0  0  0  0  0  0  0  0  0  0  0
  -29.6023  -16.2713   17.3745 C   0  0  0  0  0  0  0  0  0  0  0  0
  -26.8645  -14.1719   23.2879 C   0  0  0  0  0  0  0  0  0  0  0  0
  -27.9679  -16.8313   19.2203 C   0  0  1  0  0  0  0  0  0  0  0  0
  -27.1816  -13.5235   20.8967 C   0  0  2  0  0  0  0  0  0  0  0  0
  -28.2294  -16.9043   17.6894 C   0  0  0  0  0  0  0  0  0  0  0  0
  -27.0046  -28.4353   19.7639 N   0  0  0  0  0  0  0  0  0  0  0  0
  -26.1227  -28.1503   20.7371 N   0  0  0  0  0  0  0  0  0  0  0  0
  -28.4658  -18.6656   20.8050 N   0  0  0  0  0  0  0  0  0  0  0  0
  -23.8908  -30.9710   22.0087 N   0  0  0  0  0  0  0  0  0  0  0  0
  -24.8969  -26.3749   21.7148 N   0  0  0  0  0  0  0  0  0  0  0  0
  -25.4711  -24.3793   18.5395 N   0  0  0  0  0  0  0  0  0  0  0  0
  -20.3754  -24.8207   22.8176 N   0  0  0  0  0  0  0  0  0  0  0  0
  -21.8439  -29.9038   22.5333 N   0  0  0  0  0  0  0  0  0  0  0  0
  -30.4365  -21.7300   20.9530 N   0  0  0  0  0  0  0  0  0  0  0  0
  -27.9919  -15.4788   19.7668 N   0  0  0  0  0  0  0  0  0  0  0  0
  -26.4783  -13.2567   22.1832 N   0  3  0  0  0  0  0  0  0  0  0  0
  -20.1196  -30.4900   23.9876 O   0  0  0  0  0  0  0  0  0  0  0  0
  -27.1906  -23.9802   20.0033 O   0  0  0  0  0  0  0  0  0  0  0  0
  -22.4540  -25.3643   23.7660 O   0  0  0  0  0  0  0  0  0  0  0  0
  -28.8517  -20.8314   19.5027 O   0  0  0  0  0  0  0  0  0  0  0  0
  -30.1715  -17.3301   19.9428 O   0  0  0  0  0  0  0  0  0  0  0  0
  -25.8408  -15.5159   20.6321 O   0  0  0  0  0  0  0  0  0  0  0  0
  -22.3922  -31.9236   23.5017 O   0  0  0  0  0  0  0  0  0  0  0  0
  -30.7368  -26.8076   14.8676 O   0  0  0  0  0  0  0  0  0  0  0  0
  -23.4950  -21.3142   23.3208 O   0  0  0  0  0  0  0  0  0  1  0  0
  -32.4360  -21.7553   13.4567 F   0  0  0  0  0  0  0  0  0  0  0  0
  -33.4219  -26.1512   14.9092 F   0  0  0  0  0  0  0  0  0  0  0  0
  1  2  1  0  0  0  0
  1  5  2  0  0  0  0
  2  6  2  0  0  0  0
  3 10  2  0  0  0  0
  3 18  1  0  0  0  0
  4 11  1  0  0  0  0
  4 18  2  0  0  0  0
  5 21  1  0  0  0  0
  6 23  1  0  0  0  0
  7 12  2  0  0  0  0
  7 22  1  0  0  0  0
  8  9  2  0  0  0  0
  8 25  1  0  0  0  0
  9 26  1  0  0  0  0
 10 27  1  0  0  0  0
 11 27  2  0  0  0  0
 12 28  1  0  0  0  0
 13 14  2  0  0  0  0
 13 29  1  0  0  0  0
 14 30  1  0  0  0  0
 15 19  1  0  0  0  0
 15 26  2  0  0  0  0
 16 24  1  0  0  0  0
 16 28  2  0  0  0  0
 17 30  2  0  0  0  0
 17 31  1  0  0  0  0
 18 32  1  0  0  0  0
 19 25  2  0  0  0  0
 19 36  1  0  0  0  0
 20 32  1  0  0  0  0
 20 33  2  0  0  0  0
 20 37  1  0  0  0  0
 21 23  2  0  0  0  0
 21 43  1  0  0  0  0
 22 24  2  0  0  0  0
 22 44  1  0  0  0  0
 23 52  1  0  0  0  0
 24 45  1  0  0  0  0
 25 55  1  0  0  0  0
 26 70  1  0  0  0  0
 27 82  1  0  0  0  0
 28 83  1  0  0  0  0
 29 31  2  0  0  0  0
 29 82  1  0  0  0  0
 30 84  1  0  0  0  0
 31 85  1  0  0  0  0
 32 64  2  0  0  0  0
 33 65  1  0  0  0  0
 33 68  1  0  0  0  0
 34 35  2  0  0  0  0
 34 38  1  0  0  0  0
 35 83  1  0  0  0  0
 36 71  1  0  0  0  0
 36 75  2  0  0  0  0
 37 69  1  0  0  0  0
 37 76  2  0  0  0  0
 38 70  1  0  0  0  0
 38 77  2  0  0  0  0
 39 53  1  0  0  0  0
 39 72  1  0  0  0  0
 39 78  2  0  0  0  0
 40 61  1  0  0  0  0
 40 66  1  0  0  0  0
 40 79  2  0  0  0  0
 41 62  1  0  0  0  0
 41 73  1  0  0  0  0
 41 80  2  0  0  0  0
 42 67  1  0  0  0  0
 42 71  1  0  0  0  0
 42 81  2  0  0  0  0
 43 46  1  0  0  0  0
 44 53  1  0  0  0  0
 45 66  1  0  0  0  0
 46 48  1  0  0  0  0
 47 49  1  0  0  0  0
 47 50  1  0  0  0  0
 48 52  1  0  0  0  0
 49 54  1  0  0  0  0
 50 67  1  0  0  0  0
 51 54  1  0  0  0  0
 51 67  1  0  0  0  0
 52 72  1  0  0  0  0
 53 66  1  0  0  0  0
 54 65  1  0  0  0  0
 56 62  1  0  0  0  0
 57 63  1  0  0  0  0
 58 63  1  0  0  0  0
 59 63  1  0  0  0  0
 60 74  1  0  0  0  0
 61 63  1  0  0  0  0
 61 73  1  0  0  0  0
 62 74  1  0  0  0  0
 64 65  1  0  0  0  0
M  CHG  1  74   1
M  ISO  4  35 101  42 100  71 100  83 101
M  END
> <Batch ID>
0087

> <Smiles>
CNC(C)C(=O)NC(C(=O)N1Cc2cc([101O:1][101CH:1]=CC(=O)Nc3ccc(C)c(C(=O)[100NH:0][100C:0](=O)N4CCCC(n5nc(-c6ccc(Oc7ccc(F)cc7F)cc6)c(C(N)=O)c5N)C4)c3)ccc2CC1C(=O)NC1CCCc2ccccc21)C(C)(C)C

> <Shape>
0.212

> <Color>
0.084

> <Negative vol penalty>
0.000

$$$$

  -OEChem-04052300203D

 88 97  0     1  0  0  0  0  0999 V2000
  -16.5454  -31.6813    5.5743 C   0  0  0  0  0  0  0  0  0  0  0  0
  -16.3808  -30.4411    6.1828 C   0  0  0  0  0  0  0  0  0  0  0  0
  -22.8438  -10.1051   20.1037 C   0  0  0  0  0  0  0  0  0  0  0  0
  -24.2435   -9.5486   21.9927 C   0  0  0  0  0  0  0  0  0  0  0  0
  -26.7478  -17.1314   16.0117 C   0  0  0  0  0  0  0  0  0  0  0  0
  -17.6010  -31.8865    4.6869 C   0  0  0  0  0  0  0  0  0  0  0  0
  -17.2713  -29.4050    5.9034 C   0  0  0  0  0  0  0  0  0  0  0  0
  -21.0825  -26.2739   11.1534 C   0  0  0  0  0  0  0  0  0  0  0  0
  -25.6135  -17.8413   15.6180 C   0  0  0  0  0  0  0  0  0  0  0  0
  -22.1246   -8.9244   20.2887 C   0  0  0  0  0  0  0  0  0  0  0  0
  -23.5242   -8.3678   22.1777 C   0  0  0  0  0  0  0  0  0  0  0  0
  -21.6903  -25.4833   12.1289 C   0  0  0  0  0  0  0  0  0  0  0  0
  -20.5673   -7.4396   23.5251 C   0  0  0  0  0  0  0  0  0  0  0  0
  -20.1878   -7.1109   24.8265 C   0  0  0  0  0  0  0  0  0  0  0  0
  -27.9550  -19.2073   16.2769 C   0  0  0  0  0  0  0  0  0  0  0  0
  -22.7539  -24.1587   10.4078 C   0  0  0  0  0  0  0  0  0  0  0  0
  -21.4465   -5.0543   24.6741 C   0  0  0  0  0  0  0  0  0  0  0  0
  -23.9033  -10.4172   20.9557 C   0  0  0  0  0  0  0  0  0  0  0  0
  -27.9186  -17.8144   16.3413 C   0  0  0  0  0  0  0  0  0  0  0  0
  -24.1476  -12.9520   20.8051 C   0  0  0  0  0  0  0  0  0  0  0  0
  -18.5105  -30.8552    4.4039 C   0  0  0  0  0  0  0  0  0  0  0  0
  -21.3206  -26.0192    9.8000 C   0  0  0  0  0  0  0  0  0  0  0  0
  -18.3393  -29.5962    5.0104 C   0  0  0  0  0  0  0  0  0  0  0  0
  -22.1577  -24.9551    9.4264 C   0  0  0  0  0  0  0  0  0  0  0  0
  -25.6500  -19.2342   15.5536 C   0  0  0  0  0  0  0  0  0  0  0  0
  -26.8208  -19.9173   15.8831 C   0  0  0  0  0  0  0  0  0  0  0  0
  -22.4648   -8.0558   21.3257 C   0  0  0  0  0  0  0  0  0  0  0  0
  -22.5237  -24.4281   11.7570 C   0  0  0  0  0  0  0  0  0  0  0  0
  -21.3864   -6.5756   22.7982 C   0  0  0  0  0  0  0  0  0  0  0  0
  -20.6274   -5.9183   25.4010 C   0  0  0  0  0  0  0  0  0  0  0  0
  -21.8260   -5.3830   23.3728 C   0  0  0  0  0  0  0  0  0  0  0  0
  -24.6470  -11.6364   20.7647 C   0  0  0  0  0  0  0  0  0  0  0  0
  -25.2444  -13.7432   20.5651 C   0  0  0  0  0  0  0  0  0  0  0  0
  -24.4388  -20.7652   14.0364 C   0  0  0  0  0  0  0  0  0  0  0  0
  -23.3666  -21.4608   13.6246 C   0  0  0  0  0  0  0  0  0  0  0  0
  -22.2754  -20.8059   15.7634 C   0  0  0  0  0  0  0  0  0  0  0  0
  -29.1264  -17.0578   16.7603 C   0  0  0  0  0  0  0  0  0  0  0  0
  -22.8117  -13.4173   21.0388 C   0  0  0  0  0  0  0  0  0  0  0  0
  -20.6639  -27.0000    6.2387 C   0  0  0  0  0  0  0  0  0  0  0  0
  -23.6378  -26.2719    6.4285 C   0  0  0  0  0  0  0  0  0  0  0  0
  -27.0156  -26.0271    6.0187 C   0  0  0  0  0  0  0  0  0  0  0  0
  -29.8813  -14.9307   17.7747 C   0  0  0  0  0  0  0  0  0  0  0  0
  -19.6083  -31.1102    3.4016 C   0  0  0  0  0  0  0  0  0  0  0  0
  -20.6384  -26.8065    8.7143 C   0  0  0  0  0  0  0  0  0  0  0  0
  -22.3575  -24.6965    7.9580 C   0  0  0  0  0  0  0  0  0  0  0  0
  -22.0788  -21.4235   14.3922 C   0  0  0  0  0  0  0  0  0  0  0  0
  -23.2487  -19.6515   15.8941 C   0  0  0  0  0  0  0  0  0  0  0  0
  -20.7273  -30.0729    3.4468 C   0  0  0  0  0  0  0  0  0  0  0  0
  -30.1728  -12.5860   20.4042 C   0  0  0  0  0  0  0  0  0  0  0  0
  -20.1467  -28.6630    3.4912 C   0  0  0  0  0  0  0  0  0  0  0  0
  -28.7200  -12.2418   20.7438 C   0  0  0  0  0  0  0  0  0  0  0  0
  -30.3740  -12.7783   18.9018 C   0  0  0  0  0  0  0  0  0  0  0  0
  -28.0068  -13.3837   18.6057 C   0  0  0  0  0  0  0  0  0  0  0  0
  -19.2989  -28.4549    4.7519 C   0  0  1  0  0  0  0  0  0  0  0  0
  -21.5214  -27.0089    7.4699 C   0  0  1  0  0  0  0  0  0  0  0  0
  -27.7377  -13.2493   20.1132 C   0  0  1  0  0  0  0  0  0  0  0  0
  -28.7604  -25.5761    4.2724 C   0  0  0  0  0  0  0  0  0  0  0  0
  -22.9647  -23.2986    6.5292 C   0  0  0  0  0  0  0  0  0  0  0  0
  -25.2344  -22.8252    5.5845 C   0  0  0  0  0  0  0  0  0  0  0  0
  -23.5868  -24.1515    4.2621 C   0  0  0  0  0  0  0  0  0  0  0  0
  -28.2458  -28.6927    6.3933 C   0  0  0  0  0  0  0  0  0  0  0  0
  -23.3836  -22.3007   12.3834 C   0  0  0  0  0  0  0  0  0  1  0  0
  -24.6903  -25.2027    6.2793 C   0  0  1  0  0  0  0  0  0  0  0  0
  -27.9537  -26.6429    4.9963 C   0  0  2  0  0  0  0  0  0  0  0  0
  -24.1162  -23.8843    5.6879 C   0  0  0  0  0  0  0  0  0  0  0  0
  -25.9589  -11.5903   20.5183 N   0  0  0  0  0  0  0  0  0  0  0  0
  -26.2931  -12.8867   20.4016 N   0  0  0  0  0  0  0  0  0  0  0  0
  -24.4827  -19.9378   15.1478 N   0  0  0  0  0  0  0  0  0  0  0  0
  -22.5405  -25.9698    7.2440 N   0  0  0  0  0  0  0  0  0  0  0  0
  -29.4128  -13.7536   18.3839 N   0  0  0  0  0  0  0  0  0  0  0  0
  -26.8794  -21.3278   15.8236 N   0  0  0  0  0  0  0  0  0  0  0  0
  -25.4043  -15.0809   20.4800 N   0  0  0  0  0  0  0  0  0  0  0  0
  -21.8047  -12.4698   21.2683 N   0  0  0  0  0  0  0  0  0  0  0  0
  -28.8850  -15.8175   17.3517 N   0  0  0  0  0  0  0  0  0  0  0  0
  -20.1492  -28.2375    5.9026 N   0  0  0  0  0  0  0  0  0  0  0  0
  -25.7642  -25.7944    5.4886 N   0  0  0  0  0  0  0  0  0  0  0  0
  -28.9031  -27.5790    5.6621 N   0  3  0  0  0  0  0  0  0  0  0  0
  -21.5775  -21.1554   16.7171 O   0  0  0  0  0  0  0  0  0  0  0  0
  -30.2367  -17.5312   16.5347 O   0  0  0  0  0  0  0  0  0  0  0  0
  -22.5165  -14.6364   21.0276 O   0  0  0  0  0  0  0  0  0  0  0  0
  -20.4829  -25.9484    5.6360 O   0  0  0  0  0  0  0  0  0  0  0  0
  -23.7793  -27.3446    5.8347 O   0  0  0  0  0  0  0  0  0  0  0  0
  -27.3597  -25.7742    7.1712 O   0  0  0  0  0  0  0  0  0  0  0  0
  -31.0830  -15.1880   17.6522 O   0  0  0  0  0  0  0  0  0  0  0  0
  -21.7630   -6.9037   21.5067 O   0  0  0  0  0  0  0  0  0  0  0  0
  -23.1175  -23.6630   12.7145 O   0  0  0  0  0  0  0  0  0  1  0  0
  -20.2641   -5.6035   26.6512 F   0  0  0  0  0  0  0  0  0  0  0  0
  -22.6140   -4.5495   22.6798 F   0  0  0  0  0  0  0  0  0  0  0  0
  1  2  1  0  0  0  0
  1  6  2  0  0  0  0
  2  7  2  0  0  0  0
  3 10  2  0  0  0  0
  3 18  1  0  0  0  0
  4 11  1  0  0  0  0
  4 18  2  0  0  0  0
  5  9  2  0  0  0  0
  5 19  1  0  0  0  0
  6 21  1  0  0  0  0
  7 23  1  0  0  0  0
  8 12  2  0  0  0  0
  8 22  1  0  0  0  0
  9 25  1  0  0  0  0
 10 27  1  0  0  0  0
 11 27  2  0  0  0  0
 12 28  1  0  0  0  0
 13 14  2  0  0  0  0
 13 29  1  0  0  0  0
 14 30  1  0  0  0  0
 15 19  2  0  0  0  0
 15 26  1  0  0  0  0
 16 24  1  0  0  0  0
 16 28  2  0  0  0  0
 17 30  2  0  0  0  0
 17 31  1  0  0  0  0
 18 32  1  0  0  0  0
 19 37  1  0  0  0  0
 20 32  1  0  0  0  0
 20 33  2  0  0  0  0
 20 38  1  0  0  0  0
 21 23  2  0  0  0  0
 21 43  1  0  0  0  0
 22 24  2  0  0  0  0
 22 44  1  0  0  0  0
 23 54  1  0  0  0  0
 24 45  1  0  0  0  0
 25 26  2  0  0  0  0
 25 68  1  0  0  0  0
 26 71  1  0  0  0  0
 27 85  1  0  0  0  0
 28 86  1  0  0  0  0
 29 31  2  0  0  0  0
 29 85  1  0  0  0  0
 30 87  1  0  0  0  0
 31 88  1  0  0  0  0
 32 66  2  0  0  0  0
 33 67  1  0  0  0  0
 33 72  1  0  0  0  0
 34 35  2  0  0  0  0
 34 68  1  0  0  0  0
 35 46  1  0  0  0  0
 35 62  1  0  0  0  0
 36 46  1  0  0  0  0
 36 47  1  0  0  0  0
 36 78  2  0  0  0  0
 37 74  1  0  0  0  0
 37 79  2  0  0  0  0
 38 73  1  0  0  0  0
 38 80  2  0  0  0  0
 39 55  1  0  0  0  0
 39 75  1  0  0  0  0
 39 81  2  0  0  0  0
 40 63  1  0  0  0  0
 40 69  1  0  0  0  0
 40 82  2  0  0  0  0
 41 64  1  0  0  0  0
 41 76  1  0  0  0  0
 41 83  2  0  0  0  0
 42 70  1  0  0  0  0
 42 74  1  0  0  0  0
 42 84  2  0  0  0  0
 43 48  1  0  0  0  0
 44 55  1  0  0  0  0
 45 69  1  0  0  0  0
 47 68  1  0  0  0  0
 48 50  1  0  0  0  0
 49 51  1  0  0  0  0
 49 52  1  0  0  0  0
 50 54  1  0  0  0  0
 51 56  1  0  0  0  0
 52 70  1  0  0  0  0
 53 56  1  0  0  0  0
 53 70  1  0  0  0  0
 54 75  1  0  0  0  0
 55 69  1  0  0  0  0
 56 67  1  0  0  0  0
 57 64  1  0  0  0  0
 58 65  1  0  0  0  0
 59 65  1  0  0  0  0
 60 65  1  0  0  0  0
 61 77  1  0  0  0  0
 62 86  1  0  0  0  0
 63 65  1  0  0  0  0
 63 76  1  0  0  0  0
 64 77  1  0  0  0  0
 66 67  1  0  0  0  0
M  CHG  1  77   1
M  ISO  4  42 100  62 101  74 100  86 101
M  END
> <Batch ID>
0087

> <Smiles>
CNC(C)C(=O)NC(C(=O)N1Cc2cc([101O:1][101CH2:1]C3=CN(c4ccc(C(=O)[100NH:0][100C:0](=O)N5CCCC(n6nc(-c7ccc(Oc8ccc(F)cc8F)cc7)c(C(N)=O)c6N)C5)cc4N)CC(=O)C3)ccc2CC1C(=O)NC1CCCc2ccccc21)C(C)(C)C

> <Shape>
0.147

> <Color>
0.166

> <Negative vol penalty>
0.000

$$$$

  -OEChem-04052300203D

 84 93  0     1  0  0  0  0  0999 V2000
  -30.2196  -35.6561   24.4024 C   0  0  0  0  0  0  0  0  0  0  0  0
  -30.3636  -34.7210   23.3825 C   0  0  0  0  0  0  0  0  0  0  0  0
  -24.6686   -9.1852   21.8890 C   0  0  0  0  0  0  0  0  0  0  0  0
  -23.1928  -10.0092   20.1628 C   0  0  0  0  0  0  0  0  0  0  0  0
  -29.3997  -35.3742   25.4943 C   0  0  0  0  0  0  0  0  0  0  0  0
  -29.6887  -33.5029   23.4544 C   0  0  0  0  0  0  0  0  0  0  0  0
  -26.5831  -28.5857   19.2719 C   0  0  0  0  0  0  0  0  0  0  0  0
  -23.5476  -19.6003   16.6442 C   0  0  0  0  0  0  0  0  0  0  0  0
  -23.5827   -8.5952   22.5358 C   0  0  0  0  0  0  0  0  0  0  0  0
  -22.1068   -9.4192   20.8095 C   0  0  0  0  0  0  0  0  0  0  0  0
  -26.5989  -27.2129   19.0295 C   0  0  0  0  0  0  0  0  0  0  0  0
  -21.6928   -5.8121   22.1960 C   0  0  0  0  0  0  0  0  0  0  0  0
  -23.4311  -18.2748   16.2261 C   0  0  0  0  0  0  0  0  0  0  0  0
  -21.8467   -4.5062   22.6611 C   0  0  0  0  0  0  0  0  0  0  0  0
  -25.1473  -26.8674   20.9249 C   0  0  0  0  0  0  0  0  0  0  0  0
  -25.3930  -18.9862   18.0775 C   0  0  0  0  0  0  0  0  0  0  0  0
  -21.4055   -5.2569   24.9148 C   0  0  0  0  0  0  0  0  0  0  0  0
  -24.4736   -9.8923   20.7025 C   0  0  0  0  0  0  0  0  0  0  0  0
  -26.4186   -9.9205   19.0521 C   0  0  0  0  0  0  0  0  0  0  0  0
  -28.7067  -34.1560   25.5750 C   0  0  0  0  0  0  0  0  0  0  0  0
  -25.8568  -29.1096   20.3511 C   0  0  0  0  0  0  0  0  0  0  0  0
  -28.8597  -33.2039   24.5491 C   0  0  0  0  0  0  0  0  0  0  0  0
  -25.1218  -28.2475   21.1774 C   0  0  0  0  0  0  0  0  0  0  0  0
  -24.5286  -19.9561   17.5698 C   0  0  0  0  0  0  0  0  0  0  0  0
  -25.2766  -17.6606   17.6594 C   0  0  0  0  0  0  0  0  0  0  0  0
  -22.3018   -8.7122   21.9960 C   0  0  0  0  0  0  0  0  0  0  0  0
  -25.8833  -26.3532   19.8577 C   0  0  0  0  0  0  0  0  0  0  0  0
  -21.3953   -6.8405   23.0902 C   0  0  0  0  0  0  0  0  0  0  0  0
  -21.7030   -4.2285   24.0205 C   0  0  0  0  0  0  0  0  0  0  0  0
  -24.2956  -17.3049   16.7337 C   0  0  0  0  0  0  0  0  0  0  0  0
  -21.2516   -6.5629   24.4496 C   0  0  0  0  0  0  0  0  0  0  0  0
  -25.5949  -10.5025   20.0343 C   0  0  0  0  0  0  0  0  0  0  0  0
  -27.3282  -10.9017   18.7415 C   0  0  0  0  0  0  0  0  0  0  0  0
  -24.8575  -23.1850   18.4967 C   0  0  0  0  0  0  0  0  0  0  0  0
  -23.9560  -22.3883   17.6636 C   0  0  0  0  0  0  0  0  0  0  0  0
  -24.9399  -24.4934   18.7985 C   0  0  0  0  0  0  0  0  0  1  0  0
  -26.3661   -8.6103   18.4722 C   0  0  0  0  0  0  0  0  0  0  0  0
  -26.6026  -30.7360   22.9783 C   0  0  0  0  0  0  0  0  0  0  0  0
  -23.3814  -30.8875   23.3292 C   0  0  0  0  0  0  0  0  0  0  0  0
  -20.3242  -29.5427   22.6277 C   0  0  0  0  0  0  0  0  0  0  0  0
  -27.1833  -16.8645   19.1006 C   0  0  0  0  0  0  0  0  0  0  0  0
  -27.8691  -33.8769   26.7977 C   0  0  0  0  0  0  0  0  0  0  0  0
  -25.8283  -30.5954   20.5832 C   0  0  0  0  0  0  0  0  0  0  0  0
  -24.3097  -28.7616   22.3370 C   0  0  0  0  0  0  0  0  0  0  0  0
  -25.6135  -21.9217   18.8390 C   0  0  0  0  0  0  0  0  0  0  0  0
  -26.8941  -32.7165   26.6162 C   0  0  0  0  0  0  0  0  0  0  0  0
  -29.5430  -14.6946   20.6500 C   0  0  0  0  0  0  0  0  0  0  0  0
  -27.5965  -31.5246   25.9737 C   0  0  0  0  0  0  0  0  0  0  0  0
  -28.8760  -13.3194   20.5731 C   0  0  0  0  0  0  0  0  0  0  0  0
  -28.5252  -15.8052   20.9040 C   0  0  0  0  0  0  0  0  0  0  0  0
  -26.7261  -14.4603   19.8922 C   0  0  0  0  0  0  0  0  0  0  0  0
  -28.1245  -31.8816   24.5790 C   0  0  1  0  0  0  0  0  0  0  0  0
  -25.4705  -30.9692   22.0183 C   0  0  1  0  0  0  0  0  0  0  0  0
  -27.7032  -13.3170   19.5730 C   0  0  2  0  0  0  0  0  0  0  0  0
  -17.8781  -29.8652   23.0862 C   0  0  0  0  0  0  0  0  0  0  0  0
  -23.7583  -29.7427   26.1323 C   0  0  0  0  0  0  0  0  0  0  0  0
  -21.3132  -29.2058   26.1663 C   0  0  0  0  0  0  0  0  0  0  0  0
  -22.0653  -31.5765   25.9733 C   0  0  0  0  0  0  0  0  0  0  0  0
  -19.7183  -29.9285   19.7566 C   0  0  0  0  0  0  0  0  0  0  0  0
  -22.3368  -30.0250   23.9956 C   0  0  1  0  0  0  0  0  0  0  0  0
  -19.0317  -30.1763   22.1454 C   0  0  2  0  0  0  0  0  0  0  0  0
  -22.3852  -30.1273   25.5463 C   0  0  0  0  0  0  0  0  0  0  0  0
  -25.9499  -11.7560   20.3284 N   0  0  0  0  0  0  0  0  0  0  0  0
  -27.0068  -11.9698   19.5263 N   0  0  0  0  0  0  0  0  0  0  0  0
  -24.6432  -21.2635   17.9821 N   0  0  0  0  0  0  0  0  0  0  0  0
  -24.3186  -30.2216   22.5267 N   0  0  0  0  0  0  0  0  0  0  0  0
  -27.4460  -15.7433   19.9159 N   0  0  0  0  0  0  0  0  0  0  0  0
  -28.3637  -10.9462   17.8766 N   0  0  0  0  0  0  0  0  0  0  0  0
  -25.3675   -7.7274   18.9055 N   0  0  0  0  0  0  0  0  0  0  0  0
  -26.1561  -16.6772   18.1763 N   0  0  0  0  0  0  0  0  0  0  0  0
  -27.0456  -31.8799   23.6144 N   0  0  0  0  0  0  0  0  0  0  0  0
  -21.0566  -30.4094   23.4110 N   0  0  0  0  0  0  0  0  0  0  0  0
  -18.6813  -29.6694   20.7884 N   0  3  0  0  0  0  0  0  0  0  0  0
  -22.9954  -22.6291   16.9624 O   0  0  0  0  0  0  0  0  0  0  0  0
  -27.1906   -8.2280   17.6076 O   0  0  0  0  0  0  0  0  0  0  0  0
  -27.0407  -29.6018   23.1318 O   0  0  0  0  0  0  0  0  0  0  0  0
  -23.3620  -32.1078   23.5081 O   0  0  0  0  0  0  0  0  0  0  0  0
  -20.6496  -28.3926   22.3415 O   0  0  0  0  0  0  0  0  0  0  0  0
  -27.8405  -17.9042   19.1956 O   0  0  0  0  0  0  0  0  0  0  0  0
  -21.2420   -8.1364   22.6267 O   0  0  0  0  0  0  0  0  0  0  0  0
  -25.8976  -25.0127   19.6237 O   0  0  0  0  0  0  0  0  0  1  0  0
  -21.8493   -2.9741   24.4668 F   0  0  0  0  0  0  0  0  0  0  0  0
  -24.1740  -16.0340   16.3249 F   0  0  0  0  0  0  0  0  0  0  0  0
  -20.9646   -7.5465   25.3133 F   0  0  0  0  0  0  0  0  0  0  0  0
  1  2  1  0  0  0  0
  1  5  2  0  0  0  0
  2  6  2  0  0  0  0
  3  9  2  0  0  0  0
  3 18  1  0  0  0  0
  4 10  1  0  0  0  0
  4 18  2  0  0  0  0
  5 20  1  0  0  0  0
  6 22  1  0  0  0  0
  7 11  2  0  0  0  0
  7 21  1  0  0  0  0
  8 13  2  0  0  0  0
  8 24  1  0  0  0  0
  9 26  1  0  0  0  0
 10 26  2  0  0  0  0
 11 27  1  0  0  0  0
 12 14  2  0  0  0  0
 12 28  1  0  0  0  0
 13 30  1  0  0  0  0
 14 29  1  0  0  0  0
 15 23  1  0  0  0  0
 15 27  2  0  0  0  0
 16 24  2  0  0  0  0
 16 25  1  0  0  0  0
 17 29  2  0  0  0  0
 17 31  1  0  0  0  0
 18 32  1  0  0  0  0
 19 32  1  0  0  0  0
 19 33  2  0  0  0  0
 19 37  1  0  0  0  0
 20 22  2  0  0  0  0
 20 42  1  0  0  0  0
 21 23  2  0  0  0  0
 21 43  1  0  0  0  0
 22 52  1  0  0  0  0
 23 44  1  0  0  0  0
 24 65  1  0  0  0  0
 25 30  2  0  0  0  0
 25 70  1  0  0  0  0
 26 80  1  0  0  0  0
 27 81  1  0  0  0  0
 28 31  2  0  0  0  0
 28 80  1  0  0  0  0
 29 82  1  0  0  0  0
 30 83  1  0  0  0  0
 31 84  1  0  0  0  0
 32 63  2  0  0  0  0
 33 64  1  0  0  0  0
 33 68  1  0  0  0  0
 34 35  1  0  0  0  0
 34 36  2  0  0  0  0
 34 45  1  0  0  0  0
 35 65  1  0  0  0  0
 35 74  2  0  0  0  0
 36 81  1  0  0  0  0
 37 69  1  0  0  0  0
 37 75  2  0  0  0  0
 38 53  1  0  0  0  0
 38 71  1  0  0  0  0
 38 76  2  0  0  0  0
 39 60  1  0  0  0  0
 39 66  1  0  0  0  0
 39 77  2  0  0  0  0
 40 61  1  0  0  0  0
 40 72  1  0  0  0  0
 40 78  2  0  0  0  0
 41 67  1  0  0  0  0
 41 70  1  0  0  0  0
 41 79  2  0  0  0  0
 42 46  1  0  0  0  0
 43 53  1  0  0  0  0
 44 66  1  0  0  0  0
 45 65  1  0  0  0  0
 46 48  1  0  0  0  0
 47 49  1  0  0  0  0
 47 50  1  0  0  0  0
 48 52  1  0  0  0  0
 49 54  1  0  0  0  0
 50 67  1  0  0  0  0
 51 54  1  0  0  0  0
 51 67  1  0  0  0  0
 52 71  1  0  0  0  0
 53 66  1  0  0  0  0
 54 64  1  0  0  0  0
 55 61  1  0  0  0  0
 56 62  1  0  0  0  0
 57 62  1  0  0  0  0
 58 62  1  0  0  0  0
 59 73  1  0  0  0  0
 60 62  1  0  0  0  0
 60 72  1  0  0  0  0
 61 73  1  0  0  0  0
 63 64  1  0  0  0  0
M  CHG  1  73   1
M  ISO  4  36 101  41 100  70 100  81 101
M  END
> <Batch ID>
0087

> <Smiles>
CNC(C)C(=O)NC(C(=O)N1Cc2cc([101O:1][101CH:1]=C3CN(c4ccc(F)c([100NH:0][100C:0](=O)N5CCCC(n6nc(-c7ccc(Oc8ccc(F)cc8F)cc7)c(C(N)=O)c6N)C5)c4)C3=O)ccc2CC1C(=O)NC1CCCc2ccccc21)C(C)(C)C

> <Shape>
0.257

> <Color>
0.100

> <Negative vol penalty>
0.000

$$$$

  -OEChem-04052300203D

 88 97  0     1  0  0  0  0  0999 V2000
  -28.6825  -36.8114   19.1915 C   0  0  0  0  0  0  0  0  0  0  0  0
  -28.7850  -35.4736   18.8237 C   0  0  0  0  0  0  0  0  0  0  0  0
  -24.7772   -8.9837   21.6749 C   0  0  0  0  0  0  0  0  0  0  0  0
  -23.1496  -10.4598   20.6704 C   0  0  0  0  0  0  0  0  0  0  0  0
  -28.3281  -37.1491   20.4970 C   0  0  0  0  0  0  0  0  0  0  0  0
  -28.5344  -34.4727   19.7617 C   0  0  0  0  0  0  0  0  0  0  0  0
  -25.9569  -29.0154   18.7223 C   0  0  0  0  0  0  0  0  0  0  0  0
  -25.6357  -20.4082   17.5395 C   0  0  0  0  0  0  0  0  0  0  0  0
  -23.7853   -8.4499   22.4976 C   0  0  0  0  0  0  0  0  0  0  0  0
  -22.1577   -9.9260   21.4931 C   0  0  0  0  0  0  0  0  0  0  0  0
  -26.4967  -27.7442   18.5313 C   0  0  0  0  0  0  0  0  0  0  0  0
  -24.8094  -19.2846   17.5298 C   0  0  0  0  0  0  0  0  0  0  0  0
  -21.2609   -6.2166   22.2284 C   0  0  0  0  0  0  0  0  0  0  0  0
  -21.2111   -4.8296   22.3675 C   0  0  0  0  0  0  0  0  0  0  0  0
  -26.1578  -27.2557   20.8692 C   0  0  0  0  0  0  0  0  0  0  0  0
  -27.3669  -19.1256   18.6328 C   0  0  0  0  0  0  0  0  0  0  0  0
  -21.5576   -5.0561   24.7479 C   0  0  0  0  0  0  0  0  0  0  0  0
  -24.4593   -9.9887   20.7613 C   0  0  0  0  0  0  0  0  0  0  0  0
  -25.8625  -10.0891   18.6333 C   0  0  0  0  0  0  0  0  0  0  0  0
  -28.0636  -36.1518   21.4488 C   0  0  0  0  0  0  0  0  0  0  0  0
  -25.5228  -29.4209   19.9925 C   0  0  0  0  0  0  0  0  0  0  0  0
  -28.1775  -34.7974   21.0815 C   0  0  0  0  0  0  0  0  0  0  0  0
  -25.6105  -28.5316   21.0731 C   0  0  0  0  0  0  0  0  0  0  0  0
  -26.9146  -20.3287   18.0910 C   0  0  0  0  0  0  0  0  0  0  0  0
  -26.5405  -18.0020   18.6231 C   0  0  0  0  0  0  0  0  0  0  0  0
  -22.4756   -8.9210   22.4067 C   0  0  0  0  0  0  0  0  0  0  0  0
  -26.5999  -26.8652   19.6055 C   0  0  0  0  0  0  0  0  0  0  0  0
  -25.2617  -18.0815   18.0716 C   0  0  0  0  0  0  0  0  0  0  0  0
  -21.4591   -7.0234   23.3489 C   0  0  0  0  0  0  0  0  0  0  0  0
  -21.3595   -4.2493   23.6273 C   0  0  0  0  0  0  0  0  0  0  0  0
  -21.6074   -6.4431   24.6087 C   0  0  0  0  0  0  0  0  0  0  0  0
  -25.4836  -10.5409   19.9116 C   0  0  0  0  0  0  0  0  0  0  0  0
  -26.8697  -10.9418   18.2523 C   0  0  0  0  0  0  0  0  0  0  0  0
  -29.4550  -23.6912   18.0239 C   0  0  0  0  0  0  0  0  0  0  0  0
  -29.1312  -21.3096   18.0409 C   0  0  0  0  0  0  0  0  0  0  0  0
  -28.1370  -23.9223   18.0913 C   0  0  0  0  0  0  0  0  0  0  0  0
  -29.9674  -22.3513   18.0088 C   0  0  0  0  0  0  0  0  0  0  0  0
  -27.1788  -22.7594   18.1732 C   0  0  0  0  0  0  0  0  0  0  0  0
  -25.3498   -8.9965   17.8593 C   0  0  0  0  0  0  0  0  0  0  0  0
  -26.3605  -31.7202   22.0211 C   0  0  0  0  0  0  0  0  0  0  0  0
  -23.7914  -30.6497   23.6871 C   0  0  0  0  0  0  0  0  0  0  0  0
  -21.6431  -28.0870   24.3685 C   0  0  0  0  0  0  0  0  0  0  0  0
  -28.2573  -16.5538   19.7639 C   0  0  0  0  0  0  0  0  0  0  0  0
  -27.7301  -36.5656   22.8603 C   0  0  0  0  0  0  0  0  0  0  0  0
  -24.9183  -30.7858   20.1764 C   0  0  0  0  0  0  0  0  0  0  0  0
  -25.1402  -28.9112   22.4527 C   0  0  0  0  0  0  0  0  0  0  0  0
  -27.1156  -35.4446   23.6946 C   0  0  0  0  0  0  0  0  0  0  0  0
  -30.3439  -13.6859   20.0782 C   0  0  0  0  0  0  0  0  0  0  0  0
  -27.9106  -34.1541   23.5229 C   0  0  0  0  0  0  0  0  0  0  0  0
  -29.3696  -12.5128   19.9487 C   0  0  0  0  0  0  0  0  0  0  0  0
  -29.7230  -14.8577   20.8365 C   0  0  0  0  0  0  0  0  0  0  0  0
  -27.4559  -14.1464   20.1856 C   0  0  0  0  0  0  0  0  0  0  0  0
  -27.8892  -33.6829   22.0638 C   0  0  1  0  0  0  0  0  0  0  0  0
  -24.9819  -31.2781   21.6190 C   0  0  1  0  0  0  0  0  0  0  0  0
  -28.0141  -12.9669   19.3726 C   0  0  2  0  0  0  0  0  0  0  0  0
  -19.6693  -27.4996   25.8025 C   0  0  0  0  0  0  0  0  0  0  0  0
  -25.6342  -30.3632   26.1021 C   0  0  0  0  0  0  0  0  0  0  0  0
  -23.8915  -28.9194   27.1729 C   0  0  0  0  0  0  0  0  0  0  0  0
  -23.3725  -31.2960   26.6206 C   0  0  0  0  0  0  0  0  0  0  0  0
  -19.9288  -27.5902   22.0077 C   0  0  0  0  0  0  0  0  0  0  0  0
  -24.5154  -16.1452   16.9098 C   0  0  0  0  0  0  0  0  0  0  0  0
  -27.5544  -25.2885   18.1025 C   0  0  0  0  0  0  0  0  0  1  0  0
  -23.5683  -29.6036   24.7525 C   0  0  1  0  0  0  0  0  0  0  0  0
  -20.1284  -28.0389   24.4567 C   0  0  2  0  0  0  0  0  0  0  0  0
  -24.1274  -30.0388   26.1366 C   0  0  0  0  0  0  0  0  0  0  0  0
  -26.1924  -11.5983   20.3158 N   0  0  0  0  0  0  0  0  0  0  0  0
  -27.0269  -11.8180   19.2856 N   0  0  0  0  0  0  0  0  0  0  0  0
  -27.7463  -21.4602   18.1013 N   0  0  0  0  0  0  0  0  0  0  0  0
  -24.5622  -30.2590   22.5831 N   0  0  0  0  0  0  0  0  0  0  0  0
  -28.4438  -15.2357   20.2317 N   0  0  0  0  0  0  0  0  0  0  0  0
  -27.6273  -11.0198   17.1378 N   0  0  0  0  0  0  0  0  0  0  0  0
  -24.3146   -8.2221   18.4005 N   0  0  0  0  0  0  0  0  0  0  0  0
  -27.0132  -16.7873   19.1790 N   0  0  0  0  0  0  0  0  0  0  0  0
  -26.6246  -33.0503   21.7555 N   0  0  0  0  0  0  0  0  0  0  0  0
  -22.1380  -29.3163   24.7494 N   0  0  0  0  0  0  0  0  0  0  0  0
  -19.5747  -27.1628   23.3857 N   0  3  0  0  0  0  0  0  0  0  0  0
  -25.9698  -22.9749   18.2767 O   0  0  0  0  0  0  0  0  0  0  0  0
  -25.8077   -8.7051   16.7284 O   0  0  0  0  0  0  0  0  0  0  0  0
  -27.1273  -30.9146   22.5356 O   0  0  0  0  0  0  0  0  0  0  0  0
  -23.2939  -31.7699   23.8259 O   0  0  0  0  0  0  0  0  0  0  0  0
  -22.3198  -27.1287   24.0021 O   0  0  0  0  0  0  0  0  0  0  0  0
  -29.1465  -17.4047   19.8495 O   0  0  0  0  0  0  0  0  0  0  0  0
  -31.3349  -22.2383   17.9487 O   0  0  0  0  0  0  0  0  0  0  0  0
  -21.5074   -8.4002   23.2092 O   0  0  0  0  0  0  0  0  0  0  0  0
  -24.4385  -16.9952   18.0520 O   0  0  0  0  0  0  0  0  0  0  0  0
  -27.1270  -25.6241   19.4220 O   0  0  0  0  0  0  0  0  0  1  0  0
  -21.3101   -2.9175   23.7610 F   0  0  0  0  0  0  0  0  0  0  0  0
  -21.7969   -7.2130   25.6890 F   0  0  0  0  0  0  0  0  0  0  0  0
  1  2  1  0  0  0  0
  1  5  2  0  0  0  0
  2  6  2  0  0  0  0
  3  9  2  0  0  0  0
  3 18  1  0  0  0  0
  4 10  1  0  0  0  0
  4 18  2  0  0  0  0
  5 20  1  0  0  0  0
  6 22  1  0  0  0  0
  7 11  2  0  0  0  0
  7 21  1  0  0  0  0
  8 12  2  0  0  0  0
  8 24  1  0  0  0  0
  9 26  1  0  0  0  0
 10 26  2  0  0  0  0
 11 27  1  0  0  0  0
 12 28  1  0  0  0  0
 13 14  2  0  0  0  0
 13 29  1  0  0  0  0
 14 30  1  0  0  0  0
 15 23  1  0  0  0  0
 15 27  2  0  0  0  0
 16 24  2  0  0  0  0
 16 25  1  0  0  0  0
 17 30  2  0  0  0  0
 17 31  1  0  0  0  0
 18 32  1  0  0  0  0
 19 32  1  0  0  0  0
 19 33  2  0  0  0  0
 19 39  1  0  0  0  0
 20 22  2  0  0  0  0
 20 44  1  0  0  0  0
 21 23  2  0  0  0  0
 21 45  1  0  0  0  0
 22 53  1  0  0  0  0
 23 46  1  0  0  0  0
 24 68  1  0  0  0  0
 25 28  2  0  0  0  0
 25 73  1  0  0  0  0
 26 84  1  0  0  0  0
 27 86  1  0  0  0  0
 28 85  1  0  0  0  0
 29 31  2  0  0  0  0
 29 84  1  0  0  0  0
 30 87  1  0  0  0  0
 31 88  1  0  0  0  0
 32 66  2  0  0  0  0
 33 67  1  0  0  0  0
 33 71  1  0  0  0  0
 34 36  2  0  0  0  0
 34 37  1  0  0  0  0
 35 37  2  0  0  0  0
 35 68  1  0  0  0  0
 36 38  1  0  0  0  0
 36 62  1  0  0  0  0
 37 83  1  0  0  0  0
 38 68  1  0  0  0  0
 38 77  2  0  0  0  0
 39 72  1  0  0  0  0
 39 78  2  0  0  0  0
 40 54  1  0  0  0  0
 40 74  1  0  0  0  0
 40 79  2  0  0  0  0
 41 63  1  0  0  0  0
 41 69  1  0  0  0  0
 41 80  2  0  0  0  0
 42 64  1  0  0  0  0
 42 75  1  0  0  0  0
 42 81  2  0  0  0  0
 43 70  1  0  0  0  0
 43 73  1  0  0  0  0
 43 82  2  0  0  0  0
 44 47  1  0  0  0  0
 45 54  1  0  0  0  0
 46 69  1  0  0  0  0
 47 49  1  0  0  0  0
 48 50  1  0  0  0  0
 48 51  1  0  0  0  0
 49 53  1  0  0  0  0
 50 55  1  0  0  0  0
 51 70  1  0  0  0  0
 52 55  1  0  0  0  0
 52 70  1  0  0  0  0
 53 74  1  0  0  0  0
 54 69  1  0  0  0  0
 55 67  1  0  0  0  0
 56 64  1  0  0  0  0
 57 65  1  0  0  0  0
 58 65  1  0  0  0  0
 59 65  1  0  0  0  0
 60 76  1  0  0  0  0
 61 85  1  0  0  0  0
 62 86  1  0  0  0  0
 63 65  1  0  0  0  0
 63 75  1  0  0  0  0
 64 76  1  0  0  0  0
 66 67  1  0  0  0  0
M  CHG  1  76   1
M  ISO  4  43 100  62 101  73 100  86 101
M  END
> <Batch ID>
0087

> <Smiles>
CNC(C)C(=O)NC(C(=O)N1Cc2cc([101O:1][101CH2:1]C3=CC(=O)CN(c4ccc(OC)c([100NH:0][100C:0](=O)N5CCCC(n6nc(-c7ccc(Oc8ccc(F)cc8F)cc7)c(C(N)=O)c6N)C5)c4)C3=O)ccc2CC1C(=O)NC1CCCc2ccccc21)C(C)(C)C

> <Shape>
0.274

> <Color>
0.099

> <Negative vol penalty>
0.000

$$$$

  -OEChem-04052300203D

 86 95  0     1  0  0  0  0  0999 V2000
  -29.2393  -35.8105   21.5661 C   0  0  0  0  0  0  0  0  0  0  0  0
  -29.2039  -34.4592   21.8950 C   0  0  0  0  0  0  0  0  0  0  0  0
  -23.5259  -10.4436   21.4546 C   0  0  0  0  0  0  0  0  0  0  0  0
  -25.0214   -8.5738   21.7778 C   0  0  0  0  0  0  0  0  0  0  0  0
  -28.0795  -36.5791   21.6551 C   0  0  0  0  0  0  0  0  0  0  0  0
  -28.0087  -33.8760   22.3143 C   0  0  0  0  0  0  0  0  0  0  0  0
  -27.1535  -29.3982   20.1091 C   0  0  0  0  0  0  0  0  0  0  0  0
  -28.5725  -18.8427   19.0298 C   0  0  0  0  0  0  0  0  0  0  0  0
  -28.4888  -20.1267   19.5768 C   0  0  0  0  0  0  0  0  0  0  0  0
  -22.4401   -9.5688   21.4177 C   0  0  0  0  0  0  0  0  0  0  0  0
  -23.9356   -7.6990   21.7410 C   0  0  0  0  0  0  0  0  0  0  0  0
  -27.8549  -28.3000   20.6048 C   0  0  0  0  0  0  0  0  0  0  0  0
  -21.5197   -5.0050   22.0931 C   0  0  0  0  0  0  0  0  0  0  0  0
  -21.4642   -3.9982   23.0568 C   0  0  0  0  0  0  0  0  0  0  0  0
  -29.9033  -19.4802   21.4298 C   0  0  0  0  0  0  0  0  0  0  0  0
  -30.6730  -17.0055   21.3180 C   0  0  0  0  0  0  0  0  0  0  0  0
  -25.9091  -27.6340   21.8656 C   0  0  0  0  0  0  0  0  0  0  0  0
  -21.4317   -5.6695   24.8011 C   0  0  0  0  0  0  0  0  0  0  0  0
  -30.0021  -18.1781   20.8972 C   0  0  0  0  0  0  0  0  0  0  0  0
  -24.8166   -9.9461   21.6345 C   0  0  0  0  0  0  0  0  0  0  0  0
  -26.4839  -11.4810   22.8058 C   0  0  0  0  0  0  0  0  0  0  0  0
  -26.8673  -36.0028   22.0665 C   0  0  0  0  0  0  0  0  0  0  0  0
  -25.8258  -29.6290   20.4970 C   0  0  0  0  0  0  0  0  0  0  0  0
  -26.8318  -34.6379   22.4102 C   0  0  0  0  0  0  0  0  0  0  0  0
  -25.1922  -28.7345   21.3713 C   0  0  0  0  0  0  0  0  0  0  0  0
  -29.3448  -17.8746   19.6986 C   0  0  0  0  0  0  0  0  0  0  0  0
  -29.1460  -20.4440   20.7596 C   0  0  0  0  0  0  0  0  0  0  0  0
  -22.6449   -8.1965   21.5610 C   0  0  0  0  0  0  0  0  0  0  0  0
  -27.2336  -27.4193   21.4855 C   0  0  0  0  0  0  0  0  0  0  0  0
  -21.5313   -6.3442   22.4833 C   0  0  0  0  0  0  0  0  0  0  0  0
  -21.4201   -4.3304   24.4108 C   0  0  0  0  0  0  0  0  0  0  0  0
  -21.4872   -6.6764   23.8373 C   0  0  0  0  0  0  0  0  0  0  0  0
  -25.9387  -10.8492   21.6721 C   0  0  0  0  0  0  0  0  0  0  0  0
  -27.5261  -12.2285   22.3145 C   0  0  0  0  0  0  0  0  0  0  0  0
  -30.4269  -16.0289   20.3854 C   0  0  0  0  0  0  0  0  0  0  0  0
  -27.8519  -25.1751   21.2577 C   0  0  0  0  0  0  0  0  0  1  0  0
  -26.0840  -11.3993   24.1803 C   0  0  0  0  0  0  0  0  0  0  0  0
  -28.4766  -24.0504   21.6271 C   0  0  0  0  0  0  0  0  0  0  0  0
  -28.3388  -22.8270   20.7713 C   0  0  0  0  0  0  0  0  0  0  0  0
  -24.3124  -31.9608   22.0385 C   0  0  0  0  0  0  0  0  0  0  0  0
  -21.6774  -30.2381   21.2566 C   0  0  0  0  0  0  0  0  0  0  0  0
  -20.3361  -27.2130   20.4223 C   0  0  0  0  0  0  0  0  0  0  0  0
  -29.1728  -15.8582   18.2377 C   0  0  0  0  0  0  0  0  0  0  0  0
  -25.6502  -36.8846   22.1926 C   0  0  0  0  0  0  0  0  0  0  0  0
  -25.0745  -30.8034   19.9324 C   0  0  0  0  0  0  0  0  0  0  0  0
  -23.7621  -28.9263   21.8030 C   0  0  0  0  0  0  0  0  0  0  0  0
  -24.3408  -36.1056   22.2861 C   0  0  0  0  0  0  0  0  0  0  0  0
  -29.7427  -12.2501   17.7809 C   0  0  0  0  0  0  0  0  0  0  0  0
  -24.4708  -34.9609   23.2859 C   0  0  0  0  0  0  0  0  0  0  0  0
  -28.7953  -11.6210   18.8013 C   0  0  0  0  0  0  0  0  0  0  0  0
  -29.2301  -13.6005   17.2899 C   0  0  0  0  0  0  0  0  0  0  0  0
  -27.9917  -13.9398   19.4021 C   0  0  0  0  0  0  0  0  0  0  0  0
  -25.5489  -33.9635   22.8454 C   0  0  1  0  0  0  0  0  0  0  0  0
  -23.8910  -31.2271   20.7969 C   0  0  1  0  0  0  0  0  0  0  0  0
  -28.5003  -12.5986   19.9522 C   0  0  1  0  0  0  0  0  0  0  0  0
  -18.1480  -26.1104   19.8801 C   0  0  0  0  0  0  0  0  0  0  0  0
  -20.9278  -30.2769   24.2141 C   0  0  0  0  0  0  0  0  0  0  0  0
  -19.3176  -28.4146   23.7588 C   0  0  0  0  0  0  0  0  0  0  0  0
  -19.0102  -30.6265   22.6472 C   0  0  0  0  0  0  0  0  0  0  0  0
  -21.2621  -26.4412   17.7193 C   0  0  0  0  0  0  0  0  0  0  0  0
  -20.9000  -29.1191   21.9065 C   0  0  1  0  0  0  0  0  0  0  0  0
  -19.3776  -26.8063   19.3176 C   0  0  2  0  0  0  0  0  0  0  0  0
  -20.0665  -29.6065   23.1252 C   0  0  0  0  0  0  0  0  0  0  0  0
  -26.5813  -11.1678   20.5453 N   0  0  0  0  0  0  0  0  0  0  0  0
  -29.5881  -16.5293   19.4043 N   0  0  0  0  0  0  0  0  0  0  0  0
  -27.5410  -12.0080   20.9686 N   0  0  0  0  0  0  0  0  0  0  0  0
  -23.0716  -30.0928   21.2285 N   0  0  0  0  0  0  0  0  0  0  0  0
  -28.9240  -14.4948   18.4054 N   0  0  0  0  0  0  0  0  0  0  0  0
  -28.4220  -13.0466   22.9066 N   0  0  0  0  0  0  0  0  0  0  0  0
  -24.9927  -10.5847   24.5114 N   0  0  0  0  0  0  0  0  0  0  0  0
  -29.0466  -21.7331   21.2850 N   0  0  0  0  0  0  0  0  0  0  0  0
  -25.0452  -33.1064   21.7937 N   0  0  0  0  0  0  0  0  0  0  0  0
  -20.1068  -28.5044   20.8476 N   0  0  0  0  0  0  0  0  0  0  0  0
  -20.0490  -25.8771   18.3653 N   0  3  0  0  0  0  0  0  0  0  0  0
  -26.6666  -12.0430   25.0857 O   0  0  0  0  0  0  0  0  0  0  0  0
  -27.6657  -22.8476   19.7464 O   0  0  0  0  0  0  0  0  0  0  0  0
  -23.9949  -31.5209   23.1373 O   0  0  0  0  0  0  0  0  0  0  0  0
  -21.0695  -31.2022   20.7847 O   0  0  0  0  0  0  0  0  0  0  0  0
  -21.1992  -26.4591   20.8663 O   0  0  0  0  0  0  0  0  0  0  0  0
  -29.1321  -16.4928   17.1912 O   0  0  0  0  0  0  0  0  0  0  0  0
  -31.0155  -14.8441   20.2897 O   0  0  0  0  0  0  0  0  0  0  0  0
  -29.2476  -23.9704   22.7690 O   0  0  0  0  0  0  0  0  0  0  0  0
  -21.5856   -7.3426   21.5253 O   0  0  0  0  0  0  0  0  0  0  0  0
  -27.9210  -26.3395   21.9748 O   0  0  0  0  0  0  0  0  0  1  0  0
  -21.3653   -3.3635   25.3361 F   0  0  0  0  0  0  0  0  0  0  0  0
  -21.4969   -7.9612   24.2183 F   0  0  0  0  0  0  0  0  0  0  0  0
  1  2  1  0  0  0  0
  1  5  2  0  0  0  0
  2  6  2  0  0  0  0
  3 10  2  0  0  0  0
  3 20  1  0  0  0  0
  4 11  1  0  0  0  0
  4 20  2  0  0  0  0
  5 22  1  0  0  0  0
  6 24  1  0  0  0  0
  7 12  2  0  0  0  0
  7 23  1  0  0  0  0
  8  9  2  0  0  0  0
  8 26  1  0  0  0  0
  9 27  1  0  0  0  0
 10 28  1  0  0  0  0
 11 28  2  0  0  0  0
 12 29  1  0  0  0  0
 13 14  2  0  0  0  0
 13 30  1  0  0  0  0
 14 31  1  0  0  0  0
 15 19  1  0  0  0  0
 15 27  2  0  0  0  0
 16 19  1  0  0  0  0
 16 35  2  0  0  0  0
 17 25  1  0  0  0  0
 17 29  2  0  0  0  0
 18 31  2  0  0  0  0
 18 32  1  0  0  0  0
 19 26  2  0  0  0  0
 20 33  1  0  0  0  0
 21 33  1  0  0  0  0
 21 34  2  0  0  0  0
 21 37  1  0  0  0  0
 22 24  2  0  0  0  0
 22 44  1  0  0  0  0
 23 25  2  0  0  0  0
 23 45  1  0  0  0  0
 24 53  1  0  0  0  0
 25 46  1  0  0  0  0
 26 65  1  0  0  0  0
 27 71  1  0  0  0  0
 28 83  1  0  0  0  0
 29 84  1  0  0  0  0
 30 32  2  0  0  0  0
 30 83  1  0  0  0  0
 31 85  1  0  0  0  0
 32 86  1  0  0  0  0
 33 64  2  0  0  0  0
 34 66  1  0  0  0  0
 34 69  1  0  0  0  0
 35 65  1  0  0  0  0
 35 81  1  0  0  0  0
 36 38  2  0  0  0  0
 36 84  1  0  0  0  0
 37 70  1  0  0  0  0
 37 75  2  0  0  0  0
 38 39  1  0  0  0  0
 38 82  1  0  0  0  0
 39 71  1  0  0  0  0
 39 76  2  0  0  0  0
 40 54  1  0  0  0  0
 40 72  1  0  0  0  0
 40 77  2  0  0  0  0
 41 61  1  0  0  0  0
 41 67  1  0  0  0  0
 41 78  2  0  0  0  0
 42 62  1  0  0  0  0
 42 73  1  0  0  0  0
 42 79  2  0  0  0  0
 43 65  1  0  0  0  0
 43 68  1  0  0  0  0
 43 80  2  0  0  0  0
 44 47  1  0  0  0  0
 45 54  1  0  0  0  0
 46 67  1  0  0  0  0
 47 49  1  0  0  0  0
 48 50  1  0  0  0  0
 48 51  1  0  0  0  0
 49 53  1  0  0  0  0
 50 55  1  0  0  0  0
 51 68  1  0  0  0  0
 52 55  1  0  0  0  0
 52 68  1  0  0  0  0
 53 72  1  0  0  0  0
 54 67  1  0  0  0  0
 55 66  1  0  0  0  0
 56 62  1  0  0  0  0
 57 63  1  0  0  0  0
 58 63  1  0  0  0  0
 59 63  1  0  0  0  0
 60 74  1  0  0  0  0
 61 63  1  0  0  0  0
 61 73  1  0  0  0  0
 62 74  1  0  0  0  0
 64 66  1  0  0  0  0
M  CHG  1  74   1
M  ISO  4  36 101  43 100  65 100  84 101
M  END
> <Batch ID>
0087

> <Smiles>
CNC(C)C(=O)NC(C(=O)N1Cc2cc([101O:1][101CH2:1]C(=O)C(=O)Nc3ccc4c(c3)CC(=O)[100N:0]4[100C:0](=O)N3CCCC(n4nc(-c5ccc(Oc6ccc(F)cc6F)cc5)c(C(N)=O)c4N)C3)ccc2CC1C(=O)NC1CCCc2ccccc21)C(C)(C)C

> <Shape>
0.350

> <Color>
0.101

> <Negative vol penalty>
0.000

$$$$

  -OEChem-04052300203D

 85 93  0     1  0  0  0  0  0999 V2000
  -31.1332  -33.7520   15.6942 C   0  0  0  0  0  0  0  0  0  0  0  0
  -30.7761  -32.4348   15.4243 C   0  0  0  0  0  0  0  0  0  0  0  0
  -22.7825  -12.2540   18.4481 C   0  0  0  0  0  0  0  0  0  0  0  0
  -22.6061  -10.8649   20.4169 C   0  0  0  0  0  0  0  0  0  0  0  0
  -31.1714  -34.2068   17.0116 C   0  0  0  0  0  0  0  0  0  0  0  0
  -30.4581  -31.5712   16.4720 C   0  0  0  0  0  0  0  0  0  0  0  0
  -26.2201  -26.0108   18.0329 C   0  0  0  0  0  0  0  0  0  0  0  0
  -21.6760  -11.6100   17.8945 C   0  0  0  0  0  0  0  0  0  0  0  0
  -21.4996  -10.2209   19.8634 C   0  0  0  0  0  0  0  0  0  0  0  0
  -26.2851  -24.7213   18.5590 C   0  0  0  0  0  0  0  0  0  0  0  0
  -18.3120  -11.7167   18.2182 C   0  0  0  0  0  0  0  0  0  0  0  0
  -17.3327  -12.5096   17.6200 C   0  0  0  0  0  0  0  0  0  0  0  0
  -29.4286  -18.1612   19.7216 C   0  0  0  0  0  0  0  0  0  0  0  0
  -31.1683  -19.0019   21.1720 C   0  0  0  0  0  0  0  0  0  0  0  0
  -26.3086  -25.6391   20.7898 C   0  0  0  0  0  0  0  0  0  0  0  0
  -17.6953  -11.3726   15.5193 C   0  0  0  0  0  0  0  0  0  0  0  0
  -23.2476  -11.8814   19.7093 C   0  0  0  0  0  0  0  0  0  0  0  0
  -30.6343  -17.9723   20.3971 C   0  0  0  0  0  0  0  0  0  0  0  0
  -28.7570  -19.3797   19.8209 C   0  0  0  0  0  0  0  0  0  0  0  0
  -24.3876  -13.6962   21.0930 C   0  0  0  0  0  0  0  0  0  0  0  0
  -30.8444  -33.3510   18.0753 C   0  0  0  0  0  0  0  0  0  0  0  0
  -26.2098  -27.1264   18.8824 C   0  0  0  0  0  0  0  0  0  0  0  0
  -30.4934  -32.0146   17.8050 C   0  0  0  0  0  0  0  0  0  0  0  0
  -26.2408  -26.9416   20.2720 C   0  0  0  0  0  0  0  0  0  0  0  0
  -30.4966  -20.2204   21.2714 C   0  0  0  0  0  0  0  0  0  0  0  0
  -21.0345  -10.5934   18.6022 C   0  0  0  0  0  0  0  0  0  0  0  0
  -26.3323  -24.5354   19.9375 C   0  0  0  0  0  0  0  0  0  0  0  0
  -18.9831  -10.7518   17.4669 C   0  0  0  0  0  0  0  0  0  0  0  0
  -29.2910  -20.4093   20.5958 C   0  0  0  0  0  0  0  0  0  0  0  0
  -17.0243  -12.3375   16.2706 C   0  0  0  0  0  0  0  0  0  0  0  0
  -18.6747  -10.5798   16.1175 C   0  0  0  0  0  0  0  0  0  0  0  0
  -24.3910  -12.5459   20.2814 C   0  0  0  0  0  0  0  0  0  0  0  0
  -25.7131  -13.9229   21.3727 C   0  0  0  0  0  0  0  0  0  0  0  0
  -26.4193  -18.8178   19.3362 C   0  0  0  0  0  0  0  0  0  0  0  0
  -27.4989  -19.5499   19.1059 C   0  0  0  0  0  0  0  0  0  0  0  0
  -31.3508  -16.6755   20.2892 C   0  0  0  0  0  0  0  0  0  0  0  0
  -23.2850  -14.4889   21.5529 C   0  0  0  0  0  0  0  0  0  0  0  0
  -28.1263  -29.6224   19.3305 C   0  0  0  0  0  0  0  0  0  0  0  0
  -25.7605  -30.5856   21.3298 C   0  0  0  0  0  0  0  0  0  0  0  0
  -23.1145  -29.7338   23.3097 C   0  0  0  0  0  0  0  0  0  0  0  0
  -31.0283  -14.2623   19.8460 C   0  0  0  0  0  0  0  0  0  0  0  0
  -30.9459  -33.8748   19.4859 C   0  0  0  0  0  0  0  0  0  0  0  0
  -26.1123  -28.5098   18.2999 C   0  0  0  0  0  0  0  0  0  0  0  0
  -26.2116  -28.1054   21.2276 C   0  0  0  0  0  0  0  0  0  0  0  0
  -30.2317  -33.0002   20.5132 C   0  0  0  0  0  0  0  0  0  0  0  0
  -29.7933  -11.0306   20.5723 C   0  0  0  0  0  0  0  0  0  0  0  0
  -30.5776  -31.5306   20.2958 C   0  0  0  0  0  0  0  0  0  0  0  0
  -28.2765  -11.2297   20.6368 C   0  0  0  0  0  0  0  0  0  0  0  0
  -30.4317  -11.8845   19.4777 C   0  0  0  0  0  0  0  0  0  0  0  0
  -28.5860  -13.5089   19.5910 C   0  0  0  0  0  0  0  0  0  0  0  0
  -30.1177  -31.0543   18.9126 C   0  0  1  0  0  0  0  0  0  0  0  0
  -26.6266  -29.5928   19.2433 C   0  0  1  0  0  0  0  0  0  0  0  0
  -27.9054  -12.7237   20.7239 C   0  0  1  0  0  0  0  0  0  0  0  0
  -21.4023  -30.7344   24.8474 C   0  0  0  0  0  0  0  0  0  0  0  0
  -27.8855  -30.8817   23.4994 C   0  0  0  0  0  0  0  0  0  0  0  0
  -26.0451  -30.9457   25.1956 C   0  0  0  0  0  0  0  0  0  0  0  0
  -26.1875  -32.7170   23.4448 C   0  0  0  0  0  0  0  0  0  0  0  0
  -20.8764  -28.8057   21.6102 C   0  0  0  0  0  0  0  0  0  0  0  0
  -27.0748  -23.1209   21.6993 C   0  0  0  0  0  0  0  0  0  1  0  0
  -27.6951  -21.7383   21.7546 C   0  0  0  0  0  0  0  0  0  0  0  0
  -25.4515  -30.3874   22.7942 C   0  0  1  0  0  0  0  0  0  0  0  0
  -21.7138  -30.3083   23.4212 C   0  0  2  0  0  0  0  0  0  0  0  0
  -26.3949  -31.2109   23.7157 C   0  0  0  0  0  0  0  0  0  0  0  0
  -25.6210  -12.0748   20.0599 N   0  0  0  0  0  0  0  0  0  0  0  0
  -26.4029  -12.9334   20.7362 N   0  0  0  0  0  0  0  0  0  0  0  0
  -26.1224  -29.4385   20.6093 N   0  0  0  0  0  0  0  0  0  0  0  0
  -30.0389  -13.2859   19.6365 N   0  0  0  0  0  0  0  0  0  0  0  0
  -31.0504  -21.2531   22.0596 N   0  0  0  0  0  0  0  0  0  0  0  0
  -26.3442  -14.8702   22.0985 N   0  0  0  0  0  0  0  0  0  0  0  0
  -21.9889  -14.1153   21.1723 N   0  0  0  0  0  0  0  0  0  0  0  0
  -30.5487  -15.5641   20.0285 N   0  0  0  0  0  0  0  0  0  0  0  0
  -28.6910  -30.8115   18.9103 N   0  0  0  0  0  0  0  0  0  0  0  0
  -24.0355  -30.6979   22.9582 N   0  0  0  0  0  0  0  0  0  0  0  0
  -20.7038  -29.2958   23.0019 N   0  3  0  0  0  0  0  0  0  0  0  0
  -32.5743  -16.6579   20.3921 O   0  0  0  0  0  0  0  0  0  0  0  0
  -23.4456  -15.5081   22.2663 O   0  0  0  0  0  0  0  0  0  0  0  0
  -28.7266  -28.6396   19.7494 O   0  0  0  0  0  0  0  0  0  0  0  0
  -25.6768  -31.7153   20.8416 O   0  0  0  0  0  0  0  0  0  0  0  0
  -23.3670  -28.5491   23.5176 O   0  0  0  0  0  0  0  0  0  0  0  0
  -32.2323  -13.9932   19.9039 O   0  0  0  0  0  0  0  0  0  0  0  0
  -19.9546   -9.9650   18.0624 O   0  0  0  0  0  0  0  0  0  0  0  0
  -26.3965  -23.2779   20.4537 O   0  0  0  0  0  0  0  0  0  1  0  0
  -28.6367  -21.6088   20.6963 O   0  0  0  0  0  0  0  0  0  0  0  0
  -16.0827  -13.0979   15.6966 F   0  0  0  0  0  0  0  0  0  0  0  0
  -19.3152   -9.6537   15.3909 F   0  0  0  0  0  0  0  0  0  0  0  0
  1  2  1  0  0  0  0
  1  5  2  0  0  0  0
  2  6  2  0  0  0  0
  3  8  2  0  0  0  0
  3 17  1  0  0  0  0
  4  9  1  0  0  0  0
  4 17  2  0  0  0  0
  5 21  1  0  0  0  0
  6 23  1  0  0  0  0
  7 10  2  0  0  0  0
  7 22  1  0  0  0  0
  8 26  1  0  0  0  0
  9 26  2  0  0  0  0
 10 27  1  0  0  0  0
 11 12  2  0  0  0  0
 11 28  1  0  0  0  0
 12 30  1  0  0  0  0
 13 18  2  0  0  0  0
 13 19  1  0  0  0  0
 14 18  1  0  0  0  0
 14 25  2  0  0  0  0
 15 24  1  0  0  0  0
 15 27  2  0  0  0  0
 16 30  2  0  0  0  0
 16 31  1  0  0  0  0
 17 32  1  0  0  0  0
 18 36  1  0  0  0  0
 19 29  2  0  0  0  0
 19 35  1  0  0  0  0
 20 32  1  0  0  0  0
 20 33  2  0  0  0  0
 20 37  1  0  0  0  0
 21 23  2  0  0  0  0
 21 42  1  0  0  0  0
 22 24  2  0  0  0  0
 22 43  1  0  0  0  0
 23 51  1  0  0  0  0
 24 44  1  0  0  0  0
 25 29  1  0  0  0  0
 25 68  1  0  0  0  0
 26 81  1  0  0  0  0
 27 82  1  0  0  0  0
 28 31  2  0  0  0  0
 28 81  1  0  0  0  0
 29 83  1  0  0  0  0
 30 84  1  0  0  0  0
 31 85  1  0  0  0  0
 32 64  2  0  0  0  0
 33 65  1  0  0  0  0
 33 69  1  0  0  0  0
 34 35  2  0  0  0  0
 36 71  1  0  0  0  0
 36 75  2  0  0  0  0
 37 70  1  0  0  0  0
 37 76  2  0  0  0  0
 38 52  1  0  0  0  0
 38 72  1  0  0  0  0
 38 77  2  0  0  0  0
 39 61  1  0  0  0  0
 39 66  1  0  0  0  0
 39 78  2  0  0  0  0
 40 62  1  0  0  0  0
 40 73  1  0  0  0  0
 40 79  2  0  0  0  0
 41 67  1  0  0  0  0
 41 71  1  0  0  0  0
 41 80  2  0  0  0  0
 42 45  1  0  0  0  0
 43 52  1  0  0  0  0
 44 66  1  0  0  0  0
 45 47  1  0  0  0  0
 46 48  1  0  0  0  0
 46 49  1  0  0  0  0
 47 51  1  0  0  0  0
 48 53  1  0  0  0  0
 49 67  1  0  0  0  0
 50 53  1  0  0  0  0
 50 67  1  0  0  0  0
 51 72  1  0  0  0  0
 52 66  1  0  0  0  0
 53 65  1  0  0  0  0
 54 62  1  0  0  0  0
 55 63  1  0  0  0  0
 56 63  1  0  0  0  0
 57 63  1  0  0  0  0
 58 74  1  0  0  0  0
 59 60  1  0  0  0  0
 59 82  1  0  0  0  0
 60 83  1  0  0  0  0
 61 63  1  0  0  0  0
 61 73  1  0  0  0  0
 62 74  1  0  0  0  0
 64 65  1  0  0  0  0
M  CHG  1  74   1
M  ISO  4  41 100  59 101  71 100  82 101
M  END
> <Batch ID>
0087

> <Smiles>
C=Cc1cc(C(=O)[100NH:0][100C:0](=O)N2CCCC(n3nc(-c4ccc(Oc5ccc(F)cc5F)cc4)c(C(N)=O)c3N)C2)cc(N)c1OC[101CH2:1][101O:1]c1ccc2c(c1)CN(C(=O)C(NC(=O)C(C)NC)C(C)(C)C)C(C(=O)NC1CCCc3ccccc31)C2

> <Shape>
0.255

> <Color>
0.094

> <Negative vol penalty>
0.000

$$$$

  -OEChem-04052300203D

 87 95  0     1  0  0  0  0  0999 V2000
  -21.0901  -28.7289   29.5974 C   0  0  0  0  0  0  0  0  0  0  0  0
  -22.0695  -29.1476   28.7026 C   0  0  0  0  0  0  0  0  0  0  0  0
  -23.2273  -10.1333   22.1412 C   0  0  0  0  0  0  0  0  0  0  0  0
  -23.5754   -9.5434   19.8244 C   0  0  0  0  0  0  0  0  0  0  0  0
  -31.2953  -18.4069   23.8471 C   0  0  0  0  0  0  0  0  0  0  0  0
  -21.4467  -27.9863   30.7223 C   0  0  0  0  0  0  0  0  0  0  0  0
  -23.4064  -28.8248   28.9327 C   0  0  0  0  0  0  0  0  0  0  0  0
  -28.5043  -25.0703   24.3563 C   0  0  0  0  0  0  0  0  0  0  0  0
  -31.0050  -17.0542   23.6697 C   0  0  0  0  0  0  0  0  0  0  0  0
  -22.4388   -8.9956   22.3125 C   0  0  0  0  0  0  0  0  0  0  0  0
  -22.7869   -8.4056   19.9956 C   0  0  0  0  0  0  0  0  0  0  0  0
  -29.4506  -24.2810   23.7025 C   0  0  0  0  0  0  0  0  0  0  0  0
  -20.6302   -6.0555   23.4528 C   0  0  0  0  0  0  0  0  0  0  0  0
  -20.8460   -5.2826   24.5937 C   0  0  0  0  0  0  0  0  0  0  0  0
  -30.4584  -23.7116   25.8257 C   0  0  0  0  0  0  0  0  0  0  0  0
  -23.1310   -4.9050   23.9059 C   0  0  0  0  0  0  0  0  0  0  0  0
  -23.7956  -10.4072   20.8971 C   0  0  0  0  0  0  0  0  0  0  0  0
  -31.5446  -19.2178   22.7399 C   0  0  0  0  0  0  0  0  0  0  0  0
  -24.2199  -12.9227   20.9041 C   0  0  0  0  0  0  0  0  0  0  0  0
  -22.7875  -27.6460   30.9612 C   0  0  0  0  0  0  0  0  0  0  0  0
  -28.5220  -25.1711   25.7502 C   0  0  0  0  0  0  0  0  0  0  0  0
  -23.7815  -28.0781   30.0625 C   0  0  0  0  0  0  0  0  0  0  0  0
  -29.5054  -24.4907   26.4871 C   0  0  0  0  0  0  0  0  0  0  0  0
  -30.9640  -16.5124   22.3851 C   0  0  0  0  0  0  0  0  0  0  0  0
  -31.5036  -18.6760   21.4552 C   0  0  0  0  0  0  0  0  0  0  0  0
  -22.2185   -8.1317   21.2397 C   0  0  0  0  0  0  0  0  0  0  0  0
  -30.4254  -23.6035   24.4353 C   0  0  0  0  0  0  0  0  0  0  0  0
  -21.6649   -6.2531   22.5383 C   0  0  0  0  0  0  0  0  0  0  0  0
  -22.0963   -4.7074   24.8203 C   0  0  0  0  0  0  0  0  0  0  0  0
  -22.9152   -5.6778   22.7649 C   0  0  0  0  0  0  0  0  0  0  0  0
  -31.2133  -17.3232   21.2778 C   0  0  0  0  0  0  0  0  0  0  0  0
  -24.6098  -11.5827   20.7195 C   0  0  0  0  0  0  0  0  0  0  0  0
  -25.3467  -13.6516   20.6114 C   0  0  0  0  0  0  0  0  0  0  0  0
  -30.6949  -12.9629   23.2606 C   0  0  0  0  0  0  0  0  0  0  0  0
  -31.8482  -20.6411   22.9653 C   0  0  0  0  0  0  0  0  0  0  0  0
  -30.4094  -14.2667   23.2766 C   0  0  0  0  0  0  0  0  0  0  0  0
  -31.0427  -21.5142   23.5829 C   0  0  0  0  0  0  0  0  0  1  0  0
  -22.9526  -13.4605   21.3046 C   0  0  0  0  0  0  0  0  0  0  0  0
  -26.9434  -26.6142   28.8326 C   0  0  0  0  0  0  0  0  0  0  0  0
  -27.6912  -23.7126   29.4896 C   0  0  0  0  0  0  0  0  0  0  0  0
  -28.2866  -20.3586   29.6735 C   0  0  0  0  0  0  0  0  0  0  0  0
  -30.7847  -14.5427   20.9083 C   0  0  0  0  0  0  0  0  0  0  0  0
  -23.1301  -26.8821   32.2156 C   0  0  0  0  0  0  0  0  0  0  0  0
  -27.5601  -26.0589   26.4921 C   0  0  0  0  0  0  0  0  0  0  0  0
  -29.5072  -24.6561   27.9822 C   0  0  0  0  0  0  0  0  0  0  0  0
  -24.5247  -26.2618   32.1893 C   0  0  0  0  0  0  0  0  0  0  0  0
  -29.7134  -12.2695   18.4848 C   0  0  0  0  0  0  0  0  0  0  0  0
  -25.5513  -27.2770   31.6970 C   0  0  0  0  0  0  0  0  0  0  0  0
  -28.2592  -11.9870   18.8610 C   0  0  0  0  0  0  0  0  0  0  0  0
  -30.5906  -12.3685   19.7276 C   0  0  0  0  0  0  0  0  0  0  0  0
  -28.6735  -13.1234   21.0981 C   0  0  0  0  0  0  0  0  0  0  0  0
  -25.2395  -27.7265   30.2645 C   0  0  1  0  0  0  0  0  0  0  0  0
  -27.1459  -25.4892   27.8607 C   0  0  1  0  0  0  0  0  0  0  0  0
  -27.7401  -13.0215   19.8750 C   0  0  2  0  0  0  0  0  0  0  0  0
  -28.1296  -18.4138   31.2516 C   0  0  0  0  0  0  0  0  0  0  0  0
  -30.1739  -24.7070   30.9562 C   0  0  0  0  0  0  0  0  0  0  0  0
  -30.5149  -22.3786   31.8107 C   0  0  0  0  0  0  0  0  0  0  0  0
  -28.4522  -23.6405   32.4234 C   0  0  0  0  0  0  0  0  0  0  0  0
  -26.3942  -18.9270   27.9048 C   0  0  0  0  0  0  0  0  0  0  0  0
  -29.6581  -21.1593   20.1946 C   0  0  0  0  0  0  0  0  0  0  0  0
  -28.7180  -22.7701   30.0647 C   0  0  1  0  0  0  0  0  0  0  0  0
  -27.4256  -19.2078   30.1622 C   0  0  2  0  0  0  0  0  0  0  0  0
  -29.4632  -23.3791   31.2858 C   0  0  0  0  0  0  0  0  0  0  0  0
  -25.8846  -11.4643   20.3387 N   0  0  0  0  0  0  0  0  0  0  0  0
  -26.3055  -12.7393   20.2817 N   0  0  0  0  0  0  0  0  0  0  0  0
  -28.1299  -24.5962   28.4960 N   0  0  0  0  0  0  0  0  0  0  0  0
  -30.0617  -13.3574   20.6676 N   0  0  0  0  0  0  0  0  0  0  0  0
  -25.6009  -14.9774   20.6064 N   0  0  0  0  0  0  0  0  0  0  0  0
  -22.0152  -13.7730   20.3106 N   0  0  0  0  0  0  0  0  0  0  0  0
  -31.7548  -19.4857   20.3016 N   0  0  0  0  0  0  0  0  0  0  0  0
  -25.6527  -26.7146   29.3160 N   0  0  0  0  0  0  0  0  0  0  0  0
  -28.0132  -21.5260   30.3544 N   0  0  0  0  0  0  0  0  0  0  0  0
  -30.6626  -15.1072   22.2047 N   0  0  0  0  0  0  0  0  0  0  0  0
  -27.1091  -18.2834   29.0369 N   0  3  0  0  0  0  0  0  0  0  0  0
  -22.6663  -13.6735   22.5072 O   0  0  0  0  0  0  0  0  0  0  0  0
  -27.8882  -27.3379   29.1246 O   0  0  0  0  0  0  0  0  0  0  0  0
  -26.5322  -23.6725   29.9120 O   0  0  0  0  0  0  0  0  0  0  0  0
  -29.1209  -20.2335   28.7797 O   0  0  0  0  0  0  0  0  0  0  0  0
  -31.5053  -15.0534   20.0410 O   0  0  0  0  0  0  0  0  0  0  0  0
  -30.9538  -20.4522   18.0526 O   0  0  0  0  0  0  0  0  0  0  0  0
  -29.4997  -18.7445   19.1989 O   0  0  0  0  0  0  0  0  0  0  0  0
  -21.4493   -7.0213   21.4065 O   0  0  0  0  0  0  0  0  0  0  0  0
  -31.3435  -22.8310   23.7910 O   0  0  0  0  0  0  0  0  0  1  0  0
  -22.3038   -3.9666   25.9168 F   0  0  0  0  0  0  0  0  0  0  0  0
  -23.9134   -5.8651   21.8906 F   0  0  0  0  0  0  0  0  0  0  0  0
  -31.1740  -16.8009   20.0423 F   0  0  0  0  0  0  0  0  0  0  0  0
  -30.4308  -19.8533   19.2663 S   0  0  0  0  0  0  0  0  0  0  0  0
  1  2  1  0  0  0  0
  1  6  2  0  0  0  0
  2  7  2  0  0  0  0
  3 10  2  0  0  0  0
  3 17  1  0  0  0  0
  4 11  1  0  0  0  0
  4 17  2  0  0  0  0
  5  9  2  0  0  0  0
  5 18  1  0  0  0  0
  6 20  1  0  0  0  0
  7 22  1  0  0  0  0
  8 12  2  0  0  0  0
  8 21  1  0  0  0  0
  9 24  1  0  0  0  0
 10 26  1  0  0  0  0
 11 26  2  0  0  0  0
 12 27  1  0  0  0  0
 13 14  2  0  0  0  0
 13 28  1  0  0  0  0
 14 29  1  0  0  0  0
 15 23  1  0  0  0  0
 15 27  2  0  0  0  0
 16 29  2  0  0  0  0
 16 30  1  0  0  0  0
 17 32  1  0  0  0  0
 18 25  2  0  0  0  0
 18 35  1  0  0  0  0
 19 32  1  0  0  0  0
 19 33  2  0  0  0  0
 19 38  1  0  0  0  0
 20 22  2  0  0  0  0
 20 43  1  0  0  0  0
 21 23  2  0  0  0  0
 21 44  1  0  0  0  0
 22 52  1  0  0  0  0
 23 45  1  0  0  0  0
 24 31  2  0  0  0  0
 24 73  1  0  0  0  0
 25 31  1  0  0  0  0
 25 70  1  0  0  0  0
 26 82  1  0  0  0  0
 27 83  1  0  0  0  0
 28 30  2  0  0  0  0
 28 82  1  0  0  0  0
 29 84  1  0  0  0  0
 30 85  1  0  0  0  0
 31 86  1  0  0  0  0
 32 64  2  0  0  0  0
 33 65  1  0  0  0  0
 33 68  1  0  0  0  0
 34 36  2  0  0  0  0
 35 37  2  0  0  0  0
 36 73  1  0  0  0  0
 37 83  1  0  0  0  0
 38 69  1  0  0  0  0
 38 75  2  0  0  0  0
 39 53  1  0  0  0  0
 39 71  1  0  0  0  0
 39 76  2  0  0  0  0
 40 61  1  0  0  0  0
 40 66  1  0  0  0  0
 40 77  2  0  0  0  0
 41 62  1  0  0  0  0
 41 72  1  0  0  0  0
 41 78  2  0  0  0  0
 42 67  1  0  0  0  0
 42 73  1  0  0  0  0
 42 79  2  0  0  0  0
 43 46  1  0  0  0  0
 44 53  1  0  0  0  0
 45 66  1  0  0  0  0
 46 48  1  0  0  0  0
 47 49  1  0  0  0  0
 47 50  1  0  0  0  0
 48 52  1  0  0  0  0
 49 54  1  0  0  0  0
 50 67  1  0  0  0  0
 51 54  1  0  0  0  0
 51 67  1  0  0  0  0
 52 71  1  0  0  0  0
 53 66  1  0  0  0  0
 54 65  1  0  0  0  0
 55 62  1  0  0  0  0
 56 63  1  0  0  0  0
 57 63  1  0  0  0  0
 58 63  1  0  0  0  0
 59 74  1  0  0  0  0
 60 87  1  0  0  0  0
 61 63  1  0  0  0  0
 61 72  1  0  0  0  0
 62 74  1  0  0  0  0
 64 65  1  0  0  0  0
 70 87  1  0  0  0  0
 80 87  2  0  0  0  0
 81 87  2  0  0  0  0
M  CHG  1  74   1
M  ISO  4  37 101  42 100  73 100  83 101
M  END
> <Batch ID>
0087

> <Smiles>
C=C[100N:0](c1ccc(C=[101CH:1][101O:1]c2ccc3c(c2)CN(C(=O)C(NC(=O)C(C)NC)C(C)(C)C)C(C(=O)NC2CCCc4ccccc42)C3)c(NS(C)(=O)=O)c1F)[100C:0](=O)N1CCCC(n2nc(-c3ccc(Oc4ccc(F)cc4F)cc3)c(C(N)=O)c2N)C1

> <Shape>
0.191

> <Color>
0.174

> <Negative vol penalty>
0.000

$$$$

  -OEChem-04052300203D

 82 90  0     1  0  0  0  0  0999 V2000
  -18.3458  -24.3597   21.4260 C   0  0  0  0  0  0  0  0  0  0  0  0
  -19.6775  -24.4021   21.0257 C   0  0  0  0  0  0  0  0  0  0  0  0
  -23.7066  -12.0432   23.7533 C   0  0  0  0  0  0  0  0  0  0  0  0
  -23.9043  -14.4505   23.6998 C   0  0  0  0  0  0  0  0  0  0  0  0
  -17.8213  -25.3876   22.2085 C   0  0  0  0  0  0  0  0  0  0  0  0
  -20.4851  -25.4731   21.4067 C   0  0  0  0  0  0  0  0  0  0  0  0
  -25.0437  -23.9856   23.0349 C   0  0  0  0  0  0  0  0  0  0  0  0
  -23.0958  -12.1211   25.0049 C   0  0  0  0  0  0  0  0  0  0  0  0
  -23.2934  -14.5285   24.9514 C   0  0  0  0  0  0  0  0  0  0  0  0
  -25.9818  -23.6322   22.0660 C   0  0  0  0  0  0  0  0  0  0  0  0
  -20.1597  -14.3664   26.2061 C   0  0  0  0  0  0  0  0  0  0  0  0
  -19.1650  -15.3284   26.3813 C   0  0  0  0  0  0  0  0  0  0  0  0
  -32.5137  -18.6486   19.1600 C   0  0  0  0  0  0  0  0  0  0  0  0
  -32.2932  -17.2470   19.2907 C   0  0  0  0  0  0  0  0  0  0  0  0
  -27.0187  -25.7989   22.2883 C   0  0  0  0  0  0  0  0  0  0  0  0
  -20.4626  -16.3489   28.1454 C   0  0  0  0  0  0  0  0  0  0  0  0
  -24.1109  -13.2078   23.1008 C   0  0  0  0  0  0  0  0  0  0  0  0
  -24.1107  -13.1520   20.5504 C   0  0  0  0  0  0  0  0  0  0  0  0
  -18.6254  -26.4668   22.6073 C   0  0  0  0  0  0  0  0  0  0  0  0
  -25.0795  -25.2544   23.6310 C   0  0  0  0  0  0  0  0  0  0  0  0
  -19.9705  -26.5170   22.1941 C   0  0  0  0  0  0  0  0  0  0  0  0
  -26.0815  -26.1650   23.2664 C   0  0  0  0  0  0  0  0  0  0  0  0
  -22.8891  -13.3637   25.6039 C   0  0  0  0  0  0  0  0  0  0  0  0
  -26.9678  -24.5400   21.6904 C   0  0  0  0  0  0  0  0  0  0  0  0
  -21.3059  -14.3955   27.0007 C   0  0  0  0  0  0  0  0  0  0  0  0
  -19.3165  -16.3197   27.3509 C   0  0  0  0  0  0  0  0  0  0  0  0
  -21.4573  -15.3868   27.9702 C   0  0  0  0  0  0  0  0  0  0  0  0
  -24.7425  -13.1279   21.8082 C   0  0  0  0  0  0  0  0  0  0  0  0
  -31.4150  -19.3837   19.5476 C   0  0  0  0  0  0  0  0  0  0  0  0
  -25.1400  -13.0483   19.6470 C   0  0  0  0  0  0  0  0  0  0  0  0
  -31.0343  -16.9642   19.7736 C   0  0  0  0  0  0  0  0  0  0  0  0
  -22.7178  -13.2588   20.2275 C   0  0  0  0  0  0  0  0  0  0  0  0
  -31.2388  -20.8582   19.5643 C   0  0  0  0  0  0  0  0  0  0  0  0
  -23.0923  -27.7322   23.7530 C   0  0  0  0  0  0  0  0  0  0  0  0
  -25.3013  -28.9039   25.8194 C   0  0  0  0  0  0  0  0  0  0  0  0
  -29.6482  -22.6585   20.1337 C   0  0  0  0  0  0  0  0  0  0  0  0
  -28.5317  -28.8940   26.9197 C   0  0  0  0  0  0  0  0  0  0  0  0
  -30.9436  -14.4495   19.8927 C   0  0  0  0  0  0  0  0  0  0  0  0
  -18.0013  -27.5782   23.4136 C   0  0  0  0  0  0  0  0  0  0  0  0
  -24.0766  -25.6105   24.6939 C   0  0  0  0  0  0  0  0  0  0  0  0
  -26.1757  -27.5324   23.8908 C   0  0  0  0  0  0  0  0  0  0  0  0
  -19.0234  -28.4896   24.0880 C   0  0  0  0  0  0  0  0  0  0  0  0
  -29.5540  -11.2476   19.1899 C   0  0  0  0  0  0  0  0  0  0  0  0
  -20.1198  -28.8829   23.1031 C   0  0  0  0  0  0  0  0  0  0  0  0
  -28.1032  -11.3706   19.6615 C   0  0  0  0  0  0  0  0  0  0  0  0
  -30.5133  -12.0110   20.1014 C   0  0  0  0  0  0  0  0  0  0  0  0
  -28.7145  -13.5423   20.8003 C   0  0  0  0  0  0  0  0  0  0  0  0
  -20.8849  -27.6496   22.6079 C   0  0  1  0  0  0  0  0  0  0  0  0
  -23.8948  -27.1157   24.8636 C   0  0  1  0  0  0  0  0  0  0  0  0
  -27.7035  -12.8435   19.8766 C   0  0  2  0  0  0  0  0  0  0  0  0
  -30.0446  -29.9863   28.5977 C   0  0  0  0  0  0  0  0  0  0  0  0
  -25.4110  -31.4116   24.0845 C   0  0  0  0  0  0  0  0  0  0  0  0
  -27.5545  -32.0223   25.2249 C   0  0  0  0  0  0  0  0  0  0  0  0
  -25.4469  -31.8445   26.5474 C   0  0  0  0  0  0  0  0  0  0  0  0
  -29.1057  -26.3153   28.2538 C   0  0  0  0  0  0  0  0  0  0  0  0
  -28.2323  -22.8174   20.6466 C   0  0  0  0  0  0  0  0  0  1  0  0
  -26.5517  -29.7394   25.6872 C   0  0  1  0  0  0  0  0  0  0  0  0
  -29.1197  -28.8122   28.3169 C   0  0  2  0  0  0  0  0  0  0  0  0
  -26.2383  -31.2295   25.3727 C   0  0  0  0  0  0  0  0  0  0  0  0
  -26.0704  -13.0173   21.7161 N   0  0  0  0  0  0  0  0  0  0  0  0
  -26.2814  -12.9709   20.3897 N   0  0  0  0  0  0  0  0  0  0  0  0
  -25.1685  -27.8359   24.9208 N   0  0  0  0  0  0  0  0  0  0  0  0
  -30.0737  -13.3995   20.2554 N   0  0  0  0  0  0  0  0  0  0  0  0
  -25.1712  -13.0164   18.2978 N   0  0  0  0  0  0  0  0  0  0  0  0
  -21.7942  -13.3572   21.2771 N   0  0  0  0  0  0  0  0  0  0  0  0
  -30.4048  -15.7257   20.0522 N   0  0  0  0  0  0  0  0  0  0  0  0
  -30.0004  -21.3132   20.0138 N   0  0  0  0  0  0  0  0  0  0  0  0
  -21.8246  -27.2006   23.6128 N   0  0  0  0  0  0  0  0  0  0  0  0
  -27.3109  -29.5350   26.9161 N   0  0  0  0  0  0  0  0  0  0  0  0
  -29.8981  -27.5516   28.4783 N   0  3  0  0  0  0  0  0  0  0  0  0
  -22.3031  -13.2501   19.0436 O   0  0  0  0  0  0  0  0  0  0  0  0
  -32.1732  -21.5759   19.2181 O   0  0  0  0  0  0  0  0  0  0  0  0
  -23.5861  -28.6252   23.0745 O   0  0  0  0  0  0  0  0  0  0  0  0
  -24.4762  -29.1842   26.6926 O   0  0  0  0  0  0  0  0  0  0  0  0
  -30.3686  -23.6156   19.8641 O   0  0  0  0  0  0  0  0  0  0  0  0
  -29.1004  -28.4384   25.9300 O   0  0  0  0  0  0  0  0  0  0  0  0
  -32.0728  -14.2317   19.4461 O   0  0  0  0  0  0  0  0  0  0  0  0
  -22.2929  -13.4402   26.8250 O   0  0  0  0  0  0  0  0  0  0  0  0
  -27.8842  -24.1978   20.7444 O   0  0  0  0  0  0  0  0  0  1  0  0
  -18.3619  -17.2443   27.5179 F   0  0  0  0  0  0  0  0  0  0  0  0
  -22.5567  -15.4207   28.7357 F   0  0  0  0  0  0  0  0  0  0  0  0
  -30.1245  -18.3850   20.0668 S   0  0  0  0  0  0  0  0  0  0  0  0
  1  2  1  0  0  0  0
  1  5  2  0  0  0  0
  2  6  2  0  0  0  0
  3  8  2  0  0  0  0
  3 17  1  0  0  0  0
  4  9  1  0  0  0  0
  4 17  2  0  0  0  0
  5 19  1  0  0  0  0
  6 21  1  0  0  0  0
  7 10  2  0  0  0  0
  7 20  1  0  0  0  0
  8 23  1  0  0  0  0
  9 23  2  0  0  0  0
 10 24  1  0  0  0  0
 11 12  2  0  0  0  0
 11 25  1  0  0  0  0
 12 26  1  0  0  0  0
 13 14  1  0  0  0  0
 13 29  2  0  0  0  0
 14 31  2  0  0  0  0
 15 22  1  0  0  0  0
 15 24  2  0  0  0  0
 16 26  2  0  0  0  0
 16 27  1  0  0  0  0
 17 28  1  0  0  0  0
 18 28  1  0  0  0  0
 18 30  2  0  0  0  0
 18 32  1  0  0  0  0
 19 21  2  0  0  0  0
 19 39  1  0  0  0  0
 20 22  2  0  0  0  0
 20 40  1  0  0  0  0
 21 48  1  0  0  0  0
 22 41  1  0  0  0  0
 23 78  1  0  0  0  0
 24 79  1  0  0  0  0
 25 27  2  0  0  0  0
 25 78  1  0  0  0  0
 26 80  1  0  0  0  0
 27 81  1  0  0  0  0
 28 60  2  0  0  0  0
 29 33  1  0  0  0  0
 29 82  1  0  0  0  0
 30 61  1  0  0  0  0
 30 64  1  0  0  0  0
 31 66  1  0  0  0  0
 31 82  1  0  0  0  0
 32 65  1  0  0  0  0
 32 71  2  0  0  0  0
 33 67  1  0  0  0  0
 33 72  2  0  0  0  0
 34 49  1  0  0  0  0
 34 68  1  0  0  0  0
 34 73  2  0  0  0  0
 35 57  1  0  0  0  0
 35 62  1  0  0  0  0
 35 74  2  0  0  0  0
 36 56  1  0  0  0  0
 36 67  1  0  0  0  0
 36 75  2  0  0  0  0
 37 58  1  0  0  0  0
 37 69  1  0  0  0  0
 37 76  2  0  0  0  0
 38 63  1  0  0  0  0
 38 66  1  0  0  0  0
 38 77  2  0  0  0  0
 39 42  1  0  0  0  0
 40 49  1  0  0  0  0
 41 62  1  0  0  0  0
 42 44  1  0  0  0  0
 43 45  1  0  0  0  0
 43 46  1  0  0  0  0
 44 48  1  0  0  0  0
 45 50  1  0  0  0  0
 46 63  1  0  0  0  0
 47 50  1  0  0  0  0
 47 63  1  0  0  0  0
 48 68  1  0  0  0  0
 49 62  1  0  0  0  0
 50 61  1  0  0  0  0
 51 58  1  0  0  0  0
 52 59  1  0  0  0  0
 53 59  1  0  0  0  0
 54 59  1  0  0  0  0
 55 70  1  0  0  0  0
 56 79  1  0  0  0  0
 57 59  1  0  0  0  0
 57 69  1  0  0  0  0
 58 70  1  0  0  0  0
 60 61  1  0  0  0  0
M  CHG  1  70   1
M  ISO  4  38 100  56 101  66 100  79 101
M  END
> <Batch ID>
0087

> <Smiles>
CNC(C)C(=O)NC(C(=O)N1Cc2cc([101O:1][101CH2:1]C(=O)NC(=O)c3ccc([100NH:0][100C:0](=O)N4CCCC(n5nc(-c6ccc(Oc7ccc(F)cc7F)cc6)c(C(N)=O)c5N)C4)s3)ccc2CC1C(=O)NC1CCCc2ccccc21)C(C)(C)C

> <Shape>
0.211

> <Color>
0.099

> <Negative vol penalty>
0.000

$$$$

  -OEChem-04052300203D

 85 94  0     1  0  0  0  0  0999 V2000
  -23.5851   -7.7457   21.6093 C   0  0  0  0  0  0  0  0  0  0  0  0
  -24.3468   -8.7098   20.9568 C   0  0  0  0  0  0  0  0  0  0  0  0
  -21.1011  -25.6414   21.1456 C   0  0  0  0  0  0  0  0  0  0  0  0
  -21.3969  -27.9570   20.5231 C   0  0  0  0  0  0  0  0  0  0  0  0
  -30.7370  -22.2255   18.3685 C   0  0  0  0  0  0  0  0  0  0  0  0
  -29.2432  -21.7228   20.1996 C   0  0  0  0  0  0  0  0  0  0  0  0
  -22.2964   -8.0534   22.0434 C   0  0  0  0  0  0  0  0  0  0  0  0
  -23.8197   -9.9819   20.7370 C   0  0  0  0  0  0  0  0  0  0  0  0
  -27.1191  -13.6664   21.8249 C   0  0  0  0  0  0  0  0  0  0  0  0
  -30.5600  -20.9350   17.8698 C   0  0  0  0  0  0  0  0  0  0  0  0
  -29.0661  -20.4322   19.7008 C   0  0  0  0  0  0  0  0  0  0  0  0
  -19.8197  -25.9310   21.6142 C   0  0  0  0  0  0  0  0  0  0  0  0
  -20.1154  -28.2467   20.9917 C   0  0  0  0  0  0  0  0  0  0  0  0
  -28.1167  -13.9254   20.8860 C   0  0  0  0  0  0  0  0  0  0  0  0
  -18.6135  -28.7737   23.9745 C   0  0  0  0  0  0  0  0  0  0  0  0
  -18.4532  -29.9152   24.7599 C   0  0  0  0  0  0  0  0  0  0  0  0
  -26.8496  -15.8080   20.0679 C   0  0  0  0  0  0  0  0  0  0  0  0
  -16.8994  -30.8109   23.1411 C   0  0  0  0  0  0  0  0  0  0  0  0
  -21.8898  -26.6544   20.6001 C   0  0  0  0  0  0  0  0  0  0  0  0
  -30.0787  -22.6194   19.5335 C   0  0  0  0  0  0  0  0  0  0  0  0
  -23.5620  -25.4519   19.0951 C   0  0  0  0  0  0  0  0  0  0  0  0
  -21.7568   -9.3329   21.8373 C   0  0  0  0  0  0  0  0  0  0  0  0
  -25.9723  -14.4711   21.8852 C   0  0  0  0  0  0  0  0  0  0  0  0
  -22.5221  -10.3066   21.1675 C   0  0  0  0  0  0  0  0  0  0  0  0
  -25.8401  -15.5587   21.0102 C   0  0  0  0  0  0  0  0  0  0  0  0
  -29.7246  -20.0383   18.5359 C   0  0  0  0  0  0  0  0  0  0  0  0
  -19.3268  -27.2336   21.5372 C   0  0  0  0  0  0  0  0  0  0  0  0
  -27.9807  -14.9946   20.0055 C   0  0  0  0  0  0  0  0  0  0  0  0
  -17.9167  -28.6508   22.7724 C   0  0  0  0  0  0  0  0  0  0  0  0
  -17.5962  -30.9338   24.3432 C   0  0  0  0  0  0  0  0  0  0  0  0
  -17.0597  -29.6693   22.3557 C   0  0  0  0  0  0  0  0  0  0  0  0
  -23.2138  -26.3560   20.1164 C   0  0  0  0  0  0  0  0  0  0  0  0
  -24.9309  -25.5330   19.0167 C   0  0  0  0  0  0  0  0  0  0  0  0
  -29.2717  -17.6240   18.8856 C   0  0  0  0  0  0  0  0  0  0  0  0
  -30.2658  -23.9828   20.0606 C   0  0  0  0  0  0  0  0  0  0  0  0
  -22.7231  -24.6137   18.2892 C   0  0  0  0  0  0  0  0  0  0  0  0
  -22.8588  -13.9726   21.4836 C   0  0  0  0  0  0  0  0  0  0  0  0
  -22.6350  -17.0569   22.4632 C   0  0  0  0  0  0  0  0  0  0  0  0
  -24.1304  -20.1063   22.7973 C   0  0  0  0  0  0  0  0  0  0  0  0
  -29.8915  -25.6771   21.5709 C   0  0  0  0  0  0  0  0  0  0  0  0
  -20.3416   -9.6042   22.2824 C   0  0  0  0  0  0  0  0  0  0  0  0
  -24.9177  -14.1946   22.9215 C   0  0  0  0  0  0  0  0  0  0  0  0
  -24.6377  -16.4649   21.0474 C   0  0  0  0  0  0  0  0  0  0  0  0
  -19.9965  -11.0900   22.3433 C   0  0  0  0  0  0  0  0  0  0  0  0
  -29.2355  -17.2376   15.9804 C   0  0  0  0  0  0  0  0  0  0  0  0
  -28.1716  -28.8092   21.0851 C   0  0  0  0  0  0  0  0  0  0  0  0
  -20.4711  -11.8005   21.0797 C   0  0  0  0  0  0  0  0  0  0  0  0
  -29.4183  -16.0508   16.8986 C   0  0  0  0  0  0  0  0  0  0  0  0
  -26.7476  -28.3734   20.7402 C   0  0  0  0  0  0  0  0  0  0  0  0
  -29.8729  -18.4714   16.5993 C   0  0  0  0  0  0  0  0  0  0  0  0
  -28.8165  -27.8661   22.0961 C   0  0  0  0  0  0  0  0  0  0  0  0
  -27.3860  -25.9926   21.3267 C   0  0  0  0  0  0  0  0  0  0  0  0
  -21.9945  -11.7054   20.9325 C   0  0  1  0  0  0  0  0  0  0  0  0
  -28.7495  -16.3541   18.2219 C   0  0  1  0  0  0  0  0  0  1  0  0
  -23.5529  -14.7680   22.5528 C   0  0  1  0  0  0  0  0  0  0  0  0
  -26.7143  -26.9035   20.2849 C   0  0  1  0  0  0  0  0  0  0  0  0
  -23.6837  -22.4422   23.5983 C   0  0  0  0  0  0  0  0  0  0  0  0
  -21.0146  -17.6103   19.9377 C   0  0  0  0  0  0  0  0  0  0  0  0
  -21.4137  -20.0551   20.3012 C   0  0  0  0  0  0  0  0  0  0  0  0
  -20.1507  -18.7334   21.9985 C   0  0  0  0  0  0  0  0  0  0  0  0
  -26.2598  -19.9354   24.8456 C   0  0  0  0  0  0  0  0  0  0  0  0
  -22.6470  -18.4006   21.7753 C   0  0  1  0  0  0  0  0  0  0  0  0
  -24.2111  -21.0654   23.9713 C   0  0  2  0  0  0  0  0  0  0  0  0
  -21.3284  -18.6818   21.0009 C   0  0  0  0  0  0  0  0  0  0  0  0
  -24.2758  -26.9665   20.6487 N   0  0  0  0  0  0  0  0  0  0  0  0
  -29.6703  -24.3844   21.1355 N   0  0  0  0  0  0  0  0  0  0  0  0
  -25.3048  -26.4450   19.9593 N   0  0  0  0  0  0  0  0  0  0  0  0
  -29.5415  -18.6996   18.0174 N   0  0  0  0  0  0  0  0  0  0  0  0
  -23.6309  -16.1498   22.0743 N   0  0  0  0  0  0  0  0  0  0  0  0
  -28.7360  -26.4763   21.6448 N   0  0  0  0  0  0  0  0  0  0  0  0
  -25.8391  -24.9124   18.2341 N   0  0  0  0  0  0  0  0  0  0  0  0
  -22.2312  -25.1252   17.0806 N   0  0  0  0  0  0  0  0  0  0  0  0
  -22.6474  -12.6480   21.8155 N   0  0  0  0  0  0  0  0  0  0  0  0
  -22.9555  -19.3847   22.8072 N   0  0  0  0  0  0  0  0  0  0  0  0
  -25.6229  -21.2102   24.4258 N   0  3  0  0  0  0  0  0  0  0  0  0
  -29.3831  -17.6573   20.1139 O   0  0  0  0  0  0  0  0  0  0  0  0
  -22.4055  -23.4516   18.6386 O   0  0  0  0  0  0  0  0  0  0  0  0
  -22.5373  -14.5205   20.4356 O   0  0  0  0  0  0  0  0  0  0  0  0
  -21.7781  -16.8234   23.3192 O   0  0  0  0  0  0  0  0  0  0  0  0
  -25.0190  -20.0098   21.9538 O   0  0  0  0  0  0  0  0  0  0  0  0
  -31.0009  -26.1175   21.8813 O   0  0  0  0  0  0  0  0  0  0  0  0
  -18.0763  -27.5165   21.9942 O   0  0  0  0  0  0  0  0  0  0  0  0
  -28.9527  -15.2492   19.0876 O   0  0  0  0  0  0  0  0  0  1  0  0
  -17.4412  -32.0293   25.0983 F   0  0  0  0  0  0  0  0  0  0  0  0
  -16.3867  -29.5564   21.2024 F   0  0  0  0  0  0  0  0  0  0  0  0
  1  2  1  0  0  0  0
  1  7  2  0  0  0  0
  2  8  2  0  0  0  0
  3 12  2  0  0  0  0
  3 19  1  0  0  0  0
  4 13  1  0  0  0  0
  4 19  2  0  0  0  0
  5 10  2  0  0  0  0
  5 20  1  0  0  0  0
  6 11  1  0  0  0  0
  6 20  2  0  0  0  0
  7 22  1  0  0  0  0
  8 24  1  0  0  0  0
  9 14  2  0  0  0  0
  9 23  1  0  0  0  0
 10 26  1  0  0  0  0
 11 26  2  0  0  0  0
 12 27  1  0  0  0  0
 13 27  2  0  0  0  0
 14 28  1  0  0  0  0
 15 16  2  0  0  0  0
 15 29  1  0  0  0  0
 16 30  1  0  0  0  0
 17 25  1  0  0  0  0
 17 28  2  0  0  0  0
 18 30  2  0  0  0  0
 18 31  1  0  0  0  0
 19 32  1  0  0  0  0
 20 35  1  0  0  0  0
 21 32  1  0  0  0  0
 21 33  2  0  0  0  0
 21 36  1  0  0  0  0
 22 24  2  0  0  0  0
 22 41  1  0  0  0  0
 23 25  2  0  0  0  0
 23 42  1  0  0  0  0
 24 53  1  0  0  0  0
 25 43  1  0  0  0  0
 26 68  1  0  0  0  0
 27 82  1  0  0  0  0
 28 83  1  0  0  0  0
 29 31  2  0  0  0  0
 29 82  1  0  0  0  0
 30 84  1  0  0  0  0
 31 85  1  0  0  0  0
 32 65  2  0  0  0  0
 33 67  1  0  0  0  0
 33 71  1  0  0  0  0
 34 54  1  0  0  0  0
 34 68  1  0  0  0  0
 34 76  2  0  0  0  0
 35 66  2  0  0  0  0
 36 72  1  0  0  0  0
 36 77  2  0  0  0  0
 37 55  1  0  0  0  0
 37 73  1  0  0  0  0
 37 78  2  0  0  0  0
 38 62  1  0  0  0  0
 38 69  1  0  0  0  0
 38 79  2  0  0  0  0
 39 63  1  0  0  0  0
 39 74  1  0  0  0  0
 39 80  2  0  0  0  0
 40 66  1  0  0  0  0
 40 70  1  0  0  0  0
 40 81  2  0  0  0  0
 41 44  1  0  0  0  0
 42 55  1  0  0  0  0
 43 69  1  0  0  0  0
 44 47  1  0  0  0  0
 45 48  1  0  0  0  0
 45 50  1  0  0  0  0
 46 49  1  0  0  0  0
 46 51  1  0  0  0  0
 47 53  1  0  0  0  0
 48 54  1  0  0  0  0
 49 56  1  0  0  0  0
 50 68  1  0  0  0  0
 51 70  1  0  0  0  0
 52 56  1  0  0  0  0
 52 70  1  0  0  0  0
 53 73  1  0  0  0  0
 54 83  1  0  0  0  0
 55 69  1  0  0  0  0
 56 67  1  0  0  0  0
 57 63  1  0  0  0  0
 58 64  1  0  0  0  0
 59 64  1  0  0  0  0
 60 64  1  0  0  0  0
 61 75  1  0  0  0  0
 62 64  1  0  0  0  0
 62 74  1  0  0  0  0
 63 75  1  0  0  0  0
 65 67  1  0  0  0  0
M  CHG  1  75   1
M  ISO  4  40 100  54 101  66 100  83 101
M  END
> <Batch ID>
0087

> <Smiles>
CNC(C)C(=O)NC(C(=O)N1Cc2cc([101O:1][101CH:1]3CCCN(c4ccc(C=[100N:0][100C:0](=O)N5CCCC(n6nc(-c7ccc(Oc8ccc(F)cc8F)cc7)c(C(N)=O)c6N)C5)cc4)C3=O)ccc2CC1C(=O)NC1CCCc2ccccc21)C(C)(C)C

> <Shape>
0.231

> <Color>
0.071

> <Negative vol penalty>
0.000

$$$$

  -OEChem-04052300203D

 83 91  0     1  0  0  0  0  0999 V2000
  -17.9037  -27.0270   23.6355 C   0  0  0  0  0  0  0  0  0  0  0  0
  -19.0563  -26.2492   23.5897 C   0  0  0  0  0  0  0  0  0  0  0  0
  -23.1080  -10.4030   20.8707 C   0  0  0  0  0  0  0  0  0  0  0  0
  -24.3816   -8.8715   22.2381 C   0  0  0  0  0  0  0  0  0  0  0  0
  -27.8310  -18.0187   21.7122 C   0  0  0  0  0  0  0  0  0  0  0  0
  -17.7991  -28.1639   22.8352 C   0  0  0  0  0  0  0  0  0  0  0  0
  -20.1045  -26.6073   22.7427 C   0  0  0  0  0  0  0  0  0  0  0  0
  -24.6247  -26.2869   25.0032 C   0  0  0  0  0  0  0  0  0  0  0  0
  -22.1281   -9.4269   20.6902 C   0  0  0  0  0  0  0  0  0  0  0  0
  -23.4017   -7.8954   22.0576 C   0  0  0  0  0  0  0  0  0  0  0  0
  -26.9714  -18.8454   22.4356 C   0  0  0  0  0  0  0  0  0  0  0  0
  -25.1794  -25.0151   25.1401 C   0  0  0  0  0  0  0  0  0  0  0  0
  -20.3462   -7.1745   23.3085 C   0  0  0  0  0  0  0  0  0  0  0  0
  -19.9341   -6.4566   24.4311 C   0  0  0  0  0  0  0  0  0  0  0  0
  -28.7348  -19.9511   20.5780 C   0  0  0  0  0  0  0  0  0  0  0  0
  -26.5813  -25.4264   23.2206 C   0  0  0  0  0  0  0  0  0  0  0  0
  -20.6488   -4.4021   23.3796 C   0  0  0  0  0  0  0  0  0  0  0  0
  -24.2348  -10.1253   21.6447 C   0  0  0  0  0  0  0  0  0  0  0  0
  -28.7128  -18.5716   20.7834 C   0  0  0  0  0  0  0  0  0  0  0  0
  -25.3090  -12.0975   22.8547 C   0  0  0  0  0  0  0  0  0  0  0  0
  -18.8505  -28.5415   21.9851 C   0  0  0  0  0  0  0  0  0  0  0  0
  -25.0371  -27.1353   23.9656 C   0  0  0  0  0  0  0  0  0  0  0  0
  -20.0133  -27.7496   21.9293 C   0  0  0  0  0  0  0  0  0  0  0  0
  -26.0321  -26.7094   23.0742 C   0  0  0  0  0  0  0  0  0  0  0  0
  -27.8751  -20.7777   21.3014 C   0  0  0  0  0  0  0  0  0  0  0  0
  -22.2749   -8.1732   21.2836 C   0  0  0  0  0  0  0  0  0  0  0  0
  -26.1558  -24.5836   24.2470 C   0  0  0  0  0  0  0  0  0  0  0  0
  -26.9934  -20.2248   22.2302 C   0  0  0  0  0  0  0  0  0  0  0  0
  -20.9095   -6.5063   22.2213 C   0  0  0  0  0  0  0  0  0  0  0  0
  -20.0855   -5.0704   24.4667 C   0  0  0  0  0  0  0  0  0  0  0  0
  -21.0608   -5.1201   22.2569 C   0  0  0  0  0  0  0  0  0  0  0  0
  -25.2477  -11.1330   21.8311 C   0  0  0  0  0  0  0  0  0  0  0  0
  -26.4530  -12.8092   22.5877 C   0  0  0  0  0  0  0  0  0  0  0  0
  -29.6282  -17.6905   20.0137 C   0  0  0  0  0  0  0  0  0  0  0  0
  -24.4121  -12.3294   23.9490 C   0  0  0  0  0  0  0  0  0  0  0  0
  -23.6045  -28.4893   21.4719 C   0  0  0  0  0  0  0  0  0  0  0  0
  -26.4689  -29.9719   21.1264 C   0  0  0  0  0  0  0  0  0  0  0  0
  -29.8302  -29.9541   21.7161 C   0  0  0  0  0  0  0  0  0  0  0  0
  -29.8712  -15.4089   19.0869 C   0  0  0  0  0  0  0  0  0  0  0  0
  -18.6723  -29.7524   21.1038 C   0  0  0  0  0  0  0  0  0  0  0  0
  -24.4481  -28.5143   23.8476 C   0  0  0  0  0  0  0  0  0  0  0  0
  -26.5240  -27.5897   21.9553 C   0  0  0  0  0  0  0  0  0  0  0  0
  -19.9795  -30.2717   20.5107 C   0  0  0  0  0  0  0  0  0  0  0  0
  -30.2161  -11.8985   19.3222 C   0  0  0  0  0  0  0  0  0  0  0  0
  -20.8031  -29.1200   19.9434 C   0  0  0  0  0  0  0  0  0  0  0  0
  -28.9634  -11.4631   20.0874 C   0  0  0  0  0  0  0  0  0  0  0  0
  -29.9199  -13.0416   18.3524 C   0  0  0  0  0  0  0  0  0  0  0  0
  -27.9964  -13.7660   19.7064 C   0  0  0  0  0  0  0  0  0  0  0  0
  -21.1820  -28.1192   21.0417 C   0  0  1  0  0  0  0  0  0  0  0  0
  -24.5738  -29.0996   22.4444 C   0  0  1  0  0  0  0  0  0  0  0  0
  -28.2571  -12.6646   20.7467 C   0  0  1  0  0  0  0  0  0  0  0  0
  -31.9141  -31.2819   21.2781 C   0  0  0  0  0  0  0  0  0  0  0  0
  -26.4993  -28.9689   18.2449 C   0  0  0  0  0  0  0  0  0  0  0  0
  -28.9477  -29.4855   18.1644 C   0  0  0  0  0  0  0  0  0  0  0  0
  -27.2994  -31.3199   18.5396 C   0  0  0  0  0  0  0  0  0  0  0  0
  -30.3211  -30.3561   24.6069 C   0  0  0  0  0  0  0  0  0  0  0  0
  -25.8679  -22.3265   24.9388 C   0  0  0  0  0  0  0  0  0  1  0  0
  -26.2755  -20.9824   24.3672 C   0  0  0  0  0  0  0  0  0  0  0  0
  -27.7518  -29.6616   20.3937 C   0  0  1  0  0  0  0  0  0  0  0  0
  -30.7662  -31.0271   22.2425 C   0  0  2  0  0  0  0  0  0  0  0  0
  -27.6141  -29.8414   18.8554 C   0  0  0  0  0  0  0  0  0  0  0  0
  -26.2712  -11.2212   20.9775 N   0  0  0  0  0  0  0  0  0  0  0  0
  -26.9864  -12.2497   21.4641 N   0  0  0  0  0  0  0  0  0  0  0  0
  -25.9129  -28.9268   21.8778 N   0  0  0  0  0  0  0  0  0  0  0  0
  -29.2603  -14.1431   19.0560 N   0  0  0  0  0  0  0  0  0  0  0  0
  -27.9086  -22.1726   21.0844 N   0  0  0  0  0  0  0  0  0  0  0  0
  -27.0446  -13.8528   23.2069 N   0  0  0  0  0  0  0  0  0  0  0  0
  -23.2850  -11.5059   24.0751 N   0  0  0  0  0  0  0  0  0  0  0  0
  -29.1834  -16.3824   19.8200 N   0  0  0  0  0  0  0  0  0  0  0  0
  -22.2788  -28.6308   21.8352 N   0  0  0  0  0  0  0  0  0  0  0  0
  -28.7819  -30.4960   21.0029 N   0  0  0  0  0  0  0  0  0  0  0  0
  -31.3383  -30.6166   23.5560 N   0  3  0  0  0  0  0  0  0  0  0  0
  -30.6739  -18.1565   19.5697 O   0  0  0  0  0  0  0  0  0  0  0  0
  -24.5957  -13.2503   24.7806 O   0  0  0  0  0  0  0  0  0  0  0  0
  -24.0280  -27.9325   20.4657 O   0  0  0  0  0  0  0  0  0  0  0  0
  -25.9819  -31.1020   21.0411 O   0  0  0  0  0  0  0  0  0  0  0  0
  -30.0130  -28.7550   21.9144 O   0  0  0  0  0  0  0  0  0  0  0  0
  -30.9542  -15.6426   18.5413 O   0  0  0  0  0  0  0  0  0  0  0  0
  -21.3188   -7.2205   21.1078 O   0  0  0  0  0  0  0  0  0  0  0  0
  -26.6984  -23.3425   24.3780 O   0  0  0  0  0  0  0  0  0  1  0  0
  -26.1419  -21.0197   22.9515 O   0  0  0  0  0  0  0  0  0  0  0  0
  -19.6912   -4.3813   25.5455 F   0  0  0  0  0  0  0  0  0  0  0  0
  -21.6024   -4.4727   21.2160 F   0  0  0  0  0  0  0  0  0  0  0  0
  1  2  1  0  0  0  0
  1  6  2  0  0  0  0
  2  7  2  0  0  0  0
  3  9  2  0  0  0  0
  3 18  1  0  0  0  0
  4 10  1  0  0  0  0
  4 18  2  0  0  0  0
  5 11  2  0  0  0  0
  5 19  1  0  0  0  0
  6 21  1  0  0  0  0
  7 23  1  0  0  0  0
  8 12  2  0  0  0  0
  8 22  1  0  0  0  0
  9 26  1  0  0  0  0
 10 26  2  0  0  0  0
 11 28  1  0  0  0  0
 12 27  1  0  0  0  0
 13 14  2  0  0  0  0
 13 29  1  0  0  0  0
 14 30  1  0  0  0  0
 15 19  2  0  0  0  0
 15 25  1  0  0  0  0
 16 24  1  0  0  0  0
 16 27  2  0  0  0  0
 17 30  2  0  0  0  0
 17 31  1  0  0  0  0
 18 32  1  0  0  0  0
 19 34  1  0  0  0  0
 20 32  1  0  0  0  0
 20 33  2  0  0  0  0
 20 35  1  0  0  0  0
 21 23  2  0  0  0  0
 21 40  1  0  0  0  0
 22 24  2  0  0  0  0
 22 41  1  0  0  0  0
 23 49  1  0  0  0  0
 24 42  1  0  0  0  0
 25 28  2  0  0  0  0
 25 66  1  0  0  0  0
 26 79  1  0  0  0  0
 27 80  1  0  0  0  0
 28 81  1  0  0  0  0
 29 31  2  0  0  0  0
 29 79  1  0  0  0  0
 30 82  1  0  0  0  0
 31 83  1  0  0  0  0
 32 62  2  0  0  0  0
 33 63  1  0  0  0  0
 33 67  1  0  0  0  0
 34 69  1  0  0  0  0
 34 73  2  0  0  0  0
 35 68  1  0  0  0  0
 35 74  2  0  0  0  0
 36 50  1  0  0  0  0
 36 70  1  0  0  0  0
 36 75  2  0  0  0  0
 37 59  1  0  0  0  0
 37 64  1  0  0  0  0
 37 76  2  0  0  0  0
 38 60  1  0  0  0  0
 38 71  1  0  0  0  0
 38 77  2  0  0  0  0
 39 65  1  0  0  0  0
 39 69  1  0  0  0  0
 39 78  2  0  0  0  0
 40 43  1  0  0  0  0
 41 50  1  0  0  0  0
 42 64  1  0  0  0  0
 43 45  1  0  0  0  0
 44 46  1  0  0  0  0
 44 47  1  0  0  0  0
 45 49  1  0  0  0  0
 46 51  1  0  0  0  0
 47 65  1  0  0  0  0
 48 51  1  0  0  0  0
 48 65  1  0  0  0  0
 49 70  1  0  0  0  0
 50 64  1  0  0  0  0
 51 63  1  0  0  0  0
 52 60  1  0  0  0  0
 53 61  1  0  0  0  0
 54 61  1  0  0  0  0
 55 61  1  0  0  0  0
 56 72  1  0  0  0  0
 57 58  1  0  0  0  0
 57 80  1  0  0  0  0
 58 81  1  0  0  0  0
 59 61  1  0  0  0  0
 59 71  1  0  0  0  0
 60 72  1  0  0  0  0
 62 63  1  0  0  0  0
M  CHG  1  72   1
M  ISO  4  39 100  57 101  69 100  80 101
M  END
> <Batch ID>
0087

> <Smiles>
CNC(C)C(=O)NC(C(=O)N1Cc2cc([101O:1][101CH2:1]COc3ccc(C(=O)[100NH:0][100C:0](=O)N4CCCC(n5nc(-c6ccc(Oc7ccc(F)cc7F)cc6)c(C(N)=O)c5N)C4)cc3N)ccc2CC1C(=O)NC1CCCc2ccccc21)C(C)(C)C

> <Shape>
0.240

> <Color>
0.097

> <Negative vol penalty>
0.000

$$$$

  -OEChem-04052300203D

 86 95  0     1  0  0  0  0  0999 V2000
  -32.8791  -36.5412   18.7654 C   0  0  0  0  0  0  0  0  0  0  0  0
  -32.7806  -35.1734   18.5311 C   0  0  0  0  0  0  0  0  0  0  0  0
  -23.8254   -9.7787   21.8935 C   0  0  0  0  0  0  0  0  0  0  0  0
  -24.7488  -11.0947   23.6970 C   0  0  0  0  0  0  0  0  0  0  0  0
  -32.3937  -37.0800   19.9562 C   0  0  0  0  0  0  0  0  0  0  0  0
  -32.1977  -34.3434   19.4880 C   0  0  0  0  0  0  0  0  0  0  0  0
  -28.8211  -29.3395   18.4558 C   0  0  0  0  0  0  0  0  0  0  0  0
  -29.1175  -20.3185   19.8555 C   0  0  0  0  0  0  0  0  0  0  0  0
  -28.7023  -19.0072   19.6235 C   0  0  0  0  0  0  0  0  0  0  0  0
  -23.4254   -8.8051   22.8088 C   0  0  0  0  0  0  0  0  0  0  0  0
  -24.3488  -10.1211   24.6123 C   0  0  0  0  0  0  0  0  0  0  0  0
  -29.1309  -27.9803   18.4666 C   0  0  0  0  0  0  0  0  0  0  0  0
  -20.9128   -8.3527   25.0258 C   0  0  0  0  0  0  0  0  0  0  0  0
  -19.6252   -7.8320   24.8971 C   0  0  0  0  0  0  0  0  0  0  0  0
  -28.3388  -27.8241   20.7398 C   0  0  0  0  0  0  0  0  0  0  0  0
  -30.9733  -18.3835   19.0844 C   0  0  0  0  0  0  0  0  0  0  0  0
  -20.5502   -5.6223   24.5829 C   0  0  0  0  0  0  0  0  0  0  0  0
  -24.4871  -10.9235   22.3376 C   0  0  0  0  0  0  0  0  0  0  0  0
  -24.1595  -13.0446   20.9587 C   0  0  0  0  0  0  0  0  0  0  0  0
  -31.7958  -36.2576   20.9241 C   0  0  0  0  0  0  0  0  0  0  0  0
  -28.2770  -29.9547   19.5924 C   0  0  0  0  0  0  0  0  0  0  0  0
  -31.7051  -34.8716   20.6935 C   0  0  0  0  0  0  0  0  0  0  0  0
  -28.0206  -29.1908   20.7400 C   0  0  0  0  0  0  0  0  0  0  0  0
  -30.4606  -20.6623   19.7019 C   0  0  0  0  0  0  0  0  0  0  0  0
  -29.6302  -18.0397   19.2380 C   0  0  0  0  0  0  0  0  0  0  0  0
  -23.6871   -8.9763   24.1682 C   0  0  0  0  0  0  0  0  0  0  0  0
  -28.8925  -27.2229   19.6097 C   0  0  0  0  0  0  0  0  0  0  0  0
  -22.0191   -7.5082   24.9329 C   0  0  0  0  0  0  0  0  0  0  0  0
  -19.4439   -6.4668   24.6757 C   0  0  0  0  0  0  0  0  0  0  0  0
  -31.3885  -19.6948   19.3164 C   0  0  0  0  0  0  0  0  0  0  0  0
  -21.8378   -6.1430   24.7115 C   0  0  0  0  0  0  0  0  0  0  0  0
  -24.9010  -11.9293   21.3926 C   0  0  0  0  0  0  0  0  0  0  0  0
  -24.9886  -13.6832   20.0692 C   0  0  0  0  0  0  0  0  0  0  0  0
  -30.8490  -24.2558   20.0832 C   0  0  0  0  0  0  0  0  0  0  0  0
  -32.1788  -23.8010   20.5121 C   0  0  0  0  0  0  0  0  0  0  0  0
  -30.0272  -23.0840   19.7187 C   0  0  0  0  0  0  0  0  0  0  0  0
  -30.4452  -25.5251   20.0305 C   0  0  0  0  0  0  0  0  0  1  0  0
  -22.8393  -13.4656   21.3268 C   0  0  0  0  0  0  0  0  0  0  0  0
  -29.2073  -32.2849   21.5439 C   0  0  0  0  0  0  0  0  0  0  0  0
  -26.2499  -31.8742   22.8118 C   0  0  0  0  0  0  0  0  0  0  0  0
  -23.5705  -29.8197   23.3087 C   0  0  0  0  0  0  0  0  0  0  0  0
  -29.9994  -15.6271   18.6143 C   0  0  0  0  0  0  0  0  0  0  0  0
  -31.3284  -36.8791   22.2163 C   0  0  0  0  0  0  0  0  0  0  0  0
  -27.9235  -31.4162   19.5556 C   0  0  0  0  0  0  0  0  0  0  0  0
  -27.4191  -29.7991   21.9795 C   0  0  0  0  0  0  0  0  0  0  0  0
  -32.2233  -22.3041   20.4237 C   0  0  0  0  0  0  0  0  0  0  0  0
  -30.3865  -35.9837   23.0171 C   0  0  0  0  0  0  0  0  0  0  0  0
  -29.3446  -12.1873   17.9692 C   0  0  0  0  0  0  0  0  0  0  0  0
  -30.9367  -34.5631   23.0935 C   0  0  0  0  0  0  0  0  0  0  0  0
  -28.0692  -11.9053   18.7666 C   0  0  0  0  0  0  0  0  0  0  0  0
  -30.2686  -13.1583   18.7020 C   0  0  0  0  0  0  0  0  0  0  0  0
  -28.3633  -14.1339   19.9216 C   0  0  0  0  0  0  0  0  0  0  0  0
  -31.0569  -33.9421   21.6966 C   0  0  1  0  0  0  0  0  0  0  0  0
  -27.8509  -32.0485   20.9421 C   0  0  1  0  0  0  0  0  0  0  0  0
  -27.3715  -13.2114   19.1942 C   0  0  2  0  0  0  0  0  0  0  0  0
  -21.3190  -29.7514   24.4148 C   0  0  0  0  0  0  0  0  0  0  0  0
  -27.5976  -31.5426   25.5291 C   0  0  0  0  0  0  0  0  0  0  0  0
  -25.4635  -30.5554   26.3891 C   0  0  0  0  0  0  0  0  0  0  0  0
  -25.5032  -32.9089   25.5632 C   0  0  0  0  0  0  0  0  0  0  0  0
  -22.1888  -29.3687   20.7306 C   0  0  0  0  0  0  0  0  0  0  0  0
  -25.6648  -31.0096   23.9023 C   0  0  1  0  0  0  0  0  0  0  0  0
  -22.0801  -30.0475   23.1319 C   0  0  2  0  0  0  0  0  0  0  0  0
  -26.0704  -31.4927   25.3234 C   0  0  0  0  0  0  0  0  0  0  0  0
  -26.1083  -11.8604   20.8253 N   0  0  0  0  0  0  0  0  0  0  0  0
  -26.1317  -12.9404   20.0258 N   0  0  0  0  0  0  0  0  0  0  0  0
  -30.8724  -21.9726   19.9343 N   0  0  0  0  0  0  0  0  0  0  0  0
  -27.0966  -31.2332   21.8963 N   0  0  0  0  0  0  0  0  0  0  0  0
  -29.5404  -14.3739   19.0721 N   0  0  0  0  0  0  0  0  0  0  0  0
  -24.8441  -14.8020   19.3277 N   0  0  0  0  0  0  0  0  0  0  0  0
  -22.1262  -12.6938   22.2542 N   0  0  0  0  0  0  0  0  0  0  0  0
  -29.2082  -16.7078   19.0023 N   0  0  0  0  0  0  0  0  0  0  0  0
  -29.7597  -33.5100   21.2222 N   0  0  0  0  0  0  0  0  0  0  0  0
  -24.2249  -30.9784   23.6701 N   0  0  0  0  0  0  0  0  0  0  0  0
  -21.5457  -29.1673   22.0546 N   0  3  0  0  0  0  0  0  0  0  0  0
  -33.0931  -24.5193   20.8781 O   0  0  0  0  0  0  0  0  0  0  0  0
  -28.8751  -23.1122   19.3226 O   0  0  0  0  0  0  0  0  0  0  0  0
  -22.3015  -14.4867   20.8351 O   0  0  0  0  0  0  0  0  0  0  0  0
  -29.7143  -31.4205   22.2492 O   0  0  0  0  0  0  0  0  0  0  0  0
  -25.9604  -33.0725   22.7694 O   0  0  0  0  0  0  0  0  0  0  0  0
  -24.1005  -28.7228   23.1464 O   0  0  0  0  0  0  0  0  0  0  0  0
  -31.0040  -15.7309   17.9058 O   0  0  0  0  0  0  0  0  0  0  0  0
  -23.2968   -8.0266   25.0616 O   0  0  0  0  0  0  0  0  0  0  0  0
  -29.1945  -25.8961   19.6233 O   0  0  0  0  0  0  0  0  0  1  0  0
  -18.2073   -5.9667   24.5537 F   0  0  0  0  0  0  0  0  0  0  0  0
  -32.6820  -20.0140   19.1651 F   0  0  0  0  0  0  0  0  0  0  0  0
  -22.8968   -5.3266   24.6225 F   0  0  0  0  0  0  0  0  0  0  0  0
  1  2  1  0  0  0  0
  1  5  2  0  0  0  0
  2  6  2  0  0  0  0
  3 10  2  0  0  0  0
  3 18  1  0  0  0  0
  4 11  1  0  0  0  0
  4 18  2  0  0  0  0
  5 20  1  0  0  0  0
  6 22  1  0  0  0  0
  7 12  2  0  0  0  0
  7 21  1  0  0  0  0
  8  9  2  0  0  0  0
  8 24  1  0  0  0  0
  9 25  1  0  0  0  0
 10 26  1  0  0  0  0
 11 26  2  0  0  0  0
 12 27  1  0  0  0  0
 13 14  2  0  0  0  0
 13 28  1  0  0  0  0
 14 29  1  0  0  0  0
 15 23  1  0  0  0  0
 15 27  2  0  0  0  0
 16 25  2  0  0  0  0
 16 30  1  0  0  0  0
 17 29  2  0  0  0  0
 17 31  1  0  0  0  0
 18 32  1  0  0  0  0
 19 32  1  0  0  0  0
 19 33  2  0  0  0  0
 19 38  1  0  0  0  0
 20 22  2  0  0  0  0
 20 43  1  0  0  0  0
 21 23  2  0  0  0  0
 21 44  1  0  0  0  0
 22 53  1  0  0  0  0
 23 45  1  0  0  0  0
 24 30  2  0  0  0  0
 24 66  1  0  0  0  0
 25 71  1  0  0  0  0
 26 82  1  0  0  0  0
 27 83  1  0  0  0  0
 28 31  2  0  0  0  0
 28 82  1  0  0  0  0
 29 84  1  0  0  0  0
 30 85  1  0  0  0  0
 31 86  1  0  0  0  0
 32 64  2  0  0  0  0
 33 65  1  0  0  0  0
 33 69  1  0  0  0  0
 34 35  1  0  0  0  0
 34 36  1  0  0  0  0
 34 37  2  0  0  0  0
 35 46  1  0  0  0  0
 35 75  2  0  0  0  0
 36 66  1  0  0  0  0
 36 76  2  0  0  0  0
 37 83  1  0  0  0  0
 38 70  1  0  0  0  0
 38 77  2  0  0  0  0
 39 54  1  0  0  0  0
 39 72  1  0  0  0  0
 39 78  2  0  0  0  0
 40 61  1  0  0  0  0
 40 67  1  0  0  0  0
 40 79  2  0  0  0  0
 41 62  1  0  0  0  0
 41 73  1  0  0  0  0
 41 80  2  0  0  0  0
 42 68  1  0  0  0  0
 42 71  1  0  0  0  0
 42 81  2  0  0  0  0
 43 47  1  0  0  0  0
 44 54  1  0  0  0  0
 45 67  1  0  0  0  0
 46 66  1  0  0  0  0
 47 49  1  0  0  0  0
 48 50  1  0  0  0  0
 48 51  1  0  0  0  0
 49 53  1  0  0  0  0
 50 55  1  0  0  0  0
 51 68  1  0  0  0  0
 52 55  1  0  0  0  0
 52 68  1  0  0  0  0
 53 72  1  0  0  0  0
 54 67  1  0  0  0  0
 55 65  1  0  0  0  0
 56 62  1  0  0  0  0
 57 63  1  0  0  0  0
 58 63  1  0  0  0  0
 59 63  1  0  0  0  0
 60 74  1  0  0  0  0
 61 63  1  0  0  0  0
 61 73  1  0  0  0  0
 62 74  1  0  0  0  0
 64 65  1  0  0  0  0
M  CHG  1  74   1
M  ISO  4  37 101  42 100  71 100  83 101
M  END
> <Batch ID>
0087

> <Smiles>
CNC(C)C(=O)NC(C(=O)N1Cc2cc([101O:1][101CH:1]=C3C(=O)CN(c4ccc([100NH:0][100C:0](=O)N5CCCC(n6nc(-c7ccc(Oc8ccc(F)cc8F)cc7)c(C(N)=O)c6N)C5)cc4F)C3=O)ccc2CC1C(=O)NC1CCCc2ccccc21)C(C)(C)C

> <Shape>
0.288

> <Color>
0.162

> <Negative vol penalty>
0.000

$$$$

  -OEChem-04052300203D

 84 92  0     1  0  0  0  0  0999 V2000
  -28.5502  -36.5485   25.1766 C   0  0  0  0  0  0  0  0  0  0  0  0
  -29.0054  -35.6339   24.2323 C   0  0  0  0  0  0  0  0  0  0  0  0
  -23.9843   -8.9280   21.0942 C   0  0  0  0  0  0  0  0  0  0  0  0
  -23.1790  -11.2019   20.9597 C   0  0  0  0  0  0  0  0  0  0  0  0
  -30.4900  -18.5303   21.4892 C   0  0  0  0  0  0  0  0  0  0  0  0
  -28.2616  -18.8093   20.5985 C   0  0  0  0  0  0  0  0  0  0  0  0
  -27.5228  -36.1941   26.0500 C   0  0  0  0  0  0  0  0  0  0  0  0
  -28.4341  -34.3639   24.1616 C   0  0  0  0  0  0  0  0  0  0  0  0
  -26.8087  -29.2286   19.4389 C   0  0  0  0  0  0  0  0  0  0  0  0
  -30.5051  -17.2105   21.0383 C   0  0  0  0  0  0  0  0  0  0  0  0
  -28.2767  -17.4894   20.1475 C   0  0  0  0  0  0  0  0  0  0  0  0
  -22.9861   -8.6294   22.0216 C   0  0  0  0  0  0  0  0  0  0  0  0
  -22.1808  -10.9032   21.8871 C   0  0  0  0  0  0  0  0  0  0  0  0
  -26.9930  -27.8630   19.2266 C   0  0  0  0  0  0  0  0  0  0  0  0
  -19.6779   -7.9316   21.9828 C   0  0  0  0  0  0  0  0  0  0  0  0
  -18.9676   -6.7435   21.8107 C   0  0  0  0  0  0  0  0  0  0  0  0
  -25.1704  -27.3888   20.7340 C   0  0  0  0  0  0  0  0  0  0  0  0
  -19.7134   -5.9834   23.9794 C   0  0  0  0  0  0  0  0  0  0  0  0
  -24.0808  -10.2143   20.5632 C   0  0  0  0  0  0  0  0  0  0  0  0
  -29.3682  -19.3297   21.2694 C   0  0  0  0  0  0  0  0  0  0  0  0
  -25.0319  -10.4125   18.2045 C   0  0  0  0  0  0  0  0  0  0  0  0
  -26.9321  -34.9224   25.9835 C   0  0  0  0  0  0  0  0  0  0  0  0
  -25.8092  -29.6849   20.3103 C   0  0  0  0  0  0  0  0  0  0  0  0
  -27.3988  -33.9916   25.0358 C   0  0  0  0  0  0  0  0  0  0  0  0
  -24.9738  -28.7607   20.9537 C   0  0  0  0  0  0  0  0  0  0  0  0
  -29.3985  -16.6900   20.3674 C   0  0  0  0  0  0  0  0  0  0  0  0
  -22.0844   -9.6169   22.4181 C   0  0  0  0  0  0  0  0  0  0  0  0
  -26.1757  -26.9428   19.8764 C   0  0  0  0  0  0  0  0  0  0  0  0
  -20.4061   -8.1455   23.1531 C   0  0  0  0  0  0  0  0  0  0  0  0
  -18.9853   -5.7695   22.8090 C   0  0  0  0  0  0  0  0  0  0  0  0
  -20.4238   -7.1715   24.1514 C   0  0  0  0  0  0  0  0  0  0  0  0
  -25.1120  -10.5235   19.6056 C   0  0  0  0  0  0  0  0  0  0  0  0
  -26.2637  -10.8231   17.7566 C   0  0  0  0  0  0  0  0  0  0  0  0
  -27.4572  -23.6335   20.3779 C   0  0  0  0  0  0  0  0  0  0  0  0
  -27.2141  -24.9408   20.4966 C   0  0  0  0  0  0  0  0  0  1  0  0
  -29.3521  -20.7349   21.7497 C   0  0  0  0  0  0  0  0  0  0  0  0
  -23.9416   -9.9772   17.3815 C   0  0  0  0  0  0  0  0  0  0  0  0
  -28.4067  -22.9681   21.3105 C   0  0  0  0  0  0  0  0  0  0  0  0
  -25.7824  -31.3536   23.0156 C   0  0  0  0  0  0  0  0  0  0  0  0
  -22.5675  -31.2362   22.5999 C   0  0  0  0  0  0  0  0  0  0  0  0
  -19.8805  -29.6468   21.2212 C   0  0  0  0  0  0  0  0  0  0  0  0
  -30.4480  -14.4226   20.0458 C   0  0  0  0  0  0  0  0  0  0  0  0
  -25.8567  -34.5685   26.9800 C   0  0  0  0  0  0  0  0  0  0  0  0
  -25.6058  -31.1620   20.5080 C   0  0  0  0  0  0  0  0  0  0  0  0
  -23.8731  -29.1997   21.8834 C   0  0  0  0  0  0  0  0  0  0  0  0
  -25.0496  -33.3323   26.5918 C   0  0  0  0  0  0  0  0  0  0  0  0
  -30.8592  -11.0176   19.0899 C   0  0  0  0  0  0  0  0  0  0  0  0
  -25.9780  -32.2060   26.1488 C   0  0  0  0  0  0  0  0  0  0  0  0
  -29.4246  -10.4960   18.9802 C   0  0  0  0  0  0  0  0  0  0  0  0
  -31.0152  -12.0110   20.2399 C   0  0  0  0  0  0  0  0  0  0  0  0
  -28.6278  -12.6068   20.1189 C   0  0  0  0  0  0  0  0  0  0  0  0
  -26.7876  -32.6128   24.9116 C   0  0  1  0  0  0  0  0  0  0  0  0
  -24.8920  -31.4974   21.8139 C   0  0  1  0  0  0  0  0  0  0  0  0
  -28.4066  -11.6523   18.9341 C   0  0  2  0  0  0  0  0  0  0  0  0
  -17.3772  -29.7634   21.0894 C   0  0  0  0  0  0  0  0  0  0  0  0
  -22.3685  -30.1119   25.4295 C   0  0  0  0  0  0  0  0  0  0  0  0
  -20.0358  -29.3744   24.8975 C   0  0  0  0  0  0  0  0  0  0  0  0
  -20.6160  -31.8001   24.8521 C   0  0  0  0  0  0  0  0  0  0  0  0
  -19.9357  -29.9962   18.2829 C   0  0  0  0  0  0  0  0  0  0  0  0
  -21.4697  -30.2868   23.0154 C   0  0  1  0  0  0  0  0  0  0  0  0
  -18.6900  -30.1738   20.4405 C   0  0  2  0  0  0  0  0  0  0  0  0
  -21.1444  -30.3846   24.5327 C   0  0  0  0  0  0  0  0  0  0  0  0
  -26.3007  -10.9695   20.0204 N   0  0  0  0  0  0  0  0  0  0  0  0
  -26.9789  -11.1423   18.8732 N   0  0  0  0  0  0  0  0  0  0  0  0
  -23.7180  -30.6544   22.0490 N   0  0  0  0  0  0  0  0  0  0  0  0
  -30.0208  -13.0804   20.1280 N   0  0  0  0  0  0  0  0  0  0  0  0
  -26.7940  -10.9386   16.5205 N   0  0  0  0  0  0  0  0  0  0  0  0
  -22.7472   -9.5903   18.0044 N   0  0  0  0  0  0  0  0  0  0  0  0
  -29.4149  -15.3492   19.9095 N   0  0  0  0  0  0  0  0  0  0  0  0
  -28.5329  -21.6080   21.0348 N   0  0  0  0  0  0  0  0  0  0  0  0
  -25.9689  -32.5269   23.7213 N   0  0  0  0  0  0  0  0  0  0  0  0
  -20.3354  -30.5670   22.1418 N   0  0  0  0  0  0  0  0  0  0  0  0
  -18.7103  -29.6468   19.0467 N   0  3  0  0  0  0  0  0  0  0  0  0
  -30.0596  -21.0483   22.7033 O   0  0  0  0  0  0  0  0  0  0  0  0
  -24.0296   -9.9171   16.1316 O   0  0  0  0  0  0  0  0  0  0  0  0
  -28.9869  -23.5772   22.2034 O   0  0  0  0  0  0  0  0  0  0  0  0
  -26.2634  -30.2588   23.2836 O   0  0  0  0  0  0  0  0  0  0  0  0
  -22.4071  -32.4498   22.7519 O   0  0  0  0  0  0  0  0  0  0  0  0
  -20.3568  -28.5291   21.0357 O   0  0  0  0  0  0  0  0  0  0  0  0
  -31.6438  -14.7253   20.0655 O   0  0  0  0  0  0  0  0  0  0  0  0
  -21.1101   -9.3258   23.3228 O   0  0  0  0  0  0  0  0  0  0  0  0
  -26.3539  -25.6093   19.6714 O   0  0  0  0  0  0  0  0  0  1  0  0
  -18.3019   -4.6293   22.6442 F   0  0  0  0  0  0  0  0  0  0  0  0
  -21.1206   -7.3718   25.2784 F   0  0  0  0  0  0  0  0  0  0  0  0
  1  2  1  0  0  0  0
  1  7  2  0  0  0  0
  2  8  2  0  0  0  0
  3 12  2  0  0  0  0
  3 19  1  0  0  0  0
  4 13  1  0  0  0  0
  4 19  2  0  0  0  0
  5 10  2  0  0  0  0
  5 20  1  0  0  0  0
  6 11  1  0  0  0  0
  6 20  2  0  0  0  0
  7 22  1  0  0  0  0
  8 24  1  0  0  0  0
  9 14  2  0  0  0  0
  9 23  1  0  0  0  0
 10 26  1  0  0  0  0
 11 26  2  0  0  0  0
 12 27  1  0  0  0  0
 13 27  2  0  0  0  0
 14 28  1  0  0  0  0
 15 16  2  0  0  0  0
 15 29  1  0  0  0  0
 16 30  1  0  0  0  0
 17 25  1  0  0  0  0
 17 28  2  0  0  0  0
 18 30  2  0  0  0  0
 18 31  1  0  0  0  0
 19 32  1  0  0  0  0
 20 36  1  0  0  0  0
 21 32  1  0  0  0  0
 21 33  2  0  0  0  0
 21 37  1  0  0  0  0
 22 24  2  0  0  0  0
 22 43  1  0  0  0  0
 23 25  2  0  0  0  0
 23 44  1  0  0  0  0
 24 52  1  0  0  0  0
 25 45  1  0  0  0  0
 26 69  1  0  0  0  0
 27 81  1  0  0  0  0
 28 82  1  0  0  0  0
 29 31  2  0  0  0  0
 29 81  1  0  0  0  0
 30 83  1  0  0  0  0
 31 84  1  0  0  0  0
 32 63  2  0  0  0  0
 33 64  1  0  0  0  0
 33 67  1  0  0  0  0
 34 35  2  0  0  0  0
 34 38  1  0  0  0  0
 35 82  1  0  0  0  0
 36 70  1  0  0  0  0
 36 74  2  0  0  0  0
 37 68  1  0  0  0  0
 37 75  2  0  0  0  0
 38 70  1  0  0  0  0
 38 76  2  0  0  0  0
 39 53  1  0  0  0  0
 39 71  1  0  0  0  0
 39 77  2  0  0  0  0
 40 60  1  0  0  0  0
 40 65  1  0  0  0  0
 40 78  2  0  0  0  0
 41 61  1  0  0  0  0
 41 72  1  0  0  0  0
 41 79  2  0  0  0  0
 42 66  1  0  0  0  0
 42 69  1  0  0  0  0
 42 80  2  0  0  0  0
 43 46  1  0  0  0  0
 44 53  1  0  0  0  0
 45 65  1  0  0  0  0
 46 48  1  0  0  0  0
 47 49  1  0  0  0  0
 47 50  1  0  0  0  0
 48 52  1  0  0  0  0
 49 54  1  0  0  0  0
 50 66  1  0  0  0  0
 51 54  1  0  0  0  0
 51 66  1  0  0  0  0
 52 71  1  0  0  0  0
 53 65  1  0  0  0  0
 54 64  1  0  0  0  0
 55 61  1  0  0  0  0
 56 62  1  0  0  0  0
 57 62  1  0  0  0  0
 58 62  1  0  0  0  0
 59 73  1  0  0  0  0
 60 62  1  0  0  0  0
 60 72  1  0  0  0  0
 61 73  1  0  0  0  0
 63 64  1  0  0  0  0
M  CHG  1  73   1
M  ISO  4  35 101  42 100  69 100  82 101
M  END
> <Batch ID>
0087

> <Smiles>
CNC(C)C(=O)NC(C(=O)N1Cc2cc([101O:1][101CH:1]=CC(=O)NC(=O)c3ccc([100NH:0][100C:0](=O)N4CCCC(n5nc(-c6ccc(Oc7ccc(F)cc7F)cc6)c(C(N)=O)c5N)C4)cc3)ccc2CC1C(=O)NC1CCCc2ccccc21)C(C)(C)C

> <Shape>
0.284

> <Color>
0.083

> <Negative vol penalty>
0.000

$$$$

  -OEChem-04052300203D

 87 96  0     1  0  0  0  0  0999 V2000
  -32.2881  -33.9694   15.3532 C   0  0  0  0  0  0  0  0  0  0  0  0
  -31.6757  -32.7523   15.6341 C   0  0  0  0  0  0  0  0  0  0  0  0
  -22.7806  -11.2971   19.0693 C   0  0  0  0  0  0  0  0  0  0  0  0
  -23.1131   -9.9165   21.0239 C   0  0  0  0  0  0  0  0  0  0  0  0
  -28.3003  -18.2781   20.3719 C   0  0  0  0  0  0  0  0  0  0  0  0
  -32.5009  -34.8937   16.3751 C   0  0  0  0  0  0  0  0  0  0  0  0
  -31.2766  -32.4583   16.9374 C   0  0  0  0  0  0  0  0  0  0  0  0
  -26.3587  -29.2313   18.6423 C   0  0  0  0  0  0  0  0  0  0  0  0
  -27.5931  -19.4642   20.5685 C   0  0  0  0  0  0  0  0  0  0  0  0
  -21.7547  -10.4518   18.6468 C   0  0  0  0  0  0  0  0  0  0  0  0
  -22.0871   -9.0712   20.6014 C   0  0  0  0  0  0  0  0  0  0  0  0
  -26.1970  -27.9013   19.0278 C   0  0  0  0  0  0  0  0  0  0  0  0
  -18.7078   -9.0581   20.6162 C   0  0  0  0  0  0  0  0  0  0  0  0
  -17.7722   -8.6513   21.5674 C   0  0  0  0  0  0  0  0  0  0  0  0
  -26.3412  -28.5612   21.3436 C   0  0  0  0  0  0  0  0  0  0  0  0
  -29.6369  -20.7259   20.3075 C   0  0  0  0  0  0  0  0  0  0  0  0
  -18.3766   -6.3452   21.1755 C   0  0  0  0  0  0  0  0  0  0  0  0
  -23.4599  -11.0294   20.2578 C   0  0  0  0  0  0  0  0  0  0  0  0
  -29.6758  -18.3159   20.1432 C   0  0  0  0  0  0  0  0  0  0  0  0
  -24.4017  -13.0380   21.5173 C   0  0  0  0  0  0  0  0  0  0  0  0
  -32.0955  -34.6149   17.6899 C   0  0  0  0  0  0  0  0  0  0  0  0
  -26.5241  -30.2366   19.6059 C   0  0  0  0  0  0  0  0  0  0  0  0
  -31.4853  -33.3792   17.9782 C   0  0  0  0  0  0  0  0  0  0  0  0
  -26.5023  -29.9035   20.9678 C   0  0  0  0  0  0  0  0  0  0  0  0
  -28.2614  -20.6881   20.5363 C   0  0  0  0  0  0  0  0  0  0  0  0
  -30.3441  -19.5398   20.1109 C   0  0  0  0  0  0  0  0  0  0  0  0
  -21.4079   -9.3389   19.4128 C   0  0  0  0  0  0  0  0  0  0  0  0
  -26.1911  -27.5656   20.3785 C   0  0  0  0  0  0  0  0  0  0  0  0
  -19.4777   -8.1085   19.9445 C   0  0  0  0  0  0  0  0  0  0  0  0
  -17.6067   -7.2949   21.8471 C   0  0  0  0  0  0  0  0  0  0  0  0
  -19.3122   -6.7520   20.2243 C   0  0  0  0  0  0  0  0  0  0  0  0
  -24.5202  -11.9019   20.6945 C   0  0  0  0  0  0  0  0  0  0  0  0
  -25.6853  -13.5122   21.6349 C   0  0  0  0  0  0  0  0  0  0  0  0
  -26.9029  -24.0611   20.6390 C   0  0  0  0  0  0  0  0  0  0  0  0
  -27.9107  -23.0869   20.1673 C   0  0  0  0  0  0  0  0  0  0  0  0
  -26.4093  -21.9705   21.5196 C   0  0  0  0  0  0  0  0  0  0  0  0
  -30.3933  -17.0450   19.9389 C   0  0  0  0  0  0  0  0  0  0  0  0
  -26.9578  -25.3565   20.3291 C   0  0  0  0  0  0  0  0  0  1  0  0
  -23.2355  -13.6132   22.1214 C   0  0  0  0  0  0  0  0  0  0  0  0
  -28.8276  -32.3100   20.3119 C   0  0  0  0  0  0  0  0  0  0  0  0
  -26.6284  -33.4439   22.4095 C   0  0  0  0  0  0  0  0  0  0  0  0
  -23.8467  -32.8490   24.2950 C   0  0  0  0  0  0  0  0  0  0  0  0
  -30.5505  -14.8553   19.2518 C   0  0  0  0  0  0  0  0  0  0  0  0
  -32.3894  -35.6256   18.7700 C   0  0  0  0  0  0  0  0  0  0  0  0
  -26.6706  -31.6701   19.1745 C   0  0  0  0  0  0  0  0  0  0  0  0
  -26.6556  -30.9480   22.0421 C   0  0  0  0  0  0  0  0  0  0  0  0
  -25.8826  -23.3829   21.4725 C   0  0  0  0  0  0  0  0  0  0  0  0
  -31.5984  -35.3918   20.0545 C   0  0  0  0  0  0  0  0  0  0  0  0
  -30.1054  -11.4435   20.3319 C   0  0  0  0  0  0  0  0  0  0  0  0
  -31.6505  -33.9204   20.4532 C   0  0  0  0  0  0  0  0  0  0  0  0
  -28.5966  -11.3445   20.5558 C   0  0  0  0  0  0  0  0  0  0  0  0
  -30.4386  -12.3647   19.1623 C   0  0  0  0  0  0  0  0  0  0  0  0
  -28.3395  -13.6380   19.5102 C   0  0  0  0  0  0  0  0  0  0  0  0
  -31.0159  -33.0339   19.3748 C   0  0  1  0  0  0  0  0  0  0  0  0
  -27.3460  -32.5445   20.2264 C   0  0  1  0  0  0  0  0  0  0  0  0
  -27.9665  -12.7410   20.7029 C   0  0  1  0  0  0  0  0  0  0  0  0
  -22.3049  -33.9574   25.9356 C   0  0  0  0  0  0  0  0  0  0  0  0
  -28.7396  -33.1447   24.5920 C   0  0  0  0  0  0  0  0  0  0  0  0
  -26.9109  -33.3405   26.2907 C   0  0  0  0  0  0  0  0  0  0  0  0
  -27.3770  -35.2367   24.7384 C   0  0  0  0  0  0  0  0  0  0  0  0
  -21.5101  -32.4985   22.5128 C   0  0  0  0  0  0  0  0  0  0  0  0
  -26.2681  -33.1475   23.8452 C   0  0  1  0  0  0  0  0  0  0  0  0
  -22.5616  -33.6376   24.4712 C   0  0  2  0  0  0  0  0  0  0  0  0
  -27.3229  -33.6972   24.8465 C   0  0  0  0  0  0  0  0  0  0  0  0
  -25.7797  -11.6685   20.3160 N   0  0  0  0  0  0  0  0  0  0  0  0
  -29.8164  -16.0150   19.4120 N   0  0  0  0  0  0  0  0  0  0  0  0
  -26.4643  -12.6645   20.9036 N   0  0  0  0  0  0  0  0  0  0  0  0
  -27.5545  -21.8722   20.7327 N   0  0  0  0  0  0  0  0  0  0  0  0
  -26.8022  -32.3346   21.5698 N   0  0  0  0  0  0  0  0  0  0  0  0
  -29.7958  -13.6699   19.3209 N   0  0  0  0  0  0  0  0  0  0  0  0
  -31.7368  -19.5997   19.8824 N   0  0  0  0  0  0  0  0  0  0  0  0
  -26.2124  -14.5675   22.2914 N   0  0  0  0  0  0  0  0  0  0  0  0
  -21.9955  -12.9994   21.8979 N   0  0  0  0  0  0  0  0  0  0  0  0
  -29.5722  -33.0967   19.4540 N   0  0  0  0  0  0  0  0  0  0  0  0
  -24.9225  -33.6746   24.0455 N   0  0  0  0  0  0  0  0  0  0  0  0
  -21.4016  -32.8611   23.9493 N   0  3  0  0  0  0  0  0  0  0  0  0
  -28.8526  -23.3439   19.4353 O   0  0  0  0  0  0  0  0  0  0  0  0
  -25.8723  -21.0737   22.1593 O   0  0  0  0  0  0  0  0  0  0  0  0
  -23.2892  -14.6505   22.8247 O   0  0  0  0  0  0  0  0  0  0  0  0
  -29.2632  -31.4778   21.0990 O   0  0  0  0  0  0  0  0  0  0  0  0
  -26.7441  -34.6166   22.0447 O   0  0  0  0  0  0  0  0  0  0  0  0
  -23.8923  -31.6234   24.3747 O   0  0  0  0  0  0  0  0  0  0  0  0
  -31.7681  -14.8339   19.0570 O   0  0  0  0  0  0  0  0  0  0  0  0
  -20.4067   -8.5140   19.0010 O   0  0  0  0  0  0  0  0  0  0  0  0
  -26.0341  -26.2681   20.7574 O   0  0  0  0  0  0  0  0  0  1  0  0
  -16.7093   -6.9044   22.7617 F   0  0  0  0  0  0  0  0  0  0  0  0
  -20.0498   -5.8351   19.5832 F   0  0  0  0  0  0  0  0  0  0  0  0
  1  2  1  0  0  0  0
  1  6  2  0  0  0  0
  2  7  2  0  0  0  0
  3 10  2  0  0  0  0
  3 18  1  0  0  0  0
  4 11  1  0  0  0  0
  4 18  2  0  0  0  0
  5  9  2  0  0  0  0
  5 19  1  0  0  0  0
  6 21  1  0  0  0  0
  7 23  1  0  0  0  0
  8 12  2  0  0  0  0
  8 22  1  0  0  0  0
  9 25  1  0  0  0  0
 10 27  1  0  0  0  0
 11 27  2  0  0  0  0
 12 28  1  0  0  0  0
 13 14  2  0  0  0  0
 13 29  1  0  0  0  0
 14 30  1  0  0  0  0
 15 24  1  0  0  0  0
 15 28  2  0  0  0  0
 16 25  2  0  0  0  0
 16 26  1  0  0  0  0
 17 30  2  0  0  0  0
 17 31  1  0  0  0  0
 18 32  1  0  0  0  0
 19 26  2  0  0  0  0
 19 37  1  0  0  0  0
 20 32  1  0  0  0  0
 20 33  2  0  0  0  0
 20 39  1  0  0  0  0
 21 23  2  0  0  0  0
 21 44  1  0  0  0  0
 22 24  2  0  0  0  0
 22 45  1  0  0  0  0
 23 54  1  0  0  0  0
 24 46  1  0  0  0  0
 25 68  1  0  0  0  0
 26 71  1  0  0  0  0
 27 84  1  0  0  0  0
 28 85  1  0  0  0  0
 29 31  2  0  0  0  0
 29 84  1  0  0  0  0
 30 86  1  0  0  0  0
 31 87  1  0  0  0  0
 32 65  2  0  0  0  0
 33 67  1  0  0  0  0
 33 72  1  0  0  0  0
 34 35  1  0  0  0  0
 34 38  2  0  0  0  0
 34 47  1  0  0  0  0
 35 68  1  0  0  0  0
 35 77  2  0  0  0  0
 36 47  1  0  0  0  0
 36 68  1  0  0  0  0
 36 78  2  0  0  0  0
 37 66  2  0  0  0  0
 38 85  1  0  0  0  0
 39 73  1  0  0  0  0
 39 79  2  0  0  0  0
 40 55  1  0  0  0  0
 40 74  1  0  0  0  0
 40 80  2  0  0  0  0
 41 62  1  0  0  0  0
 41 69  1  0  0  0  0
 41 81  2  0  0  0  0
 42 63  1  0  0  0  0
 42 75  1  0  0  0  0
 42 82  2  0  0  0  0
 43 66  1  0  0  0  0
 43 70  1  0  0  0  0
 43 83  2  0  0  0  0
 44 48  1  0  0  0  0
 45 55  1  0  0  0  0
 46 69  1  0  0  0  0
 48 50  1  0  0  0  0
 49 51  1  0  0  0  0
 49 52  1  0  0  0  0
 50 54  1  0  0  0  0
 51 56  1  0  0  0  0
 52 70  1  0  0  0  0
 53 56  1  0  0  0  0
 53 70  1  0  0  0  0
 54 74  1  0  0  0  0
 55 69  1  0  0  0  0
 56 67  1  0  0  0  0
 57 63  1  0  0  0  0
 58 64  1  0  0  0  0
 59 64  1  0  0  0  0
 60 64  1  0  0  0  0
 61 76  1  0  0  0  0
 62 64  1  0  0  0  0
 62 75  1  0  0  0  0
 63 76  1  0  0  0  0
 65 67  1  0  0  0  0
M  CHG  1  76   1
M  ISO  4  38 101  43 100  66 100  85 101
M  END
> <Batch ID>
0087

> <Smiles>
CNC(C)C(=O)NC(C(=O)N1Cc2cc([101O:1][101CH:1]=C3CC(=O)N(c4ccc(C=[100N:0][100C:0](=O)N5CCCC(n6nc(-c7ccc(Oc8ccc(F)cc8F)cc7)c(C(N)=O)c6N)C5)c(N)c4)C3=O)ccc2CC1C(=O)NC1CCCc2ccccc21)C(C)(C)C

> <Shape>
0.241

> <Color>
0.133

> <Negative vol penalty>
0.000

$$$$

  -OEChem-04052300203D

 87 96  0     1  0  0  0  0  0999 V2000
  -28.5114  -36.6059   23.3865 C   0  0  0  0  0  0  0  0  0  0  0  0
  -28.8634  -35.3390   22.9321 C   0  0  0  0  0  0  0  0  0  0  0  0
  -23.3721  -10.6544   21.7757 C   0  0  0  0  0  0  0  0  0  0  0  0
  -24.7214   -8.7141   21.2740 C   0  0  0  0  0  0  0  0  0  0  0  0
  -27.3372  -36.7816   24.1175 C   0  0  0  0  0  0  0  0  0  0  0  0
  -28.0420  -34.2468   23.2094 C   0  0  0  0  0  0  0  0  0  0  0  0
  -27.0220  -29.3992   19.6087 C   0  0  0  0  0  0  0  0  0  0  0  0
  -28.7891  -20.5262   19.0832 C   0  0  0  0  0  0  0  0  0  0  0  0
  -28.6399  -19.1852   18.7296 C   0  0  0  0  0  0  0  0  0  0  0  0
  -22.2533   -9.8361   21.9314 C   0  0  0  0  0  0  0  0  0  0  0  0
  -23.6026   -7.8958   21.4298 C   0  0  0  0  0  0  0  0  0  0  0  0
  -27.5602  -28.1131   19.5923 C   0  0  0  0  0  0  0  0  0  0  0  0
  -21.8312   -6.5598   23.9789 C   0  0  0  0  0  0  0  0  0  0  0  0
  -21.9853   -5.3881   24.7197 C   0  0  0  0  0  0  0  0  0  0  0  0
  -25.6850  -27.3185   20.8852 C   0  0  0  0  0  0  0  0  0  0  0  0
  -30.0139  -18.5371   20.6083 C   0  0  0  0  0  0  0  0  0  0  0  0
  -21.3347   -4.0842   22.7926 C   0  0  0  0  0  0  0  0  0  0  0  0
  -24.6062  -10.0934   21.4469 C   0  0  0  0  0  0  0  0  0  0  0  0
  -26.6817  -11.3201   22.2805 C   0  0  0  0  0  0  0  0  0  0  0  0
  -26.4961  -35.6927   24.3957 C   0  0  0  0  0  0  0  0  0  0  0  0
  -25.8148  -29.6572   20.2738 C   0  0  0  0  0  0  0  0  0  0  0  0
  -26.8562  -34.4080   23.9460 C   0  0  0  0  0  0  0  0  0  0  0  0
  -25.1323  -28.6082   20.9063 C   0  0  0  0  0  0  0  0  0  0  0  0
  -29.5508  -20.8727   20.1992 C   0  0  0  0  0  0  0  0  0  0  0  0
  -29.2523  -18.1906   19.4922 C   0  0  0  0  0  0  0  0  0  0  0  0
  -22.3685   -8.4568   21.7585 C   0  0  0  0  0  0  0  0  0  0  0  0
  -26.8931  -27.0731   20.2330 C   0  0  0  0  0  0  0  0  0  0  0  0
  -21.4288   -6.4938   22.6450 C   0  0  0  0  0  0  0  0  0  0  0  0
  -21.7371   -4.1503   24.1266 C   0  0  0  0  0  0  0  0  0  0  0  0
  -30.1631  -19.8782   20.9618 C   0  0  0  0  0  0  0  0  0  0  0  0
  -21.1805   -5.2560   22.0518 C   0  0  0  0  0  0  0  0  0  0  0  0
  -25.7622  -10.9382   21.2853 C   0  0  0  0  0  0  0  0  0  0  0  0
  -27.5865  -12.1180   21.6239 C   0  0  0  0  0  0  0  0  0  0  0  0
  -29.2618  -24.4439   20.8099 C   0  0  0  0  0  0  0  0  0  0  0  0
  -30.5881  -24.1854   21.3870 C   0  0  0  0  0  0  0  0  0  0  0  0
  -28.7058  -23.1819   20.2812 C   0  0  0  0  0  0  0  0  0  0  0  0
  -28.6536  -25.6294   20.7687 C   0  0  0  0  0  0  0  0  0  1  0  0
  -26.7151  -10.9836   23.6738 C   0  0  0  0  0  0  0  0  0  0  0  0
  -24.9510  -31.4868   22.7253 C   0  0  0  0  0  0  0  0  0  0  0  0
  -21.9690  -30.5172   21.8949 C   0  0  0  0  0  0  0  0  0  0  0  0
  -20.0012  -28.1830   20.3696 C   0  0  0  0  0  0  0  0  0  0  0  0
  -28.3333  -16.4215   18.0020 C   0  0  0  0  0  0  0  0  0  0  0  0
  -25.2612  -35.9239   25.2301 C   0  0  0  0  0  0  0  0  0  0  0  0
  -25.2340  -31.0446   20.2595 C   0  0  0  0  0  0  0  0  0  0  0  0
  -23.8229  -28.8287   21.6172 C   0  0  0  0  0  0  0  0  0  0  0  0
  -30.9016  -22.7267   21.2296 C   0  0  0  0  0  0  0  0  0  0  0  0
  -24.2554  -34.7777   25.1601 C   0  0  0  0  0  0  0  0  0  0  0  0
  -28.2819  -12.9715   16.6962 C   0  0  0  0  0  0  0  0  0  0  0  0
  -24.9619  -33.4364   25.3294 C   0  0  0  0  0  0  0  0  0  0  0  0
  -27.6355  -12.1857   17.8358 C   0  0  0  0  0  0  0  0  0  0  0  0
  -27.7909  -14.4155   16.6535 C   0  0  0  0  0  0  0  0  0  0  0  0
  -27.3150  -14.3601   19.0826 C   0  0  0  0  0  0  0  0  0  0  0  0
  -25.9786  -33.2027   24.2054 C   0  0  1  0  0  0  0  0  0  0  0  0
  -24.2588  -31.2960   21.4054 C   0  0  1  0  0  0  0  0  0  0  0  0
  -27.8218  -12.9131   19.1786 C   0  0  1  0  0  0  0  0  0  0  0  0
  -17.5983  -27.6446   19.8860 C   0  0  0  0  0  0  0  0  0  0  0  0
  -21.5896  -29.6235   24.7875 C   0  0  0  0  0  0  0  0  0  0  0  0
  -19.6196  -28.2721   24.0384 C   0  0  0  0  0  0  0  0  0  0  0  0
  -19.6010  -30.7526   23.7752 C   0  0  0  0  0  0  0  0  0  0  0  0
  -29.9431  -15.8052   19.7905 C   0  0  0  0  0  0  0  0  0  0  0  0
  -20.4462  -28.2844   17.4455 C   0  0  0  0  0  0  0  0  0  0  0  0
  -21.0784  -29.3576   22.2708 C   0  0  1  0  0  0  0  0  0  0  0  0
  -18.8617  -28.3202   19.3760 C   0  0  2  0  0  0  0  0  0  0  0  0
  -20.4978  -29.4973   23.7063 C   0  0  0  0  0  0  0  0  0  0  0  0
  -26.0557  -11.4514   20.0876 N   0  0  0  0  0  0  0  0  0  0  0  0
  -27.1699  -12.1640   20.3260 N   0  0  0  0  0  0  0  0  0  0  0  0
  -29.6981  -22.2128   20.5499 N   0  0  0  0  0  0  0  0  0  0  0  0
  -23.2990  -30.2040   21.5806 N   0  0  0  0  0  0  0  0  0  0  0  0
  -27.9372  -15.0697   17.9543 N   0  0  0  0  0  0  0  0  0  0  0  0
  -28.6898  -12.7779   22.0359 N   0  0  0  0  0  0  0  0  0  0  0  0
  -25.7088  -10.1526   24.1847 N   0  0  0  0  0  0  0  0  0  0  0  0
  -25.3047  -32.7959   22.9909 N   0  0  0  0  0  0  0  0  0  0  0  0
  -20.0669  -29.2636   21.2236 N   0  0  0  0  0  0  0  0  0  0  0  0
  -29.0977  -16.8025   19.1260 N   0  0  0  0  0  0  0  0  0  0  0  0
  -19.2332  -27.6997   18.0729 N   0  3  0  0  0  0  0  0  0  0  0  0
  -31.3128  -25.0165   21.9064 O   0  0  0  0  0  0  0  0  0  0  0  0
  -27.6230  -23.0478   19.7383 O   0  0  0  0  0  0  0  0  0  0  0  0
  -27.6015  -11.4206   24.4463 O   0  0  0  0  0  0  0  0  0  0  0  0
  -25.1481  -30.5184   23.4498 O   0  0  0  0  0  0  0  0  0  0  0  0
  -21.4999  -31.6579   21.8737 O   0  0  0  0  0  0  0  0  0  0  0  0
  -20.7550  -27.2125   20.3888 O   0  0  0  0  0  0  0  0  0  0  0  0
  -28.0513  -17.2163   17.0974 O   0  0  0  0  0  0  0  0  0  0  0  0
  -21.2770   -7.6580   21.9106 O   0  0  0  0  0  0  0  0  0  0  0  0
  -27.4165  -25.8171   20.2191 O   0  0  0  0  0  0  0  0  0  1  0  0
  -21.8866   -3.0250   24.8377 F   0  0  0  0  0  0  0  0  0  0  0  0
  -30.8981  -20.1996   22.0362 F   0  0  0  0  0  0  0  0  0  0  0  0
  -20.7948   -5.1862   20.7704 F   0  0  0  0  0  0  0  0  0  0  0  0
  1  2  1  0  0  0  0
  1  5  2  0  0  0  0
  2  6  2  0  0  0  0
  3 10  2  0  0  0  0
  3 18  1  0  0  0  0
  4 11  1  0  0  0  0
  4 18  2  0  0  0  0
  5 20  1  0  0  0  0
  6 22  1  0  0  0  0
  7 12  2  0  0  0  0
  7 21  1  0  0  0  0
  8  9  2  0  0  0  0
  8 24  1  0  0  0  0
  9 25  1  0  0  0  0
 10 26  1  0  0  0  0
 11 26  2  0  0  0  0
 12 27  1  0  0  0  0
 13 14  2  0  0  0  0
 13 28  1  0  0  0  0
 14 29  1  0  0  0  0
 15 23  1  0  0  0  0
 15 27  2  0  0  0  0
 16 25  2  0  0  0  0
 16 30  1  0  0  0  0
 17 29  2  0  0  0  0
 17 31  1  0  0  0  0
 18 32  1  0  0  0  0
 19 32  1  0  0  0  0
 19 33  2  0  0  0  0
 19 38  1  0  0  0  0
 20 22  2  0  0  0  0
 20 43  1  0  0  0  0
 21 23  2  0  0  0  0
 21 44  1  0  0  0  0
 22 53  1  0  0  0  0
 23 45  1  0  0  0  0
 24 30  2  0  0  0  0
 24 67  1  0  0  0  0
 25 74  1  0  0  0  0
 26 83  1  0  0  0  0
 27 84  1  0  0  0  0
 28 31  2  0  0  0  0
 28 83  1  0  0  0  0
 29 85  1  0  0  0  0
 30 86  1  0  0  0  0
 31 87  1  0  0  0  0
 32 65  2  0  0  0  0
 33 66  1  0  0  0  0
 33 70  1  0  0  0  0
 34 35  1  0  0  0  0
 34 36  1  0  0  0  0
 34 37  2  0  0  0  0
 35 46  1  0  0  0  0
 35 76  2  0  0  0  0
 36 67  1  0  0  0  0
 36 77  2  0  0  0  0
 37 84  1  0  0  0  0
 38 71  1  0  0  0  0
 38 78  2  0  0  0  0
 39 54  1  0  0  0  0
 39 72  1  0  0  0  0
 39 79  2  0  0  0  0
 40 62  1  0  0  0  0
 40 68  1  0  0  0  0
 40 80  2  0  0  0  0
 41 63  1  0  0  0  0
 41 73  1  0  0  0  0
 41 81  2  0  0  0  0
 42 69  1  0  0  0  0
 42 74  1  0  0  0  0
 42 82  2  0  0  0  0
 43 47  1  0  0  0  0
 44 54  1  0  0  0  0
 45 68  1  0  0  0  0
 46 67  1  0  0  0  0
 47 49  1  0  0  0  0
 48 50  1  0  0  0  0
 48 51  1  0  0  0  0
 49 53  1  0  0  0  0
 50 55  1  0  0  0  0
 51 69  1  0  0  0  0
 52 55  1  0  0  0  0
 52 69  1  0  0  0  0
 53 72  1  0  0  0  0
 54 68  1  0  0  0  0
 55 66  1  0  0  0  0
 56 63  1  0  0  0  0
 57 64  1  0  0  0  0
 58 64  1  0  0  0  0
 59 64  1  0  0  0  0
 60 74  1  0  0  0  0
 61 75  1  0  0  0  0
 62 64  1  0  0  0  0
 62 73  1  0  0  0  0
 63 75  1  0  0  0  0
 65 66  1  0  0  0  0
M  CHG  1  75   1
M  ISO  4  37 101  42 100  74 100  84 101
M  END
> <Batch ID>
0087

> <Smiles>
CNC(C)C(=O)NC(C(=O)N1Cc2cc([101O:1][101CH:1]=C3C(=O)CN(c4ccc([100N:0](C)[100C:0](=O)N5CCCC(n6nc(-c7ccc(Oc8ccc(F)cc8F)cc7)c(C(N)=O)c6N)C5)cc4F)C3=O)ccc2CC1C(=O)NC1CCCc2ccccc21)C(C)(C)C

> <Shape>
0.357

> <Color>
0.099

> <Negative vol penalty>
0.000

$$$$

  -OEChem-04052300203D

 83 91  0     1  0  0  0  0  0999 V2000
  -26.3201  -38.0835   20.8617 C   0  0  0  0  0  0  0  0  0  0  0  0
  -26.9672  -36.9180   20.4640 C   0  0  0  0  0  0  0  0  0  0  0  0
  -23.9990   -9.4399   22.1177 C   0  0  0  0  0  0  0  0  0  0  0  0
  -24.3404  -11.1194   23.8206 C   0  0  0  0  0  0  0  0  0  0  0  0
  -25.4909  -38.0713   21.9825 C   0  0  0  0  0  0  0  0  0  0  0  0
  -26.7864  -35.7398   21.1876 C   0  0  0  0  0  0  0  0  0  0  0  0
  -26.6118  -30.0392   18.9564 C   0  0  0  0  0  0  0  0  0  0  0  0
  -30.3160  -20.1398   19.3308 C   0  0  0  0  0  0  0  0  0  0  0  0
  -30.1564  -18.7569   19.2427 C   0  0  0  0  0  0  0  0  0  0  0  0
  -23.5820   -8.5349   23.0938 C   0  0  0  0  0  0  0  0  0  0  0  0
  -23.9233  -10.2145   24.7967 C   0  0  0  0  0  0  0  0  0  0  0  0
  -27.5727  -29.0319   18.8803 C   0  0  0  0  0  0  0  0  0  0  0  0
  -20.7845   -7.9245   24.8923 C   0  0  0  0  0  0  0  0  0  0  0  0
  -19.6419   -7.1688   24.6298 C   0  0  0  0  0  0  0  0  0  0  0  0
  -26.7132  -28.0664   20.9170 C   0  0  0  0  0  0  0  0  0  0  0  0
  -27.9160  -20.4146   19.3681 C   0  0  0  0  0  0  0  0  0  0  0  0
  -20.9375   -5.1396   24.8325 C   0  0  0  0  0  0  0  0  0  0  0  0
  -24.3783  -10.7321   22.4811 C   0  0  0  0  0  0  0  0  0  0  0  0
  -24.0054  -12.5664   20.7479 C   0  0  0  0  0  0  0  0  0  0  0  0
  -25.2922  -36.8901   22.7146 C   0  0  0  0  0  0  0  0  0  0  0  0
  -25.6998  -30.0739   20.0211 C   0  0  0  0  0  0  0  0  0  0  0  0
  -25.9548  -35.7121   22.3200 C   0  0  0  0  0  0  0  0  0  0  0  0
  -25.7401  -29.0737   21.0030 C   0  0  0  0  0  0  0  0  0  0  0  0
  -29.1959  -20.9686   19.3936 C   0  0  0  0  0  0  0  0  0  0  0  0
  -28.8765  -18.2029   19.2172 C   0  0  0  0  0  0  0  0  0  0  0  0
  -23.5441   -8.9222   24.4333 C   0  0  0  0  0  0  0  0  0  0  0  0
  -27.6254  -28.0469   19.8622 C   0  0  0  0  0  0  0  0  0  0  0  0
  -22.0037   -7.2879   25.1248 C   0  0  0  0  0  0  0  0  0  0  0  0
  -19.7184   -5.7764   24.5999 C   0  0  0  0  0  0  0  0  0  0  0  0
  -27.7563  -19.0317   19.2799 C   0  0  0  0  0  0  0  0  0  0  0  0
  -22.0802   -5.8954   25.0949 C   0  0  0  0  0  0  0  0  0  0  0  0
  -24.8097  -11.6672   21.4733 C   0  0  0  0  0  0  0  0  0  0  0  0
  -24.8844  -13.2250   19.9233 C   0  0  0  0  0  0  0  0  0  0  0  0
  -28.9385  -24.7050   19.6361 C   0  0  0  0  0  0  0  0  0  0  0  0
  -28.1318  -25.7684   19.7115 C   0  0  0  0  0  0  0  0  0  1  0  0
  -22.5902  -12.7867   20.8137 C   0  0  0  0  0  0  0  0  0  0  0  0
  -28.3573  -23.3333   19.5530 C   0  0  0  0  0  0  0  0  0  0  0  0
  -25.0629  -32.1266   22.3629 C   0  0  0  0  0  0  0  0  0  0  0  0
  -22.6127  -30.0860   22.9583 C   0  0  0  0  0  0  0  0  0  0  0  0
  -21.3343  -26.9341   22.6789 C   0  0  0  0  0  0  0  0  0  0  0  0
  -29.7251  -15.8364   19.0562 C   0  0  0  0  0  0  0  0  0  0  0  0
  -24.4238  -36.9371   23.9468 C   0  0  0  0  0  0  0  0  0  0  0  0
  -24.6523  -31.1520   20.0744 C   0  0  0  0  0  0  0  0  0  0  0  0
  -24.7707  -29.0545   22.1556 C   0  0  0  0  0  0  0  0  0  0  0  0
  -23.9899  -35.5588   24.4391 C   0  0  0  0  0  0  0  0  0  0  0  0
  -29.7430  -12.2812   18.8623 C   0  0  0  0  0  0  0  0  0  0  0  0
  -25.1789  -34.6037   24.4683 C   0  0  0  0  0  0  0  0  0  0  0  0
  -28.3949  -11.8785   19.4646 C   0  0  0  0  0  0  0  0  0  0  0  0
  -30.3465  -13.4878   19.5788 C   0  0  0  0  0  0  0  0  0  0  0  0
  -28.1135  -14.2524   20.2847 C   0  0  0  0  0  0  0  0  0  0  0  0
  -25.7643  -34.4084   23.0645 C   0  0  1  0  0  0  0  0  0  0  0  0
  -24.1028  -31.3822   21.4788 C   0  0  1  0  0  0  0  0  0  0  0  0
  -27.4357  -13.0816   19.5542 C   0  0  2  0  0  0  0  0  0  0  0  0
  -19.3267  -25.5607   23.2961 C   0  0  0  0  0  0  0  0  0  0  0  0
  -23.6092  -29.9276   25.8378 C   0  0  0  0  0  0  0  0  0  0  0  0
  -22.2028  -27.8783   26.1383 C   0  0  0  0  0  0  0  0  0  0  0  0
  -21.1233  -30.0618   25.6001 C   0  0  0  0  0  0  0  0  0  0  0  0
  -20.6950  -26.3827   19.8423 C   0  0  0  0  0  0  0  0  0  0  0  0
  -22.4322  -28.8511   23.8077 C   0  0  1  0  0  0  0  0  0  0  0  0
  -19.9717  -26.4357   22.2325 C   0  0  2  0  0  0  0  0  0  0  0  0
  -22.3615  -29.1809   25.3254 C   0  0  0  0  0  0  0  0  0  0  0  0
  -26.1005  -11.7447   21.1388 N   0  0  0  0  0  0  0  0  0  0  0  0
  -26.1139  -12.7004   20.1941 N   0  0  0  0  0  0  0  0  0  0  0  0
  -23.7691  -30.1335   22.1669 N   0  0  0  0  0  0  0  0  0  0  0  0
  -29.3828  -14.5898   19.6216 N   0  0  0  0  0  0  0  0  0  0  0  0
  -24.7179  -14.1958   19.0002 N   0  0  0  0  0  0  0  0  0  0  0  0
  -21.8364  -12.0239   21.7161 N   0  0  0  0  0  0  0  0  0  0  0  0
  -29.3578  -22.3731   19.4825 N   0  0  0  0  0  0  0  0  0  0  0  0
  -28.7175  -16.7978   19.1271 N   0  0  0  0  0  0  0  0  0  0  0  0
  -24.9401  -33.5013   22.2949 N   0  0  0  0  0  0  0  0  0  0  0  0
  -21.2521  -28.1678   23.2891 N   0  0  0  0  0  0  0  0  0  0  0  0
  -20.0968  -25.6378   20.9800 N   0  3  0  0  0  0  0  0  0  0  0  0
  -22.0088  -13.6234   20.0818 O   0  0  0  0  0  0  0  0  0  0  0  0
  -27.1447  -23.1562   19.5524 O   0  0  0  0  0  0  0  0  0  0  0  0
  -25.8554  -31.5002   23.0566 O   0  0  0  0  0  0  0  0  0  0  0  0
  -21.7555  -30.9725   22.9902 O   0  0  0  0  0  0  0  0  0  0  0  0
  -22.3677  -26.2914   22.5071 O   0  0  0  0  0  0  0  0  0  0  0  0
  -30.8207  -16.0280   18.5223 O   0  0  0  0  0  0  0  0  0  0  0  0
  -23.1370   -8.0395   25.3860 O   0  0  0  0  0  0  0  0  0  0  0  0
  -28.5627  -27.0629   19.7906 O   0  0  0  0  0  0  0  0  0  1  0  0
  -18.6208   -5.0507   24.3494 F   0  0  0  0  0  0  0  0  0  0  0  0
  -26.5213  -18.5103   19.2546 F   0  0  0  0  0  0  0  0  0  0  0  0
  -23.2483   -5.2781   25.3187 F   0  0  0  0  0  0  0  0  0  0  0  0
  1  2  1  0  0  0  0
  1  5  2  0  0  0  0
  2  6  2  0  0  0  0
  3 10  2  0  0  0  0
  3 18  1  0  0  0  0
  4 11  1  0  0  0  0
  4 18  2  0  0  0  0
  5 20  1  0  0  0  0
  6 22  1  0  0  0  0
  7 12  2  0  0  0  0
  7 21  1  0  0  0  0
  8  9  2  0  0  0  0
  8 24  1  0  0  0  0
  9 25  1  0  0  0  0
 10 26  1  0  0  0  0
 11 26  2  0  0  0  0
 12 27  1  0  0  0  0
 13 14  2  0  0  0  0
 13 28  1  0  0  0  0
 14 29  1  0  0  0  0
 15 23  1  0  0  0  0
 15 27  2  0  0  0  0
 16 24  2  0  0  0  0
 16 30  1  0  0  0  0
 17 29  2  0  0  0  0
 17 31  1  0  0  0  0
 18 32  1  0  0  0  0
 19 32  1  0  0  0  0
 19 33  2  0  0  0  0
 19 36  1  0  0  0  0
 20 22  2  0  0  0  0
 20 42  1  0  0  0  0
 21 23  2  0  0  0  0
 21 43  1  0  0  0  0
 22 51  1  0  0  0  0
 23 44  1  0  0  0  0
 24 68  1  0  0  0  0
 25 30  2  0  0  0  0
 25 69  1  0  0  0  0
 26 79  1  0  0  0  0
 27 80  1  0  0  0  0
 28 31  2  0  0  0  0
 28 79  1  0  0  0  0
 29 81  1  0  0  0  0
 30 82  1  0  0  0  0
 31 83  1  0  0  0  0
 32 62  2  0  0  0  0
 33 63  1  0  0  0  0
 33 66  1  0  0  0  0
 34 35  2  0  0  0  0
 34 37  1  0  0  0  0
 35 80  1  0  0  0  0
 36 67  1  0  0  0  0
 36 73  2  0  0  0  0
 37 68  1  0  0  0  0
 37 74  2  0  0  0  0
 38 52  1  0  0  0  0
 38 70  1  0  0  0  0
 38 75  2  0  0  0  0
 39 59  1  0  0  0  0
 39 64  1  0  0  0  0
 39 76  2  0  0  0  0
 40 60  1  0  0  0  0
 40 71  1  0  0  0  0
 40 77  2  0  0  0  0
 41 65  1  0  0  0  0
 41 69  1  0  0  0  0
 41 78  2  0  0  0  0
 42 45  1  0  0  0  0
 43 52  1  0  0  0  0
 44 64  1  0  0  0  0
 45 47  1  0  0  0  0
 46 48  1  0  0  0  0
 46 49  1  0  0  0  0
 47 51  1  0  0  0  0
 48 53  1  0  0  0  0
 49 65  1  0  0  0  0
 50 53  1  0  0  0  0
 50 65  1  0  0  0  0
 51 70  1  0  0  0  0
 52 64  1  0  0  0  0
 53 63  1  0  0  0  0
 54 60  1  0  0  0  0
 55 61  1  0  0  0  0
 56 61  1  0  0  0  0
 57 61  1  0  0  0  0
 58 72  1  0  0  0  0
 59 61  1  0  0  0  0
 59 71  1  0  0  0  0
 60 72  1  0  0  0  0
 62 63  1  0  0  0  0
M  CHG  1  72   1
M  ISO  4  35 101  41 100  69 100  80 101
M  END
> <Batch ID>
0087

> <Smiles>
CNC(C)C(=O)NC(C(=O)N1Cc2cc([101O:1][101CH:1]=CC(=O)Nc3ccc([100NH:0][100C:0](=O)N4CCCC(n5nc(-c6ccc(Oc7ccc(F)cc7F)cc6)c(C(N)=O)c5N)C4)c(F)c3)ccc2CC1C(=O)NC1CCCc2ccccc21)C(C)(C)C

> <Shape>
0.336

> <Color>
0.110

> <Negative vol penalty>
0.000

$$$$

  -OEChem-04052300203D

 87 96  0     1  0  0  0  0  0999 V2000
  -28.0415  -36.9774   15.3118 C   0  0  0  0  0  0  0  0  0  0  0  0
  -27.3906  -35.7587   15.1492 C   0  0  0  0  0  0  0  0  0  0  0  0
  -22.9138  -10.9367   19.1420 C   0  0  0  0  0  0  0  0  0  0  0  0
  -23.2557   -9.7334   21.2090 C   0  0  0  0  0  0  0  0  0  0  0  0
  -29.4417  -19.8035   20.5683 C   0  0  0  0  0  0  0  0  0  0  0  0
  -27.8741  -18.4209   19.3568 C   0  0  0  0  0  0  0  0  0  0  0  0
  -28.9595  -37.1433   16.3479 C   0  0  0  0  0  0  0  0  0  0  0  0
  -27.6582  -34.7047   16.0221 C   0  0  0  0  0  0  0  0  0  0  0  0
  -24.4845  -29.0802   19.1219 C   0  0  0  0  0  0  0  0  0  0  0  0
  -28.4852  -20.8153   20.6513 C   0  0  0  0  0  0  0  0  0  0  0  0
  -26.9176  -19.4327   19.4398 C   0  0  0  0  0  0  0  0  0  0  0  0
  -21.9736   -9.9864   18.7442 C   0  0  0  0  0  0  0  0  0  0  0  0
  -22.3153   -8.7831   20.8112 C   0  0  0  0  0  0  0  0  0  0  0  0
  -24.6556  -27.7075   19.2954 C   0  0  0  0  0  0  0  0  0  0  0  0
  -22.1975   -6.1060   18.7496 C   0  0  0  0  0  0  0  0  0  0  0  0
  -22.5180   -4.7609   18.9330 C   0  0  0  0  0  0  0  0  0  0  0  0
  -26.2017  -28.1342   21.0973 C   0  0  0  0  0  0  0  0  0  0  0  0
  -24.3854  -22.7282   20.6510 C   0  0  0  0  0  0  0  0  0  0  0  0
  -20.5913   -4.4973   20.3666 C   0  0  0  0  0  0  0  0  0  0  0  0
  -23.5550  -10.8102   20.3744 C   0  0  0  0  0  0  0  0  0  0  0  0
  -29.1362  -18.6063   19.9210 C   0  0  0  0  0  0  0  0  0  0  0  0
  -24.2870  -12.9725   21.5130 C   0  0  0  0  0  0  0  0  0  0  0  0
  -29.2313  -36.0939   17.2399 C   0  0  0  0  0  0  0  0  0  0  0  0
  -25.1802  -29.9919   19.9290 C   0  0  0  0  0  0  0  0  0  0  0  0
  -28.5817  -34.8563   17.0704 C   0  0  0  0  0  0  0  0  0  0  0  0
  -26.0357  -29.5179   20.9337 C   0  0  0  0  0  0  0  0  0  0  0  0
  -25.2476  -23.6061   19.9489 C   0  0  0  0  0  0  0  0  0  0  0  0
  -27.2231  -20.6299   20.0871 C   0  0  0  0  0  0  0  0  0  0  0  0
  -21.6743   -8.9096   19.5788 C   0  0  0  0  0  0  0  0  0  0  0  0
  -25.5165  -27.2343   20.2813 C   0  0  0  0  0  0  0  0  0  0  0  0
  -21.0739   -6.6468   19.3748 C   0  0  0  0  0  0  0  0  0  0  0  0
  -21.7150   -3.9566   19.7415 C   0  0  0  0  0  0  0  0  0  0  0  0
  -20.2708   -5.8424   20.1833 C   0  0  0  0  0  0  0  0  0  0  0  0
  -24.5268  -11.7913   20.7856 C   0  0  0  0  0  0  0  0  0  0  0  0
  -26.4014  -22.9094   19.6647 C   0  0  0  0  0  0  0  0  0  0  0  0
  -25.5255  -13.5512   21.6461 C   0  0  0  0  0  0  0  0  0  0  0  0
  -25.0386  -21.5217   20.7747 C   0  0  0  0  0  0  0  0  0  0  0  0
  -30.1545  -17.5283   19.8327 C   0  0  0  0  0  0  0  0  0  0  0  0
  -23.0549  -13.4993   22.0230 C   0  0  0  0  0  0  0  0  0  0  0  0
  -27.3275  -32.2744   19.3971 C   0  0  0  0  0  0  0  0  0  0  0  0
  -26.9009  -32.8713   22.5569 C   0  0  0  0  0  0  0  0  0  0  0  0
  -25.9585  -31.7080   25.6237 C   0  0  0  0  0  0  0  0  0  0  0  0
  -30.4370  -15.0820   19.5890 C   0  0  0  0  0  0  0  0  0  0  0  0
  -30.2666  -36.3056   18.3160 C   0  0  0  0  0  0  0  0  0  0  0  0
  -24.9641  -31.4692   19.7468 C   0  0  0  0  0  0  0  0  0  0  0  0
  -26.7903  -30.4549   21.8399 C   0  0  0  0  0  0  0  0  0  0  0  0
  -30.2153  -35.2580   19.4251 C   0  0  0  0  0  0  0  0  0  0  0  0
  -30.1431  -11.7231   20.6514 C   0  0  0  0  0  0  0  0  0  0  0  0
  -30.1129  -33.8566   18.8315 C   0  0  0  0  0  0  0  0  0  0  0  0
  -28.6363  -11.5376   20.8496 C   0  0  0  0  0  0  0  0  0  0  0  0
  -30.4520  -12.6072   19.4440 C   0  0  0  0  0  0  0  0  0  0  0  0
  -28.2621  -13.7159   19.6254 C   0  0  0  0  0  0  0  0  0  0  0  0
  -28.8267  -33.6972   18.0119 C   0  0  1  0  0  0  0  0  0  0  0  0
  -26.1160  -32.3124   20.2851 C   0  0  1  0  0  0  0  0  0  0  0  0
  -27.8976  -12.8909   20.8702 C   0  0  1  0  0  0  0  0  0  0  0  0
  -27.6206  -23.3522   18.9515 C   0  0  0  0  0  0  0  0  0  0  0  0
  -25.7541  -32.4174   28.0221 C   0  0  0  0  0  0  0  0  0  0  0  0
  -29.9255  -32.6355   22.8818 C   0  0  0  0  0  0  0  0  0  0  0  0
  -29.5721  -32.4006   25.3492 C   0  0  0  0  0  0  0  0  0  0  0  0
  -28.8781  -34.4951   24.1854 C   0  0  0  0  0  0  0  0  0  0  0  0
  -23.0376  -31.2311   25.6368 C   0  0  0  0  0  0  0  0  0  0  0  0
  -24.9503  -25.0314   19.5867 C   0  0  0  0  0  0  0  0  0  1  0  0
  -27.5392  -32.3796   23.8335 C   0  0  1  0  0  0  0  0  0  0  0  0
  -25.0421  -32.2911   26.6842 C   0  0  2  0  0  0  0  0  0  0  0  0
  -28.9661  -32.9598   24.0443 C   0  0  0  0  0  0  0  0  0  0  0  0
  -25.8163  -11.6281   20.4779 N   0  0  0  0  0  0  0  0  0  0  0  0
  -26.2632  -21.6436   20.1717 N   0  0  0  0  0  0  0  0  0  0  0  0
  -26.3978  -12.7143   21.0146 N   0  0  0  0  0  0  0  0  0  0  0  0
  -26.5504  -31.8905   21.6183 N   0  0  0  0  0  0  0  0  0  0  0  0
  -29.7221  -13.8723   19.5441 N   0  0  0  0  0  0  0  0  0  0  0  0
  -25.9425  -14.6893   22.2405 N   0  0  0  0  0  0  0  0  0  0  0  0
  -21.8751  -12.7773   21.7969 N   0  0  0  0  0  0  0  0  0  0  0  0
  -29.6511  -16.2314   19.7280 N   0  0  0  0  0  0  0  0  0  0  0  0
  -27.6901  -33.5065   18.8872 N   0  0  0  0  0  0  0  0  0  0  0  0
  -26.6017  -32.6942   24.9061 N   0  0  0  0  0  0  0  0  0  0  0  0
  -23.8452  -31.4227   26.8689 N   0  3  0  0  0  0  0  0  0  0  0  0
  -31.3448  -17.8298   19.8168 O   0  0  0  0  0  0  0  0  0  0  0  0
  -22.9994  -14.5866   22.6460 O   0  0  0  0  0  0  0  0  0  0  0  0
  -27.8923  -31.2067   19.1911 O   0  0  0  0  0  0  0  0  0  0  0  0
  -26.7134  -34.0806   22.4013 O   0  0  0  0  0  0  0  0  0  0  0  0
  -26.0932  -30.4985   25.4517 O   0  0  0  0  0  0  0  0  0  0  0  0
  -31.6703  -15.1322   19.5476 O   0  0  0  0  0  0  0  0  0  0  0  0
  -24.6523  -20.3884   21.3484 O   0  0  0  0  0  0  0  0  0  0  0  0
  -20.7566   -7.9821   19.1911 O   0  0  0  0  0  0  0  0  0  0  0  0
  -25.6859  -25.8949   20.4524 O   0  0  0  0  0  0  0  0  0  1  0  0
  -22.0220   -2.6645   19.9162 F   0  0  0  0  0  0  0  0  0  0  0  0
  -19.1895   -6.3559   20.7855 F   0  0  0  0  0  0  0  0  0  0  0  0
  1  2  1  0  0  0  0
  1  7  2  0  0  0  0
  2  8  2  0  0  0  0
  3 12  2  0  0  0  0
  3 20  1  0  0  0  0
  4 13  1  0  0  0  0
  4 20  2  0  0  0  0
  5 10  2  0  0  0  0
  5 21  1  0  0  0  0
  6 11  1  0  0  0  0
  6 21  2  0  0  0  0
  7 23  1  0  0  0  0
  8 25  1  0  0  0  0
  9 14  2  0  0  0  0
  9 24  1  0  0  0  0
 10 28  1  0  0  0  0
 11 28  2  0  0  0  0
 12 29  1  0  0  0  0
 13 29  2  0  0  0  0
 14 30  1  0  0  0  0
 15 16  2  0  0  0  0
 15 31  1  0  0  0  0
 16 32  1  0  0  0  0
 17 26  1  0  0  0  0
 17 30  2  0  0  0  0
 18 27  1  0  0  0  0
 18 37  2  0  0  0  0
 19 32  2  0  0  0  0
 19 33  1  0  0  0  0
 20 34  1  0  0  0  0
 21 38  1  0  0  0  0
 22 34  1  0  0  0  0
 22 36  2  0  0  0  0
 22 39  1  0  0  0  0
 23 25  2  0  0  0  0
 23 44  1  0  0  0  0
 24 26  2  0  0  0  0
 24 45  1  0  0  0  0
 25 53  1  0  0  0  0
 26 46  1  0  0  0  0
 27 35  2  0  0  0  0
 27 62  1  0  0  0  0
 28 67  1  0  0  0  0
 29 84  1  0  0  0  0
 30 85  1  0  0  0  0
 31 33  2  0  0  0  0
 31 84  1  0  0  0  0
 32 86  1  0  0  0  0
 33 87  1  0  0  0  0
 34 66  2  0  0  0  0
 35 56  1  0  0  0  0
 35 67  1  0  0  0  0
 36 68  1  0  0  0  0
 36 71  1  0  0  0  0
 37 67  1  0  0  0  0
 37 83  1  0  0  0  0
 38 73  1  0  0  0  0
 38 77  2  0  0  0  0
 39 72  1  0  0  0  0
 39 78  2  0  0  0  0
 40 54  1  0  0  0  0
 40 74  1  0  0  0  0
 40 79  2  0  0  0  0
 41 63  1  0  0  0  0
 41 69  1  0  0  0  0
 41 80  2  0  0  0  0
 42 64  1  0  0  0  0
 42 75  1  0  0  0  0
 42 81  2  0  0  0  0
 43 70  1  0  0  0  0
 43 73  1  0  0  0  0
 43 82  2  0  0  0  0
 44 47  1  0  0  0  0
 45 54  1  0  0  0  0
 46 69  1  0  0  0  0
 47 49  1  0  0  0  0
 48 50  1  0  0  0  0
 48 51  1  0  0  0  0
 49 53  1  0  0  0  0
 50 55  1  0  0  0  0
 51 70  1  0  0  0  0
 52 55  1  0  0  0  0
 52 70  1  0  0  0  0
 53 74  1  0  0  0  0
 54 69  1  0  0  0  0
 55 68  1  0  0  0  0
 57 64  1  0  0  0  0
 58 65  1  0  0  0  0
 59 65  1  0  0  0  0
 60 65  1  0  0  0  0
 61 76  1  0  0  0  0
 62 85  1  0  0  0  0
 63 65  1  0  0  0  0
 63 75  1  0  0  0  0
 64 76  1  0  0  0  0
 66 68  1  0  0  0  0
M  CHG  1  76   1
M  ISO  4  43 100  62 101  73 100  85 101
M  END
> <Batch ID>
0087

> <Smiles>
CNC(C)C(=O)NC(C(=O)N1Cc2cc([101O:1][101CH2:1]C3=C(C)N(c4ccc(C(=O)[100NH:0][100C:0](=O)N5CCCC(n6nc(-c7ccc(Oc8ccc(F)cc8F)cc7)c(C(N)=O)c6N)C5)cc4)C(=O)C3)ccc2CC1C(=O)NC1CCCc2ccccc21)C(C)(C)C

> <Shape>
0.256

> <Color>
0.111

> <Negative vol penalty>
0.000

$$$$

  -OEChem-04052300203D

 85 94  0     1  0  0  0  0  0999 V2000
  -26.8522  -36.3739   21.5521 C   0  0  0  0  0  0  0  0  0  0  0  0
  -27.6733  -35.2510   21.5322 C   0  0  0  0  0  0  0  0  0  0  0  0
  -23.5756   -9.7808   21.9248 C   0  0  0  0  0  0  0  0  0  0  0  0
  -24.4152  -11.1015   23.7654 C   0  0  0  0  0  0  0  0  0  0  0  0
  -25.5077  -36.2468   21.8990 C   0  0  0  0  0  0  0  0  0  0  0  0
  -27.1507  -34.0006   21.8603 C   0  0  0  0  0  0  0  0  0  0  0  0
  -28.7406  -28.5989   19.4519 C   0  0  0  0  0  0  0  0  0  0  0  0
  -31.8003  -19.2535   19.7356 C   0  0  0  0  0  0  0  0  0  0  0  0
  -29.5269  -19.9983   20.0729 C   0  0  0  0  0  0  0  0  0  0  0  0
  -31.3410  -17.9573   19.5020 C   0  0  0  0  0  0  0  0  0  0  0  0
  -29.0676  -18.7021   19.8392 C   0  0  0  0  0  0  0  0  0  0  0  0
  -23.0561   -8.8530   22.8274 C   0  0  0  0  0  0  0  0  0  0  0  0
  -23.8957  -10.1737   24.6681 C   0  0  0  0  0  0  0  0  0  0  0  0
  -29.5967  -27.5908   19.8930 C   0  0  0  0  0  0  0  0  0  0  0  0
  -24.2124   -6.3006   24.7176 C   0  0  0  0  0  0  0  0  0  0  0  0
  -24.4203   -4.9480   24.4474 C   0  0  0  0  0  0  0  0  0  0  0  0
  -27.7140  -26.4119   20.8337 C   0  0  0  0  0  0  0  0  0  0  0  0
  -22.0313   -4.5968   24.3672 C   0  0  0  0  0  0  0  0  0  0  0  0
  -24.2552  -10.9050   22.3937 C   0  0  0  0  0  0  0  0  0  0  0  0
  -24.1442  -13.0000   20.9423 C   0  0  0  0  0  0  0  0  0  0  0  0
  -24.9661  -34.9926   22.2222 C   0  0  0  0  0  0  0  0  0  0  0  0
  -27.3639  -28.5263   19.7084 C   0  0  0  0  0  0  0  0  0  0  0  0
  -25.7981  -33.8568   22.2132 C   0  0  0  0  0  0  0  0  0  0  0  0
  -26.8423  -27.4191   20.3926 C   0  0  0  0  0  0  0  0  0  0  0  0
  -30.8932  -20.2740   20.0212 C   0  0  0  0  0  0  0  0  0  0  0  0
  -29.9747  -17.6816   19.5537 C   0  0  0  0  0  0  0  0  0  0  0  0
  -23.2161   -9.0494   24.1991 C   0  0  0  0  0  0  0  0  0  0  0  0
  -29.0839  -26.4985   20.5865 C   0  0  0  0  0  0  0  0  0  0  0  0
  -22.9139   -6.8012   24.8127 C   0  0  0  0  0  0  0  0  0  0  0  0
  -23.3298   -4.0961   24.2721 C   0  0  0  0  0  0  0  0  0  0  0  0
  -21.8234   -5.9493   24.6375 C   0  0  0  0  0  0  0  0  0  0  0  0
  -24.7926  -11.8635   21.4617 C   0  0  0  0  0  0  0  0  0  0  0  0
  -25.0724  -13.5737   20.1083 C   0  0  0  0  0  0  0  0  0  0  0  0
  -32.6440  -23.3547   20.8624 C   0  0  0  0  0  0  0  0  0  0  0  0
  -31.5044  -23.8504   20.3846 C   0  0  0  0  0  0  0  0  0  0  0  0
  -32.5760  -21.8877   20.8021 C   0  0  0  0  0  0  0  0  0  0  0  0
  -30.6478  -22.7213   19.9730 C   0  0  0  0  0  0  0  0  0  0  0  0
  -22.8211  -13.4929   21.1916 C   0  0  0  0  0  0  0  0  0  0  0  0
  -25.2869  -30.3061   21.3277 C   0  0  0  0  0  0  0  0  0  0  0  0
  -23.1252  -28.2526   20.0499 C   0  0  0  0  0  0  0  0  0  0  0  0
  -22.4879  -25.1763   18.7170 C   0  0  0  0  0  0  0  0  0  0  0  0
  -30.2733  -15.2378   19.0201 C   0  0  0  0  0  0  0  0  0  0  0  0
  -23.5183  -34.9122   22.6367 C   0  0  0  0  0  0  0  0  0  0  0  0
  -26.4503  -29.6089   19.2026 C   0  0  0  0  0  0  0  0  0  0  0  0
  -25.3692  -27.2838   20.6756 C   0  0  0  0  0  0  0  0  0  0  0  0
  -22.9542  -33.4940   22.6075 C   0  0  0  0  0  0  0  0  0  0  0  0
  -29.5036  -11.8161   18.4063 C   0  0  0  0  0  0  0  0  0  0  0  0
  -23.9195  -32.5217   23.2780 C   0  0  0  0  0  0  0  0  0  0  0  0
  -28.1560  -11.6169   19.1038 C   0  0  0  0  0  0  0  0  0  0  0  0
  -30.4126  -12.7625   19.1885 C   0  0  0  0  0  0  0  0  0  0  0  0
  -28.4661  -13.8604   20.2251 C   0  0  0  0  0  0  0  0  0  0  0  0
  -25.2624  -32.4795   22.5388 C   0  0  1  0  0  0  0  0  0  0  0  0
  -25.1330  -29.6851   19.9682 C   0  0  1  0  0  0  0  0  0  0  0  0
  -27.4915  -12.9659   19.4417 C   0  0  2  0  0  0  0  0  0  0  0  0
  -20.6185  -23.7755   17.8001 C   0  0  0  0  0  0  0  0  0  0  0  0
  -22.1172  -27.7465   22.8850 C   0  0  0  0  0  0  0  0  0  0  0  0
  -20.9538  -25.7005   22.0314 C   0  0  0  0  0  0  0  0  0  0  0  0
  -20.3188  -27.9496   21.1591 C   0  0  0  0  0  0  0  0  0  0  0  0
  -23.7895  -24.9666   16.0673 C   0  0  0  0  0  0  0  0  0  0  0  0
  -31.0916  -25.2703   20.2452 C   0  0  0  0  0  0  0  0  0  1  0  0
  -22.5279  -26.9314   20.4699 C   0  0  1  0  0  0  0  0  0  0  0  0
  -21.7328  -24.7561   17.4689 C   0  0  2  0  0  0  0  0  0  0  0  0
  -21.5075  -27.0852   21.6329 C   0  0  0  0  0  0  0  0  0  0  0  0
  -26.0366  -11.7220   20.9964 N   0  0  0  0  0  0  0  0  0  0  0  0
  -26.1772  -12.7769   20.1759 N   0  0  0  0  0  0  0  0  0  0  0  0
  -31.3509  -21.5659   20.2545 N   0  0  0  0  0  0  0  0  0  0  0  0
  -24.5174  -28.3712   20.1662 N   0  0  0  0  0  0  0  0  0  0  0  0
  -29.7179  -14.0209   19.4688 N   0  0  0  0  0  0  0  0  0  0  0  0
  -25.0431  -14.6770   19.3309 N   0  0  0  0  0  0  0  0  0  0  0  0
  -21.9987  -12.7818   22.0760 N   0  0  0  0  0  0  0  0  0  0  0  0
  -29.5078  -16.3650   19.3164 N   0  0  0  0  0  0  0  0  0  0  0  0
  -25.1526  -31.6814   21.3365 N   0  0  0  0  0  0  0  0  0  0  0  0
  -21.9709  -26.3328   19.2616 N   0  0  0  0  0  0  0  0  0  0  0  0
  -22.6579  -24.1058   16.4982 N   0  3  0  0  0  0  0  0  0  0  0  0
  -33.4726  -21.1518   21.1813 O   0  0  0  0  0  0  0  0  0  0  0  0
  -29.5360  -22.8444   19.4845 O   0  0  0  0  0  0  0  0  0  0  0  0
  -22.3754  -14.5242   20.6335 O   0  0  0  0  0  0  0  0  0  0  0  0
  -25.5095  -29.5904   22.2972 O   0  0  0  0  0  0  0  0  0  0  0  0
  -22.3847  -29.1441   19.6274 O   0  0  0  0  0  0  0  0  0  0  0  0
  -23.4388  -24.5401   19.1661 O   0  0  0  0  0  0  0  0  0  0  0  0
  -31.3354  -15.2744   18.3934 O   0  0  0  0  0  0  0  0  0  0  0  0
  -22.7091   -8.1444   25.0802 O   0  0  0  0  0  0  0  0  0  0  0  0
  -29.9173  -25.5134   21.0187 O   0  0  0  0  0  0  0  0  0  1  0  0
  -23.5297   -2.7976   24.0111 F   0  0  0  0  0  0  0  0  0  0  0  0
  -20.5736   -6.4247   24.7265 F   0  0  0  0  0  0  0  0  0  0  0  0
  1  2  1  0  0  0  0
  1  5  2  0  0  0  0
  2  6  2  0  0  0  0
  3 12  2  0  0  0  0
  3 19  1  0  0  0  0
  4 13  1  0  0  0  0
  4 19  2  0  0  0  0
  5 21  1  0  0  0  0
  6 23  1  0  0  0  0
  7 14  2  0  0  0  0
  7 22  1  0  0  0  0
  8 10  2  0  0  0  0
  8 25  1  0  0  0  0
  9 11  1  0  0  0  0
  9 25  2  0  0  0  0
 10 26  1  0  0  0  0
 11 26  2  0  0  0  0
 12 27  1  0  0  0  0
 13 27  2  0  0  0  0
 14 28  1  0  0  0  0
 15 16  2  0  0  0  0
 15 29  1  0  0  0  0
 16 30  1  0  0  0  0
 17 24  1  0  0  0  0
 17 28  2  0  0  0  0
 18 30  2  0  0  0  0
 18 31  1  0  0  0  0
 19 32  1  0  0  0  0
 20 32  1  0  0  0  0
 20 33  2  0  0  0  0
 20 38  1  0  0  0  0
 21 23  2  0  0  0  0
 21 43  1  0  0  0  0
 22 24  2  0  0  0  0
 22 44  1  0  0  0  0
 23 52  1  0  0  0  0
 24 45  1  0  0  0  0
 25 66  1  0  0  0  0
 26 71  1  0  0  0  0
 27 82  1  0  0  0  0
 28 83  1  0  0  0  0
 29 31  2  0  0  0  0
 29 82  1  0  0  0  0
 30 84  1  0  0  0  0
 31 85  1  0  0  0  0
 32 64  2  0  0  0  0
 33 65  1  0  0  0  0
 33 69  1  0  0  0  0
 34 35  2  0  0  0  0
 34 36  1  0  0  0  0
 35 37  1  0  0  0  0
 35 60  1  0  0  0  0
 36 66  1  0  0  0  0
 36 75  2  0  0  0  0
 37 66  1  0  0  0  0
 37 76  2  0  0  0  0
 38 70  1  0  0  0  0
 38 77  2  0  0  0  0
 39 53  1  0  0  0  0
 39 72  1  0  0  0  0
 39 78  2  0  0  0  0
 40 61  1  0  0  0  0
 40 67  1  0  0  0  0
 40 79  2  0  0  0  0
 41 62  1  0  0  0  0
 41 73  1  0  0  0  0
 41 80  2  0  0  0  0
 42 68  1  0  0  0  0
 42 71  1  0  0  0  0
 42 81  2  0  0  0  0
 43 46  1  0  0  0  0
 44 53  1  0  0  0  0
 45 67  1  0  0  0  0
 46 48  1  0  0  0  0
 47 49  1  0  0  0  0
 47 50  1  0  0  0  0
 48 52  1  0  0  0  0
 49 54  1  0  0  0  0
 50 68  1  0  0  0  0
 51 54  1  0  0  0  0
 51 68  1  0  0  0  0
 52 72  1  0  0  0  0
 53 67  1  0  0  0  0
 54 65  1  0  0  0  0
 55 62  1  0  0  0  0
 56 63  1  0  0  0  0
 57 63  1  0  0  0  0
 58 63  1  0  0  0  0
 59 74  1  0  0  0  0
 60 83  1  0  0  0  0
 61 63  1  0  0  0  0
 61 73  1  0  0  0  0
 62 74  1  0  0  0  0
 64 65  1  0  0  0  0
M  CHG  1  74   1
M  ISO  4  42 100  60 101  71 100  83 101
M  END
> <Batch ID>
0087

> <Smiles>
CNC(C)C(=O)NC(C(=O)N1Cc2cc([101O:1][101CH2:1]C3=CC(=O)N(c4ccc([100NH:0][100C:0](=O)N5CCCC(n6nc(-c7ccc(Oc8ccc(F)cc8F)cc7)c(C(N)=O)c6N)C5)cc4)C3=O)ccc2CC1C(=O)NC1CCCc2ccccc21)C(C)(C)C

> <Shape>
0.296

> <Color>
0.133

> <Negative vol penalty>
0.000

$$$$

  -OEChem-04052300203D

 87 96  0     1  0  0  0  0  0999 V2000
  -27.2131  -37.8502   20.2357 C   0  0  0  0  0  0  0  0  0  0  0  0
  -27.7729  -36.5943   20.0238 C   0  0  0  0  0  0  0  0  0  0  0  0
  -22.5017  -12.0107   19.2923 C   0  0  0  0  0  0  0  0  0  0  0  0
  -22.7526  -10.4430   21.1134 C   0  0  0  0  0  0  0  0  0  0  0  0
  -31.3218  -19.9034   19.4984 C   0  0  0  0  0  0  0  0  0  0  0  0
  -31.7043  -18.5946   19.1972 C   0  0  0  0  0  0  0  0  0  0  0  0
  -26.2287  -38.0181   21.2088 C   0  0  0  0  0  0  0  0  0  0  0  0
  -27.3495  -35.5059   20.7856 C   0  0  0  0  0  0  0  0  0  0  0  0
  -26.8520  -29.6888   18.9362 C   0  0  0  0  0  0  0  0  0  0  0  0
  -21.2828  -11.4229   18.9542 C   0  0  0  0  0  0  0  0  0  0  0  0
  -21.5336   -9.8552   20.7754 C   0  0  0  0  0  0  0  0  0  0  0  0
  -27.6898  -28.5838   19.0805 C   0  0  0  0  0  0  0  0  0  0  0  0
  -20.3746   -7.6754   18.4654 C   0  0  0  0  0  0  0  0  0  0  0  0
  -20.3142   -6.2823   18.4316 C   0  0  0  0  0  0  0  0  0  0  0  0
  -29.4607  -17.8204   19.6560 C   0  0  0  0  0  0  0  0  0  0  0  0
  -26.4270  -27.8864   21.0139 C   0  0  0  0  0  0  0  0  0  0  0  0
  -18.6017   -6.3151   20.1356 C   0  0  0  0  0  0  0  0  0  0  0  0
  -23.2367  -11.5207   20.3718 C   0  0  0  0  0  0  0  0  0  0  0  0
  -30.0049  -20.1768   19.8801 C   0  0  0  0  0  0  0  0  0  0  0  0
  -30.7760  -17.5558   19.2759 C   0  0  0  0  0  0  0  0  0  0  0  0
  -24.7067  -13.1961   21.6126 C   0  0  0  0  0  0  0  0  0  0  0  0
  -25.7861  -36.9292   21.9763 C   0  0  0  0  0  0  0  0  0  0  0  0
  -25.8003  -29.9072   19.8377 C   0  0  0  0  0  0  0  0  0  0  0  0
  -26.3593  -35.6596   21.7707 C   0  0  0  0  0  0  0  0  0  0  0  0
  -25.5757  -28.9936   20.8774 C   0  0  0  0  0  0  0  0  0  0  0  0
  -29.0806  -19.1298   19.9565 C   0  0  0  0  0  0  0  0  0  0  0  0
  -20.7987  -10.3452   19.6958 C   0  0  0  0  0  0  0  0  0  0  0  0
  -27.4791  -27.6839   20.1211 C   0  0  0  0  0  0  0  0  0  0  0  0
  -19.5486   -8.3884   19.3344 C   0  0  0  0  0  0  0  0  0  0  0  0
  -19.4277   -5.6022   19.2666 C   0  0  0  0  0  0  0  0  0  0  0  0
  -18.6622   -7.7083   20.1695 C   0  0  0  0  0  0  0  0  0  0  0  0
  -24.4962  -12.1271   20.7212 C   0  0  0  0  0  0  0  0  0  0  0  0
  -26.0658  -13.3939   21.5967 C   0  0  0  0  0  0  0  0  0  0  0  0
  -29.5672  -21.5335   20.2027 C   0  0  0  0  0  0  0  0  0  0  0  0
  -28.3006  -21.7773   20.5667 C   0  0  0  0  0  0  0  0  0  0  0  0
  -27.2981  -20.6696   20.6534 C   0  0  0  0  0  0  0  0  0  0  0  0
  -31.1871  -16.1770   18.9569 C   0  0  0  0  0  0  0  0  0  0  0  0
  -23.7586  -13.9435   22.3861 C   0  0  0  0  0  0  0  0  0  0  0  0
  -25.0606  -32.2031   21.9078 C   0  0  0  0  0  0  0  0  0  0  0  0
  -22.3284  -30.4863   22.2394 C   0  0  0  0  0  0  0  0  0  0  0  0
  -28.4049  -24.1875   20.3096 C   0  0  0  0  0  0  0  0  0  0  0  0
  -20.7493  -27.4730   21.9690 C   0  0  0  0  0  0  0  0  0  0  0  0
  -30.8129  -13.9210   18.7087 C   0  0  0  0  0  0  0  0  0  0  0  0
  -24.7535  -37.1691   23.0489 C   0  0  0  0  0  0  0  0  0  0  0  0
  -24.8891  -31.0895   19.6525 C   0  0  0  0  0  0  0  0  0  0  0  0
  -24.4482  -29.1718   21.8599 C   0  0  0  0  0  0  0  0  0  0  0  0
  -24.0932  -35.8895   23.5559 C   0  0  0  0  0  0  0  0  0  0  0  0
  -29.7908  -10.5929   19.6490 C   0  0  0  0  0  0  0  0  0  0  0  0
  -25.1451  -34.8212   23.8368 C   0  0  0  0  0  0  0  0  0  0  0  0
  -28.3280  -10.7798   20.0514 C   0  0  0  0  0  0  0  0  0  0  0  0
  -30.1777  -11.5176   18.4989 C   0  0  0  0  0  0  0  0  0  0  0  0
  -28.4394  -13.1531   19.1712 C   0  0  0  0  0  0  0  0  0  0  0  0
  -25.9086  -34.4496   22.5599 C   0  0  1  0  0  0  0  0  0  0  0  0
  -24.1648  -31.4921   20.9334 C   0  0  1  0  0  0  0  0  0  0  0  0
  -28.0214  -12.2581   20.3504 C   0  0  1  0  0  0  0  0  0  0  0  0
  -18.5258  -26.3732   22.3484 C   0  0  0  0  0  0  0  0  0  0  0  0
  -22.8545  -30.4651   25.2449 C   0  0  0  0  0  0  0  0  0  0  0  0
  -21.1904  -28.6061   25.4526 C   0  0  0  0  0  0  0  0  0  0  0  0
  -20.4654  -30.8380   24.6066 C   0  0  0  0  0  0  0  0  0  0  0  0
  -20.4850  -26.7572   19.1095 C   0  0  0  0  0  0  0  0  0  0  0  0
  -27.7261  -25.4316   20.8437 C   0  0  0  0  0  0  0  0  0  1  0  0
  -21.8798  -29.3521   23.1290 C   0  0  1  0  0  0  0  0  0  0  0  0
  -19.4209  -27.0843   21.3455 C   0  0  2  0  0  0  0  0  0  0  0  0
  -21.6200  -29.8127   24.5911 C   0  0  0  0  0  0  0  0  0  0  0  0
  -25.6306  -11.6773   20.1783 N   0  0  0  0  0  0  0  0  0  0  0  0
  -30.3573  -15.1877   19.0208 N   0  0  0  0  0  0  0  0  0  0  0  0
  -26.5671  -12.4676   20.7302 N   0  0  0  0  0  0  0  0  0  0  0  0
  -27.7564  -19.4036   20.3401 N   0  0  0  0  0  0  0  0  0  0  0  0
  -23.5885  -30.3467   21.6406 N   0  0  0  0  0  0  0  0  0  0  0  0
  -29.8409  -12.9084   18.8060 N   0  0  0  0  0  0  0  0  0  0  0  0
  -26.8690  -14.2680   22.2395 N   0  0  0  0  0  0  0  0  0  0  0  0
  -22.4014  -13.6089   22.2841 N   0  0  0  0  0  0  0  0  0  0  0  0
  -27.8722  -23.0355   20.8719 N   0  0  0  0  0  0  0  0  0  0  0  0
  -25.1101  -33.5726   21.7306 N   0  0  0  0  0  0  0  0  0  0  0  0
  -20.7200  -28.7551   22.4756 N   0  0  0  0  0  0  0  0  0  0  0  0
  -19.6398  -26.1762   20.1843 N   0  3  0  0  0  0  0  0  0  0  0  0
  -26.1359  -20.8949   20.9875 O   0  0  0  0  0  0  0  0  0  0  0  0
  -24.1029  -14.8909   23.1326 O   0  0  0  0  0  0  0  0  0  0  0  0
  -25.6614  -31.5572   22.7585 O   0  0  0  0  0  0  0  0  0  0  0  0
  -21.5851  -31.4571   22.0761 O   0  0  0  0  0  0  0  0  0  0  0  0
  -29.3113  -24.2324   19.4816 O   0  0  0  0  0  0  0  0  0  0  0  0
  -21.7151  -26.7138   22.0065 O   0  0  0  0  0  0  0  0  0  0  0  0
  -31.9708  -13.6723   18.3646 O   0  0  0  0  0  0  0  0  0  0  0  0
  -19.6092   -9.7715   19.3663 O   0  0  0  0  0  0  0  0  0  0  0  0
  -28.2958  -26.6049   20.2646 O   0  0  0  0  0  0  0  0  0  1  0  0
  -19.3687   -4.2644   19.2328 F   0  0  0  0  0  0  0  0  0  0  0  0
  -17.8653   -8.3879   21.0055 F   0  0  0  0  0  0  0  0  0  0  0  0
  1  2  1  0  0  0  0
  1  7  2  0  0  0  0
  2  8  2  0  0  0  0
  3 10  2  0  0  0  0
  3 18  1  0  0  0  0
  4 11  1  0  0  0  0
  4 18  2  0  0  0  0
  5  6  2  0  0  0  0
  5 19  1  0  0  0  0
  6 20  1  0  0  0  0
  7 22  1  0  0  0  0
  8 24  1  0  0  0  0
  9 12  2  0  0  0  0
  9 23  1  0  0  0  0
 10 27  1  0  0  0  0
 11 27  2  0  0  0  0
 12 28  1  0  0  0  0
 13 14  2  0  0  0  0
 13 29  1  0  0  0  0
 14 30  1  0  0  0  0
 15 20  2  0  0  0  0
 15 26  1  0  0  0  0
 16 25  1  0  0  0  0
 16 28  2  0  0  0  0
 17 30  2  0  0  0  0
 17 31  1  0  0  0  0
 18 32  1  0  0  0  0
 19 26  2  0  0  0  0
 19 34  1  0  0  0  0
 20 37  1  0  0  0  0
 21 32  1  0  0  0  0
 21 33  2  0  0  0  0
 21 38  1  0  0  0  0
 22 24  2  0  0  0  0
 22 44  1  0  0  0  0
 23 25  2  0  0  0  0
 23 45  1  0  0  0  0
 24 53  1  0  0  0  0
 25 46  1  0  0  0  0
 26 68  1  0  0  0  0
 27 84  1  0  0  0  0
 28 85  1  0  0  0  0
 29 31  2  0  0  0  0
 29 84  1  0  0  0  0
 30 86  1  0  0  0  0
 31 87  1  0  0  0  0
 32 65  2  0  0  0  0
 33 67  1  0  0  0  0
 33 71  1  0  0  0  0
 34 35  2  0  0  0  0
 35 36  1  0  0  0  0
 35 73  1  0  0  0  0
 36 68  1  0  0  0  0
 36 77  2  0  0  0  0
 37 66  2  0  0  0  0
 38 72  1  0  0  0  0
 38 78  2  0  0  0  0
 39 54  1  0  0  0  0
 39 74  1  0  0  0  0
 39 79  2  0  0  0  0
 40 62  1  0  0  0  0
 40 69  1  0  0  0  0
 40 80  2  0  0  0  0
 41 61  1  0  0  0  0
 41 73  1  0  0  0  0
 41 81  2  0  0  0  0
 42 63  1  0  0  0  0
 42 75  1  0  0  0  0
 42 82  2  0  0  0  0
 43 66  1  0  0  0  0
 43 70  1  0  0  0  0
 43 83  2  0  0  0  0
 44 47  1  0  0  0  0
 45 54  1  0  0  0  0
 46 69  1  0  0  0  0
 47 49  1  0  0  0  0
 48 50  1  0  0  0  0
 48 51  1  0  0  0  0
 49 53  1  0  0  0  0
 50 55  1  0  0  0  0
 51 70  1  0  0  0  0
 52 55  1  0  0  0  0
 52 70  1  0  0  0  0
 53 74  1  0  0  0  0
 54 69  1  0  0  0  0
 55 67  1  0  0  0  0
 56 63  1  0  0  0  0
 57 64  1  0  0  0  0
 58 64  1  0  0  0  0
 59 64  1  0  0  0  0
 60 76  1  0  0  0  0
 61 85  1  0  0  0  0
 62 64  1  0  0  0  0
 62 75  1  0  0  0  0
 63 76  1  0  0  0  0
 65 67  1  0  0  0  0
M  CHG  1  76   1
M  ISO  4  43 100  61 101  66 100  85 101
M  END
> <Batch ID>
0087

> <Smiles>
CNC(C)C(=O)NC(C(=O)N1Cc2cc([101O:1][101CH2:1]C(=O)Nc3cc4ccc(C=[100N:0][100C:0](=O)N5CCCC(n6nc(-c7ccc(Oc8ccc(F)cc8F)cc7)c(C(N)=O)c6N)C5)cc4[nH]c3=O)ccc2CC1C(=O)NC1CCCc2ccccc21)C(C)(C)C

> <Shape>
0.315

> <Color>
0.102

> <Negative vol penalty>
0.000

$$$$

  -OEChem-04052300203D

 86 95  0     1  0  0  0  0  0999 V2000
  -16.9945  -29.1504   24.2965 C   0  0  0  0  0  0  0  0  0  0  0  0
  -17.6221  -28.2194   23.4751 C   0  0  0  0  0  0  0  0  0  0  0  0
  -28.8940  -18.1438   14.0818 C   0  0  0  0  0  0  0  0  0  0  0  0
  -23.2778   -9.8129   19.8347 C   0  0  0  0  0  0  0  0  0  0  0  0
  -24.0321   -9.6243   22.1222 C   0  0  0  0  0  0  0  0  0  0  0  0
  -17.3743  -30.4910   24.2459 C   0  0  0  0  0  0  0  0  0  0  0  0
  -18.6293  -28.6286   22.6019 C   0  0  0  0  0  0  0  0  0  0  0  0
  -23.6054  -25.4516   20.9737 C   0  0  0  0  0  0  0  0  0  0  0  0
  -28.1934  -19.3261   14.3203 C   0  0  0  0  0  0  0  0  0  0  0  0
  -29.0136  -17.1882   15.0908 C   0  0  0  0  0  0  0  0  0  0  0  0
  -22.6218   -8.5874   19.9500 C   0  0  0  0  0  0  0  0  0  0  0  0
  -23.3760   -8.3988   22.2375 C   0  0  0  0  0  0  0  0  0  0  0  0
  -23.8984  -24.6774   19.8519 C   0  0  0  0  0  0  0  0  0  0  0  0
  -20.2157   -7.3028   22.7185 C   0  0  0  0  0  0  0  0  0  0  0  0
  -19.4623   -7.0786   23.8708 C   0  0  0  0  0  0  0  0  0  0  0  0
  -24.9992  -26.5706   18.8403 C   0  0  0  0  0  0  0  0  0  0  0  0
  -27.7320  -18.5972   16.5771 C   0  0  0  0  0  0  0  0  0  0  0  0
  -20.8439   -5.1693   24.4027 C   0  0  0  0  0  0  0  0  0  0  0  0
  -23.9830  -10.3313   20.9208 C   0  0  0  0  0  0  0  0  0  0  0  0
  -24.1356  -12.8727   21.0810 C   0  0  0  0  0  0  0  0  0  0  0  0
  -18.3933  -30.9152   23.3786 C   0  0  0  0  0  0  0  0  0  0  0  0
  -23.9982  -26.7964   21.0328 C   0  0  0  0  0  0  0  0  0  0  0  0
  -19.0222  -29.9763   22.5387 C   0  0  0  0  0  0  0  0  0  0  0  0
  -24.7121  -27.3590   19.9651 C   0  0  0  0  0  0  0  0  0  0  0  0
  -27.6124  -19.5528   15.5680 C   0  0  0  0  0  0  0  0  0  0  0  0
  -28.4326  -17.4149   16.3385 C   0  0  0  0  0  0  0  0  0  0  0  0
  -22.6709   -7.8803   21.1514 C   0  0  0  0  0  0  0  0  0  0  0  0
  -24.5929  -25.2377   18.7837 C   0  0  0  0  0  0  0  0  0  0  0  0
  -21.2831   -6.4602   22.4082 C   0  0  0  0  0  0  0  0  0  0  0  0
  -19.7764   -6.0119   24.7129 C   0  0  0  0  0  0  0  0  0  0  0  0
  -21.5972   -5.3935   23.2503 C   0  0  0  0  0  0  0  0  0  0  0  0
  -24.6614  -11.5970   20.8022 C   0  0  0  0  0  0  0  0  0  0  0  0
  -25.1692  -13.7364   20.8122 C   0  0  0  0  0  0  0  0  0  0  0  0
  -25.9902  -22.5471   16.8471 C   0  0  0  0  0  0  0  0  0  0  0  0
  -26.8193  -21.3391   17.0490 C   0  0  0  0  0  0  0  0  0  0  0  0
  -26.2262  -21.4399   14.8202 C   0  0  0  0  0  0  0  0  0  0  0  0
  -25.6449  -23.3650   17.8579 C   0  0  0  0  0  0  0  0  0  1  0  0
  -22.8296  -13.2439   21.5417 C   0  0  0  0  0  0  0  0  0  0  0  0
  -22.4670  -29.5723   21.2648 C   0  0  0  0  0  0  0  0  0  0  0  0
  -25.4724  -30.7628   21.5350 C   0  0  0  0  0  0  0  0  0  0  0  0
  -28.8066  -30.3805   20.9157 C   0  0  0  0  0  0  0  0  0  0  0  0
  -29.2595  -15.2196   17.1702 C   0  0  0  0  0  0  0  0  0  0  0  0
  -18.7369  -32.3828   23.3252 C   0  0  0  0  0  0  0  0  0  0  0  0
  -23.6978  -27.6106   22.2613 C   0  0  0  0  0  0  0  0  0  0  0  0
  -25.1740  -28.7924   19.9878 C   0  0  0  0  0  0  0  0  0  0  0  0
  -25.6243  -22.6868   15.4180 C   0  0  0  0  0  0  0  0  0  0  0  0
  -20.0711  -32.6715   22.6419 C   0  0  0  0  0  0  0  0  0  0  0  0
  -30.0573  -12.8644   19.8955 C   0  0  0  0  0  0  0  0  0  0  0  0
  -20.1836  -31.8881   21.3379 C   0  0  0  0  0  0  0  0  0  0  0  0
  -28.6783  -12.3854   20.3460 C   0  0  0  0  0  0  0  0  0  0  0  0
  -30.0719  -13.2387   18.4164 C   0  0  0  0  0  0  0  0  0  0  0  0
  -27.6528  -13.7606   18.4907 C   0  0  0  0  0  0  0  0  0  0  0  0
  -20.1361  -30.3773   21.5961 C   0  0  1  0  0  0  0  0  0  0  0  0
  -23.6963  -29.1131   21.9968 C   0  0  1  0  0  0  0  0  0  0  0  0
  -27.5947  -13.4167   19.9868 C   0  0  1  0  0  0  0  0  0  0  0  0
  -31.0124  -31.5373   21.2218 C   0  0  0  0  0  0  0  0  0  0  0  0
  -24.7913  -32.6620   19.2461 C   0  0  0  0  0  0  0  0  0  0  0  0
  -27.2414  -33.0972   18.9707 C   0  0  0  0  0  0  0  0  0  0  0  0
  -26.1020  -33.6985   21.1068 C   0  0  0  0  0  0  0  0  0  0  0  0
  -28.1536  -16.7906   18.7445 C   0  0  0  0  0  0  0  0  0  0  0  0
  -29.8659  -28.1719   22.5766 C   0  0  0  0  0  0  0  0  0  0  0  0
  -26.5150  -31.2638   20.5650 C   0  0  1  0  0  0  0  0  0  0  0  0
  -30.0224  -30.5439   21.8099 C   0  0  2  0  0  0  0  0  0  0  0  0
  -26.1522  -32.6539   19.9706 C   0  0  0  0  0  0  0  0  0  0  0  0
  -25.9304  -11.6416   20.3880 N   0  0  0  0  0  0  0  0  0  0  0  0
  -26.2106  -12.9558   20.4044 N   0  0  0  0  0  0  0  0  0  0  0  0
  -26.9124  -20.7334   15.8054 N   0  0  0  0  0  0  0  0  0  0  0  0
  -24.8506  -29.5493   21.2085 N   0  0  0  0  0  0  0  0  0  0  0  0
  -29.0038  -14.1852   18.0927 N   0  0  0  0  0  0  0  0  0  0  0  0
  -25.2797  -15.0797   20.8873 N   0  0  0  0  0  0  0  0  0  0  0  0
  -21.8879  -12.2308   21.7679 N   0  0  0  0  0  0  0  0  0  0  0  0
  -21.4125  -29.9089   22.0920 N   0  0  0  0  0  0  0  0  0  0  0  0
  -27.7862  -31.2332   21.2803 N   0  0  0  0  0  0  0  0  0  0  0  0
  -28.5567  -16.4253   17.3826 N   0  0  0  0  0  0  0  0  0  0  0  0
  -30.7162  -29.2366   21.9847 N   0  3  0  0  0  0  0  0  0  0  0  0
  -27.2986  -20.9815   18.1126 O   0  0  0  0  0  0  0  0  0  0  0  0
  -26.1120  -21.1384   13.6378 O   0  0  0  0  0  0  0  0  0  0  0  0
  -22.5021  -14.4399   21.7311 O   0  0  0  0  0  0  0  0  0  0  0  0
  -22.4752  -29.6193   20.0403 O   0  0  0  0  0  0  0  0  0  0  0  0
  -25.2240  -31.4202   22.5488 O   0  0  0  0  0  0  0  0  0  0  0  0
  -28.7675  -29.5795   19.9844 O   0  0  0  0  0  0  0  0  0  0  0  0
  -30.0735  -15.0854   16.2487 O   0  0  0  0  0  0  0  0  0  0  0  0
  -22.0306   -6.6845   21.2643 O   0  0  0  0  0  0  0  0  0  0  0  0
  -24.8797  -24.4844   17.6873 O   0  0  0  0  0  0  0  0  0  1  0  0
  -19.0538   -5.7977   25.8202 F   0  0  0  0  0  0  0  0  0  0  0  0
  -22.6223   -4.5813   22.9581 F   0  0  0  0  0  0  0  0  0  0  0  0
  1  2  1  0  0  0  0
  1  6  2  0  0  0  0
  2  7  2  0  0  0  0
  3  9  2  0  0  0  0
  3 10  1  0  0  0  0
  4 11  2  0  0  0  0
  4 19  1  0  0  0  0
  5 12  1  0  0  0  0
  5 19  2  0  0  0  0
  6 21  1  0  0  0  0
  7 23  1  0  0  0  0
  8 13  2  0  0  0  0
  8 22  1  0  0  0  0
  9 25  1  0  0  0  0
 10 26  2  0  0  0  0
 11 27  1  0  0  0  0
 12 27  2  0  0  0  0
 13 28  1  0  0  0  0
 14 15  2  0  0  0  0
 14 29  1  0  0  0  0
 15 30  1  0  0  0  0
 16 24  1  0  0  0  0
 16 28  2  0  0  0  0
 17 25  2  0  0  0  0
 17 26  1  0  0  0  0
 18 30  2  0  0  0  0
 18 31  1  0  0  0  0
 19 32  1  0  0  0  0
 20 32  1  0  0  0  0
 20 33  2  0  0  0  0
 20 38  1  0  0  0  0
 21 23  2  0  0  0  0
 21 43  1  0  0  0  0
 22 24  2  0  0  0  0
 22 44  1  0  0  0  0
 23 53  1  0  0  0  0
 24 45  1  0  0  0  0
 25 67  1  0  0  0  0
 26 74  1  0  0  0  0
 27 83  1  0  0  0  0
 28 84  1  0  0  0  0
 29 31  2  0  0  0  0
 29 83  1  0  0  0  0
 30 85  1  0  0  0  0
 31 86  1  0  0  0  0
 32 65  2  0  0  0  0
 33 66  1  0  0  0  0
 33 70  1  0  0  0  0
 34 35  1  0  0  0  0
 34 37  2  0  0  0  0
 34 46  1  0  0  0  0
 35 67  1  0  0  0  0
 35 76  2  0  0  0  0
 36 46  1  0  0  0  0
 36 67  1  0  0  0  0
 36 77  2  0  0  0  0
 37 84  1  0  0  0  0
 38 71  1  0  0  0  0
 38 78  2  0  0  0  0
 39 54  1  0  0  0  0
 39 72  1  0  0  0  0
 39 79  2  0  0  0  0
 40 62  1  0  0  0  0
 40 68  1  0  0  0  0
 40 80  2  0  0  0  0
 41 63  1  0  0  0  0
 41 73  1  0  0  0  0
 41 81  2  0  0  0  0
 42 69  1  0  0  0  0
 42 74  1  0  0  0  0
 42 82  2  0  0  0  0
 43 47  1  0  0  0  0
 44 54  1  0  0  0  0
 45 68  1  0  0  0  0
 47 49  1  0  0  0  0
 48 50  1  0  0  0  0
 48 51  1  0  0  0  0
 49 53  1  0  0  0  0
 50 55  1  0  0  0  0
 51 69  1  0  0  0  0
 52 55  1  0  0  0  0
 52 69  1  0  0  0  0
 53 72  1  0  0  0  0
 54 68  1  0  0  0  0
 55 66  1  0  0  0  0
 56 63  1  0  0  0  0
 57 64  1  0  0  0  0
 58 64  1  0  0  0  0
 59 64  1  0  0  0  0
 60 74  1  0  0  0  0
 61 75  1  0  0  0  0
 62 64  1  0  0  0  0
 62 73  1  0  0  0  0
 63 75  1  0  0  0  0
 65 66  1  0  0  0  0
M  CHG  1  75   1
M  ISO  4  37 101  42 100  74 100  84 101
M  END
> <Batch ID>
0087

> <Smiles>
CNC(C)C(=O)NC(C(=O)N1Cc2cc([101O:1][101CH:1]=C3CC(=O)N(c4cccc([100N:0](C)[100C:0](=O)N5CCCC(n6nc(-c7ccc(Oc8ccc(F)cc8F)cc7)c(C(N)=O)c6N)C5)c4)C3=O)ccc2CC1C(=O)NC1CCCc2ccccc21)C(C)(C)C

> <Shape>
0.264

> <Color>
0.181

> <Negative vol penalty>
0.000

$$$$

  -OEChem-04052300203D

 83 91  0     1  0  0  0  0  0999 V2000
  -28.3294  -21.6948   27.9445 C   0  0  0  0  0  0  0  0  0  0  0  0
  -28.4368  -22.1685   26.6408 C   0  0  0  0  0  0  0  0  0  0  0  0
  -27.4002  -11.8255   21.4523 C   0  0  0  0  0  0  0  0  0  0  0  0
  -27.5888  -12.2712   19.0853 C   0  0  0  0  0  0  0  0  0  0  0  0
  -27.0799  -21.6262   28.5593 C   0  0  0  0  0  0  0  0  0  0  0  0
  -27.2945  -22.5728   25.9508 C   0  0  0  0  0  0  0  0  0  0  0  0
  -27.9596  -26.9466   23.4866 C   0  0  0  0  0  0  0  0  0  0  0  0
  -26.5614  -10.7443   21.1820 C   0  0  0  0  0  0  0  0  0  0  0  0
  -26.7501  -11.1899   18.8149 C   0  0  0  0  0  0  0  0  0  0  0  0
  -28.6611  -26.8988   22.2827 C   0  0  0  0  0  0  0  0  0  0  0  0
  -24.0810   -8.0856   21.1320 C   0  0  0  0  0  0  0  0  0  0  0  0
  -22.9287   -7.9475   21.9056 C   0  0  0  0  0  0  0  0  0  0  0  0
  -30.0178  -21.9303   15.5469 C   0  0  0  0  0  0  0  0  0  0  0  0
  -29.2444  -21.7955   17.8318 C   0  0  0  0  0  0  0  0  0  0  0  0
  -26.5756  -26.9604   21.0719 C   0  0  0  0  0  0  0  0  0  0  0  0
  -28.8729  -19.9482   16.3197 C   0  0  0  0  0  0  0  0  0  0  0  0
  -22.1619  -10.1103   21.1497 C   0  0  0  0  0  0  0  0  0  0  0  0
  -27.9138  -12.5890   20.4040 C   0  0  0  0  0  0  0  0  0  0  0  0
  -29.8839  -22.5012   16.8125 C   0  0  0  0  0  0  0  0  0  0  0  0
  -30.1833  -13.6878   20.7908 C   0  0  0  0  0  0  0  0  0  0  0  0
  -25.9229  -22.0390   27.8799 C   0  0  0  0  0  0  0  0  0  0  0  0
  -26.5580  -26.9907   23.4924 C   0  0  0  0  0  0  0  0  0  0  0  0
  -26.0282  -22.5084   26.5567 C   0  0  0  0  0  0  0  0  0  0  0  0
  -25.8588  -27.0113   22.2772 C   0  0  0  0  0  0  0  0  0  0  0  0
  -29.5123  -20.6538   15.3005 C   0  0  0  0  0  0  0  0  0  0  0  0
  -28.7389  -20.5190   17.5854 C   0  0  0  0  0  0  0  0  0  0  0  0
  -26.2364  -10.4265   19.8633 C   0  0  0  0  0  0  0  0  0  0  0  0
  -27.9691  -26.9028   21.0752 C   0  0  0  0  0  0  0  0  0  0  0  0
  -24.2739   -9.2361   20.3672 C   0  0  0  0  0  0  0  0  0  0  0  0
  -21.9691   -8.9598   21.9145 C   0  0  0  0  0  0  0  0  0  0  0  0
  -23.3144  -10.2484   20.3761 C   0  0  0  0  0  0  0  0  0  0  0  0
  -28.7799  -13.7063   20.6827 C   0  0  0  0  0  0  0  0  0  0  0  0
  -30.5240  -14.9904   21.0624 C   0  0  0  0  0  0  0  0  0  0  0  0
  -30.1171  -25.6069   18.5283 C   0  0  0  0  0  0  0  0  0  0  0  0
  -30.4258  -23.8658   17.0762 C   0  0  0  0  0  0  0  0  0  0  0  0
  -31.0974  -12.5912   20.6577 C   0  0  0  0  0  0  0  0  0  0  0  0
  -24.2588  -25.0968   24.6017 C   0  0  0  0  0  0  0  0  0  0  0  0
  -22.3358  -27.5375   23.6701 C   0  0  0  0  0  0  0  0  0  0  0  0
  -21.8715  -30.2540   21.6572 C   0  0  0  0  0  0  0  0  0  0  0  0
  -27.8716  -20.2241   19.9321 C   0  0  0  0  0  0  0  0  0  0  0  0
  -24.5885  -21.9019   28.5692 C   0  0  0  0  0  0  0  0  0  0  0  0
  -25.8171  -27.0688   24.7990 C   0  0  0  0  0  0  0  0  0  0  0  0
  -24.3549  -27.0782   22.2287 C   0  0  0  0  0  0  0  0  0  0  0  0
  -23.4729  -22.7016   27.9012 C   0  0  0  0  0  0  0  0  0  0  0  0
  -28.8090  -18.9576   23.1249 C   0  0  0  0  0  0  0  0  0  0  0  0
  -23.4948  -22.4896   26.3908 C   0  0  0  0  0  0  0  0  0  0  0  0
  -29.0416  -17.4667   22.8695 C   0  0  0  0  0  0  0  0  0  0  0  0
  -27.6444  -19.4997   22.2982 C   0  0  0  0  0  0  0  0  0  0  0  0
  -27.9618  -17.7423   20.6013 C   0  0  0  0  0  0  0  0  0  0  0  0
  -24.8152  -22.9795   25.7841 C   0  0  1  0  0  0  0  0  0  0  0  0
  -24.3716  -26.5922   24.6956 C   0  0  1  0  0  0  0  0  0  0  0  0
  -29.1663  -17.1657   21.3631 C   0  0  2  0  0  0  0  0  0  0  0  0
  -20.1838  -32.0243   21.0958 C   0  0  0  0  0  0  0  0  0  0  0  0
  -20.7299  -25.4956   22.0695 C   0  0  0  0  0  0  0  0  0  0  0  0
  -19.6920  -27.3981   20.8160 C   0  0  0  0  0  0  0  0  0  0  0  0
  -19.3480  -27.1937   23.2783 C   0  0  0  0  0  0  0  0  0  0  0  0
  -23.6957  -32.4253   22.5037 C   0  0  0  0  0  0  0  0  0  0  0  0
  -29.9043  -26.1726   19.9014 C   0  0  0  0  0  0  0  0  0  1  0  0
  -21.6099  -27.9006   22.3972 C   0  0  1  0  0  0  0  0  0  0  0  0
  -21.3818  -31.6589   21.9585 C   0  0  2  0  0  0  0  0  0  0  0  0
  -20.3732  -26.9938   22.1409 C   0  0  0  0  0  0  0  0  0  0  0  0
  -28.2643  -14.9241   20.8704 N   0  0  0  0  0  0  0  0  0  0  0  0
  -30.2387  -24.3326   18.3597 N   0  0  0  0  0  0  0  0  0  0  0  0
  -29.3496  -15.6829   21.0993 N   0  0  0  0  0  0  0  0  0  0  0  0
  -23.6753  -27.1468   23.5329 N   0  0  0  0  0  0  0  0  0  0  0  0
  -27.8332  -19.1809   20.8813 N   0  0  0  0  0  0  0  0  0  0  0  0
  -29.6471  -20.0765   14.0208 N   0  0  0  0  0  0  0  0  0  0  0  0
  -31.7106  -15.5994   21.2709 N   0  0  0  0  0  0  0  0  0  0  0  0
  -30.5789  -11.3195   20.3777 N   0  0  0  0  0  0  0  0  0  0  0  0
  -28.0888  -19.8026   18.6207 N   0  0  0  0  0  0  0  0  0  0  0  0
  -24.8152  -24.4223   25.6717 N   0  0  0  0  0  0  0  0  0  0  0  0
  -21.2981  -29.3223   22.4966 N   0  0  0  0  0  0  0  0  0  0  0  0
  -22.4645  -32.6507   21.7034 N   0  3  0  0  0  0  0  0  0  0  0  0
  -30.9844  -24.4660   16.1619 O   0  0  0  0  0  0  0  0  0  0  0  0
  -32.3358  -12.7317   20.7995 O   0  0  0  0  0  0  0  0  0  0  0  0
  -23.7064  -24.5924   23.6311 O   0  0  0  0  0  0  0  0  0  0  0  0
  -21.7384  -27.6050   24.7472 O   0  0  0  0  0  0  0  0  0  0  0  0
  -22.6789  -30.0072   20.7641 O   0  0  0  0  0  0  0  0  0  0  0  0
  -27.7499  -21.4066   20.2621 O   0  0  0  0  0  0  0  0  0  0  0  0
  -25.4182   -9.3714   19.5990 O   0  0  0  0  0  0  0  0  0  0  0  0
  -28.6513  -26.8556   19.8987 O   0  0  0  0  0  0  0  0  0  1  0  0
  -20.8618   -8.8263   22.6563 F   0  0  0  0  0  0  0  0  0  0  0  0
  -23.4935  -11.3555   19.6425 F   0  0  0  0  0  0  0  0  0  0  0  0
  1  2  1  0  0  0  0
  1  5  2  0  0  0  0
  2  6  2  0  0  0  0
  3  8  2  0  0  0  0
  3 18  1  0  0  0  0
  4  9  1  0  0  0  0
  4 18  2  0  0  0  0
  5 21  1  0  0  0  0
  6 23  1  0  0  0  0
  7 10  2  0  0  0  0
  7 22  1  0  0  0  0
  8 27  1  0  0  0  0
  9 27  2  0  0  0  0
 10 28  1  0  0  0  0
 11 12  2  0  0  0  0
 11 29  1  0  0  0  0
 12 30  1  0  0  0  0
 13 19  1  0  0  0  0
 13 25  2  0  0  0  0
 14 19  2  0  0  0  0
 14 26  1  0  0  0  0
 15 24  1  0  0  0  0
 15 28  2  0  0  0  0
 16 25  1  0  0  0  0
 16 26  2  0  0  0  0
 17 30  2  0  0  0  0
 17 31  1  0  0  0  0
 18 32  1  0  0  0  0
 19 35  1  0  0  0  0
 20 32  1  0  0  0  0
 20 33  2  0  0  0  0
 20 36  1  0  0  0  0
 21 23  2  0  0  0  0
 21 41  1  0  0  0  0
 22 24  2  0  0  0  0
 22 42  1  0  0  0  0
 23 50  1  0  0  0  0
 24 43  1  0  0  0  0
 25 67  1  0  0  0  0
 26 70  1  0  0  0  0
 27 80  1  0  0  0  0
 28 81  1  0  0  0  0
 29 31  2  0  0  0  0
 29 80  1  0  0  0  0
 30 82  1  0  0  0  0
 31 83  1  0  0  0  0
 32 62  2  0  0  0  0
 33 64  1  0  0  0  0
 33 68  1  0  0  0  0
 34 58  1  0  0  0  0
 34 63  2  0  0  0  0
 35 63  1  0  0  0  0
 35 74  2  0  0  0  0
 36 69  1  0  0  0  0
 36 75  2  0  0  0  0
 37 51  1  0  0  0  0
 37 71  1  0  0  0  0
 37 76  2  0  0  0  0
 38 59  1  0  0  0  0
 38 65  1  0  0  0  0
 38 77  2  0  0  0  0
 39 60  1  0  0  0  0
 39 72  1  0  0  0  0
 39 78  2  0  0  0  0
 40 66  1  0  0  0  0
 40 70  1  0  0  0  0
 40 79  2  0  0  0  0
 41 44  1  0  0  0  0
 42 51  1  0  0  0  0
 43 65  1  0  0  0  0
 44 46  1  0  0  0  0
 45 47  1  0  0  0  0
 45 48  1  0  0  0  0
 46 50  1  0  0  0  0
 47 52  1  0  0  0  0
 48 66  1  0  0  0  0
 49 52  1  0  0  0  0
 49 66  1  0  0  0  0
 50 71  1  0  0  0  0
 51 65  1  0  0  0  0
 52 64  1  0  0  0  0
 53 60  1  0  0  0  0
 54 61  1  0  0  0  0
 55 61  1  0  0  0  0
 56 61  1  0  0  0  0
 57 73  1  0  0  0  0
 58 81  1  0  0  0  0
 59 61  1  0  0  0  0
 59 72  1  0  0  0  0
 60 73  1  0  0  0  0
 62 64  1  0  0  0  0
M  CHG  1  73   1
M  ISO  4  40 100  58 101  70 100  81 101
M  END
> <Batch ID>
0087

> <Smiles>
CNC(C)C(=O)NC(C(=O)N1Cc2cc([101O:1][101CH:1]=CNC(=O)c3cc(N)cc([100NH:0][100C:0](=O)N4CCCC(n5nc(-c6ccc(Oc7ccc(F)cc7F)cc6)c(C(N)=O)c5N)C4)c3)ccc2CC1C(=O)NC1CCCc2ccccc21)C(C)(C)C

> <Shape>
0.241

> <Color>
0.056

> <Negative vol penalty>
0.000

$$$$

  -OEChem-04052300203D

 86 94  0     1  0  0  0  0  0999 V2000
  -35.6554  -33.7655   17.1896 C   0  0  0  0  0  0  0  0  0  0  0  0
  -35.8945  -32.7162   18.0712 C   0  0  0  0  0  0  0  0  0  0  0  0
  -22.9870   -9.9803   19.9028 C   0  0  0  0  0  0  0  0  0  0  0  0
  -23.8116   -9.7898   22.1657 C   0  0  0  0  0  0  0  0  0  0  0  0
  -32.8480  -17.0838   23.7063 C   0  0  0  0  0  0  0  0  0  0  0  0
  -34.3542  -34.0399   16.7708 C   0  0  0  0  0  0  0  0  0  0  0  0
  -34.8323  -31.9413   18.5354 C   0  0  0  0  0  0  0  0  0  0  0  0
  -34.9212  -25.9483   19.7931 C   0  0  0  0  0  0  0  0  0  0  0  0
  -32.2122  -16.2873   22.7539 C   0  0  0  0  0  0  0  0  0  0  0  0
  -22.2216   -8.8285   20.0847 C   0  0  0  0  0  0  0  0  0  0  0  0
  -23.0462   -8.6380   22.3477 C   0  0  0  0  0  0  0  0  0  0  0  0
  -35.0564  -25.2425   20.9879 C   0  0  0  0  0  0  0  0  0  0  0  0
  -23.2371   -5.3642   21.5251 C   0  0  0  0  0  0  0  0  0  0  0  0
  -23.8466   -4.2718   22.1421 C   0  0  0  0  0  0  0  0  0  0  0  0
  -32.6563  -25.0539   21.1409 C   0  0  0  0  0  0  0  0  0  0  0  0
  -30.0684  -17.1376   23.4740 C   0  0  0  0  0  0  0  0  0  0  0  0
  -22.1993   -4.3500   23.9077 C   0  0  0  0  0  0  0  0  0  0  0  0
  -23.7821  -10.4609   20.9433 C   0  0  0  0  0  0  0  0  0  0  0  0
  -32.0940  -17.9071   24.5426 C   0  0  0  0  0  0  0  0  0  0  0  0
  -24.1841  -12.9792   21.0097 C   0  0  0  0  0  0  0  0  0  0  0  0
  -33.2766  -33.2618   17.2225 C   0  0  0  0  0  0  0  0  0  0  0  0
  -33.6501  -26.2221   19.2681 C   0  0  0  0  0  0  0  0  0  0  0  0
  -33.5152  -32.2063   18.1233 C   0  0  0  0  0  0  0  0  0  0  0  0
  -32.5079  -25.7611   19.9380 C   0  0  0  0  0  0  0  0  0  0  0  0
  -30.7043  -17.9341   24.4264 C   0  0  0  0  0  0  0  0  0  0  0  0
  -30.8224  -16.3143   22.6377 C   0  0  0  0  0  0  0  0  0  0  0  0
  -22.2512   -8.1573   21.3071 C   0  0  0  0  0  0  0  0  0  0  0  0
  -33.9238  -24.7977   21.6635 C   0  0  0  0  0  0  0  0  0  0  0  0
  -22.1087   -5.9495   22.0994 C   0  0  0  0  0  0  0  0  0  0  0  0
  -23.3277   -3.7647   23.3334 C   0  0  0  0  0  0  0  0  0  0  0  0
  -21.5898   -5.4424   23.2907 C   0  0  0  0  0  0  0  0  0  0  0  0
  -24.5734  -11.6504   20.7558 C   0  0  0  0  0  0  0  0  0  0  0  0
  -25.2841  -13.7295   20.6729 C   0  0  0  0  0  0  0  0  0  0  0  0
  -33.5483  -22.8404   22.8876 C   0  0  0  0  0  0  0  0  0  1  0  0
  -22.9395  -13.4896   21.5058 C   0  0  0  0  0  0  0  0  0  0  0  0
  -32.7902  -18.7355   25.5378 C   0  0  0  0  0  0  0  0  0  0  0  0
  -33.6195  -22.0738   23.9824 C   0  0  0  0  0  0  0  0  0  0  0  0
  -33.0353  -20.6967   23.9406 C   0  0  0  0  0  0  0  0  0  0  0  0
  -32.0114  -28.8686   18.6247 C   0  0  0  0  0  0  0  0  0  0  0  0
  -29.8903  -26.7769   17.3409 C   0  0  0  0  0  0  0  0  0  0  0  0
  -28.6457  -23.6004   17.2523 C   0  0  0  0  0  0  0  0  0  0  0  0
  -30.7777  -14.6323   20.7628 C   0  0  0  0  0  0  0  0  0  0  0  0
  -31.8819  -33.6262   16.7790 C   0  0  0  0  0  0  0  0  0  0  0  0
  -33.5222  -26.9614   17.9644 C   0  0  0  0  0  0  0  0  0  0  0  0
  -31.1213  -26.0114   19.4059 C   0  0  0  0  0  0  0  0  0  0  0  0
  -30.8567  -32.5221   17.0245 C   0  0  0  0  0  0  0  0  0  0  0  0
  -29.5358  -12.4380   18.2488 C   0  0  0  0  0  0  0  0  0  0  0  0
  -31.0077  -31.9570   18.4333 C   0  0  0  0  0  0  0  0  0  0  0  0
  -28.1021  -12.1468   18.6978 C   0  0  0  0  0  0  0  0  0  0  0  0
  -30.4902  -12.5507   19.4364 C   0  0  0  0  0  0  0  0  0  0  0  0
  -28.6422  -13.2082   20.9269 C   0  0  0  0  0  0  0  0  0  0  0  0
  -32.3921  -31.3275   18.6297 C   0  0  1  0  0  0  0  0  0  0  0  0
  -32.1624  -27.6300   17.7876 C   0  0  1  0  0  0  0  0  0  0  0  0
  -27.6322  -13.1503   19.7692 C   0  0  2  0  0  0  0  0  0  0  0  0
  -29.8731  -18.8057   25.3103 C   0  0  0  0  0  0  0  0  0  0  0  0
  -26.8888  -22.2037   16.1299 C   0  0  0  0  0  0  0  0  0  0  0  0
  -27.7505  -28.0637   19.0946 C   0  0  0  0  0  0  0  0  0  0  0  0
  -26.2963  -26.0725   18.6604 C   0  0  0  0  0  0  0  0  0  0  0  0
  -27.0094  -27.5307   16.7663 C   0  0  0  0  0  0  0  0  0  0  0  0
  -30.6702  -21.7859   16.0828 C   0  0  0  0  0  0  0  0  0  0  0  0
  -28.7020  -26.0047   17.8611 C   0  0  1  0  0  0  0  0  0  0  0  0
  -28.3351  -22.6723   16.0919 C   0  0  2  0  0  0  0  0  0  0  0  0
  -27.4655  -26.9147   18.1069 C   0  0  0  0  0  0  0  0  0  0  0  0
  -25.8230  -11.5586   20.2932 N   0  0  0  0  0  0  0  0  0  0  0  0
  -26.2285  -12.8393   20.2537 N   0  0  0  0  0  0  0  0  0  0  0  0
  -31.0481  -26.7442   18.1310 N   0  0  0  0  0  0  0  0  0  0  0  0
  -29.9826  -13.5221   20.4078 N   0  0  0  0  0  0  0  0  0  0  0  0
  -25.5259  -15.0574   20.6974 N   0  0  0  0  0  0  0  0  0  0  0  0
  -21.9149  -12.5803   21.8018 N   0  0  0  0  0  0  0  0  0  0  0  0
  -30.1775  -15.5049   21.6699 N   0  0  0  0  0  0  0  0  0  0  0  0
  -33.1891  -20.0215   25.1617 N   0  0  0  0  0  0  0  0  0  0  0  0
  -32.4478  -30.0236   18.0041 N   0  0  0  0  0  0  0  0  0  0  0  0
  -28.4689  -24.9241   16.9091 N   0  0  0  0  0  0  0  0  0  0  0  0
  -29.2189  -21.4732   16.1368 N   0  3  0  0  0  0  0  0  0  0  0  0
  -22.7361  -14.7170   21.6658 O   0  0  0  0  0  0  0  0  0  0  0  0
  -32.4946  -20.2556   22.9316 O   0  0  0  0  0  0  0  0  0  0  0  0
  -31.5329  -28.7831   19.7496 O   0  0  0  0  0  0  0  0  0  0  0  0
  -29.7971  -27.3808   16.2693 O   0  0  0  0  0  0  0  0  0  0  0  0
  -29.0054  -23.1919   18.3542 O   0  0  0  0  0  0  0  0  0  0  0  0
  -31.8970  -14.8112   20.2758 O   0  0  0  0  0  0  0  0  0  0  0  0
  -34.2120  -22.5014   25.1526 O   0  0  0  0  0  0  0  0  0  0  0  0
  -21.5042   -7.0335   21.4851 O   0  0  0  0  0  0  0  0  0  0  0  0
  -34.0528  -24.1092   22.8301 O   0  0  0  0  0  0  0  0  0  1  0  0
  -23.9122   -2.7147   23.9251 F   0  0  0  0  0  0  0  0  0  0  0  0
  -20.5053   -5.9998   23.8465 F   0  0  0  0  0  0  0  0  0  0  0  0
  -33.1046  -18.1655   27.0863 S   0  0  0  0  0  0  0  0  0  0  0  0
  1  2  1  0  0  0  0
  1  6  2  0  0  0  0
  2  7  2  0  0  0  0
  3 10  2  0  0  0  0
  3 18  1  0  0  0  0
  4 11  1  0  0  0  0
  4 18  2  0  0  0  0
  5  9  2  0  0  0  0
  5 19  1  0  0  0  0
  6 21  1  0  0  0  0
  7 23  1  0  0  0  0
  8 12  2  0  0  0  0
  8 22  1  0  0  0  0
  9 26  1  0  0  0  0
 10 27  1  0  0  0  0
 11 27  2  0  0  0  0
 12 28  1  0  0  0  0
 13 14  2  0  0  0  0
 13 29  1  0  0  0  0
 14 30  1  0  0  0  0
 15 24  1  0  0  0  0
 15 28  2  0  0  0  0
 16 25  1  0  0  0  0
 16 26  2  0  0  0  0
 17 30  2  0  0  0  0
 17 31  1  0  0  0  0
 18 32  1  0  0  0  0
 19 25  2  0  0  0  0
 19 36  1  0  0  0  0
 20 32  1  0  0  0  0
 20 33  2  0  0  0  0
 20 35  1  0  0  0  0
 21 23  2  0  0  0  0
 21 43  1  0  0  0  0
 22 24  2  0  0  0  0
 22 44  1  0  0  0  0
 23 52  1  0  0  0  0
 24 45  1  0  0  0  0
 25 55  1  0  0  0  0
 26 70  1  0  0  0  0
 27 82  1  0  0  0  0
 28 83  1  0  0  0  0
 29 31  2  0  0  0  0
 29 82  1  0  0  0  0
 30 84  1  0  0  0  0
 31 85  1  0  0  0  0
 32 64  2  0  0  0  0
 33 65  1  0  0  0  0
 33 68  1  0  0  0  0
 34 37  2  0  0  0  0
 34 83  1  0  0  0  0
 35 69  1  0  0  0  0
 35 75  2  0  0  0  0
 36 71  1  0  0  0  0
 36 86  2  0  0  0  0
 37 38  1  0  0  0  0
 37 81  1  0  0  0  0
 38 71  1  0  0  0  0
 38 76  2  0  0  0  0
 39 53  1  0  0  0  0
 39 72  1  0  0  0  0
 39 77  2  0  0  0  0
 40 61  1  0  0  0  0
 40 66  1  0  0  0  0
 40 78  2  0  0  0  0
 41 62  1  0  0  0  0
 41 73  1  0  0  0  0
 41 79  2  0  0  0  0
 42 67  1  0  0  0  0
 42 70  1  0  0  0  0
 42 80  2  0  0  0  0
 43 46  1  0  0  0  0
 44 53  1  0  0  0  0
 45 66  1  0  0  0  0
 46 48  1  0  0  0  0
 47 49  1  0  0  0  0
 47 50  1  0  0  0  0
 48 52  1  0  0  0  0
 49 54  1  0  0  0  0
 50 67  1  0  0  0  0
 51 54  1  0  0  0  0
 51 67  1  0  0  0  0
 52 72  1  0  0  0  0
 53 66  1  0  0  0  0
 54 65  1  0  0  0  0
 56 62  1  0  0  0  0
 57 63  1  0  0  0  0
 58 63  1  0  0  0  0
 59 63  1  0  0  0  0
 60 74  1  0  0  0  0
 61 63  1  0  0  0  0
 61 73  1  0  0  0  0
 62 74  1  0  0  0  0
 64 65  1  0  0  0  0
M  CHG  1  74   1
M  ISO  4  34 101  42 100  70 100  83 101
M  END
> <Batch ID>
0087

> <Smiles>
CNC(C)C(=O)NC(C(=O)N1Cc2cc([101O:1][101CH2:1]C(=O)C(=O)NC(=S)c3ccc([100NH:0][100C:0](=O)N4CCCC(n5nc(-c6ccc(Oc7ccc(F)cc7F)cc6)c(C(N)=O)c5N)C4)cc3C)ccc2CC1C(=O)NC1CCCc2ccccc21)C(C)(C)C

> <Shape>
0.217

> <Color>
0.198

> <Negative vol penalty>
0.000

$$$$

  -OEChem-04052300203D

 85 94  0     1  0  0  0  0  0999 V2000
  -28.7981  -25.7792   16.0054 C   0  0  0  0  0  0  0  0  0  0  0  0
  -27.6531  -25.7125   16.7927 C   0  0  0  0  0  0  0  0  0  0  0  0
  -19.0790  -20.3514   18.9401 C   0  0  0  0  0  0  0  0  0  0  0  0
  -26.3696  -12.6999   21.0465 C   0  0  0  0  0  0  0  0  0  0  0  0
  -24.1316  -12.8139   20.1436 C   0  0  0  0  0  0  0  0  0  0  0  0
  -29.9258  -26.4527   16.4728 C   0  0  0  0  0  0  0  0  0  0  0  0
  -27.6355  -26.3185   18.0485 C   0  0  0  0  0  0  0  0  0  0  0  0
  -23.3805  -28.9341   18.8839 C   0  0  0  0  0  0  0  0  0  0  0  0
  -18.7462  -21.4861   19.6799 C   0  0  0  0  0  0  0  0  0  0  0  0
  -20.4071  -19.9310   18.8674 C   0  0  0  0  0  0  0  0  0  0  0  0
  -26.0186  -11.5620   21.7729 C   0  0  0  0  0  0  0  0  0  0  0  0
  -23.7806  -11.6759   20.8699 C   0  0  0  0  0  0  0  0  0  0  0  0
  -22.2424  -28.2058   19.2275 C   0  0  0  0  0  0  0  0  0  0  0  0
  -24.1956   -8.3320   20.6118 C   0  0  0  0  0  0  0  0  0  0  0  0
  -23.4691   -7.3416   19.9507 C   0  0  0  0  0  0  0  0  0  0  0  0
  -22.5982  -28.7564   21.5490 C   0  0  0  0  0  0  0  0  0  0  0  0
  -21.0694  -21.7800   20.2742 C   0  0  0  0  0  0  0  0  0  0  0  0
  -21.6699   -7.5990   21.5425 C   0  0  0  0  0  0  0  0  0  0  0  0
  -25.4260  -13.3259   20.2319 C   0  0  0  0  0  0  0  0  0  0  0  0
  -26.3161  -14.5490   18.1778 C   0  0  0  0  0  0  0  0  0  0  0  0
  -29.9188  -27.0756   17.7309 C   0  0  0  0  0  0  0  0  0  0  0  0
  -24.1434  -29.5711   19.8732 C   0  0  0  0  0  0  0  0  0  0  0  0
  -28.7646  -26.9999   18.5337 C   0  0  0  0  0  0  0  0  0  0  0  0
  -23.7441  -29.4944   21.2151 C   0  0  0  0  0  0  0  0  0  0  0  0
  -19.7414  -22.2004   20.3469 C   0  0  0  0  0  0  0  0  0  0  0  0
  -21.4022  -20.6453   19.5345 C   0  0  0  0  0  0  0  0  0  0  0  0
  -24.7241  -11.0500   21.6845 C   0  0  0  0  0  0  0  0  0  0  0  0
  -21.8527  -28.1144   20.5605 C   0  0  0  0  0  0  0  0  0  0  0  0
  -23.6592   -8.9558   21.7382 C   0  0  0  0  0  0  0  0  0  0  0  0
  -22.2063   -6.9751   20.4161 C   0  0  0  0  0  0  0  0  0  0  0  0
  -22.3964   -8.5893   22.2036 C   0  0  0  0  0  0  0  0  0  0  0  0
  -25.7878  -14.5017   19.4818 C   0  0  0  0  0  0  0  0  0  0  0  0
  -26.4857  -15.8882   17.9244 C   0  0  0  0  0  0  0  0  0  0  0  0
  -18.7866  -25.4328   22.9388 C   0  0  0  0  0  0  0  0  0  0  0  0
  -19.8699  -25.5648   22.1624 C   0  0  0  0  0  0  0  0  0  0  0  0
  -20.3035  -24.4373   21.2689 C   0  0  0  0  0  0  0  0  0  0  0  0
  -26.6258  -13.4781   17.2762 C   0  0  0  0  0  0  0  0  0  0  0  0
  -27.1357  -29.3102   20.9132 C   0  0  0  0  0  0  0  0  0  0  0  0
  -26.3263  -31.8915   22.7031 C   0  0  0  0  0  0  0  0  0  0  0  0
  -23.8642  -33.7346   24.1823 C   0  0  0  0  0  0  0  0  0  0  0  0
  -23.8599  -20.8117   20.0621 C   0  0  0  0  0  0  0  0  0  0  0  0
  -31.1778  -27.7516   18.2132 C   0  0  0  0  0  0  0  0  0  0  0  0
  -25.3533  -30.3752   19.4833 C   0  0  0  0  0  0  0  0  0  0  0  0
  -24.5172  -30.1768   22.3129 C   0  0  0  0  0  0  0  0  0  0  0  0
  -17.9121  -24.2305   22.9152 C   0  0  0  0  0  0  0  0  0  0  0  0
  -30.9511  -28.6874   19.3978 C   0  0  0  0  0  0  0  0  0  0  0  0
  -27.3352  -20.0425   20.1504 C   0  0  0  0  0  0  0  0  0  0  0  0
  -30.0825  -28.0111   20.4537 C   0  0  0  0  0  0  0  0  0  0  0  0
  -27.3813  -18.5397   19.8643 C   0  0  0  0  0  0  0  0  0  0  0  0
  -18.0107  -23.5126   21.5786 C   0  0  0  0  0  0  0  0  0  0  0  0
  -26.1260  -20.4205   21.0039 C   0  0  0  0  0  0  0  0  0  0  0  0
  -24.8780  -18.4539   20.2012 C   0  0  0  0  0  0  0  0  0  0  0  0
  -28.6984  -27.6658   19.8910 C   0  0  1  0  0  0  0  0  0  0  0  0
  -26.3451  -30.5557   20.6283 C   0  0  1  0  0  0  0  0  0  0  0  0
  -26.0432  -18.0341   19.2902 C   0  0  2  0  0  0  0  0  0  0  0  0
  -23.5138  -35.7688   25.6094 C   0  0  0  0  0  0  0  0  0  0  0  0
  -27.2727  -30.3346   25.1506 C   0  0  0  0  0  0  0  0  0  0  0  0
  -26.0464  -31.9798   26.5850 C   0  0  0  0  0  0  0  0  0  0  0  0
  -27.9242  -32.7491   25.1341 C   0  0  0  0  0  0  0  0  0  0  0  0
  -22.2443  -35.0642   22.0925 C   0  0  0  0  0  0  0  0  0  0  0  0
  -20.7313  -26.7910   22.1875 C   0  0  0  0  0  0  0  0  0  1  0  0
  -25.7244  -32.0969   24.0723 C   0  0  1  0  0  0  0  0  0  0  0  0
  -23.5904  -35.2277   24.1902 C   0  0  2  0  0  0  0  0  0  0  0  0
  -26.7282  -31.7755   25.2153 C   0  0  0  0  0  0  0  0  0  0  0  0
  -25.6322  -15.7145   20.0194 N   0  0  0  0  0  0  0  0  0  0  0  0
  -26.0653  -16.5364   19.0484 N   0  0  0  0  0  0  0  0  0  0  0  0
  -19.3961  -23.3742   21.1127 N   0  0  0  0  0  0  0  0  0  0  0  0
  -25.6964  -30.9457   21.8818 N   0  0  0  0  0  0  0  0  0  0  0  0
  -24.8942  -19.9121   20.3963 N   0  0  0  0  0  0  0  0  0  0  0  0
  -26.9519  -16.5628   16.8521 N   0  0  0  0  0  0  0  0  0  0  0  0
  -26.3902  -12.1619   17.6961 N   0  0  0  0  0  0  0  0  0  0  0  0
  -22.7511  -20.2177   19.4603 N   0  0  0  0  0  0  0  0  0  0  0  0
  -27.8662  -28.8485   19.8349 N   0  0  0  0  0  0  0  0  0  0  0  0
  -25.2131  -33.4631   24.0926 N   0  0  0  0  0  0  0  0  0  0  0  0
  -22.3000  -35.5213   23.5050 N   0  3  0  0  0  0  0  0  0  0  0  0
  -21.3987  -24.5314   20.7128 O   0  0  0  0  0  0  0  0  0  0  0  0
  -27.1129  -13.6816   16.1383 O   0  0  0  0  0  0  0  0  0  0  0  0
  -27.0877  -28.8061   22.0292 O   0  0  0  0  0  0  0  0  0  0  0  0
  -27.3145  -32.5513   22.3719 O   0  0  0  0  0  0  0  0  0  0  0  0
  -22.9710  -32.8932   24.2527 O   0  0  0  0  0  0  0  0  0  0  0  0
  -23.9624  -22.0238   20.2679 O   0  0  0  0  0  0  0  0  0  0  0  0
  -24.3814   -9.9394   22.3930 O   0  0  0  0  0  0  0  0  0  0  0  0
  -20.7427  -27.4035   20.8987 O   0  0  0  0  0  0  0  0  0  1  0  0
  -21.5081   -6.0251   19.7802 F   0  0  0  0  0  0  0  0  0  0  0  0
  -21.8754   -9.1859   23.2845 F   0  0  0  0  0  0  0  0  0  0  0  0
  1  2  1  0  0  0  0
  1  6  2  0  0  0  0
  2  7  2  0  0  0  0
  3  9  2  0  0  0  0
  3 10  1  0  0  0  0
  4 11  2  0  0  0  0
  4 19  1  0  0  0  0
  5 12  1  0  0  0  0
  5 19  2  0  0  0  0
  6 21  1  0  0  0  0
  7 23  1  0  0  0  0
  8 13  2  0  0  0  0
  8 22  1  0  0  0  0
  9 25  1  0  0  0  0
 10 26  2  0  0  0  0
 11 27  1  0  0  0  0
 12 27  2  0  0  0  0
 13 28  1  0  0  0  0
 14 15  2  0  0  0  0
 14 29  1  0  0  0  0
 15 30  1  0  0  0  0
 16 24  1  0  0  0  0
 16 28  2  0  0  0  0
 17 25  2  0  0  0  0
 17 26  1  0  0  0  0
 18 30  2  0  0  0  0
 18 31  1  0  0  0  0
 19 32  1  0  0  0  0
 20 32  1  0  0  0  0
 20 33  2  0  0  0  0
 20 37  1  0  0  0  0
 21 23  2  0  0  0  0
 21 42  1  0  0  0  0
 22 24  2  0  0  0  0
 22 43  1  0  0  0  0
 23 53  1  0  0  0  0
 24 44  1  0  0  0  0
 25 67  1  0  0  0  0
 26 72  1  0  0  0  0
 27 82  1  0  0  0  0
 28 83  1  0  0  0  0
 29 31  2  0  0  0  0
 29 82  1  0  0  0  0
 30 84  1  0  0  0  0
 31 85  1  0  0  0  0
 32 65  2  0  0  0  0
 33 66  1  0  0  0  0
 33 70  1  0  0  0  0
 34 35  2  0  0  0  0
 34 45  1  0  0  0  0
 35 36  1  0  0  0  0
 35 61  1  0  0  0  0
 36 67  1  0  0  0  0
 36 76  2  0  0  0  0
 37 71  1  0  0  0  0
 37 77  2  0  0  0  0
 38 54  1  0  0  0  0
 38 73  1  0  0  0  0
 38 78  2  0  0  0  0
 39 62  1  0  0  0  0
 39 68  1  0  0  0  0
 39 79  2  0  0  0  0
 40 63  1  0  0  0  0
 40 74  1  0  0  0  0
 40 80  2  0  0  0  0
 41 69  1  0  0  0  0
 41 72  1  0  0  0  0
 41 81  2  0  0  0  0
 42 46  1  0  0  0  0
 43 54  1  0  0  0  0
 44 68  1  0  0  0  0
 45 50  1  0  0  0  0
 46 48  1  0  0  0  0
 47 49  1  0  0  0  0
 47 51  1  0  0  0  0
 48 53  1  0  0  0  0
 49 55  1  0  0  0  0
 50 67  1  0  0  0  0
 51 69  1  0  0  0  0
 52 55  1  0  0  0  0
 52 69  1  0  0  0  0
 53 73  1  0  0  0  0
 54 68  1  0  0  0  0
 55 66  1  0  0  0  0
 56 63  1  0  0  0  0
 57 64  1  0  0  0  0
 58 64  1  0  0  0  0
 59 64  1  0  0  0  0
 60 75  1  0  0  0  0
 61 83  1  0  0  0  0
 62 64  1  0  0  0  0
 62 74  1  0  0  0  0
 63 75  1  0  0  0  0
 65 66  1  0  0  0  0
M  CHG  1  75   1
M  ISO  4  41 100  61 101  72 100  83 101
M  END
> <Batch ID>
0087

> <Smiles>
CNC(C)C(=O)NC(C(=O)N1Cc2cc([101O:1][101CH2:1]C3=CCCN(c4cccc([100NH:0][100C:0](=O)N5CCCC(n6nc(-c7ccc(Oc8ccc(F)cc8F)cc7)c(C(N)=O)c6N)C5)c4)C3=O)ccc2CC1C(=O)NC1CCCc2ccccc21)C(C)(C)C

> <Shape>
0.254

> <Color>
0.084

> <Negative vol penalty>
0.000

$$$$

  -OEChem-04052300203D

 85 94  0     1  0  0  0  0  0999 V2000
  -28.1481  -29.3417   28.4377 C   0  0  0  0  0  0  0  0  0  0  0  0
  -28.4237  -28.4440   27.4112 C   0  0  0  0  0  0  0  0  0  0  0  0
  -23.0138   -9.7983   20.1668 C   0  0  0  0  0  0  0  0  0  0  0  0
  -23.6723  -10.1434   22.4656 C   0  0  0  0  0  0  0  0  0  0  0  0
  -29.3344  -16.7627   19.3190 C   0  0  0  0  0  0  0  0  0  0  0  0
  -28.7872  -17.7718   21.4449 C   0  0  0  0  0  0  0  0  0  0  0  0
  -26.9007  -29.9609   28.5044 C   0  0  0  0  0  0  0  0  0  0  0  0
  -27.4516  -28.1642   26.4515 C   0  0  0  0  0  0  0  0  0  0  0  0
  -28.3743  -26.9702   20.5161 C   0  0  0  0  0  0  0  0  0  0  0  0
  -28.6693  -17.7952   18.6577 C   0  0  0  0  0  0  0  0  0  0  0  0
  -28.1221  -18.8043   20.7836 C   0  0  0  0  0  0  0  0  0  0  0  0
  -22.2417   -8.7026   20.5524 C   0  0  0  0  0  0  0  0  0  0  0  0
  -22.9001   -9.0476   22.8512 C   0  0  0  0  0  0  0  0  0  0  0  0
  -28.4407  -25.7766   19.7987 C   0  0  0  0  0  0  0  0  0  0  0  0
  -23.1631   -5.6772   22.8119 C   0  0  0  0  0  0  0  0  0  0  0  0
  -23.7303   -4.7661   23.7028 C   0  0  0  0  0  0  0  0  0  0  0  0
  -26.1151  -26.0124   19.2028 C   0  0  0  0  0  0  0  0  0  0  0  0
  -21.9585   -5.2095   25.2844 C   0  0  0  0  0  0  0  0  0  0  0  0
  -23.7292  -10.5187   21.1234 C   0  0  0  0  0  0  0  0  0  0  0  0
  -29.3933  -16.7510   20.7126 C   0  0  0  0  0  0  0  0  0  0  0  0
  -24.1155  -12.9940   20.6421 C   0  0  0  0  0  0  0  0  0  0  0  0
  -25.9161  -29.6958   27.5395 C   0  0  0  0  0  0  0  0  0  0  0  0
  -27.1729  -27.6895   20.5914 C   0  0  0  0  0  0  0  0  0  0  0  0
  -26.1894  -28.7794   26.5061 C   0  0  0  0  0  0  0  0  0  0  0  0
  -26.0367  -27.2162   19.9197 C   0  0  0  0  0  0  0  0  0  0  0  0
  -28.0632  -18.8160   19.3900 C   0  0  0  0  0  0  0  0  0  0  0  0
  -22.1848   -8.3272   21.8946 C   0  0  0  0  0  0  0  0  0  0  0  0
  -27.3103  -25.2961   19.1443 C   0  0  0  0  0  0  0  0  0  0  0  0
  -21.9936   -6.3545   23.1572 C   0  0  0  0  0  0  0  0  0  0  0  0
  -23.1280   -4.5322   24.9390 C   0  0  0  0  0  0  0  0  0  0  0  0
  -21.3913   -6.1207   24.3934 C   0  0  0  0  0  0  0  0  0  0  0  0
  -24.5274  -11.6504   20.7256 C   0  0  0  0  0  0  0  0  0  0  0  0
  -25.2342  -13.6705   20.2210 C   0  0  0  0  0  0  0  0  0  0  0  0
  -26.2133  -21.0744   17.2210 C   0  0  0  0  0  0  0  0  0  0  0  0
  -26.5111  -21.9195   18.2103 C   0  0  0  0  0  0  0  0  0  0  0  0
  -27.2865  -21.1546   19.2153 C   0  0  0  0  0  0  0  0  0  0  0  0
  -30.0865  -15.6745   21.4021 C   0  0  0  0  0  0  0  0  0  0  0  0
  -22.8361  -13.5782   20.9204 C   0  0  0  0  0  0  0  0  0  0  0  0
  -30.7372  -14.5801   20.6457 C   0  0  0  0  0  0  0  0  0  0  0  0
  -25.2236  -28.5601   22.9464 C   0  0  0  0  0  0  0  0  0  0  0  0
  -23.7217  -30.1889   20.5770 C   0  0  0  0  0  0  0  0  0  0  0  0
  -23.0724  -30.5086   17.2419 C   0  0  0  0  0  0  0  0  0  0  0  0
  -24.5662  -30.3535   27.6802 C   0  0  0  0  0  0  0  0  0  0  0  0
  -27.1248  -28.9891   21.3471 C   0  0  0  0  0  0  0  0  0  0  0  0
  -24.7282  -27.9612   19.9527 C   0  0  0  0  0  0  0  0  0  0  0  0
  -26.7383  -19.7042   17.4510 C   0  0  0  0  0  0  0  0  0  0  0  0
  -23.7210  -30.2870   26.4107 C   0  0  0  0  0  0  0  0  0  0  0  0
  -29.6440  -11.9757   18.4369 C   0  0  0  0  0  0  0  0  0  0  0  0
  -23.7452  -28.8781   25.8265 C   0  0  0  0  0  0  0  0  0  0  0  0
  -28.1928  -11.7432   18.8562 C   0  0  0  0  0  0  0  0  0  0  0  0
  -30.5176  -12.3461   19.6310 C   0  0  0  0  0  0  0  0  0  0  0  0
  -28.5631  -13.2983   20.8234 C   0  0  0  0  0  0  0  0  0  0  0  0
  -25.1694  -28.4688   25.4322 C   0  0  1  0  0  0  0  0  0  0  0  0
  -25.7146  -29.3748   21.7833 C   0  0  1  0  0  0  0  0  0  0  0  0
  -27.6444  -12.9492   19.6395 C   0  0  2  0  0  0  0  0  0  0  0  0
  -21.7797  -31.9126   15.6124 C   0  0  0  0  0  0  0  0  0  0  0  0
  -21.1449  -28.7879   21.4180 C   0  0  0  0  0  0  0  0  0  0  0  0
  -20.1415  -29.4702   19.2280 C   0  0  0  0  0  0  0  0  0  0  0  0
  -20.8797  -31.2103   20.8558 C   0  0  0  0  0  0  0  0  0  0  0  0
  -25.5368  -31.3570   15.8397 C   0  0  0  0  0  0  0  0  0  0  0  0
  -26.1752  -23.3583   18.3614 C   0  0  0  0  0  0  0  0  0  1  0  0
  -22.6178  -29.8740   19.5967 C   0  0  1  0  0  0  0  0  0  0  0  0
  -23.1115  -31.7133   16.3191 C   0  0  2  0  0  0  0  0  0  0  0  0
  -21.2199  -29.8203   20.2754 C   0  0  0  0  0  0  0  0  0  0  0  0
  -25.8078  -11.4815   20.3847 N   0  0  0  0  0  0  0  0  0  0  0  0
  -26.2100  -12.7277   20.0829 N   0  0  0  0  0  0  0  0  0  0  0  0
  -27.4011  -19.8441   18.7302 N   0  0  0  0  0  0  0  0  0  0  0  0
  -29.9500  -13.4702   20.3728 N   0  0  0  0  0  0  0  0  0  0  0  0
  -24.7299  -29.2237   20.7101 N   0  0  0  0  0  0  0  0  0  0  0  0
  -25.4685  -14.9739   19.9590 N   0  0  0  0  0  0  0  0  0  0  0  0
  -21.7962  -12.7392   21.3434 N   0  0  0  0  0  0  0  0  0  0  0  0
  -25.5459  -29.0907   24.1809 N   0  0  0  0  0  0  0  0  0  0  0  0
  -22.7260  -30.8622   18.5289 N   0  0  0  0  0  0  0  0  0  0  0  0
  -24.1707  -31.5397   15.2852 N   0  3  0  0  0  0  0  0  0  0  0  0
  -27.7210  -21.6249   20.2545 O   0  0  0  0  0  0  0  0  0  0  0  0
  -30.1901  -15.5825   22.6287 O   0  0  0  0  0  0  0  0  0  0  0  0
  -22.6169  -14.8055   20.7818 O   0  0  0  0  0  0  0  0  0  0  0  0
  -31.9070  -14.7728   20.3407 O   0  0  0  0  0  0  0  0  0  0  0  0
  -24.5973  -27.5274   22.7391 O   0  0  0  0  0  0  0  0  0  0  0  0
  -23.6944  -31.2553   21.1965 O   0  0  0  0  0  0  0  0  0  0  0  0
  -23.3205  -29.3676   16.8586 O   0  0  0  0  0  0  0  0  0  0  0  0
  -21.4313   -7.2582   22.2713 O   0  0  0  0  0  0  0  0  0  0  0  0
  -27.3722  -24.1309   18.4439 O   0  0  0  0  0  0  0  0  0  1  0  0
  -23.6720   -3.6561   25.7938 F   0  0  0  0  0  0  0  0  0  0  0  0
  -20.2671   -6.7675   24.7303 F   0  0  0  0  0  0  0  0  0  0  0  0
  1  2  1  0  0  0  0
  1  7  2  0  0  0  0
  2  8  2  0  0  0  0
  3 12  2  0  0  0  0
  3 19  1  0  0  0  0
  4 13  1  0  0  0  0
  4 19  2  0  0  0  0
  5 10  2  0  0  0  0
  5 20  1  0  0  0  0
  6 11  1  0  0  0  0
  6 20  2  0  0  0  0
  7 22  1  0  0  0  0
  8 24  1  0  0  0  0
  9 14  2  0  0  0  0
  9 23  1  0  0  0  0
 10 26  1  0  0  0  0
 11 26  2  0  0  0  0
 12 27  1  0  0  0  0
 13 27  2  0  0  0  0
 14 28  1  0  0  0  0
 15 16  2  0  0  0  0
 15 29  1  0  0  0  0
 16 30  1  0  0  0  0
 17 25  1  0  0  0  0
 17 28  2  0  0  0  0
 18 30  2  0  0  0  0
 18 31  1  0  0  0  0
 19 32  1  0  0  0  0
 20 37  1  0  0  0  0
 21 32  1  0  0  0  0
 21 33  2  0  0  0  0
 21 38  1  0  0  0  0
 22 24  2  0  0  0  0
 22 43  1  0  0  0  0
 23 25  2  0  0  0  0
 23 44  1  0  0  0  0
 24 53  1  0  0  0  0
 25 45  1  0  0  0  0
 26 67  1  0  0  0  0
 27 82  1  0  0  0  0
 28 83  1  0  0  0  0
 29 31  2  0  0  0  0
 29 82  1  0  0  0  0
 30 84  1  0  0  0  0
 31 85  1  0  0  0  0
 32 65  2  0  0  0  0
 33 66  1  0  0  0  0
 33 70  1  0  0  0  0
 34 35  2  0  0  0  0
 34 46  1  0  0  0  0
 35 36  1  0  0  0  0
 35 61  1  0  0  0  0
 36 67  1  0  0  0  0
 36 75  2  0  0  0  0
 37 39  1  0  0  0  0
 37 76  2  0  0  0  0
 38 71  1  0  0  0  0
 38 77  2  0  0  0  0
 39 68  1  0  0  0  0
 39 78  2  0  0  0  0
 40 54  1  0  0  0  0
 40 72  1  0  0  0  0
 40 79  2  0  0  0  0
 41 62  1  0  0  0  0
 41 69  1  0  0  0  0
 41 80  2  0  0  0  0
 42 63  1  0  0  0  0
 42 73  1  0  0  0  0
 42 81  2  0  0  0  0
 43 47  1  0  0  0  0
 44 54  1  0  0  0  0
 45 69  1  0  0  0  0
 46 67  1  0  0  0  0
 47 49  1  0  0  0  0
 48 50  1  0  0  0  0
 48 51  1  0  0  0  0
 49 53  1  0  0  0  0
 50 55  1  0  0  0  0
 51 68  1  0  0  0  0
 52 55  1  0  0  0  0
 52 68  1  0  0  0  0
 53 72  1  0  0  0  0
 54 69  1  0  0  0  0
 55 66  1  0  0  0  0
 56 63  1  0  0  0  0
 57 64  1  0  0  0  0
 58 64  1  0  0  0  0
 59 64  1  0  0  0  0
 60 74  1  0  0  0  0
 61 83  1  0  0  0  0
 62 64  1  0  0  0  0
 62 73  1  0  0  0  0
 63 74  1  0  0  0  0
 65 66  1  0  0  0  0
M  CHG  1  74   1
M  ISO  4  37 100  39 100  61 101  83 101
M  END
> <Batch ID>
0087

> <Smiles>
CNC(C)C(=O)NC(C(=O)N1Cc2cc([101O:1][101CH2:1]C3=CCN(c4ccc([100C:0](=O)[100C:0](=O)N5CCCC(n6nc(-c7ccc(Oc8ccc(F)cc8F)cc7)c(C(N)=O)c6N)C5)cc4)C3=O)ccc2CC1C(=O)NC1CCCc2ccccc21)C(C)(C)C

> <Shape>
0.318

> <Color>
0.194

> <Negative vol penalty>
0.000

$$$$

  -OEChem-04052300203D

 84 93  0     1  0  0  0  0  0999 V2000
  -30.0714  -33.9049   25.3942 C   0  0  0  0  0  0  0  0  0  0  0  0
  -30.0414  -32.6906   24.7161 C   0  0  0  0  0  0  0  0  0  0  0  0
  -24.6617   -9.2278   21.9601 C   0  0  0  0  0  0  0  0  0  0  0  0
  -23.2817  -10.0402   20.1510 C   0  0  0  0  0  0  0  0  0  0  0  0
  -28.9065  -34.4088   25.9713 C   0  0  0  0  0  0  0  0  0  0  0  0
  -28.8466  -31.9788   24.6156 C   0  0  0  0  0  0  0  0  0  0  0  0
  -26.9879  -28.5540   19.8910 C   0  0  0  0  0  0  0  0  0  0  0  0
  -23.5439   -8.6344   22.5464 C   0  0  0  0  0  0  0  0  0  0  0  0
  -22.1638   -9.4467   20.7373 C   0  0  0  0  0  0  0  0  0  0  0  0
  -27.0243  -27.1801   19.6567 C   0  0  0  0  0  0  0  0  0  0  0  0
  -21.6890   -5.8414   22.1088 C   0  0  0  0  0  0  0  0  0  0  0  0
  -21.8225   -4.5374   22.5857 C   0  0  0  0  0  0  0  0  0  0  0  0
  -24.7549  -26.9904   20.4523 C   0  0  0  0  0  0  0  0  0  0  0  0
  -23.7901  -19.6211   16.6258 C   0  0  0  0  0  0  0  0  0  0  0  0
  -25.5530  -19.0225   18.1654 C   0  0  0  0  0  0  0  0  0  0  0  0
  -24.5438  -17.3301   16.7675 C   0  0  0  0  0  0  0  0  0  0  0  0
  -21.2515   -5.2920   24.8087 C   0  0  0  0  0  0  0  0  0  0  0  0
  -24.5307   -9.9308   20.7624 C   0  0  0  0  0  0  0  0  0  0  0  0
  -26.5654   -9.9639   19.2240 C   0  0  0  0  0  0  0  0  0  0  0  0
  -27.6947  -33.7075   25.8695 C   0  0  0  0  0  0  0  0  0  0  0  0
  -25.8365  -29.1557   20.4188 C   0  0  0  0  0  0  0  0  0  0  0  0
  -27.6646  -32.4730   25.1930 C   0  0  0  0  0  0  0  0  0  0  0  0
  -24.7055  -28.3725   20.6899 C   0  0  0  0  0  0  0  0  0  0  0  0
  -24.7141  -19.9857   17.6050 C   0  0  0  0  0  0  0  0  0  0  0  0
  -23.7049  -18.2933   16.2071 C   0  0  0  0  0  0  0  0  0  0  0  0
  -25.4679  -17.6947   17.7467 C   0  0  0  0  0  0  0  0  0  0  0  0
  -22.2949   -8.7438   21.9350 C   0  0  0  0  0  0  0  0  0  0  0  0
  -25.9087  -26.3976   19.9401 C   0  0  0  0  0  0  0  0  0  0  0  0
  -21.3368   -6.8707   22.9819 C   0  0  0  0  0  0  0  0  0  0  0  0
  -21.6038   -4.2627   23.9356 C   0  0  0  0  0  0  0  0  0  0  0  0
  -21.1181   -6.5960   24.3318 C   0  0  0  0  0  0  0  0  0  0  0  0
  -25.6850  -10.5445   20.1566 C   0  0  0  0  0  0  0  0  0  0  0  0
  -27.4865  -10.9485   18.9624 C   0  0  0  0  0  0  0  0  0  0  0  0
  -24.9760  -23.2196   18.5355 C   0  0  0  0  0  0  0  0  0  0  0  0
  -24.1273  -22.4158   17.6551 C   0  0  0  0  0  0  0  0  0  0  0  0
  -25.0355  -24.5296   18.8360 C   0  0  0  0  0  0  0  0  0  1  0  0
  -26.5517   -8.6519   18.6460 C   0  0  0  0  0  0  0  0  0  0  0  0
  -25.1637  -30.7650   23.0761 C   0  0  0  0  0  0  0  0  0  0  0  0
  -22.2910  -31.1860   21.6295 C   0  0  0  0  0  0  0  0  0  0  0  0
  -20.0082  -30.0827   19.3451 C   0  0  0  0  0  0  0  0  0  0  0  0
  -27.2940  -16.9115   19.2953 C   0  0  0  0  0  0  0  0  0  0  0  0
  -26.4715  -34.2690   26.5502 C   0  0  0  0  0  0  0  0  0  0  0  0
  -25.8040  -30.6431   20.6407 C   0  0  0  0  0  0  0  0  0  0  0  0
  -23.4379  -28.9730   21.2385 C   0  0  0  0  0  0  0  0  0  0  0  0
  -25.7159  -21.9609   18.9263 C   0  0  0  0  0  0  0  0  0  0  0  0
  -25.1660  -33.6354   26.0766 C   0  0  0  0  0  0  0  0  0  0  0  0
  -29.5727  -14.7571   20.9815 C   0  0  0  0  0  0  0  0  0  0  0  0
  -25.2952  -32.1161   26.0323 C   0  0  0  0  0  0  0  0  0  0  0  0
  -28.9174  -13.3785   20.8711 C   0  0  0  0  0  0  0  0  0  0  0  0
  -28.5372  -15.8635   21.1745 C   0  0  0  0  0  0  0  0  0  0  0  0
  -26.8042  -14.5073   20.0669 C   0  0  0  0  0  0  0  0  0  0  0  0
  -26.3825  -31.6836   25.0412 C   0  0  1  0  0  0  0  0  0  0  0  0
  -24.7559  -31.0719   21.6629 C   0  0  1  0  0  0  0  0  0  0  0  0
  -27.8029  -13.3679   19.8066 C   0  0  2  0  0  0  0  0  0  0  0  0
  -17.7390  -30.6126   18.4139 C   0  0  0  0  0  0  0  0  0  0  0  0
  -20.9958  -30.0674   24.1555 C   0  0  0  0  0  0  0  0  0  0  0  0
  -18.8897  -29.7330   22.8437 C   0  0  0  0  0  0  0  0  0  0  0  0
  -19.8105  -32.0301   23.1568 C   0  0  0  0  0  0  0  0  0  0  0  0
  -21.0889  -30.4624   16.6162 C   0  0  0  0  0  0  0  0  0  0  0  0
  -20.9878  -30.4246   21.5985 C   0  0  1  0  0  0  0  0  0  0  0  0
  -19.2387  -30.8105   18.2577 C   0  0  2  0  0  0  0  0  0  0  0  0
  -20.1954  -30.5518   22.9301 C   0  0  0  0  0  0  0  0  0  0  0  0
  -26.0171  -11.8005   20.4666 N   0  0  0  0  0  0  0  0  0  0  0  0
  -27.1165  -12.0173   19.7247 N   0  0  0  0  0  0  0  0  0  0  0  0
  -24.7994  -21.2952   18.0176 N   0  0  0  0  0  0  0  0  0  0  0  0
  -23.4577  -30.4307   21.4443 N   0  0  0  0  0  0  0  0  0  0  0  0
  -27.5156  -15.7938   20.1273 N   0  0  0  0  0  0  0  0  0  0  0  0
  -22.7708  -17.9240   15.2170 N   0  0  0  0  0  0  0  0  0  0  0  0
  -28.5689  -10.9957   18.1570 N   0  0  0  0  0  0  0  0  0  0  0  0
  -25.5344   -7.7654   19.0249 N   0  0  0  0  0  0  0  0  0  0  0  0
  -26.3214  -16.7169   18.3151 N   0  0  0  0  0  0  0  0  0  0  0  0
  -25.8916  -31.7709   23.6826 N   0  0  0  0  0  0  0  0  0  0  0  0
  -20.2644  -30.9012   20.4247 N   0  0  0  0  0  0  0  0  0  0  0  0
  -19.6415  -30.3085   16.9135 N   0  3  0  0  0  0  0  0  0  0  0  0
  -23.2080  -22.6497   16.8984 O   0  0  0  0  0  0  0  0  0  0  0  0
  -27.4254   -8.2713   17.8303 O   0  0  0  0  0  0  0  0  0  0  0  0
  -24.8407  -29.6955   23.5795 O   0  0  0  0  0  0  0  0  0  0  0  0
  -22.2740  -32.4070   21.8041 O   0  0  0  0  0  0  0  0  0  0  0  0
  -20.3449  -28.9046   19.2482 O   0  0  0  0  0  0  0  0  0  0  0  0
  -27.9401  -17.9546   19.4241 O   0  0  0  0  0  0  0  0  0  0  0  0
  -21.2039   -8.1646   22.5067 O   0  0  0  0  0  0  0  0  0  0  0  0
  -25.9418  -25.0563   19.7130 O   0  0  0  0  0  0  0  0  0  1  0  0
  -21.7305   -3.0102   24.3932 F   0  0  0  0  0  0  0  0  0  0  0  0
  -20.7784   -7.5805   25.1751 F   0  0  0  0  0  0  0  0  0  0  0  0
  1  2  1  0  0  0  0
  1  5  2  0  0  0  0
  2  6  2  0  0  0  0
  3  8  2  0  0  0  0
  3 18  1  0  0  0  0
  4  9  1  0  0  0  0
  4 18  2  0  0  0  0
  5 20  1  0  0  0  0
  6 22  1  0  0  0  0
  7 10  2  0  0  0  0
  7 21  1  0  0  0  0
  8 27  1  0  0  0  0
  9 27  2  0  0  0  0
 10 28  1  0  0  0  0
 11 12  2  0  0  0  0
 11 29  1  0  0  0  0
 12 30  1  0  0  0  0
 13 23  1  0  0  0  0
 13 28  2  0  0  0  0
 14 24  1  0  0  0  0
 14 25  2  0  0  0  0
 15 24  2  0  0  0  0
 15 26  1  0  0  0  0
 16 25  1  0  0  0  0
 16 26  2  0  0  0  0
 17 30  2  0  0  0  0
 17 31  1  0  0  0  0
 18 32  1  0  0  0  0
 19 32  1  0  0  0  0
 19 33  2  0  0  0  0
 19 37  1  0  0  0  0
 20 22  2  0  0  0  0
 20 42  1  0  0  0  0
 21 23  2  0  0  0  0
 21 43  1  0  0  0  0
 22 52  1  0  0  0  0
 23 44  1  0  0  0  0
 24 65  1  0  0  0  0
 25 68  1  0  0  0  0
 26 71  1  0  0  0  0
 27 81  1  0  0  0  0
 28 82  1  0  0  0  0
 29 31  2  0  0  0  0
 29 81  1  0  0  0  0
 30 83  1  0  0  0  0
 31 84  1  0  0  0  0
 32 63  2  0  0  0  0
 33 64  1  0  0  0  0
 33 69  1  0  0  0  0
 34 35  1  0  0  0  0
 34 36  2  0  0  0  0
 34 45  1  0  0  0  0
 35 65  1  0  0  0  0
 35 75  2  0  0  0  0
 36 82  1  0  0  0  0
 37 70  1  0  0  0  0
 37 76  2  0  0  0  0
 38 53  1  0  0  0  0
 38 72  1  0  0  0  0
 38 77  2  0  0  0  0
 39 60  1  0  0  0  0
 39 66  1  0  0  0  0
 39 78  2  0  0  0  0
 40 61  1  0  0  0  0
 40 73  1  0  0  0  0
 40 79  2  0  0  0  0
 41 67  1  0  0  0  0
 41 71  1  0  0  0  0
 41 80  2  0  0  0  0
 42 46  1  0  0  0  0
 43 53  1  0  0  0  0
 44 66  1  0  0  0  0
 45 65  1  0  0  0  0
 46 48  1  0  0  0  0
 47 49  1  0  0  0  0
 47 50  1  0  0  0  0
 48 52  1  0  0  0  0
 49 54  1  0  0  0  0
 50 67  1  0  0  0  0
 51 54  1  0  0  0  0
 51 67  1  0  0  0  0
 52 72  1  0  0  0  0
 53 66  1  0  0  0  0
 54 64  1  0  0  0  0
 55 61  1  0  0  0  0
 56 62  1  0  0  0  0
 57 62  1  0  0  0  0
 58 62  1  0  0  0  0
 59 74  1  0  0  0  0
 60 62  1  0  0  0  0
 60 73  1  0  0  0  0
 61 74  1  0  0  0  0
 63 64  1  0  0  0  0
M  CHG  1  74   1
M  ISO  4  36 101  41 100  71 100  82 101
M  END
> <Batch ID>
0087

> <Smiles>
CNC(C)C(=O)NC(C(=O)N1Cc2cc([101O:1][101CH:1]=C3CN(c4cc(N)cc([100NH:0][100C:0](=O)N5CCCC(n6nc(-c7ccc(Oc8ccc(F)cc8F)cc7)c(C(N)=O)c6N)C5)c4)C3=O)ccc2CC1C(=O)NC1CCCc2ccccc21)C(C)(C)C

> <Shape>
0.267

> <Color>
0.084

> <Negative vol penalty>
0.000

$$$$

  -OEChem-04052300203D

 85 94  0     1  0  0  0  0  0999 V2000
  -29.4862  -32.3244   26.2018 C   0  0  0  0  0  0  0  0  0  0  0  0
  -29.1987  -31.1741   25.4740 C   0  0  0  0  0  0  0  0  0  0  0  0
  -24.7243   -7.4139   19.9465 C   0  0  0  0  0  0  0  0  0  0  0  0
  -23.1241   -9.0985   19.2841 C   0  0  0  0  0  0  0  0  0  0  0  0
  -28.4503  -33.1516   26.6338 C   0  0  0  0  0  0  0  0  0  0  0  0
  -27.8750  -30.8498   25.1788 C   0  0  0  0  0  0  0  0  0  0  0  0
  -27.2587  -29.3912   20.3686 C   0  0  0  0  0  0  0  0  0  0  0  0
  -23.7116   -6.7068   20.5947 C   0  0  0  0  0  0  0  0  0  0  0  0
  -22.1114   -8.3914   19.9323 C   0  0  0  0  0  0  0  0  0  0  0  0
  -27.6422  -28.0908   20.0435 C   0  0  0  0  0  0  0  0  0  0  0  0
  -22.0226   -6.8918   23.5166 C   0  0  0  0  0  0  0  0  0  0  0  0
  -22.2926   -6.3982   24.7929 C   0  0  0  0  0  0  0  0  0  0  0  0
  -25.3379  -27.3874   20.1641 C   0  0  0  0  0  0  0  0  0  0  0  0
  -21.8852   -4.1494   24.0094 C   0  0  0  0  0  0  0  0  0  0  0  0
  -24.4305   -8.6097   19.2912 C   0  0  0  0  0  0  0  0  0  0  0  0
  -25.8861   -9.2036   17.2821 C   0  0  0  0  0  0  0  0  0  0  0  0
  -27.1139  -32.8423   26.3355 C   0  0  0  0  0  0  0  0  0  0  0  0
  -25.9108  -29.6976   20.6051 C   0  0  0  0  0  0  0  0  0  0  0  0
  -26.8202  -31.6729   25.6084 C   0  0  0  0  0  0  0  0  0  0  0  0
  -24.9395  -28.6930   20.4897 C   0  0  0  0  0  0  0  0  0  0  0  0
  -22.4052   -7.1956   20.5876 C   0  0  0  0  0  0  0  0  0  0  0  0
  -26.6822  -27.0881   19.9440 C   0  0  0  0  0  0  0  0  0  0  0  0
  -21.6838   -6.0142   22.4866 C   0  0  0  0  0  0  0  0  0  0  0  0
  -22.2239   -5.0270   25.0393 C   0  0  0  0  0  0  0  0  0  0  0  0
  -21.6151   -4.6430   22.7331 C   0  0  0  0  0  0  0  0  0  0  0  0
  -25.4763   -9.3409   18.6219 C   0  0  0  0  0  0  0  0  0  0  0  0
  -26.9035  -10.1151   17.1391 C   0  0  0  0  0  0  0  0  0  0  0  0
  -28.7291  -18.8792   18.1581 C   0  0  0  0  0  0  0  0  0  0  0  0
  -28.7460  -20.1176   18.6605 C   0  0  0  0  0  0  0  0  0  0  0  0
  -28.6365  -17.6352   18.8733 C   0  0  0  0  0  0  0  0  0  0  0  0
  -29.0701  -19.7605   21.0984 C   0  0  0  0  0  0  0  0  0  0  0  0
  -28.7018  -20.5109   20.0498 C   0  0  0  0  0  0  0  0  0  0  0  0
  -29.0070  -17.3638   20.1319 C   0  0  0  0  0  0  0  0  0  0  0  0
  -29.5287  -18.3482   21.1206 C   0  0  0  0  0  0  0  0  0  0  0  0
  -27.7468  -23.7026   20.4551 C   0  0  0  0  0  0  0  0  0  0  0  0
  -28.1319  -22.6037   21.3465 C   0  0  0  0  0  0  0  0  0  0  0  0
  -27.3702  -24.9666   20.6487 C   0  0  0  0  0  0  0  0  0  1  0  0
  -25.3912   -8.3303   16.2583 C   0  0  0  0  0  0  0  0  0  0  0  0
  -24.2614  -30.7865   23.0946 C   0  0  0  0  0  0  0  0  0  0  0  0
  -21.8286  -30.8696   20.9505 C   0  0  0  0  0  0  0  0  0  0  0  0
  -20.4868  -29.6874   18.0439 C   0  0  0  0  0  0  0  0  0  0  0  0
  -27.9981  -15.1528   20.1344 C   0  0  0  0  0  0  0  0  0  0  0  0
  -26.0251  -33.7419   26.8645 C   0  0  0  0  0  0  0  0  0  0  0  0
  -25.5102  -31.1109   20.9287 C   0  0  0  0  0  0  0  0  0  0  0  0
  -23.4770  -28.9744   20.7139 C   0  0  0  0  0  0  0  0  0  0  0  0
  -27.9648  -22.7782   19.2685 C   0  0  0  0  0  0  0  0  0  0  0  0
  -24.6738  -33.5253   26.1882 C   0  0  0  0  0  0  0  0  0  0  0  0
  -30.3287  -12.3349   19.5996 C   0  0  0  0  0  0  0  0  0  0  0  0
  -24.3554  -32.0363   26.0964 C   0  0  0  0  0  0  0  0  0  0  0  0
  -29.3587  -11.2209   19.2175 C   0  0  0  0  0  0  0  0  0  0  0  0
  -29.7194  -13.3041   20.6118 C   0  0  0  0  0  0  0  0  0  0  0  0
  -27.4443  -12.7639   19.7902 C   0  0  0  0  0  0  0  0  0  0  0  0
  -25.3987  -31.3004   25.2471 C   0  0  1  0  0  0  0  0  0  0  0  0
  -24.1708  -31.2012   21.6532 C   0  0  1  0  0  0  0  0  0  0  0  0
  -28.0231  -11.8074   18.7362 C   0  0  2  0  0  0  0  0  0  0  0  0
  -18.4697  -29.9171   16.5687 C   0  0  0  0  0  0  0  0  0  0  0  0
  -20.2000  -29.2057   22.9225 C   0  0  0  0  0  0  0  0  0  0  0  0
  -18.6158  -28.6739   21.0582 C   0  0  0  0  0  0  0  0  0  0  0  0
  -18.9211  -31.0368   21.7974 C   0  0  0  0  0  0  0  0  0  0  0  0
  -22.1202  -30.6199   15.7588 C   0  0  0  0  0  0  0  0  0  0  0  0
  -20.7669  -29.8956   20.5000 C   0  0  1  0  0  0  0  0  0  0  0  0
  -19.8833  -30.4029   16.8488 C   0  0  2  0  0  0  0  0  0  0  0  0
  -19.6536  -29.6970   21.5671 C   0  0  0  0  0  0  0  0  0  0  0  0
  -26.1764  -10.2666   19.2829 N   0  0  0  0  0  0  0  0  0  0  0  0
  -27.0364  -10.7191   18.3547 N   0  0  0  0  0  0  0  0  0  0  0  0
  -28.3165  -21.8091   20.2762 N   0  0  0  0  0  0  0  0  0  0  0  0
  -23.1361  -30.3703   21.0341 N   0  0  0  0  0  0  0  0  0  0  0  0
  -28.4106  -13.8054   20.1621 N   0  0  0  0  0  0  0  0  0  0  0  0
  -27.6886  -10.4507   16.0935 N   0  0  0  0  0  0  0  0  0  0  0  0
  -24.3418   -7.4569   16.5749 N   0  0  0  0  0  0  0  0  0  0  0  0
  -28.9329  -16.0784   20.5902 N   0  0  0  0  0  0  0  0  0  0  0  0
  -25.1572  -31.5302   23.8388 N   0  0  0  0  0  0  0  0  0  0  0  0
  -20.2817  -30.3863   19.2146 N   0  0  0  0  0  0  0  0  0  0  0  0
  -20.7109  -30.1675   15.6319 N   0  3  0  0  0  0  0  0  0  0  0  0
  -30.2651  -17.9801   22.0361 O   0  0  0  0  0  0  0  0  0  0  0  0
  -28.2400  -22.4647   22.5465 O   0  0  0  0  0  0  0  0  0  0  0  0
  -25.8765   -8.3131   15.1017 O   0  0  0  0  0  0  0  0  0  0  0  0
  -23.5687  -29.8612   23.5017 O   0  0  0  0  0  0  0  0  0  0  0  0
  -21.5108  -32.0326   21.2116 O   0  0  0  0  0  0  0  0  0  0  0  0
  -21.0776  -28.6139   17.9489 O   0  0  0  0  0  0  0  0  0  0  0  0
  -26.8768  -15.4940   19.7406 O   0  0  0  0  0  0  0  0  0  0  0  0
  -21.4168   -6.5058   21.2199 O   0  0  0  0  0  0  0  0  0  0  0  0
  -27.0539  -25.8179   19.6274 O   0  0  0  0  0  0  0  0  0  1  0  0
  -22.4848   -4.5530   26.2647 F   0  0  0  0  0  0  0  0  0  0  0  0
  -21.2914   -3.7949   21.7473 F   0  0  0  0  0  0  0  0  0  0  0  0
  1  2  1  0  0  0  0
  1  5  2  0  0  0  0
  2  6  2  0  0  0  0
  3  8  2  0  0  0  0
  3 15  1  0  0  0  0
  4  9  1  0  0  0  0
  4 15  2  0  0  0  0
  5 17  1  0  0  0  0
  6 19  1  0  0  0  0
  7 10  2  0  0  0  0
  7 18  1  0  0  0  0
  8 21  1  0  0  0  0
  9 21  2  0  0  0  0
 10 22  1  0  0  0  0
 11 12  2  0  0  0  0
 11 23  1  0  0  0  0
 12 24  1  0  0  0  0
 13 20  1  0  0  0  0
 13 22  2  0  0  0  0
 14 24  2  0  0  0  0
 14 25  1  0  0  0  0
 15 26  1  0  0  0  0
 16 26  1  0  0  0  0
 16 27  2  0  0  0  0
 16 38  1  0  0  0  0
 17 19  2  0  0  0  0
 17 43  1  0  0  0  0
 18 20  2  0  0  0  0
 18 44  1  0  0  0  0
 19 53  1  0  0  0  0
 20 45  1  0  0  0  0
 21 82  1  0  0  0  0
 22 83  1  0  0  0  0
 23 25  2  0  0  0  0
 23 82  1  0  0  0  0
 24 84  1  0  0  0  0
 25 85  1  0  0  0  0
 26 64  2  0  0  0  0
 27 65  1  0  0  0  0
 27 69  1  0  0  0  0
 28 29  2  0  0  0  0
 28 30  1  0  0  0  0
 29 32  1  0  0  0  0
 30 33  2  0  0  0  0
 31 32  2  0  0  0  0
 31 34  1  0  0  0  0
 32 66  1  0  0  0  0
 33 34  1  0  0  0  0
 33 71  1  0  0  0  0
 34 75  2  0  0  0  0
 35 36  1  0  0  0  0
 35 37  2  0  0  0  0
 35 46  1  0  0  0  0
 36 66  1  0  0  0  0
 36 76  2  0  0  0  0
 37 83  1  0  0  0  0
 38 70  1  0  0  0  0
 38 77  2  0  0  0  0
 39 54  1  0  0  0  0
 39 72  1  0  0  0  0
 39 78  2  0  0  0  0
 40 61  1  0  0  0  0
 40 67  1  0  0  0  0
 40 79  2  0  0  0  0
 41 62  1  0  0  0  0
 41 73  1  0  0  0  0
 41 80  2  0  0  0  0
 42 68  1  0  0  0  0
 42 71  1  0  0  0  0
 42 81  2  0  0  0  0
 43 47  1  0  0  0  0
 44 54  1  0  0  0  0
 45 67  1  0  0  0  0
 46 66  1  0  0  0  0
 47 49  1  0  0  0  0
 48 50  1  0  0  0  0
 48 51  1  0  0  0  0
 49 53  1  0  0  0  0
 50 55  1  0  0  0  0
 51 68  1  0  0  0  0
 52 55  1  0  0  0  0
 52 68  1  0  0  0  0
 53 72  1  0  0  0  0
 54 67  1  0  0  0  0
 55 65  1  0  0  0  0
 56 62  1  0  0  0  0
 57 63  1  0  0  0  0
 58 63  1  0  0  0  0
 59 63  1  0  0  0  0
 60 74  1  0  0  0  0
 61 63  1  0  0  0  0
 61 73  1  0  0  0  0
 62 74  1  0  0  0  0
 64 65  1  0  0  0  0
M  CHG  1  74   1
M  ISO  4  37 101  42 100  71 100  83 101
M  END
> <Batch ID>
0087

> <Smiles>
CNC(C)C(=O)NC(C(=O)N1Cc2cc([101O:1][101CH:1]=C3CN(c4cccc([100NH:0][100C:0](=O)N5CCCC(n6nc(-c7ccc(Oc8ccc(F)cc8F)cc7)c(C(N)=O)c6N)C5)c(=O)c4)C3=O)ccc2CC1C(=O)NC1CCCc2ccccc21)C(C)(C)C

> <Shape>
0.322

> <Color>
0.093

> <Negative vol penalty>
0.000

$$$$

  -OEChem-04052300203D

 84 93  0     1  0  0  0  0  0999 V2000
  -17.3594  -29.6850   24.4334 C   0  0  0  0  0  0  0  0  0  0  0  0
  -17.8902  -28.5174   24.9723 C   0  0  0  0  0  0  0  0  0  0  0  0
  -23.0024  -10.5565   20.4670 C   0  0  0  0  0  0  0  0  0  0  0  0
  -24.2468   -9.8724   22.4216 C   0  0  0  0  0  0  0  0  0  0  0  0
  -17.6242  -30.0223   23.1067 C   0  0  0  0  0  0  0  0  0  0  0  0
  -18.6853  -27.6858   24.1845 C   0  0  0  0  0  0  0  0  0  0  0  0
  -24.2780  -23.2334   24.6471 C   0  0  0  0  0  0  0  0  0  0  0  0
  -22.5542   -9.2470   20.2940 C   0  0  0  0  0  0  0  0  0  0  0  0
  -23.7986   -8.5629   22.2486 C   0  0  0  0  0  0  0  0  0  0  0  0
  -24.6505  -21.9332   24.3086 C   0  0  0  0  0  0  0  0  0  0  0  0
  -22.6927   -5.1110   22.5313 C   0  0  0  0  0  0  0  0  0  0  0  0
  -22.2411   -4.4251   23.6588 C   0  0  0  0  0  0  0  0  0  0  0  0
  -25.1059  -22.6574   22.0531 C   0  0  0  0  0  0  0  0  0  0  0  0
  -29.0100  -16.1550   22.8510 C   0  0  0  0  0  0  0  0  0  0  0  0
  -20.5358   -6.1028   23.9965 C   0  0  0  0  0  0  0  0  0  0  0  0
  -23.8488  -10.8692   21.5308 C   0  0  0  0  0  0  0  0  0  0  0  0
  -23.6946  -13.2400   22.4598 C   0  0  0  0  0  0  0  0  0  0  0  0
  -18.4309  -29.1993   22.3051 C   0  0  0  0  0  0  0  0  0  0  0  0
  -24.3062  -24.2548   23.6867 C   0  0  0  0  0  0  0  0  0  0  0  0
  -18.9600  -28.0117   22.8454 C   0  0  0  0  0  0  0  0  0  0  0  0
  -24.7357  -23.9702   22.3826 C   0  0  0  0  0  0  0  0  0  0  0  0
  -29.8823  -15.0601   23.1560 C   0  0  0  0  0  0  0  0  0  0  0  0
  -22.9523   -8.2502   21.1848 C   0  0  0  0  0  0  0  0  0  0  0  0
  -25.0617  -21.6444   23.0107 C   0  0  0  0  0  0  0  0  0  0  0  0
  -22.0659   -6.2929   22.1365 C   0  0  0  0  0  0  0  0  0  0  0  0
  -21.1626   -4.9209   24.3913 C   0  0  0  0  0  0  0  0  0  0  0  0
  -20.9874   -6.7888   22.8690 C   0  0  0  0  0  0  0  0  0  0  0  0
  -24.3126  -12.2216   21.7097 C   0  0  0  0  0  0  0  0  0  0  0  0
  -29.9188  -14.8417   24.5188 C   0  0  0  0  0  0  0  0  0  0  0  0
  -24.5233  -14.3255   22.3132 C   0  0  0  0  0  0  0  0  0  0  0  0
  -28.4068  -16.6796   23.9746 C   0  0  0  0  0  0  0  0  0  0  0  0
  -31.6577  -13.4733   22.8050 C   0  0  0  0  0  0  0  0  0  0  0  0
  -32.3299  -12.5600   22.0803 C   0  0  0  0  0  0  0  0  0  0  0  0
  -22.4801  -13.2077   23.2211 C   0  0  0  0  0  0  0  0  0  0  0  0
  -22.1289  -26.1687   22.3828 C   0  0  0  0  0  0  0  0  0  0  0  0
  -24.7256  -27.5369   21.0016 C   0  0  0  0  0  0  0  0  0  0  0  0
  -26.9457  -18.5383   23.1118 C   0  0  0  0  0  0  0  0  0  0  0  0
  -27.9630  -27.2196   19.9694 C   0  0  0  0  0  0  0  0  0  0  0  0
  -30.4672  -14.4277   20.8642 C   0  0  0  0  0  0  0  0  0  0  0  0
  -18.6504  -29.5813   20.8627 C   0  0  0  0  0  0  0  0  0  0  0  0
  -23.9268  -25.6576   24.0747 C   0  0  0  0  0  0  0  0  0  0  0  0
  -24.8032  -25.0352   21.3198 C   0  0  0  0  0  0  0  0  0  0  0  0
  -30.7629  -13.8012   25.1606 C   0  0  0  0  0  0  0  0  0  0  0  0
  -32.0012  -13.6221   24.2819 C   0  0  0  0  0  0  0  0  0  0  0  0
  -19.8099  -28.8374   20.2052 C   0  0  0  0  0  0  0  0  0  0  0  0
  -27.6772  -16.2823   19.3006 C   0  0  0  0  0  0  0  0  0  0  0  0
  -19.7356  -27.3469   20.5212 C   0  0  0  0  0  0  0  0  0  0  0  0
  -26.4499  -15.4863   19.7403 C   0  0  0  0  0  0  0  0  0  0  0  0
  -28.9168  -15.3990   19.1956 C   0  0  0  0  0  0  0  0  0  0  0  0
  -27.9904  -13.8499   20.8954 C   0  0  0  0  0  0  0  0  0  0  0  0
  -19.8474  -27.0965   22.0299 C   0  0  1  0  0  0  0  0  0  0  0  0
  -23.5028  -26.5127   22.8846 C   0  0  1  0  0  0  0  0  0  0  0  0
  -26.7363  -14.7240   21.0446 C   0  0  2  0  0  0  0  0  0  0  0  0
  -29.8050  -28.4969   18.8413 C   0  0  0  0  0  0  0  0  0  0  0  0
  -23.3416  -27.1506   18.3099 C   0  0  0  0  0  0  0  0  0  0  0  0
  -25.5498  -27.5423   17.1970 C   0  0  0  0  0  0  0  0  0  0  0  0
  -24.5129  -29.3443   18.5755 C   0  0  0  0  0  0  0  0  0  0  0  0
  -29.7283  -26.9891   22.3336 C   0  0  0  0  0  0  0  0  0  0  0  0
  -25.9916  -19.5648   23.6937 C   0  0  0  0  0  0  0  0  0  1  0  0
  -25.4964  -27.3172   19.7224 C   0  0  1  0  0  0  0  0  0  0  0  0
  -29.1762  -28.1096   20.1707 C   0  0  2  0  0  0  0  0  0  0  0  0
  -24.7222  -27.8179   18.4705 C   0  0  0  0  0  0  0  0  0  0  0  0
  -25.4463  -12.6241   21.1294 N   0  0  0  0  0  0  0  0  0  0  0  0
  -25.5472  -13.9076   21.5149 N   0  0  0  0  0  0  0  0  0  0  0  0
  -30.6415  -14.2759   22.2520 N   0  0  0  0  0  0  0  0  0  0  0  0
  -24.4161  -26.3901   21.7465 N   0  0  0  0  0  0  0  0  0  0  0  0
  -29.1431  -14.6339   20.4226 N   0  0  0  0  0  0  0  0  0  0  0  0
  -24.4687  -15.5871   22.7904 N   0  0  0  0  0  0  0  0  0  0  0  0
  -21.7511  -12.0115   23.2657 N   0  0  0  0  0  0  0  0  0  0  0  0
  -27.5145  -17.7061   24.1127 N   0  0  0  0  0  0  0  0  0  0  0  0
  -21.2244  -27.2104   22.4605 N   0  0  0  0  0  0  0  0  0  0  0  0
  -26.7959  -27.9518   19.9147 N   0  0  0  0  0  0  0  0  0  0  0  0
  -30.2040  -27.4068   20.9897 N   0  3  0  0  0  0  0  0  0  0  0  0
  -22.0455  -14.2145   23.8301 O   0  0  0  0  0  0  0  0  0  0  0  0
  -21.9064  -25.0419   21.9555 O   0  0  0  0  0  0  0  0  0  0  0  0
  -24.4159  -28.6844   21.3315 O   0  0  0  0  0  0  0  0  0  0  0  0
  -27.1661  -18.4764   21.9068 O   0  0  0  0  0  0  0  0  0  0  0  0
  -28.0430  -25.9975   19.8670 O   0  0  0  0  0  0  0  0  0  0  0  0
  -31.4223  -14.3577   20.0811 O   0  0  0  0  0  0  0  0  0  0  0  0
  -22.5149   -6.9723   21.0164 O   0  0  0  0  0  0  0  0  0  0  0  0
  -25.4290  -20.3629   22.6740 O   0  0  0  0  0  0  0  0  0  1  0  0
  -20.7281   -4.2613   25.4731 F   0  0  0  0  0  0  0  0  0  0  0  0
  -20.3804   -7.9231   22.4939 F   0  0  0  0  0  0  0  0  0  0  0  0
  -28.8985  -15.8736   25.4002 S   0  0  0  0  0  0  0  0  0  0  0  0
  1  2  1  0  0  0  0
  1  5  2  0  0  0  0
  2  6  2  0  0  0  0
  3  8  2  0  0  0  0
  3 16  1  0  0  0  0
  4  9  1  0  0  0  0
  4 16  2  0  0  0  0
  5 18  1  0  0  0  0
  6 20  1  0  0  0  0
  7 10  2  0  0  0  0
  7 19  1  0  0  0  0
  8 23  1  0  0  0  0
  9 23  2  0  0  0  0
 10 24  1  0  0  0  0
 11 12  2  0  0  0  0
 11 25  1  0  0  0  0
 12 26  1  0  0  0  0
 13 21  1  0  0  0  0
 13 24  2  0  0  0  0
 14 22  1  0  0  0  0
 14 31  2  0  0  0  0
 15 26  2  0  0  0  0
 15 27  1  0  0  0  0
 16 28  1  0  0  0  0
 17 28  1  0  0  0  0
 17 30  2  0  0  0  0
 17 34  1  0  0  0  0
 18 20  2  0  0  0  0
 18 40  1  0  0  0  0
 19 21  2  0  0  0  0
 19 41  1  0  0  0  0
 20 51  1  0  0  0  0
 21 42  1  0  0  0  0
 22 29  2  0  0  0  0
 22 65  1  0  0  0  0
 23 80  1  0  0  0  0
 24 81  1  0  0  0  0
 25 27  2  0  0  0  0
 25 80  1  0  0  0  0
 26 82  1  0  0  0  0
 27 83  1  0  0  0  0
 28 63  2  0  0  0  0
 29 43  1  0  0  0  0
 29 84  1  0  0  0  0
 30 64  1  0  0  0  0
 30 68  1  0  0  0  0
 31 70  1  0  0  0  0
 31 84  1  0  0  0  0
 32 33  2  0  0  0  0
 32 44  1  0  0  0  0
 32 65  1  0  0  0  0
 34 69  1  0  0  0  0
 34 74  2  0  0  0  0
 35 52  1  0  0  0  0
 35 71  1  0  0  0  0
 35 75  2  0  0  0  0
 36 60  1  0  0  0  0
 36 66  1  0  0  0  0
 36 76  2  0  0  0  0
 37 59  1  0  0  0  0
 37 70  1  0  0  0  0
 37 77  2  0  0  0  0
 38 61  1  0  0  0  0
 38 72  1  0  0  0  0
 38 78  2  0  0  0  0
 39 65  1  0  0  0  0
 39 67  1  0  0  0  0
 39 79  2  0  0  0  0
 40 45  1  0  0  0  0
 41 52  1  0  0  0  0
 42 66  1  0  0  0  0
 43 44  1  0  0  0  0
 45 47  1  0  0  0  0
 46 48  1  0  0  0  0
 46 49  1  0  0  0  0
 47 51  1  0  0  0  0
 48 53  1  0  0  0  0
 49 67  1  0  0  0  0
 50 53  1  0  0  0  0
 50 67  1  0  0  0  0
 51 71  1  0  0  0  0
 52 66  1  0  0  0  0
 53 64  1  0  0  0  0
 54 61  1  0  0  0  0
 55 62  1  0  0  0  0
 56 62  1  0  0  0  0
 57 62  1  0  0  0  0
 58 73  1  0  0  0  0
 59 81  1  0  0  0  0
 60 62  1  0  0  0  0
 60 72  1  0  0  0  0
 61 73  1  0  0  0  0
 63 64  1  0  0  0  0
M  CHG  1  73   1
M  ISO  4  39 100  59 101  65 100  81 101
M  END
> <Batch ID>
0087

> <Smiles>
C=C1CCc2sc(NC(=O)[101CH2:1][101O:1]c3ccc4c(c3)CN(C(=O)C(NC(=O)C(C)NC)C(C)(C)C)C(C(=O)NC3CCCc5ccccc53)C4)cc2[100N:0]1[100C:0](=O)N1CCCC(n2nc(-c3ccc(Oc4ccc(F)cc4F)cc3)c(C(N)=O)c2N)C1

> <Shape>
0.242

> <Color>
0.089

> <Negative vol penalty>
0.000

$$$$

  -OEChem-04052300203D

 80 88  0     1  0  0  0  0  0999 V2000
  -21.1909  -33.6535   15.4747 C   0  0  0  0  0  0  0  0  0  0  0  0
  -21.9911  -32.5188   15.5623 C   0  0  0  0  0  0  0  0  0  0  0  0
  -23.8264  -10.1516   22.1487 C   0  0  0  0  0  0  0  0  0  0  0  0
  -24.3879   -9.1857   20.0065 C   0  0  0  0  0  0  0  0  0  0  0  0
  -21.3320  -34.6784   16.4094 C   0  0  0  0  0  0  0  0  0  0  0  0
  -22.9335  -32.4088   16.5842 C   0  0  0  0  0  0  0  0  0  0  0  0
  -24.6319  -27.2930   19.4909 C   0  0  0  0  0  0  0  0  0  0  0  0
  -22.8005   -9.2189   22.3004 C   0  0  0  0  0  0  0  0  0  0  0  0
  -23.3620   -8.2529   20.1582 C   0  0  0  0  0  0  0  0  0  0  0  0
  -25.7236  -26.4410   19.3298 C   0  0  0  0  0  0  0  0  0  0  0  0
  -22.4994   -5.9684   23.1817 C   0  0  0  0  0  0  0  0  0  0  0  0
  -22.3768   -5.3351   24.4184 C   0  0  0  0  0  0  0  0  0  0  0  0
  -28.1529  -22.0812   20.2181 C   0  0  0  0  0  0  0  0  0  0  0  0
  -26.8883  -27.6104   21.0891 C   0  0  0  0  0  0  0  0  0  0  0  0
  -20.1441   -6.2276   24.6541 C   0  0  0  0  0  0  0  0  0  0  0  0
  -29.3088  -23.5531   18.7505 C   0  0  0  0  0  0  0  0  0  0  0  0
  -24.6201  -10.1351   21.0017 C   0  0  0  0  0  0  0  0  0  0  0  0
  -28.9259  -21.0345   19.7280 C   0  0  0  0  0  0  0  0  0  0  0  0
  -27.0192  -10.9642   21.2557 C   0  0  0  0  0  0  0  0  0  0  0  0
  -22.2700  -34.5767   17.4489 C   0  0  0  0  0  0  0  0  0  0  0  0
  -24.6645  -28.3187   20.4466 C   0  0  0  0  0  0  0  0  0  0  0  0
  -23.0882  -33.4339   17.5328 C   0  0  0  0  0  0  0  0  0  0  0  0
  -25.7946  -28.4725   21.2622 C   0  0  0  0  0  0  0  0  0  0  0  0
  -28.3418  -23.3675   19.7252 C   0  0  0  0  0  0  0  0  0  0  0  0
  -22.5683   -8.2695   21.3052 C   0  0  0  0  0  0  0  0  0  0  0  0
  -26.8532  -26.6015   20.1269 C   0  0  0  0  0  0  0  0  0  0  0  0
  -21.4444   -6.7315   22.6812 C   0  0  0  0  0  0  0  0  0  0  0  0
  -21.1991   -5.4646   25.1546 C   0  0  0  0  0  0  0  0  0  0  0  0
  -20.2668   -6.8610   23.4174 C   0  0  0  0  0  0  0  0  0  0  0  0
  -25.6797  -11.0987   20.8442 C   0  0  0  0  0  0  0  0  0  0  0  0
  -29.8667  -21.3244   18.7529 C   0  0  0  0  0  0  0  0  0  0  0  0
  -27.6142  -12.1434   20.8790 C   0  0  0  0  0  0  0  0  0  0  0  0
  -28.7171  -19.6930   20.2541 C   0  0  0  0  0  0  0  0  0  0  0  0
  -27.5669  -18.9923   20.1742 C   0  0  0  0  0  0  0  0  0  0  0  0
  -27.6677   -9.8710   21.9191 C   0  0  0  0  0  0  0  0  0  0  0  0
  -27.5153  -17.6333   20.7499 C   0  0  0  0  0  0  0  0  0  0  0  0
  -24.5066  -31.4916   20.3379 C   0  0  0  0  0  0  0  0  0  0  0  0
  -24.4490  -31.2104   23.5690 C   0  0  0  0  0  0  0  0  0  0  0  0
  -25.2103  -29.3541   26.3296 C   0  0  0  0  0  0  0  0  0  0  0  0
  -22.4189  -35.7312   18.4079 C   0  0  0  0  0  0  0  0  0  0  0  0
  -23.4681  -29.2125   20.6263 C   0  0  0  0  0  0  0  0  0  0  0  0
  -25.8717  -29.5453   22.3165 C   0  0  0  0  0  0  0  0  0  0  0  0
  -23.1815  -35.3715   19.6804 C   0  0  0  0  0  0  0  0  0  0  0  0
  -25.9626  -15.8845   17.9282 C   0  0  0  0  0  0  0  0  0  0  0  0
  -24.4456  -34.5877   19.3417 C   0  0  0  0  0  0  0  0  0  0  0  0
  -25.8198  -14.4758   18.4984 C   0  0  0  0  0  0  0  0  0  0  0  0
  -25.7827  -16.9568   19.0016 C   0  0  0  0  0  0  0  0  0  0  0  0
  -26.5398  -15.3704   20.7482 C   0  0  0  0  0  0  0  0  0  0  0  0
  -24.1047  -33.2668   18.6414 C   0  0  1  0  0  0  0  0  0  0  0  0
  -23.8125  -30.5478   21.2787 C   0  0  1  0  0  0  0  0  0  0  0  0
  -26.7637  -14.2745   19.6944 C   0  0  1  0  0  0  0  0  0  0  0  0
  -25.0757  -29.4032   28.8350 C   0  0  0  0  0  0  0  0  0  0  0  0
  -26.8002  -33.1532   23.6548 C   0  0  0  0  0  0  0  0  0  0  0  0
  -27.2189  -32.4332   26.0158 C   0  0  0  0  0  0  0  0  0  0  0  0
  -25.0646  -33.5375   25.4139 C   0  0  0  0  0  0  0  0  0  0  0  0
  -23.4874  -26.9488   26.4000 C   0  0  0  0  0  0  0  0  0  0  0  0
  -25.4946  -31.1639   24.6569 C   0  0  1  0  0  0  0  0  0  0  0  0
  -24.3871  -28.9765   27.5479 C   0  0  2  0  0  0  0  0  0  0  0  0
  -26.1442  -32.5529   24.9143 C   0  0  0  0  0  0  0  0  0  0  0  0
  -30.0789  -22.5612   18.2498 N   0  0  0  0  0  0  0  0  0  0  0  0
  -25.4376  -12.2710   20.2516 N   0  0  0  0  0  0  0  0  0  0  0  0
  -26.6330  -12.8839   20.2881 N   0  0  0  0  0  0  0  0  0  0  0  0
  -26.6539  -16.7098   20.1604 N   0  0  0  0  0  0  0  0  0  0  0  0
  -24.6789  -30.3980   22.4496 N   0  0  0  0  0  0  0  0  0  0  0  0
  -30.6628  -20.2673   18.2439 N   0  0  0  0  0  0  0  0  0  0  0  0
  -28.8757  -12.6089   20.9990 N   0  0  0  0  0  0  0  0  0  0  0  0
  -26.9090   -8.7353   22.2332 N   0  0  0  0  0  0  0  0  0  0  0  0
  -27.5776  -24.4420   20.1988 N   0  0  0  0  0  0  0  0  0  1  0  0
  -23.6478  -32.2876   19.6042 N   0  0  0  0  0  0  0  0  0  0  0  0
  -24.8422  -30.5836   25.8256 N   0  0  0  0  0  0  0  0  0  0  0  0
  -24.1768  -27.5018   27.5941 N   0  3  0  0  0  0  0  0  0  0  0  0
  -28.8801   -9.9072   22.2390 O   0  0  0  0  0  0  0  0  0  0  0  0
  -28.2358  -17.4000   21.7221 O   0  0  0  0  0  0  0  0  0  0  0  0
  -25.7308  -31.4982   20.2828 O   0  0  0  0  0  0  0  0  0  0  0  0
  -23.4610  -31.9353   23.7104 O   0  0  0  0  0  0  0  0  0  0  0  0
  -26.0942  -28.6324   25.8732 O   0  0  0  0  0  0  0  0  0  0  0  0
  -21.5674   -7.3590   21.4529 O   0  0  0  0  0  0  0  0  0  0  0  0
  -27.9204  -25.7716   19.9713 O   0  0  0  0  0  0  0  0  0  1  0  0
  -21.0809   -4.8551   26.3415 F   0  0  0  0  0  0  0  0  0  0  0  0
  -19.2494   -7.5918   22.9412 F   0  0  0  0  0  0  0  0  0  0  0  0
  1  2  1  0  0  0  0
  1  5  2  0  0  0  0
  2  6  2  0  0  0  0
  3  8  2  0  0  0  0
  3 17  1  0  0  0  0
  4  9  1  0  0  0  0
  4 17  2  0  0  0  0
  5 20  1  0  0  0  0
  6 22  1  0  0  0  0
  7 10  2  0  0  0  0
  7 21  1  0  0  0  0
  8 25  1  0  0  0  0
  9 25  2  0  0  0  0
 10 26  1  0  0  0  0
 11 12  2  0  0  0  0
 11 27  1  0  0  0  0
 12 28  1  0  0  0  0
 13 18  1  0  0  0  0
 13 24  2  0  0  0  0
 14 23  1  0  0  0  0
 14 26  2  0  0  0  0
 15 28  2  0  0  0  0
 15 29  1  0  0  0  0
 16 24  1  0  0  0  0
 16 60  2  0  0  0  0
 17 30  1  0  0  0  0
 18 31  2  0  0  0  0
 18 33  1  0  0  0  0
 19 30  1  0  0  0  0
 19 32  2  0  0  0  0
 19 35  1  0  0  0  0
 20 22  2  0  0  0  0
 20 40  1  0  0  0  0
 21 23  2  0  0  0  0
 21 41  1  0  0  0  0
 22 49  1  0  0  0  0
 23 42  1  0  0  0  0
 24 68  1  0  0  0  0
 25 77  1  0  0  0  0
 26 78  1  0  0  0  0
 27 29  2  0  0  0  0
 27 77  1  0  0  0  0
 28 79  1  0  0  0  0
 29 80  1  0  0  0  0
 30 61  2  0  0  0  0
 31 60  1  0  0  0  0
 31 65  1  0  0  0  0
 32 62  1  0  0  0  0
 32 66  1  0  0  0  0
 33 34  2  0  0  0  0
 34 36  1  0  0  0  0
 35 67  1  0  0  0  0
 35 72  2  0  0  0  0
 36 63  1  0  0  0  0
 36 73  2  0  0  0  0
 37 50  1  0  0  0  0
 37 69  1  0  0  0  0
 37 74  2  0  0  0  0
 38 57  1  0  0  0  0
 38 64  1  0  0  0  0
 38 75  2  0  0  0  0
 39 58  1  0  0  0  0
 39 70  1  0  0  0  0
 39 76  2  0  0  0  0
 40 43  1  0  0  0  0
 41 50  1  0  0  0  0
 42 64  1  0  0  0  0
 43 45  1  0  0  0  0
 44 46  1  0  0  0  0
 44 47  1  0  0  0  0
 45 49  1  0  0  0  0
 46 51  1  0  0  0  0
 47 63  1  0  0  0  0
 48 51  1  0  0  0  0
 48 63  1  0  0  0  0
 49 69  1  0  0  0  0
 50 64  1  0  0  0  0
 51 62  1  0  0  0  0
 52 58  1  0  0  0  0
 53 59  1  0  0  0  0
 54 59  1  0  0  0  0
 55 59  1  0  0  0  0
 56 71  1  0  0  0  0
 57 59  1  0  0  0  0
 57 70  1  0  0  0  0
 58 71  1  0  0  0  0
 61 62  1  0  0  0  0
 68 78  1  0  0  0  0
M  CHG  1  71   1
M  ISO  4  34 100  36 100  68 101  78 101
M  END
> <Batch ID>
0087

> <Smiles>
CNC(C)C(=O)NC(C(=O)N1Cc2cc([101O:1][101NH:1]c3cnc(N)c(C=[100CH:0][100C:0](=O)N4CCCC(n5nc(-c6ccc(Oc7ccc(F)cc7F)cc6)c(C(N)=O)c5N)C4)c3)ccc2CC1C(=O)NC1CCCc2ccccc21)C(C)(C)C

> <Shape>
0.279

> <Color>
0.095

> <Negative vol penalty>
0.000

$$$$

  -OEChem-04052300203D

 86 95  0     1  0  0  0  0  0999 V2000
  -16.5564  -30.1962   22.8353 C   0  0  0  0  0  0  0  0  0  0  0  0
  -17.4854  -30.6282   21.8941 C   0  0  0  0  0  0  0  0  0  0  0  0
  -26.6237  -12.2296   21.5656 C   0  0  0  0  0  0  0  0  0  0  0  0
  -25.6829  -13.8096   19.9986 C   0  0  0  0  0  0  0  0  0  0  0  0
  -16.9056  -30.1422   24.1840 C   0  0  0  0  0  0  0  0  0  0  0  0
  -18.7639  -31.0075   22.3013 C   0  0  0  0  0  0  0  0  0  0  0  0
  -24.6151  -27.7030   19.7060 C   0  0  0  0  0  0  0  0  0  0  0  0
  -25.4013  -11.5606   21.6251 C   0  0  0  0  0  0  0  0  0  0  0  0
  -24.4604  -13.1406   20.0580 C   0  0  0  0  0  0  0  0  0  0  0  0
  -25.7905  -27.2621   19.0976 C   0  0  0  0  0  0  0  0  0  0  0  0
  -23.6786   -9.3471   19.7368 C   0  0  0  0  0  0  0  0  0  0  0  0
  -23.6977   -7.9543   19.6650 C   0  0  0  0  0  0  0  0  0  0  0  0
  -27.0942  -28.6595   20.5793 C   0  0  0  0  0  0  0  0  0  0  0  0
  -29.4506  -22.4428   17.9240 C   0  0  0  0  0  0  0  0  0  0  0  0
  -22.6506   -7.8280   21.8387 C   0  0  0  0  0  0  0  0  0  0  0  0
  -26.7646  -13.3542   20.7524 C   0  0  0  0  0  0  0  0  0  0  0  0
  -29.2661  -13.5190   20.2803 C   0  0  0  0  0  0  0  0  0  0  0  0
  -18.1922  -30.5118   24.6067 C   0  0  0  0  0  0  0  0  0  0  0  0
  -24.6758  -28.6132   20.7649 C   0  0  0  0  0  0  0  0  0  0  0  0
  -19.1303  -30.9596   23.6571 C   0  0  0  0  0  0  0  0  0  0  0  0
  -25.9209  -29.0951   21.2009 C   0  0  0  0  0  0  0  0  0  0  0  0
  -29.0213  -21.0849   17.8784 C   0  0  0  0  0  0  0  0  0  0  0  0
  -24.3196  -12.0161   20.8713 C   0  0  0  0  0  0  0  0  0  0  0  0
  -27.0270  -27.7394   19.5330 C   0  0  0  0  0  0  0  0  0  0  0  0
  -23.1456   -9.9804   20.8595 C   0  0  0  0  0  0  0  0  0  0  0  0
  -23.1837   -7.1947   20.7160 C   0  0  0  0  0  0  0  0  0  0  0  0
  -22.6316   -9.2208   21.9104 C   0  0  0  0  0  0  0  0  0  0  0  0
  -28.0270  -14.0460   20.6910 C   0  0  0  0  0  0  0  0  0  0  0  0
  -28.5932  -20.7194   16.6212 C   0  0  0  0  0  0  0  0  0  0  0  0
  -30.1433  -14.5687   20.4028 C   0  0  0  0  0  0  0  0  0  0  0  0
  -29.3345  -23.0634   16.6996 C   0  0  0  0  0  0  0  0  0  0  0  0
  -29.0291  -26.7178   16.7933 C   0  0  0  0  0  0  0  0  0  0  0  0
  -30.0543  -24.6990   14.9719 C   0  0  0  0  0  0  0  0  0  0  0  0
  -28.2562  -18.9805   14.9247 C   0  0  0  0  0  0  0  0  0  0  0  0
  -28.0971  -19.4754   16.1699 C   0  0  0  0  0  0  0  0  0  0  0  0
  -28.3258  -27.5280   17.5988 C   0  0  0  0  0  0  0  0  0  1  0  0
  -29.5948  -12.1986   19.8285 C   0  0  0  0  0  0  0  0  0  0  0  0
  -22.7939  -30.6257   23.3113 C   0  0  0  0  0  0  0  0  0  0  0  0
  -25.2928  -29.5286   24.7122 C   0  0  0  0  0  0  0  0  0  0  0  0
  -27.9309  -27.7854   25.9923 C   0  0  0  0  0  0  0  0  0  0  0  0
  -29.4493  -20.5026   20.2918 C   0  0  0  0  0  0  0  0  0  0  0  0
  -18.5085  -30.4816   26.0811 C   0  0  0  0  0  0  0  0  0  0  0  0
  -23.4319  -29.1623   21.4092 C   0  0  0  0  0  0  0  0  0  0  0  0
  -25.9359  -30.0998   22.3205 C   0  0  0  0  0  0  0  0  0  0  0  0
  -29.1704  -27.0102   15.3263 C   0  0  0  0  0  0  0  0  0  0  0  0
  -29.7056  -25.4727   17.3075 C   0  0  0  0  0  0  0  0  0  0  0  0
  -30.2899  -26.1779   14.7193 C   0  0  0  0  0  0  0  0  0  0  0  0
  -20.0031  -30.5444   26.3849 C   0  0  0  0  0  0  0  0  0  0  0  0
  -30.8618  -18.5729   22.9296 C   0  0  0  0  0  0  0  0  0  0  0  0
  -20.6704  -31.6387   25.5578 C   0  0  0  0  0  0  0  0  0  0  0  0
  -30.4130  -17.1442   22.6141 C   0  0  0  0  0  0  0  0  0  0  0  0
  -29.7825  -19.5964   22.5815 C   0  0  0  0  0  0  0  0  0  0  0  0
  -28.8174  -18.0832   20.8939 C   0  0  0  0  0  0  0  0  0  0  0  0
  -20.5351  -31.3558   24.0568 C   0  0  1  0  0  0  0  0  0  0  0  0
  -23.5976  -29.4214   22.9174 C   0  0  1  0  0  0  0  0  0  0  0  0
  -29.8961  -17.0224   21.1672 C   0  0  2  0  0  0  0  0  0  0  0  0
  -29.1989  -27.4166   28.1262 C   0  0  0  0  0  0  0  0  0  0  0  0
  -26.6482  -32.2397   24.3709 C   0  0  0  0  0  0  0  0  0  0  0  0
  -28.4836  -31.4313   25.8696 C   0  0  0  0  0  0  0  0  0  0  0  0
  -26.1529  -31.6116   26.7404 C   0  0  0  0  0  0  0  0  0  0  0  0
  -27.2816  -24.8980   26.0152 C   0  0  0  0  0  0  0  0  0  0  0  0
  -26.7276  -29.7671   25.1096 C   0  0  1  0  0  0  0  0  0  0  0  0
  -28.0634  -26.9300   27.2394 C   0  0  2  0  0  0  0  0  0  0  0  0
  -26.9963  -31.2481   25.4990 C   0  0  0  0  0  0  0  0  0  0  0  0
  -28.1059  -15.3307   21.0478 N   0  0  0  0  0  0  0  0  0  0  0  0
  -29.4051  -15.6197   20.8618 N   0  0  0  0  0  0  0  0  0  0  0  0
  -29.6475  -24.4081   16.2916 N   0  0  0  0  0  0  0  0  0  0  0  0
  -24.9727  -29.7069   23.3609 N   0  0  0  0  0  0  0  0  0  0  0  0
  -29.3444  -19.4235   21.1947 N   0  0  0  0  0  0  0  0  0  0  0  0
  -31.4663  -14.6861   20.1616 N   0  0  0  0  0  0  0  0  0  0  0  0
  -28.5732  -11.2413   19.7627 N   0  0  0  0  0  0  0  0  0  0  0  0
  -29.0327  -20.2105   18.9934 N   0  0  0  0  0  0  0  0  0  0  0  0
  -21.4834  -30.3427   23.6459 N   0  0  0  0  0  0  0  0  0  0  0  0
  -27.0227  -28.8078   26.1684 N   0  0  0  0  0  0  0  0  0  0  0  0
  -28.3314  -25.5117   26.8686 N   0  3  0  0  0  0  0  0  0  0  0  0
  -30.2795  -23.8858   14.0760 O   0  0  0  0  0  0  0  0  0  0  0  0
  -30.7631  -11.8726   19.5085 O   0  0  0  0  0  0  0  0  0  0  0  0
  -23.3232  -31.7309   23.3135 O   0  0  0  0  0  0  0  0  0  0  0  0
  -24.4747  -29.1987   25.5755 O   0  0  0  0  0  0  0  0  0  0  0  0
  -28.5719  -27.5704   24.9659 O   0  0  0  0  0  0  0  0  0  0  0  0
  -29.9026  -21.5966   20.6377 O   0  0  0  0  0  0  0  0  0  0  0  0
  -23.1266  -11.3634   20.9289 O   0  0  0  0  0  0  0  0  0  0  0  0
  -28.1708  -27.3014   18.9376 O   0  0  0  0  0  0  0  0  0  1  0  0
  -23.2007   -5.8571   20.6463 F   0  0  0  0  0  0  0  0  0  0  0  0
  -22.1171   -9.8236   22.9911 F   0  0  0  0  0  0  0  0  0  0  0  0
  -28.7098  -22.0105   15.5023 S   0  0  0  0  0  0  0  0  0  0  0  0
  1  2  1  0  0  0  0
  1  5  2  0  0  0  0
  2  6  2  0  0  0  0
  3  8  2  0  0  0  0
  3 16  1  0  0  0  0
  4  9  1  0  0  0  0
  4 16  2  0  0  0  0
  5 18  1  0  0  0  0
  6 20  1  0  0  0  0
  7 10  2  0  0  0  0
  7 19  1  0  0  0  0
  8 23  1  0  0  0  0
  9 23  2  0  0  0  0
 10 24  1  0  0  0  0
 11 12  2  0  0  0  0
 11 25  1  0  0  0  0
 12 26  1  0  0  0  0
 13 21  1  0  0  0  0
 13 24  2  0  0  0  0
 14 22  1  0  0  0  0
 14 31  2  0  0  0  0
 15 26  2  0  0  0  0
 15 27  1  0  0  0  0
 16 28  1  0  0  0  0
 17 28  1  0  0  0  0
 17 30  2  0  0  0  0
 17 37  1  0  0  0  0
 18 20  2  0  0  0  0
 18 42  1  0  0  0  0
 19 21  2  0  0  0  0
 19 43  1  0  0  0  0
 20 54  1  0  0  0  0
 21 44  1  0  0  0  0
 22 29  2  0  0  0  0
 22 72  1  0  0  0  0
 23 82  1  0  0  0  0
 24 83  1  0  0  0  0
 25 27  2  0  0  0  0
 25 82  1  0  0  0  0
 26 84  1  0  0  0  0
 27 85  1  0  0  0  0
 28 65  2  0  0  0  0
 29 35  1  0  0  0  0
 29 86  1  0  0  0  0
 30 66  1  0  0  0  0
 30 70  1  0  0  0  0
 31 67  1  0  0  0  0
 31 86  1  0  0  0  0
 32 36  2  0  0  0  0
 32 45  1  0  0  0  0
 32 46  1  0  0  0  0
 33 47  1  0  0  0  0
 33 67  1  0  0  0  0
 33 76  2  0  0  0  0
 34 35  2  0  0  0  0
 36 83  1  0  0  0  0
 37 71  1  0  0  0  0
 37 77  2  0  0  0  0
 38 55  1  0  0  0  0
 38 73  1  0  0  0  0
 38 78  2  0  0  0  0
 39 62  1  0  0  0  0
 39 68  1  0  0  0  0
 39 79  2  0  0  0  0
 40 63  1  0  0  0  0
 40 74  1  0  0  0  0
 40 80  2  0  0  0  0
 41 69  1  0  0  0  0
 41 72  1  0  0  0  0
 41 81  2  0  0  0  0
 42 48  1  0  0  0  0
 43 55  1  0  0  0  0
 44 68  1  0  0  0  0
 45 47  1  0  0  0  0
 46 67  1  0  0  0  0
 48 50  1  0  0  0  0
 49 51  1  0  0  0  0
 49 52  1  0  0  0  0
 50 54  1  0  0  0  0
 51 56  1  0  0  0  0
 52 69  1  0  0  0  0
 53 56  1  0  0  0  0
 53 69  1  0  0  0  0
 54 73  1  0  0  0  0
 55 68  1  0  0  0  0
 56 66  1  0  0  0  0
 57 63  1  0  0  0  0
 58 64  1  0  0  0  0
 59 64  1  0  0  0  0
 60 64  1  0  0  0  0
 61 75  1  0  0  0  0
 62 64  1  0  0  0  0
 62 74  1  0  0  0  0
 63 75  1  0  0  0  0
 65 66  1  0  0  0  0
M  CHG  1  75   1
M  ISO  4  36 101  41 100  72 100  83 101
M  END
> <Batch ID>
0087

> <Smiles>
C=Cc1sc(N2CC(=[101CH:1][101O:1]c3ccc4c(c3)CN(C(=O)C(NC(=O)C(C)NC)C(C)(C)C)C(C(=O)NC3CCCc5ccccc53)C4)CCC2=O)cc1[100NH:0][100C:0](=O)N1CCCC(n2nc(-c3ccc(Oc4ccc(F)cc4F)cc3)c(C(N)=O)c2N)C1

> <Shape>
0.310

> <Color>
0.109

> <Negative vol penalty>
0.000

$$$$

  -OEChem-04052300203D

 86 94  0     1  0  0  0  0  0999 V2000
  -27.7605  -38.0333   23.7995 C   0  0  0  0  0  0  0  0  0  0  0  0
  -28.4543  -36.8280   23.7666 C   0  0  0  0  0  0  0  0  0  0  0  0
  -26.3691  -14.6390   21.7682 C   0  0  0  0  0  0  0  0  0  0  0  0
  -27.2952  -12.6001   22.6750 C   0  0  0  0  0  0  0  0  0  0  0  0
  -31.5077  -20.3050   19.3054 C   0  0  0  0  0  0  0  0  0  0  0  0
  -26.4295  -38.0591   24.2141 C   0  0  0  0  0  0  0  0  0  0  0  0
  -27.8179  -35.6478   24.1493 C   0  0  0  0  0  0  0  0  0  0  0  0
  -27.2521  -30.0948   19.5957 C   0  0  0  0  0  0  0  0  0  0  0  0
  -30.6898  -21.3957   19.0109 C   0  0  0  0  0  0  0  0  0  0  0  0
  -25.5619  -13.8912   20.9111 C   0  0  0  0  0  0  0  0  0  0  0  0
  -26.4879  -11.8522   21.8179 C   0  0  0  0  0  0  0  0  0  0  0  0
  -27.2887  -28.9131   18.8551 C   0  0  0  0  0  0  0  0  0  0  0  0
  -23.2628  -10.8527   21.6768 C   0  0  0  0  0  0  0  0  0  0  0  0
  -22.5938   -9.7531   22.2142 C   0  0  0  0  0  0  0  0  0  0  0  0
  -29.5552  -18.9827   19.8313 C   0  0  0  0  0  0  0  0  0  0  0  0
  -26.0150  -27.7844   20.5732 C   0  0  0  0  0  0  0  0  0  0  0  0
  -23.7383   -8.2981   20.6618 C   0  0  0  0  0  0  0  0  0  0  0  0
  -27.2359  -13.9935   22.6501 C   0  0  0  0  0  0  0  0  0  0  0  0
  -30.9405  -19.0984   19.7156 C   0  0  0  0  0  0  0  0  0  0  0  0
  -27.7553  -15.2008   24.8365 C   0  0  0  0  0  0  0  0  0  0  0  0
  -25.7736  -36.8773   24.5929 C   0  0  0  0  0  0  0  0  0  0  0  0
  -26.5828  -30.1298   20.8222 C   0  0  0  0  0  0  0  0  0  0  0  0
  -26.4773  -35.6580   24.5707 C   0  0  0  0  0  0  0  0  0  0  0  0
  -25.9643  -28.9684   21.3136 C   0  0  0  0  0  0  0  0  0  0  0  0
  -29.3045  -21.2800   19.1266 C   0  0  0  0  0  0  0  0  0  0  0  0
  -28.7372  -20.0735   19.5368 C   0  0  0  0  0  0  0  0  0  0  0  0
  -25.6212  -12.4978   20.9359 C   0  0  0  0  0  0  0  0  0  0  0  0
  -26.6719  -27.7607   19.3428 C   0  0  0  0  0  0  0  0  0  0  0  0
  -24.1695  -10.6751   20.6318 C   0  0  0  0  0  0  0  0  0  0  0  0
  -22.8315   -8.4758   21.7068 C   0  0  0  0  0  0  0  0  0  0  0  0
  -24.4073   -9.3978   20.1243 C   0  0  0  0  0  0  0  0  0  0  0  0
  -28.0704  -14.7655   23.5353 C   0  0  0  0  0  0  0  0  0  0  0  0
  -28.8704  -15.8892   25.2477 C   0  0  0  0  0  0  0  0  0  0  0  0
  -27.7506  -25.7526   18.8169 C   0  0  0  0  0  0  0  0  0  1  0  0
  -31.8054  -17.9462   20.0270 C   0  0  0  0  0  0  0  0  0  0  0  0
  -26.5614  -15.0007   25.6047 C   0  0  0  0  0  0  0  0  0  0  0  0
  -27.8936  -24.5946   18.1600 C   0  0  0  0  0  0  0  0  0  0  0  0
  -25.5437  -32.1678   23.7959 C   0  0  0  0  0  0  0  0  0  0  0  0
  -23.1618  -30.3778   23.0662 C   0  0  0  0  0  0  0  0  0  0  0  0
  -20.6348  -28.5519   21.6815 C   0  0  0  0  0  0  0  0  0  0  0  0
  -31.7304  -15.5612   20.5911 C   0  0  0  0  0  0  0  0  0  0  0  0
  -24.3483  -36.9618   25.0790 C   0  0  0  0  0  0  0  0  0  0  0  0
  -26.5705  -31.3642   21.6824 C   0  0  0  0  0  0  0  0  0  0  0  0
  -25.2857  -29.0437   22.6540 C   0  0  0  0  0  0  0  0  0  0  0  0
  -23.6346  -35.6128   25.1109 C   0  0  0  0  0  0  0  0  0  0  0  0
  -32.7234  -14.4440   23.8290 C   0  0  0  0  0  0  0  0  0  0  0  0
  -24.5228  -34.5541   25.7568 C   0  0  0  0  0  0  0  0  0  0  0  0
  -32.2019  -15.5130   24.7851 C   0  0  0  0  0  0  0  0  0  0  0  0
  -33.2007  -15.0652   22.5238 C   0  0  0  0  0  0  0  0  0  0  0  0
  -31.5721  -16.9255   22.7458 C   0  0  0  0  0  0  0  0  0  0  0  0
  -25.8141  -34.3530   24.9546 C   0  0  1  0  0  0  0  0  0  0  0  0
  -25.2556  -31.5431   22.4624 C   0  0  1  0  0  0  0  0  0  0  0  0
  -31.1474  -16.4327   24.1461 C   0  0  1  0  0  0  0  0  0  0  0  0
  -18.2155  -27.9713   22.0094 C   0  0  0  0  0  0  0  0  0  0  0  0
  -23.9283  -28.4745   25.3232 C   0  0  0  0  0  0  0  0  0  0  0  0
  -21.7582  -27.2806   24.9580 C   0  0  0  0  0  0  0  0  0  0  0  0
  -21.7600  -29.6741   25.6608 C   0  0  0  0  0  0  0  0  0  0  0  0
  -30.6090  -16.3231   18.5588 C   0  0  0  0  0  0  0  0  0  0  0  0
  -19.8770  -29.7400   19.0789 C   0  0  0  0  0  0  0  0  0  0  0  0
  -29.0313  -23.6525   18.4038 C   0  0  0  0  0  0  0  0  0  0  0  0
  -22.4401  -29.0749   23.3006 C   0  0  1  0  0  0  0  0  0  0  0  0
  -19.2014  -28.9144   21.3374 C   0  0  2  0  0  0  0  0  0  0  0  0
  -22.4902  -28.6291   24.7893 C   0  0  0  0  0  0  0  0  0  0  0  0
  -29.2901  -15.1456   23.1457 N   0  0  0  0  0  0  0  0  0  0  0  0
  -29.7512  -15.8271   24.2083 N   0  0  0  0  0  0  0  0  0  0  0  0
  -24.5265  -30.2992   22.7629 N   0  0  0  0  0  0  0  0  0  0  0  0
  -32.1516  -15.8703   21.8999 N   0  0  0  0  0  0  0  0  0  0  0  0
  -27.3366  -19.9353   19.6616 N   0  0  0  0  0  0  0  0  0  0  0  0
  -29.1736  -16.5356   26.3934 N   0  0  0  0  0  0  0  0  0  0  0  0
  -25.5122  -14.2698   25.0308 N   0  0  0  0  0  0  0  0  0  0  0  0
  -28.5100  -22.3771   18.8308 N   0  0  0  0  0  0  0  0  0  0  0  0
  -25.5584  -33.5495   23.7784 N   0  0  0  0  0  0  0  0  0  0  0  0
  -21.0908  -29.2555   22.7761 N   0  0  0  0  0  0  0  0  0  0  0  0
  -31.2937  -16.6510   19.8101 N   0  0  0  0  0  0  0  0  0  0  0  0
  -18.9888  -28.8445   19.8640 N   0  3  0  0  0  0  0  0  0  0  0  0
  -32.9337  -18.2012   20.4471 O   0  0  0  0  0  0  0  0  0  0  0  0
  -26.4225  -15.4706   26.7595 O   0  0  0  0  0  0  0  0  0  0  0  0
  -25.7372  -31.4502   24.7702 O   0  0  0  0  0  0  0  0  0  0  0  0
  -22.5364  -31.4381   23.1546 O   0  0  0  0  0  0  0  0  0  0  0  0
  -21.2837  -27.7245   21.0453 O   0  0  0  0  0  0  0  0  0  0  0  0
  -31.7604  -14.4127   20.1346 O   0  0  0  0  0  0  0  0  0  0  0  0
  -26.9755  -24.1638   17.2214 O   0  0  0  0  0  0  0  0  0  0  0  0
  -24.8335  -11.7677   20.0999 O   0  0  0  0  0  0  0  0  0  0  0  0
  -26.7075  -26.6117   18.6126 O   0  0  0  0  0  0  0  0  0  1  0  0
  -22.1902   -7.4197   22.2240 F   0  0  0  0  0  0  0  0  0  0  0  0
  -25.2781   -9.2207   19.1213 F   0  0  0  0  0  0  0  0  0  0  0  0
  1  2  1  0  0  0  0
  1  6  2  0  0  0  0
  2  7  2  0  0  0  0
  3 10  2  0  0  0  0
  3 18  1  0  0  0  0
  4 11  1  0  0  0  0
  4 18  2  0  0  0  0
  5  9  2  0  0  0  0
  5 19  1  0  0  0  0
  6 21  1  0  0  0  0
  7 23  1  0  0  0  0
  8 12  2  0  0  0  0
  8 22  1  0  0  0  0
  9 25  1  0  0  0  0
 10 27  1  0  0  0  0
 11 27  2  0  0  0  0
 12 28  1  0  0  0  0
 13 14  2  0  0  0  0
 13 29  1  0  0  0  0
 14 30  1  0  0  0  0
 15 19  2  0  0  0  0
 15 26  1  0  0  0  0
 16 24  1  0  0  0  0
 16 28  2  0  0  0  0
 17 30  2  0  0  0  0
 17 31  1  0  0  0  0
 18 32  1  0  0  0  0
 19 35  1  0  0  0  0
 20 32  1  0  0  0  0
 20 33  2  0  0  0  0
 20 36  1  0  0  0  0
 21 23  2  0  0  0  0
 21 42  1  0  0  0  0
 22 24  2  0  0  0  0
 22 43  1  0  0  0  0
 23 51  1  0  0  0  0
 24 44  1  0  0  0  0
 25 26  2  0  0  0  0
 25 71  1  0  0  0  0
 26 68  1  0  0  0  0
 27 83  1  0  0  0  0
 28 84  1  0  0  0  0
 29 31  2  0  0  0  0
 29 83  1  0  0  0  0
 30 85  1  0  0  0  0
 31 86  1  0  0  0  0
 32 64  2  0  0  0  0
 33 65  1  0  0  0  0
 33 69  1  0  0  0  0
 34 37  2  0  0  0  0
 34 84  1  0  0  0  0
 35 74  1  0  0  0  0
 35 76  2  0  0  0  0
 36 70  1  0  0  0  0
 36 77  2  0  0  0  0
 37 60  1  0  0  0  0
 37 82  1  0  0  0  0
 38 52  1  0  0  0  0
 38 72  1  0  0  0  0
 38 78  2  0  0  0  0
 39 61  1  0  0  0  0
 39 66  1  0  0  0  0
 39 79  2  0  0  0  0
 40 62  1  0  0  0  0
 40 73  1  0  0  0  0
 40 80  2  0  0  0  0
 41 67  1  0  0  0  0
 41 74  1  0  0  0  0
 41 81  2  0  0  0  0
 42 45  1  0  0  0  0
 43 52  1  0  0  0  0
 44 66  1  0  0  0  0
 45 47  1  0  0  0  0
 46 48  1  0  0  0  0
 46 49  1  0  0  0  0
 47 51  1  0  0  0  0
 48 53  1  0  0  0  0
 49 67  1  0  0  0  0
 50 53  1  0  0  0  0
 50 67  1  0  0  0  0
 51 72  1  0  0  0  0
 52 66  1  0  0  0  0
 53 65  1  0  0  0  0
 54 62  1  0  0  0  0
 55 63  1  0  0  0  0
 56 63  1  0  0  0  0
 57 63  1  0  0  0  0
 58 74  1  0  0  0  0
 59 75  1  0  0  0  0
 60 71  1  0  0  0  0
 61 63  1  0  0  0  0
 61 73  1  0  0  0  0
 62 75  1  0  0  0  0
 64 65  1  0  0  0  0
M  CHG  1  75   1
M  ISO  4  34 101  41 100  74 100  84 101
M  END
> <Batch ID>
0087

> <Smiles>
CNC(C)C(=O)NC(C(=O)N1Cc2cc([101O:1][101CH:1]=C(O)CNc3ccc(C(=O)[100N:0](C)[100C:0](=O)N4CCCC(n5nc(-c6ccc(Oc7ccc(F)cc7F)cc6)c(C(N)=O)c5N)C4)cc3N)ccc2CC1C(=O)NC1CCCc2ccccc21)C(C)(C)C

> <Shape>
0.282

> <Color>
0.080

> <Negative vol penalty>
0.000

$$$$

  -OEChem-04052300203D

 85 93  0     1  0  0  0  0  0999 V2000
  -22.7747   -7.8484   21.9087 C   0  0  0  0  0  0  0  0  0  0  0  0
  -24.0631   -8.3347   22.1059 C   0  0  0  0  0  0  0  0  0  0  0  0
  -22.2267  -28.8991   20.8320 C   0  0  0  0  0  0  0  0  0  0  0  0
  -22.9885  -27.0492   22.1863 C   0  0  0  0  0  0  0  0  0  0  0  0
  -21.9216   -8.4835   21.0071 C   0  0  0  0  0  0  0  0  0  0  0  0
  -24.4996   -9.4558   21.4008 C   0  0  0  0  0  0  0  0  0  0  0  0
  -28.7731  -15.1645   22.0819 C   0  0  0  0  0  0  0  0  0  0  0  0
  -31.2054  -24.4628   22.5321 C   0  0  0  0  0  0  0  0  0  0  0  0
  -31.3090  -23.1229   22.1588 C   0  0  0  0  0  0  0  0  0  0  0  0
  -20.9160  -28.6633   21.2470 C   0  0  0  0  0  0  0  0  0  0  0  0
  -21.6778  -26.8133   22.6014 C   0  0  0  0  0  0  0  0  0  0  0  0
  -29.8198  -15.8108   21.4257 C   0  0  0  0  0  0  0  0  0  0  0  0
  -17.4184  -28.7746   22.2313 C   0  0  0  0  0  0  0  0  0  0  0  0
  -16.6494  -29.8756   22.6081 C   0  0  0  0  0  0  0  0  0  0  0  0
  -31.1542  -23.7587   19.8331 C   0  0  0  0  0  0  0  0  0  0  0  0
  -28.2321  -16.8736   19.9530 C   0  0  0  0  0  0  0  0  0  0  0  0
  -18.2438  -30.3939   24.3477 C   0  0  0  0  0  0  0  0  0  0  0  0
  -23.2629  -28.0920   21.3016 C   0  0  0  0  0  0  0  0  0  0  0  0
  -31.0506  -25.0987   20.2064 C   0  0  0  0  0  0  0  0  0  0  0  0
  -25.5654  -29.1746   21.4868 C   0  0  0  0  0  0  0  0  0  0  0  0
  -22.3445   -9.6187   20.2977 C   0  0  0  0  0  0  0  0  0  0  0  0
  -27.4467  -15.3597   21.6709 C   0  0  0  0  0  0  0  0  0  0  0  0
  -23.6518  -10.1058   20.4879 C   0  0  0  0  0  0  0  0  0  0  0  0
  -27.1702  -16.2305   20.6073 C   0  0  0  0  0  0  0  0  0  0  0  0
  -31.0762  -25.4508   21.5558 C   0  0  0  0  0  0  0  0  0  0  0  0
  -31.2834  -22.7708   20.8094 C   0  0  0  0  0  0  0  0  0  0  0  0
  -20.6416  -27.6204   22.1317 C   0  0  0  0  0  0  0  0  0  0  0  0
  -29.5496  -16.6632   20.3592 C   0  0  0  0  0  0  0  0  0  0  0  0
  -18.6001  -28.4831   22.9128 C   0  0  0  0  0  0  0  0  0  0  0  0
  -17.0621  -30.6852   23.6663 C   0  0  0  0  0  0  0  0  0  0  0  0
  -19.0128  -29.2928   23.9710 C   0  0  0  0  0  0  0  0  0  0  0  0
  -24.6169  -28.3348   20.8729 C   0  0  0  0  0  0  0  0  0  0  0  0
  -26.6858  -29.0594   20.7008 C   0  0  0  0  0  0  0  0  0  0  0  0
  -30.5749  -18.6614   19.7061 C   0  0  0  0  0  0  0  0  0  1  0  0
  -30.9173  -26.1104   19.1668 C   0  0  0  0  0  0  0  0  0  0  0  0
  -25.4445  -29.9862   22.6626 C   0  0  0  0  0  0  0  0  0  0  0  0
  -31.5204  -19.4001   19.1094 C   0  0  0  0  0  0  0  0  0  0  0  0
  -30.2549  -25.8062   17.8777 C   0  0  0  0  0  0  0  0  0  0  0  0
  -31.3981  -20.8932   19.1433 C   0  0  0  0  0  0  0  0  0  0  0  0
  -25.1551  -13.4810   20.5208 C   0  0  0  0  0  0  0  0  0  0  0  0
  -23.3514  -16.1617   20.8087 C   0  0  0  0  0  0  0  0  0  0  0  0
  -23.2302  -19.5684   20.9719 C   0  0  0  0  0  0  0  0  0  0  0  0
  -21.4027  -10.2431   19.2988 C   0  0  0  0  0  0  0  0  0  0  0  0
  -26.3269  -14.6759   22.4063 C   0  0  0  0  0  0  0  0  0  0  0  0
  -25.7620  -16.4898   20.1402 C   0  0  0  0  0  0  0  0  0  0  0  0
  -21.8149  -11.6487   18.8693 C   0  0  0  0  0  0  0  0  0  0  0  0
  -27.3299  -26.9592   16.1538 C   0  0  0  0  0  0  0  0  0  0  0  0
  -23.3026  -11.6901   18.5350 C   0  0  0  0  0  0  0  0  0  0  0  0
  -26.4260  -27.4526   17.2830 C   0  0  0  0  0  0  0  0  0  0  0  0
  -28.1571  -25.7533   16.5872 C   0  0  0  0  0  0  0  0  0  0  0  0
  -28.0686  -26.4863   18.9544 C   0  0  0  0  0  0  0  0  0  0  0  0
  -24.1534  -11.3342   19.7602 C   0  0  1  0  0  0  0  0  0  0  0  0
  -25.0551  -14.5485   21.5734 C   0  0  1  0  0  0  0  0  0  0  0  0
  -27.2377  -27.7207   18.5629 C   0  0  2  0  0  0  0  0  0  0  0  0
  -30.9672  -26.8782   21.9831 C   0  0  0  0  0  0  0  0  0  0  0  0
  -32.6823  -18.8477   18.3437 C   0  0  0  0  0  0  0  0  0  0  0  0
  -21.6101  -21.4747   21.1687 C   0  0  0  0  0  0  0  0  0  0  0  0
  -22.5867  -15.8113   17.8758 C   0  0  0  0  0  0  0  0  0  0  0  0
  -21.7815  -18.1820   17.8747 C   0  0  0  0  0  0  0  0  0  0  0  0
  -20.7034  -16.5010   19.3697 C   0  0  0  0  0  0  0  0  0  0  0  0
  -24.4236  -20.4712   23.5253 C   0  0  0  0  0  0  0  0  0  0  0  0
  -23.0277  -17.3336   19.9139 C   0  0  1  0  0  0  0  0  0  0  0  0
  -22.5082  -20.5062   21.9225 C   0  0  2  0  0  0  0  0  0  0  0  0
  -22.0516  -16.9508   18.7658 C   0  0  0  0  0  0  0  0  0  0  0  0
  -25.0932  -27.7309   19.7809 N   0  0  0  0  0  0  0  0  0  0  0  0
  -31.3609  -27.3302   19.2962 N   0  0  0  0  0  0  0  0  0  0  0  0
  -26.3532  -28.1917   19.7025 N   0  0  0  0  0  0  0  0  0  0  0  0
  -28.8861  -26.0292   17.8236 N   0  0  0  0  0  0  0  0  0  0  0  0
  -24.7019  -15.7930   20.8873 N   0  0  0  0  0  0  0  0  0  0  0  0
  -27.9132  -29.6168   20.7730 N   0  0  0  0  0  0  0  0  0  0  0  0
  -24.2234  -29.9880   23.3505 N   0  0  0  0  0  0  0  0  0  0  0  0
  -31.3865  -21.4099   20.4310 N   0  0  0  0  0  0  0  0  0  0  0  0
  -24.2338  -12.4612   20.6645 N   0  0  0  0  0  0  0  0  0  0  0  0
  -22.5350  -18.3917   20.7892 N   0  0  0  0  0  0  0  0  0  0  0  0
  -23.4911  -21.2972   22.7159 N   0  3  0  0  0  0  0  0  0  0  0  0
  -26.3860  -30.7016   23.0812 O   0  0  0  0  0  0  0  0  0  0  0  0
  -30.9899  -25.3878   16.9929 O   0  0  0  0  0  0  0  0  0  0  0  0
  -31.3741  -21.5133   18.0846 O   0  0  0  0  0  0  0  0  0  0  0  0
  -26.0043  -13.5762   19.6424 O   0  0  0  0  0  0  0  0  0  0  0  0
  -22.4406  -15.5988   21.4212 O   0  0  0  0  0  0  0  0  0  0  0  0
  -24.3017  -19.8528   20.4414 O   0  0  0  0  0  0  0  0  0  0  0  0
  -19.3629  -27.3901   22.5370 O   0  0  0  0  0  0  0  0  0  0  0  0
  -30.5693  -17.2948   19.7166 O   0  0  0  0  0  0  0  0  0  1  0  0
  -16.3243  -31.7434   24.0270 F   0  0  0  0  0  0  0  0  0  0  0  0
  -20.1477  -29.0186   24.6286 F   0  0  0  0  0  0  0  0  0  0  0  0
  1  2  1  0  0  0  0
  1  5  2  0  0  0  0
  2  6  2  0  0  0  0
  3 10  2  0  0  0  0
  3 18  1  0  0  0  0
  4 11  1  0  0  0  0
  4 18  2  0  0  0  0
  5 21  1  0  0  0  0
  6 23  1  0  0  0  0
  7 12  2  0  0  0  0
  7 22  1  0  0  0  0
  8  9  2  0  0  0  0
  8 25  1  0  0  0  0
  9 26  1  0  0  0  0
 10 27  1  0  0  0  0
 11 27  2  0  0  0  0
 12 28  1  0  0  0  0
 13 14  2  0  0  0  0
 13 29  1  0  0  0  0
 14 30  1  0  0  0  0
 15 19  1  0  0  0  0
 15 26  2  0  0  0  0
 16 24  1  0  0  0  0
 16 28  2  0  0  0  0
 17 30  2  0  0  0  0
 17 31  1  0  0  0  0
 18 32  1  0  0  0  0
 19 25  2  0  0  0  0
 19 35  1  0  0  0  0
 20 32  1  0  0  0  0
 20 33  2  0  0  0  0
 20 36  1  0  0  0  0
 21 23  2  0  0  0  0
 21 43  1  0  0  0  0
 22 24  2  0  0  0  0
 22 44  1  0  0  0  0
 23 52  1  0  0  0  0
 24 45  1  0  0  0  0
 25 55  1  0  0  0  0
 26 72  1  0  0  0  0
 27 82  1  0  0  0  0
 28 83  1  0  0  0  0
 29 31  2  0  0  0  0
 29 82  1  0  0  0  0
 30 84  1  0  0  0  0
 31 85  1  0  0  0  0
 32 65  2  0  0  0  0
 33 67  1  0  0  0  0
 33 70  1  0  0  0  0
 34 37  2  0  0  0  0
 34 83  1  0  0  0  0
 35 38  1  0  0  0  0
 35 66  2  0  0  0  0
 36 71  1  0  0  0  0
 36 76  2  0  0  0  0
 37 39  1  0  0  0  0
 37 56  1  0  0  0  0
 38 68  1  0  0  0  0
 38 77  2  0  0  0  0
 39 72  1  0  0  0  0
 39 78  2  0  0  0  0
 40 53  1  0  0  0  0
 40 73  1  0  0  0  0
 40 79  2  0  0  0  0
 41 62  1  0  0  0  0
 41 69  1  0  0  0  0
 41 80  2  0  0  0  0
 42 63  1  0  0  0  0
 42 74  1  0  0  0  0
 42 81  2  0  0  0  0
 43 46  1  0  0  0  0
 44 53  1  0  0  0  0
 45 69  1  0  0  0  0
 46 48  1  0  0  0  0
 47 49  1  0  0  0  0
 47 50  1  0  0  0  0
 48 52  1  0  0  0  0
 49 54  1  0  0  0  0
 50 68  1  0  0  0  0
 51 54  1  0  0  0  0
 51 68  1  0  0  0  0
 52 73  1  0  0  0  0
 53 69  1  0  0  0  0
 54 67  1  0  0  0  0
 57 63  1  0  0  0  0
 58 64  1  0  0  0  0
 59 64  1  0  0  0  0
 60 64  1  0  0  0  0
 61 75  1  0  0  0  0
 62 64  1  0  0  0  0
 62 74  1  0  0  0  0
 63 75  1  0  0  0  0
 65 67  1  0  0  0  0
M  CHG  1  75   1
M  ISO  4  34 101  35 100  38 100  83 101
M  END
> <Batch ID>
0087

> <Smiles>
CNC(C)C(=O)NC(C(=O)N1Cc2cc([101O:1][101CH:1]=C(C)C(=O)Nc3ccc(C)c([100C:0](=N)[100C:0](=O)N4CCCC(n5nc(-c6ccc(Oc7ccc(F)cc7F)cc6)c(C(N)=O)c5N)C4)c3)ccc2CC1C(=O)NC1CCCc2ccccc21)C(C)(C)C

> <Shape>
0.273

> <Color>
0.067

> <Negative vol penalty>
0.000

$$$$

  -OEChem-04052300203D

 90 99  0     1  0  0  0  0  0999 V2000
  -29.6787  -33.2391   26.4519 C   0  0  0  0  0  0  0  0  0  0  0  0
  -29.4857  -32.1045   25.6703 C   0  0  0  0  0  0  0  0  0  0  0  0
  -24.6493   -8.1888   21.3141 C   0  0  0  0  0  0  0  0  0  0  0  0
  -23.2750  -10.1730   21.4219 C   0  0  0  0  0  0  0  0  0  0  0  0
  -28.5789  -33.9512   26.9285 C   0  0  0  0  0  0  0  0  0  0  0  0
  -28.1926  -31.6808   25.3657 C   0  0  0  0  0  0  0  0  0  0  0  0
  -27.6626  -30.4074   20.4931 C   0  0  0  0  0  0  0  0  0  0  0  0
  -29.7939  -21.6729   19.3376 C   0  0  0  0  0  0  0  0  0  0  0  0
  -29.9599  -20.3200   19.6337 C   0  0  0  0  0  0  0  0  0  0  0  0
  -23.8810   -7.6020   22.3196 C   0  0  0  0  0  0  0  0  0  0  0  0
  -22.5066   -9.5861   22.4273 C   0  0  0  0  0  0  0  0  0  0  0  0
  -28.1545  -29.1626   20.1032 C   0  0  0  0  0  0  0  0  0  0  0  0
  -20.8847   -6.0577   22.5843 C   0  0  0  0  0  0  0  0  0  0  0  0
  -20.4892   -4.7319   22.4075 C   0  0  0  0  0  0  0  0  0  0  0  0
  -29.7277  -21.1490   16.9801 C   0  0  0  0  0  0  0  0  0  0  0  0
  -25.9211  -28.2563   20.2001 C   0  0  0  0  0  0  0  0  0  0  0  0
  -21.6612   -4.1131   24.4276 C   0  0  0  0  0  0  0  0  0  0  0  0
  -24.3464   -9.4744   20.8653 C   0  0  0  0  0  0  0  0  0  0  0  0
  -29.8937  -19.7960   17.2761 C   0  0  0  0  0  0  0  0  0  0  0  0
  -24.9233  -10.0069   18.4382 C   0  0  0  0  0  0  0  0  0  0  0  0
  -27.2718  -33.5416   26.6216 C   0  0  0  0  0  0  0  0  0  0  0  0
  -26.2954  -30.5837   20.7504 C   0  0  0  0  0  0  0  0  0  0  0  0
  -27.0742  -32.3874   25.8398 C   0  0  0  0  0  0  0  0  0  0  0  0
  -25.4139  -29.5050   20.5906 C   0  0  0  0  0  0  0  0  0  0  0  0
  -29.6777  -22.0874   18.0108 C   0  0  0  0  0  0  0  0  0  0  0  0
  -30.0098  -19.3816   18.6029 C   0  0  0  0  0  0  0  0  0  0  0  0
  -22.8097   -8.3006   22.8762 C   0  0  0  0  0  0  0  0  0  0  0  0
  -27.2842  -28.0861   19.9594 C   0  0  0  0  0  0  0  0  0  0  0  0
  -21.6684   -6.4113   23.6826 C   0  0  0  0  0  0  0  0  0  0  0  0
  -20.8774   -3.7595   23.3292 C   0  0  0  0  0  0  0  0  0  0  0  0
  -22.0566   -5.4390   24.6043 C   0  0  0  0  0  0  0  0  0  0  0  0
  -25.1400  -10.0813   19.8271 C   0  0  0  0  0  0  0  0  0  0  0  0
  -25.9445  -10.7449   17.8913 C   0  0  0  0  0  0  0  0  0  0  0  0
  -28.9029  -25.6367   17.9011 C   0  0  0  0  0  0  0  0  0  0  0  0
  -29.5935  -25.4788   16.6138 C   0  0  0  0  0  0  0  0  0  0  0  0
  -28.8572  -24.3326   18.5929 C   0  0  0  0  0  0  0  0  0  0  0  0
  -30.8662  -18.8649   15.2261 C   0  0  0  0  0  0  0  0  0  0  0  0
  -29.9405  -18.8442   16.1722 C   0  0  0  0  0  0  0  0  0  0  0  0
  -28.3966  -26.7760   18.3728 C   0  0  0  0  0  0  0  0  0  1  0  0
  -23.8912   -9.3311   17.7076 C   0  0  0  0  0  0  0  0  0  0  0  0
  -24.5798  -31.4037   23.2976 C   0  0  0  0  0  0  0  0  0  0  0  0
  -29.1662  -15.1988   20.1406 C   0  0  0  0  0  0  0  0  0  0  0  0
  -22.1301  -31.3779   21.1714 C   0  0  0  0  0  0  0  0  0  0  0  0
  -30.3067  -17.4618   20.2041 C   0  0  0  0  0  0  0  0  0  0  0  0
  -20.8703  -30.2247   18.2168 C   0  0  0  0  0  0  0  0  0  0  0  0
  -26.1138  -34.3165   27.1989 C   0  0  0  0  0  0  0  0  0  0  0  0
  -25.7766  -31.9394   21.1443 C   0  0  0  0  0  0  0  0  0  0  0  0
  -23.9345  -29.6469   20.8351 C   0  0  0  0  0  0  0  0  0  0  0  0
  -30.0040  -24.0436   16.4647 C   0  0  0  0  0  0  0  0  0  0  0  0
  -24.7804  -34.0158   26.5191 C   0  0  0  0  0  0  0  0  0  0  0  0
  -30.4484  -12.1077   18.7164 C   0  0  0  0  0  0  0  0  0  0  0  0
  -24.5916  -32.5109   26.3563 C   0  0  0  0  0  0  0  0  0  0  0  0
  -29.2048  -11.2201   18.7426 C   0  0  0  0  0  0  0  0  0  0  0  0
  -30.4958  -13.0433   19.9216 C   0  0  0  0  0  0  0  0  0  0  0  0
  -28.0281  -13.0022   20.1036 C   0  0  0  0  0  0  0  0  0  0  0  0
  -25.6872  -31.9104   25.4673 C   0  0  1  0  0  0  0  0  0  0  0  0
  -24.4408  -31.8779   21.8786 C   0  0  1  0  0  0  0  0  0  0  0  0
  -27.9270  -12.0647   18.8888 C   0  0  2  0  0  0  0  0  0  0  0  0
  -18.8279  -30.3487   16.7639 C   0  0  0  0  0  0  0  0  0  0  0  0
  -20.6694  -29.4855   23.0674 C   0  0  0  0  0  0  0  0  0  0  0  0
  -19.1209  -28.9083   21.1867 C   0  0  0  0  0  0  0  0  0  0  0  0
  -19.2267  -31.2504   22.0387 C   0  0  0  0  0  0  0  0  0  0  0  0
  -22.3964  -31.4048   15.9724 C   0  0  0  0  0  0  0  0  0  0  0  0
  -30.4689  -15.9579   20.1175 C   0  0  0  0  0  0  0  0  0  0  0  0
  -21.1529  -30.3380   20.6788 C   0  0  1  0  0  0  0  0  0  0  0  0
  -20.1965  -30.9417   17.0607 C   0  0  2  0  0  0  0  0  0  0  0  0
  -20.0706  -29.9921   21.7401 C   0  0  0  0  0  0  0  0  0  0  0  0
  -26.2145  -10.8090   20.1431 N   0  0  0  0  0  0  0  0  0  0  0  0
  -26.6822  -11.1986   18.9449 N   0  0  0  0  0  0  0  0  0  0  0  0
  -29.5111  -23.4386   17.7158 N   0  0  0  0  0  0  0  0  0  0  0  0
  -23.4766  -30.9909   21.2245 N   0  0  0  0  0  0  0  0  0  0  0  0
  -29.2497  -13.8097   20.0416 N   0  0  0  0  0  0  0  0  0  0  0  0
  -26.2743  -11.0435   16.6168 N   0  0  0  0  0  0  0  0  0  0  0  0
  -22.9209   -8.6191   18.4257 N   0  0  0  0  0  0  0  0  0  0  0  0
  -30.1766  -18.0321   18.9307 N   0  0  0  0  0  0  0  0  0  0  0  0
  -25.4142  -32.1859   24.0730 N   0  0  0  0  0  0  0  0  0  0  0  0
  -20.6157  -30.8460   19.4211 N   0  0  0  0  0  0  0  0  0  0  0  0
  -21.0306  -30.8381   15.8301 N   0  3  0  0  0  0  0  0  0  0  0  0
  -29.7985  -26.3651   15.8024 O   0  0  0  0  0  0  0  0  0  0  0  0
  -28.3552  -24.1166   19.6821 O   0  0  0  0  0  0  0  0  0  0  0  0
  -23.8406   -9.3443   16.4542 O   0  0  0  0  0  0  0  0  0  0  0  0
  -23.9736  -30.4031   23.6624 O   0  0  0  0  0  0  0  0  0  0  0  0
  -28.1070  -15.8235   20.2408 O   0  0  0  0  0  0  0  0  0  0  0  0
  -21.7149  -32.4949   21.4903 O   0  0  0  0  0  0  0  0  0  0  0  0
  -30.2985  -18.0487   21.2813 O   0  0  0  0  0  0  0  0  0  0  0  0
  -21.5510  -29.2125   18.0669 O   0  0  0  0  0  0  0  0  0  0  0  0
  -22.0596   -7.7282   23.8571 O   0  0  0  0  0  0  0  0  0  0  0  0
  -27.7619  -26.8697   19.5795 O   0  0  0  0  0  0  0  0  0  1  0  0
  -20.4963   -2.4866   23.1602 F   0  0  0  0  0  0  0  0  0  0  0  0
  -22.8086   -5.7728   25.6621 F   0  0  0  0  0  0  0  0  0  0  0  0
  1  2  1  0  0  0  0
  1  5  2  0  0  0  0
  2  6  2  0  0  0  0
  3 10  2  0  0  0  0
  3 18  1  0  0  0  0
  4 11  1  0  0  0  0
  4 18  2  0  0  0  0
  5 21  1  0  0  0  0
  6 23  1  0  0  0  0
  7 12  2  0  0  0  0
  7 22  1  0  0  0  0
  8  9  2  0  0  0  0
  8 25  1  0  0  0  0
  9 26  1  0  0  0  0
 10 27  1  0  0  0  0
 11 27  2  0  0  0  0
 12 28  1  0  0  0  0
 13 14  2  0  0  0  0
 13 29  1  0  0  0  0
 14 30  1  0  0  0  0
 15 19  1  0  0  0  0
 15 25  2  0  0  0  0
 16 24  1  0  0  0  0
 16 28  2  0  0  0  0
 17 30  2  0  0  0  0
 17 31  1  0  0  0  0
 18 32  1  0  0  0  0
 19 26  2  0  0  0  0
 19 38  1  0  0  0  0
 20 32  1  0  0  0  0
 20 33  2  0  0  0  0
 20 40  1  0  0  0  0
 21 23  2  0  0  0  0
 21 46  1  0  0  0  0
 22 24  2  0  0  0  0
 22 47  1  0  0  0  0
 23 56  1  0  0  0  0
 24 48  1  0  0  0  0
 25 70  1  0  0  0  0
 26 75  1  0  0  0  0
 27 87  1  0  0  0  0
 28 88  1  0  0  0  0
 29 31  2  0  0  0  0
 29 87  1  0  0  0  0
 30 89  1  0  0  0  0
 31 90  1  0  0  0  0
 32 68  2  0  0  0  0
 33 69  1  0  0  0  0
 33 73  1  0  0  0  0
 34 35  1  0  0  0  0
 34 36  1  0  0  0  0
 34 39  2  0  0  0  0
 35 49  1  0  0  0  0
 35 79  2  0  0  0  0
 36 70  1  0  0  0  0
 36 80  2  0  0  0  0
 37 38  2  0  0  0  0
 39 88  1  0  0  0  0
 40 74  1  0  0  0  0
 40 81  2  0  0  0  0
 41 57  1  0  0  0  0
 41 76  1  0  0  0  0
 41 82  2  0  0  0  0
 42 64  1  0  0  0  0
 42 72  1  0  0  0  0
 42 83  2  0  0  0  0
 43 65  1  0  0  0  0
 43 71  1  0  0  0  0
 43 84  2  0  0  0  0
 44 64  1  0  0  0  0
 44 75  1  0  0  0  0
 44 85  2  0  0  0  0
 45 66  1  0  0  0  0
 45 77  1  0  0  0  0
 45 86  2  0  0  0  0
 46 50  1  0  0  0  0
 47 57  1  0  0  0  0
 48 71  1  0  0  0  0
 49 70  1  0  0  0  0
 50 52  1  0  0  0  0
 51 53  1  0  0  0  0
 51 54  1  0  0  0  0
 52 56  1  0  0  0  0
 53 58  1  0  0  0  0
 54 72  1  0  0  0  0
 55 58  1  0  0  0  0
 55 72  1  0  0  0  0
 56 76  1  0  0  0  0
 57 71  1  0  0  0  0
 58 69  1  0  0  0  0
 59 66  1  0  0  0  0
 60 67  1  0  0  0  0
 61 67  1  0  0  0  0
 62 67  1  0  0  0  0
 63 78  1  0  0  0  0
 65 67  1  0  0  0  0
 65 77  1  0  0  0  0
 66 78  1  0  0  0  0
 68 69  1  0  0  0  0
M  CHG  1  78   1
M  ISO  4  39 101  42 100  64 100  88 101
M  END
> <Batch ID>
0087

> <Smiles>
C=Cc1cc(N2CC(=O)C(=[101CH:1][101O:1]c3ccc4c(c3)CN(C(=O)C(NC(=O)C(C)NC)C(C)(C)C)C(C(=O)NC3CCCc5ccccc53)C4)C2=O)ccc1NC(=O)[100CH2:0][100C:0](=O)N1CCCC(n2nc(-c3ccc(Oc4ccc(F)cc4F)cc3)c(C(N)=O)c2N)C1

> <Shape>
0.321

> <Color>
0.078

> <Negative vol penalty>
0.000

$$$$

  -OEChem-04052300203D

 84 93  0     1  0  0  0  0  0999 V2000
  -16.6073  -28.6372   23.0514 C   0  0  0  0  0  0  0  0  0  0  0  0
  -17.5374  -28.3137   22.0687 C   0  0  0  0  0  0  0  0  0  0  0  0
  -22.6271  -10.3112   20.8090 C   0  0  0  0  0  0  0  0  0  0  0  0
  -24.5212   -9.0951   21.6868 C   0  0  0  0  0  0  0  0  0  0  0  0
  -16.8599  -29.6908   23.9289 C   0  0  0  0  0  0  0  0  0  0  0  0
  -18.7203  -29.0444   21.9623 C   0  0  0  0  0  0  0  0  0  0  0  0
  -26.5415  -18.9650   13.2781 C   0  0  0  0  0  0  0  0  0  0  0  0
  -22.7813  -26.0858   21.3301 C   0  0  0  0  0  0  0  0  0  0  0  0
  -26.1082  -20.2326   13.6929 C   0  0  0  0  0  0  0  0  0  0  0  0
  -21.8553   -9.1507   20.8666 C   0  0  0  0  0  0  0  0  0  0  0  0
  -23.7494   -7.9346   21.7445 C   0  0  0  0  0  0  0  0  0  0  0  0
  -22.9971  -25.5646   20.0551 C   0  0  0  0  0  0  0  0  0  0  0  0
  -21.3917   -6.6114   23.7720 C   0  0  0  0  0  0  0  0  0  0  0  0
  -21.4725   -5.8381   24.9300 C   0  0  0  0  0  0  0  0  0  0  0  0
  -24.6414  -27.2799   19.6388 C   0  0  0  0  0  0  0  0  0  0  0  0
  -26.2320  -19.5994   16.0552 C   0  0  0  0  0  0  0  0  0  0  0  0
  -22.2569   -3.9634   23.6235 C   0  0  0  0  0  0  0  0  0  0  0  0
  -23.9601  -10.2833   21.2190 C   0  0  0  0  0  0  0  0  0  0  0  0
  -24.9130  -12.4510   22.1682 C   0  0  0  0  0  0  0  0  0  0  0  0
  -18.0508  -30.4286   23.8394 C   0  0  0  0  0  0  0  0  0  0  0  0
  -23.4872  -27.2164   21.7657 C   0  0  0  0  0  0  0  0  0  0  0  0
  -18.9884  -30.1097   22.8386 C   0  0  0  0  0  0  0  0  0  0  0  0
  -26.8095  -18.0543   14.2635 C   0  0  0  0  0  0  0  0  0  0  0  0
  -24.4346  -27.8120   20.9207 C   0  0  0  0  0  0  0  0  0  0  0  0
  -26.6605  -18.3904   15.5867 C   0  0  0  0  0  0  0  0  0  0  0  0
  -25.9543  -20.5449   15.0664 C   0  0  0  0  0  0  0  0  0  0  0  0
  -22.4165   -7.9625   21.3344 C   0  0  0  0  0  0  0  0  0  0  0  0
  -23.9251  -26.1634   19.2082 C   0  0  0  0  0  0  0  0  0  0  0  0
  -21.7435   -6.0607   22.5397 C   0  0  0  0  0  0  0  0  0  0  0  0
  -21.9051   -4.5141   24.8558 C   0  0  0  0  0  0  0  0  0  0  0  0
  -22.1761   -4.7367   22.4654 C   0  0  0  0  0  0  0  0  0  0  0  0
  -24.7580  -11.4816   21.1592 C   0  0  0  0  0  0  0  0  0  0  0  0
  -25.7640  -13.3811   21.6230 C   0  0  0  0  0  0  0  0  0  0  0  0
  -24.5776  -24.3593   17.8702 C   0  0  0  0  0  0  0  0  0  1  0  0
  -24.3392  -12.5057   23.4810 C   0  0  0  0  0  0  0  0  0  0  0  0
  -24.8235  -23.7444   16.7070 C   0  0  0  0  0  0  0  0  0  0  0  0
  -25.3007  -22.3231   16.7221 C   0  0  0  0  0  0  0  0  0  0  0  0
  -22.6792  -30.1548   22.6694 C   0  0  0  0  0  0  0  0  0  0  0  0
  -25.8360  -30.3844   23.3797 C   0  0  0  0  0  0  0  0  0  0  0  0
  -29.0180  -29.2824   22.8253 C   0  0  0  0  0  0  0  0  0  0  0  0
  -26.9579  -16.6245   17.2982 C   0  0  0  0  0  0  0  0  0  0  0  0
  -18.2582  -31.5891   24.7801 C   0  0  0  0  0  0  0  0  0  0  0  0
  -23.2623  -27.7504   23.1538 C   0  0  0  0  0  0  0  0  0  0  0  0
  -27.2462  -16.6685   14.6421 C   0  0  0  0  0  0  0  0  0  0  0  0
  -25.2331  -29.0154   21.3481 C   0  0  0  0  0  0  0  0  0  0  0  0
  -19.7045  -32.0737   24.8398 C   0  0  0  0  0  0  0  0  0  0  0  0
  -28.5769  -13.2603   17.4601 C   0  0  0  0  0  0  0  0  0  0  0  0
  -20.2792  -32.2134   23.4338 C   0  0  0  0  0  0  0  0  0  0  0  0
  -27.6640  -12.5577   18.4561 C   0  0  0  0  0  0  0  0  0  0  0  0
  -27.8419  -14.3181   16.6368 C   0  0  0  0  0  0  0  0  0  0  0  0
  -26.1914  -14.5976   18.4729 C   0  0  0  0  0  0  0  0  0  0  0  0
  -20.2943  -30.8630   22.7073 C   0  0  1  0  0  0  0  0  0  0  0  0
  -23.6647  -29.2143   23.3034 C   0  0  1  0  0  0  0  0  0  0  0  0
  -26.9565  -13.5908   19.3420 C   0  0  1  0  0  0  0  0  0  0  0  0
  -31.3932  -29.6875   23.5265 C   0  0  0  0  0  0  0  0  0  0  0  0
  -25.9120  -32.9029   21.6589 C   0  0  0  0  0  0  0  0  0  0  0  0
  -28.4082  -32.7149   21.6169 C   0  0  0  0  0  0  0  0  0  0  0  0
  -27.2208  -33.0521   23.7847 C   0  0  0  0  0  0  0  0  0  0  0  0
  -29.2997  -26.5297   23.8751 C   0  0  0  0  0  0  0  0  0  0  0  0
  -27.0732  -30.8097   22.6264 C   0  0  1  0  0  0  0  0  0  0  0  0
  -30.1273  -28.8845   23.7822 C   0  0  2  0  0  0  0  0  0  0  0  0
  -27.1373  -32.3484   22.4126 C   0  0  0  0  0  0  0  0  0  0  0  0
  -25.4545  -11.7693   20.0564 N   0  0  0  0  0  0  0  0  0  0  0  0
  -26.0553  -12.9300   20.3692 N   0  0  0  0  0  0  0  0  0  0  0  0
  -27.0366  -17.1384   16.0270 N   0  0  0  0  0  0  0  0  0  0  0  0
  -24.9727  -29.5041   22.7122 N   0  0  0  0  0  0  0  0  0  0  0  0
  -27.0496  -15.2347   17.4638 N   0  0  0  0  0  0  0  0  0  0  0  0
  -26.2839  -14.5326   22.0985 N   0  0  0  0  0  0  0  0  0  0  0  0
  -23.4865  -11.4679   23.8813 N   0  0  0  0  0  0  0  0  0  0  0  0
  -25.5140  -21.8178   15.4337 N   0  0  0  0  0  0  0  0  0  0  0  0
  -21.3971  -30.0503   23.1740 N   0  0  0  0  0  0  0  0  0  0  0  0
  -28.2075  -30.2607   23.3614 N   0  0  0  0  0  0  0  0  0  0  0  0
  -30.4495  -27.4376   23.6288 N   0  3  0  0  0  0  0  0  0  0  0  0
  -24.5627  -13.4553   24.2696 O   0  0  0  0  0  0  0  0  0  0  0  0
  -25.4660  -21.7252   17.7800 O   0  0  0  0  0  0  0  0  0  0  0  0
  -23.0547  -30.9198   21.7888 O   0  0  0  0  0  0  0  0  0  0  0  0
  -25.6463  -30.8117   24.5213 O   0  0  0  0  0  0  0  0  0  0  0  0
  -28.8861  -28.7786   21.7121 O   0  0  0  0  0  0  0  0  0  0  0  0
  -26.7609  -17.3724   18.2665 O   0  0  0  0  0  0  0  0  0  0  0  0
  -24.6537  -24.3679   15.4875 O   0  0  0  0  0  0  0  0  0  0  0  0
  -21.6636   -6.8300   21.3910 O   0  0  0  0  0  0  0  0  0  0  0  0
  -24.1387  -25.6535   17.9543 O   0  0  0  0  0  0  0  0  0  1  0  0
  -21.9840   -3.7721   25.9682 F   0  0  0  0  0  0  0  0  0  0  0  0
  -22.5166   -4.2025   21.2845 F   0  0  0  0  0  0  0  0  0  0  0  0
  1  2  1  0  0  0  0
  1  5  2  0  0  0  0
  2  6  2  0  0  0  0
  3 10  2  0  0  0  0
  3 18  1  0  0  0  0
  4 11  1  0  0  0  0
  4 18  2  0  0  0  0
  5 20  1  0  0  0  0
  6 22  1  0  0  0  0
  7  9  2  0  0  0  0
  7 23  1  0  0  0  0
  8 12  2  0  0  0  0
  8 21  1  0  0  0  0
  9 26  1  0  0  0  0
 10 27  1  0  0  0  0
 11 27  2  0  0  0  0
 12 28  1  0  0  0  0
 13 14  2  0  0  0  0
 13 29  1  0  0  0  0
 14 30  1  0  0  0  0
 15 24  1  0  0  0  0
 15 28  2  0  0  0  0
 16 25  1  0  0  0  0
 16 26  2  0  0  0  0
 17 30  2  0  0  0  0
 17 31  1  0  0  0  0
 18 32  1  0  0  0  0
 19 32  1  0  0  0  0
 19 33  2  0  0  0  0
 19 35  1  0  0  0  0
 20 22  2  0  0  0  0
 20 42  1  0  0  0  0
 21 24  2  0  0  0  0
 21 43  1  0  0  0  0
 22 52  1  0  0  0  0
 23 25  2  0  0  0  0
 23 44  1  0  0  0  0
 24 45  1  0  0  0  0
 25 65  1  0  0  0  0
 26 70  1  0  0  0  0
 27 81  1  0  0  0  0
 28 82  1  0  0  0  0
 29 31  2  0  0  0  0
 29 81  1  0  0  0  0
 30 83  1  0  0  0  0
 31 84  1  0  0  0  0
 32 63  2  0  0  0  0
 33 64  1  0  0  0  0
 33 68  1  0  0  0  0
 34 36  2  0  0  0  0
 34 82  1  0  0  0  0
 35 69  1  0  0  0  0
 35 74  2  0  0  0  0
 36 37  1  0  0  0  0
 36 80  1  0  0  0  0
 37 70  1  0  0  0  0
 37 75  2  0  0  0  0
 38 53  1  0  0  0  0
 38 71  1  0  0  0  0
 38 76  2  0  0  0  0
 39 60  1  0  0  0  0
 39 66  1  0  0  0  0
 39 77  2  0  0  0  0
 40 61  1  0  0  0  0
 40 72  1  0  0  0  0
 40 78  2  0  0  0  0
 41 65  1  0  0  0  0
 41 67  1  0  0  0  0
 41 79  2  0  0  0  0
 42 46  1  0  0  0  0
 43 53  1  0  0  0  0
 44 65  1  0  0  0  0
 45 66  1  0  0  0  0
 46 48  1  0  0  0  0
 47 49  1  0  0  0  0
 47 50  1  0  0  0  0
 48 52  1  0  0  0  0
 49 54  1  0  0  0  0
 50 67  1  0  0  0  0
 51 54  1  0  0  0  0
 51 67  1  0  0  0  0
 52 71  1  0  0  0  0
 53 66  1  0  0  0  0
 54 64  1  0  0  0  0
 55 61  1  0  0  0  0
 56 62  1  0  0  0  0
 57 62  1  0  0  0  0
 58 62  1  0  0  0  0
 59 73  1  0  0  0  0
 60 62  1  0  0  0  0
 60 72  1  0  0  0  0
 61 73  1  0  0  0  0
 63 64  1  0  0  0  0
M  CHG  1  73   1
M  ISO  4  34 101  41 100  65 100  82 101
M  END
> <Batch ID>
0087

> <Smiles>
CNC(C)C(=O)NC(C(=O)N1Cc2cc([101O:1][101CH2:1]C(=O)C(=O)Nc3ccc4c(c3)[100N:0]([100C:0](=O)N3CCCC(n5nc(-c6ccc(Oc7ccc(F)cc7F)cc6)c(C(N)=O)c5N)C3)C4)ccc2CC1C(=O)NC1CCCc2ccccc21)C(C)(C)C

> <Shape>
0.244

> <Color>
0.106

> <Negative vol penalty>
0.000

$$$$

  -OEChem-04052300203D

 85 94  0     1  0  0  0  0  0999 V2000
  -24.4908  -11.0958   20.2703 C   0  0  0  0  0  0  0  0  0  0  0  0
  -23.7708  -12.2850   20.3224 C   0  0  0  0  0  0  0  0  0  0  0  0
  -28.8419  -27.2852   25.0808 C   0  0  0  0  0  0  0  0  0  0  0  0
  -27.1034  -25.7020   24.5255 C   0  0  0  0  0  0  0  0  0  0  0  0
  -25.8288  -11.0746   20.6616 C   0  0  0  0  0  0  0  0  0  0  0  0
  -24.3882  -13.4536   20.7669 C   0  0  0  0  0  0  0  0  0  0  0  0
  -23.3520  -19.1515   18.7755 C   0  0  0  0  0  0  0  0  0  0  0  0
  -29.2651  -26.4561   26.1196 C   0  0  0  0  0  0  0  0  0  0  0  0
  -27.5267  -24.8729   25.5643 C   0  0  0  0  0  0  0  0  0  0  0  0
  -22.5719  -20.1929   19.2764 C   0  0  0  0  0  0  0  0  0  0  0  0
  -30.0030  -22.6404   26.1160 C   0  0  0  0  0  0  0  0  0  0  0  0
  -30.1171  -21.2761   25.8488 C   0  0  0  0  0  0  0  0  0  0  0  0
  -24.5170  -21.1203   20.3607 C   0  0  0  0  0  0  0  0  0  0  0  0
  -20.0096  -27.2060   21.9651 C   0  0  0  0  0  0  0  0  0  0  0  0
  -28.4914  -20.8027   27.5722 C   0  0  0  0  0  0  0  0  0  0  0  0
  -18.3290  -28.3005   23.1398 C   0  0  0  0  0  0  0  0  0  0  0  0
  -27.7610  -26.9081   24.2837 C   0  0  0  0  0  0  0  0  0  0  0  0
  -27.7656  -27.7469   21.8745 C   0  0  0  0  0  0  0  0  0  0  0  0
  -26.4657  -12.2455   21.1020 C   0  0  0  0  0  0  0  0  0  0  0  0
  -24.7205  -19.0807   19.0730 C   0  0  0  0  0  0  0  0  0  0  0  0
  -25.7357  -13.4478   21.1658 C   0  0  0  0  0  0  0  0  0  0  0  0
  -25.3128  -20.0784   19.8603 C   0  0  0  0  0  0  0  0  0  0  0  0
  -19.4193  -28.4554   22.3122 C   0  0  0  0  0  0  0  0  0  0  0  0
  -28.6075  -25.2500   26.3614 C   0  0  0  0  0  0  0  0  0  0  0  0
  -23.1538  -21.1759   20.0715 C   0  0  0  0  0  0  0  0  0  0  0  0
  -29.1331  -23.0858   27.1113 C   0  0  0  0  0  0  0  0  0  0  0  0
  -29.3613  -20.3573   26.5769 C   0  0  0  0  0  0  0  0  0  0  0  0
  -28.3773  -22.1670   27.8394 C   0  0  0  0  0  0  0  0  0  0  0  0
  -27.3230  -27.7644   23.2108 C   0  0  0  0  0  0  0  0  0  0  0  0
  -27.0495  -28.7465   21.2626 C   0  0  0  0  0  0  0  0  0  0  0  0
  -19.3480  -26.1435   22.5409 C   0  0  0  0  0  0  0  0  0  0  0  0
  -20.5330  -22.7903   21.9104 C   0  0  0  0  0  0  0  0  0  0  0  0
  -19.3895  -22.5059   22.7882 C   0  0  0  0  0  0  0  0  0  0  0  0
  -20.6461  -24.2498   21.7145 C   0  0  0  0  0  0  0  0  0  0  0  0
  -21.3421  -21.8764   21.3744 C   0  0  0  0  0  0  0  0  0  1  0  0
  -28.7370  -26.9024   21.2429 C   0  0  0  0  0  0  0  0  0  0  0  0
  -26.5809  -16.9988   20.5924 C   0  0  0  0  0  0  0  0  0  0  0  0
  -28.9532  -18.9484   19.5467 C   0  0  0  0  0  0  0  0  0  0  0  0
  -29.8979  -22.0533   18.4914 C   0  0  0  0  0  0  0  0  0  0  0  0
  -21.7687  -31.3008   22.4626 C   0  0  0  0  0  0  0  0  0  0  0  0
  -27.9005  -12.1634   21.5595 C   0  0  0  0  0  0  0  0  0  0  0  0
  -25.5536  -17.9655   18.5029 C   0  0  0  0  0  0  0  0  0  0  0  0
  -26.7818  -20.0591   20.1920 C   0  0  0  0  0  0  0  0  0  0  0  0
  -18.7453  -23.8059   23.1698 C   0  0  0  0  0  0  0  0  0  0  0  0
  -28.5855  -13.5236   21.6630 C   0  0  0  0  0  0  0  0  0  0  0  0
  -24.9216  -32.9313   22.1844 C   0  0  0  0  0  0  0  0  0  0  0  0
  -27.6861  -14.5206   22.3867 C   0  0  0  0  0  0  0  0  0  0  0  0
  -25.9345  -31.7904   22.2953 C   0  0  0  0  0  0  0  0  0  0  0  0
  -23.7126  -32.7027   23.0889 C   0  0  0  0  0  0  0  0  0  0  0  0
  -24.0517  -30.2627   23.0165 C   0  0  0  0  0  0  0  0  0  0  0  0
  -26.3773  -14.7413   21.6187 C   0  0  1  0  0  0  0  0  0  0  0  0
  -26.8331  -17.7112   19.2937 C   0  0  1  0  0  0  0  0  0  0  0  0
  -25.2623  -30.4210   22.0806 C   0  0  2  0  0  0  0  0  0  0  0  0
  -31.9108  -23.3518   17.7434 C   0  0  0  0  0  0  0  0  0  0  0  0
  -29.9061  -19.1329   22.4395 C   0  0  0  0  0  0  0  0  0  0  0  0
  -31.2697  -21.1296   21.7897 C   0  0  0  0  0  0  0  0  0  0  0  0
  -31.7368  -18.9106   20.7502 C   0  0  0  0  0  0  0  0  0  0  0  0
  -28.7084  -22.5906   15.8353 C   0  0  0  0  0  0  0  0  0  0  0  0
  -19.9205  -29.7665   21.8386 C   0  0  0  0  0  0  0  0  0  0  0  0
  -29.6482  -20.1732   20.0906 C   0  0  1  0  0  0  0  0  0  0  0  0
  -30.7277  -22.5040   17.3028 C   0  0  2  0  0  0  0  0  0  0  0  0
  -30.6121  -19.8362   21.2630 C   0  0  0  0  0  0  0  0  0  0  0  0
  -26.3976  -28.7010   23.4353 N   0  0  0  0  0  0  0  0  0  0  0  0
  -26.2529  -29.2814   22.2319 N   0  0  0  0  0  0  0  0  0  0  0  0
  -19.5829  -24.7958   22.4679 N   0  0  0  0  0  0  0  0  0  0  0  0
  -27.5529  -18.9449   19.6163 N   0  0  0  0  0  0  0  0  0  0  0  0
  -23.1206  -31.3872   22.8342 N   0  0  0  0  0  0  0  0  0  0  0  0
  -27.0299  -29.2114   19.9954 N   0  0  0  0  0  0  0  0  0  0  0  0
  -29.3789  -25.9269   22.0178 N   0  0  0  0  0  0  0  0  0  0  0  0
  -26.5955  -15.6208   20.4903 N   0  0  0  0  0  0  0  0  0  0  0  0
  -30.2947  -20.8154   18.9513 N   0  0  0  0  0  0  0  0  0  0  0  0
  -21.2887  -30.0170   22.2337 N   0  0  0  0  0  0  0  0  0  0  0  0
  -29.8951  -23.3099   16.3656 N   0  3  0  0  0  0  0  0  0  0  0  0
  -19.0247  -21.3993   23.1464 O   0  0  0  0  0  0  0  0  0  0  0  0
  -21.4907  -24.8134   21.0398 O   0  0  0  0  0  0  0  0  0  0  0  0
  -29.0390  -27.0207   20.0312 O   0  0  0  0  0  0  0  0  0  0  0  0
  -26.3887  -17.6510   21.6119 O   0  0  0  0  0  0  0  0  0  0  0  0
  -29.6277  -18.0316   19.0710 O   0  0  0  0  0  0  0  0  0  0  0  0
  -28.9912  -22.7332   18.9669 O   0  0  0  0  0  0  0  0  0  0  0  0
  -21.0447  -32.2944   22.3385 O   0  0  0  0  0  0  0  0  0  0  0  0
  -29.0203  -24.4406   27.3748 O   0  0  0  0  0  0  0  0  0  0  0  0
  -22.3946  -22.1931   20.5623 O   0  0  0  0  0  0  0  0  0  1  0  0
  -29.4698  -19.0473   26.3192 F   0  0  0  0  0  0  0  0  0  0  0  0
  -27.5390  -22.5890   28.7960 F   0  0  0  0  0  0  0  0  0  0  0  0
  -18.0209  -26.6540   23.4951 S   0  0  0  0  0  0  0  0  0  0  0  0
  1  2  1  0  0  0  0
  1  5  2  0  0  0  0
  2  6  2  0  0  0  0
  3  8  2  0  0  0  0
  3 17  1  0  0  0  0
  4  9  1  0  0  0  0
  4 17  2  0  0  0  0
  5 19  1  0  0  0  0
  6 21  1  0  0  0  0
  7 10  2  0  0  0  0
  7 20  1  0  0  0  0
  8 24  1  0  0  0  0
  9 24  2  0  0  0  0
 10 25  1  0  0  0  0
 11 12  2  0  0  0  0
 11 26  1  0  0  0  0
 12 27  1  0  0  0  0
 13 22  1  0  0  0  0
 13 25  2  0  0  0  0
 14 23  1  0  0  0  0
 14 31  2  0  0  0  0
 15 27  2  0  0  0  0
 15 28  1  0  0  0  0
 16 23  2  0  0  0  0
 16 85  1  0  0  0  0
 17 29  1  0  0  0  0
 18 29  1  0  0  0  0
 18 30  2  0  0  0  0
 18 36  1  0  0  0  0
 19 21  2  0  0  0  0
 19 41  1  0  0  0  0
 20 22  2  0  0  0  0
 20 42  1  0  0  0  0
 21 51  1  0  0  0  0
 22 43  1  0  0  0  0
 23 59  1  0  0  0  0
 24 81  1  0  0  0  0
 25 82  1  0  0  0  0
 26 28  2  0  0  0  0
 26 81  1  0  0  0  0
 27 83  1  0  0  0  0
 28 84  1  0  0  0  0
 29 63  2  0  0  0  0
 30 64  1  0  0  0  0
 30 68  1  0  0  0  0
 31 65  1  0  0  0  0
 31 85  1  0  0  0  0
 32 33  1  0  0  0  0
 32 34  1  0  0  0  0
 32 35  2  0  0  0  0
 33 44  1  0  0  0  0
 33 74  2  0  0  0  0
 34 65  1  0  0  0  0
 34 75  2  0  0  0  0
 35 82  1  0  0  0  0
 36 69  1  0  0  0  0
 36 76  2  0  0  0  0
 37 52  1  0  0  0  0
 37 70  1  0  0  0  0
 37 77  2  0  0  0  0
 38 60  1  0  0  0  0
 38 66  1  0  0  0  0
 38 78  2  0  0  0  0
 39 61  1  0  0  0  0
 39 71  1  0  0  0  0
 39 79  2  0  0  0  0
 40 67  1  0  0  0  0
 40 72  1  0  0  0  0
 40 80  2  0  0  0  0
 41 45  1  0  0  0  0
 42 52  1  0  0  0  0
 43 66  1  0  0  0  0
 44 65  1  0  0  0  0
 45 47  1  0  0  0  0
 46 48  1  0  0  0  0
 46 49  1  0  0  0  0
 47 51  1  0  0  0  0
 48 53  1  0  0  0  0
 49 67  1  0  0  0  0
 50 53  1  0  0  0  0
 50 67  1  0  0  0  0
 51 70  1  0  0  0  0
 52 66  1  0  0  0  0
 53 64  1  0  0  0  0
 54 61  1  0  0  0  0
 55 62  1  0  0  0  0
 56 62  1  0  0  0  0
 57 62  1  0  0  0  0
 58 73  1  0  0  0  0
 59 72  1  0  0  0  0
 60 62  1  0  0  0  0
 60 71  1  0  0  0  0
 61 73  1  0  0  0  0
 63 64  1  0  0  0  0
M  CHG  1  73   1
M  ISO  4  35 101  40 100  72 100  82 101
M  END
> <Batch ID>
0087

> <Smiles>
CNC(C)C(=O)NC(C(=O)N1Cc2cc([101O:1][101CH:1]=C3C(=O)CN(c4cc(C[100NH:0][100C:0](=O)N5CCCC(n6nc(-c7ccc(Oc8ccc(F)cc8F)cc7)c(C(N)=O)c6N)C5)cs4)C3=O)ccc2CC1C(=O)NC1CCCc2ccccc21)C(C)(C)C

> <Shape>
0.207

> <Color>
0.081

> <Negative vol penalty>
0.000

$$$$

  -OEChem-04052300203D

 82 90  0     1  0  0  0  0  0999 V2000
  -23.7837  -15.8151   19.4473 C   0  0  0  0  0  0  0  0  0  0  0  0
  -19.3176  -28.3306   22.3586 C   0  0  0  0  0  0  0  0  0  0  0  0
  -19.0564  -27.0769   21.8151 C   0  0  0  0  0  0  0  0  0  0  0  0
  -24.5611  -11.9338   21.0508 C   0  0  0  0  0  0  0  0  0  0  0  0
  -27.4262  -22.9826   20.4950 C   0  0  0  0  0  0  0  0  0  0  0  0
  -29.0544  -23.3076   18.7400 C   0  0  0  0  0  0  0  0  0  0  0  0
  -25.8739  -12.0513   21.5071 C   0  0  0  0  0  0  0  0  0  0  0  0
  -20.5549  -28.5902   22.9464 C   0  0  0  0  0  0  0  0  0  0  0  0
  -20.0328  -26.0823   21.8582 C   0  0  0  0  0  0  0  0  0  0  0  0
  -20.7426  -18.9764   22.4229 C   0  0  0  0  0  0  0  0  0  0  0  0
  -24.0380  -12.8879   20.1780 C   0  0  0  0  0  0  0  0  0  0  0  0
  -27.3213  -24.3644   20.6536 C   0  0  0  0  0  0  0  0  0  0  0  0
  -28.9495  -24.6894   18.8985 C   0  0  0  0  0  0  0  0  0  0  0  0
  -21.3597  -17.9015   21.7845 C   0  0  0  0  0  0  0  0  0  0  0  0
  -29.3787  -28.2936   19.0863 C   0  0  0  0  0  0  0  0  0  0  0  0
  -30.5602  -29.0344   19.1156 C   0  0  0  0  0  0  0  0  0  0  0  0
  -26.1406  -14.0772   20.2180 C   0  0  0  0  0  0  0  0  0  0  0  0
  -23.4321  -18.4390   22.8958 C   0  0  0  0  0  0  0  0  0  0  0  0
  -31.2921  -27.7906   21.0532 C   0  0  0  0  0  0  0  0  0  0  0  0
  -28.2928  -22.4541   19.5382 C   0  0  0  0  0  0  0  0  0  0  0  0
  -26.6636  -13.1230   21.0908 C   0  0  0  0  0  0  0  0  0  0  0  0
  -27.6417  -20.2089   18.5172 C   0  0  0  0  0  0  0  0  0  0  0  0
  -21.5435  -27.5953   23.0054 C   0  0  0  0  0  0  0  0  0  0  0  0
  -21.4696  -19.7986   23.2957 C   0  0  0  0  0  0  0  0  0  0  0  0
  -21.2850  -26.3292   22.4462 C   0  0  0  0  0  0  0  0  0  0  0  0
  -22.8213  -19.5222   23.5460 C   0  0  0  0  0  0  0  0  0  0  0  0
  -24.8277  -13.9596   19.7617 C   0  0  0  0  0  0  0  0  0  0  0  0
  -28.0829  -25.2178   19.8554 C   0  0  0  0  0  0  0  0  0  0  0  0
  -22.7054  -17.6344   22.0187 C   0  0  0  0  0  0  0  0  0  0  0  0
  -29.1538  -27.3014   20.0405 C   0  0  0  0  0  0  0  0  0  0  0  0
  -31.5169  -28.7829   20.0990 C   0  0  0  0  0  0  0  0  0  0  0  0
  -30.1105  -27.0498   21.0240 C   0  0  0  0  0  0  0  0  0  0  0  0
  -28.4020  -21.0268   19.3743 C   0  0  0  0  0  0  0  0  0  0  0  0
  -28.1270  -18.9420   18.7316 C   0  0  0  0  0  0  0  0  0  0  0  0
  -28.0617  -13.2472   21.5774 C   0  0  0  0  0  0  0  0  0  0  0  0
  -26.5907  -20.5627   17.6083 C   0  0  0  0  0  0  0  0  0  0  0  0
  -22.2539  -22.8786   23.3447 C   0  0  0  0  0  0  0  0  0  0  0  0
  -23.4279  -22.1323   26.2751 C   0  0  0  0  0  0  0  0  0  0  0  0
  -24.6387  -19.7416   28.3882 C   0  0  0  0  0  0  0  0  0  0  0  0
  -29.8453  -14.8842   22.0901 C   0  0  0  0  0  0  0  0  0  0  0  0
  -22.8828  -27.9375   23.6087 C   0  0  0  0  0  0  0  0  0  0  0  0
  -20.7826  -20.9381   23.9971 C   0  0  0  0  0  0  0  0  0  0  0  0
  -23.6410  -20.3624   24.4897 C   0  0  0  0  0  0  0  0  0  0  0  0
  -23.7288  -26.7130   23.9479 C   0  0  0  0  0  0  0  0  0  0  0  0
  -32.2232  -17.3643   21.2587 C   0  0  0  0  0  0  0  0  0  0  0  0
  -23.7272  -25.7246   22.7861 C   0  0  0  0  0  0  0  0  0  0  0  0
  -31.3818  -18.4702   20.6157 C   0  0  0  0  0  0  0  0  0  0  0  0
  -31.4943  -16.7041   22.4282 C   0  0  0  0  0  0  0  0  0  0  0  0
  -29.3061  -17.3216   21.4854 C   0  0  0  0  0  0  0  0  0  0  0  0
  -22.3097  -25.2168   22.4958 C   0  0  1  0  0  0  0  0  0  0  0  0
  -21.7497  -22.0192   24.4694 C   0  0  1  0  0  0  0  0  0  0  0  0
  -29.9677  -17.9698   20.2585 C   0  0  1  0  0  0  0  0  0  0  0  0
  -25.5526  -19.4411   30.7059 C   0  0  0  0  0  0  0  0  0  0  0  0
  -26.0805  -23.3490   25.3842 C   0  0  0  0  0  0  0  0  0  0  0  0
  -27.1793  -22.1919   27.3135 C   0  0  0  0  0  0  0  0  0  0  0  0
  -25.4136  -23.9041   27.7298 C   0  0  0  0  0  0  0  0  0  0  0  0
  -22.4506  -17.8948   29.1368 C   0  0  0  0  0  0  0  0  0  0  0  0
  -24.7561  -21.6458   26.8025 C   0  0  1  0  0  0  0  0  0  0  0  0
  -24.3078  -19.4130   29.8329 C   0  0  2  0  0  0  0  0  0  0  0  0
  -25.8427  -22.7579   26.7882 C   0  0  0  0  0  0  0  0  0  0  0  0
  -29.3018  -20.3374   20.0808 N   0  0  0  0  0  0  0  0  0  0  0  0
  -24.2989  -14.9236   18.8795 N   0  0  0  0  0  0  0  0  0  0  0  0
  -23.2647  -16.7138   19.9967 N   0  0  0  0  0  0  0  0  0  1  0  0
  -29.1099  -19.0730   19.6680 N   0  0  0  0  0  0  0  0  0  0  0  0
  -22.9257  -21.4690   25.1466 N   0  0  0  0  0  0  0  0  0  0  0  0
  -30.1684  -16.2497   22.0054 N   0  0  0  0  0  0  0  0  0  0  0  0
  -27.8044  -17.7399   18.2088 N   0  0  0  0  0  0  0  0  0  0  0  0
  -26.2164  -21.9099   17.5115 N   0  0  0  0  0  0  0  0  0  0  0  0
  -28.5707  -14.5454   21.6222 N   0  0  0  0  0  0  0  0  0  0  0  0
  -21.9231  -24.2148   23.4659 N   0  0  0  0  0  0  0  0  0  0  0  0
  -24.4907  -21.0867   28.1236 N   0  0  0  0  0  0  0  0  0  0  0  0
  -23.6969  -18.0571   29.9288 N   0  3  0  0  0  0  0  0  0  0  0  0
  -28.6606  -12.2383   21.9398 O   0  0  0  0  0  0  0  0  0  0  0  0
  -25.9899  -19.7073   16.9149 O   0  0  0  0  0  0  0  0  0  0  0  0
  -22.8967  -22.3675   22.4352 O   0  0  0  0  0  0  0  0  0  0  0  0
  -22.8536  -23.0618   26.8478 O   0  0  0  0  0  0  0  0  0  0  0  0
  -24.9965  -18.8908   27.5767 O   0  0  0  0  0  0  0  0  0  0  0  0
  -30.6368  -14.0342   22.5100 O   0  0  0  0  0  0  0  0  0  0  0  0
  -27.9806  -26.5663   20.0097 O   0  0  0  0  0  0  0  0  0  0  0  0
  -23.3103  -16.5863   21.3963 O   0  0  0  0  0  0  0  0  0  1  0  0
  -32.6521  -29.4933   20.1260 F   0  0  0  0  0  0  0  0  0  0  0  0
  -29.9006  -26.0970   21.9426 F   0  0  0  0  0  0  0  0  0  0  0  0
  1 62  2  0  0  0  0
  1 63  2  0  0  0  0
  2  3  1  0  0  0  0
  2  8  2  0  0  0  0
  3  9  2  0  0  0  0
  4  7  1  0  0  0  0
  4 11  2  0  0  0  0
  5 12  2  0  0  0  0
  5 20  1  0  0  0  0
  6 13  1  0  0  0  0
  6 20  2  0  0  0  0
  7 21  2  0  0  0  0
  8 23  1  0  0  0  0
  9 25  1  0  0  0  0
 10 14  2  0  0  0  0
 10 24  1  0  0  0  0
 11 27  1  0  0  0  0
 12 28  1  0  0  0  0
 13 28  2  0  0  0  0
 14 29  1  0  0  0  0
 15 16  2  0  0  0  0
 15 30  1  0  0  0  0
 16 31  1  0  0  0  0
 17 21  1  0  0  0  0
 17 27  2  0  0  0  0
 18 26  1  0  0  0  0
 18 29  2  0  0  0  0
 19 31  2  0  0  0  0
 19 32  1  0  0  0  0
 20 33  1  0  0  0  0
 21 35  1  0  0  0  0
 22 33  1  0  0  0  0
 22 34  2  0  0  0  0
 22 36  1  0  0  0  0
 23 25  2  0  0  0  0
 23 41  1  0  0  0  0
 24 26  2  0  0  0  0
 24 42  1  0  0  0  0
 25 50  1  0  0  0  0
 26 43  1  0  0  0  0
 27 62  1  0  0  0  0
 28 79  1  0  0  0  0
 29 80  1  0  0  0  0
 30 32  2  0  0  0  0
 30 79  1  0  0  0  0
 31 81  1  0  0  0  0
 32 82  1  0  0  0  0
 33 61  2  0  0  0  0
 34 64  1  0  0  0  0
 34 67  1  0  0  0  0
 35 69  1  0  0  0  0
 35 73  2  0  0  0  0
 36 68  1  0  0  0  0
 36 74  2  0  0  0  0
 37 51  1  0  0  0  0
 37 70  1  0  0  0  0
 37 75  2  0  0  0  0
 38 58  1  0  0  0  0
 38 65  1  0  0  0  0
 38 76  2  0  0  0  0
 39 59  1  0  0  0  0
 39 71  1  0  0  0  0
 39 77  2  0  0  0  0
 40 66  1  0  0  0  0
 40 69  1  0  0  0  0
 40 78  2  0  0  0  0
 41 44  1  0  0  0  0
 42 51  1  0  0  0  0
 43 65  1  0  0  0  0
 44 46  1  0  0  0  0
 45 47  1  0  0  0  0
 45 48  1  0  0  0  0
 46 50  1  0  0  0  0
 47 52  1  0  0  0  0
 48 66  1  0  0  0  0
 49 52  1  0  0  0  0
 49 66  1  0  0  0  0
 50 70  1  0  0  0  0
 51 65  1  0  0  0  0
 52 64  1  0  0  0  0
 53 59  1  0  0  0  0
 54 60  1  0  0  0  0
 55 60  1  0  0  0  0
 56 60  1  0  0  0  0
 57 72  1  0  0  0  0
 58 60  1  0  0  0  0
 58 71  1  0  0  0  0
 59 72  1  0  0  0  0
 61 64  1  0  0  0  0
 63 80  1  0  0  0  0
M  CHG  1  72   1
M  ISO  4  40 100  63 101  69 100  80 101
M  END
> <Batch ID>
0087

> <Smiles>
CNC(C)C(=O)NC(C(=O)N1Cc2cc([101O:1][101N:1]=C=Nc3cccc(C(=O)[100NH:0][100C:0](=O)N4CCCC(n5nc(-c6ccc(Oc7ccc(F)cc7F)cc6)c(C(N)=O)c5N)C4)c3)ccc2CC1C(=O)NC1CCCc2ccccc21)C(C)(C)C

> <Shape>
0.199

> <Color>
0.057

> <Negative vol penalty>
0.000

$$$$

  -OEChem-04052300203D

 83 91  0     1  0  0  0  0  0999 V2000
  -28.0648  -23.4050   19.7071 C   0  0  0  0  0  0  0  0  0  0  0  0
  -20.3699  -33.0145   16.4802 C   0  0  0  0  0  0  0  0  0  0  0  0
  -20.9300  -31.7423   16.5369 C   0  0  0  0  0  0  0  0  0  0  0  0
  -23.5459   -9.8624   21.9046 C   0  0  0  0  0  0  0  0  0  0  0  0
  -24.2072  -11.1964   23.8072 C   0  0  0  0  0  0  0  0  0  0  0  0
  -20.8704  -34.0321   17.2914 C   0  0  0  0  0  0  0  0  0  0  0  0
  -21.9917  -31.4872   17.4041 C   0  0  0  0  0  0  0  0  0  0  0  0
  -23.1036  -26.2804   20.4304 C   0  0  0  0  0  0  0  0  0  0  0  0
  -22.9515   -8.9356   22.7609 C   0  0  0  0  0  0  0  0  0  0  0  0
  -23.6128  -10.2697   24.6636 C   0  0  0  0  0  0  0  0  0  0  0  0
  -23.9591  -25.2101   20.1728 C   0  0  0  0  0  0  0  0  0  0  0  0
  -20.0793   -8.6572   24.5233 C   0  0  0  0  0  0  0  0  0  0  0  0
  -18.8102   -8.1857   24.1879 C   0  0  0  0  0  0  0  0  0  0  0  0
  -29.0563  -18.8307   19.8010 C   0  0  0  0  0  0  0  0  0  0  0  0
  -30.5981  -20.4723   18.9265 C   0  0  0  0  0  0  0  0  0  0  0  0
  -25.6169  -26.1940   21.6231 C   0  0  0  0  0  0  0  0  0  0  0  0
  -31.2009  -18.1328   18.9347 C   0  0  0  0  0  0  0  0  0  0  0  0
  -19.6732   -5.9312   24.0914 C   0  0  0  0  0  0  0  0  0  0  0  0
  -24.1738  -10.9928   22.4277 C   0  0  0  0  0  0  0  0  0  0  0  0
  -29.3693  -20.1577   19.5068 C   0  0  0  0  0  0  0  0  0  0  0  0
  -24.1838  -13.0804   20.9616 C   0  0  0  0  0  0  0  0  0  0  0  0
  -21.9325  -33.7868   18.1760 C   0  0  0  0  0  0  0  0  0  0  0  0
  -23.5032  -27.3227   21.2792 C   0  0  0  0  0  0  0  0  0  0  0  0
  -22.5078  -32.5027   18.2269 C   0  0  0  0  0  0  0  0  0  0  0  0
  -24.7636  -27.2750   21.8918 C   0  0  0  0  0  0  0  0  0  0  0  0
  -29.9721  -17.8182   19.5150 C   0  0  0  0  0  0  0  0  0  0  0  0
  -22.9849   -9.1392   24.1404 C   0  0  0  0  0  0  0  0  0  0  0  0
  -25.2171  -25.1682   20.7669 C   0  0  0  0  0  0  0  0  0  0  0  0
  -21.1455   -7.7657   24.6426 C   0  0  0  0  0  0  0  0  0  0  0  0
  -18.6071   -6.8227   23.9720 C   0  0  0  0  0  0  0  0  0  0  0  0
  -31.5139  -19.4598   18.6405 C   0  0  0  0  0  0  0  0  0  0  0  0
  -20.9424   -6.4027   24.4267 C   0  0  0  0  0  0  0  0  0  0  0  0
  -24.7885  -11.9502   21.5437 C   0  0  0  0  0  0  0  0  0  0  0  0
  -25.1809  -13.6559   20.2126 C   0  0  0  0  0  0  0  0  0  0  0  0
  -27.2665  -24.3954   19.9463 C   0  0  0  0  0  0  0  0  0  1  0  0
  -28.3907  -21.2419   19.8151 C   0  0  0  0  0  0  0  0  0  0  0  0
  -22.8408  -13.5666   21.0869 C   0  0  0  0  0  0  0  0  0  0  0  0
  -23.9667  -30.4478   20.9291 C   0  0  0  0  0  0  0  0  0  0  0  0
  -24.4063  -30.3475   24.1414 C   0  0  0  0  0  0  0  0  0  0  0  0
  -25.2409  -28.5131   26.8956 C   0  0  0  0  0  0  0  0  0  0  0  0
  -30.4500  -15.3460   19.5939 C   0  0  0  0  0  0  0  0  0  0  0  0
  -22.4707  -34.9304   18.9989 C   0  0  0  0  0  0  0  0  0  0  0  0
  -22.5583  -28.4568   21.5679 C   0  0  0  0  0  0  0  0  0  0  0  0
  -25.2323  -28.3589   22.8267 C   0  0  0  0  0  0  0  0  0  0  0  0
  -23.3517  -34.4821   20.1621 C   0  0  0  0  0  0  0  0  0  0  0  0
  -29.7583  -11.9170   18.9299 C   0  0  0  0  0  0  0  0  0  0  0  0
  -24.3568  -33.4331   19.6970 C   0  0  0  0  0  0  0  0  0  0  0  0
  -28.3539  -11.7129   19.5029 C   0  0  0  0  0  0  0  0  0  0  0  0
  -30.5871  -12.8723   19.7868 C   0  0  0  0  0  0  0  0  0  0  0  0
  -28.5482  -13.9633   20.6364 C   0  0  0  0  0  0  0  0  0  0  0  0
  -23.6443  -32.1805   19.1728 C   0  0  1  0  0  0  0  0  0  0  0  0
  -23.2689  -29.7203   22.0433 C   0  0  1  0  0  0  0  0  0  0  0  0
  -27.6540  -13.0595   19.7721 C   0  0  2  0  0  0  0  0  0  0  0  0
  -25.5484  -28.7151   29.3779 C   0  0  0  0  0  0  0  0  0  0  0  0
  -27.0779  -31.7519   23.6938 C   0  0  0  0  0  0  0  0  0  0  0  0
  -27.7409  -31.0790   26.0124 C   0  0  0  0  0  0  0  0  0  0  0  0
  -25.7804  -32.5817   25.6642 C   0  0  0  0  0  0  0  0  0  0  0  0
  -23.1097  -26.5324   27.4376 C   0  0  0  0  0  0  0  0  0  0  0  0
  -25.5915  -30.1359   25.0522 C   0  0  1  0  0  0  0  0  0  0  0  0
  -24.5791  -28.3793   28.2552 C   0  0  2  0  0  0  0  0  0  0  0  0
  -26.5399  -31.3675   25.0865 C   0  0  0  0  0  0  0  0  0  0  0  0
  -26.0705  -11.8140   21.1943 N   0  0  0  0  0  0  0  0  0  0  0  0
  -28.8011  -22.5181   19.4835 N   0  0  0  0  0  0  0  0  0  0  0  0
  -26.2794  -12.8660   20.3846 N   0  0  0  0  0  0  0  0  0  0  0  0
  -24.2747  -29.4498   23.0725 N   0  0  0  0  0  0  0  0  0  0  0  0
  -29.8628  -14.1278   19.9964 N   0  0  0  0  0  0  0  0  0  0  0  0
  -25.2164  -14.7555   19.4303 N   0  0  0  0  0  0  0  0  0  0  0  0
  -21.9452  -12.8546   21.8965 N   0  0  0  0  0  0  0  0  0  0  0  0
  -29.6544  -16.4700   19.8136 N   0  0  0  0  0  0  0  0  0  0  0  0
  -23.1720  -31.3694   20.2744 N   0  0  0  0  0  0  0  0  0  0  0  0
  -25.0455  -29.7658   26.3534 N   0  0  0  0  0  0  0  0  0  0  0  0
  -24.0892  -26.9866   28.4580 N   0  3  0  0  0  0  0  0  0  0  0  0
  -27.3159  -20.9378   20.3281 O   0  0  0  0  0  0  0  0  0  0  0  0
  -22.4421  -14.5926   20.4854 O   0  0  0  0  0  0  0  0  0  0  0  0
  -25.1398  -30.1930   20.6827 O   0  0  0  0  0  0  0  0  0  0  0  0
  -23.6221  -31.2708   24.3741 O   0  0  0  0  0  0  0  0  0  0  0  0
  -25.8715  -27.5991   26.3689 O   0  0  0  0  0  0  0  0  0  0  0  0
  -31.5645  -15.3861   19.0663 O   0  0  0  0  0  0  0  0  0  0  0  0
  -22.4048   -8.2352   24.9764 O   0  0  0  0  0  0  0  0  0  0  0  0
  -26.0544  -24.1250   20.5166 O   0  0  0  0  0  0  0  0  0  1  0  0
  -17.3879   -6.3699   23.6515 F   0  0  0  0  0  0  0  0  0  0  0  0
  -32.6951  -19.7621   18.0860 F   0  0  0  0  0  0  0  0  0  0  0  0
  -21.9625   -5.5412   24.5411 F   0  0  0  0  0  0  0  0  0  0  0  0
  1 35  2  0  0  0  0
  1 63  2  0  0  0  0
  2  3  1  0  0  0  0
  2  6  2  0  0  0  0
  3  7  2  0  0  0  0
  4  9  2  0  0  0  0
  4 19  1  0  0  0  0
  5 10  1  0  0  0  0
  5 19  2  0  0  0  0
  6 22  1  0  0  0  0
  7 24  1  0  0  0  0
  8 11  2  0  0  0  0
  8 23  1  0  0  0  0
  9 27  1  0  0  0  0
 10 27  2  0  0  0  0
 11 28  1  0  0  0  0
 12 13  2  0  0  0  0
 12 29  1  0  0  0  0
 13 30  1  0  0  0  0
 14 20  2  0  0  0  0
 14 26  1  0  0  0  0
 15 20  1  0  0  0  0
 15 31  2  0  0  0  0
 16 25  1  0  0  0  0
 16 28  2  0  0  0  0
 17 26  2  0  0  0  0
 17 31  1  0  0  0  0
 18 30  2  0  0  0  0
 18 32  1  0  0  0  0
 19 33  1  0  0  0  0
 20 36  1  0  0  0  0
 21 33  1  0  0  0  0
 21 34  2  0  0  0  0
 21 37  1  0  0  0  0
 22 24  2  0  0  0  0
 22 42  1  0  0  0  0
 23 25  2  0  0  0  0
 23 43  1  0  0  0  0
 24 51  1  0  0  0  0
 25 44  1  0  0  0  0
 26 69  1  0  0  0  0
 27 79  1  0  0  0  0
 28 80  1  0  0  0  0
 29 32  2  0  0  0  0
 29 79  1  0  0  0  0
 30 81  1  0  0  0  0
 31 82  1  0  0  0  0
 32 83  1  0  0  0  0
 33 62  2  0  0  0  0
 34 64  1  0  0  0  0
 34 67  1  0  0  0  0
 35 80  1  0  0  0  0
 36 63  1  0  0  0  0
 36 73  2  0  0  0  0
 37 68  1  0  0  0  0
 37 74  2  0  0  0  0
 38 52  1  0  0  0  0
 38 70  1  0  0  0  0
 38 75  2  0  0  0  0
 39 59  1  0  0  0  0
 39 65  1  0  0  0  0
 39 76  2  0  0  0  0
 40 60  1  0  0  0  0
 40 71  1  0  0  0  0
 40 77  2  0  0  0  0
 41 66  1  0  0  0  0
 41 69  1  0  0  0  0
 41 78  2  0  0  0  0
 42 45  1  0  0  0  0
 43 52  1  0  0  0  0
 44 65  1  0  0  0  0
 45 47  1  0  0  0  0
 46 48  1  0  0  0  0
 46 49  1  0  0  0  0
 47 51  1  0  0  0  0
 48 53  1  0  0  0  0
 49 66  1  0  0  0  0
 50 53  1  0  0  0  0
 50 66  1  0  0  0  0
 51 70  1  0  0  0  0
 52 65  1  0  0  0  0
 53 64  1  0  0  0  0
 54 60  1  0  0  0  0
 55 61  1  0  0  0  0
 56 61  1  0  0  0  0
 57 61  1  0  0  0  0
 58 72  1  0  0  0  0
 59 61  1  0  0  0  0
 59 71  1  0  0  0  0
 60 72  1  0  0  0  0
 62 64  1  0  0  0  0
M  CHG  1  72   1
M  ISO  4  35 101  41 100  69 100  80 101
M  END
> <Batch ID>
0087

> <Smiles>
CNC(C)C(=O)NC(C(=O)N1Cc2cc([101O:1][101CH:1]=C=NC(=O)c3cc(F)cc([100NH:0][100C:0](=O)N4CCCC(n5nc(-c6ccc(Oc7ccc(F)cc7F)cc6)c(C(N)=O)c5N)C4)c3)ccc2CC1C(=O)NC1CCCc2ccccc21)C(C)(C)C

> <Shape>
0.250

> <Color>
0.141

> <Negative vol penalty>
0.000

$$$$

  -OEChem-04052300203D

 84 93  0     1  0  0  0  0  0999 V2000
  -30.0773  -33.9123   25.3837 C   0  0  0  0  0  0  0  0  0  0  0  0
  -30.0472  -32.6979   24.7057 C   0  0  0  0  0  0  0  0  0  0  0  0
  -24.6619   -9.2272   21.9585 C   0  0  0  0  0  0  0  0  0  0  0  0
  -23.2809  -10.0417   20.1511 C   0  0  0  0  0  0  0  0  0  0  0  0
  -28.9131  -34.4149   25.9633 C   0  0  0  0  0  0  0  0  0  0  0  0
  -28.8530  -31.9847   24.6080 C   0  0  0  0  0  0  0  0  0  0  0  0
  -26.9877  -28.5573   19.8878 C   0  0  0  0  0  0  0  0  0  0  0  0
  -23.5441   -8.6346   22.5456 C   0  0  0  0  0  0  0  0  0  0  0  0
  -22.1630   -9.4490   20.7383 C   0  0  0  0  0  0  0  0  0  0  0  0
  -27.0252  -27.1835   19.6536 C   0  0  0  0  0  0  0  0  0  0  0  0
  -21.6860   -5.8436   22.1087 C   0  0  0  0  0  0  0  0  0  0  0  0
  -21.8188   -4.5393   22.5849 C   0  0  0  0  0  0  0  0  0  0  0  0
  -24.7577  -26.9912   20.4542 C   0  0  0  0  0  0  0  0  0  0  0  0
  -25.5583  -19.0229   18.1665 C   0  0  0  0  0  0  0  0  0  0  0  0
  -23.7925  -19.6219   16.6303 C   0  0  0  0  0  0  0  0  0  0  0  0
  -24.5461  -17.3307   16.7705 C   0  0  0  0  0  0  0  0  0  0  0  0
  -21.2508   -5.2935   24.8088 C   0  0  0  0  0  0  0  0  0  0  0  0
  -24.5304   -9.9308   20.7612 C   0  0  0  0  0  0  0  0  0  0  0  0
  -26.5635   -9.9626   19.2208 C   0  0  0  0  0  0  0  0  0  0  0  0
  -27.7019  -33.7122   25.8643 C   0  0  0  0  0  0  0  0  0  0  0  0
  -25.8368  -29.1578   20.4181 C   0  0  0  0  0  0  0  0  0  0  0  0
  -27.6717  -32.4777   25.1879 C   0  0  0  0  0  0  0  0  0  0  0  0
  -24.7073  -28.3733   20.6919 C   0  0  0  0  0  0  0  0  0  0  0  0
  -24.7186  -19.9862   17.6077 C   0  0  0  0  0  0  0  0  0  0  0  0
  -25.4721  -17.6951   17.7479 C   0  0  0  0  0  0  0  0  0  0  0  0
  -22.2946   -8.7455   21.9356 C   0  0  0  0  0  0  0  0  0  0  0  0
  -25.9111  -26.3997   19.9395 C   0  0  0  0  0  0  0  0  0  0  0  0
  -21.3358   -6.8729   22.9826 C   0  0  0  0  0  0  0  0  0  0  0  0
  -21.6011   -4.2642   23.9350 C   0  0  0  0  0  0  0  0  0  0  0  0
  -23.7063  -18.2941   16.2117 C   0  0  0  0  0  0  0  0  0  0  0  0
  -21.1181   -6.5978   24.3326 C   0  0  0  0  0  0  0  0  0  0  0  0
  -25.6846  -10.5437   20.1545 C   0  0  0  0  0  0  0  0  0  0  0  0
  -27.4854  -10.9464   18.9587 C   0  0  0  0  0  0  0  0  0  0  0  0
  -24.9789  -23.2206   18.5373 C   0  0  0  0  0  0  0  0  0  0  0  0
  -24.1292  -22.4156   17.6589 C   0  0  0  0  0  0  0  0  0  0  0  0
  -25.0376  -24.5307   18.8376 C   0  0  0  0  0  0  0  0  0  1  0  0
  -26.5480   -8.6509   18.6422 C   0  0  0  0  0  0  0  0  0  0  0  0
  -25.1681  -30.7666   23.0768 C   0  0  0  0  0  0  0  0  0  0  0  0
  -22.2917  -31.1842   21.6365 C   0  0  0  0  0  0  0  0  0  0  0  0
  -20.0051  -30.0780   19.3573 C   0  0  0  0  0  0  0  0  0  0  0  0
  -27.2991  -16.9095   19.2943 C   0  0  0  0  0  0  0  0  0  0  0  0
  -26.4797  -34.2725   26.5476 C   0  0  0  0  0  0  0  0  0  0  0  0
  -25.8031  -30.6451   20.6400 C   0  0  0  0  0  0  0  0  0  0  0  0
  -23.4402  -28.9725   21.2432 C   0  0  0  0  0  0  0  0  0  0  0  0
  -25.7211  -21.9627   18.9266 C   0  0  0  0  0  0  0  0  0  0  0  0
  -25.1738  -33.6373   26.0770 C   0  0  0  0  0  0  0  0  0  0  0  0
  -29.5774  -14.7521   20.9773 C   0  0  0  0  0  0  0  0  0  0  0  0
  -25.3047  -32.1181   26.0326 C   0  0  0  0  0  0  0  0  0  0  0  0
  -28.9206  -13.3742   20.8670 C   0  0  0  0  0  0  0  0  0  0  0  0
  -28.5431  -15.8594   21.1718 C   0  0  0  0  0  0  0  0  0  0  0  0
  -26.8076  -14.5054   20.0654 C   0  0  0  0  0  0  0  0  0  0  0  0
  -26.3902  -31.6867   25.0391 C   0  0  1  0  0  0  0  0  0  0  0  0
  -24.7567  -31.0729   21.6644 C   0  0  1  0  0  0  0  0  0  0  0  0
  -27.8050  -13.3651   19.8036 C   0  0  2  0  0  0  0  0  0  0  0  0
  -17.7332  -30.6053   18.4311 C   0  0  0  0  0  0  0  0  0  0  0  0
  -21.0034  -30.0644   24.1656 C   0  0  0  0  0  0  0  0  0  0  0  0
  -18.8948  -29.7274   22.8585 C   0  0  0  0  0  0  0  0  0  0  0  0
  -19.8137  -32.0256   23.1693 C   0  0  0  0  0  0  0  0  0  0  0  0
  -21.0793  -30.4587   16.6260 C   0  0  0  0  0  0  0  0  0  0  0  0
  -20.9893  -30.4213   21.6085 C   0  0  1  0  0  0  0  0  0  0  0  0
  -19.2324  -30.8049   18.2715 C   0  0  2  0  0  0  0  0  0  0  0  0
  -20.1997  -30.5478   22.9419 C   0  0  0  0  0  0  0  0  0  0  0  0
  -26.0183  -11.7992   20.4647 N   0  0  0  0  0  0  0  0  0  0  0  0
  -27.1172  -12.0152   19.7218 N   0  0  0  0  0  0  0  0  0  0  0  0
  -24.8034  -21.2959   18.0200 N   0  0  0  0  0  0  0  0  0  0  0  0
  -23.4588  -30.4302   21.4489 N   0  0  0  0  0  0  0  0  0  0  0  0
  -27.5204  -15.7911   20.1256 N   0  0  0  0  0  0  0  0  0  0  0  0
  -28.5670  -10.9929   18.1522 N   0  0  0  0  0  0  0  0  0  0  0  0
  -25.5302   -7.7652   19.0218 N   0  0  0  0  0  0  0  0  0  0  0  0
  -26.3253  -16.7162   18.3150 N   0  0  0  0  0  0  0  0  0  0  0  0
  -25.8962  -31.7734   23.6816 N   0  0  0  0  0  0  0  0  0  0  0  0
  -20.2627  -30.8970   20.4363 N   0  0  0  0  0  0  0  0  0  0  0  0
  -19.6328  -30.3032   16.9265 N   0  3  0  0  0  0  0  0  0  0  0  0
  -23.2079  -22.6485   16.9043 O   0  0  0  0  0  0  0  0  0  0  0  0
  -27.4205   -8.2697   17.8255 O   0  0  0  0  0  0  0  0  0  0  0  0
  -24.8474  -29.6968   23.5810 O   0  0  0  0  0  0  0  0  0  0  0  0
  -22.2737  -32.4052   21.8110 O   0  0  0  0  0  0  0  0  0  0  0  0
  -20.3429  -28.9003   19.2598 O   0  0  0  0  0  0  0  0  0  0  0  0
  -27.9462  -17.9519   19.4229 O   0  0  0  0  0  0  0  0  0  0  0  0
  -21.2036   -8.1671   22.5081 O   0  0  0  0  0  0  0  0  0  0  0  0
  -25.9452  -25.0584   19.7125 O   0  0  0  0  0  0  0  0  0  1  0  0
  -21.7271   -3.0114   24.3918 F   0  0  0  0  0  0  0  0  0  0  0  0
  -22.8176  -17.9440   15.2726 F   0  0  0  0  0  0  0  0  0  0  0  0
  -20.7802   -7.5823   25.1767 F   0  0  0  0  0  0  0  0  0  0  0  0
  1  2  1  0  0  0  0
  1  5  2  0  0  0  0
  2  6  2  0  0  0  0
  3  8  2  0  0  0  0
  3 18  1  0  0  0  0
  4  9  1  0  0  0  0
  4 18  2  0  0  0  0
  5 20  1  0  0  0  0
  6 22  1  0  0  0  0
  7 10  2  0  0  0  0
  7 21  1  0  0  0  0
  8 26  1  0  0  0  0
  9 26  2  0  0  0  0
 10 27  1  0  0  0  0
 11 12  2  0  0  0  0
 11 28  1  0  0  0  0
 12 29  1  0  0  0  0
 13 23  1  0  0  0  0
 13 27  2  0  0  0  0
 14 24  2  0  0  0  0
 14 25  1  0  0  0  0
 15 24  1  0  0  0  0
 15 30  2  0  0  0  0
 16 25  2  0  0  0  0
 16 30  1  0  0  0  0
 17 29  2  0  0  0  0
 17 31  1  0  0  0  0
 18 32  1  0  0  0  0
 19 32  1  0  0  0  0
 19 33  2  0  0  0  0
 19 37  1  0  0  0  0
 20 22  2  0  0  0  0
 20 42  1  0  0  0  0
 21 23  2  0  0  0  0
 21 43  1  0  0  0  0
 22 52  1  0  0  0  0
 23 44  1  0  0  0  0
 24 65  1  0  0  0  0
 25 70  1  0  0  0  0
 26 80  1  0  0  0  0
 27 81  1  0  0  0  0
 28 31  2  0  0  0  0
 28 80  1  0  0  0  0
 29 82  1  0  0  0  0
 30 83  1  0  0  0  0
 31 84  1  0  0  0  0
 32 63  2  0  0  0  0
 33 64  1  0  0  0  0
 33 68  1  0  0  0  0
 34 35  1  0  0  0  0
 34 36  2  0  0  0  0
 34 45  1  0  0  0  0
 35 65  1  0  0  0  0
 35 74  2  0  0  0  0
 36 81  1  0  0  0  0
 37 69  1  0  0  0  0
 37 75  2  0  0  0  0
 38 53  1  0  0  0  0
 38 71  1  0  0  0  0
 38 76  2  0  0  0  0
 39 60  1  0  0  0  0
 39 66  1  0  0  0  0
 39 77  2  0  0  0  0
 40 61  1  0  0  0  0
 40 72  1  0  0  0  0
 40 78  2  0  0  0  0
 41 67  1  0  0  0  0
 41 70  1  0  0  0  0
 41 79  2  0  0  0  0
 42 46  1  0  0  0  0
 43 53  1  0  0  0  0
 44 66  1  0  0  0  0
 45 65  1  0  0  0  0
 46 48  1  0  0  0  0
 47 49  1  0  0  0  0
 47 50  1  0  0  0  0
 48 52  1  0  0  0  0
 49 54  1  0  0  0  0
 50 67  1  0  0  0  0
 51 54  1  0  0  0  0
 51 67  1  0  0  0  0
 52 71  1  0  0  0  0
 53 66  1  0  0  0  0
 54 64  1  0  0  0  0
 55 61  1  0  0  0  0
 56 62  1  0  0  0  0
 57 62  1  0  0  0  0
 58 62  1  0  0  0  0
 59 73  1  0  0  0  0
 60 62  1  0  0  0  0
 60 72  1  0  0  0  0
 61 73  1  0  0  0  0
 63 64  1  0  0  0  0
M  CHG  1  73   1
M  ISO  4  36 101  41 100  70 100  81 101
M  END
> <Batch ID>
0087

> <Smiles>
CNC(C)C(=O)NC(C(=O)N1Cc2cc([101O:1][101CH:1]=C3CN(c4cc(F)cc([100NH:0][100C:0](=O)N5CCCC(n6nc(-c7ccc(Oc8ccc(F)cc8F)cc7)c(C(N)=O)c6N)C5)c4)C3=O)ccc2CC1C(=O)NC1CCCc2ccccc21)C(C)(C)C

> <Shape>
0.267

> <Color>
0.087

> <Negative vol penalty>
0.000

$$$$

  -OEChem-04052300203D

 83 91  0     1  0  0  0  0  0999 V2000
  -21.9267  -11.6551   20.1856 C   0  0  0  0  0  0  0  0  0  0  0  0
  -21.5982  -13.0057   20.2436 C   0  0  0  0  0  0  0  0  0  0  0  0
  -17.6865  -26.7438   22.9650 C   0  0  0  0  0  0  0  0  0  0  0  0
  -24.3101  -25.5412   16.3197 C   0  0  0  0  0  0  0  0  0  0  0  0
  -26.3264  -26.7162   15.6943 C   0  0  0  0  0  0  0  0  0  0  0  0
  -18.4273  -27.9006   23.2069 C   0  0  0  0  0  0  0  0  0  0  0  0
  -23.2274  -11.2424   20.4718 C   0  0  0  0  0  0  0  0  0  0  0  0
  -22.5699  -13.9443   20.5888 C   0  0  0  0  0  0  0  0  0  0  0  0
  -23.0963  -19.6571   18.4458 C   0  0  0  0  0  0  0  0  0  0  0  0
  -18.3018  -25.6272   22.3990 C   0  0  0  0  0  0  0  0  0  0  0  0
  -24.0662  -25.2458   14.9785 C   0  0  0  0  0  0  0  0  0  0  0  0
  -26.0826  -26.4207   14.3531 C   0  0  0  0  0  0  0  0  0  0  0  0
  -22.7060  -20.8921   18.9617 C   0  0  0  0  0  0  0  0  0  0  0  0
  -23.1032  -23.8733   11.7530 C   0  0  0  0  0  0  0  0  0  0  0  0
  -22.7158  -22.5715   11.4358 C   0  0  0  0  0  0  0  0  0  0  0  0
  -20.3987  -26.8244   22.3168 C   0  0  0  0  0  0  0  0  0  0  0  0
  -24.9250  -21.2153   19.8508 C   0  0  0  0  0  0  0  0  0  0  0  0
  -24.7860  -21.7313   12.3554 C   0  0  0  0  0  0  0  0  0  0  0  0
  -25.4402  -26.2765   16.6776 C   0  0  0  0  0  0  0  0  0  0  0  0
  -19.7833  -27.9410   22.8828 C   0  0  0  0  0  0  0  0  0  0  0  0
  -26.4273  -25.8118   18.9836 C   0  0  0  0  0  0  0  0  0  0  0  0
  -24.2179  -12.1773   20.8114 C   0  0  0  0  0  0  0  0  0  0  0  0
  -24.4031  -19.1863   18.6383 C   0  0  0  0  0  0  0  0  0  0  0  0
  -23.8847  -13.5435   20.8812 C   0  0  0  0  0  0  0  0  0  0  0  0
  -25.3302  -19.9752   19.3341 C   0  0  0  0  0  0  0  0  0  0  0  0
  -19.6579  -25.6675   22.0749 C   0  0  0  0  0  0  0  0  0  0  0  0
  -24.9525  -25.6855   13.9952 C   0  0  0  0  0  0  0  0  0  0  0  0
  -23.6195  -21.6702   19.6668 C   0  0  0  0  0  0  0  0  0  0  0  0
  -24.3321  -24.1042   12.3714 C   0  0  0  0  0  0  0  0  0  0  0  0
  -23.5571  -21.5004   11.7370 C   0  0  0  0  0  0  0  0  0  0  0  0
  -25.1734  -23.0332   12.6726 C   0  0  0  0  0  0  0  0  0  0  0  0
  -25.6924  -26.5825   18.0629 C   0  0  0  0  0  0  0  0  0  0  0  0
  -26.3727  -26.5297   20.1532 C   0  0  0  0  0  0  0  0  0  0  0  0
  -20.5710  -29.1738   23.1411 C   0  0  0  0  0  0  0  0  0  0  0  0
  -27.0993  -24.5589   18.7981 C   0  0  0  0  0  0  0  0  0  0  0  0
  -25.6893  -16.6704   20.0943 C   0  0  0  0  0  0  0  0  0  0  0  0
  -28.4317  -17.8054   18.7854 C   0  0  0  0  0  0  0  0  0  0  0  0
  -21.6131  -24.4026   21.1203 C   0  0  0  0  0  0  0  0  0  0  0  0
  -30.1569  -20.4686   17.5295 C   0  0  0  0  0  0  0  0  0  0  0  0
  -22.5197  -30.4826   22.3581 C   0  0  0  0  0  0  0  0  0  0  0  0
  -25.5983  -11.6787   21.1585 C   0  0  0  0  0  0  0  0  0  0  0  0
  -24.8161  -17.8639   18.0525 C   0  0  0  0  0  0  0  0  0  0  0  0
  -26.7508  -19.5242   19.5507 C   0  0  0  0  0  0  0  0  0  0  0  0
  -26.6614  -12.7742   21.1508 C   0  0  0  0  0  0  0  0  0  0  0  0
  -25.9645  -31.0219   21.7755 C   0  0  0  0  0  0  0  0  0  0  0  0
  -26.1637  -14.0063   21.8998 C   0  0  0  0  0  0  0  0  0  0  0  0
  -26.3601  -29.8658   20.8529 C   0  0  0  0  0  0  0  0  0  0  0  0
  -24.5670  -31.5504   21.4556 C   0  0  0  0  0  0  0  0  0  0  0  0
  -23.9059  -29.3823   20.4965 C   0  0  0  0  0  0  0  0  0  0  0  0
  -24.9171  -14.5943   21.2277 C   0  0  1  0  0  0  0  0  0  0  0  0
  -26.0269  -17.2529   18.7510 C   0  0  1  0  0  0  0  0  0  0  0  0
  -25.2768  -28.7689   20.8243 C   0  0  1  0  0  0  0  0  0  0  0  0
  -32.3907  -21.0945   16.5725 C   0  0  0  0  0  0  0  0  0  0  0  0
  -29.6446  -17.7465   21.5845 C   0  0  0  0  0  0  0  0  0  0  0  0
  -31.4758  -19.2341   20.7466 C   0  0  0  0  0  0  0  0  0  0  0  0
  -31.1732  -16.9594   19.7684 C   0  0  0  0  0  0  0  0  0  0  0  0
  -28.9530  -21.2910   14.9540 C   0  0  0  0  0  0  0  0  0  0  0  0
  -21.8717  -23.0221   20.5462 C   0  0  0  0  0  0  0  0  0  1  0  0
  -29.5024  -18.7762   19.2211 C   0  0  1  0  0  0  0  0  0  0  0  0
  -30.9761  -20.6309   16.2618 C   0  0  2  0  0  0  0  0  0  0  0  0
  -30.4218  -18.1870   20.3279 C   0  0  0  0  0  0  0  0  0  0  0  0
  -25.2064  -27.7041   18.6013 N   0  0  0  0  0  0  0  0  0  0  0  0
  -25.6367  -27.6433   19.8730 N   0  0  0  0  0  0  0  0  0  0  0  0
  -27.1046  -18.2210   18.9641 N   0  0  0  0  0  0  0  0  0  0  0  0
  -23.5988  -30.4523   21.4575 N   0  0  0  0  0  0  0  0  0  0  0  0
  -26.8828  -26.3108   21.3837 N   0  0  0  0  0  0  0  0  0  0  0  0
  -27.0558  -23.9583   17.5325 N   0  0  0  0  0  0  0  0  0  0  0  0
  -20.2820  -24.5346   21.5010 N   0  0  0  0  0  0  0  0  0  0  0  0
  -21.6755  -29.3676   22.3111 N   0  0  0  0  0  0  0  0  0  0  0  0
  -25.2867  -15.3493   20.0496 N   0  0  0  0  0  0  0  0  0  0  0  0
  -30.2082  -19.1768   18.0088 N   0  0  0  0  0  0  0  0  0  0  0  0
  -30.3409  -21.6324   15.3593 N   0  3  0  0  0  0  0  0  0  0  0  0
  -20.1969  -29.9502   24.0158 O   0  0  0  0  0  0  0  0  0  0  0  0
  -27.7061  -23.9808   19.7315 O   0  0  0  0  0  0  0  0  0  0  0  0
  -25.7882  -17.3675   21.0973 O   0  0  0  0  0  0  0  0  0  0  0  0
  -28.7606  -16.7212   18.2975 O   0  0  0  0  0  0  0  0  0  0  0  0
  -22.5052  -25.2400   21.2066 O   0  0  0  0  0  0  0  0  0  0  0  0
  -29.5369  -21.3960   18.0452 O   0  0  0  0  0  0  0  0  0  0  0  0
  -22.3443  -31.4043   23.1612 O   0  0  0  0  0  0  0  0  0  0  0  0
  -24.7149  -25.3972   12.6864 O   0  0  0  0  0  0  0  0  0  0  0  0
  -23.2409  -22.8757   20.1719 O   0  0  0  0  0  0  0  0  0  1  0  0
  -23.1843  -20.2502   11.4337 F   0  0  0  0  0  0  0  0  0  0  0  0
  -26.3546  -23.2487   13.2677 F   0  0  0  0  0  0  0  0  0  0  0  0
  1  2  1  0  0  0  0
  1  7  2  0  0  0  0
  2  8  2  0  0  0  0
  3  6  1  0  0  0  0
  3 10  2  0  0  0  0
  4 11  2  0  0  0  0
  4 19  1  0  0  0  0
  5 12  1  0  0  0  0
  5 19  2  0  0  0  0
  6 20  2  0  0  0  0
  7 22  1  0  0  0  0
  8 24  1  0  0  0  0
  9 13  2  0  0  0  0
  9 23  1  0  0  0  0
 10 26  1  0  0  0  0
 11 27  1  0  0  0  0
 12 27  2  0  0  0  0
 13 28  1  0  0  0  0
 14 15  2  0  0  0  0
 14 29  1  0  0  0  0
 15 30  1  0  0  0  0
 16 20  1  0  0  0  0
 16 26  2  0  0  0  0
 17 25  1  0  0  0  0
 17 28  2  0  0  0  0
 18 30  2  0  0  0  0
 18 31  1  0  0  0  0
 19 32  1  0  0  0  0
 20 34  1  0  0  0  0
 21 32  1  0  0  0  0
 21 33  2  0  0  0  0
 21 35  1  0  0  0  0
 22 24  2  0  0  0  0
 22 41  1  0  0  0  0
 23 25  2  0  0  0  0
 23 42  1  0  0  0  0
 24 50  1  0  0  0  0
 25 43  1  0  0  0  0
 26 68  1  0  0  0  0
 27 80  1  0  0  0  0
 28 81  1  0  0  0  0
 29 31  2  0  0  0  0
 29 80  1  0  0  0  0
 30 82  1  0  0  0  0
 31 83  1  0  0  0  0
 32 62  2  0  0  0  0
 33 63  1  0  0  0  0
 33 66  1  0  0  0  0
 34 69  1  0  0  0  0
 34 73  2  0  0  0  0
 35 67  1  0  0  0  0
 35 74  2  0  0  0  0
 36 51  1  0  0  0  0
 36 70  1  0  0  0  0
 36 75  2  0  0  0  0
 37 59  1  0  0  0  0
 37 64  1  0  0  0  0
 37 76  2  0  0  0  0
 38 58  1  0  0  0  0
 38 68  1  0  0  0  0
 38 77  2  0  0  0  0
 39 60  1  0  0  0  0
 39 71  1  0  0  0  0
 39 78  2  0  0  0  0
 40 65  1  0  0  0  0
 40 69  1  0  0  0  0
 40 79  2  0  0  0  0
 41 44  1  0  0  0  0
 42 51  1  0  0  0  0
 43 64  1  0  0  0  0
 44 46  1  0  0  0  0
 45 47  1  0  0  0  0
 45 48  1  0  0  0  0
 46 50  1  0  0  0  0
 47 52  1  0  0  0  0
 48 65  1  0  0  0  0
 49 52  1  0  0  0  0
 49 65  1  0  0  0  0
 50 70  1  0  0  0  0
 51 64  1  0  0  0  0
 52 63  1  0  0  0  0
 53 60  1  0  0  0  0
 54 61  1  0  0  0  0
 55 61  1  0  0  0  0
 56 61  1  0  0  0  0
 57 72  1  0  0  0  0
 58 81  1  0  0  0  0
 59 61  1  0  0  0  0
 59 71  1  0  0  0  0
 60 72  1  0  0  0  0
 62 63  1  0  0  0  0
M  CHG  1  72   1
M  ISO  4  40 100  58 101  69 100  81 101
M  END
> <Batch ID>
0087

> <Smiles>
CNC(C)C(=O)NC(C(=O)N1Cc2cc([101O:1][101CH2:1]C(=O)Nc3cccc(C(=O)[100NH:0][100C:0](=O)N4CCCC(n5nc(-c6ccc(Oc7ccc(F)cc7F)cc6)c(C(N)=O)c5N)C4)c3)ccc2CC1C(=O)NC1CCCc2ccccc21)C(C)(C)C

> <Shape>
0.218

> <Color>
0.075

> <Negative vol penalty>
0.000

$$$$

  -OEChem-04052300203D

 75 82  0     1  0  0  0  0  0999 V2000
  -23.8791  -31.9228   24.3410 C   0  0  0  0  0  0  0  0  0  0  0  0
  -23.9760  -30.5739   24.6670 C   0  0  0  0  0  0  0  0  0  0  0  0
  -24.9567  -13.1244   23.9282 C   0  0  0  0  0  0  0  0  0  0  0  0
  -24.2326  -15.1015   22.7433 C   0  0  0  0  0  0  0  0  0  0  0  0
  -24.1100  -32.3406   23.0310 C   0  0  0  0  0  0  0  0  0  0  0  0
  -24.3029  -29.6417   23.6828 C   0  0  0  0  0  0  0  0  0  0  0  0
  -27.7771  -23.4393   22.8014 C   0  0  0  0  0  0  0  0  0  0  0  0
  -24.6358  -13.7338   25.1411 C   0  0  0  0  0  0  0  0  0  0  0  0
  -23.9116  -15.7109   23.9563 C   0  0  0  0  0  0  0  0  0  0  0  0
  -27.5845  -22.1620   22.2768 C   0  0  0  0  0  0  0  0  0  0  0  0
  -21.3967  -15.5962   26.2108 C   0  0  0  0  0  0  0  0  0  0  0  0
  -20.1765  -16.2667   26.2946 C   0  0  0  0  0  0  0  0  0  0  0  0
  -28.0395  -23.0088   20.0642 C   0  0  0  0  0  0  0  0  0  0  0  0
  -21.3405  -18.3219   26.8025 C   0  0  0  0  0  0  0  0  0  0  0  0
  -24.7552  -13.8083   22.7293 C   0  0  0  0  0  0  0  0  0  0  0  0
  -24.2441  -12.3893   20.6719 C   0  0  0  0  0  0  0  0  0  0  0  0
  -24.4493  -31.4143   22.0324 C   0  0  0  0  0  0  0  0  0  0  0  0
  -28.0921  -24.5149   21.9586 C   0  0  0  0  0  0  0  0  0  0  0  0
  -24.5372  -30.0473   22.3579 C   0  0  0  0  0  0  0  0  0  0  0  0
  -28.2381  -24.2982   20.5810 C   0  0  0  0  0  0  0  0  0  0  0  0
  -24.1132  -15.0269   25.1552 C   0  0  0  0  0  0  0  0  0  0  0  0
  -27.7129  -21.9471   20.9076 C   0  0  0  0  0  0  0  0  0  0  0  0
  -22.5889  -16.2886   26.4230 C   0  0  0  0  0  0  0  0  0  0  0  0
  -20.1483  -17.6295   26.5905 C   0  0  0  0  0  0  0  0  0  0  0  0
  -22.5608  -17.6515   26.7188 C   0  0  0  0  0  0  0  0  0  0  0  0
  -25.0871  -13.1797   21.4760 C   0  0  0  0  0  0  0  0  0  0  0  0
  -25.0260  -12.0343   19.6000 C   0  0  0  0  0  0  0  0  0  0  0  0
  -28.2693  -18.4251   20.4131 C   0  0  0  0  0  0  0  0  0  0  0  0
  -28.3409  -19.6927   20.8312 C   0  0  0  0  0  0  0  0  0  1  0  0
  -22.8765  -12.0100   20.8757 C   0  0  0  0  0  0  0  0  0  0  0  0
  -29.2129  -17.4121   20.9596 C   0  0  0  0  0  0  0  0  0  0  0  0
  -26.6890  -27.2688   21.2165 C   0  0  0  0  0  0  0  0  0  0  0  0
  -29.4486  -27.7891   19.5928 C   0  0  0  0  0  0  0  0  0  0  0  0
  -32.1873  -26.4742   18.0380 C   0  0  0  0  0  0  0  0  0  0  0  0
  -29.7151  -14.9995   20.7434 C   0  0  0  0  0  0  0  0  0  0  0  0
  -24.6434  -31.9075   20.6204 C   0  0  0  0  0  0  0  0  0  0  0  0
  -28.3230  -25.8813   22.5435 C   0  0  0  0  0  0  0  0  0  0  0  0
  -28.5950  -25.4153   19.6360 C   0  0  0  0  0  0  0  0  0  0  0  0
  -25.3521  -30.9024   19.7161 C   0  0  0  0  0  0  0  0  0  0  0  0
  -29.1685  -11.3859   20.4326 C   0  0  0  0  0  0  0  0  0  0  0  0
  -24.7464  -29.5127   19.8848 C   0  0  0  0  0  0  0  0  0  0  0  0
  -28.2815  -11.2501   19.2015 C   0  0  0  0  0  0  0  0  0  0  0  0
  -30.0816  -12.5967   20.3130 C   0  0  0  0  0  0  0  0  0  0  0  0
  -28.3788  -13.7815   18.9279 C   0  0  0  0  0  0  0  0  0  0  0  0
  -24.9138  -29.0089   21.3235 C   0  0  1  0  0  0  0  0  0  0  0  0
  -28.1349  -27.0050   21.5290 C   0  0  1  0  0  0  0  0  0  0  0  0
  -27.4759  -12.5288   18.9266 C   0  0  2  0  0  0  0  0  0  0  0  0
  -34.2467  -27.1477   16.7720 C   0  0  0  0  0  0  0  0  0  0  0  0
  -27.7440  -28.3562   17.1265 C   0  0  0  0  0  0  0  0  0  0  0  0
  -29.8015  -28.0806   15.7269 C   0  0  0  0  0  0  0  0  0  0  0  0
  -29.6876  -29.9007   17.4290 C   0  0  0  0  0  0  0  0  0  0  0  0
  -33.9705  -25.2522   20.0594 C   0  0  0  0  0  0  0  0  0  0  0  0
  -29.9353  -27.5034   18.1927 C   0  0  1  0  0  0  0  0  0  0  0  0
  -33.6629  -26.8166   18.1367 C   0  0  2  0  0  0  0  0  0  0  0  0
  -29.2835  -28.4394   17.1361 C   0  0  0  0  0  0  0  0  0  0  0  0
  -26.3108  -13.3187   20.9591 N   0  0  0  0  0  0  0  0  0  0  0  0
  -26.2425  -12.6109   19.8188 N   0  0  0  0  0  0  0  0  0  0  0  0
  -28.8045  -26.7345   20.2552 N   0  0  0  0  0  0  0  0  0  0  0  0
  -29.3439  -13.8324   20.0411 N   0  0  0  0  0  0  0  0  0  0  0  0
  -24.7849  -11.2883   18.5010 N   0  0  0  0  0  0  0  0  0  0  0  0
  -22.2228  -12.4616   22.0303 N   0  0  0  0  0  0  0  0  0  0  0  0
  -28.9903  -16.1499   20.4102 N   0  0  0  0  0  0  0  0  0  0  0  0
  -26.2667  -28.5437   21.5419 N   0  0  0  0  0  0  0  0  0  0  0  0
  -31.3913  -27.5813   18.2428 N   0  0  0  0  0  0  0  0  0  0  0  0
  -34.4238  -25.6694   18.7076 N   0  3  0  0  0  0  0  0  0  0  0  0
  -22.2577  -11.2783   20.0662 O   0  0  0  0  0  0  0  0  0  0  0  0
  -30.0618  -17.6909   21.8000 O   0  0  0  0  0  0  0  0  0  0  0  0
  -26.0075  -26.3819   20.7159 O   0  0  0  0  0  0  0  0  0  0  0  0
  -29.6394  -28.9047   20.0835 O   0  0  0  0  0  0  0  0  0  0  0  0
  -31.7814  -25.3390   17.7992 O   0  0  0  0  0  0  0  0  0  0  0  0
  -30.6305  -15.0206   21.5723 O   0  0  0  0  0  0  0  0  0  0  0  0
  -23.7996  -15.6217   26.3387 O   0  0  0  0  0  0  0  0  0  0  0  0
  -27.5248  -20.7015   20.3929 O   0  0  0  0  0  0  0  0  0  1  0  0
  -18.9765  -18.2735   26.6694 F   0  0  0  0  0  0  0  0  0  0  0  0
  -23.7029  -18.3222   26.9224 F   0  0  0  0  0  0  0  0  0  0  0  0
  1  2  1  0  0  0  0
  1  5  2  0  0  0  0
  2  6  2  0  0  0  0
  3  8  2  0  0  0  0
  3 15  1  0  0  0  0
  4  9  1  0  0  0  0
  4 15  2  0  0  0  0
  5 17  1  0  0  0  0
  6 19  1  0  0  0  0
  7 10  2  0  0  0  0
  7 18  1  0  0  0  0
  8 21  1  0  0  0  0
  9 21  2  0  0  0  0
 10 22  1  0  0  0  0
 11 12  2  0  0  0  0
 11 23  1  0  0  0  0
 12 24  1  0  0  0  0
 13 20  1  0  0  0  0
 13 22  2  0  0  0  0
 14 24  2  0  0  0  0
 14 25  1  0  0  0  0
 15 26  1  0  0  0  0
 16 26  1  0  0  0  0
 16 27  2  0  0  0  0
 16 30  1  0  0  0  0
 17 19  2  0  0  0  0
 17 36  1  0  0  0  0
 18 20  2  0  0  0  0
 18 37  1  0  0  0  0
 19 45  1  0  0  0  0
 20 38  1  0  0  0  0
 21 72  1  0  0  0  0
 22 73  1  0  0  0  0
 23 25  2  0  0  0  0
 23 72  1  0  0  0  0
 24 74  1  0  0  0  0
 25 75  1  0  0  0  0
 26 56  2  0  0  0  0
 27 57  1  0  0  0  0
 27 60  1  0  0  0  0
 28 29  2  0  0  0  0
 28 31  1  0  0  0  0
 29 73  1  0  0  0  0
 30 61  1  0  0  0  0
 30 66  2  0  0  0  0
 31 62  1  0  0  0  0
 31 67  2  0  0  0  0
 32 46  1  0  0  0  0
 32 63  1  0  0  0  0
 32 68  2  0  0  0  0
 33 53  1  0  0  0  0
 33 58  1  0  0  0  0
 33 69  2  0  0  0  0
 34 54  1  0  0  0  0
 34 64  1  0  0  0  0
 34 70  2  0  0  0  0
 35 59  1  0  0  0  0
 35 62  1  0  0  0  0
 35 71  2  0  0  0  0
 36 39  1  0  0  0  0
 37 46  1  0  0  0  0
 38 58  1  0  0  0  0
 39 41  1  0  0  0  0
 40 42  1  0  0  0  0
 40 43  1  0  0  0  0
 41 45  1  0  0  0  0
 42 47  1  0  0  0  0
 43 59  1  0  0  0  0
 44 47  1  0  0  0  0
 44 59  1  0  0  0  0
 45 63  1  0  0  0  0
 46 58  1  0  0  0  0
 47 57  1  0  0  0  0
 48 54  1  0  0  0  0
 49 55  1  0  0  0  0
 50 55  1  0  0  0  0
 51 55  1  0  0  0  0
 52 65  1  0  0  0  0
 53 55  1  0  0  0  0
 53 64  1  0  0  0  0
 54 65  1  0  0  0  0
 56 57  1  0  0  0  0
M  CHG  1  65   1
M  ISO  4  29 101  35 100  62 100  73 101
M  END
> <Batch ID>
0087

> <Smiles>
CNC(C)C(=O)NC(C(=O)N1Cc2cc([101O:1][101CH:1]=CC(=O)[100NH:0][100C:0](=O)N3CCCC(n4nc(-c5ccc(Oc6ccc(F)cc6F)cc5)c(C(N)=O)c4N)C3)ccc2CC1C(=O)NC1CCCc2ccccc21)C(C)(C)C

> <Shape>
0.221

> <Color>
0.075

> <Negative vol penalty>
0.000

$$$$

  -OEChem-04052300203D

 87 96  0     1  0  0  0  0  0999 V2000
  -28.4423  -25.8057   12.4148 C   0  0  0  0  0  0  0  0  0  0  0  0
  -27.7893  -26.0317   13.6222 C   0  0  0  0  0  0  0  0  0  0  0  0
  -18.4337  -28.1533   22.6712 C   0  0  0  0  0  0  0  0  0  0  0  0
  -23.9354  -14.9399   19.6520 C   0  0  0  0  0  0  0  0  0  0  0  0
  -25.1081  -14.6684   21.7468 C   0  0  0  0  0  0  0  0  0  0  0  0
  -18.4948  -26.7727   22.4826 C   0  0  0  0  0  0  0  0  0  0  0  0
  -29.1848  -24.6397   12.2328 C   0  0  0  0  0  0  0  0  0  0  0  0
  -27.8775  -25.0913   14.6480 C   0  0  0  0  0  0  0  0  0  0  0  0
  -28.7553  -27.2152   19.1606 C   0  0  0  0  0  0  0  0  0  0  0  0
  -19.6049  -28.9110   22.6626 C   0  0  0  0  0  0  0  0  0  0  0  0
  -24.7638  -13.9840   19.0643 C   0  0  0  0  0  0  0  0  0  0  0  0
  -25.9365  -13.7124   21.1590 C   0  0  0  0  0  0  0  0  0  0  0  0
  -27.6715  -27.8079   19.8070 C   0  0  0  0  0  0  0  0  0  0  0  0
  -28.5934  -11.4625   20.1154 C   0  0  0  0  0  0  0  0  0  0  0  0
  -29.9624  -11.5472   20.3688 C   0  0  0  0  0  0  0  0  0  0  0  0
  -20.8983  -26.9072   22.2769 C   0  0  0  0  0  0  0  0  0  0  0  0
  -27.4315  -25.8463   21.1904 C   0  0  0  0  0  0  0  0  0  0  0  0
  -30.0089  -13.7515   19.3811 C   0  0  0  0  0  0  0  0  0  0  0  0
  -24.1076  -15.2822   20.9933 C   0  0  0  0  0  0  0  0  0  0  0  0
  -19.7271  -26.1496   22.2855 C   0  0  0  0  0  0  0  0  0  0  0  0
  -22.0277  -16.0458   22.2576 C   0  0  0  0  0  0  0  0  0  0  0  0
  -29.2901  -23.6890   13.2603 C   0  0  0  0  0  0  0  0  0  0  0  0
  -29.1792  -25.9270   19.5174 C   0  0  0  0  0  0  0  0  0  0  0  0
  -28.6210  -23.9108   14.4791 C   0  0  0  0  0  0  0  0  0  0  0  0
  -28.5225  -25.2405   20.5487 C   0  0  0  0  0  0  0  0  0  0  0  0
  -20.8371  -28.2879   22.4654 C   0  0  0  0  0  0  0  0  0  0  0  0
  -25.7644  -13.3702   19.8178 C   0  0  0  0  0  0  0  0  0  0  0  0
  -27.0076  -27.1223   20.8200 C   0  0  0  0  0  0  0  0  0  0  0  0
  -27.9321  -12.5224   19.4948 C   0  0  0  0  0  0  0  0  0  0  0  0
  -30.6702  -12.6917   20.0016 C   0  0  0  0  0  0  0  0  0  0  0  0
  -28.6399  -13.6669   19.1276 C   0  0  0  0  0  0  0  0  0  0  0  0
  -23.2525  -16.2700   21.6008 C   0  0  0  0  0  0  0  0  0  0  0  0
  -21.6155  -17.2954   22.6514 C   0  0  0  0  0  0  0  0  0  0  0  0
  -24.3811  -30.5679   22.5484 C   0  0  0  0  0  0  0  0  0  0  0  0
  -22.0977  -30.2193   23.2132 C   0  0  0  0  0  0  0  0  0  0  0  0
  -24.3822  -29.4641   21.7889 C   0  0  0  0  0  0  0  0  0  0  0  0
  -23.2065  -30.9626   23.2713 C   0  0  0  0  0  0  0  0  0  0  0  0
  -23.1261  -28.6355   21.6751 C   0  0  0  0  0  0  0  0  0  0  0  0
  -19.7894  -24.7098   22.0885 C   0  0  0  0  0  0  0  0  0  0  0  0
  -20.8165  -24.0404   21.5232 C   0  0  0  0  0  0  0  0  0  0  0  0
  -21.3254  -14.8178   22.4910 C   0  0  0  0  0  0  0  0  0  0  0  0
  -20.7345  -22.5709   21.4026 C   0  0  0  0  0  0  0  0  0  0  0  0
  -29.3909  -23.1370   18.0091 C   0  0  0  0  0  0  0  0  0  0  0  0
  -30.8370  -22.2028   20.7584 C   0  0  0  0  0  0  0  0  0  0  0  0
  -31.2838  -22.6882   24.1067 C   0  0  0  0  0  0  0  0  0  0  0  0
  -30.0651  -22.4216   13.0000 C   0  0  0  0  0  0  0  0  0  0  0  0
  -30.3668  -25.3123   18.8288 C   0  0  0  0  0  0  0  0  0  0  0  0
  -28.9511  -23.8635   20.9832 C   0  0  0  0  0  0  0  0  0  0  0  0
  -30.4163  -21.6508   14.2700 C   0  0  0  0  0  0  0  0  0  0  0  0
  -24.0482  -21.7123   22.7120 C   0  0  0  0  0  0  0  0  0  0  0  0
  -29.1982  -21.5403   15.1815 C   0  0  0  0  0  0  0  0  0  0  0  0
  -24.0460  -20.1952   22.5447 C   0  0  0  0  0  0  0  0  0  0  0  0
  -23.2750  -22.4118   21.5951 C   0  0  0  0  0  0  0  0  0  0  0  0
  -21.8779  -20.3922   21.2638 C   0  0  0  0  0  0  0  0  0  0  0  0
  -28.7132  -22.9260   15.6244 C   0  0  1  0  0  0  0  0  0  0  0  0
  -30.3897  -23.7897   18.9223 C   0  0  1  0  0  0  0  0  0  0  0  0
  -22.6104  -19.6653   22.4024 C   0  0  1  0  0  0  0  0  0  0  0  0
  -32.4959  -21.7421   26.0899 C   0  0  0  0  0  0  0  0  0  0  0  0
  -28.8303  -19.9079   20.8870 C   0  0  0  0  0  0  0  0  0  0  0  0
  -29.4534  -19.5901   23.2910 C   0  0  0  0  0  0  0  0  0  0  0  0
  -31.1709  -19.2831   21.5081 C   0  0  0  0  0  0  0  0  0  0  0  0
  -32.7760  -25.2066   24.5423 C   0  0  0  0  0  0  0  0  0  0  0  0
  -25.5723  -29.0073   21.0267 C   0  0  0  0  0  0  0  0  0  1  0  0
  -30.3674  -21.6142   22.0668 C   0  0  1  0  0  0  0  0  0  0  0  0
  -32.5402  -22.7547   24.9561 C   0  0  2  0  0  0  0  0  0  0  0  0
  -29.9460  -20.1240   21.9289 C   0  0  0  0  0  0  0  0  0  0  0  0
  -23.5958  -17.5606   21.5765 N   0  0  0  0  0  0  0  0  0  0  0  0
  -22.5806  -18.1586   22.2228 N   0  0  0  0  0  0  0  0  0  0  0  0
  -22.0158  -29.0513   22.4558 N   0  0  0  0  0  0  0  0  0  0  0  0
  -21.9256  -21.8481   21.4398 N   0  0  0  0  0  0  0  0  0  0  0  0
  -30.1136  -23.3024   20.2753 N   0  0  0  0  0  0  0  0  0  0  0  0
  -20.5251  -17.7291   23.3188 N   0  0  0  0  0  0  0  0  0  0  0  0
  -21.8903  -13.6250   22.0193 N   0  0  0  0  0  0  0  0  0  0  0  0
  -29.5627  -23.4473   16.6736 N   0  0  0  0  0  0  0  0  0  0  0  0
  -31.4412  -21.8451   23.0270 N   0  0  0  0  0  0  0  0  0  0  0  0
  -32.6952  -24.1144   25.5461 N   0  3  0  0  0  0  0  0  0  0  0  0
  -23.1171  -27.6438   20.9435 O   0  0  0  0  0  0  0  0  0  0  0  0
  -20.2214  -14.7812   23.0855 O   0  0  0  0  0  0  0  0  0  0  0  0
  -19.6151  -22.0727   21.2713 O   0  0  0  0  0  0  0  0  0  0  0  0
  -28.5290  -22.4048   18.4811 O   0  0  0  0  0  0  0  0  0  0  0  0
  -31.8142  -21.7097   20.1896 O   0  0  0  0  0  0  0  0  0  0  0  0
  -30.2634  -23.3180   24.3763 O   0  0  0  0  0  0  0  0  0  0  0  0
  -23.3210  -32.1168   24.0070 O   0  0  0  0  0  0  0  0  0  0  0  0
  -26.5728  -12.4371   19.2447 O   0  0  0  0  0  0  0  0  0  0  0  0
  -25.9490  -27.6983   21.4521 O   0  0  0  0  0  0  0  0  0  1  0  0
  -31.9846  -12.7734   20.2464 F   0  0  0  0  0  0  0  0  0  0  0  0
  -28.0099  -14.6888   18.5322 F   0  0  0  0  0  0  0  0  0  0  0  0
  1  2  1  0  0  0  0
  1  7  2  0  0  0  0
  2  8  2  0  0  0  0
  3  6  1  0  0  0  0
  3 10  2  0  0  0  0
  4 11  2  0  0  0  0
  4 19  1  0  0  0  0
  5 12  1  0  0  0  0
  5 19  2  0  0  0  0
  6 20  2  0  0  0  0
  7 22  1  0  0  0  0
  8 24  1  0  0  0  0
  9 13  2  0  0  0  0
  9 23  1  0  0  0  0
 10 26  1  0  0  0  0
 11 27  1  0  0  0  0
 12 27  2  0  0  0  0
 13 28  1  0  0  0  0
 14 15  2  0  0  0  0
 14 29  1  0  0  0  0
 15 30  1  0  0  0  0
 16 20  1  0  0  0  0
 16 26  2  0  0  0  0
 17 25  1  0  0  0  0
 17 28  2  0  0  0  0
 18 30  2  0  0  0  0
 18 31  1  0  0  0  0
 19 32  1  0  0  0  0
 20 39  1  0  0  0  0
 21 32  1  0  0  0  0
 21 33  2  0  0  0  0
 21 41  1  0  0  0  0
 22 24  2  0  0  0  0
 22 46  1  0  0  0  0
 23 25  2  0  0  0  0
 23 47  1  0  0  0  0
 24 55  1  0  0  0  0
 25 48  1  0  0  0  0
 26 69  1  0  0  0  0
 27 84  1  0  0  0  0
 28 85  1  0  0  0  0
 29 31  2  0  0  0  0
 29 84  1  0  0  0  0
 30 86  1  0  0  0  0
 31 87  1  0  0  0  0
 32 67  2  0  0  0  0
 33 68  1  0  0  0  0
 33 72  1  0  0  0  0
 34 36  2  0  0  0  0
 34 37  1  0  0  0  0
 35 37  2  0  0  0  0
 35 69  1  0  0  0  0
 36 38  1  0  0  0  0
 36 63  1  0  0  0  0
 37 83  1  0  0  0  0
 38 69  1  0  0  0  0
 38 77  2  0  0  0  0
 39 40  2  0  0  0  0
 40 42  1  0  0  0  0
 41 73  1  0  0  0  0
 41 78  2  0  0  0  0
 42 70  1  0  0  0  0
 42 79  2  0  0  0  0
 43 56  1  0  0  0  0
 43 74  1  0  0  0  0
 43 80  2  0  0  0  0
 44 64  1  0  0  0  0
 44 71  1  0  0  0  0
 44 81  2  0  0  0  0
 45 65  1  0  0  0  0
 45 75  1  0  0  0  0
 45 82  2  0  0  0  0
 46 49  1  0  0  0  0
 47 56  1  0  0  0  0
 48 71  1  0  0  0  0
 49 51  1  0  0  0  0
 50 52  1  0  0  0  0
 50 53  1  0  0  0  0
 51 55  1  0  0  0  0
 52 57  1  0  0  0  0
 53 70  1  0  0  0  0
 54 57  1  0  0  0  0
 54 70  1  0  0  0  0
 55 74  1  0  0  0  0
 56 71  1  0  0  0  0
 57 68  1  0  0  0  0
 58 65  1  0  0  0  0
 59 66  1  0  0  0  0
 60 66  1  0  0  0  0
 61 66  1  0  0  0  0
 62 76  1  0  0  0  0
 63 85  1  0  0  0  0
 64 66  1  0  0  0  0
 64 75  1  0  0  0  0
 65 76  1  0  0  0  0
 67 68  1  0  0  0  0
M  CHG  1  76   1
M  ISO  4  40 100  42 100  63 101  85 101
M  END
> <Batch ID>
0087

> <Smiles>
CNC(C)C(=O)NC(C(=O)N1Cc2cc([101O:1][101CH2:1]C3=CC(=O)CN(c4cccc(C=[100CH:0][100C:0](=O)N5CCCC(n6nc(-c7ccc(Oc8ccc(F)cc8F)cc7)c(C(N)=O)c6N)C5)c4)C3=O)ccc2CC1C(=O)NC1CCCc2ccccc21)C(C)(C)C

> <Shape>
0.230

> <Color>
0.071

> <Negative vol penalty>
0.000

$$$$

  -OEChem-04052300203D

 85 93  0     1  0  0  0  0  0999 V2000
  -36.1551  -34.1355   19.5908 C   0  0  0  0  0  0  0  0  0  0  0  0
  -35.3353  -33.0191   19.7209 C   0  0  0  0  0  0  0  0  0  0  0  0
  -23.9362   -9.6435   21.5636 C   0  0  0  0  0  0  0  0  0  0  0  0
  -24.4989  -10.7909   23.6140 C   0  0  0  0  0  0  0  0  0  0  0  0
  -31.1736  -20.1152   21.2198 C   0  0  0  0  0  0  0  0  0  0  0  0
  -36.0466  -35.1883   20.4984 C   0  0  0  0  0  0  0  0  0  0  0  0
  -34.4072  -32.9543   20.7596 C   0  0  0  0  0  0  0  0  0  0  0  0
  -29.8750  -31.3052   19.2152 C   0  0  0  0  0  0  0  0  0  0  0  0
  -30.8757  -18.8213   20.7925 C   0  0  0  0  0  0  0  0  0  0  0  0
  -23.4662   -8.5567   22.3008 C   0  0  0  0  0  0  0  0  0  0  0  0
  -24.0287   -9.7041   24.3512 C   0  0  0  0  0  0  0  0  0  0  0  0
  -29.7321  -29.9334   19.0116 C   0  0  0  0  0  0  0  0  0  0  0  0
  -20.6856   -7.7458   24.0454 C   0  0  0  0  0  0  0  0  0  0  0  0
  -19.4661   -7.1846   23.6669 C   0  0  0  0  0  0  0  0  0  0  0  0
  -28.8149  -20.5769   21.4663 C   0  0  0  0  0  0  0  0  0  0  0  0
  -28.6605  -29.7319   21.1634 C   0  0  0  0  0  0  0  0  0  0  0  0
  -20.5625   -5.0682   23.2722 C   0  0  0  0  0  0  0  0  0  0  0  0
  -24.4526  -10.7606   22.2202 C   0  0  0  0  0  0  0  0  0  0  0  0
  -30.1432  -20.9930   21.5567 C   0  0  0  0  0  0  0  0  0  0  0  0
  -24.2023  -13.0051   21.0339 C   0  0  0  0  0  0  0  0  0  0  0  0
  -35.1100  -35.1406   21.5430 C   0  0  0  0  0  0  0  0  0  0  0  0
  -29.4208  -31.9000   20.4011 C   0  0  0  0  0  0  0  0  0  0  0  0
  -34.2870  -34.0069   21.6829 C   0  0  0  0  0  0  0  0  0  0  0  0
  -28.7965  -31.1118   21.3785 C   0  0  0  0  0  0  0  0  0  0  0  0
  -29.5474  -18.4051   20.7021 C   0  0  0  0  0  0  0  0  0  0  0  0
  -23.5124   -8.5870   23.6945 C   0  0  0  0  0  0  0  0  0  0  0  0
  -29.1274  -29.1460   19.9871 C   0  0  0  0  0  0  0  0  0  0  0  0
  -21.8437   -6.9683   24.0373 C   0  0  0  0  0  0  0  0  0  0  0  0
  -19.4045   -5.8458   23.2803 C   0  0  0  0  0  0  0  0  0  0  0  0
  -28.5170  -19.2829   21.0390 C   0  0  0  0  0  0  0  0  0  0  0  0
  -21.7821   -5.6295   23.6507 C   0  0  0  0  0  0  0  0  0  0  0  0
  -24.9389  -11.8834   21.4593 C   0  0  0  0  0  0  0  0  0  0  0  0
  -25.1129  -13.7761   20.3536 C   0  0  0  0  0  0  0  0  0  0  0  0
  -29.5066  -25.6320   20.5786 C   0  0  0  0  0  0  0  0  0  0  0  0
  -29.5845  -26.9601   20.6824 C   0  0  0  0  0  0  0  0  0  1  0  0
  -30.4578  -22.3636   22.0095 C   0  0  0  0  0  0  0  0  0  0  0  0
  -22.8186  -13.3219   21.2358 C   0  0  0  0  0  0  0  0  0  0  0  0
  -30.1825  -24.7889   21.5844 C   0  0  0  0  0  0  0  0  0  0  0  0
  -30.7993  -33.4858   22.7862 C   0  0  0  0  0  0  0  0  0  0  0  0
  -27.7337  -33.9119   23.7572 C   0  0  0  0  0  0  0  0  0  0  0  0
  -24.5000  -32.8221   23.7051 C   0  0  0  0  0  0  0  0  0  0  0  0
  -30.1538  -16.0964   19.8967 C   0  0  0  0  0  0  0  0  0  0  0  0
  -35.0621  -36.2821   22.5276 C   0  0  0  0  0  0  0  0  0  0  0  0
  -29.5584  -33.3853   20.5939 C   0  0  0  0  0  0  0  0  0  0  0  0
  -28.2736  -31.7049   22.6604 C   0  0  0  0  0  0  0  0  0  0  0  0
  -33.7945  -36.3001   23.3780 C   0  0  0  0  0  0  0  0  0  0  0  0
  -29.8162  -12.7238   18.8065 C   0  0  0  0  0  0  0  0  0  0  0  0
  -33.4965  -34.9064   23.9216 C   0  0  0  0  0  0  0  0  0  0  0  0
  -28.4566  -12.2968   19.3645 C   0  0  0  0  0  0  0  0  0  0  0  0
  -30.5594  -13.6481   19.7693 C   0  0  0  0  0  0  0  0  0  0  0  0
  -28.4376  -14.3937   20.7750 C   0  0  0  0  0  0  0  0  0  0  0  0
  -33.2509  -33.9105   22.7817 C   0  0  1  0  0  0  0  0  0  0  0  0
  -29.5224  -33.8033   22.0607 C   0  0  1  0  0  0  0  0  0  0  0  0
  -27.6237  -13.5139   19.8121 C   0  0  2  0  0  0  0  0  0  0  0  0
  -22.2268  -33.3544   24.6251 C   0  0  0  0  0  0  0  0  0  0  0  0
  -28.5635  -32.7696   26.4621 C   0  0  0  0  0  0  0  0  0  0  0  0
  -26.1381  -32.4411   26.9892 C   0  0  0  0  0  0  0  0  0  0  0  0
  -27.0256  -34.7377   26.5883 C   0  0  0  0  0  0  0  0  0  0  0  0
  -23.3720  -33.2267   20.9990 C   0  0  0  0  0  0  0  0  0  0  0  0
  -26.7754  -33.1478   24.6385 C   0  0  1  0  0  0  0  0  0  0  0  0
  -23.1931  -33.5571   23.4684 C   0  0  2  0  0  0  0  0  0  0  0  0
  -27.1371  -33.2622   26.1463 C   0  0  0  0  0  0  0  0  0  0  0  0
  -26.2188  -11.9333   21.0807 N   0  0  0  0  0  0  0  0  0  0  0  0
  -26.2936  -13.0956   20.4103 N   0  0  0  0  0  0  0  0  0  0  0  0
  -28.4373  -33.1609   22.8050 N   0  0  0  0  0  0  0  0  0  0  0  0
  -29.7105  -14.7804   20.1464 N   0  0  0  0  0  0  0  0  0  0  0  0
  -25.0109  -14.9628   19.7183 N   0  0  0  0  0  0  0  0  0  0  0  0
  -22.0250  -12.4198   21.9575 N   0  0  0  0  0  0  0  0  0  0  0  0
  -29.2483  -17.0899   20.2679 N   0  0  0  0  0  0  0  0  0  0  0  0
  -29.9784  -23.3917   21.2946 N   0  0  0  0  0  0  0  0  0  0  0  0
  -31.9200  -34.0812   22.2394 N   0  0  0  0  0  0  0  0  0  0  0  0
  -25.4401  -33.6324   24.3059 N   0  0  0  0  0  0  0  0  0  0  0  0
  -31.2048  -22.4986   23.1050 N   0  3  0  0  0  0  0  0  0  0  0  0
  -22.5419  -33.0670   22.2206 N   0  3  0  0  0  0  0  0  0  0  0  0
  -22.2974  -14.3658   20.7754 O   0  0  0  0  0  0  0  0  0  0  0  0
  -30.8321  -25.1821   22.5387 O   0  0  0  0  0  0  0  0  0  0  0  0
  -30.7697  -32.7560   23.7702 O   0  0  0  0  0  0  0  0  0  0  0  0
  -27.8483  -35.1314   23.9033 O   0  0  0  0  0  0  0  0  0  0  0  0
  -24.6689  -31.6456   23.3920 O   0  0  0  0  0  0  0  0  0  0  0  0
  -31.2439  -16.3243   19.3661 O   0  0  0  0  0  0  0  0  0  0  0  0
  -23.0535   -7.5267   24.4142 O   0  0  0  0  0  0  0  0  0  0  0  0
  -28.9872  -27.8067   19.7912 O   0  0  0  0  0  0  0  0  0  1  0  0
  -18.2331   -5.3065   22.9183 F   0  0  0  0  0  0  0  0  0  0  0  0
  -27.2368  -18.8941   20.9545 F   0  0  0  0  0  0  0  0  0  0  0  0
  -22.8911   -4.8772   23.6421 F   0  0  0  0  0  0  0  0  0  0  0  0
  1  2  1  0  0  0  0
  1  6  2  0  0  0  0
  2  7  2  0  0  0  0
  3 10  2  0  0  0  0
  3 18  1  0  0  0  0
  4 11  1  0  0  0  0
  4 18  2  0  0  0  0
  5  9  2  0  0  0  0
  5 19  1  0  0  0  0
  6 21  1  0  0  0  0
  7 23  1  0  0  0  0
  8 12  2  0  0  0  0
  8 22  1  0  0  0  0
  9 25  1  0  0  0  0
 10 26  1  0  0  0  0
 11 26  2  0  0  0  0
 12 27  1  0  0  0  0
 13 14  2  0  0  0  0
 13 28  1  0  0  0  0
 14 29  1  0  0  0  0
 15 19  2  0  0  0  0
 15 30  1  0  0  0  0
 16 24  1  0  0  0  0
 16 27  2  0  0  0  0
 17 29  2  0  0  0  0
 17 31  1  0  0  0  0
 18 32  1  0  0  0  0
 19 36  1  0  0  0  0
 20 32  1  0  0  0  0
 20 33  2  0  0  0  0
 20 37  1  0  0  0  0
 21 23  2  0  0  0  0
 21 43  1  0  0  0  0
 22 24  2  0  0  0  0
 22 44  1  0  0  0  0
 23 52  1  0  0  0  0
 24 45  1  0  0  0  0
 25 30  2  0  0  0  0
 25 69  1  0  0  0  0
 26 81  1  0  0  0  0
 27 82  1  0  0  0  0
 28 31  2  0  0  0  0
 28 81  1  0  0  0  0
 29 83  1  0  0  0  0
 30 84  1  0  0  0  0
 31 85  1  0  0  0  0
 32 63  2  0  0  0  0
 33 64  1  0  0  0  0
 33 67  1  0  0  0  0
 34 35  2  0  0  0  0
 34 38  1  0  0  0  0
 35 82  1  0  0  0  0
 36 70  1  0  0  0  0
 36 73  2  0  0  0  0
 37 68  1  0  0  0  0
 37 75  2  0  0  0  0
 38 70  1  0  0  0  0
 38 76  2  0  0  0  0
 39 53  1  0  0  0  0
 39 71  1  0  0  0  0
 39 77  2  0  0  0  0
 40 60  1  0  0  0  0
 40 65  1  0  0  0  0
 40 78  2  0  0  0  0
 41 61  1  0  0  0  0
 41 72  1  0  0  0  0
 41 79  2  0  0  0  0
 42 66  1  0  0  0  0
 42 69  1  0  0  0  0
 42 80  2  0  0  0  0
 43 46  1  0  0  0  0
 44 53  1  0  0  0  0
 45 65  1  0  0  0  0
 46 48  1  0  0  0  0
 47 49  1  0  0  0  0
 47 50  1  0  0  0  0
 48 52  1  0  0  0  0
 49 54  1  0  0  0  0
 50 66  1  0  0  0  0
 51 54  1  0  0  0  0
 51 66  1  0  0  0  0
 52 71  1  0  0  0  0
 53 65  1  0  0  0  0
 54 64  1  0  0  0  0
 55 61  1  0  0  0  0
 56 62  1  0  0  0  0
 57 62  1  0  0  0  0
 58 62  1  0  0  0  0
 59 74  1  0  0  0  0
 60 62  1  0  0  0  0
 60 72  1  0  0  0  0
 61 74  1  0  0  0  0
 63 64  1  0  0  0  0
M  CHG  2  73   1  74   1
M  ISO  4  35 101  42 100  69 100  82 101
M  END
> <Batch ID>
0087

> <Smiles>
CNC(C)C(=O)NC(C(=O)N1Cc2cc([101O:1][101CH:1]=CC(=O)NC(=N)c3ccc([100NH:0][100C:0](=O)N4CCCC(n5nc(-c6ccc(Oc7ccc(F)cc7F)cc6)c(C(N)=O)c5N)C4)c(F)c3)ccc2CC1C(=O)NC1CCCc2ccccc21)C(C)(C)C

> <Shape>
0.244

> <Color>
0.128

> <Negative vol penalty>
0.000

$$$$

  -OEChem-04052300203D

 83 91  0     1  0  0  0  0  0999 V2000
  -27.2429  -18.2795    3.7588 C   0  0  0  0  0  0  0  0  0  0  0  0
  -27.2620  -18.5083    5.1309 C   0  0  0  0  0  0  0  0  0  0  0  0
  -28.1442  -18.7570   21.6669 C   0  0  0  0  0  0  0  0  0  0  0  0
  -23.0561   -9.8797   19.9547 C   0  0  0  0  0  0  0  0  0  0  0  0
  -23.8681   -9.8717   22.2301 C   0  0  0  0  0  0  0  0  0  0  0  0
  -28.8615  -17.6423   22.1009 C   0  0  0  0  0  0  0  0  0  0  0  0
  -26.4698  -17.2432    3.2368 C   0  0  0  0  0  0  0  0  0  0  0  0
  -26.5072  -17.7016    5.9817 C   0  0  0  0  0  0  0  0  0  0  0  0
  -29.0924  -16.2574   10.0897 C   0  0  0  0  0  0  0  0  0  0  0  0
  -27.9825  -18.9943   20.3019 C   0  0  0  0  0  0  0  0  0  0  0  0
  -22.3180   -8.7250   20.2140 C   0  0  0  0  0  0  0  0  0  0  0  0
  -23.1299   -8.7169   22.4895 C   0  0  0  0  0  0  0  0  0  0  0  0
  -29.2344  -17.1925   11.1141 C   0  0  0  0  0  0  0  0  0  0  0  0
  -19.9163   -7.9151   23.1602 C   0  0  0  0  0  0  0  0  0  0  0  0
  -19.1862   -7.8674   24.3478 C   0  0  0  0  0  0  0  0  0  0  0  0
  -29.2557  -17.0021   19.8048 C   0  0  0  0  0  0  0  0  0  0  0  0
  -27.4387  -16.1300   12.3247 C   0  0  0  0  0  0  0  0  0  0  0  0
  -20.4439   -5.9253   25.0430 C   0  0  0  0  0  0  0  0  0  0  0  0
  -23.8312  -10.4531   20.9627 C   0  0  0  0  0  0  0  0  0  0  0  0
  -29.4173  -16.7648   21.1698 C   0  0  0  0  0  0  0  0  0  0  0  0
  -24.1705  -12.9790   20.8515 C   0  0  0  0  0  0  0  0  0  0  0  0
  -25.7127  -16.4173    4.0826 C   0  0  0  0  0  0  0  0  0  0  0  0
  -28.1136  -15.2565   10.1704 C   0  0  0  0  0  0  0  0  0  0  0  0
  -25.7223  -16.6542    5.4704 C   0  0  0  0  0  0  0  0  0  0  0  0
  -27.2880  -15.1818   11.3013 C   0  0  0  0  0  0  0  0  0  0  0  0
  -28.5383  -18.1169   19.3709 C   0  0  0  0  0  0  0  0  0  0  0  0
  -22.3549   -8.1436   21.4814 C   0  0  0  0  0  0  0  0  0  0  0  0
  -28.4056  -17.1306   12.2304 C   0  0  0  0  0  0  0  0  0  0  0  0
  -20.9101   -6.9678   22.9140 C   0  0  0  0  0  0  0  0  0  0  0  0
  -19.4501   -6.8726   25.2892 C   0  0  0  0  0  0  0  0  0  0  0  0
  -21.1739   -5.9729   23.8554 C   0  0  0  0  0  0  0  0  0  0  0  0
  -24.5943  -11.6457   20.6953 C   0  0  0  0  0  0  0  0  0  0  0  0
  -25.2541  -13.7309   20.4683 C   0  0  0  0  0  0  0  0  0  0  0  0
  -28.4700  -18.1809   15.6190 C   0  0  0  0  0  0  0  0  0  0  0  0
  -28.8441  -17.5840   14.4827 C   0  0  0  0  0  0  0  0  0  1  0  0
  -30.1649  -15.6030   21.6237 C   0  0  0  0  0  0  0  0  0  0  0  0
  -22.9099  -13.4920   21.3026 C   0  0  0  0  0  0  0  0  0  0  0  0
  -30.7684  -14.6509   20.6632 C   0  0  0  0  0  0  0  0  0  0  0  0
  -28.8577  -17.5907   16.9334 C   0  0  0  0  0  0  0  0  0  0  0  0
  -25.5587  -14.4737    8.4489 C   0  0  0  0  0  0  0  0  0  0  0  0
  -25.4729  -11.9240   10.4525 C   0  0  0  0  0  0  0  0  0  0  0  0
  -26.3141  -10.5870   13.4777 C   0  0  0  0  0  0  0  0  0  0  0  0
  -24.8555  -15.3395    3.4676 C   0  0  0  0  0  0  0  0  0  0  0  0
  -27.9910  -14.2391    9.0693 C   0  0  0  0  0  0  0  0  0  0  0  0
  -26.2352  -14.1145   11.4456 C   0  0  0  0  0  0  0  0  0  0  0  0
  -24.3779  -14.2939    4.4721 C   0  0  0  0  0  0  0  0  0  0  0  0
  -29.5408  -12.4067   18.1506 C   0  0  0  0  0  0  0  0  0  0  0  0
  -23.8416  -14.9686    5.7307 C   0  0  0  0  0  0  0  0  0  0  0  0
  -28.1229  -12.0883   18.6238 C   0  0  0  0  0  0  0  0  0  0  0  0
  -30.4920  -12.5997   19.3272 C   0  0  0  0  0  0  0  0  0  0  0  0
  -28.6184  -13.3224   20.7818 C   0  0  0  0  0  0  0  0  0  0  0  0
  -24.9364  -15.7851    6.4281 C   0  0  1  0  0  0  0  0  0  0  0  0
  -26.6186  -13.5746    9.0199 C   0  0  1  0  0  0  0  0  0  0  0  0
  -27.6229  -13.1480   19.6216 C   0  0  2  0  0  0  0  0  0  0  0  0
  -26.0728   -8.4949   14.8424 C   0  0  0  0  0  0  0  0  0  0  0  0
  -22.5745  -12.6580   11.0607 C   0  0  0  0  0  0  0  0  0  0  0  0
  -22.6939  -11.1734   13.0732 C   0  0  0  0  0  0  0  0  0  0  0  0
  -22.9959  -10.2075   10.7932 C   0  0  0  0  0  0  0  0  0  0  0  0
  -29.2440  -10.1848   13.5919 C   0  0  0  0  0  0  0  0  0  0  0  0
  -24.8306  -11.6347   11.7877 C   0  0  1  0  0  0  0  0  0  0  0  0
  -26.9401   -9.2555   13.8515 C   0  0  2  0  0  0  0  0  0  0  0  0
  -23.2922  -11.4398   11.6754 C   0  0  0  0  0  0  0  0  0  0  0  0
  -25.8493  -11.5526   20.2477 N   0  0  0  0  0  0  0  0  0  0  0  0
  -30.3564  -15.3215   22.8843 N   0  0  0  0  0  0  0  0  0  0  0  0
  -26.2233  -12.8370   20.1192 N   0  0  0  0  0  0  0  0  0  0  0  0
  -29.9703  -13.5848   20.2725 N   0  0  0  0  0  0  0  0  0  0  0  0
  -26.1500  -13.1466   10.3395 N   0  0  0  0  0  0  0  0  0  0  0  0
  -25.4630  -15.0628   20.3992 N   0  0  0  0  0  0  0  0  0  0  0  0
  -21.9059  -12.5806   21.6569 N   0  0  0  0  0  0  0  0  0  0  0  0
  -28.3738  -18.3579   17.9847 N   0  0  0  0  0  0  0  0  0  0  0  0
  -25.8247  -14.9129    7.1661 N   0  0  0  0  0  0  0  0  0  0  0  0
  -25.5396  -10.4861   12.3414 N   0  0  0  0  0  0  0  0  0  0  0  0
  -28.2807   -9.4680   14.4667 N   0  3  0  0  0  0  0  0  0  0  0  0
  -22.6752  -14.7222   21.3734 O   0  0  0  0  0  0  0  0  0  0  0  0
  -31.9135  -14.9076   20.3151 O   0  0  0  0  0  0  0  0  0  0  0  0
  -29.5181  -16.5604   16.9969 O   0  0  0  0  0  0  0  0  0  0  0  0
  -24.5718  -14.7473    9.1219 O   0  0  0  0  0  0  0  0  0  0  0  0
  -25.3835  -11.0927    9.5456 O   0  0  0  0  0  0  0  0  0  0  0  0
  -26.4912  -11.6130   14.1307 O   0  0  0  0  0  0  0  0  0  0  0  0
  -21.6346   -7.0169   21.7348 O   0  0  0  0  0  0  0  0  0  0  0  0
  -28.5416  -18.0425   13.2314 O   0  0  0  0  0  0  0  0  0  1  0  0
  -18.7500   -6.8279   26.4303 F   0  0  0  0  0  0  0  0  0  0  0  0
  -22.1283   -5.0608   23.6250 F   0  0  0  0  0  0  0  0  0  0  0  0
  1  2  1  0  0  0  0
  1  7  2  0  0  0  0
  2  8  2  0  0  0  0
  3  6  1  0  0  0  0
  3 10  2  0  0  0  0
  4 11  2  0  0  0  0
  4 19  1  0  0  0  0
  5 12  1  0  0  0  0
  5 19  2  0  0  0  0
  6 20  2  0  0  0  0
  7 22  1  0  0  0  0
  8 24  1  0  0  0  0
  9 13  2  0  0  0  0
  9 23  1  0  0  0  0
 10 26  1  0  0  0  0
 11 27  1  0  0  0  0
 12 27  2  0  0  0  0
 13 28  1  0  0  0  0
 14 15  2  0  0  0  0
 14 29  1  0  0  0  0
 15 30  1  0  0  0  0
 16 20  1  0  0  0  0
 16 26  2  0  0  0  0
 17 25  1  0  0  0  0
 17 28  2  0  0  0  0
 18 30  2  0  0  0  0
 18 31  1  0  0  0  0
 19 32  1  0  0  0  0
 20 36  1  0  0  0  0
 21 32  1  0  0  0  0
 21 33  2  0  0  0  0
 21 37  1  0  0  0  0
 22 24  2  0  0  0  0
 22 43  1  0  0  0  0
 23 25  2  0  0  0  0
 23 44  1  0  0  0  0
 24 52  1  0  0  0  0
 25 45  1  0  0  0  0
 26 70  1  0  0  0  0
 27 80  1  0  0  0  0
 28 81  1  0  0  0  0
 29 31  2  0  0  0  0
 29 80  1  0  0  0  0
 30 82  1  0  0  0  0
 31 83  1  0  0  0  0
 32 63  2  0  0  0  0
 33 65  1  0  0  0  0
 33 68  1  0  0  0  0
 34 35  2  0  0  0  0
 34 39  1  0  0  0  0
 35 81  1  0  0  0  0
 36 38  1  0  0  0  0
 36 64  2  0  0  0  0
 37 69  1  0  0  0  0
 37 74  2  0  0  0  0
 38 66  1  0  0  0  0
 38 75  2  0  0  0  0
 39 70  1  0  0  0  0
 39 76  2  0  0  0  0
 40 53  1  0  0  0  0
 40 71  1  0  0  0  0
 40 77  2  0  0  0  0
 41 60  1  0  0  0  0
 41 67  1  0  0  0  0
 41 78  2  0  0  0  0
 42 61  1  0  0  0  0
 42 72  1  0  0  0  0
 42 79  2  0  0  0  0
 43 46  1  0  0  0  0
 44 53  1  0  0  0  0
 45 67  1  0  0  0  0
 46 48  1  0  0  0  0
 47 49  1  0  0  0  0
 47 50  1  0  0  0  0
 48 52  1  0  0  0  0
 49 54  1  0  0  0  0
 50 66  1  0  0  0  0
 51 54  1  0  0  0  0
 51 66  1  0  0  0  0
 52 71  1  0  0  0  0
 53 67  1  0  0  0  0
 54 65  1  0  0  0  0
 55 61  1  0  0  0  0
 56 62  1  0  0  0  0
 57 62  1  0  0  0  0
 58 62  1  0  0  0  0
 59 73  1  0  0  0  0
 60 62  1  0  0  0  0
 60 72  1  0  0  0  0
 61 73  1  0  0  0  0
 63 65  1  0  0  0  0
M  CHG  1  73   1
M  ISO  4  35 101  36 100  38 100  81 101
M  END
> <Batch ID>
0087

> <Smiles>
CNC(C)C(=O)NC(C(=O)N1Cc2cc([101O:1][101CH:1]=CC(=O)Nc3cccc([100C:0](=N)[100C:0](=O)N4CCCC(n5nc(-c6ccc(Oc7ccc(F)cc7F)cc6)c(C(N)=O)c5N)C4)c3)ccc2CC1C(=O)NC1CCCc2ccccc21)C(C)(C)C

> <Shape>
0.194

> <Color>
0.185

> <Negative vol penalty>
0.000

$$$$

  -OEChem-04052300203D

 85 93  0     1  0  0  0  0  0999 V2000
  -28.2063  -24.3672   17.1149 C   0  0  0  0  0  0  0  0  0  0  0  0
  -26.9740  -24.6616   17.6895 C   0  0  0  0  0  0  0  0  0  0  0  0
  -27.5388  -19.9838   20.1185 C   0  0  0  0  0  0  0  0  0  0  0  0
  -27.2615  -18.2160   21.7418 C   0  0  0  0  0  0  0  0  0  0  0  0
  -29.3814  -24.7983   17.7290 C   0  0  0  0  0  0  0  0  0  0  0  0
  -26.9162  -25.3865   18.8793 C   0  0  0  0  0  0  0  0  0  0  0  0
  -23.3880  -29.0176   18.7725 C   0  0  0  0  0  0  0  0  0  0  0  0
  -18.7255  -21.2750   23.2953 C   0  0  0  0  0  0  0  0  0  0  0  0
  -18.6707  -22.5192   22.6671 C   0  0  0  0  0  0  0  0  0  0  0  0
  -28.7583  -19.4322   19.7260 C   0  0  0  0  0  0  0  0  0  0  0  0
  -28.4810  -17.6643   21.3492 C   0  0  0  0  0  0  0  0  0  0  0  0
  -22.0632  -28.6238   18.9564 C   0  0  0  0  0  0  0  0  0  0  0  0
  -29.6509  -15.7614   18.8133 C   0  0  0  0  0  0  0  0  0  0  0  0
  -29.7034  -14.3812   18.6189 C   0  0  0  0  0  0  0  0  0  0  0  0
  -22.1825  -29.3214   21.2626 C   0  0  0  0  0  0  0  0  0  0  0  0
  -20.0262  -22.2379   25.0892 C   0  0  0  0  0  0  0  0  0  0  0  0
  -31.4001  -14.2047   20.3298 C   0  0  0  0  0  0  0  0  0  0  0  0
  -26.7904  -19.3758   21.1264 C   0  0  0  0  0  0  0  0  0  0  0  0
  -25.3107  -21.2315   22.0615 C   0  0  0  0  0  0  0  0  0  0  0  0
  -29.3376  -25.5371   18.9219 C   0  0  0  0  0  0  0  0  0  0  0  0
  -24.1245  -29.5570   19.8369 C   0  0  0  0  0  0  0  0  0  0  0  0
  -28.0919  -25.8267   19.5107 C   0  0  0  0  0  0  0  0  0  0  0  0
  -23.5156  -29.7236   21.0889 C   0  0  0  0  0  0  0  0  0  0  0  0
  -19.4032  -21.1343   24.5063 C   0  0  0  0  0  0  0  0  0  0  0  0
  -19.2937  -23.6227   23.2499 C   0  0  0  0  0  0  0  0  0  0  0  0
  -19.9715  -23.4821   24.4610 C   0  0  0  0  0  0  0  0  0  0  0  0
  -29.2294  -18.2724   20.3413 C   0  0  0  0  0  0  0  0  0  0  0  0
  -21.4612  -28.7730   20.2024 C   0  0  0  0  0  0  0  0  0  0  0  0
  -30.4731  -16.3633   19.7659 C   0  0  0  0  0  0  0  0  0  0  0  0
  -30.5780  -13.6028   19.3771 C   0  0  0  0  0  0  0  0  0  0  0  0
  -31.3476  -15.5850   20.5242 C   0  0  0  0  0  0  0  0  0  0  0  0
  -25.5309  -19.9455   21.5328 C   0  0  0  0  0  0  0  0  0  0  0  0
  -23.9561  -21.2846   22.2824 C   0  0  0  0  0  0  0  0  0  0  0  0
  -19.9294  -27.1035   20.7830 C   0  0  0  0  0  0  0  0  0  1  0  0
  -26.2468  -22.2840   22.3289 C   0  0  0  0  0  0  0  0  0  0  0  0
  -18.7047  -26.6033   20.9968 C   0  0  0  0  0  0  0  0  0  0  0  0
  -18.5727  -25.1671   21.4035 C   0  0  0  0  0  0  0  0  0  0  0  0
  -26.7538  -28.7028   21.4056 C   0  0  0  0  0  0  0  0  0  0  0  0
  -26.3584  -31.5809   22.8488 C   0  0  0  0  0  0  0  0  0  0  0  0
  -24.2459  -34.1077   23.7429 C   0  0  0  0  0  0  0  0  0  0  0  0
  -19.4360  -18.6269   24.4546 C   0  0  0  0  0  0  0  0  0  0  0  0
  -30.6363  -25.9409   19.5738 C   0  0  0  0  0  0  0  0  0  0  0  0
  -25.5442  -30.0017   19.6151 C   0  0  0  0  0  0  0  0  0  0  0  0
  -24.2566  -30.3162   22.2586 C   0  0  0  0  0  0  0  0  0  0  0  0
  -30.4736  -27.0262   20.6348 C   0  0  0  0  0  0  0  0  0  0  0  0
  -20.2285  -18.1917   20.8663 C   0  0  0  0  0  0  0  0  0  0  0  0
  -29.3088  -26.6955   21.5626 C   0  0  0  0  0  0  0  0  0  0  0  0
  -21.6877  -18.6359   20.7848 C   0  0  0  0  0  0  0  0  0  0  0  0
  -19.8858  -17.6216   22.2393 C   0  0  0  0  0  0  0  0  0  0  0  0
  -21.6622  -18.9974   23.2849 C   0  0  0  0  0  0  0  0  0  0  0  0
  -27.9871  -26.6321   20.7877 C   0  0  1  0  0  0  0  0  0  0  0  0
  -26.3593  -30.0628   20.9033 C   0  0  1  0  0  0  0  0  0  0  0  0
  -22.0218  -19.6128   21.9243 C   0  0  1  0  0  0  0  0  0  0  0  0
  -17.4259  -27.3569   20.8016 C   0  0  0  0  0  0  0  0  0  0  0  0
  -23.5337  -36.3338   24.6564 C   0  0  0  0  0  0  0  0  0  0  0  0
  -26.4871  -30.1172   25.5229 C   0  0  0  0  0  0  0  0  0  0  0  0
  -25.5113  -32.1531   26.6051 C   0  0  0  0  0  0  0  0  0  0  0  0
  -27.7244  -32.2897   25.4622 C   0  0  0  0  0  0  0  0  0  0  0  0
  -19.2721  -19.8031   26.6043 C   0  0  0  0  0  0  0  0  0  0  0  0
  -24.6344  -35.4359   21.1268 C   0  0  0  0  0  0  0  0  0  0  0  0
  -25.6234  -32.0710   24.0729 C   0  0  1  0  0  0  0  0  0  0  0  0
  -24.3623  -35.6148   23.6032 C   0  0  2  0  0  0  0  0  0  0  0  0
  -26.3229  -31.6447   25.3944 C   0  0  0  0  0  0  0  0  0  0  0  0
  -24.4064  -19.2330   21.4245 N   0  0  0  0  0  0  0  0  0  0  0  0
  -23.4665  -20.0742   21.8883 N   0  0  0  0  0  0  0  0  0  0  0  0
  -25.6444  -30.7298   21.9933 N   0  0  0  0  0  0  0  0  0  0  0  0
  -20.2644  -18.5369   23.3171 N   0  0  0  0  0  0  0  0  0  0  0  0
  -20.6093  -24.5867   25.0690 N   0  0  0  0  0  0  0  0  0  0  0  0
  -23.1480  -22.2480   22.7735 N   0  0  0  0  0  0  0  0  0  0  0  0
  -26.8517  -22.3352   23.5922 N   0  0  0  0  0  0  0  0  0  0  0  0
  -19.2242  -24.8757   22.5935 N   0  0  0  0  0  0  0  0  0  0  0  0
  -27.5014  -27.9661   20.5068 N   0  0  0  0  0  0  0  0  0  0  0  0
  -25.4788  -33.5138   23.9118 N   0  0  0  0  0  0  0  0  0  0  0  0
  -19.4594  -19.8475   25.1558 N   0  0  0  0  0  0  0  0  0  0  0  0
  -23.8906  -36.0483   22.2576 N   0  3  0  0  0  0  0  0  0  0  0  0
  -26.5260  -23.1629   21.4785 O   0  0  0  0  0  0  0  0  0  0  0  0
  -17.8893  -24.4138   20.7170 O   0  0  0  0  0  0  0  0  0  0  0  0
  -26.4069  -28.3486   22.5263 O   0  0  0  0  0  0  0  0  0  0  0  0
  -27.5207  -31.9455   22.6549 O   0  0  0  0  0  0  0  0  0  0  0  0
  -23.1688  -33.5168   23.7095 O   0  0  0  0  0  0  0  0  0  0  0  0
  -18.7635  -17.6674   24.8519 O   0  0  0  0  0  0  0  0  0  0  0  0
  -30.4192  -17.7336   19.9583 O   0  0  0  0  0  0  0  0  0  0  0  0
  -20.1685  -28.3888   20.3848 O   0  0  0  0  0  0  0  0  0  1  0  0
  -30.6272  -12.2772   19.1914 F   0  0  0  0  0  0  0  0  0  0  0  0
  -32.1390  -16.1574   21.4417 F   0  0  0  0  0  0  0  0  0  0  0  0
  1  2  1  0  0  0  0
  1  5  2  0  0  0  0
  2  6  2  0  0  0  0
  3 10  2  0  0  0  0
  3 18  1  0  0  0  0
  4 11  1  0  0  0  0
  4 18  2  0  0  0  0
  5 20  1  0  0  0  0
  6 22  1  0  0  0  0
  7 12  2  0  0  0  0
  7 21  1  0  0  0  0
  8  9  2  0  0  0  0
  8 24  1  0  0  0  0
  9 25  1  0  0  0  0
 10 27  1  0  0  0  0
 11 27  2  0  0  0  0
 12 28  1  0  0  0  0
 13 14  2  0  0  0  0
 13 29  1  0  0  0  0
 14 30  1  0  0  0  0
 15 23  1  0  0  0  0
 15 28  2  0  0  0  0
 16 24  2  0  0  0  0
 16 26  1  0  0  0  0
 17 30  2  0  0  0  0
 17 31  1  0  0  0  0
 18 32  1  0  0  0  0
 19 32  1  0  0  0  0
 19 33  2  0  0  0  0
 19 35  1  0  0  0  0
 20 22  2  0  0  0  0
 20 42  1  0  0  0  0
 21 23  2  0  0  0  0
 21 43  1  0  0  0  0
 22 51  1  0  0  0  0
 23 44  1  0  0  0  0
 24 74  1  0  0  0  0
 25 26  2  0  0  0  0
 25 71  1  0  0  0  0
 26 68  1  0  0  0  0
 27 82  1  0  0  0  0
 28 83  1  0  0  0  0
 29 31  2  0  0  0  0
 29 82  1  0  0  0  0
 30 84  1  0  0  0  0
 31 85  1  0  0  0  0
 32 64  2  0  0  0  0
 33 65  1  0  0  0  0
 33 69  1  0  0  0  0
 34 36  2  0  0  0  0
 34 83  1  0  0  0  0
 35 70  1  0  0  0  0
 35 76  2  0  0  0  0
 36 37  1  0  0  0  0
 36 54  1  0  0  0  0
 37 71  1  0  0  0  0
 37 77  2  0  0  0  0
 38 52  1  0  0  0  0
 38 72  1  0  0  0  0
 38 78  2  0  0  0  0
 39 61  1  0  0  0  0
 39 66  1  0  0  0  0
 39 79  2  0  0  0  0
 40 62  1  0  0  0  0
 40 73  1  0  0  0  0
 40 80  2  0  0  0  0
 41 67  1  0  0  0  0
 41 74  1  0  0  0  0
 41 81  2  0  0  0  0
 42 45  1  0  0  0  0
 43 52  1  0  0  0  0
 44 66  1  0  0  0  0
 45 47  1  0  0  0  0
 46 48  1  0  0  0  0
 46 49  1  0  0  0  0
 47 51  1  0  0  0  0
 48 53  1  0  0  0  0
 49 67  1  0  0  0  0
 50 53  1  0  0  0  0
 50 67  1  0  0  0  0
 51 72  1  0  0  0  0
 52 66  1  0  0  0  0
 53 65  1  0  0  0  0
 55 62  1  0  0  0  0
 56 63  1  0  0  0  0
 57 63  1  0  0  0  0
 58 63  1  0  0  0  0
 59 74  1  0  0  0  0
 60 75  1  0  0  0  0
 61 63  1  0  0  0  0
 61 73  1  0  0  0  0
 62 75  1  0  0  0  0
 64 65  1  0  0  0  0
M  CHG  1  75   1
M  ISO  4  34 101  41 100  74 100  83 101
M  END
> <Batch ID>
0087

> <Smiles>
CNC(C)C(=O)NC(C(=O)N1Cc2cc([101O:1][101CH:1]=C(C)C(=O)Nc3ccc([100N:0](C)[100C:0](=O)N4CCCC(n5nc(-c6ccc(Oc7ccc(F)cc7F)cc6)c(C(N)=O)c5N)C4)cc3N)ccc2CC1C(=O)NC1CCCc2ccccc21)C(C)(C)C

> <Shape>
0.262

> <Color>
0.069

> <Negative vol penalty>
0.000

$$$$

  -OEChem-04052300203D

 89 98  0     1  0  0  0  0  0999 V2000
  -28.2426  -37.5785   20.7657 C   0  0  0  0  0  0  0  0  0  0  0  0
  -28.6668  -36.2875   20.4678 C   0  0  0  0  0  0  0  0  0  0  0  0
  -22.4633  -18.2819   20.0871 C   0  0  0  0  0  0  0  0  0  0  0  0
  -21.2394  -17.0301   18.4221 C   0  0  0  0  0  0  0  0  0  0  0  0
  -29.8389  -19.6366   20.7200 C   0  0  0  0  0  0  0  0  0  0  0  0
  -32.0792  -19.6457   19.8157 C   0  0  0  0  0  0  0  0  0  0  0  0
  -27.2865  -37.7851   21.7592 C   0  0  0  0  0  0  0  0  0  0  0  0
  -28.1359  -35.2023   21.1641 C   0  0  0  0  0  0  0  0  0  0  0  0
  -27.0226  -29.5996   18.9558 C   0  0  0  0  0  0  0  0  0  0  0  0
  -29.8514  -21.0306   20.7653 C   0  0  0  0  0  0  0  0  0  0  0  0
  -32.0918  -21.0398   19.8609 C   0  0  0  0  0  0  0  0  0  0  0  0
  -22.1114  -19.4722   19.4508 C   0  0  0  0  0  0  0  0  0  0  0  0
  -20.8875  -18.2204   17.7858 C   0  0  0  0  0  0  0  0  0  0  0  0
  -27.7409  -28.4064   19.0197 C   0  0  0  0  0  0  0  0  0  0  0  0
  -21.8340  -22.8203   18.0590 C   0  0  0  0  0  0  0  0  0  0  0  0
  -22.8313  -23.7777   17.8735 C   0  0  0  0  0  0  0  0  0  0  0  0
  -26.4224  -27.7214   20.9201 C   0  0  0  0  0  0  0  0  0  0  0  0
  -24.1029  -22.1986   16.5595 C   0  0  0  0  0  0  0  0  0  0  0  0
  -22.0273  -17.0608   19.5727 C   0  0  0  0  0  0  0  0  0  0  0  0
  -30.9528  -18.9441   20.2453 C   0  0  0  0  0  0  0  0  0  0  0  0
  -21.6805  -15.1691   21.2487 C   0  0  0  0  0  0  0  0  0  0  0  0
  -26.7365  -36.7010   22.4613 C   0  0  0  0  0  0  0  0  0  0  0  0
  -26.0044  -29.8679   19.8819 C   0  0  0  0  0  0  0  0  0  0  0  0
  -27.1725  -35.3946   22.1689 C   0  0  0  0  0  0  0  0  0  0  0  0
  -25.6909  -28.9176   20.8642 C   0  0  0  0  0  0  0  0  0  0  0  0
  -30.9778  -21.7323   20.3357 C   0  0  0  0  0  0  0  0  0  0  0  0
  -21.3235  -19.4415   18.3002 C   0  0  0  0  0  0  0  0  0  0  0  0
  -27.4428  -27.4684   20.0037 C   0  0  0  0  0  0  0  0  0  0  0  0
  -21.9712  -21.5520   17.4947 C   0  0  0  0  0  0  0  0  0  0  0  0
  -23.9657  -23.4669   17.1237 C   0  0  0  0  0  0  0  0  0  0  0  0
  -23.1055  -21.2412   16.7450 C   0  0  0  0  0  0  0  0  0  0  0  0
  -22.3909  -15.8308   20.2292 C   0  0  0  0  0  0  0  0  0  0  0  0
  -22.4366  -14.0569   21.5278 C   0  0  0  0  0  0  0  0  0  0  0  0
  -30.2771  -25.2986   20.3425 C   0  0  0  0  0  0  0  0  0  0  0  0
  -31.7316  -25.3164   20.5501 C   0  0  0  0  0  0  0  0  0  0  0  0
  -29.8171  -23.8992   20.2356 C   0  0  0  0  0  0  0  0  0  0  0  0
  -30.9401  -17.4713   20.1962 C   0  0  0  0  0  0  0  0  0  0  0  0
  -29.4937  -26.3742   20.2630 C   0  0  0  0  0  0  0  0  0  1  0  0
  -29.8302  -16.7187   20.2088 C   0  0  0  0  0  0  0  0  0  0  0  0
  -20.4473  -15.5276   21.8862 C   0  0  0  0  0  0  0  0  0  0  0  0
  -29.9390  -15.2326   20.1460 C   0  0  0  0  0  0  0  0  0  0  0  0
  -25.5201  -32.0904   22.1022 C   0  0  0  0  0  0  0  0  0  0  0  0
  -22.6250  -30.6496   22.3572 C   0  0  0  0  0  0  0  0  0  0  0  0
  -20.7378  -27.8406   21.9153 C   0  0  0  0  0  0  0  0  0  0  0  0
  -28.4688  -13.2373   20.1303 C   0  0  0  0  0  0  0  0  0  0  0  0
  -25.7403  -36.9777   23.5594 C   0  0  0  0  0  0  0  0  0  0  0  0
  -25.2209  -31.1481   19.7831 C   0  0  0  0  0  0  0  0  0  0  0  0
  -24.5935  -29.1487   21.8696 C   0  0  0  0  0  0  0  0  0  0  0  0
  -32.2278  -23.9009   20.5775 C   0  0  0  0  0  0  0  0  0  0  0  0
  -24.9525  -35.7438   23.9922 C   0  0  0  0  0  0  0  0  0  0  0  0
  -25.5644  -11.1800   19.1997 C   0  0  0  0  0  0  0  0  0  0  0  0
  -25.8883  -34.5560   24.1921 C   0  0  0  0  0  0  0  0  0  0  0  0
  -24.3290  -11.9710   19.6339 C   0  0  0  0  0  0  0  0  0  0  0  0
  -26.7738  -11.4300   20.0903 C   0  0  0  0  0  0  0  0  0  0  0  0
  -25.9886  -13.8030   20.2316 C   0  0  0  0  0  0  0  0  0  0  0  0
  -26.6019  -34.1898   22.8851 C   0  0  1  0  0  0  0  0  0  0  0  0
  -24.5495  -31.5406   21.0955 C   0  0  1  0  0  0  0  0  0  0  0  0
  -24.6576  -13.1260   20.5943 C   0  0  1  0  0  0  0  0  0  0  0  0
  -18.4136  -26.9560   22.2509 C   0  0  0  0  0  0  0  0  0  0  0  0
  -23.1621  -30.3805   25.3487 C   0  0  0  0  0  0  0  0  0  0  0  0
  -21.3137  -28.6953   25.4581 C   0  0  0  0  0  0  0  0  0  0  0  0
  -20.8217  -31.0403   24.7641 C   0  0  0  0  0  0  0  0  0  0  0  0
  -20.3848  -27.3416   19.0196 C   0  0  0  0  0  0  0  0  0  0  0  0
  -22.0649  -29.5134   23.1783 C   0  0  1  0  0  0  0  0  0  0  0  0
  -19.3728  -27.6332   21.2844 C   0  0  2  0  0  0  0  0  0  0  0  0
  -21.8626  -29.9035   24.6697 C   0  0  0  0  0  0  0  0  0  0  0  0
  -23.5123  -15.1924   19.8842 N   0  0  0  0  0  0  0  0  0  0  0  0
  -23.5123  -14.1180   20.6915 N   0  0  0  0  0  0  0  0  0  0  0  0
  -30.9899  -23.1246   20.3788 N   0  0  0  0  0  0  0  0  0  0  0  0
  -23.8603  -30.4183   21.7356 N   0  0  0  0  0  0  0  0  0  0  0  0
  -27.1113  -12.8547   20.1469 N   0  0  0  0  0  0  0  0  0  0  0  0
  -22.2797  -13.0426   22.4047 N   0  0  0  0  0  0  0  0  0  0  0  0
  -19.8014  -16.7027   21.4785 N   0  0  0  0  0  0  0  0  0  0  0  0
  -28.6850  -14.6224   20.1697 N   0  0  0  0  0  0  0  0  0  0  0  0
  -25.7116  -33.4559   22.0116 N   0  0  0  0  0  0  0  0  0  0  0  0
  -20.8456  -29.0836   22.5024 N   0  0  0  0  0  0  0  0  0  0  0  0
  -19.4892  -26.7838   20.0654 N   0  3  0  0  0  0  0  0  0  0  0  0
  -32.4204  -26.3140   20.6783 O   0  0  0  0  0  0  0  0  0  0  0  0
  -28.6675  -23.5342   20.0616 O   0  0  0  0  0  0  0  0  0  0  0  0
  -19.9419  -14.8352   22.8020 O   0  0  0  0  0  0  0  0  0  0  0  0
  -31.0183  -14.6527   20.0881 O   0  0  0  0  0  0  0  0  0  0  0  0
  -26.0544  -31.3321   22.9029 O   0  0  0  0  0  0  0  0  0  0  0  0
  -21.9865  -31.7009   22.2646 O   0  0  0  0  0  0  0  0  0  0  0  0
  -21.6191  -26.9842   21.8930 O   0  0  0  0  0  0  0  0  0  0  0  0
  -29.3948  -12.4233   20.0698 O   0  0  0  0  0  0  0  0  0  0  0  0
  -20.9798  -20.6029   17.6791 O   0  0  0  0  0  0  0  0  0  0  0  0
  -28.1428  -26.3032   20.0686 O   0  0  0  0  0  0  0  0  0  1  0  0
  -24.9226  -24.3868   16.9444 F   0  0  0  0  0  0  0  0  0  0  0  0
  -23.2423  -20.0248   16.1994 F   0  0  0  0  0  0  0  0  0  0  0  0
  1  2  1  0  0  0  0
  1  7  2  0  0  0  0
  2  8  2  0  0  0  0
  3 12  2  0  0  0  0
  3 19  1  0  0  0  0
  4 13  1  0  0  0  0
  4 19  2  0  0  0  0
  5 10  2  0  0  0  0
  5 20  1  0  0  0  0
  6 11  1  0  0  0  0
  6 20  2  0  0  0  0
  7 22  1  0  0  0  0
  8 24  1  0  0  0  0
  9 14  2  0  0  0  0
  9 23  1  0  0  0  0
 10 26  1  0  0  0  0
 11 26  2  0  0  0  0
 12 27  1  0  0  0  0
 13 27  2  0  0  0  0
 14 28  1  0  0  0  0
 15 16  2  0  0  0  0
 15 29  1  0  0  0  0
 16 30  1  0  0  0  0
 17 25  1  0  0  0  0
 17 28  2  0  0  0  0
 18 30  2  0  0  0  0
 18 31  1  0  0  0  0
 19 32  1  0  0  0  0
 20 37  1  0  0  0  0
 21 32  1  0  0  0  0
 21 33  2  0  0  0  0
 21 40  1  0  0  0  0
 22 24  2  0  0  0  0
 22 46  1  0  0  0  0
 23 25  2  0  0  0  0
 23 47  1  0  0  0  0
 24 56  1  0  0  0  0
 25 48  1  0  0  0  0
 26 69  1  0  0  0  0
 27 86  1  0  0  0  0
 28 87  1  0  0  0  0
 29 31  2  0  0  0  0
 29 86  1  0  0  0  0
 30 88  1  0  0  0  0
 31 89  1  0  0  0  0
 32 67  2  0  0  0  0
 33 68  1  0  0  0  0
 33 72  1  0  0  0  0
 34 35  1  0  0  0  0
 34 36  1  0  0  0  0
 34 38  2  0  0  0  0
 35 49  1  0  0  0  0
 35 78  2  0  0  0  0
 36 69  1  0  0  0  0
 36 79  2  0  0  0  0
 37 39  2  0  0  0  0
 38 87  1  0  0  0  0
 39 41  1  0  0  0  0
 40 73  1  0  0  0  0
 40 80  2  0  0  0  0
 41 74  1  0  0  0  0
 41 81  2  0  0  0  0
 42 57  1  0  0  0  0
 42 75  1  0  0  0  0
 42 82  2  0  0  0  0
 43 64  1  0  0  0  0
 43 70  1  0  0  0  0
 43 83  2  0  0  0  0
 44 65  1  0  0  0  0
 44 76  1  0  0  0  0
 44 84  2  0  0  0  0
 45 71  1  0  0  0  0
 45 74  1  0  0  0  0
 45 85  2  0  0  0  0
 46 50  1  0  0  0  0
 47 57  1  0  0  0  0
 48 70  1  0  0  0  0
 49 69  1  0  0  0  0
 50 52  1  0  0  0  0
 51 53  1  0  0  0  0
 51 54  1  0  0  0  0
 52 56  1  0  0  0  0
 53 58  1  0  0  0  0
 54 71  1  0  0  0  0
 55 58  1  0  0  0  0
 55 71  1  0  0  0  0
 56 75  1  0  0  0  0
 57 70  1  0  0  0  0
 58 68  1  0  0  0  0
 59 65  1  0  0  0  0
 60 66  1  0  0  0  0
 61 66  1  0  0  0  0
 62 66  1  0  0  0  0
 63 77  1  0  0  0  0
 64 66  1  0  0  0  0
 64 76  1  0  0  0  0
 65 77  1  0  0  0  0
 67 68  1  0  0  0  0
M  CHG  1  77   1
M  ISO  4  38 101  45 100  74 100  87 101
M  END
> <Batch ID>
0087

> <Smiles>
CNC(C)C(=O)NC(C(=O)N1Cc2cc([101O:1][101CH:1]=C3C(=O)CN(c4ccc(C=CC(=O)[100NH:0][100C:0](=O)N5CCCC(n6nc(-c7ccc(Oc8ccc(F)cc8F)cc7)c(C(N)=O)c6N)C5)cc4)C3=O)ccc2CC1C(=O)NC1CCCc2ccccc21)C(C)(C)C

> <Shape>
0.279

> <Color>
0.094

> <Negative vol penalty>
0.000

$$$$

  -OEChem-04052300203D

 85 94  0     1  0  0  0  0  0999 V2000
  -17.4219  -25.9157   21.6249 C   0  0  0  0  0  0  0  0  0  0  0  0
  -18.7336  -25.5594   21.3287 C   0  0  0  0  0  0  0  0  0  0  0  0
  -32.0766  -18.3314   18.9062 C   0  0  0  0  0  0  0  0  0  0  0  0
  -22.3111  -15.1044   21.8645 C   0  0  0  0  0  0  0  0  0  0  0  0
  -23.4827  -16.8872   22.9986 C   0  0  0  0  0  0  0  0  0  0  0  0
  -17.1535  -27.1442   22.2271 C   0  0  0  0  0  0  0  0  0  0  0  0
  -19.7777  -26.4319   21.6336 C   0  0  0  0  0  0  0  0  0  0  0  0
  -23.7086  -24.0788   23.7914 C   0  0  0  0  0  0  0  0  0  0  0  0
  -31.9815  -17.2004   19.7170 C   0  0  0  0  0  0  0  0  0  0  0  0
  -31.0560  -19.2823   18.9130 C   0  0  0  0  0  0  0  0  0  0  0  0
  -21.4058  -15.0261   22.9227 C   0  0  0  0  0  0  0  0  0  0  0  0
  -22.5774  -16.8089   24.0568 C   0  0  0  0  0  0  0  0  0  0  0  0
  -24.5613  -23.3632   22.9520 C   0  0  0  0  0  0  0  0  0  0  0  0
  -21.3198  -13.7085   26.0342 C   0  0  0  0  0  0  0  0  0  0  0  0
  -20.9889  -12.4400   26.5105 C   0  0  0  0  0  0  0  0  0  0  0  0
  -26.1219  -25.2025   22.9794 C   0  0  0  0  0  0  0  0  0  0  0  0
  -29.8452  -17.9709   20.5413 C   0  0  0  0  0  0  0  0  0  0  0  0
  -27.5106  -21.6490   19.1012 C   0  0  0  0  0  0  0  0  0  0  0  0
  -18.6691  -12.8414   25.9681 C   0  0  0  0  0  0  0  0  0  0  0  0
  -28.1223  -20.3284   20.8193 C   0  0  0  0  0  0  0  0  0  0  0  0
  -23.3496  -16.0349   21.9024 C   0  0  0  0  0  0  0  0  0  0  0  0
  -24.1800  -16.9182   19.6579 C   0  0  0  0  0  0  0  0  0  0  0  0
  -18.1957  -28.0281   22.5484 C   0  0  0  0  0  0  0  0  0  0  0  0
  -24.0517  -25.3681   24.2230 C   0  0  0  0  0  0  0  0  0  0  0  0
  -19.5229  -27.6740   22.2395 C   0  0  0  0  0  0  0  0  0  0  0  0
  -25.2730  -25.9313   23.8263 C   0  0  0  0  0  0  0  0  0  0  0  0
  -30.8658  -17.0201   20.5345 C   0  0  0  0  0  0  0  0  0  0  0  0
  -27.2366  -21.3169   20.4510 C   0  0  0  0  0  0  0  0  0  0  0  0
  -29.9403  -19.1020   19.7305 C   0  0  0  0  0  0  0  0  0  0  0  0
  -21.5389  -15.8784   24.0189 C   0  0  0  0  0  0  0  0  0  0  0  0
  -25.7668  -23.9262   22.5435 C   0  0  0  0  0  0  0  0  0  0  0  0
  -20.3253  -14.5436   25.5249 C   0  0  0  0  0  0  0  0  0  0  0  0
  -19.6636  -12.0064   26.4774 C   0  0  0  0  0  0  0  0  0  0  0  0
  -19.0000  -14.1100   25.4918 C   0  0  0  0  0  0  0  0  0  0  0  0
  -24.2854  -16.1158   20.8098 C   0  0  0  0  0  0  0  0  0  0  0  0
  -25.3134  -16.6335   18.9363 C   0  0  0  0  0  0  0  0  0  0  0  0
  -28.5553  -20.8531   18.6858 C   0  0  0  0  0  0  0  0  0  0  0  0
  -23.1497  -17.8385   19.2745 C   0  0  0  0  0  0  0  0  0  0  0  0
  -22.7844  -28.2621   23.8734 C   0  0  0  0  0  0  0  0  0  0  0  0
  -30.7010  -14.5438   20.5855 C   0  0  0  0  0  0  0  0  0  0  0  0
  -25.1328  -29.1141   25.9426 C   0  0  0  0  0  0  0  0  0  0  0  0
  -28.1958  -28.4374   27.2867 C   0  0  0  0  0  0  0  0  0  0  0  0
  -17.8523  -29.3652   23.1557 C   0  0  0  0  0  0  0  0  0  0  0  0
  -23.1332  -26.1163   25.1499 C   0  0  0  0  0  0  0  0  0  0  0  0
  -25.6972  -27.3040   24.2781 C   0  0  0  0  0  0  0  0  0  0  0  0
  -19.0484  -30.0723   23.7879 C   0  0  0  0  0  0  0  0  0  0  0  0
  -28.4806  -13.1463   18.1448 C   0  0  0  0  0  0  0  0  0  0  0  0
  -20.2511  -30.0281   22.8507 C   0  0  0  0  0  0  0  0  0  0  0  0
  -27.1374  -13.8008   18.4650 C   0  0  0  0  0  0  0  0  0  0  0  0
  -29.2910  -12.8865   19.4108 C   0  0  0  0  0  0  0  0  0  0  0  0
  -28.1661  -14.7578   20.5747 C   0  0  0  0  0  0  0  0  0  0  0  0
  -20.6847  -28.5828   22.5774 C   0  0  1  0  0  0  0  0  0  0  0  0
  -23.3474  -27.6263   25.1129 C   0  0  1  0  0  0  0  0  0  0  0  0
  -27.3287  -15.0655   19.3207 C   0  0  2  0  0  0  0  0  0  0  0  0
  -31.9097  -15.6947   22.4176 C   0  0  0  0  0  0  0  0  0  0  0  0
  -29.8692  -29.3355   28.9270 C   0  0  0  0  0  0  0  0  0  0  0  0
  -25.9742  -31.2365   23.9185 C   0  0  0  0  0  0  0  0  0  0  0  0
  -28.1516  -31.4364   25.1379 C   0  0  0  0  0  0  0  0  0  0  0  0
  -26.0166  -31.9930   26.3018 C   0  0  0  0  0  0  0  0  0  0  0  0
  -28.0118  -26.0153   28.9774 C   0  0  0  0  0  0  0  0  0  0  0  0
  -26.1775  -21.9283   21.3204 C   0  0  0  0  0  0  0  0  0  1  0  0
  -30.7653  -15.8105   21.4012 C   0  0  1  0  0  0  0  0  0  0  0  0
  -26.5636  -29.5751   25.8048 C   0  0  1  0  0  0  0  0  0  0  0  0
  -28.6806  -28.4086   28.7250 C   0  0  2  0  0  0  0  0  0  0  0  0
  -26.6679  -31.0351   25.2805 C   0  0  0  0  0  0  0  0  0  0  0  0
  -25.3979  -15.3768   20.8234 N   0  0  0  0  0  0  0  0  0  0  0  0
  -28.9188  -20.0543   19.7383 N   0  0  0  0  0  0  0  0  0  0  0  0
  -26.0019  -15.7136   19.6711 N   0  0  0  0  0  0  0  0  0  0  0  0
  -24.7621  -27.9983   25.1787 N   0  0  0  0  0  0  0  0  0  0  0  0
  -29.4313  -14.1070   20.2071 N   0  0  0  0  0  0  0  0  0  0  0  0
  -25.7783  -17.0828   17.7512 N   0  0  0  0  0  0  0  0  0  0  0  0
  -22.0549  -18.0112   20.1324 N   0  0  0  0  0  0  0  0  0  0  0  0
  -21.4286  -28.0572   23.7021 N   0  0  0  0  0  0  0  0  0  0  0  0
  -27.1885  -29.3614   27.1057 N   0  0  0  0  0  0  0  0  0  0  0  0
  -29.0916  -27.0276   29.1055 N   0  3  0  0  0  0  0  0  0  0  0  0
  -23.1903  -18.4763   18.1951 O   0  0  0  0  0  0  0  0  0  0  0  0
  -23.5249  -28.8933   23.1284 O   0  0  0  0  0  0  0  0  0  0  0  0
  -31.7491  -13.9630   20.2918 O   0  0  0  0  0  0  0  0  0  0  0  0
  -24.3739  -29.7172   26.7055 O   0  0  0  0  0  0  0  0  0  0  0  0
  -28.6665  -27.7154   26.4105 O   0  0  0  0  0  0  0  0  0  0  0  0
  -29.1733  -20.7846   17.5129 O   0  0  0  0  0  0  0  0  0  0  0  0
  -20.6556  -15.8024   25.0516 O   0  0  0  0  0  0  0  0  0  0  0  0
  -26.6007  -23.2301   21.7237 O   0  0  0  0  0  0  0  0  0  1  0  0
  -19.3462  -10.7876   26.9335 F   0  0  0  0  0  0  0  0  0  0  0  0
  -18.0404  -14.9073   25.0025 F   0  0  0  0  0  0  0  0  0  0  0  0
  1  2  1  0  0  0  0
  1  6  2  0  0  0  0
  2  7  2  0  0  0  0
  3  9  1  0  0  0  0
  3 10  2  0  0  0  0
  4 11  2  0  0  0  0
  4 21  1  0  0  0  0
  5 12  1  0  0  0  0
  5 21  2  0  0  0  0
  6 23  1  0  0  0  0
  7 25  1  0  0  0  0
  8 13  2  0  0  0  0
  8 24  1  0  0  0  0
  9 27  2  0  0  0  0
 10 29  1  0  0  0  0
 11 30  1  0  0  0  0
 12 30  2  0  0  0  0
 13 31  1  0  0  0  0
 14 15  2  0  0  0  0
 14 32  1  0  0  0  0
 15 33  1  0  0  0  0
 16 26  1  0  0  0  0
 16 31  2  0  0  0  0
 17 27  1  0  0  0  0
 17 29  2  0  0  0  0
 18 28  1  0  0  0  0
 18 37  2  0  0  0  0
 19 33  2  0  0  0  0
 19 34  1  0  0  0  0
 20 28  2  0  0  0  0
 20 67  1  0  0  0  0
 21 35  1  0  0  0  0
 22 35  1  0  0  0  0
 22 36  2  0  0  0  0
 22 38  1  0  0  0  0
 23 25  2  0  0  0  0
 23 43  1  0  0  0  0
 24 26  2  0  0  0  0
 24 44  1  0  0  0  0
 25 52  1  0  0  0  0
 26 45  1  0  0  0  0
 27 62  1  0  0  0  0
 28 61  1  0  0  0  0
 29 67  1  0  0  0  0
 30 82  1  0  0  0  0
 31 83  1  0  0  0  0
 32 34  2  0  0  0  0
 32 82  1  0  0  0  0
 33 84  1  0  0  0  0
 34 85  1  0  0  0  0
 35 66  2  0  0  0  0
 36 68  1  0  0  0  0
 36 71  1  0  0  0  0
 37 67  1  0  0  0  0
 37 81  1  0  0  0  0
 38 72  1  0  0  0  0
 38 76  2  0  0  0  0
 39 53  1  0  0  0  0
 39 73  1  0  0  0  0
 39 77  2  0  0  0  0
 40 62  1  0  0  0  0
 40 70  1  0  0  0  0
 40 78  2  0  0  0  0
 41 63  1  0  0  0  0
 41 69  1  0  0  0  0
 41 79  2  0  0  0  0
 42 64  1  0  0  0  0
 42 74  1  0  0  0  0
 42 80  2  0  0  0  0
 43 46  1  0  0  0  0
 44 53  1  0  0  0  0
 45 69  1  0  0  0  0
 46 48  1  0  0  0  0
 47 49  1  0  0  0  0
 47 50  1  0  0  0  0
 48 52  1  0  0  0  0
 49 54  1  0  0  0  0
 50 70  1  0  0  0  0
 51 54  1  0  0  0  0
 51 70  1  0  0  0  0
 52 73  1  0  0  0  0
 53 69  1  0  0  0  0
 54 68  1  0  0  0  0
 55 62  1  0  0  0  0
 56 64  1  0  0  0  0
 57 65  1  0  0  0  0
 58 65  1  0  0  0  0
 59 65  1  0  0  0  0
 60 75  1  0  0  0  0
 61 83  1  0  0  0  0
 63 65  1  0  0  0  0
 63 74  1  0  0  0  0
 64 75  1  0  0  0  0
 66 68  1  0  0  0  0
M  CHG  1  75   1
M  ISO  4  40 100  61 101  62 100  83 101
M  END
> <Batch ID>
0087

> <Smiles>
CNC(C)C(=O)NC(C(=O)N1Cc2cc([101O:1][101CH2:1]C3=CN(c4cccc([100CH:0](C)[100C:0](=O)N5CCCC(n6nc(-c7ccc(Oc8ccc(F)cc8F)cc7)c(C(N)=O)c6N)C5)c4)C(=O)C3)ccc2CC1C(=O)NC1CCCc2ccccc21)C(C)(C)C

> <Shape>
0.210

> <Color>
0.072

> <Negative vol penalty>
0.000

$$$$

  -OEChem-04052300203D

 86 95  0     1  0  0  0  0  0999 V2000
  -17.6935  -30.3999   24.1799 C   0  0  0  0  0  0  0  0  0  0  0  0
  -18.5101  -29.3499   24.5873 C   0  0  0  0  0  0  0  0  0  0  0  0
  -24.8080  -11.9052   20.0460 C   0  0  0  0  0  0  0  0  0  0  0  0
  -28.4636  -23.3383   18.3655 C   0  0  0  0  0  0  0  0  0  0  0  0
  -28.4502  -22.8961   20.7407 C   0  0  0  0  0  0  0  0  0  0  0  0
  -26.1925  -11.9518   20.2089 C   0  0  0  0  0  0  0  0  0  0  0  0
  -16.8985  -30.2625   23.0427 C   0  0  0  0  0  0  0  0  0  0  0  0
  -18.5313  -28.1613   23.8585 C   0  0  0  0  0  0  0  0  0  0  0  0
  -22.9504  -22.8492   21.9691 C   0  0  0  0  0  0  0  0  0  0  0  0
  -24.0213  -12.9834   20.4516 C   0  0  0  0  0  0  0  0  0  0  0  0
  -28.4567  -24.7096   18.6208 C   0  0  0  0  0  0  0  0  0  0  0  0
  -28.4434  -24.2674   20.9960 C   0  0  0  0  0  0  0  0  0  0  0  0
  -23.0303  -21.4574   21.9854 C   0  0  0  0  0  0  0  0  0  0  0  0
  -30.6754  -26.8046   21.0276 C   0  0  0  0  0  0  0  0  0  0  0  0
  -31.5420  -27.2837   22.0100 C   0  0  0  0  0  0  0  0  0  0  0  0
  -26.0038  -14.1546   21.1831 C   0  0  0  0  0  0  0  0  0  0  0  0
  -21.6743  -21.3622   19.9925 C   0  0  0  0  0  0  0  0  0  0  0  0
  -22.1238  -16.3969   22.1694 C   0  0  0  0  0  0  0  0  0  0  0  0
  -29.6562  -28.1317   23.2598 C   0  0  0  0  0  0  0  0  0  0  0  0
  -24.2499  -16.4928   21.4343 C   0  0  0  0  0  0  0  0  0  0  0  0
  -28.4603  -22.4315   19.4255 C   0  0  0  0  0  0  0  0  0  0  0  0
  -26.7904  -13.0764   20.7774 C   0  0  0  0  0  0  0  0  0  0  0  0
  -27.5019  -20.2782   18.4497 C   0  0  0  0  0  0  0  0  0  0  0  0
  -16.9173  -29.0751   22.2941 C   0  0  0  0  0  0  0  0  0  0  0  0
  -22.2216  -23.5086   20.9689 C   0  0  0  0  0  0  0  0  0  0  0  0
  -17.7348  -28.0073   22.7110 C   0  0  0  0  0  0  0  0  0  0  0  0
  -21.5889  -22.7626   19.9643 C   0  0  0  0  0  0  0  0  0  0  0  0
  -23.2072  -17.2670   21.8932 C   0  0  0  0  0  0  0  0  0  0  0  0
  -24.6193  -14.1081   21.0201 C   0  0  0  0  0  0  0  0  0  0  0  0
  -28.4466  -25.1741   19.9360 C   0  0  0  0  0  0  0  0  0  0  0  0
  -22.3898  -20.7136   20.9987 C   0  0  0  0  0  0  0  0  0  0  0  0
  -29.2992  -26.9891   21.1613 C   0  0  0  0  0  0  0  0  0  0  0  0
  -31.0324  -27.9472   23.1261 C   0  0  0  0  0  0  0  0  0  0  0  0
  -28.7897  -27.6526   22.2774 C   0  0  0  0  0  0  0  0  0  0  0  0
  -28.4668  -21.0149   19.1624 C   0  0  0  0  0  0  0  0  0  0  0  0
  -27.9648  -18.9854   18.4812 C   0  0  0  0  0  0  0  0  0  0  0  0
  -22.5376  -15.1173   21.8711 C   0  0  0  0  0  0  0  0  0  0  0  0
  -28.2651  -13.1247   20.9503 C   0  0  0  0  0  0  0  0  0  0  0  0
  -26.2952  -20.7227   17.8157 C   0  0  0  0  0  0  0  0  0  0  0  0
  -19.6788  -25.4157   20.9342 C   0  0  0  0  0  0  0  0  0  0  0  0
  -20.3957  -25.6671   17.7806 C   0  0  0  0  0  0  0  0  0  0  0  0
  -21.8948  -24.3070   15.0328 C   0  0  0  0  0  0  0  0  0  0  0  0
  -30.1893  -14.6681   21.1477 C   0  0  0  0  0  0  0  0  0  0  0  0
  -16.0050  -28.9560   21.0990 C   0  0  0  0  0  0  0  0  0  0  0  0
  -22.1673  -25.0117   20.9500 C   0  0  0  0  0  0  0  0  0  0  0  0
  -20.8107  -23.4233   18.8568 C   0  0  0  0  0  0  0  0  0  0  0  0
  -16.3669  -27.8007   20.1692 C   0  0  0  0  0  0  0  0  0  0  0  0
  -32.4380  -17.1198   19.9521 C   0  0  0  0  0  0  0  0  0  0  0  0
  -16.6225  -26.5292   20.9722 C   0  0  0  0  0  0  0  0  0  0  0  0
  -31.5274  -18.2908   19.5728 C   0  0  0  0  0  0  0  0  0  0  0  0
  -31.9526  -16.4094   21.2149 C   0  0  0  0  0  0  0  0  0  0  0  0
  -29.6416  -17.1552   20.8132 C   0  0  0  0  0  0  0  0  0  0  0  0
  -17.8040  -26.7114   21.9327 C   0  0  1  0  0  0  0  0  0  0  0  0
  -20.9696  -25.5567   20.1781 C   0  0  1  0  0  0  0  0  0  0  0  0
  -30.0484  -17.8594   19.5087 C   0  0  1  0  0  0  0  0  0  0  0  0
  -22.2800  -24.7262   12.5888 C   0  0  0  0  0  0  0  0  0  0  0  0
  -17.5162  -24.8498   17.1890 C   0  0  0  0  0  0  0  0  0  0  0  0
  -18.2110  -24.3662   14.8328 C   0  0  0  0  0  0  0  0  0  0  0  0
  -18.3995  -26.6838   15.7362 C   0  0  0  0  0  0  0  0  0  0  0  0
  -24.8324  -24.3670   15.3874 C   0  0  0  0  0  0  0  0  0  0  0  0
  -23.2183  -18.7572   22.0675 C   0  0  0  0  0  0  0  0  0  1  0  0
  -20.0127  -24.9078   16.5333 C   0  0  1  0  0  0  0  0  0  0  0  0
  -22.8289  -24.9041   13.9959 C   0  0  2  0  0  0  0  0  0  0  0  0
  -18.5478  -25.1890   16.0947 C   0  0  0  0  0  0  0  0  0  0  0  0
  -29.4670  -20.2535   19.6139 N   0  0  0  0  0  0  0  0  0  0  0  0
  -23.8316  -15.1877   21.4254 N   0  0  0  0  0  0  0  0  0  0  0  0
  -29.1331  -19.0248   19.1839 N   0  0  0  0  0  0  0  0  0  0  0  0
  -20.7817  -24.8949   18.8854 N   0  0  0  0  0  0  0  0  0  0  0  0
  -30.5473  -16.0253   21.0700 N   0  0  0  0  0  0  0  0  0  0  0  0
  -27.4822  -17.8301   17.9763 N   0  0  0  0  0  0  0  0  0  0  0  0
  -25.1111  -20.7328   18.5656 N   0  0  0  0  0  0  0  0  0  0  0  0
  -28.8295  -14.4006   20.9540 N   0  0  0  0  0  0  0  0  0  0  0  0
  -19.0575  -26.6175   21.2155 N   0  0  0  0  0  0  0  0  0  0  0  0
  -21.0132  -25.2453   15.5265 N   0  0  0  0  0  0  0  0  0  0  0  0
  -24.1659  -24.2493   14.0650 N   0  3  0  0  0  0  0  0  0  0  0  0
  -28.8825  -12.0762   21.1152 O   0  0  0  0  0  0  0  0  0  0  0  0
  -26.2645  -21.0841   16.6149 O   0  0  0  0  0  0  0  0  0  0  0  0
  -19.2757  -24.2992   21.2384 O   0  0  0  0  0  0  0  0  0  0  0  0
  -20.3609  -26.9001   17.7726 O   0  0  0  0  0  0  0  0  0  0  0  0
  -21.9400  -23.1256   15.3684 O   0  0  0  0  0  0  0  0  0  0  0  0
  -31.0143  -13.7683   21.3351 O   0  0  0  0  0  0  0  0  0  0  0  0
  -21.8931  -13.9601   21.9603 O   0  0  0  0  0  0  0  0  0  0  0  0
  -28.4402  -26.5121   20.1855 O   0  0  0  0  0  0  0  0  0  0  0  0
  -22.4657  -19.3549   21.0127 O   0  0  0  0  0  0  0  0  0  1  0  0
  -31.8646  -28.4059   24.0702 F   0  0  0  0  0  0  0  0  0  0  0  0
  -27.4685  -27.8317   22.4119 F   0  0  0  0  0  0  0  0  0  0  0  0
  1  2  1  0  0  0  0
  1  7  2  0  0  0  0
  2  8  2  0  0  0  0
  3  6  1  0  0  0  0
  3 10  2  0  0  0  0
  4 11  2  0  0  0  0
  4 21  1  0  0  0  0
  5 12  1  0  0  0  0
  5 21  2  0  0  0  0
  6 22  2  0  0  0  0
  7 24  1  0  0  0  0
  8 26  1  0  0  0  0
  9 13  2  0  0  0  0
  9 25  1  0  0  0  0
 10 29  1  0  0  0  0
 11 30  1  0  0  0  0
 12 30  2  0  0  0  0
 13 31  1  0  0  0  0
 14 15  2  0  0  0  0
 14 32  1  0  0  0  0
 15 33  1  0  0  0  0
 16 22  1  0  0  0  0
 16 29  2  0  0  0  0
 17 27  1  0  0  0  0
 17 31  2  0  0  0  0
 18 28  1  0  0  0  0
 18 37  2  0  0  0  0
 19 33  2  0  0  0  0
 19 34  1  0  0  0  0
 20 28  2  0  0  0  0
 20 66  1  0  0  0  0
 21 35  1  0  0  0  0
 22 38  1  0  0  0  0
 23 35  1  0  0  0  0
 23 36  2  0  0  0  0
 23 39  1  0  0  0  0
 24 26  2  0  0  0  0
 24 44  1  0  0  0  0
 25 27  2  0  0  0  0
 25 45  1  0  0  0  0
 26 53  1  0  0  0  0
 27 46  1  0  0  0  0
 28 61  1  0  0  0  0
 29 66  1  0  0  0  0
 30 83  1  0  0  0  0
 31 84  1  0  0  0  0
 32 34  2  0  0  0  0
 32 83  1  0  0  0  0
 33 85  1  0  0  0  0
 34 86  1  0  0  0  0
 35 65  2  0  0  0  0
 36 67  1  0  0  0  0
 36 70  1  0  0  0  0
 37 66  1  0  0  0  0
 37 82  1  0  0  0  0
 38 72  1  0  0  0  0
 38 76  2  0  0  0  0
 39 71  1  0  0  0  0
 39 77  2  0  0  0  0
 40 54  1  0  0  0  0
 40 73  1  0  0  0  0
 40 78  2  0  0  0  0
 41 62  1  0  0  0  0
 41 68  1  0  0  0  0
 41 79  2  0  0  0  0
 42 63  1  0  0  0  0
 42 74  1  0  0  0  0
 42 80  2  0  0  0  0
 43 69  1  0  0  0  0
 43 72  1  0  0  0  0
 43 81  2  0  0  0  0
 44 47  1  0  0  0  0
 45 54  1  0  0  0  0
 46 68  1  0  0  0  0
 47 49  1  0  0  0  0
 48 50  1  0  0  0  0
 48 51  1  0  0  0  0
 49 53  1  0  0  0  0
 50 55  1  0  0  0  0
 51 69  1  0  0  0  0
 52 55  1  0  0  0  0
 52 69  1  0  0  0  0
 53 73  1  0  0  0  0
 54 68  1  0  0  0  0
 55 67  1  0  0  0  0
 56 63  1  0  0  0  0
 57 64  1  0  0  0  0
 58 64  1  0  0  0  0
 59 64  1  0  0  0  0
 60 75  1  0  0  0  0
 61 84  1  0  0  0  0
 62 64  1  0  0  0  0
 62 74  1  0  0  0  0
 63 75  1  0  0  0  0
 65 67  1  0  0  0  0
M  CHG  1  75   1
M  ISO  4  43 100  61 101  72 100  84 101
M  END
> <Batch ID>
0087

> <Smiles>
CNC(C)C(=O)NC(C(=O)N1Cc2cc([101O:1][101CH2:1]C3=CN(c4cccc(C(=O)[100NH:0][100C:0](=O)N5CCCC(n6nc(-c7ccc(Oc8ccc(F)cc8F)cc7)c(C(N)=O)c6N)C5)c4)C(=O)C3)ccc2CC1C(=O)NC1CCCc2ccccc21)C(C)(C)C

> <Shape>
0.212

> <Color>
0.073

> <Negative vol penalty>
0.000

$$$$

  -OEChem-04052300203D

 89 98  0     1  0  0  0  0  0999 V2000
  -28.2967  -36.4521   22.5851 C   0  0  0  0  0  0  0  0  0  0  0  0
  -28.4204  -35.1121   22.9376 C   0  0  0  0  0  0  0  0  0  0  0  0
  -24.2168   -9.8560   21.5468 C   0  0  0  0  0  0  0  0  0  0  0  0
  -24.6679  -10.9761   23.6394 C   0  0  0  0  0  0  0  0  0  0  0  0
  -27.0315  -37.0234   22.4543 C   0  0  0  0  0  0  0  0  0  0  0  0
  -27.2791  -34.3427   23.1608 C   0  0  0  0  0  0  0  0  0  0  0  0
  -27.5432  -29.7909   20.9571 C   0  0  0  0  0  0  0  0  0  0  0  0
  -23.7974   -8.7229   22.2436 C   0  0  0  0  0  0  0  0  0  0  0  0
  -24.2485   -9.8429   24.3363 C   0  0  0  0  0  0  0  0  0  0  0  0
  -28.3139  -28.8190   21.5937 C   0  0  0  0  0  0  0  0  0  0  0  0
  -21.0351   -7.7000   23.9039 C   0  0  0  0  0  0  0  0  0  0  0  0
  -19.8592   -7.0786   23.4834 C   0  0  0  0  0  0  0  0  0  0  0  0
  -26.3104  -27.8449   22.5191 C   0  0  0  0  0  0  0  0  0  0  0  0
  -28.6000  -21.2507   21.2910 C   0  0  0  0  0  0  0  0  0  0  0  0
  -30.7051  -20.5318   22.2336 C   0  0  0  0  0  0  0  0  0  0  0  0
  -21.0879   -5.0427   23.0558 C   0  0  0  0  0  0  0  0  0  0  0  0
  -24.6521  -10.9826   22.2446 C   0  0  0  0  0  0  0  0  0  0  0  0
  -24.2925  -13.2411   21.1143 C   0  0  0  0  0  0  0  0  0  0  0  0
  -25.8740  -36.2581   22.6665 C   0  0  0  0  0  0  0  0  0  0  0  0
  -26.1488  -29.8035   21.1058 C   0  0  0  0  0  0  0  0  0  0  0  0
  -25.9973  -34.9046   23.0340 C   0  0  0  0  0  0  0  0  0  0  0  0
  -25.5240  -28.8164   21.8813 C   0  0  0  0  0  0  0  0  0  0  0  0
  -29.7661  -21.5367   22.0008 C   0  0  0  0  0  0  0  0  0  0  0  0
  -28.3726  -19.9596   20.8142 C   0  0  0  0  0  0  0  0  0  0  0  0
  -29.3116  -18.9547   21.0471 C   0  0  0  0  0  0  0  0  0  0  0  0
  -23.8132   -8.7163   23.6384 C   0  0  0  0  0  0  0  0  0  0  0  0
  -27.6978  -27.8476   22.3772 C   0  0  0  0  0  0  0  0  0  0  0  0
  -22.2375   -6.9927   23.9003 C   0  0  0  0  0  0  0  0  0  0  0  0
  -19.8856   -5.7500   23.0594 C   0  0  0  0  0  0  0  0  0  0  0  0
  -30.4778  -19.2408   21.7568 C   0  0  0  0  0  0  0  0  0  0  0  0
  -22.2638   -5.6641   23.4763 C   0  0  0  0  0  0  0  0  0  0  0  0
  -25.0859  -12.1533   21.5253 C   0  0  0  0  0  0  0  0  0  0  0  0
  -25.1692  -14.0835   20.4754 C   0  0  0  0  0  0  0  0  0  0  0  0
  -30.7081  -24.6094   23.7351 C   0  0  0  0  0  0  0  0  0  0  0  0
  -29.9987  -25.1087   22.7191 C   0  0  0  0  0  0  0  0  0  0  0  0
  -30.7138  -23.1333   23.6125 C   0  0  0  0  0  0  0  0  0  0  0  0
  -29.5320  -23.9803   21.8839 C   0  0  0  0  0  0  0  0  0  0  0  0
  -30.7703  -26.3701   25.3757 C   0  0  0  0  0  0  0  0  0  0  0  0
  -31.3643  -25.3048   24.7973 C   0  0  0  0  0  0  0  0  0  0  0  0
  -22.8885  -13.4697   21.2941 C   0  0  0  0  0  0  0  0  0  0  0  0
  -24.0395  -31.8569   22.3049 C   0  0  0  0  0  0  0  0  0  0  0  0
  -21.8883  -29.7337   21.1275 C   0  0  0  0  0  0  0  0  0  0  0  0
  -21.2110  -26.5337   20.1535 C   0  0  0  0  0  0  0  0  0  0  0  0
  -30.0709  -16.7097   20.1930 C   0  0  0  0  0  0  0  0  0  0  0  0
  -24.5288  -36.9317   22.5597 C   0  0  0  0  0  0  0  0  0  0  0  0
  -25.3293  -30.8426   20.3909 C   0  0  0  0  0  0  0  0  0  0  0  0
  -24.0287  -28.7740   22.0564 C   0  0  0  0  0  0  0  0  0  0  0  0
  -23.3640  -35.9515   22.4473 C   0  0  0  0  0  0  0  0  0  0  0  0
  -29.9575  -13.3553   19.0047 C   0  0  0  0  0  0  0  0  0  0  0  0
  -23.4994  -34.8404   23.4837 C   0  0  0  0  0  0  0  0  0  0  0  0
  -28.6147  -12.8330   19.5207 C   0  0  0  0  0  0  0  0  0  0  0  0
  -30.6245  -14.2942   20.0083 C   0  0  0  0  0  0  0  0  0  0  0  0
  -28.4419  -14.8843   20.9867 C   0  0  0  0  0  0  0  0  0  0  0  0
  -24.7825  -34.0309   23.2601 C   0  0  1  0  0  0  0  0  0  0  0  0
  -23.9619  -31.0678   21.0286 C   0  0  1  0  0  0  0  0  0  0  0  0
  -27.7017  -13.9856   19.9826 C   0  0  2  0  0  0  0  0  0  0  0  0
  -19.3539  -25.0939   19.2730 C   0  0  0  0  0  0  0  0  0  0  0  0
  -20.6413  -29.6440   23.9108 C   0  0  0  0  0  0  0  0  0  0  0  0
  -19.4518  -27.5474   23.2343 C   0  0  0  0  0  0  0  0  0  0  0  0
  -18.9933  -29.6834   22.0301 C   0  0  0  0  0  0  0  0  0  0  0  0
  -22.7022  -25.9279   17.6699 C   0  0  0  0  0  0  0  0  0  0  0  0
  -29.6656  -26.5120   22.3643 C   0  0  0  0  0  0  0  0  0  1  0  0
  -21.1984  -28.5023   21.6631 C   0  0  1  0  0  0  0  0  0  0  0  0
  -20.5356  -25.9804   18.9117 C   0  0  2  0  0  0  0  0  0  0  0  0
  -20.0995  -28.8460   22.7081 C   0  0  0  0  0  0  0  0  0  0  0  0
  -26.3681  -12.2894   21.1766 N   0  0  0  0  0  0  0  0  0  0  0  0
  -26.3870  -13.4727   20.5397 N   0  0  0  0  0  0  0  0  0  0  0  0
  -29.9932  -22.8235   22.4766 N   0  0  0  0  0  0  0  0  0  0  0  0
  -23.2714  -29.8152   21.3424 N   0  0  0  0  0  0  0  0  0  0  0  0
  -29.7019  -15.3632   20.3971 N   0  0  0  0  0  0  0  0  0  0  0  0
  -27.1843  -19.6919   20.0977 N   0  0  0  0  0  0  0  0  0  0  0  0
  -25.0095  -15.2797   19.8705 N   0  0  0  0  0  0  0  0  0  0  0  0
  -22.1356  -12.5022   21.9734 N   0  0  0  0  0  0  0  0  0  0  0  0
  -29.1004  -17.6370   20.5708 N   0  0  0  0  0  0  0  0  0  0  0  0
  -24.6116  -33.1064   22.1599 N   0  0  0  0  0  0  0  0  0  0  0  0
  -20.7088  -27.7702   20.5000 N   0  0  0  0  0  0  0  0  0  0  0  0
  -21.5012  -25.1739   18.1127 N   0  3  0  0  0  0  0  0  0  0  0  0
  -31.2674  -22.3750   24.3935 O   0  0  0  0  0  0  0  0  0  0  0  0
  -28.8635  -24.1080   20.8701 O   0  0  0  0  0  0  0  0  0  0  0  0
  -22.3155  -14.4937   20.8508 O   0  0  0  0  0  0  0  0  0  0  0  0
  -23.6106  -31.3690   23.3440 O   0  0  0  0  0  0  0  0  0  0  0  0
  -21.2256  -30.5881   20.5338 O   0  0  0  0  0  0  0  0  0  0  0  0
  -22.0931  -25.9279   20.7580 O   0  0  0  0  0  0  0  0  0  0  0  0
  -31.1561  -17.0165   19.6929 O   0  0  0  0  0  0  0  0  0  0  0  0
  -23.4039   -7.6108   24.3187 O   0  0  0  0  0  0  0  0  0  0  0  0
  -28.4479  -26.8982   23.0002 O   0  0  0  0  0  0  0  0  0  1  0  0
  -18.7561   -5.1530   22.6571 F   0  0  0  0  0  0  0  0  0  0  0  0
  -31.3878  -18.2834   21.9868 F   0  0  0  0  0  0  0  0  0  0  0  0
  -23.4156   -4.9792   23.4717 F   0  0  0  0  0  0  0  0  0  0  0  0
  1  2  1  0  0  0  0
  1  5  2  0  0  0  0
  2  6  2  0  0  0  0
  3  8  2  0  0  0  0
  3 17  1  0  0  0  0
  4  9  1  0  0  0  0
  4 17  2  0  0  0  0
  5 19  1  0  0  0  0
  6 21  1  0  0  0  0
  7 10  2  0  0  0  0
  7 20  1  0  0  0  0
  8 26  1  0  0  0  0
  9 26  2  0  0  0  0
 10 27  1  0  0  0  0
 11 12  2  0  0  0  0
 11 28  1  0  0  0  0
 12 29  1  0  0  0  0
 13 22  1  0  0  0  0
 13 27  2  0  0  0  0
 14 23  1  0  0  0  0
 14 24  2  0  0  0  0
 15 23  2  0  0  0  0
 15 30  1  0  0  0  0
 16 29  2  0  0  0  0
 16 31  1  0  0  0  0
 17 32  1  0  0  0  0
 18 32  1  0  0  0  0
 18 33  2  0  0  0  0
 18 40  1  0  0  0  0
 19 21  2  0  0  0  0
 19 45  1  0  0  0  0
 20 22  2  0  0  0  0
 20 46  1  0  0  0  0
 21 54  1  0  0  0  0
 22 47  1  0  0  0  0
 23 68  1  0  0  0  0
 24 25  1  0  0  0  0
 24 71  1  0  0  0  0
 25 30  2  0  0  0  0
 25 74  1  0  0  0  0
 26 85  1  0  0  0  0
 27 86  1  0  0  0  0
 28 31  2  0  0  0  0
 28 85  1  0  0  0  0
 29 87  1  0  0  0  0
 30 88  1  0  0  0  0
 31 89  1  0  0  0  0
 32 66  2  0  0  0  0
 33 67  1  0  0  0  0
 33 72  1  0  0  0  0
 34 35  2  0  0  0  0
 34 36  1  0  0  0  0
 34 39  1  0  0  0  0
 35 37  1  0  0  0  0
 35 62  1  0  0  0  0
 36 68  1  0  0  0  0
 36 78  2  0  0  0  0
 37 68  1  0  0  0  0
 37 79  2  0  0  0  0
 38 39  2  0  0  0  0
 40 73  1  0  0  0  0
 40 80  2  0  0  0  0
 41 55  1  0  0  0  0
 41 75  1  0  0  0  0
 41 81  2  0  0  0  0
 42 63  1  0  0  0  0
 42 69  1  0  0  0  0
 42 82  2  0  0  0  0
 43 64  1  0  0  0  0
 43 76  1  0  0  0  0
 43 83  2  0  0  0  0
 44 70  1  0  0  0  0
 44 74  1  0  0  0  0
 44 84  2  0  0  0  0
 45 48  1  0  0  0  0
 46 55  1  0  0  0  0
 47 69  1  0  0  0  0
 48 50  1  0  0  0  0
 49 51  1  0  0  0  0
 49 52  1  0  0  0  0
 50 54  1  0  0  0  0
 51 56  1  0  0  0  0
 52 70  1  0  0  0  0
 53 56  1  0  0  0  0
 53 70  1  0  0  0  0
 54 75  1  0  0  0  0
 55 69  1  0  0  0  0
 56 67  1  0  0  0  0
 57 64  1  0  0  0  0
 58 65  1  0  0  0  0
 59 65  1  0  0  0  0
 60 65  1  0  0  0  0
 61 77  1  0  0  0  0
 62 86  1  0  0  0  0
 63 65  1  0  0  0  0
 63 76  1  0  0  0  0
 64 77  1  0  0  0  0
 66 67  1  0  0  0  0
M  CHG  1  77   1
M  ISO  4  44 100  62 101  74 100  86 101
M  END
> <Batch ID>
0087

> <Smiles>
C=CC1=C([101CH2:1][101O:1]c2ccc3c(c2)CN(C(=O)C(NC(=O)C(C)NC)C(C)(C)C)C(C(=O)NC2CCCc4ccccc42)C3)C(=O)N(c2cc(N)c([100NH:0][100C:0](=O)N3CCCC(n4nc(-c5ccc(Oc6ccc(F)cc6F)cc5)c(C(N)=O)c4N)C3)c(F)c2)C1=O

> <Shape>
0.321

> <Color>
0.116

> <Negative vol penalty>
0.000

$$$$

  -OEChem-04052300203D

 83 91  0     1  0  0  0  0  0999 V2000
  -32.1606  -34.7740   22.5672 C   0  0  0  0  0  0  0  0  0  0  0  0
  -31.8555  -33.4359   22.3393 C   0  0  0  0  0  0  0  0  0  0  0  0
  -23.9009   -9.7751   22.0253 C   0  0  0  0  0  0  0  0  0  0  0  0
  -24.4879  -11.2427   23.8525 C   0  0  0  0  0  0  0  0  0  0  0  0
  -31.1263  -20.0388   19.8782 C   0  0  0  0  0  0  0  0  0  0  0  0
  -31.3513  -35.5392   23.4060 C   0  0  0  0  0  0  0  0  0  0  0  0
  -30.7416  -32.8620   22.9509 C   0  0  0  0  0  0  0  0  0  0  0  0
  -28.0202  -30.0235   19.7599 C   0  0  0  0  0  0  0  0  0  0  0  0
  -30.8243  -18.6925   19.6736 C   0  0  0  0  0  0  0  0  0  0  0  0
  -23.4406   -8.8247   22.9365 C   0  0  0  0  0  0  0  0  0  0  0  0
  -24.0276  -10.2923   24.7638 C   0  0  0  0  0  0  0  0  0  0  0  0
  -28.5067  -28.7501   19.4673 C   0  0  0  0  0  0  0  0  0  0  0  0
  -20.6823   -8.3149   24.8245 C   0  0  0  0  0  0  0  0  0  0  0  0
  -19.4585   -7.7009   24.5581 C   0  0  0  0  0  0  0  0  0  0  0  0
  -28.7705  -20.5377   20.0736 C   0  0  0  0  0  0  0  0  0  0  0  0
  -26.9549  -27.7999   21.0512 C   0  0  0  0  0  0  0  0  0  0  0  0
  -20.5515   -5.5469   24.5028 C   0  0  0  0  0  0  0  0  0  0  0  0
  -24.4246  -10.9842   22.4833 C   0  0  0  0  0  0  0  0  0  0  0  0
  -30.0994  -20.9614   20.0783 C   0  0  0  0  0  0  0  0  0  0  0  0
  -24.1582  -13.0038   20.9478 C   0  0  0  0  0  0  0  0  0  0  0  0
  -30.2214  -34.9769   24.0206 C   0  0  0  0  0  0  0  0  0  0  0  0
  -27.0033  -30.1960   20.7100 C   0  0  0  0  0  0  0  0  0  0  0  0
  -29.9172  -33.6200   23.7998 C   0  0  0  0  0  0  0  0  0  0  0  0
  -26.4555  -29.0763   21.3522 C   0  0  0  0  0  0  0  0  0  0  0  0
  -29.4954  -18.2688   19.6689 C   0  0  0  0  0  0  0  0  0  0  0  0
  -23.5040   -9.0832   24.3057 C   0  0  0  0  0  0  0  0  0  0  0  0
  -27.9760  -27.6384   20.1151 C   0  0  0  0  0  0  0  0  0  0  0  0
  -21.8406   -7.5450   24.9299 C   0  0  0  0  0  0  0  0  0  0  0  0
  -19.3931   -6.3169   24.3973 C   0  0  0  0  0  0  0  0  0  0  0  0
  -28.4684  -19.1914   19.8689 C   0  0  0  0  0  0  0  0  0  0  0  0
  -21.7752   -6.1610   24.7691 C   0  0  0  0  0  0  0  0  0  0  0  0
  -24.9008  -11.9661   21.5425 C   0  0  0  0  0  0  0  0  0  0  0  0
  -25.0599  -13.6514   20.1391 C   0  0  0  0  0  0  0  0  0  0  0  0
  -29.5508  -24.4822   20.6781 C   0  0  0  0  0  0  0  0  0  0  0  0
  -30.4226  -22.4013   20.2970 C   0  0  0  0  0  0  0  0  0  0  0  0
  -22.7769  -13.3513   21.1119 C   0  0  0  0  0  0  0  0  0  0  0  0
  -26.7684  -31.7108   23.4945 C   0  0  0  0  0  0  0  0  0  0  0  0
  -23.6513  -30.8442   23.2599 C   0  0  0  0  0  0  0  0  0  0  0  0
  -21.3276  -28.7101   21.9587 C   0  0  0  0  0  0  0  0  0  0  0  0
  -30.0933  -15.8584   19.2460 C   0  0  0  0  0  0  0  0  0  0  0  0
  -29.4035  -35.8310   24.9566 C   0  0  0  0  0  0  0  0  0  0  0  0
  -26.4710  -31.5737   20.9948 C   0  0  0  0  0  0  0  0  0  0  0  0
  -25.3486  -29.2058   22.3652 C   0  0  0  0  0  0  0  0  0  0  0  0
  -28.0284  -35.2469   25.2695 C   0  0  0  0  0  0  0  0  0  0  0  0
  -29.7445  -12.3531   18.7283 C   0  0  0  0  0  0  0  0  0  0  0  0
  -28.1430  -33.7644   25.6100 C   0  0  0  0  0  0  0  0  0  0  0  0
  -28.3922  -12.0253   19.3654 C   0  0  0  0  0  0  0  0  0  0  0  0
  -30.4989  -13.4218   19.5172 C   0  0  0  0  0  0  0  0  0  0  0  0
  -28.3892  -14.3253   20.4127 C   0  0  0  0  0  0  0  0  0  0  0  0
  -28.7033  -32.9680   24.4254 C   0  0  1  0  0  0  0  0  0  0  0  0
  -25.7892  -31.6813   22.3553 C   0  0  1  0  0  0  0  0  0  0  0  0
  -27.5640  -13.3005   19.6173 C   0  0  2  0  0  0  0  0  0  0  0  0
  -18.8645  -28.2302   21.9779 C   0  0  0  0  0  0  0  0  0  0  0  0
  -23.9172  -29.6031   26.0346 C   0  0  0  0  0  0  0  0  0  0  0  0
  -21.7938  -28.3496   25.6010 C   0  0  0  0  0  0  0  0  0  0  0  0
  -21.7806  -30.8437   25.6470 C   0  0  0  0  0  0  0  0  0  0  0  0
  -21.0978  -29.1688   19.0440 C   0  0  0  0  0  0  0  0  0  0  0  0
  -28.4036  -25.4276   20.8805 C   0  0  0  0  0  0  0  0  0  1  0  0
  -22.8397  -29.6457   23.6887 C   0  0  1  0  0  0  0  0  0  0  0  0
  -19.9959  -28.9655   21.2763 C   0  0  2  0  0  0  0  0  0  0  0  0
  -22.6050  -29.6079   25.2252 C   0  0  0  0  0  0  0  0  0  0  0  0
  -26.1759  -11.9515   21.1453 N   0  0  0  0  0  0  0  0  0  0  0  0
  -29.3328  -23.2245   20.4840 N   0  0  0  0  0  0  0  0  0  0  0  0
  -26.2416  -12.9879   20.2923 N   0  0  0  0  0  0  0  0  0  0  0  0
  -24.8662  -30.5743   22.6141 N   0  0  0  0  0  0  0  0  0  0  0  0
  -29.6539  -14.6018   19.7136 N   0  0  0  0  0  0  0  0  0  0  0  0
  -24.9493  -14.7180   19.3190 N   0  0  0  0  0  0  0  0  0  0  0  0
  -21.9929  -12.5810   21.9815 N   0  0  0  0  0  0  0  0  0  0  0  0
  -29.1918  -16.9006   19.4601 N   0  0  0  0  0  0  0  0  0  0  0  0
  -27.6750  -32.7517   23.4303 N   0  0  0  0  0  0  0  0  0  0  0  0
  -21.6143  -29.6784   22.8977 N   0  0  0  0  0  0  0  0  0  0  0  0
  -20.0446  -28.5095   19.8583 N   0  3  0  0  0  0  0  0  0  0  0  0
  -31.6004  -22.7489   20.2951 O   0  0  0  0  0  0  0  0  0  0  0  0
  -22.2494  -14.3063   20.4928 O   0  0  0  0  0  0  0  0  0  0  0  0
  -26.7051  -30.8537   24.3680 O   0  0  0  0  0  0  0  0  0  0  0  0
  -23.2198  -31.9780   23.4830 O   0  0  0  0  0  0  0  0  0  0  0  0
  -22.0404  -27.7460   21.6887 O   0  0  0  0  0  0  0  0  0  0  0  0
  -31.1767  -15.9946   18.6718 O   0  0  0  0  0  0  0  0  0  0  0  0
  -23.0547   -8.1561   25.1952 O   0  0  0  0  0  0  0  0  0  0  0  0
  -28.4495  -26.3944   19.8318 O   0  0  0  0  0  0  0  0  0  1  0  0
  -18.2176   -5.7271   24.1430 F   0  0  0  0  0  0  0  0  0  0  0  0
  -27.1872  -18.7958   19.8659 F   0  0  0  0  0  0  0  0  0  0  0  0
  -22.8845   -5.4160   24.8705 F   0  0  0  0  0  0  0  0  0  0  0  0
  1  2  1  0  0  0  0
  1  6  2  0  0  0  0
  2  7  2  0  0  0  0
  3 10  2  0  0  0  0
  3 18  1  0  0  0  0
  4 11  1  0  0  0  0
  4 18  2  0  0  0  0
  5  9  2  0  0  0  0
  5 19  1  0  0  0  0
  6 21  1  0  0  0  0
  7 23  1  0  0  0  0
  8 12  2  0  0  0  0
  8 22  1  0  0  0  0
  9 25  1  0  0  0  0
 10 26  1  0  0  0  0
 11 26  2  0  0  0  0
 12 27  1  0  0  0  0
 13 14  2  0  0  0  0
 13 28  1  0  0  0  0
 14 29  1  0  0  0  0
 15 19  2  0  0  0  0
 15 30  1  0  0  0  0
 16 24  1  0  0  0  0
 16 27  2  0  0  0  0
 17 29  2  0  0  0  0
 17 31  1  0  0  0  0
 18 32  1  0  0  0  0
 19 35  1  0  0  0  0
 20 32  1  0  0  0  0
 20 33  2  0  0  0  0
 20 36  1  0  0  0  0
 21 23  2  0  0  0  0
 21 41  1  0  0  0  0
 22 24  2  0  0  0  0
 22 42  1  0  0  0  0
 23 50  1  0  0  0  0
 24 43  1  0  0  0  0
 25 30  2  0  0  0  0
 25 69  1  0  0  0  0
 26 79  1  0  0  0  0
 27 80  1  0  0  0  0
 28 31  2  0  0  0  0
 28 79  1  0  0  0  0
 29 81  1  0  0  0  0
 30 82  1  0  0  0  0
 31 83  1  0  0  0  0
 32 62  2  0  0  0  0
 33 64  1  0  0  0  0
 33 67  1  0  0  0  0
 34 58  1  0  0  0  0
 34 63  2  0  0  0  0
 35 63  1  0  0  0  0
 35 73  2  0  0  0  0
 36 68  1  0  0  0  0
 36 74  2  0  0  0  0
 37 51  1  0  0  0  0
 37 70  1  0  0  0  0
 37 75  2  0  0  0  0
 38 59  1  0  0  0  0
 38 65  1  0  0  0  0
 38 76  2  0  0  0  0
 39 60  1  0  0  0  0
 39 71  1  0  0  0  0
 39 77  2  0  0  0  0
 40 66  1  0  0  0  0
 40 69  1  0  0  0  0
 40 78  2  0  0  0  0
 41 44  1  0  0  0  0
 42 51  1  0  0  0  0
 43 65  1  0  0  0  0
 44 46  1  0  0  0  0
 45 47  1  0  0  0  0
 45 48  1  0  0  0  0
 46 50  1  0  0  0  0
 47 52  1  0  0  0  0
 48 66  1  0  0  0  0
 49 52  1  0  0  0  0
 49 66  1  0  0  0  0
 50 70  1  0  0  0  0
 51 65  1  0  0  0  0
 52 64  1  0  0  0  0
 53 60  1  0  0  0  0
 54 61  1  0  0  0  0
 55 61  1  0  0  0  0
 56 61  1  0  0  0  0
 57 72  1  0  0  0  0
 58 80  1  0  0  0  0
 59 61  1  0  0  0  0
 59 71  1  0  0  0  0
 60 72  1  0  0  0  0
 62 64  1  0  0  0  0
M  CHG  1  72   1
M  ISO  4  40 100  58 101  69 100  80 101
M  END
> <Batch ID>
0087

> <Smiles>
CNC(C)C(=O)NC(C(=O)N1Cc2cc([101O:1][101CH:1]=CNC(=O)c3ccc([100NH:0][100C:0](=O)N4CCCC(n5nc(-c6ccc(Oc7ccc(F)cc7F)cc6)c(C(N)=O)c5N)C4)c(F)c3)ccc2CC1C(=O)NC1CCCc2ccccc21)C(C)(C)C

> <Shape>
0.308

> <Color>
0.144

> <Negative vol penalty>
0.000

$$$$

  -OEChem-04052300203D

 86 95  0     1  0  0  0  0  0999 V2000
  -25.4052  -33.0290   28.4638 C   0  0  0  0  0  0  0  0  0  0  0  0
  -26.1550  -32.2137   27.6221 C   0  0  0  0  0  0  0  0  0  0  0  0
  -25.8529  -12.7123   22.2150 C   0  0  0  0  0  0  0  0  0  0  0  0
  -26.8376  -12.9041   20.0171 C   0  0  0  0  0  0  0  0  0  0  0  0
  -24.0125  -32.9948   28.4065 C   0  0  0  0  0  0  0  0  0  0  0  0
  -25.5126  -31.3630   26.7232 C   0  0  0  0  0  0  0  0  0  0  0  0
  -27.4233  -29.8105   21.1156 C   0  0  0  0  0  0  0  0  0  0  0  0
  -24.7488  -12.0623   21.6637 C   0  0  0  0  0  0  0  0  0  0  0  0
  -25.7335  -12.2540   19.4658 C   0  0  0  0  0  0  0  0  0  0  0  0
  -28.0953  -28.6894   20.6306 C   0  0  0  0  0  0  0  0  0  0  0  0
  -23.9807   -8.9612   20.5565 C   0  0  0  0  0  0  0  0  0  0  0  0
  -23.5106   -7.8190   21.2045 C   0  0  0  0  0  0  0  0  0  0  0  0
  -25.9865  -27.7122   19.9848 C   0  0  0  0  0  0  0  0  0  0  0  0
  -31.0282  -21.5485   16.5252 C   0  0  0  0  0  0  0  0  0  0  0  0
  -30.4824  -21.5761   18.8785 C   0  0  0  0  0  0  0  0  0  0  0  0
  -31.0592  -19.4943   17.7965 C   0  0  0  0  0  0  0  0  0  0  0  0
  -21.3673   -8.8856   21.5297 C   0  0  0  0  0  0  0  0  0  0  0  0
  -26.8973  -13.1333   21.3917 C   0  0  0  0  0  0  0  0  0  0  0  0
  -29.2220  -13.2133   22.4392 C   0  0  0  0  0  0  0  0  0  0  0  0
  -23.3528  -32.1503   27.4998 C   0  0  0  0  0  0  0  0  0  0  0  0
  -26.0246  -29.8862   21.0487 C   0  0  0  0  0  0  0  0  0  0  0  0
  -24.1098  -31.3165   26.6547 C   0  0  0  0  0  0  0  0  0  0  0  0
  -25.2993  -28.8364   20.4674 C   0  0  0  0  0  0  0  0  0  0  0  0
  -30.6539  -22.2516   17.6703 C   0  0  0  0  0  0  0  0  0  0  0  0
  -31.2308  -20.1698   16.5883 C   0  0  0  0  0  0  0  0  0  0  0  0
  -30.6851  -20.1974   18.9417 C   0  0  0  0  0  0  0  0  0  0  0  0
  -24.6891  -11.8331   20.2891 C   0  0  0  0  0  0  0  0  0  0  0  0
  -27.3767  -27.6388   20.0677 C   0  0  0  0  0  0  0  0  0  0  0  0
  -23.1441  -10.0656   20.3951 C   0  0  0  0  0  0  0  0  0  0  0  0
  -22.2039   -7.7811   21.6911 C   0  0  0  0  0  0  0  0  0  0  0  0
  -21.8374  -10.0278   20.8817 C   0  0  0  0  0  0  0  0  0  0  0  0
  -28.0378  -13.8054   21.9606 C   0  0  0  0  0  0  0  0  0  0  0  0
  -29.9840  -14.2708   22.8720 C   0  0  0  0  0  0  0  0  0  0  0  0
  -29.6389  -25.7204   18.0531 C   0  0  0  0  0  0  0  0  0  0  0  0
  -30.6296  -25.8541   16.9762 C   0  0  0  0  0  0  0  0  0  0  0  0
  -29.5356  -24.3007   18.4469 C   0  0  0  0  0  0  0  0  0  0  0  0
  -28.9420  -26.7210   18.5918 C   0  0  0  0  0  0  0  0  0  1  0  0
  -29.5993  -11.8309   22.4882 C   0  0  0  0  0  0  0  0  0  0  0  0
  -23.6851  -30.1071   23.1892 C   0  0  0  0  0  0  0  0  0  0  0  0
  -21.8296  -30.4436   20.5498 C   0  0  0  0  0  0  0  0  0  0  0  0
  -21.4169  -29.8866   17.2082 C   0  0  0  0  0  0  0  0  0  0  0  0
  -30.1452  -20.0594   21.3985 C   0  0  0  0  0  0  0  0  0  0  0  0
  -21.8451  -32.1134   27.5073 C   0  0  0  0  0  0  0  0  0  0  0  0
  -25.3166  -31.1141   21.5520 C   0  0  0  0  0  0  0  0  0  0  0  0
  -23.7980  -28.8777   20.3533 C   0  0  0  0  0  0  0  0  0  0  0  0
  -31.1806  -24.4944   16.6624 C   0  0  0  0  0  0  0  0  0  0  0  0
  -21.2456  -31.4581   26.2657 C   0  0  0  0  0  0  0  0  0  0  0  0
  -29.5785  -18.7025   24.6411 C   0  0  0  0  0  0  0  0  0  0  0  0
  -21.9667  -30.1513   25.9509 C   0  0  0  0  0  0  0  0  0  0  0  0
  -29.2329  -17.2373   24.3657 C   0  0  0  0  0  0  0  0  0  0  0  0
  -29.0119  -19.6304   23.5679 C   0  0  0  0  0  0  0  0  0  0  0  0
  -29.0173  -17.8057   21.9127 C   0  0  0  0  0  0  0  0  0  0  0  0
  -23.4497  -30.3984   25.6489 C   0  0  1  0  0  0  0  0  0  0  0  0
  -23.8531  -30.8597   21.8996 C   0  0  1  0  0  0  0  0  0  0  0  0
  -29.6219  -16.8264   22.9320 C   0  0  2  0  0  0  0  0  0  0  0  0
  -19.7810  -30.2433   15.3390 C   0  0  0  0  0  0  0  0  0  0  0  0
  -20.1164  -28.1547   21.6156 C   0  0  0  0  0  0  0  0  0  0  0  0
  -19.1188  -27.9298   19.3303 C   0  0  0  0  0  0  0  0  0  0  0  0
  -18.8234  -30.0473   20.6154 C   0  0  0  0  0  0  0  0  0  0  0  0
  -23.3358  -31.5529   15.6917 C   0  0  0  0  0  0  0  0  0  0  0  0
  -21.0886  -29.4974   19.6362 C   0  0  1  0  0  0  0  0  0  0  0  0
  -20.9844  -30.8053   16.0798 C   0  0  2  0  0  0  0  0  0  0  0  0
  -19.8149  -28.9054   20.3032 C   0  0  0  0  0  0  0  0  0  0  0  0
  -28.0425  -15.1358   22.0783 N   0  0  0  0  0  0  0  0  0  0  0  0
  -29.2389  -15.3885   22.6358 N   0  0  0  0  0  0  0  0  0  0  0  0
  -30.4526  -23.6286   17.6083 N   0  0  0  0  0  0  0  0  0  0  0  0
  -23.1510  -30.0969   20.8655 N   0  0  0  0  0  0  0  0  0  0  0  0
  -29.4251  -19.1818   22.2364 N   0  0  0  0  0  0  0  0  0  0  0  0
  -31.6092  -19.4584   15.4308 N   0  0  0  0  0  0  0  0  0  0  0  0
  -31.2121  -14.3444   23.4278 N   0  0  0  0  0  0  0  0  0  0  0  0
  -28.6977  -10.8746   22.0016 N   0  0  0  0  0  0  0  0  0  0  0  0
  -30.5123  -19.5119   20.1697 N   0  0  0  0  0  0  0  0  0  0  0  0
  -23.6129  -30.9158   24.3073 N   0  0  0  0  0  0  0  0  0  0  0  0
  -20.8298  -30.2370   18.4056 N   0  0  0  0  0  0  0  0  0  0  0  0
  -22.0957  -30.9848   15.1032 N   0  3  0  0  0  0  0  0  0  0  0  0
  -30.9501  -26.8950   16.4288 O   0  0  0  0  0  0  0  0  0  0  0  0
  -28.8058  -23.8484   19.3118 O   0  0  0  0  0  0  0  0  0  0  0  0
  -30.6966  -11.4536   22.9648 O   0  0  0  0  0  0  0  0  0  0  0  0
  -23.6240  -28.8833   23.1710 O   0  0  0  0  0  0  0  0  0  0  0  0
  -21.2595  -31.4567   20.9623 O   0  0  0  0  0  0  0  0  0  0  0  0
  -22.1946  -28.9493   17.0432 O   0  0  0  0  0  0  0  0  0  0  0  0
  -30.4397  -21.2028   21.7563 O   0  0  0  0  0  0  0  0  0  0  0  0
  -23.6120  -11.1986   19.7508 O   0  0  0  0  0  0  0  0  0  0  0  0
  -28.0302  -26.5430   19.5941 O   0  0  0  0  0  0  0  0  0  1  0  0
  -21.7521   -6.6836   22.3121 F   0  0  0  0  0  0  0  0  0  0  0  0
  -21.0286  -11.0853   20.7286 F   0  0  0  0  0  0  0  0  0  0  0  0
  1  2  1  0  0  0  0
  1  5  2  0  0  0  0
  2  6  2  0  0  0  0
  3  8  2  0  0  0  0
  3 18  1  0  0  0  0
  4  9  1  0  0  0  0
  4 18  2  0  0  0  0
  5 20  1  0  0  0  0
  6 22  1  0  0  0  0
  7 10  2  0  0  0  0
  7 21  1  0  0  0  0
  8 27  1  0  0  0  0
  9 27  2  0  0  0  0
 10 28  1  0  0  0  0
 11 12  2  0  0  0  0
 11 29  1  0  0  0  0
 12 30  1  0  0  0  0
 13 23  1  0  0  0  0
 13 28  2  0  0  0  0
 14 24  1  0  0  0  0
 14 25  2  0  0  0  0
 15 24  2  0  0  0  0
 15 26  1  0  0  0  0
 16 25  1  0  0  0  0
 16 26  2  0  0  0  0
 17 30  2  0  0  0  0
 17 31  1  0  0  0  0
 18 32  1  0  0  0  0
 19 32  1  0  0  0  0
 19 33  2  0  0  0  0
 19 38  1  0  0  0  0
 20 22  2  0  0  0  0
 20 43  1  0  0  0  0
 21 23  2  0  0  0  0
 21 44  1  0  0  0  0
 22 53  1  0  0  0  0
 23 45  1  0  0  0  0
 24 66  1  0  0  0  0
 25 69  1  0  0  0  0
 26 72  1  0  0  0  0
 27 83  1  0  0  0  0
 28 84  1  0  0  0  0
 29 31  2  0  0  0  0
 29 83  1  0  0  0  0
 30 85  1  0  0  0  0
 31 86  1  0  0  0  0
 32 64  2  0  0  0  0
 33 65  1  0  0  0  0
 33 70  1  0  0  0  0
 34 35  1  0  0  0  0
 34 36  1  0  0  0  0
 34 37  2  0  0  0  0
 35 46  1  0  0  0  0
 35 76  2  0  0  0  0
 36 66  1  0  0  0  0
 36 77  2  0  0  0  0
 37 84  1  0  0  0  0
 38 71  1  0  0  0  0
 38 78  2  0  0  0  0
 39 54  1  0  0  0  0
 39 73  1  0  0  0  0
 39 79  2  0  0  0  0
 40 61  1  0  0  0  0
 40 67  1  0  0  0  0
 40 80  2  0  0  0  0
 41 62  1  0  0  0  0
 41 74  1  0  0  0  0
 41 81  2  0  0  0  0
 42 68  1  0  0  0  0
 42 72  1  0  0  0  0
 42 82  2  0  0  0  0
 43 47  1  0  0  0  0
 44 54  1  0  0  0  0
 45 67  1  0  0  0  0
 46 66  1  0  0  0  0
 47 49  1  0  0  0  0
 48 50  1  0  0  0  0
 48 51  1  0  0  0  0
 49 53  1  0  0  0  0
 50 55  1  0  0  0  0
 51 68  1  0  0  0  0
 52 55  1  0  0  0  0
 52 68  1  0  0  0  0
 53 73  1  0  0  0  0
 54 67  1  0  0  0  0
 55 65  1  0  0  0  0
 56 62  1  0  0  0  0
 57 63  1  0  0  0  0
 58 63  1  0  0  0  0
 59 63  1  0  0  0  0
 60 75  1  0  0  0  0
 61 63  1  0  0  0  0
 61 74  1  0  0  0  0
 62 75  1  0  0  0  0
 64 65  1  0  0  0  0
M  CHG  1  75   1
M  ISO  4  37 101  42 100  72 100  84 101
M  END
> <Batch ID>
0087

> <Smiles>
CNC(C)C(=O)NC(C(=O)N1Cc2cc([101O:1][101CH:1]=C3C(=O)CN(c4cc(N)cc([100NH:0][100C:0](=O)N5CCCC(n6nc(-c7ccc(Oc8ccc(F)cc8F)cc7)c(C(N)=O)c6N)C5)c4)C3=O)ccc2CC1C(=O)NC1CCCc2ccccc21)C(C)(C)C

> <Shape>
0.254

> <Color>
0.089

> <Negative vol penalty>
0.000

$$$$

  -OEChem-04052300203D

 87 96  0     1  0  0  0  0  0999 V2000
  -20.9124  -35.7306   17.0238 C   0  0  0  0  0  0  0  0  0  0  0  0
  -22.0524  -35.4816   17.7814 C   0  0  0  0  0  0  0  0  0  0  0  0
  -30.6301  -19.4341   24.2808 C   0  0  0  0  0  0  0  0  0  0  0  0
  -24.5168   -9.6787   22.2899 C   0  0  0  0  0  0  0  0  0  0  0  0
  -24.1303   -9.7903   19.9076 C   0  0  0  0  0  0  0  0  0  0  0  0
  -19.7292  -35.0475   17.3018 C   0  0  0  0  0  0  0  0  0  0  0  0
  -22.0094  -34.5500   18.8181 C   0  0  0  0  0  0  0  0  0  0  0  0
  -26.3965  -28.8365   18.8535 C   0  0  0  0  0  0  0  0  0  0  0  0
  -30.2800  -20.5164   23.4736 C   0  0  0  0  0  0  0  0  0  0  0  0
  -30.6013  -18.1393   23.7625 C   0  0  0  0  0  0  0  0  0  0  0  0
  -24.1127   -8.3437   22.2929 C   0  0  0  0  0  0  0  0  0  0  0  0
  -23.7262   -8.4553   19.9106 C   0  0  0  0  0  0  0  0  0  0  0  0
  -27.3465  -27.8320   19.0396 C   0  0  0  0  0  0  0  0  0  0  0  0
  -21.2049   -6.6217   22.2311 C   0  0  0  0  0  0  0  0  0  0  0  0
  -20.3319   -6.2119   23.2388 C   0  0  0  0  0  0  0  0  0  0  0  0
  -26.2190  -27.1249   21.0586 C   0  0  0  0  0  0  0  0  0  0  0  0
  -29.8721  -19.0093   21.6298 C   0  0  0  0  0  0  0  0  0  0  0  0
  -21.9640   -4.6000   23.9971 C   0  0  0  0  0  0  0  0  0  0  0  0
  -24.5255  -10.4020   21.0972 C   0  0  0  0  0  0  0  0  0  0  0  0
  -24.3608  -12.8470   21.8063 C   0  0  0  0  0  0  0  0  0  0  0  0
  -19.6743  -34.1000   18.3362 C   0  0  0  0  0  0  0  0  0  0  0  0
  -25.3441  -28.9793   19.7620 C   0  0  0  0  0  0  0  0  0  0  0  0
  -20.8240  -33.8545   19.1110 C   0  0  0  0  0  0  0  0  0  0  0  0
  -25.2574  -28.1213   20.8706 C   0  0  0  0  0  0  0  0  0  0  0  0
  -29.9010  -20.3040   22.1481 C   0  0  0  0  0  0  0  0  0  0  0  0
  -30.2223  -17.9269   22.4371 C   0  0  0  0  0  0  0  0  0  0  0  0
  -23.7174   -7.7319   21.1033 C   0  0  0  0  0  0  0  0  0  0  0  0
  -27.2581  -26.9785   20.1396 C   0  0  0  0  0  0  0  0  0  0  0  0
  -22.4574   -6.0206   22.1063 C   0  0  0  0  0  0  0  0  0  0  0  0
  -20.7114   -5.2010   24.1218 C   0  0  0  0  0  0  0  0  0  0  0  0
  -22.8370   -5.0098   22.9893 C   0  0  0  0  0  0  0  0  0  0  0  0
  -24.9423  -11.7813   21.0935 C   0  0  0  0  0  0  0  0  0  0  0  0
  -25.1178  -13.9413   21.4659 C   0  0  0  0  0  0  0  0  0  0  0  0
  -28.7841  -23.7382   19.8566 C   0  0  0  0  0  0  0  0  0  0  0  0
  -28.6036  -21.2761   20.2683 C   0  0  0  0  0  0  0  0  0  0  0  0
  -30.5114  -14.2309   22.1882 C   0  0  0  0  0  0  0  0  0  0  0  0
  -27.9424  -24.7755   19.7510 C   0  0  0  0  0  0  0  0  0  1  0  0
  -30.5322  -15.4779   22.6640 C   0  0  0  0  0  0  0  0  0  0  0  0
  -23.2368  -12.8476   22.6964 C   0  0  0  0  0  0  0  0  0  0  0  0
  -22.2372  -30.8476   20.7278 C   0  0  0  0  0  0  0  0  0  0  0  0
  -21.6943  -27.8769   21.2666 C   0  0  0  0  0  0  0  0  0  0  0  0
  -21.3489  -24.4835   21.3218 C   0  0  0  0  0  0  0  0  0  0  0  0
  -29.9618  -16.4063   20.5103 C   0  0  0  0  0  0  0  0  0  0  0  0
  -18.3600  -33.4211   18.6297 C   0  0  0  0  0  0  0  0  0  0  0  0
  -24.3330  -30.0862   19.6347 C   0  0  0  0  0  0  0  0  0  0  0  0
  -24.1277  -28.3341   21.8409 C   0  0  0  0  0  0  0  0  0  0  0  0
  -28.5257  -22.4034   19.2474 C   0  0  0  0  0  0  0  0  0  0  0  0
  -30.0680  -23.7963   20.6127 C   0  0  0  0  0  0  0  0  0  0  0  0
  -18.4989  -32.1768   19.5031 C   0  0  0  0  0  0  0  0  0  0  0  0
  -28.6190  -14.5477   17.8777 C   0  0  0  0  0  0  0  0  0  0  0  0
  -19.4113  -32.4586   20.6926 C   0  0  0  0  0  0  0  0  0  0  0  0
  -27.4969  -13.7408   18.5303 C   0  0  0  0  0  0  0  0  0  0  0  0
  -30.0141  -22.7622   21.7272 C   0  0  0  0  0  0  0  0  0  0  0  0
  -29.8391  -14.6234   18.7883 C   0  0  0  0  0  0  0  0  0  0  0  0
  -28.4264  -14.3909   20.8066 C   0  0  0  0  0  0  0  0  0  0  0  0
  -20.8238  -32.8333   20.2278 C   0  0  1  0  0  0  0  0  0  0  0  0
  -22.9240  -29.6726   20.0962 C   0  0  1  0  0  0  0  0  0  0  0  0
  -27.1629  -14.2900   19.9285 C   0  0  2  0  0  0  0  0  0  0  0  0
  -19.7024  -22.6803   21.9005 C   0  0  0  0  0  0  0  0  0  0  0  0
  -22.2378  -28.3375   24.2325 C   0  0  0  0  0  0  0  0  0  0  0  0
  -21.3906  -26.0234   24.6745 C   0  0  0  0  0  0  0  0  0  0  0  0
  -19.8722  -27.7379   23.6859 C   0  0  0  0  0  0  0  0  0  0  0  0
  -21.3254  -23.4537   18.5473 C   0  0  0  0  0  0  0  0  0  0  0  0
  -21.7152  -26.7481   22.2661 C   0  0  1  0  0  0  0  0  0  0  0  0
  -20.2516  -23.5739   20.7992 C   0  0  2  0  0  0  0  0  0  0  0  0
  -21.3256  -27.2161   23.6967 C   0  0  0  0  0  0  0  0  0  0  0  0
  -25.9880  -12.1641   20.3560 N   0  0  0  0  0  0  0  0  0  0  0  0
  -26.0694  -13.4825   20.6033 N   0  0  0  0  0  0  0  0  0  0  0  0
  -29.5384  -21.4274   21.3110 N   0  0  0  0  0  0  0  0  0  0  0  0
  -22.8805  -28.6038   21.1086 N   0  0  0  0  0  0  0  0  0  0  0  0
  -29.4798  -15.1450   20.1074 N   0  0  0  0  0  0  0  0  0  0  0  0
  -25.0555  -15.2416   21.8232 N   0  0  0  0  0  0  0  0  0  0  0  0
  -21.9610  -13.0727   22.1616 N   0  0  0  0  0  0  0  0  0  0  0  0
  -21.5563  -31.6496   19.8319 N   0  0  0  0  0  0  0  0  0  0  0  0
  -20.8515  -25.7056   21.7225 N   0  0  0  0  0  0  0  0  0  0  0  0
  -30.1926  -16.5823   21.8995 N   0  0  0  0  0  0  0  0  0  0  0  0
  -20.7750  -22.7057   19.7068 N   0  3  0  0  0  0  0  0  0  0  0  0
  -27.8932  -20.2829   20.0863 O   0  0  0  0  0  0  0  0  0  0  0  0
  -23.3621  -12.6707   23.9320 O   0  0  0  0  0  0  0  0  0  0  0  0
  -22.3171  -31.0147   21.9392 O   0  0  0  0  0  0  0  0  0  0  0  0
  -20.6542  -28.1135   20.6457 O   0  0  0  0  0  0  0  0  0  0  0  0
  -22.5286  -24.1427   21.3731 O   0  0  0  0  0  0  0  0  0  0  0  0
  -30.1920  -17.3069   19.6929 O   0  0  0  0  0  0  0  0  0  0  0  0
  -23.3233   -6.4292   21.1058 O   0  0  0  0  0  0  0  0  0  0  0  0
  -28.1864  -25.9972   20.3128 O   0  0  0  0  0  0  0  0  0  1  0  0
  -19.8736   -4.8086   25.0905 F   0  0  0  0  0  0  0  0  0  0  0  0
  -24.0395   -4.4294   22.8752 F   0  0  0  0  0  0  0  0  0  0  0  0
  1  2  1  0  0  0  0
  1  6  2  0  0  0  0
  2  7  2  0  0  0  0
  3  9  1  0  0  0  0
  3 10  2  0  0  0  0
  4 11  2  0  0  0  0
  4 19  1  0  0  0  0
  5 12  1  0  0  0  0
  5 19  2  0  0  0  0
  6 21  1  0  0  0  0
  7 23  1  0  0  0  0
  8 13  2  0  0  0  0
  8 22  1  0  0  0  0
  9 25  2  0  0  0  0
 10 26  1  0  0  0  0
 11 27  1  0  0  0  0
 12 27  2  0  0  0  0
 13 28  1  0  0  0  0
 14 15  2  0  0  0  0
 14 29  1  0  0  0  0
 15 30  1  0  0  0  0
 16 24  1  0  0  0  0
 16 28  2  0  0  0  0
 17 25  1  0  0  0  0
 17 26  2  0  0  0  0
 18 30  2  0  0  0  0
 18 31  1  0  0  0  0
 19 32  1  0  0  0  0
 20 32  1  0  0  0  0
 20 33  2  0  0  0  0
 20 39  1  0  0  0  0
 21 23  2  0  0  0  0
 21 44  1  0  0  0  0
 22 24  2  0  0  0  0
 22 45  1  0  0  0  0
 23 56  1  0  0  0  0
 24 46  1  0  0  0  0
 25 69  1  0  0  0  0
 26 76  1  0  0  0  0
 27 84  1  0  0  0  0
 28 85  1  0  0  0  0
 29 31  2  0  0  0  0
 29 84  1  0  0  0  0
 30 86  1  0  0  0  0
 31 87  1  0  0  0  0
 32 67  2  0  0  0  0
 33 68  1  0  0  0  0
 33 72  1  0  0  0  0
 34 37  2  0  0  0  0
 34 47  1  0  0  0  0
 34 48  1  0  0  0  0
 35 47  1  0  0  0  0
 35 69  1  0  0  0  0
 35 78  2  0  0  0  0
 36 38  2  0  0  0  0
 37 85  1  0  0  0  0
 38 76  1  0  0  0  0
 39 73  1  0  0  0  0
 39 79  2  0  0  0  0
 40 57  1  0  0  0  0
 40 74  1  0  0  0  0
 40 80  2  0  0  0  0
 41 64  1  0  0  0  0
 41 70  1  0  0  0  0
 41 81  2  0  0  0  0
 42 65  1  0  0  0  0
 42 75  1  0  0  0  0
 42 82  2  0  0  0  0
 43 71  1  0  0  0  0
 43 76  1  0  0  0  0
 43 83  2  0  0  0  0
 44 49  1  0  0  0  0
 45 57  1  0  0  0  0
 46 70  1  0  0  0  0
 48 53  1  0  0  0  0
 49 51  1  0  0  0  0
 50 52  1  0  0  0  0
 50 54  1  0  0  0  0
 51 56  1  0  0  0  0
 52 58  1  0  0  0  0
 53 69  1  0  0  0  0
 54 71  1  0  0  0  0
 55 58  1  0  0  0  0
 55 71  1  0  0  0  0
 56 74  1  0  0  0  0
 57 70  1  0  0  0  0
 58 68  1  0  0  0  0
 59 65  1  0  0  0  0
 60 66  1  0  0  0  0
 61 66  1  0  0  0  0
 62 66  1  0  0  0  0
 63 77  1  0  0  0  0
 64 66  1  0  0  0  0
 64 75  1  0  0  0  0
 65 77  1  0  0  0  0
 67 68  1  0  0  0  0
M  CHG  1  77   1
M  ISO  4  37 101  43 100  76 100  85 101
M  END
> <Batch ID>
0087

> <Smiles>
C=C[100N:0](c1cccc(N2CCC(=[101CH:1][101O:1]c3ccc4c(c3)CN(C(=O)C(NC(=O)C(C)NC)C(C)(C)C)C(C(=O)NC3CCCc5ccccc53)C4)CC2=O)c1)[100C:0](=O)N1CCCC(n2nc(-c3ccc(Oc4ccc(F)cc4F)cc3)c(C(N)=O)c2N)C1

> <Shape>
0.285

> <Color>
0.128

> <Negative vol penalty>
0.000

$$$$

  -OEChem-04052300203D

 86 95  0     1  0  0  0  0  0999 V2000
  -24.0680  -35.7283   17.0095 C   0  0  0  0  0  0  0  0  0  0  0  0
  -23.8757  -34.3872   16.6937 C   0  0  0  0  0  0  0  0  0  0  0  0
  -22.6197  -12.0366   19.1066 C   0  0  0  0  0  0  0  0  0  0  0  0
  -22.7666  -10.6615   21.0876 C   0  0  0  0  0  0  0  0  0  0  0  0
  -24.8500  -36.0791   18.1092 C   0  0  0  0  0  0  0  0  0  0  0  0
  -24.4661  -33.3960   17.4769 C   0  0  0  0  0  0  0  0  0  0  0  0
  -23.3288  -26.7282   19.8355 C   0  0  0  0  0  0  0  0  0  0  0  0
  -21.4617  -11.3603   18.7229 C   0  0  0  0  0  0  0  0  0  0  0  0
  -21.6086   -9.9851   20.7040 C   0  0  0  0  0  0  0  0  0  0  0  0
  -23.9537  -25.4830   19.8878 C   0  0  0  0  0  0  0  0  0  0  0  0
  -18.8935   -7.6547   20.0653 C   0  0  0  0  0  0  0  0  0  0  0  0
  -18.8916   -6.2636   20.1665 C   0  0  0  0  0  0  0  0  0  0  0  0
  -31.0322  -19.2342   20.0273 C   0  0  0  0  0  0  0  0  0  0  0  0
  -30.0063  -20.2086   20.1953 C   0  0  0  0  0  0  0  0  0  0  0  0
  -25.2190  -26.2053   21.8103 C   0  0  0  0  0  0  0  0  0  0  0  0
  -25.3661  -20.5865   20.7461 C   0  0  0  0  0  0  0  0  0  0  0  0
  -20.7527   -6.1493   18.6300 C   0  0  0  0  0  0  0  0  0  0  0  0
  -23.2722  -11.6872   20.2890 C   0  0  0  0  0  0  0  0  0  0  0  0
  -24.5532  -13.5423   21.4828 C   0  0  0  0  0  0  0  0  0  0  0  0
  -25.4423  -35.0916   18.9120 C   0  0  0  0  0  0  0  0  0  0  0  0
  -23.6529  -27.7267   20.7652 C   0  0  0  0  0  0  0  0  0  0  0  0
  -25.2578  -33.7340   18.5876 C   0  0  0  0  0  0  0  0  0  0  0  0
  -24.5950  -27.4615   21.7693 C   0  0  0  0  0  0  0  0  0  0  0  0
  -25.8932  -21.7748   20.1828 C   0  0  0  0  0  0  0  0  0  0  0  0
  -20.9561  -10.3345   19.5216 C   0  0  0  0  0  0  0  0  0  0  0  0
  -24.9011  -25.2223   20.8735 C   0  0  0  0  0  0  0  0  0  0  0  0
  -19.8250   -8.2932   19.2464 C   0  0  0  0  0  0  0  0  0  0  0  0
  -19.8212   -5.5108   19.4489 C   0  0  0  0  0  0  0  0  0  0  0  0
  -20.7545   -7.5405   18.5288 C   0  0  0  0  0  0  0  0  0  0  0  0
  -24.4687  -12.3851   20.6856 C   0  0  0  0  0  0  0  0  0  0  0  0
  -30.5197  -17.9661   19.8639 C   0  0  0  0  0  0  0  0  0  0  0  0
  -27.2215  -21.5427   19.9016 C   0  0  0  0  0  0  0  0  0  0  0  0
  -25.8988  -13.8045   21.5660 C   0  0  0  0  0  0  0  0  0  0  0  0
  -26.3885  -19.6645   20.7922 C   0  0  0  0  0  0  0  0  0  0  0  0
  -28.7485  -19.6480   20.1536 C   0  0  0  0  0  0  0  0  0  0  0  0
  -23.5086  -14.3114   22.0936 C   0  0  0  0  0  0  0  0  0  0  0  0
  -31.2465  -16.6866   19.6604 C   0  0  0  0  0  0  0  0  0  0  0  0
  -24.9050  -30.6425   20.5804 C   0  0  0  0  0  0  0  0  0  0  0  0
  -24.2267  -30.7115   23.7518 C   0  0  0  0  0  0  0  0  0  0  0  0
  -23.6661  -28.9707   26.6332 C   0  0  0  0  0  0  0  0  0  0  0  0
  -30.9260  -14.2621   19.2820 C   0  0  0  0  0  0  0  0  0  0  0  0
  -26.3180  -35.5203   20.0627 C   0  0  0  0  0  0  0  0  0  0  0  0
  -22.9504  -29.0556   20.7117 C   0  0  0  0  0  0  0  0  0  0  0  0
  -24.9635  -28.4927   22.8034 C   0  0  0  0  0  0  0  0  0  0  0  0
  -26.6010  -34.4019   21.0624 C   0  0  0  0  0  0  0  0  0  0  0  0
  -29.8937  -11.0075   20.1978 C   0  0  0  0  0  0  0  0  0  0  0  0
  -26.9966  -33.1217   20.3334 C   0  0  0  0  0  0  0  0  0  0  0  0
  -28.3976  -11.1694   20.4806 C   0  0  0  0  0  0  0  0  0  0  0  0
  -30.3442  -11.8669   19.0174 C   0  0  0  0  0  0  0  0  0  0  0  0
  -28.4929  -13.4458   19.3884 C   0  0  0  0  0  0  0  0  0  0  0  0
  -25.8613  -32.6293   19.4277 C   0  0  1  0  0  0  0  0  0  0  0  0
  -23.7328  -30.1731   21.3948 C   0  0  1  0  0  0  0  0  0  0  0  0
  -28.0043  -12.6544   20.6124 C   0  0  1  0  0  0  0  0  0  0  0  0
  -28.2319  -22.4464   19.3064 C   0  0  0  0  0  0  0  0  0  0  0  0
  -23.1761  -29.3031   29.0718 C   0  0  0  0  0  0  0  0  0  0  0  0
  -27.1421  -31.4735   24.2313 C   0  0  0  0  0  0  0  0  0  0  0  0
  -26.8324  -30.8650   26.6400 C   0  0  0  0  0  0  0  0  0  0  0  0
  -25.4932  -32.7175   25.6413 C   0  0  0  0  0  0  0  0  0  0  0  0
  -21.0834  -27.5401   26.4282 C   0  0  0  0  0  0  0  0  0  0  0  0
  -25.1363  -23.0474   19.9405 C   0  0  0  0  0  0  0  0  0  1  0  0
  -24.9644  -30.3268   25.0115 C   0  0  1  0  0  0  0  0  0  0  0  0
  -22.5813  -29.0917   27.6882 C   0  0  2  0  0  0  0  0  0  0  0  0
  -26.1027  -31.3267   25.3605 C   0  0  0  0  0  0  0  0  0  0  0  0
  -25.6654  -11.9428   20.2903 N   0  0  0  0  0  0  0  0  0  0  0  0
  -27.5116  -20.2568   20.2765 N   0  0  0  0  0  0  0  0  0  0  0  0
  -26.5146  -12.8267   20.8415 N   0  0  0  0  0  0  0  0  0  0  0  0
  -24.2537  -29.7788   22.7053 N   0  0  0  0  0  0  0  0  0  0  0  0
  -29.9424  -13.2594   19.2237 N   0  0  0  0  0  0  0  0  0  0  0  0
  -26.6036  -14.7737   22.1875 N   0  0  0  0  0  0  0  0  0  0  0  0
  -22.1812  -13.9023   21.9071 N   0  0  0  0  0  0  0  0  0  0  0  0
  -30.4442  -15.5532   19.5250 N   0  0  0  0  0  0  0  0  0  0  0  0
  -24.8377  -31.9726   20.2121 N   0  0  0  0  0  0  0  0  0  0  0  0
  -23.9511  -30.1881   26.0518 N   0  0  0  0  0  0  0  0  0  0  0  0
  -21.7482  -27.8563   27.7185 N   0  3  0  0  0  0  0  0  0  0  0  0
  -23.7444  -15.3407   22.7707 O   0  0  0  0  0  0  0  0  0  0  0  0
  -32.4720  -16.7004   19.5847 O   0  0  0  0  0  0  0  0  0  0  0  0
  -25.8048  -29.8565   20.3078 O   0  0  0  0  0  0  0  0  0  0  0  0
  -23.6419  -31.7964   23.7009 O   0  0  0  0  0  0  0  0  0  0  0  0
  -24.2091  -27.9038   26.3554 O   0  0  0  0  0  0  0  0  0  0  0  0
  -32.1322  -14.0236   19.1661 O   0  0  0  0  0  0  0  0  0  0  0  0
  -26.3980  -18.4117   21.2316 O   0  0  0  0  0  0  0  0  0  0  0  0
  -19.8261   -9.6745   19.1476 O   0  0  0  0  0  0  0  0  0  0  0  0
  -25.5129  -24.0080   20.9263 O   0  0  0  0  0  0  0  0  0  1  0  0
  -19.8203   -4.1750   19.5473 F   0  0  0  0  0  0  0  0  0  0  0  0
  -21.6526   -8.1483   17.7414 F   0  0  0  0  0  0  0  0  0  0  0  0
  -28.8080  -17.9536   19.9131 S   0  0  0  0  0  0  0  0  0  0  0  0
  1  2  1  0  0  0  0
  1  5  2  0  0  0  0
  2  6  2  0  0  0  0
  3  8  2  0  0  0  0
  3 18  1  0  0  0  0
  4  9  1  0  0  0  0
  4 18  2  0  0  0  0
  5 20  1  0  0  0  0
  6 22  1  0  0  0  0
  7 10  2  0  0  0  0
  7 21  1  0  0  0  0
  8 25  1  0  0  0  0
  9 25  2  0  0  0  0
 10 26  1  0  0  0  0
 11 12  2  0  0  0  0
 11 27  1  0  0  0  0
 12 28  1  0  0  0  0
 13 14  1  0  0  0  0
 13 31  2  0  0  0  0
 14 35  2  0  0  0  0
 15 23  1  0  0  0  0
 15 26  2  0  0  0  0
 16 24  1  0  0  0  0
 16 34  2  0  0  0  0
 17 28  2  0  0  0  0
 17 29  1  0  0  0  0
 18 30  1  0  0  0  0
 19 30  1  0  0  0  0
 19 33  2  0  0  0  0
 19 36  1  0  0  0  0
 20 22  2  0  0  0  0
 20 42  1  0  0  0  0
 21 23  2  0  0  0  0
 21 43  1  0  0  0  0
 22 51  1  0  0  0  0
 23 44  1  0  0  0  0
 24 32  2  0  0  0  0
 24 60  1  0  0  0  0
 25 82  1  0  0  0  0
 26 83  1  0  0  0  0
 27 29  2  0  0  0  0
 27 82  1  0  0  0  0
 28 84  1  0  0  0  0
 29 85  1  0  0  0  0
 30 64  2  0  0  0  0
 31 37  1  0  0  0  0
 31 86  1  0  0  0  0
 32 54  1  0  0  0  0
 32 65  1  0  0  0  0
 33 66  1  0  0  0  0
 33 69  1  0  0  0  0
 34 65  1  0  0  0  0
 34 81  1  0  0  0  0
 35 65  1  0  0  0  0
 35 86  1  0  0  0  0
 36 70  1  0  0  0  0
 36 75  2  0  0  0  0
 37 71  1  0  0  0  0
 37 76  2  0  0  0  0
 38 52  1  0  0  0  0
 38 72  1  0  0  0  0
 38 77  2  0  0  0  0
 39 61  1  0  0  0  0
 39 67  1  0  0  0  0
 39 78  2  0  0  0  0
 40 62  1  0  0  0  0
 40 73  1  0  0  0  0
 40 79  2  0  0  0  0
 41 68  1  0  0  0  0
 41 71  1  0  0  0  0
 41 80  2  0  0  0  0
 42 45  1  0  0  0  0
 43 52  1  0  0  0  0
 44 67  1  0  0  0  0
 45 47  1  0  0  0  0
 46 48  1  0  0  0  0
 46 49  1  0  0  0  0
 47 51  1  0  0  0  0
 48 53  1  0  0  0  0
 49 68  1  0  0  0  0
 50 53  1  0  0  0  0
 50 68  1  0  0  0  0
 51 72  1  0  0  0  0
 52 67  1  0  0  0  0
 53 66  1  0  0  0  0
 55 62  1  0  0  0  0
 56 63  1  0  0  0  0
 57 63  1  0  0  0  0
 58 63  1  0  0  0  0
 59 74  1  0  0  0  0
 60 83  1  0  0  0  0
 61 63  1  0  0  0  0
 61 73  1  0  0  0  0
 62 74  1  0  0  0  0
 64 66  1  0  0  0  0
M  CHG  1  74   1
M  ISO  4  41 100  60 101  71 100  83 101
M  END
> <Batch ID>
0087

> <Smiles>
CNC(C)C(=O)NC(C(=O)N1Cc2cc([101O:1][101CH2:1]C3=C(C)N(c4ccc(C(=O)[100NH:0][100C:0](=O)N5CCCC(n6nc(-c7ccc(Oc8ccc(F)cc8F)cc7)c(C(N)=O)c6N)C5)s4)C(=O)C3)ccc2CC1C(=O)NC1CCCc2ccccc21)C(C)(C)C

> <Shape>
0.224

> <Color>
0.090

> <Negative vol penalty>
0.000

$$$$

  -OEChem-04052300203D

 82 90  0     1  0  0  0  0  0999 V2000
  -24.7388  -25.0154   31.7486 C   0  0  0  0  0  0  0  0  0  0  0  0
  -25.2755  -24.4163   30.6136 C   0  0  0  0  0  0  0  0  0  0  0  0
  -32.8728  -17.1724   23.3671 C   0  0  0  0  0  0  0  0  0  0  0  0
  -22.9135   -9.9719   20.0302 C   0  0  0  0  0  0  0  0  0  0  0  0
  -23.6729   -9.9958   22.3237 C   0  0  0  0  0  0  0  0  0  0  0  0
  -23.5960  -25.8070   31.6434 C   0  0  0  0  0  0  0  0  0  0  0  0
  -24.6690  -24.6075   29.3726 C   0  0  0  0  0  0  0  0  0  0  0  0
  -28.0167  -25.6108   25.7078 C   0  0  0  0  0  0  0  0  0  0  0  0
  -32.2403  -16.2980   22.4834 C   0  0  0  0  0  0  0  0  0  0  0  0
  -22.1106   -8.8657   20.3076 C   0  0  0  0  0  0  0  0  0  0  0  0
  -22.8699   -8.8895   22.6010 C   0  0  0  0  0  0  0  0  0  0  0  0
  -28.7303  -24.5332   25.1848 C   0  0  0  0  0  0  0  0  0  0  0  0
  -22.9871   -5.5441   22.1260 C   0  0  0  0  0  0  0  0  0  0  0  0
  -23.5483   -4.5061   22.8697 C   0  0  0  0  0  0  0  0  0  0  0  0
  -32.1205  -18.0969   24.0917 C   0  0  0  0  0  0  0  0  0  0  0  0
  -27.2353  -24.4694   23.2927 C   0  0  0  0  0  0  0  0  0  0  0  0
  -30.1031  -17.2729   23.0486 C   0  0  0  0  0  0  0  0  0  0  0  0
  -21.8583   -4.8102   24.5693 C   0  0  0  0  0  0  0  0  0  0  0  0
  -23.6948  -10.5370   21.0383 C   0  0  0  0  0  0  0  0  0  0  0  0
  -24.1679  -13.0371   20.8565 C   0  0  0  0  0  0  0  0  0  0  0  0
  -22.9806  -26.0159   30.3991 C   0  0  0  0  0  0  0  0  0  0  0  0
  -26.8987  -26.1196   25.0314 C   0  0  0  0  0  0  0  0  0  0  0  0
  -23.5160  -25.4016   29.2509 C   0  0  0  0  0  0  0  0  0  0  0  0
  -26.5109  -25.5551   23.8079 C   0  0  0  0  0  0  0  0  0  0  0  0
  -30.8554  -16.3483   22.3240 C   0  0  0  0  0  0  0  0  0  0  0  0
  -22.0887   -8.3245   21.5930 C   0  0  0  0  0  0  0  0  0  0  0  0
  -28.3379  -23.9605   23.9785 C   0  0  0  0  0  0  0  0  0  0  0  0
  -21.8615   -6.2153   22.6039 C   0  0  0  0  0  0  0  0  0  0  0  0
  -22.9839   -4.1391   24.0913 C   0  0  0  0  0  0  0  0  0  0  0  0
  -21.2971   -5.8483   23.8256 C   0  0  0  0  0  0  0  0  0  0  0  0
  -30.7357  -18.1472   23.9324 C   0  0  0  0  0  0  0  0  0  0  0  0
  -24.5249  -11.6794   20.7522 C   0  0  0  0  0  0  0  0  0  0  0  0
  -25.2976  -13.7195   20.4763 C   0  0  0  0  0  0  0  0  0  0  0  0
  -29.1132  -21.7662   24.2125 C   0  0  0  0  0  0  0  0  0  1  0  0
  -29.7688  -20.6812   23.8009 C   0  0  0  0  0  0  0  0  0  0  0  0
  -22.9261  -13.6287   21.2611 C   0  0  0  0  0  0  0  0  0  0  0  0
  -23.8044  -26.3965   25.7040 C   0  0  0  0  0  0  0  0  0  0  0  0
  -23.7410  -28.0329   22.9039 C   0  0  0  0  0  0  0  0  0  0  0  0
  -25.1730  -28.6302   19.8643 C   0  0  0  0  0  0  0  0  0  0  0  0
  -30.8109  -14.4825   20.6319 C   0  0  0  0  0  0  0  0  0  0  0  0
  -21.7196  -26.8413   30.3423 C   0  0  0  0  0  0  0  0  0  0  0  0
  -26.1557  -27.2995   25.5955 C   0  0  0  0  0  0  0  0  0  0  0  0
  -25.3300  -26.0773   23.0325 C   0  0  0  0  0  0  0  0  0  0  0  0
  -21.3541  -27.2989   28.9326 C   0  0  0  0  0  0  0  0  0  0  0  0
  -29.5720  -12.0725   18.3224 C   0  0  0  0  0  0  0  0  0  0  0  0
  -21.4645  -26.1381   27.9491 C   0  0  0  0  0  0  0  0  0  0  0  0
  -28.1191  -11.8671   18.7572 C   0  0  0  0  0  0  0  0  0  0  0  0
  -30.4978  -12.2828   19.5191 C   0  0  0  0  0  0  0  0  0  0  0  0
  -28.6314  -13.1396   20.8798 C   0  0  0  0  0  0  0  0  0  0  0  0
  -22.9010  -25.6055   27.8833 C   0  0  1  0  0  0  0  0  0  0  0  0
  -24.7243  -27.4068   25.0790 C   0  0  1  0  0  0  0  0  0  0  0  0
  -27.6507  -12.9883   19.7054 C   0  0  2  0  0  0  0  0  0  0  0  0
  -24.8724  -29.9933   17.7788 C   0  0  0  0  0  0  0  0  0  0  0  0
  -21.5083  -26.1583   22.0034 C   0  0  0  0  0  0  0  0  0  0  0  0
  -21.9086  -26.9235   19.6534 C   0  0  0  0  0  0  0  0  0  0  0  0
  -21.1681  -28.5579   21.3863 C   0  0  0  0  0  0  0  0  0  0  0  0
  -27.7621  -30.0099   20.2538 C   0  0  0  0  0  0  0  0  0  0  0  0
  -23.5323  -27.6645   21.4549 C   0  0  1  0  0  0  0  0  0  0  0  0
  -25.5221  -29.9246   19.1522 C   0  0  2  0  0  0  0  0  0  0  0  0
  -22.0505  -27.3147   21.1398 C   0  0  0  0  0  0  0  0  0  0  0  0
  -25.7830  -11.5075   20.3380 N   0  0  0  0  0  0  0  0  0  0  0  0
  -26.2264  -12.7661   20.1786 N   0  0  0  0  0  0  0  0  0  0  0  0
  -24.6320  -27.2285   23.6285 N   0  0  0  0  0  0  0  0  0  0  0  0
  -29.9935  -13.3627   20.3702 N   0  0  0  0  0  0  0  0  0  0  0  0
  -25.5772  -15.0359   20.3708 N   0  0  0  0  0  0  0  0  0  0  0  0
  -21.8681  -12.7821   21.6194 N   0  0  0  0  0  0  0  0  0  0  0  0
  -30.2127  -15.4600   21.4265 N   0  0  0  0  0  0  0  0  0  0  0  0
  -23.7284  -26.4811   27.0812 N   0  0  0  0  0  0  0  0  0  0  0  0
  -24.0640  -28.7741   20.6710 N   0  0  0  0  0  0  0  0  0  0  0  0
  -26.9979  -30.0394   18.9802 N   0  3  0  0  0  0  0  0  0  0  0  0
  -22.7543  -14.8710   21.2878 O   0  0  0  0  0  0  0  0  0  0  0  0
  -23.2066  -25.6002   24.9897 O   0  0  0  0  0  0  0  0  0  0  0  0
  -23.1412  -29.0030   23.3737 O   0  0  0  0  0  0  0  0  0  0  0  0
  -25.8173  -27.5940   19.7166 O   0  0  0  0  0  0  0  0  0  0  0  0
  -31.9472  -14.5806   20.1616 O   0  0  0  0  0  0  0  0  0  0  0  0
  -28.4331  -18.7896   24.9700 O   0  0  0  0  0  0  0  0  0  0  0  0
  -30.5413  -19.6271   26.0534 O   0  0  0  0  0  0  0  0  0  0  0  0
  -21.3050   -7.2451   21.8640 O   0  0  0  0  0  0  0  0  0  0  0  0
  -29.0322  -22.9083   23.4662 O   0  0  0  0  0  0  0  0  0  1  0  0
  -23.5220   -3.1413   24.8047 F   0  0  0  0  0  0  0  0  0  0  0  0
  -20.2151   -6.4886   24.2894 F   0  0  0  0  0  0  0  0  0  0  0  0
  -29.7809  -19.3221   24.8520 S   0  0  0  0  0  0  0  0  0  0  0  0
  1  2  1  0  0  0  0
  1  6  2  0  0  0  0
  2  7  2  0  0  0  0
  3  9  1  0  0  0  0
  3 15  2  0  0  0  0
  4 10  2  0  0  0  0
  4 19  1  0  0  0  0
  5 11  1  0  0  0  0
  5 19  2  0  0  0  0
  6 21  1  0  0  0  0
  7 23  1  0  0  0  0
  8 12  2  0  0  0  0
  8 22  1  0  0  0  0
  9 25  2  0  0  0  0
 10 26  1  0  0  0  0
 11 26  2  0  0  0  0
 12 27  1  0  0  0  0
 13 14  2  0  0  0  0
 13 28  1  0  0  0  0
 14 29  1  0  0  0  0
 15 31  1  0  0  0  0
 16 24  1  0  0  0  0
 16 27  2  0  0  0  0
 17 25  1  0  0  0  0
 17 31  2  0  0  0  0
 18 29  2  0  0  0  0
 18 30  1  0  0  0  0
 19 32  1  0  0  0  0
 20 32  1  0  0  0  0
 20 33  2  0  0  0  0
 20 36  1  0  0  0  0
 21 23  2  0  0  0  0
 21 41  1  0  0  0  0
 22 24  2  0  0  0  0
 22 42  1  0  0  0  0
 23 50  1  0  0  0  0
 24 43  1  0  0  0  0
 25 67  1  0  0  0  0
 26 78  1  0  0  0  0
 27 79  1  0  0  0  0
 28 30  2  0  0  0  0
 28 78  1  0  0  0  0
 29 80  1  0  0  0  0
 30 81  1  0  0  0  0
 31 82  1  0  0  0  0
 32 61  2  0  0  0  0
 33 62  1  0  0  0  0
 33 65  1  0  0  0  0
 34 35  2  0  0  0  0
 34 79  1  0  0  0  0
 35 82  1  0  0  0  0
 36 66  1  0  0  0  0
 36 71  2  0  0  0  0
 37 51  1  0  0  0  0
 37 68  1  0  0  0  0
 37 72  2  0  0  0  0
 38 58  1  0  0  0  0
 38 63  1  0  0  0  0
 38 73  2  0  0  0  0
 39 59  1  0  0  0  0
 39 69  1  0  0  0  0
 39 74  2  0  0  0  0
 40 64  1  0  0  0  0
 40 67  1  0  0  0  0
 40 75  2  0  0  0  0
 41 44  1  0  0  0  0
 42 51  1  0  0  0  0
 43 63  1  0  0  0  0
 44 46  1  0  0  0  0
 45 47  1  0  0  0  0
 45 48  1  0  0  0  0
 46 50  1  0  0  0  0
 47 52  1  0  0  0  0
 48 64  1  0  0  0  0
 49 52  1  0  0  0  0
 49 64  1  0  0  0  0
 50 68  1  0  0  0  0
 51 63  1  0  0  0  0
 52 62  1  0  0  0  0
 53 59  1  0  0  0  0
 54 60  1  0  0  0  0
 55 60  1  0  0  0  0
 56 60  1  0  0  0  0
 57 70  1  0  0  0  0
 58 60  1  0  0  0  0
 58 69  1  0  0  0  0
 59 70  1  0  0  0  0
 61 62  1  0  0  0  0
 76 82  2  0  0  0  0
 77 82  2  0  0  0  0
M  CHG  1  70   1
M  ISO  4  34 101  40 100  67 100  79 101
M  END
> <Batch ID>
0087

> <Smiles>
CNC(C)C(=O)NC(C(=O)N1Cc2cc([101O:1][101CH:1]=CS(=O)(=O)c3cccc([100NH:0][100C:0](=O)N4CCCC(n5nc(-c6ccc(Oc7ccc(F)cc7F)cc6)c(C(N)=O)c5N)C4)c3)ccc2CC1C(=O)NC1CCCc2ccccc21)C(C)(C)C

> <Shape>
0.231

> <Color>
0.217

> <Negative vol penalty>
0.000

$$$$

  -OEChem-04052300203D

 85 94  0     1  0  0  0  0  0999 V2000
  -28.5560  -37.6458   23.7205 C   0  0  0  0  0  0  0  0  0  0  0  0
  -28.9822  -36.4403   23.1723 C   0  0  0  0  0  0  0  0  0  0  0  0
  -24.3128  -10.5897   23.6257 C   0  0  0  0  0  0  0  0  0  0  0  0
  -24.8464  -12.8848   24.1592 C   0  0  0  0  0  0  0  0  0  0  0  0
  -27.4851  -37.6644   24.6131 C   0  0  0  0  0  0  0  0  0  0  0  0
  -28.3383  -35.2525   23.5173 C   0  0  0  0  0  0  0  0  0  0  0  0
  -27.3774  -30.4021   19.9039 C   0  0  0  0  0  0  0  0  0  0  0  0
  -29.8699  -20.1534   18.2490 C   0  0  0  0  0  0  0  0  0  0  0  0
  -29.8152  -18.7737   18.4465 C   0  0  0  0  0  0  0  0  0  0  0  0
  -24.0488  -10.3381   24.9720 C   0  0  0  0  0  0  0  0  0  0  0  0
  -24.5823  -12.6333   25.5055 C   0  0  0  0  0  0  0  0  0  0  0  0
  -28.0509  -29.1896   19.7627 C   0  0  0  0  0  0  0  0  0  0  0  0
  -21.5310  -10.8862   27.1614 C   0  0  0  0  0  0  0  0  0  0  0  0
  -20.3787  -10.1642   27.4721 C   0  0  0  0  0  0  0  0  0  0  0  0
  -26.4809  -28.1490   21.2699 C   0  0  0  0  0  0  0  0  0  0  0  0
  -27.7832  -19.0375   19.7265 C   0  0  0  0  0  0  0  0  0  0  0  0
  -21.7299   -8.4627   28.5287 C   0  0  0  0  0  0  0  0  0  0  0  0
  -24.7117  -11.8630   23.2193 C   0  0  0  0  0  0  0  0  0  0  0  0
  -24.0930  -11.9917   20.7478 C   0  0  0  0  0  0  0  0  0  0  0  0
  -26.8216  -36.4775   24.9617 C   0  0  0  0  0  0  0  0  0  0  0  0
  -26.2552  -30.5000   20.7391 C   0  0  0  0  0  0  0  0  0  0  0  0
  -27.2584  -35.2551   24.4164 C   0  0  0  0  0  0  0  0  0  0  0  0
  -25.7935  -29.3634   21.4180 C   0  0  0  0  0  0  0  0  0  0  0  0
  -28.8813  -20.9752   18.7903 C   0  0  0  0  0  0  0  0  0  0  0  0
  -28.7719  -18.2157   19.1853 C   0  0  0  0  0  0  0  0  0  0  0  0
  -24.1835  -11.3599   25.9119 C   0  0  0  0  0  0  0  0  0  0  0  0
  -27.6044  -28.0635   20.4480 C   0  0  0  0  0  0  0  0  0  0  0  0
  -22.7827  -10.3965   27.5342 C   0  0  0  0  0  0  0  0  0  0  0  0
  -20.4781   -8.9524   28.1557 C   0  0  0  0  0  0  0  0  0  0  0  0
  -27.8379  -20.4172   19.5290 C   0  0  0  0  0  0  0  0  0  0  0  0
  -22.8821   -9.1847   28.2179 C   0  0  0  0  0  0  0  0  0  0  0  0
  -24.9851  -12.1234   21.8287 C   0  0  0  0  0  0  0  0  0  0  0  0
  -24.8305  -12.3554   19.6476 C   0  0  0  0  0  0  0  0  0  0  0  0
  -30.1328  -24.5041   18.6550 C   0  0  0  0  0  0  0  0  0  0  0  0
  -28.9716  -25.1639   18.7982 C   0  0  0  0  0  0  0  0  0  0  0  0
  -22.7203  -11.5777   20.7389 C   0  0  0  0  0  0  0  0  0  0  0  0
  -25.5449  -32.1577   23.3565 C   0  0  0  0  0  0  0  0  0  0  0  0
  -22.6055  -30.8611   22.9085 C   0  0  0  0  0  0  0  0  0  0  0  0
  -21.2601  -27.6481   21.9682 C   0  0  0  0  0  0  0  0  0  0  0  0
  -29.6166  -15.8575   18.9174 C   0  0  0  0  0  0  0  0  0  0  0  0
  -25.6993  -36.5416   25.9672 C   0  0  0  0  0  0  0  0  0  0  0  0
  -25.5240  -31.8089   20.8598 C   0  0  0  0  0  0  0  0  0  0  0  0
  -24.5816  -29.4108   22.3111 C   0  0  0  0  0  0  0  0  0  0  0  0
  -30.2386  -23.0210   18.4375 C   0  0  0  0  0  0  0  0  0  0  0  0
  -27.6537  -24.4444   18.7004 C   0  0  0  0  0  0  0  0  0  0  0  0
  -24.8311  -35.2863   25.9918 C   0  0  0  0  0  0  0  0  0  0  0  0
  -29.3312  -12.4257   18.0128 C   0  0  0  0  0  0  0  0  0  0  0  0
  -25.7027  -34.0346   26.0088 C   0  0  0  0  0  0  0  0  0  0  0  0
  -28.0995  -11.9483   18.7856 C   0  0  0  0  0  0  0  0  0  0  0  0
  -27.7744  -23.0632   18.0531 C   0  0  0  0  0  0  0  0  0  0  0  0
  -30.1507  -13.4327   18.8179 C   0  0  0  0  0  0  0  0  0  0  0  0
  -28.1605  -14.1020   20.1064 C   0  0  0  0  0  0  0  0  0  0  0  0
  -26.5696  -33.9487   24.7469 C   0  0  1  0  0  0  0  0  0  0  0  0
  -24.6989  -31.9166   22.1385 C   0  0  1  0  0  0  0  0  0  0  0  0
  -27.2685  -13.1355   19.3104 C   0  0  2  0  0  0  0  0  0  0  0  0
  -19.0961  -27.0503   20.8471 C   0  0  0  0  0  0  0  0  0  0  0  0
  -21.5679  -30.4923   25.7541 C   0  0  0  0  0  0  0  0  0  0  0  0
  -20.2591  -28.5167   24.9464 C   0  0  0  0  0  0  0  0  0  0  0  0
  -19.7861  -30.7856   24.0239 C   0  0  0  0  0  0  0  0  0  0  0  0
  -22.6505  -26.1712   19.8131 C   0  0  0  0  0  0  0  0  0  0  0  0
  -28.9141  -26.6372   19.0673 C   0  0  0  0  0  0  0  0  0  1  0  0
  -21.9153  -29.5959   23.3579 C   0  0  1  0  0  0  0  0  0  0  0  0
  -20.5848  -27.2946   20.6554 C   0  0  2  0  0  0  0  0  0  0  0  0
  -20.9103  -29.8487   24.5170 C   0  0  0  0  0  0  0  0  0  0  0  0
  -26.1968  -12.5382   21.4497 N   0  0  0  0  0  0  0  0  0  0  0  0
  -26.0713  -12.6702   20.1182 N   0  0  0  0  0  0  0  0  0  0  0  0
  -28.9396  -22.3563   18.5921 N   0  0  1  0  0  0  0  0  0  0  0  0
  -23.9044  -30.7150   22.4014 N   0  0  0  0  0  0  0  0  0  0  0  0
  -29.2986  -14.5312   19.2785 N   0  0  0  0  0  0  0  0  0  0  0  0
  -24.5321  -12.4333   18.3333 N   0  0  0  0  0  0  0  0  0  0  0  0
  -22.1166  -11.2393   21.9577 N   0  0  0  0  0  0  0  0  0  0  0  0
  -28.7165  -16.8141   19.3858 N   0  0  0  0  0  0  0  0  0  0  0  0
  -25.7812  -33.4931   23.6221 N   0  0  0  0  0  0  0  0  0  0  0  0
  -21.3150  -29.0120   22.1633 N   0  0  0  0  0  0  0  0  0  0  0  0
  -21.1922  -26.0635   20.0754 N   0  3  0  0  0  0  0  0  0  0  0  0
  -22.0538  -11.4940   19.6795 O   0  0  0  0  0  0  0  0  0  0  0  0
  -25.9519  -31.2030   24.0081 O   0  0  0  0  0  0  0  0  0  0  0  0
  -22.0112  -31.9384   22.9973 O   0  0  0  0  0  0  0  0  0  0  0  0
  -21.6922  -26.7991   22.7448 O   0  0  0  0  0  0  0  0  0  0  0  0
  -30.5989  -16.1224   18.2196 O   0  0  0  0  0  0  0  0  0  0  0  0
  -23.9257  -11.1149   27.2257 O   0  0  0  0  0  0  0  0  0  0  0  0
  -28.2603  -26.8789   20.3125 O   0  0  0  0  0  0  0  0  0  1  0  0
  -19.3714   -8.2599   28.4554 F   0  0  0  0  0  0  0  0  0  0  0  0
  -26.8835  -21.1982   20.0548 F   0  0  0  0  0  0  0  0  0  0  0  0
  -24.0818   -8.7097   28.5798 F   0  0  0  0  0  0  0  0  0  0  0  0
  1  2  1  0  0  0  0
  1  5  2  0  0  0  0
  2  6  2  0  0  0  0
  3 10  2  0  0  0  0
  3 18  1  0  0  0  0
  4 11  1  0  0  0  0
  4 18  2  0  0  0  0
  5 20  1  0  0  0  0
  6 22  1  0  0  0  0
  7 12  2  0  0  0  0
  7 21  1  0  0  0  0
  8  9  2  0  0  0  0
  8 24  1  0  0  0  0
  9 25  1  0  0  0  0
 10 26  1  0  0  0  0
 11 26  2  0  0  0  0
 12 27  1  0  0  0  0
 13 14  2  0  0  0  0
 13 28  1  0  0  0  0
 14 29  1  0  0  0  0
 15 23  1  0  0  0  0
 15 27  2  0  0  0  0
 16 25  2  0  0  0  0
 16 30  1  0  0  0  0
 17 29  2  0  0  0  0
 17 31  1  0  0  0  0
 18 32  1  0  0  0  0
 19 32  1  0  0  0  0
 19 33  2  0  0  0  0
 19 36  1  0  0  0  0
 20 22  2  0  0  0  0
 20 41  1  0  0  0  0
 21 23  2  0  0  0  0
 21 42  1  0  0  0  0
 22 53  1  0  0  0  0
 23 43  1  0  0  0  0
 24 30  2  0  0  0  0
 24 67  1  0  0  0  0
 25 72  1  0  0  0  0
 26 81  1  0  0  0  0
 27 82  1  0  0  0  0
 28 31  2  0  0  0  0
 28 81  1  0  0  0  0
 29 83  1  0  0  0  0
 30 84  1  0  0  0  0
 31 85  1  0  0  0  0
 32 65  2  0  0  0  0
 33 66  1  0  0  0  0
 33 70  1  0  0  0  0
 34 35  2  0  0  0  0
 34 44  1  0  0  0  0
 35 45  1  0  0  0  0
 35 61  1  0  0  0  0
 36 71  1  0  0  0  0
 36 76  2  0  0  0  0
 37 54  1  0  0  0  0
 37 73  1  0  0  0  0
 37 77  2  0  0  0  0
 38 62  1  0  0  0  0
 38 68  1  0  0  0  0
 38 78  2  0  0  0  0
 39 63  1  0  0  0  0
 39 74  1  0  0  0  0
 39 79  2  0  0  0  0
 40 69  1  0  0  0  0
 40 72  1  0  0  0  0
 40 80  2  0  0  0  0
 41 46  1  0  0  0  0
 42 54  1  0  0  0  0
 43 68  1  0  0  0  0
 44 67  1  0  0  0  0
 45 50  1  0  0  0  0
 46 48  1  0  0  0  0
 47 49  1  0  0  0  0
 47 51  1  0  0  0  0
 48 53  1  0  0  0  0
 49 55  1  0  0  0  0
 50 67  1  0  0  0  0
 51 69  1  0  0  0  0
 52 55  1  0  0  0  0
 52 69  1  0  0  0  0
 53 73  1  0  0  0  0
 54 68  1  0  0  0  0
 55 66  1  0  0  0  0
 56 63  1  0  0  0  0
 57 64  1  0  0  0  0
 58 64  1  0  0  0  0
 59 64  1  0  0  0  0
 60 75  1  0  0  0  0
 61 82  1  0  0  0  0
 62 64  1  0  0  0  0
 62 74  1  0  0  0  0
 63 75  1  0  0  0  0
 65 66  1  0  0  0  0
M  CHG  1  75   1
M  ISO  4  40 100  61 101  72 100  82 101
M  END
> <Batch ID>
0087

> <Smiles>
CNC(C)C(=O)NC(C(=O)N1Cc2cc([101O:1][101CH2:1]C3=CCN(c4ccc([100NH:0][100C:0](=O)N5CCCC(n6nc(-c7ccc(Oc8ccc(F)cc8F)cc7)c(C(N)=O)c6N)C5)cc4F)CC3)ccc2CC1C(=O)NC1CCCc2ccccc21)C(C)(C)C

> <Shape>
0.311

> <Color>
0.092

> <Negative vol penalty>
0.000

$$$$

  -OEChem-04052300203D

 84 93  0     1  0  0  0  0  0999 V2000
  -27.3341  -37.7069   23.9876 C   0  0  0  0  0  0  0  0  0  0  0  0
  -27.9373  -36.7668   23.1584 C   0  0  0  0  0  0  0  0  0  0  0  0
  -24.1630   -9.2402   22.0647 C   0  0  0  0  0  0  0  0  0  0  0  0
  -22.8923  -11.2091   21.4768 C   0  0  0  0  0  0  0  0  0  0  0  0
  -26.4219  -37.2953   24.9583 C   0  0  0  0  0  0  0  0  0  0  0  0
  -27.6294  -35.4142   23.3001 C   0  0  0  0  0  0  0  0  0  0  0  0
  -26.9360  -29.4132   19.4500 C   0  0  0  0  0  0  0  0  0  0  0  0
  -28.5332  -19.7600   19.8523 C   0  0  0  0  0  0  0  0  0  0  0  0
  -28.7962  -18.3984   19.7020 C   0  0  0  0  0  0  0  0  0  0  0  0
  -23.2690   -8.9728   23.1014 C   0  0  0  0  0  0  0  0  0  0  0  0
  -21.9982  -10.9417   22.5135 C   0  0  0  0  0  0  0  0  0  0  0  0
  -27.3835  -28.0930   19.4231 C   0  0  0  0  0  0  0  0  0  0  0  0
  -20.1833   -7.6341   23.4465 C   0  0  0  0  0  0  0  0  0  0  0  0
  -19.7373   -6.3209   23.5952 C   0  0  0  0  0  0  0  0  0  0  0  0
  -25.7331  -27.5063   21.0818 C   0  0  0  0  0  0  0  0  0  0  0  0
  -26.2709  -19.4082   19.0805 C   0  0  0  0  0  0  0  0  0  0  0  0
  -20.6693   -6.2567   25.8233 C   0  0  0  0  0  0  0  0  0  0  0  0
  -23.9747  -10.3585   21.2524 C   0  0  0  0  0  0  0  0  0  0  0  0
  -24.8162  -10.1853   18.8504 C   0  0  0  0  0  0  0  0  0  0  0  0
  -26.0953  -35.9380   25.1056 C   0  0  0  0  0  0  0  0  0  0  0  0
  -25.8893  -29.7927   20.3024 C   0  0  0  0  0  0  0  0  0  0  0  0
  -26.7129  -34.9838   24.2746 C   0  0  0  0  0  0  0  0  0  0  0  0
  -25.2725  -28.8313   21.1158 C   0  0  0  0  0  0  0  0  0  0  0  0
  -27.2705  -20.2649   19.5415 C   0  0  0  0  0  0  0  0  0  0  0  0
  -27.7966  -17.5417   19.2410 C   0  0  0  0  0  0  0  0  0  0  0  0
  -26.5339  -18.0466   18.9302 C   0  0  0  0  0  0  0  0  0  0  0  0
  -22.1866   -9.8235   23.3258 C   0  0  0  0  0  0  0  0  0  0  0  0
  -26.7839  -27.1399   20.2412 C   0  0  0  0  0  0  0  0  0  0  0  0
  -20.8724   -8.2586   24.4861 C   0  0  0  0  0  0  0  0  0  0  0  0
  -19.9802   -5.6322   24.7836 C   0  0  0  0  0  0  0  0  0  0  0  0
  -21.1153   -7.5699   25.6745 C   0  0  0  0  0  0  0  0  0  0  0  0
  -24.8983  -10.6356   20.1817 C   0  0  0  0  0  0  0  0  0  0  0  0
  -25.9242  -10.7188   18.2387 C   0  0  0  0  0  0  0  0  0  0  0  0
  -26.6461  -23.5712   19.8078 C   0  0  0  0  0  0  0  0  0  0  0  0
  -25.9028  -22.3568   19.4696 C   0  0  0  0  0  0  0  0  0  0  0  0
  -26.3272  -24.8770   19.8653 C   0  0  0  0  0  0  0  0  0  1  0  0
  -23.8269   -9.3589   18.2229 C   0  0  0  0  0  0  0  0  0  0  0  0
  -25.6022  -31.8107   22.7415 C   0  0  0  0  0  0  0  0  0  0  0  0
  -22.4654  -31.0126   22.5266 C   0  0  0  0  0  0  0  0  0  0  0  0
  -20.1139  -28.7452   21.5388 C   0  0  0  0  0  0  0  0  0  0  0  0
  -29.2958  -15.5212   19.3676 C   0  0  0  0  0  0  0  0  0  0  0  0
  -25.1391  -35.5361   26.2005 C   0  0  0  0  0  0  0  0  0  0  0  0
  -25.4005  -31.2152   20.3000 C   0  0  0  0  0  0  0  0  0  0  0  0
  -24.1316  -29.1833   22.0338 C   0  0  0  0  0  0  0  0  0  0  0  0
  -27.8728  -22.7211   20.0467 C   0  0  0  0  0  0  0  0  0  0  0  0
  -24.5849  -34.1231   26.0368 C   0  0  0  0  0  0  0  0  0  0  0  0
  -30.3996  -12.1414   19.1773 C   0  0  0  0  0  0  0  0  0  0  0  0
  -25.7073  -33.1444   25.7067 C   0  0  0  0  0  0  0  0  0  0  0  0
  -29.1060  -11.3309   19.2860 C   0  0  0  0  0  0  0  0  0  0  0  0
  -30.3642  -13.3873   20.0606 C   0  0  0  0  0  0  0  0  0  0  0  0
  -27.9029  -13.4450   19.9716 C   0  0  0  0  0  0  0  0  0  0  0  0
  -26.3861  -33.5101   24.3811 C   0  0  1  0  0  0  0  0  0  0  0  0
  -24.6692  -31.5979   21.5830 C   0  0  1  0  0  0  0  0  0  0  0  0
  -27.8656  -12.2149   19.0502 C   0  0  2  0  0  0  0  0  0  0  0  0
  -17.6351  -28.3542   21.5315 C   0  0  0  0  0  0  0  0  0  0  0  0
  -22.5704  -30.3078   25.4934 C   0  0  0  0  0  0  0  0  0  0  0  0
  -20.4186  -29.0617   25.2022 C   0  0  0  0  0  0  0  0  0  0  0  0
  -20.5015  -31.5191   24.7816 C   0  0  0  0  0  0  0  0  0  0  0  0
  -20.0198  -28.6545   18.5821 C   0  0  0  0  0  0  0  0  0  0  0  0
  -21.5907  -29.9420   23.1328 C   0  0  1  0  0  0  0  0  0  0  0  0
  -18.8218  -28.9089   20.7590 C   0  0  2  0  0  0  0  0  0  0  0  0
  -21.2931  -30.2011   24.6367 C   0  0  0  0  0  0  0  0  0  0  0  0
  -25.9735  -11.3963   20.4034 N   0  0  0  0  0  0  0  0  0  0  0  0
  -26.5773  -11.4282   19.2032 N   0  0  0  0  0  0  0  0  0  0  0  0
  -27.0114  -21.6077   19.6900 N   0  0  0  0  0  0  0  0  0  0  0  0
  -23.6938  -30.5886   22.0002 N   0  0  0  0  0  0  0  0  0  0  0  0
  -29.1640  -14.1779   19.7789 N   0  0  0  0  0  0  0  0  0  0  0  0
  -25.5068  -17.1966   18.4620 N   0  0  0  0  0  0  0  0  0  0  0  0
  -26.3939  -10.6454   16.9751 N   0  0  0  0  0  0  0  0  0  0  0  0
  -22.7538   -8.8966   18.9969 N   0  0  0  0  0  0  0  0  0  0  0  0
  -28.0875  -16.1625   19.0969 N   0  0  0  0  0  0  0  0  0  0  0  0
  -25.5695  -33.0901   23.2625 N   0  0  0  0  0  0  0  0  0  0  0  0
  -20.4004  -29.8633   22.2930 N   0  0  0  0  0  0  0  0  0  0  0  0
  -18.9096  -28.1931   19.4548 N   0  3  0  0  0  0  0  0  0  0  0  0
  -24.7664  -22.1133   19.1208 O   0  0  0  0  0  0  0  0  0  0  0  0
  -23.9012   -9.0263   17.0157 O   0  0  0  0  0  0  0  0  0  0  0  0
  -26.2990  -30.8824   23.1345 O   0  0  0  0  0  0  0  0  0  0  0  0
  -22.0701  -32.1811   22.5139 O   0  0  0  0  0  0  0  0  0  0  0  0
  -20.7986  -27.7258   21.4870 O   0  0  0  0  0  0  0  0  0  0  0  0
  -30.4006  -16.0545   19.2370 O   0  0  0  0  0  0  0  0  0  0  0  0
  -21.3139   -9.5626   24.3372 O   0  0  0  0  0  0  0  0  0  0  0  0
  -27.2191  -25.8508   20.2175 O   0  0  0  0  0  0  0  0  0  1  0  0
  -19.5505   -4.3716   24.9269 F   0  0  0  0  0  0  0  0  0  0  0  0
  -21.7758   -8.1650   26.6773 F   0  0  0  0  0  0  0  0  0  0  0  0
  1  2  1  0  0  0  0
  1  5  2  0  0  0  0
  2  6  2  0  0  0  0
  3 10  2  0  0  0  0
  3 18  1  0  0  0  0
  4 11  1  0  0  0  0
  4 18  2  0  0  0  0
  5 20  1  0  0  0  0
  6 22  1  0  0  0  0
  7 12  2  0  0  0  0
  7 21  1  0  0  0  0
  8  9  2  0  0  0  0
  8 24  1  0  0  0  0
  9 25  1  0  0  0  0
 10 27  1  0  0  0  0
 11 27  2  0  0  0  0
 12 28  1  0  0  0  0
 13 14  2  0  0  0  0
 13 29  1  0  0  0  0
 14 30  1  0  0  0  0
 15 23  1  0  0  0  0
 15 28  2  0  0  0  0
 16 24  2  0  0  0  0
 16 26  1  0  0  0  0
 17 30  2  0  0  0  0
 17 31  1  0  0  0  0
 18 32  1  0  0  0  0
 19 32  1  0  0  0  0
 19 33  2  0  0  0  0
 19 37  1  0  0  0  0
 20 22  2  0  0  0  0
 20 42  1  0  0  0  0
 21 23  2  0  0  0  0
 21 43  1  0  0  0  0
 22 52  1  0  0  0  0
 23 44  1  0  0  0  0
 24 65  1  0  0  0  0
 25 26  2  0  0  0  0
 25 71  1  0  0  0  0
 26 68  1  0  0  0  0
 27 81  1  0  0  0  0
 28 82  1  0  0  0  0
 29 31  2  0  0  0  0
 29 81  1  0  0  0  0
 30 83  1  0  0  0  0
 31 84  1  0  0  0  0
 32 63  2  0  0  0  0
 33 64  1  0  0  0  0
 33 69  1  0  0  0  0
 34 35  1  0  0  0  0
 34 36  2  0  0  0  0
 34 45  1  0  0  0  0
 35 65  1  0  0  0  0
 35 75  2  0  0  0  0
 36 82  1  0  0  0  0
 37 70  1  0  0  0  0
 37 76  2  0  0  0  0
 38 53  1  0  0  0  0
 38 72  1  0  0  0  0
 38 77  2  0  0  0  0
 39 60  1  0  0  0  0
 39 66  1  0  0  0  0
 39 78  2  0  0  0  0
 40 61  1  0  0  0  0
 40 73  1  0  0  0  0
 40 79  2  0  0  0  0
 41 67  1  0  0  0  0
 41 71  1  0  0  0  0
 41 80  2  0  0  0  0
 42 46  1  0  0  0  0
 43 53  1  0  0  0  0
 44 66  1  0  0  0  0
 45 65  1  0  0  0  0
 46 48  1  0  0  0  0
 47 49  1  0  0  0  0
 47 50  1  0  0  0  0
 48 52  1  0  0  0  0
 49 54  1  0  0  0  0
 50 67  1  0  0  0  0
 51 54  1  0  0  0  0
 51 67  1  0  0  0  0
 52 72  1  0  0  0  0
 53 66  1  0  0  0  0
 54 64  1  0  0  0  0
 55 61  1  0  0  0  0
 56 62  1  0  0  0  0
 57 62  1  0  0  0  0
 58 62  1  0  0  0  0
 59 74  1  0  0  0  0
 60 62  1  0  0  0  0
 60 73  1  0  0  0  0
 61 74  1  0  0  0  0
 63 64  1  0  0  0  0
M  CHG  1  74   1
M  ISO  4  36 101  41 100  71 100  82 101
M  END
> <Batch ID>
0087

> <Smiles>
CNC(C)C(=O)NC(C(=O)N1Cc2cc([101O:1][101CH:1]=C3CN(c4ccc([100NH:0][100C:0](=O)N5CCCC(n6nc(-c7ccc(Oc8ccc(F)cc8F)cc7)c(C(N)=O)c6N)C5)c(N)c4)C3=O)ccc2CC1C(=O)NC1CCCc2ccccc21)C(C)(C)C

> <Shape>
0.290

> <Color>
0.084

> <Negative vol penalty>
0.000

$$$$

  -OEChem-04052300203D

 85 94  0     1  0  0  0  0  0999 V2000
  -18.5394  -31.3645   20.6972 C   0  0  0  0  0  0  0  0  0  0  0  0
  -19.6661  -30.5507   20.6359 C   0  0  0  0  0  0  0  0  0  0  0  0
  -32.3291  -18.6422   21.6819 C   0  0  0  0  0  0  0  0  0  0  0  0
  -23.0963   -9.8737   21.5207 C   0  0  0  0  0  0  0  0  0  0  0  0
  -23.7097  -10.9440   23.5981 C   0  0  0  0  0  0  0  0  0  0  0  0
  -17.5962  -31.1722   21.7058 C   0  0  0  0  0  0  0  0  0  0  0  0
  -19.8508  -29.5449   21.5838 C   0  0  0  0  0  0  0  0  0  0  0  0
  -22.4263  -24.0625   20.6803 C   0  0  0  0  0  0  0  0  0  0  0  0
  -31.4759  -19.7205   21.9160 C   0  0  0  0  0  0  0  0  0  0  0  0
  -31.8093  -17.4232   21.2464 C   0  0  0  0  0  0  0  0  0  0  0  0
  -22.3538   -8.9277   22.2273 C   0  0  0  0  0  0  0  0  0  0  0  0
  -22.9671   -9.9980   24.3047 C   0  0  0  0  0  0  0  0  0  0  0  0
  -23.7100  -23.5773   20.9260 C   0  0  0  0  0  0  0  0  0  0  0  0
  -22.9513   -6.1224   24.0155 C   0  0  0  0  0  0  0  0  0  0  0  0
  -23.0912   -4.7840   23.6486 C   0  0  0  0  0  0  0  0  0  0  0  0
  -22.9591  -22.6749   23.0334 C   0  0  0  0  0  0  0  0  0  0  0  0
  -28.3917  -22.5319   22.7844 C   0  0  0  0  0  0  0  0  0  0  0  0
  -20.7316   -4.6767   23.1406 C   0  0  0  0  0  0  0  0  0  0  0  0
  -28.0733  -20.8809   21.2869 C   0  0  0  0  0  0  0  0  0  0  0  0
  -23.7743  -10.8818   22.2061 C   0  0  0  0  0  0  0  0  0  0  0  0
  -24.0889  -13.0937   20.9747 C   0  0  0  0  0  0  0  0  0  0  0  0
  -17.7645  -30.1573   22.6609 C   0  0  0  0  0  0  0  0  0  0  0  0
  -21.4002  -23.8667   21.6159 C   0  0  0  0  0  0  0  0  0  0  0  0
  -18.9095  -29.3397   22.6069 C   0  0  0  0  0  0  0  0  0  0  0  0
  -21.6626  -23.1564   22.7961 C   0  0  0  0  0  0  0  0  0  0  0  0
  -27.5166  -22.0378   21.7859 C   0  0  0  0  0  0  0  0  0  0  0  0
  -30.1028  -19.5799   21.7146 C   0  0  0  0  0  0  0  0  0  0  0  0
  -30.4362  -17.2826   21.0451 C   0  0  0  0  0  0  0  0  0  0  0  0
  -22.2891   -8.9898   23.6193 C   0  0  0  0  0  0  0  0  0  0  0  0
  -23.9773  -22.8859   22.1040 C   0  0  0  0  0  0  0  0  0  0  0  0
  -21.7015   -6.7380   23.9451 C   0  0  0  0  0  0  0  0  0  0  0  0
  -21.9814   -4.0612   23.2110 C   0  0  0  0  0  0  0  0  0  0  0  0
  -20.5917   -6.0151   23.5076 C   0  0  0  0  0  0  0  0  0  0  0  0
  -29.5830  -18.3610   21.2792 C   0  0  0  0  0  0  0  0  0  0  0  0
  -24.5420  -11.8590   21.4768 C   0  0  0  0  0  0  0  0  0  0  0  0
  -25.1916  -13.6427   20.3672 C   0  0  0  0  0  0  0  0  0  0  0  0
  -29.4567  -21.6620   22.8651 C   0  0  0  0  0  0  0  0  0  0  0  0
  -22.7877  -13.6909   21.0507 C   0  0  0  0  0  0  0  0  0  0  0  0
  -19.5634  -25.7829   23.3647 C   0  0  0  0  0  0  0  0  0  0  0  0
  -18.0926  -23.0032   24.1599 C   0  0  0  0  0  0  0  0  0  0  0  0
  -18.2836  -19.6100   24.4703 C   0  0  0  0  0  0  0  0  0  0  0  0
  -30.6212  -14.8757   20.3246 C   0  0  0  0  0  0  0  0  0  0  0  0
  -16.7416  -30.0183   23.7604 C   0  0  0  0  0  0  0  0  0  0  0  0
  -20.0143  -24.3731   21.3238 C   0  0  0  0  0  0  0  0  0  0  0  0
  -20.5910  -22.9019   23.8233 C   0  0  0  0  0  0  0  0  0  0  0  0
  -16.8239  -28.6877   24.5042 C   0  0  0  0  0  0  0  0  0  0  0  0
  -29.6913  -11.6108   19.2510 C   0  0  0  0  0  0  0  0  0  0  0  0
  -18.2711  -28.3652   24.8626 C   0  0  0  0  0  0  0  0  0  0  0  0
  -28.2315  -11.4859   19.6930 C   0  0  0  0  0  0  0  0  0  0  0  0
  -30.5255  -12.3934   20.2636 C   0  0  0  0  0  0  0  0  0  0  0  0
  -28.5256  -13.5844   21.0703 C   0  0  0  0  0  0  0  0  0  0  0  0
  -19.1328  -28.2219   23.6023 C   0  0  1  0  0  0  0  0  0  0  0  0
  -19.1704  -24.5630   22.5804 C   0  0  1  0  0  0  0  0  0  0  0  0
  -27.6315  -12.8598   20.0509 C   0  0  2  0  0  0  0  0  0  0  0  0
  -16.9330  -17.6177   25.1804 C   0  0  0  0  0  0  0  0  0  0  0  0
  -18.5183  -23.7602   27.0849 C   0  0  0  0  0  0  0  0  0  0  0  0
  -18.0391  -21.3806   27.6981 C   0  0  0  0  0  0  0  0  0  0  0  0
  -16.2835  -22.7569   26.5817 C   0  0  0  0  0  0  0  0  0  0  0  0
  -18.4584  -18.3873   21.7808 C   0  0  0  0  0  0  0  0  0  0  0  0
  -26.2217  -22.6587   21.3510 C   0  0  0  0  0  0  0  0  0  1  0  0
  -18.2775  -21.9675   25.2426 C   0  0  1  0  0  0  0  0  0  0  0  0
  -17.3497  -18.5028   24.0160 C   0  0  2  0  0  0  0  0  0  0  0  0
  -17.8005  -22.4726   26.6335 C   0  0  0  0  0  0  0  0  0  0  0  0
  -25.8319  -11.6364   21.2112 N   0  0  0  0  0  0  0  0  0  0  0  0
  -29.2526  -20.6625   21.9500 N   0  0  0  0  0  0  0  0  0  0  0  0
  -26.1988  -12.7386   20.5355 N   0  0  0  0  0  0  0  0  0  0  0  0
  -19.2536  -23.4224   23.4948 N   0  0  0  0  0  0  0  0  0  0  0  0
  -29.8984  -13.6853   20.5508 N   0  0  0  0  0  0  0  0  0  0  0  0
  -25.3882  -14.8058   19.7107 N   0  0  0  0  0  0  0  0  0  0  0  0
  -21.7688  -12.9909   21.7112 N   0  0  0  0  0  0  0  0  0  0  0  0
  -29.9111  -16.0432   20.6027 N   0  0  0  0  0  0  0  0  0  0  0  0
  -18.9065  -26.9357   22.9788 N   0  0  0  0  0  0  0  0  0  0  0  0
  -17.5954  -20.7647   24.7775 N   0  0  0  0  0  0  0  0  0  0  0  0
  -18.0171  -17.6496   22.9925 N   0  3  0  0  0  0  0  0  0  0  0  0
  -22.5317  -14.8046   20.5334 O   0  0  0  0  0  0  0  0  0  0  0  0
  -20.3997  -25.6852   24.2551 O   0  0  0  0  0  0  0  0  0  0  0  0
  -16.9590  -23.4196   23.9086 O   0  0  0  0  0  0  0  0  0  0  0  0
  -19.5014  -19.4639   24.5486 O   0  0  0  0  0  0  0  0  0  0  0  0
  -31.7752  -14.8614   19.8887 O   0  0  0  0  0  0  0  0  0  0  0  0
  -30.5330  -21.6867   23.6418 O   0  0  0  0  0  0  0  0  0  0  0  0
  -21.5644   -8.0670   24.3091 O   0  0  0  0  0  0  0  0  0  0  0  0
  -25.2296  -22.4118   22.3466 O   0  0  0  0  0  0  0  0  0  1  0  0
  -22.1162   -2.7763   22.8572 F   0  0  0  0  0  0  0  0  0  0  0  0
  -19.3888   -6.6014   23.4367 F   0  0  0  0  0  0  0  0  0  0  0  0
  -28.2621  -18.2237   21.0842 F   0  0  0  0  0  0  0  0  0  0  0  0
  1  2  1  0  0  0  0
  1  6  2  0  0  0  0
  2  7  2  0  0  0  0
  3  9  2  0  0  0  0
  3 10  1  0  0  0  0
  4 11  2  0  0  0  0
  4 20  1  0  0  0  0
  5 12  1  0  0  0  0
  5 20  2  0  0  0  0
  6 22  1  0  0  0  0
  7 24  1  0  0  0  0
  8 13  2  0  0  0  0
  8 23  1  0  0  0  0
  9 27  1  0  0  0  0
 10 28  2  0  0  0  0
 11 29  1  0  0  0  0
 12 29  2  0  0  0  0
 13 30  1  0  0  0  0
 14 15  2  0  0  0  0
 14 31  1  0  0  0  0
 15 32  1  0  0  0  0
 16 25  1  0  0  0  0
 16 30  2  0  0  0  0
 17 26  1  0  0  0  0
 17 37  2  0  0  0  0
 18 32  2  0  0  0  0
 18 33  1  0  0  0  0
 19 26  2  0  0  0  0
 19 65  1  0  0  0  0
 20 35  1  0  0  0  0
 21 35  1  0  0  0  0
 21 36  2  0  0  0  0
 21 38  1  0  0  0  0
 22 24  2  0  0  0  0
 22 43  1  0  0  0  0
 23 25  2  0  0  0  0
 23 44  1  0  0  0  0
 24 52  1  0  0  0  0
 25 45  1  0  0  0  0
 26 60  1  0  0  0  0
 27 34  2  0  0  0  0
 27 65  1  0  0  0  0
 28 34  1  0  0  0  0
 28 71  1  0  0  0  0
 29 81  1  0  0  0  0
 30 82  1  0  0  0  0
 31 33  2  0  0  0  0
 31 81  1  0  0  0  0
 32 83  1  0  0  0  0
 33 84  1  0  0  0  0
 34 85  1  0  0  0  0
 35 64  2  0  0  0  0
 36 66  1  0  0  0  0
 36 69  1  0  0  0  0
 37 65  1  0  0  0  0
 37 80  1  0  0  0  0
 38 70  1  0  0  0  0
 38 75  2  0  0  0  0
 39 53  1  0  0  0  0
 39 72  1  0  0  0  0
 39 76  2  0  0  0  0
 40 61  1  0  0  0  0
 40 67  1  0  0  0  0
 40 77  2  0  0  0  0
 41 62  1  0  0  0  0
 41 73  1  0  0  0  0
 41 78  2  0  0  0  0
 42 68  1  0  0  0  0
 42 71  1  0  0  0  0
 42 79  2  0  0  0  0
 43 46  1  0  0  0  0
 44 53  1  0  0  0  0
 45 67  1  0  0  0  0
 46 48  1  0  0  0  0
 47 49  1  0  0  0  0
 47 50  1  0  0  0  0
 48 52  1  0  0  0  0
 49 54  1  0  0  0  0
 50 68  1  0  0  0  0
 51 54  1  0  0  0  0
 51 68  1  0  0  0  0
 52 72  1  0  0  0  0
 53 67  1  0  0  0  0
 54 66  1  0  0  0  0
 55 62  1  0  0  0  0
 56 63  1  0  0  0  0
 57 63  1  0  0  0  0
 58 63  1  0  0  0  0
 59 74  1  0  0  0  0
 60 82  1  0  0  0  0
 61 63  1  0  0  0  0
 61 73  1  0  0  0  0
 62 74  1  0  0  0  0
 64 66  1  0  0  0  0
M  CHG  1  74   1
M  ISO  4  42 100  60 101  71 100  82 101
M  END
> <Batch ID>
0087

> <Smiles>
CNC(C)C(=O)NC(C(=O)N1Cc2cc([101O:1][101CH2:1]C3=CN(c4cccc([100NH:0][100C:0](=O)N5CCCC(n6nc(-c7ccc(Oc8ccc(F)cc8F)cc7)c(C(N)=O)c6N)C5)c4F)C(=O)C3)ccc2CC1C(=O)NC1CCCc2ccccc21)C(C)(C)C

> <Shape>
0.222

> <Color>
0.160

> <Negative vol penalty>
0.000

$$$$

  -OEChem-04052300203D

 82 90  0     1  0  0  0  0  0999 V2000
  -14.3740  -31.8358   14.1170 C   0  0  0  0  0  0  0  0  0  0  0  0
  -15.4405  -31.0750   13.6487 C   0  0  0  0  0  0  0  0  0  0  0  0
  -23.1743   -9.9627   19.8720 C   0  0  0  0  0  0  0  0  0  0  0  0
  -23.9293   -9.7638   22.1584 C   0  0  0  0  0  0  0  0  0  0  0  0
  -27.4332  -19.7818   16.9188 C   0  0  0  0  0  0  0  0  0  0  0  0
  -26.1732  -17.7525   16.5563 C   0  0  0  0  0  0  0  0  0  0  0  0
  -14.5217  -32.6055   15.2702 C   0  0  0  0  0  0  0  0  0  0  0  0
  -16.6556  -31.0843   14.3327 C   0  0  0  0  0  0  0  0  0  0  0  0
  -19.4985  -24.9943   16.9251 C   0  0  0  0  0  0  0  0  0  0  0  0
  -26.2673  -20.5326   16.7682 C   0  0  0  0  0  0  0  0  0  0  0  0
  -25.0073  -18.5033   16.4058 C   0  0  0  0  0  0  0  0  0  0  0  0
  -22.4694   -8.7660   20.0007 C   0  0  0  0  0  0  0  0  0  0  0  0
  -23.2242   -8.5672   22.2871 C   0  0  0  0  0  0  0  0  0  0  0  0
  -20.2103  -23.8442   17.2667 C   0  0  0  0  0  0  0  0  0  0  0  0
  -20.0237   -7.6053   22.7892 C   0  0  0  0  0  0  0  0  0  0  0  0
  -19.2663   -7.4223   23.9461 C   0  0  0  0  0  0  0  0  0  0  0  0
  -21.9819  -25.2035   18.1951 C   0  0  0  0  0  0  0  0  0  0  0  0
  -20.5711   -5.4630   24.4903 C   0  0  0  0  0  0  0  0  0  0  0  0
  -23.9044  -10.4616   20.9509 C   0  0  0  0  0  0  0  0  0  0  0  0
  -27.3861  -18.3917   16.8127 C   0  0  0  0  0  0  0  0  0  0  0  0
  -24.1610  -12.9960   21.0875 C   0  0  0  0  0  0  0  0  0  0  0  0
  -15.7362  -32.6167   15.9741 C   0  0  0  0  0  0  0  0  0  0  0  0
  -20.0192  -26.2546   17.2315 C   0  0  0  0  0  0  0  0  0  0  0  0
  -16.8200  -31.8559   15.4956 C   0  0  0  0  0  0  0  0  0  0  0  0
  -21.2676  -26.3588   17.8666 C   0  0  0  0  0  0  0  0  0  0  0  0
  -25.0544  -19.8934   16.5118 C   0  0  0  0  0  0  0  0  0  0  0  0
  -22.4943   -8.0683   21.2082 C   0  0  0  0  0  0  0  0  0  0  0  0
  -21.4490  -23.9486   17.8999 C   0  0  0  0  0  0  0  0  0  0  0  0
  -21.0547   -6.7171   22.4827 C   0  0  0  0  0  0  0  0  0  0  0  0
  -19.5400   -6.3512   24.7967 C   0  0  0  0  0  0  0  0  0  0  0  0
  -21.3284   -5.6460   23.3333 C   0  0  0  0  0  0  0  0  0  0  0  0
  -24.6333  -11.6974   20.8184 C   0  0  0  0  0  0  0  0  0  0  0  0
  -25.2279  -13.8143   20.8073 C   0  0  0  0  0  0  0  0  0  0  0  0
  -23.2105  -20.8721   17.4434 C   0  0  0  0  0  0  0  0  0  0  0  0
  -28.6278  -17.5922   16.9730 C   0  0  0  0  0  0  0  0  0  0  0  0
  -22.8730  -13.4242   21.5495 C   0  0  0  0  0  0  0  0  0  0  0  0
  -19.5541  -29.9758   17.1213 C   0  0  0  0  0  0  0  0  0  0  0  0
  -20.7767  -29.3113   19.8551 C   0  0  0  0  0  0  0  0  0  0  0  0
  -21.7291  -28.1197   22.9064 C   0  0  0  0  0  0  0  0  0  0  0  0
  -29.4793  -15.3568   17.6067 C   0  0  0  0  0  0  0  0  0  0  0  0
  -15.8629  -33.5012   17.1891 C   0  0  0  0  0  0  0  0  0  0  0  0
  -19.3157  -27.5216   16.8270 C   0  0  0  0  0  0  0  0  0  0  0  0
  -21.8046  -27.7360   18.1456 C   0  0  0  0  0  0  0  0  0  0  0  0
  -17.0663  -33.1635   18.0655 C   0  0  0  0  0  0  0  0  0  0  0  0
  -30.0779  -12.7014   19.8623 C   0  0  0  0  0  0  0  0  0  0  0  0
  -18.3160  -32.9827   17.2097 C   0  0  0  0  0  0  0  0  0  0  0  0
  -28.6769  -12.3129   20.3426 C   0  0  0  0  0  0  0  0  0  0  0  0
  -30.0852  -13.0814   18.3823 C   0  0  0  0  0  0  0  0  0  0  0  0
  -27.7079  -13.7120   18.4752 C   0  0  0  0  0  0  0  0  0  0  0  0
  -18.1461  -31.8205   16.2238 C   0  0  1  0  0  0  0  0  0  0  0  0
  -19.4948  -28.6626   17.8446 C   0  0  1  0  0  0  0  0  0  0  0  0
  -27.6348  -13.3886   19.9763 C   0  0  1  0  0  0  0  0  0  0  0  0
  -22.3602  -28.8864   25.2110 C   0  0  0  0  0  0  0  0  0  0  0  0
  -23.5130  -30.1697   18.8161 C   0  0  0  0  0  0  0  0  0  0  0  0
  -24.3756  -30.0071   21.1609 C   0  0  0  0  0  0  0  0  0  0  0  0
  -22.5699  -31.6371   20.6082 C   0  0  0  0  0  0  0  0  0  0  0  0
  -19.4704  -26.6564   24.1377 C   0  0  0  0  0  0  0  0  0  0  0  0
  -21.9447  -21.6750   17.4071 C   0  0  0  0  0  0  0  0  0  1  0  0
  -22.0317  -29.1678   20.6783 C   0  0  1  0  0  0  0  0  0  0  0  0
  -21.2286  -28.4224   24.3073 C   0  0  2  0  0  0  0  0  0  0  0  0
  -23.1103  -30.2230   20.3034 C   0  0  0  0  0  0  0  0  0  0  0  0
  -25.9014  -11.6865   20.3993 N   0  0  0  0  0  0  0  0  0  0  0  0
  -23.8799  -20.6497   16.3599 N   0  0  0  0  0  0  0  0  0  0  0  0
  -26.2350  -12.9883   20.4028 N   0  0  0  0  0  0  0  0  0  0  0  0
  -20.7274  -28.6029   18.6484 N   0  0  0  0  0  0  0  0  0  0  0  0
  -29.0781  -14.1111   18.1200 N   0  0  0  0  0  0  0  0  0  0  0  0
  -25.3933  -15.1526   20.8698 N   0  0  0  0  0  0  0  0  0  0  0  0
  -21.8917  -12.4524   21.7882 N   0  0  0  0  0  0  0  0  0  0  0  0
  -28.4485  -16.2867   17.4312 N   0  0  0  0  0  0  0  0  0  0  0  0
  -18.3182  -30.5535   16.9016 N   0  0  0  0  0  0  0  0  0  0  0  0
  -21.6114  -29.2131   22.0747 N   0  0  0  0  0  0  0  0  0  0  0  0
  -20.6129  -27.2070   24.9113 N   0  3  0  0  0  0  0  0  0  0  0  0
  -29.7058  -18.0935   16.6655 O   0  0  0  0  0  0  0  0  0  0  0  0
  -22.5952  -14.6342   21.7292 O   0  0  0  0  0  0  0  0  0  0  0  0
  -20.6409  -30.4334   16.7878 O   0  0  0  0  0  0  0  0  0  0  0  0
  -19.8656  -30.0355   20.2657 O   0  0  0  0  0  0  0  0  0  0  0  0
  -22.1827  -27.0241   22.5834 O   0  0  0  0  0  0  0  0  0  0  0  0
  -30.6584  -15.6310   17.3618 O   0  0  0  0  0  0  0  0  0  0  0  0
  -21.8062   -6.9007   21.3342 O   0  0  0  0  0  0  0  0  0  0  0  0
  -22.1366  -22.8216   18.2347 O   0  0  0  0  0  0  0  0  0  1  0  0
  -18.8136   -6.1764   25.9084 F   0  0  0  0  0  0  0  0  0  0  0  0
  -22.3184   -4.7902   23.0448 F   0  0  0  0  0  0  0  0  0  0  0  0
  1  2  1  0  0  0  0
  1  7  2  0  0  0  0
  2  8  2  0  0  0  0
  3 12  2  0  0  0  0
  3 19  1  0  0  0  0
  4 13  1  0  0  0  0
  4 19  2  0  0  0  0
  5 10  2  0  0  0  0
  5 20  1  0  0  0  0
  6 11  1  0  0  0  0
  6 20  2  0  0  0  0
  7 22  1  0  0  0  0
  8 24  1  0  0  0  0
  9 14  2  0  0  0  0
  9 23  1  0  0  0  0
 10 26  1  0  0  0  0
 11 26  2  0  0  0  0
 12 27  1  0  0  0  0
 13 27  2  0  0  0  0
 14 28  1  0  0  0  0
 15 16  2  0  0  0  0
 15 29  1  0  0  0  0
 16 30  1  0  0  0  0
 17 25  1  0  0  0  0
 17 28  2  0  0  0  0
 18 30  2  0  0  0  0
 18 31  1  0  0  0  0
 19 32  1  0  0  0  0
 20 35  1  0  0  0  0
 21 32  1  0  0  0  0
 21 33  2  0  0  0  0
 21 36  1  0  0  0  0
 22 24  2  0  0  0  0
 22 41  1  0  0  0  0
 23 25  2  0  0  0  0
 23 42  1  0  0  0  0
 24 50  1  0  0  0  0
 25 43  1  0  0  0  0
 26 63  1  0  0  0  0
 27 79  1  0  0  0  0
 28 80  1  0  0  0  0
 29 31  2  0  0  0  0
 29 79  1  0  0  0  0
 30 81  1  0  0  0  0
 31 82  1  0  0  0  0
 32 62  2  0  0  0  0
 33 64  1  0  0  0  0
 33 67  1  0  0  0  0
 34 58  1  0  0  0  0
 34 63  2  0  0  0  0
 35 69  1  0  0  0  0
 35 73  2  0  0  0  0
 36 68  1  0  0  0  0
 36 74  2  0  0  0  0
 37 51  1  0  0  0  0
 37 70  1  0  0  0  0
 37 75  2  0  0  0  0
 38 59  1  0  0  0  0
 38 65  1  0  0  0  0
 38 76  2  0  0  0  0
 39 60  1  0  0  0  0
 39 71  1  0  0  0  0
 39 77  2  0  0  0  0
 40 66  1  0  0  0  0
 40 69  1  0  0  0  0
 40 78  2  0  0  0  0
 41 44  1  0  0  0  0
 42 51  1  0  0  0  0
 43 65  1  0  0  0  0
 44 46  1  0  0  0  0
 45 47  1  0  0  0  0
 45 48  1  0  0  0  0
 46 50  1  0  0  0  0
 47 52  1  0  0  0  0
 48 66  1  0  0  0  0
 49 52  1  0  0  0  0
 49 66  1  0  0  0  0
 50 70  1  0  0  0  0
 51 65  1  0  0  0  0
 52 64  1  0  0  0  0
 53 60  1  0  0  0  0
 54 61  1  0  0  0  0
 55 61  1  0  0  0  0
 56 61  1  0  0  0  0
 57 72  1  0  0  0  0
 58 80  1  0  0  0  0
 59 61  1  0  0  0  0
 59 71  1  0  0  0  0
 60 72  1  0  0  0  0
 62 64  1  0  0  0  0
M  CHG  1  72   1
M  ISO  4  40 100  58 101  69 100  80 101
M  END
> <Batch ID>
0087

> <Smiles>
CNC(C)C(=O)NC(C(=O)N1Cc2cc([101O:1][101CH:1]=CNc3ccc(C(=O)[100NH:0][100C:0](=O)N4CCCC(n5nc(-c6ccc(Oc7ccc(F)cc7F)cc6)c(C(N)=O)c5N)C4)cc3)ccc2CC1C(=O)NC1CCCc2ccccc21)C(C)(C)C

> <Shape>
0.195

> <Color>
0.172

> <Negative vol penalty>
0.000

$$$$

  -OEChem-04052300203D

 84 93  0     1  0  0  0  0  0999 V2000
  -17.1784  -30.1962   19.5970 C   0  0  0  0  0  0  0  0  0  0  0  0
  -18.0225  -29.0904   19.6086 C   0  0  0  0  0  0  0  0  0  0  0  0
  -22.9105  -10.0981   20.0195 C   0  0  0  0  0  0  0  0  0  0  0  0
  -23.7390  -10.0125   22.2874 C   0  0  0  0  0  0  0  0  0  0  0  0
  -17.5452  -31.3590   20.2732 C   0  0  0  0  0  0  0  0  0  0  0  0
  -19.2347  -29.1473   20.2956 C   0  0  0  0  0  0  0  0  0  0  0  0
  -21.9855  -24.5698   23.2931 C   0  0  0  0  0  0  0  0  0  0  0  0
  -22.0773   -9.0110   20.2828 C   0  0  0  0  0  0  0  0  0  0  0  0
  -22.9057   -8.9253   22.5508 C   0  0  0  0  0  0  0  0  0  0  0  0
  -23.0178  -23.7026   22.9380 C   0  0  0  0  0  0  0  0  0  0  0  0
  -19.6406   -8.4034   23.2490 C   0  0  0  0  0  0  0  0  0  0  0  0
  -18.9198   -8.4156   24.4430 C   0  0  0  0  0  0  0  0  0  0  0  0
  -24.6016  -25.1414   24.0518 C   0  0  0  0  0  0  0  0  0  0  0  0
  -29.4793  -18.3363   24.4791 C   0  0  0  0  0  0  0  0  0  0  0  0
  -20.0102   -6.3694   25.1222 C   0  0  0  0  0  0  0  0  0  0  0  0
  -23.7414  -10.5989   21.0218 C   0  0  0  0  0  0  0  0  0  0  0  0
  -24.2978  -13.0861   20.9134 C   0  0  0  0  0  0  0  0  0  0  0  0
  -18.7580  -31.4268   20.9769 C   0  0  0  0  0  0  0  0  0  0  0  0
  -22.2554  -25.7368   24.0222 C   0  0  0  0  0  0  0  0  0  0  0  0
  -19.6187  -30.3125   20.9807 C   0  0  0  0  0  0  0  0  0  0  0  0
  -23.5706  -26.0204   24.4172 C   0  0  0  0  0  0  0  0  0  0  0  0
  -30.2184  -17.2165   23.9995 C   0  0  0  0  0  0  0  0  0  0  0  0
  -22.0748   -8.4246   21.5484 C   0  0  0  0  0  0  0  0  0  0  0  0
  -24.3265  -23.9898   23.3148 C   0  0  0  0  0  0  0  0  0  0  0  0
  -20.5462   -7.3742   22.9914 C   0  0  0  0  0  0  0  0  0  0  0  0
  -19.1046   -7.3987   25.3797 C   0  0  0  0  0  0  0  0  0  0  0  0
  -20.7310   -6.3572   23.9280 C   0  0  0  0  0  0  0  0  0  0  0  0
  -24.6029  -11.7215   20.7502 C   0  0  0  0  0  0  0  0  0  0  0  0
  -30.5339  -17.3383   22.6641 C   0  0  0  0  0  0  0  0  0  0  0  0
  -25.4392  -13.7423   20.5221 C   0  0  0  0  0  0  0  0  0  0  0  0
  -29.2581  -19.2714   23.4919 C   0  0  0  0  0  0  0  0  0  0  0  0
  -27.0804  -21.7351   23.7481 C   0  0  0  0  0  0  0  0  0  0  0  0
  -28.0055  -21.0031   24.6142 C   0  0  0  0  0  0  0  0  0  0  0  0
  -26.0701  -22.5757   23.9709 C   0  0  0  0  0  0  0  0  0  1  0  0
  -23.0907  -13.7052   21.3773 C   0  0  0  0  0  0  0  0  0  0  0  0
  -21.9152  -28.8502   23.4789 C   0  0  0  0  0  0  0  0  0  0  0  0
  -22.8538  -29.0965   26.5741 C   0  0  0  0  0  0  0  0  0  0  0  0
  -24.5072  -27.7120   29.2192 C   0  0  0  0  0  0  0  0  0  0  0  0
  -30.9941  -14.2798   20.5443 C   0  0  0  0  0  0  0  0  0  0  0  0
  -19.1333  -32.7214   21.6534 C   0  0  0  0  0  0  0  0  0  0  0  0
  -21.1272  -26.6483   24.4205 C   0  0  0  0  0  0  0  0  0  0  0  0
  -23.9105  -27.2499   25.2180 C   0  0  0  0  0  0  0  0  0  0  0  0
  -27.7617  -21.1205   22.5469 C   0  0  0  0  0  0  0  0  0  0  0  0
  -20.2627  -32.5725   22.6696 C   0  0  0  0  0  0  0  0  0  0  0  0
  -29.5797  -12.0309   18.1739 C   0  0  0  0  0  0  0  0  0  0  0  0
  -21.4017  -31.7439   22.0843 C   0  0  0  0  0  0  0  0  0  0  0  0
  -28.1363  -11.8578   18.6499 C   0  0  0  0  0  0  0  0  0  0  0  0
  -30.5494  -12.1573   19.3468 C   0  0  0  0  0  0  0  0  0  0  0  0
  -28.7625  -13.0343   20.7999 C   0  0  0  0  0  0  0  0  0  0  0  0
  -20.9304  -30.3270   21.7353 C   0  0  1  0  0  0  0  0  0  0  0  0
  -21.5865  -28.0716   24.7213 C   0  0  1  0  0  0  0  0  0  0  0  0
  -27.7407  -12.9586   19.6525 C   0  0  2  0  0  0  0  0  0  0  0  0
  -30.5975  -16.0617   24.8479 C   0  0  0  0  0  0  0  0  0  0  0  0
  -25.1362  -28.1667   31.6056 C   0  0  0  0  0  0  0  0  0  0  0  0
  -25.0211  -31.0268   25.6326 C   0  0  0  0  0  0  0  0  0  0  0  0
  -26.1711  -30.6990   27.8322 C   0  0  0  0  0  0  0  0  0  0  0  0
  -23.8838  -31.6917   27.7583 C   0  0  0  0  0  0  0  0  0  0  0  0
  -23.0081  -25.3504   30.1858 C   0  0  0  0  0  0  0  0  0  0  0  0
  -31.2852  -16.4020   21.7976 C   0  0  0  0  0  0  0  0  0  0  0  0
  -24.1810  -29.2267   27.2817 C   0  0  1  0  0  0  0  0  0  0  0  0
  -24.1119  -27.5371   30.6744 C   0  0  2  0  0  0  0  0  0  0  0  0
  -24.8084  -30.6388   27.1094 C   0  0  0  0  0  0  0  0  0  0  0  0
  -25.8410  -11.5213   20.2909 N   0  0  0  0  0  0  0  0  0  0  0  0
  -26.3240  -12.7687   20.1621 N   0  0  0  0  0  0  0  0  0  0  0  0
  -28.6077  -20.4618   23.5264 N   0  0  0  0  0  0  0  0  0  0  0  0
  -22.7735  -28.1133   25.5778 N   0  0  0  0  0  0  0  0  0  0  0  0
  -30.1182  -13.2193   20.2591 N   0  0  0  0  0  0  0  0  0  0  0  0
  -25.7624  -15.0512   20.4543 N   0  0  0  0  0  0  0  0  0  0  0  0
  -22.0144  -12.8833   21.7386 N   0  0  0  0  0  0  0  0  0  0  0  0
  -20.8360  -29.5169   22.9308 N   0  0  0  0  0  0  0  0  0  0  0  0
  -23.9432  -28.8437   28.6692 N   0  0  0  0  0  0  0  0  0  0  0  0
  -30.5044  -15.2472   21.4133 N   0  0  0  0  0  0  0  0  0  0  0  0
  -23.9987  -26.0895   31.0100 N   0  3  0  0  0  0  0  0  0  0  0  0
  -28.1241  -20.8635   25.8140 O   0  0  0  0  0  0  0  0  0  0  0  0
  -22.9643  -14.9509   21.4531 O   0  0  0  0  0  0  0  0  0  0  0  0
  -23.0631  -28.8474   23.0501 O   0  0  0  0  0  0  0  0  0  0  0  0
  -21.9206  -29.8350   26.8986 O   0  0  0  0  0  0  0  0  0  0  0  0
  -25.2457  -26.9256   28.6304 O   0  0  0  0  0  0  0  0  0  0  0  0
  -32.1263  -14.3614   20.0562 O   0  0  0  0  0  0  0  0  0  0  0  0
  -21.2616   -7.3639   21.8058 O   0  0  0  0  0  0  0  0  0  0  0  0
  -25.3360  -23.1454   22.9688 O   0  0  0  0  0  0  0  0  0  1  0  0
  -18.4134   -7.4113   26.5270 F   0  0  0  0  0  0  0  0  0  0  0  0
  -21.6004   -5.3664   23.6867 F   0  0  0  0  0  0  0  0  0  0  0  0
  -29.9400  -18.7980   21.9942 S   0  0  0  0  0  0  0  0  0  0  0  0
  1  2  1  0  0  0  0
  1  5  2  0  0  0  0
  2  6  2  0  0  0  0
  3  8  2  0  0  0  0
  3 16  1  0  0  0  0
  4  9  1  0  0  0  0
  4 16  2  0  0  0  0
  5 18  1  0  0  0  0
  6 20  1  0  0  0  0
  7 10  2  0  0  0  0
  7 19  1  0  0  0  0
  8 23  1  0  0  0  0
  9 23  2  0  0  0  0
 10 24  1  0  0  0  0
 11 12  2  0  0  0  0
 11 25  1  0  0  0  0
 12 26  1  0  0  0  0
 13 21  1  0  0  0  0
 13 24  2  0  0  0  0
 14 22  1  0  0  0  0
 14 31  2  0  0  0  0
 15 26  2  0  0  0  0
 15 27  1  0  0  0  0
 16 28  1  0  0  0  0
 17 28  1  0  0  0  0
 17 30  2  0  0  0  0
 17 35  1  0  0  0  0
 18 20  2  0  0  0  0
 18 40  1  0  0  0  0
 19 21  2  0  0  0  0
 19 41  1  0  0  0  0
 20 50  1  0  0  0  0
 21 42  1  0  0  0  0
 22 29  2  0  0  0  0
 22 53  1  0  0  0  0
 23 80  1  0  0  0  0
 24 81  1  0  0  0  0
 25 27  2  0  0  0  0
 25 80  1  0  0  0  0
 26 82  1  0  0  0  0
 27 83  1  0  0  0  0
 28 63  2  0  0  0  0
 29 59  1  0  0  0  0
 29 84  1  0  0  0  0
 30 64  1  0  0  0  0
 30 68  1  0  0  0  0
 31 65  1  0  0  0  0
 31 84  1  0  0  0  0
 32 33  1  0  0  0  0
 32 34  2  0  0  0  0
 32 43  1  0  0  0  0
 33 65  1  0  0  0  0
 33 74  2  0  0  0  0
 34 81  1  0  0  0  0
 35 69  1  0  0  0  0
 35 75  2  0  0  0  0
 36 51  1  0  0  0  0
 36 70  1  0  0  0  0
 36 76  2  0  0  0  0
 37 60  1  0  0  0  0
 37 66  1  0  0  0  0
 37 77  2  0  0  0  0
 38 61  1  0  0  0  0
 38 71  1  0  0  0  0
 38 78  2  0  0  0  0
 39 67  1  0  0  0  0
 39 72  1  0  0  0  0
 39 79  2  0  0  0  0
 40 44  1  0  0  0  0
 41 51  1  0  0  0  0
 42 66  1  0  0  0  0
 43 65  1  0  0  0  0
 44 46  1  0  0  0  0
 45 47  1  0  0  0  0
 45 48  1  0  0  0  0
 46 50  1  0  0  0  0
 47 52  1  0  0  0  0
 48 67  1  0  0  0  0
 49 52  1  0  0  0  0
 49 67  1  0  0  0  0
 50 70  1  0  0  0  0
 51 66  1  0  0  0  0
 52 64  1  0  0  0  0
 54 61  1  0  0  0  0
 55 62  1  0  0  0  0
 56 62  1  0  0  0  0
 57 62  1  0  0  0  0
 58 73  1  0  0  0  0
 59 72  1  0  0  0  0
 60 62  1  0  0  0  0
 60 71  1  0  0  0  0
 61 73  1  0  0  0  0
 63 64  1  0  0  0  0
M  CHG  1  73   1
M  ISO  4  34 101  39 100  72 100  81 101
M  END
> <Batch ID>
0087

> <Smiles>
CNC(C)C(=O)NC(C(=O)N1Cc2cc([101O:1][101CH:1]=C3CN(c4cc(C)c(C[100NH:0][100C:0](=O)N5CCCC(n6nc(-c7ccc(Oc8ccc(F)cc8F)cc7)c(C(N)=O)c6N)C5)s4)C3=O)ccc2CC1C(=O)NC1CCCc2ccccc21)C(C)(C)C

> <Shape>
0.218

> <Color>
0.201

> <Negative vol penalty>
0.000

$$$$

  -OEChem-04052300203D

 87 96  0     1  0  0  0  0  0999 V2000
  -29.5198  -36.5385   19.5550 C   0  0  0  0  0  0  0  0  0  0  0  0
  -29.5351  -35.1818   19.2475 C   0  0  0  0  0  0  0  0  0  0  0  0
  -23.1059   -7.1751   23.6573 C   0  0  0  0  0  0  0  0  0  0  0  0
  -20.9393   -7.5791   22.6676 C   0  0  0  0  0  0  0  0  0  0  0  0
  -27.2620  -18.6898   20.5843 C   0  0  0  0  0  0  0  0  0  0  0  0
  -29.0413  -36.9662   20.7927 C   0  0  0  0  0  0  0  0  0  0  0  0
  -29.0728  -34.2519   20.1782 C   0  0  0  0  0  0  0  0  0  0  0  0
  -26.1197  -29.0181   18.9980 C   0  0  0  0  0  0  0  0  0  0  0  0
  -27.5781  -20.0453   20.4938 C   0  0  0  0  0  0  0  0  0  0  0  0
  -22.5285   -6.2772   24.5550 C   0  0  0  0  0  0  0  0  0  0  0  0
  -20.3618   -6.6811   23.5653 C   0  0  0  0  0  0  0  0  0  0  0  0
  -26.5513  -27.6947   18.9194 C   0  0  0  0  0  0  0  0  0  0  0  0
  -21.4454   -3.0743   24.5251 C   0  0  0  0  0  0  0  0  0  0  0  0
  -22.0954   -1.8579   24.7339 C   0  0  0  0  0  0  0  0  0  0  0  0
  -28.9879  -18.1797   18.9725 C   0  0  0  0  0  0  0  0  0  0  0  0
  -25.8788  -27.3458   21.2096 C   0  0  0  0  0  0  0  0  0  0  0  0
  -22.3321   -2.3870   27.0793 C   0  0  0  0  0  0  0  0  0  0  0  0
  -22.3114   -7.8261   22.7136 C   0  0  0  0  0  0  0  0  0  0  0  0
  -27.9669  -17.7569   19.8236 C   0  0  0  0  0  0  0  0  0  0  0  0
  -23.4343   -8.4640   20.5137 C   0  0  0  0  0  0  0  0  0  0  0  0
  -28.5640  -36.0419   21.7353 C   0  0  0  0  0  0  0  0  0  0  0  0
  -25.5735  -29.5192   20.1884 C   0  0  0  0  0  0  0  0  0  0  0  0
  -28.5887  -34.6676   21.4302 C   0  0  0  0  0  0  0  0  0  0  0  0
  -25.4387  -28.6752   21.2999 C   0  0  0  0  0  0  0  0  0  0  0  0
  -28.5991  -20.4680   19.6427 C   0  0  0  0  0  0  0  0  0  0  0  0
  -21.1564   -6.0302   24.5090 C   0  0  0  0  0  0  0  0  0  0  0  0
  -26.4335  -26.8592   20.0262 C   0  0  0  0  0  0  0  0  0  0  0  0
  -21.2388   -3.9471   25.5934 C   0  0  0  0  0  0  0  0  0  0  0  0
  -22.5387   -1.5143   26.0110 C   0  0  0  0  0  0  0  0  0  0  0  0
  -29.3040  -19.5352   18.8820 C   0  0  0  0  0  0  0  0  0  0  0  0
  -21.6821   -3.6034   26.8705 C   0  0  0  0  0  0  0  0  0  0  0  0
  -22.9072   -8.7542   21.7864 C   0  0  0  0  0  0  0  0  0  0  0  0
  -23.8755   -9.6755   20.0404 C   0  0  0  0  0  0  0  0  0  0  0  0
  -28.6967  -24.1005   19.5680 C   0  0  0  0  0  0  0  0  0  0  0  0
  -30.1010  -23.7938   19.2630 C   0  0  0  0  0  0  0  0  0  0  0  0
  -27.9509  -22.8389   19.7512 C   0  0  0  0  0  0  0  0  0  0  0  0
  -27.6369  -16.3436   19.9172 C   0  0  0  0  0  0  0  0  0  0  0  0
  -28.1705  -25.3348   19.6658 C   0  0  0  0  0  0  0  0  0  1  0  0
  -26.9696  -15.7608   20.9360 C   0  0  0  0  0  0  0  0  0  0  0  0
  -23.5176   -7.2113   19.8212 C   0  0  0  0  0  0  0  0  0  0  0  0
  -26.7013  -14.3097   20.8801 C   0  0  0  0  0  0  0  0  0  0  0  0
  -26.3754  -31.8191   22.2306 C   0  0  0  0  0  0  0  0  0  0  0  0
  -23.5268  -31.0695   23.5891 C   0  0  0  0  0  0  0  0  0  0  0  0
  -21.0689  -28.7521   24.0743 C   0  0  0  0  0  0  0  0  0  0  0  0
  -28.1005  -36.5481   23.0782 C   0  0  0  0  0  0  0  0  0  0  0  0
  -25.0881  -30.9415   20.2486 C   0  0  0  0  0  0  0  0  0  0  0  0
  -24.8405  -29.1587   22.5949 C   0  0  0  0  0  0  0  0  0  0  0  0
  -30.2718  -22.3034   19.2462 C   0  0  0  0  0  0  0  0  0  0  0  0
  -27.2800  -35.5282   23.8636 C   0  0  0  0  0  0  0  0  0  0  0  0
  -23.1431  -14.3604   21.7569 C   0  0  0  0  0  0  0  0  0  0  0  0
  -27.9592  -34.1626   23.8374 C   0  0  0  0  0  0  0  0  0  0  0  0
  -22.8257  -12.8676   21.7828 C   0  0  0  0  0  0  0  0  0  0  0  0
  -24.5649  -14.6510   22.2350 C   0  0  0  0  0  0  0  0  0  0  0  0
  -25.2928  -12.3922   21.5221 C   0  0  0  0  0  0  0  0  0  0  0  0
  -28.0727  -33.6303   22.4038 C   0  0  1  0  0  0  0  0  0  0  0  0
  -25.0205  -31.4902   21.6705 C   0  0  1  0  0  0  0  0  0  0  0  0
  -23.8831  -12.0727   21.0004 C   0  0  1  0  0  0  0  0  0  0  0  0
  -18.8844  -28.4169   25.2630 C   0  0  0  0  0  0  0  0  0  0  0  0
  -25.0188  -30.7210   26.2278 C   0  0  0  0  0  0  0  0  0  0  0  0
  -23.0233  -29.4961   27.1141 C   0  0  0  0  0  0  0  0  0  0  0  0
  -22.8131  -31.8835   26.4222 C   0  0  0  0  0  0  0  0  0  0  0  0
  -19.6200  -28.3119   21.5315 C   0  0  0  0  0  0  0  0  0  0  0  0
  -23.0715  -30.0979   24.6511 C   0  0  1  0  0  0  0  0  0  0  0  0
  -19.5576  -28.8497   23.9699 C   0  0  2  0  0  0  0  0  0  0  0  0
  -23.4948  -30.5408   26.0802 C   0  0  0  0  0  0  0  0  0  0  0  0
  -23.0039  -10.0485   22.1017 N   0  0  0  0  0  0  0  0  0  0  0  0
  -23.5970  -10.5824   21.0203 N   0  0  0  0  0  0  0  0  0  0  0  0
  -28.9122  -21.8225   19.5537 N   0  0  0  0  0  0  0  0  0  0  0  0
  -25.5530  -13.8361   21.5123 N   0  0  0  0  0  0  0  0  0  0  0  0
  -24.3863  -30.5591   22.6060 N   0  0  0  0  0  0  0  0  0  0  0  0
  -24.4706  -10.0430   18.8857 N   0  0  0  0  0  0  0  0  0  0  0  0
  -23.0164   -6.0645   20.4520 N   0  0  0  0  0  0  0  0  0  0  0  0
  -26.8000  -33.1054   21.9574 N   0  0  0  0  0  0  0  0  0  0  0  0
  -21.6314  -29.9457   24.4747 N   0  0  0  0  0  0  0  0  0  0  0  0
  -19.0575  -27.9819   22.8663 N   0  3  0  0  0  0  0  0  0  0  0  0
  -30.9802  -24.6127   19.0575 O   0  0  0  0  0  0  0  0  0  0  0  0
  -26.7652  -22.7393   20.0145 O   0  0  0  0  0  0  0  0  0  0  0  0
  -24.0364   -7.1091   18.6837 O   0  0  0  0  0  0  0  0  0  0  0  0
  -27.5141  -13.6038   20.2804 O   0  0  0  0  0  0  0  0  0  0  0  0
  -26.9895  -30.9694   22.8651 O   0  0  0  0  0  0  0  0  0  0  0  0
  -23.1286  -32.2364   23.6263 O   0  0  0  0  0  0  0  0  0  0  0  0
  -21.6882  -27.7192   23.8291 O   0  0  0  0  0  0  0  0  0  0  0  0
  -20.5926   -5.1539   25.3847 O   0  0  0  0  0  0  0  0  0  0  0  0
  -26.8546  -25.5672   19.9524 O   0  0  0  0  0  0  0  0  0  1  0  0
  -23.1615   -0.3455   26.2116 F   0  0  0  0  0  0  0  0  0  0  0  0
  -30.2865  -19.9304   18.0597 F   0  0  0  0  0  0  0  0  0  0  0  0
  -21.4855   -4.4372   27.9010 F   0  0  0  0  0  0  0  0  0  0  0  0
  1  2  1  0  0  0  0
  1  6  2  0  0  0  0
  2  7  2  0  0  0  0
  3 10  2  0  0  0  0
  3 18  1  0  0  0  0
  4 11  1  0  0  0  0
  4 18  2  0  0  0  0
  5  9  2  0  0  0  0
  5 19  1  0  0  0  0
  6 21  1  0  0  0  0
  7 23  1  0  0  0  0
  8 12  2  0  0  0  0
  8 22  1  0  0  0  0
  9 25  1  0  0  0  0
 10 26  1  0  0  0  0
 11 26  2  0  0  0  0
 12 27  1  0  0  0  0
 13 14  2  0  0  0  0
 13 28  1  0  0  0  0
 14 29  1  0  0  0  0
 15 19  2  0  0  0  0
 15 30  1  0  0  0  0
 16 24  1  0  0  0  0
 16 27  2  0  0  0  0
 17 29  2  0  0  0  0
 17 31  1  0  0  0  0
 18 32  1  0  0  0  0
 19 37  1  0  0  0  0
 20 32  1  0  0  0  0
 20 33  2  0  0  0  0
 20 40  1  0  0  0  0
 21 23  2  0  0  0  0
 21 45  1  0  0  0  0
 22 24  2  0  0  0  0
 22 46  1  0  0  0  0
 23 55  1  0  0  0  0
 24 47  1  0  0  0  0
 25 30  2  0  0  0  0
 25 68  1  0  0  0  0
 26 83  1  0  0  0  0
 27 84  1  0  0  0  0
 28 31  2  0  0  0  0
 28 83  1  0  0  0  0
 29 85  1  0  0  0  0
 30 86  1  0  0  0  0
 31 87  1  0  0  0  0
 32 66  2  0  0  0  0
 33 67  1  0  0  0  0
 33 71  1  0  0  0  0
 34 35  1  0  0  0  0
 34 36  1  0  0  0  0
 34 38  2  0  0  0  0
 35 48  1  0  0  0  0
 35 76  2  0  0  0  0
 36 68  1  0  0  0  0
 36 77  2  0  0  0  0
 37 39  2  0  0  0  0
 38 84  1  0  0  0  0
 39 41  1  0  0  0  0
 40 72  1  0  0  0  0
 40 78  2  0  0  0  0
 41 69  1  0  0  0  0
 41 79  2  0  0  0  0
 42 56  1  0  0  0  0
 42 73  1  0  0  0  0
 42 80  2  0  0  0  0
 43 63  1  0  0  0  0
 43 70  1  0  0  0  0
 43 81  2  0  0  0  0
 44 64  1  0  0  0  0
 44 74  1  0  0  0  0
 44 82  2  0  0  0  0
 45 49  1  0  0  0  0
 46 56  1  0  0  0  0
 47 70  1  0  0  0  0
 48 68  1  0  0  0  0
 49 51  1  0  0  0  0
 50 52  1  0  0  0  0
 50 53  1  0  0  0  0
 51 55  1  0  0  0  0
 52 57  1  0  0  0  0
 53 69  1  0  0  0  0
 54 57  1  0  0  0  0
 54 69  1  0  0  0  0
 55 73  1  0  0  0  0
 56 70  1  0  0  0  0
 57 67  1  0  0  0  0
 58 64  1  0  0  0  0
 59 65  1  0  0  0  0
 60 65  1  0  0  0  0
 61 65  1  0  0  0  0
 62 75  1  0  0  0  0
 63 65  1  0  0  0  0
 63 74  1  0  0  0  0
 64 75  1  0  0  0  0
 66 67  1  0  0  0  0
M  CHG  1  75   1
M  ISO  4  38 101  39 100  41 100  84 101
M  END
> <Batch ID>
0087

> <Smiles>
CNC(C)C(=O)NC(C(=O)N1Cc2cc([101O:1][101CH:1]=C3C(=O)CN(c4ccc(C=[100CH:0][100C:0](=O)N5CCCC(n6nc(-c7ccc(Oc8ccc(F)cc8F)cc7)c(C(N)=O)c6N)C5)cc4F)C3=O)ccc2CC1C(=O)NC1CCCc2ccccc21)C(C)(C)C

> <Shape>
0.303

> <Color>
0.079

> <Negative vol penalty>
0.000

$$$$

  -OEChem-04052300203D

 85 93  0     1  0  0  0  0  0999 V2000
  -24.5506  -36.0351   15.5361 C   0  0  0  0  0  0  0  0  0  0  0  0
  -25.0738  -34.7501   15.6382 C   0  0  0  0  0  0  0  0  0  0  0  0
  -24.5467  -10.1823   22.7670 C   0  0  0  0  0  0  0  0  0  0  0  0
  -24.5666  -11.8457   24.5191 C   0  0  0  0  0  0  0  0  0  0  0  0
  -29.9708  -21.5202   20.7200 C   0  0  0  0  0  0  0  0  0  0  0  0
  -24.5196  -36.8649   16.6561 C   0  0  0  0  0  0  0  0  0  0  0  0
  -25.5672  -34.2945   16.8603 C   0  0  0  0  0  0  0  0  0  0  0  0
  -25.2847  -28.5801   19.0447 C   0  0  0  0  0  0  0  0  0  0  0  0
  -29.9597  -20.1309   20.5969 C   0  0  0  0  0  0  0  0  0  0  0  0
  -24.1395   -9.2171   23.6879 C   0  0  0  0  0  0  0  0  0  0  0  0
  -24.1593  -10.8805   25.4400 C   0  0  0  0  0  0  0  0  0  0  0  0
  -26.2099  -27.5373   19.0662 C   0  0  0  0  0  0  0  0  0  0  0  0
  -21.2715   -8.2888   25.2196 C   0  0  0  0  0  0  0  0  0  0  0  0
  -20.2384   -7.4300   24.8445 C   0  0  0  0  0  0  0  0  0  0  0  0
  -27.5613  -21.5549   20.5467 C   0  0  0  0  0  0  0  0  0  0  0  0
  -26.8576  -28.1663   21.3032 C   0  0  0  0  0  0  0  0  0  0  0  0
  -21.7095   -5.5351   25.1311 C   0  0  0  0  0  0  0  0  0  0  0  0
  -24.7604  -11.4966   23.1826 C   0  0  0  0  0  0  0  0  0  0  0  0
  -28.7716  -22.2323   20.6950 C   0  0  0  0  0  0  0  0  0  0  0  0
  -24.3571  -13.3262   21.4513 C   0  0  0  0  0  0  0  0  0  0  0  0
  -25.0041  -36.4159   17.8948 C   0  0  0  0  0  0  0  0  0  0  0  0
  -25.1465  -29.4319   20.1499 C   0  0  0  0  0  0  0  0  0  0  0  0
  -25.5438  -35.1195   17.9976 C   0  0  0  0  0  0  0  0  0  0  0  0
  -25.9281  -29.2175   21.2941 C   0  0  0  0  0  0  0  0  0  0  0  0
  -28.7494  -19.4535   20.4486 C   0  0  0  0  0  0  0  0  0  0  0  0
  -23.9458   -9.5662   25.0244 C   0  0  0  0  0  0  0  0  0  0  0  0
  -26.9986  -27.3321   20.1945 C   0  0  0  0  0  0  0  0  0  0  0  0
  -22.5237   -7.7708   25.5504 C   0  0  0  0  0  0  0  0  0  0  0  0
  -20.4574   -6.0532   24.8002 C   0  0  0  0  0  0  0  0  0  0  0  0
  -27.5502  -20.1656   20.4235 C   0  0  0  0  0  0  0  0  0  0  0  0
  -22.7427   -6.3940   25.5062 C   0  0  0  0  0  0  0  0  0  0  0  0
  -25.1816  -12.4939   22.2318 C   0  0  0  0  0  0  0  0  0  0  0  0
  -25.2339  -14.0886   20.7187 C   0  0  0  0  0  0  0  0  0  0  0  0
  -28.7836  -23.7054   20.8254 C   0  0  0  0  0  0  0  0  0  0  0  0
  -22.9266  -13.4034   21.3936 C   0  0  0  0  0  0  0  0  0  0  0  0
  -25.5541  -32.5448   20.6477 C   0  0  0  0  0  0  0  0  0  0  0  0
  -24.3231  -31.8429   23.5657 C   0  0  0  0  0  0  0  0  0  0  0  0
  -30.1891  -25.7097   20.4384 C   0  0  0  0  0  0  0  0  0  0  0  0
  -23.7566  -29.5031   25.9846 C   0  0  0  0  0  0  0  0  0  0  0  0
  -29.8433  -17.1875   20.3279 C   0  0  0  0  0  0  0  0  0  0  0  0
  -24.9929  -37.3657   19.0662 C   0  0  0  0  0  0  0  0  0  0  0  0
  -24.1250  -30.5357   20.1211 C   0  0  0  0  0  0  0  0  0  0  0  0
  -25.8039  -30.0914   22.5145 C   0  0  0  0  0  0  0  0  0  0  0  0
  -25.1920  -36.6746   20.4127 C   0  0  0  0  0  0  0  0  0  0  0  0
  -30.2370  -13.6574   20.0820 C   0  0  0  0  0  0  0  0  0  0  0  0
  -26.3494  -35.6838   20.3381 C   0  0  0  0  0  0  0  0  0  0  0  0
  -28.8890  -13.1084   20.5552 C   0  0  0  0  0  0  0  0  0  0  0  0
  -30.6507  -14.9002   20.8681 C   0  0  0  0  0  0  0  0  0  0  0  0
  -28.2987  -15.4221   21.3831 C   0  0  0  0  0  0  0  0  0  0  0  0
  -26.0659  -34.5804   19.3117 C   0  0  1  0  0  0  0  0  0  0  0  0
  -24.4309  -31.6588   21.1072 C   0  0  1  0  0  0  0  0  0  0  0  0
  -27.8091  -14.2079   20.5770 C   0  0  2  0  0  0  0  0  0  0  0  0
  -22.7625  -29.2367   28.2733 C   0  0  0  0  0  0  0  0  0  0  0  0
  -26.7772  -33.1846   24.7851 C   0  0  0  0  0  0  0  0  0  0  0  0
  -26.2192  -32.0726   26.9578 C   0  0  0  0  0  0  0  0  0  0  0  0
  -24.6223  -33.6995   25.9451 C   0  0  0  0  0  0  0  0  0  0  0  0
  -32.4841  -25.7001   19.4521 C   0  0  0  0  0  0  0  0  0  0  0  0
  -21.7522  -27.5540   25.0139 C   0  0  0  0  0  0  0  0  0  0  0  0
  -29.0745  -26.5065   21.0099 C   0  0  0  0  0  0  0  0  0  1  0  0
  -24.8988  -31.4166   24.8945 C   0  0  1  0  0  0  0  0  0  0  0  0
  -22.5091  -29.1542   26.7761 C   0  0  2  0  0  0  0  0  0  0  0  0
  -25.6333  -32.5779   25.6221 C   0  0  0  0  0  0  0  0  0  0  0  0
  -26.4823  -12.7072   22.0153 N   0  0  0  0  0  0  0  0  0  0  0  0
  -26.4817  -13.6821   21.0903 N   0  0  0  0  0  0  0  0  0  0  0  0
  -24.7955  -31.1611   22.4352 N   0  0  0  0  0  0  0  0  0  0  0  0
  -29.5806  -15.8998   20.8413 N   0  0  0  0  0  0  0  0  0  0  0  0
  -25.0515  -15.0601   19.7994 N   0  0  0  0  0  0  0  0  0  0  0  0
  -22.1778  -12.5480   22.2132 N   0  0  0  0  0  0  0  0  0  0  0  0
  -28.7415  -18.0422   20.3231 N   0  0  0  0  0  0  0  0  0  0  0  0
  -29.9772  -24.3888   20.3838 N   0  0  0  0  0  0  0  0  0  0  0  0
  -25.1482  -33.6045   19.8592 N   0  0  0  0  0  0  0  0  0  0  0  0
  -23.7932  -30.8409   25.6526 N   0  0  0  0  0  0  0  0  0  0  0  0
  -31.2985  -26.3353   20.0352 N   0  3  0  0  0  0  0  0  0  0  0  0
  -22.0595  -27.7710   26.4511 N   0  3  0  0  0  0  0  0  0  0  0  0
  -27.8408  -24.3204   21.3022 O   0  0  0  0  0  0  0  0  0  0  0  0
  -22.3300  -14.1958   20.6256 O   0  0  0  0  0  0  0  0  0  0  0  0
  -26.7036  -32.2869   20.9849 O   0  0  0  0  0  0  0  0  0  0  0  0
  -23.4798  -32.7426   23.5326 O   0  0  0  0  0  0  0  0  0  0  0  0
  -24.6147  -28.6728   25.6936 O   0  0  0  0  0  0  0  0  0  0  0  0
  -30.9564  -17.4997   19.8972 O   0  0  0  0  0  0  0  0  0  0  0  0
  -23.5481   -8.6247   25.9233 O   0  0  0  0  0  0  0  0  0  0  0  0
  -27.9029  -26.3154   20.2179 O   0  0  0  0  0  0  0  0  0  1  0  0
  -19.4647   -5.2285   24.4415 F   0  0  0  0  0  0  0  0  0  0  0  0
  -26.3807  -19.5253   20.2810 F   0  0  0  0  0  0  0  0  0  0  0  0
  -23.9431   -5.8903   25.8240 F   0  0  0  0  0  0  0  0  0  0  0  0
  1  2  1  0  0  0  0
  1  6  2  0  0  0  0
  2  7  2  0  0  0  0
  3 10  2  0  0  0  0
  3 18  1  0  0  0  0
  4 11  1  0  0  0  0
  4 18  2  0  0  0  0
  5  9  2  0  0  0  0
  5 19  1  0  0  0  0
  6 21  1  0  0  0  0
  7 23  1  0  0  0  0
  8 12  2  0  0  0  0
  8 22  1  0  0  0  0
  9 25  1  0  0  0  0
 10 26  1  0  0  0  0
 11 26  2  0  0  0  0
 12 27  1  0  0  0  0
 13 14  2  0  0  0  0
 13 28  1  0  0  0  0
 14 29  1  0  0  0  0
 15 19  2  0  0  0  0
 15 30  1  0  0  0  0
 16 24  1  0  0  0  0
 16 27  2  0  0  0  0
 17 29  2  0  0  0  0
 17 31  1  0  0  0  0
 18 32  1  0  0  0  0
 19 34  1  0  0  0  0
 20 32  1  0  0  0  0
 20 33  2  0  0  0  0
 20 35  1  0  0  0  0
 21 23  2  0  0  0  0
 21 41  1  0  0  0  0
 22 24  2  0  0  0  0
 22 42  1  0  0  0  0
 23 50  1  0  0  0  0
 24 43  1  0  0  0  0
 25 30  2  0  0  0  0
 25 69  1  0  0  0  0
 26 81  1  0  0  0  0
 27 82  1  0  0  0  0
 28 31  2  0  0  0  0
 28 81  1  0  0  0  0
 29 83  1  0  0  0  0
 30 84  1  0  0  0  0
 31 85  1  0  0  0  0
 32 63  2  0  0  0  0
 33 64  1  0  0  0  0
 33 67  1  0  0  0  0
 34 70  1  0  0  0  0
 34 75  2  0  0  0  0
 35 68  1  0  0  0  0
 35 76  2  0  0  0  0
 36 51  1  0  0  0  0
 36 71  1  0  0  0  0
 36 77  2  0  0  0  0
 37 60  1  0  0  0  0
 37 65  1  0  0  0  0
 37 78  2  0  0  0  0
 38 59  1  0  0  0  0
 38 70  1  0  0  0  0
 38 73  2  0  0  0  0
 39 61  1  0  0  0  0
 39 72  1  0  0  0  0
 39 79  2  0  0  0  0
 40 66  1  0  0  0  0
 40 69  1  0  0  0  0
 40 80  2  0  0  0  0
 41 44  1  0  0  0  0
 42 51  1  0  0  0  0
 43 65  1  0  0  0  0
 44 46  1  0  0  0  0
 45 47  1  0  0  0  0
 45 48  1  0  0  0  0
 46 50  1  0  0  0  0
 47 52  1  0  0  0  0
 48 66  1  0  0  0  0
 49 52  1  0  0  0  0
 49 66  1  0  0  0  0
 50 71  1  0  0  0  0
 51 65  1  0  0  0  0
 52 64  1  0  0  0  0
 53 61  1  0  0  0  0
 54 62  1  0  0  0  0
 55 62  1  0  0  0  0
 56 62  1  0  0  0  0
 57 73  1  0  0  0  0
 58 74  1  0  0  0  0
 59 82  1  0  0  0  0
 60 62  1  0  0  0  0
 60 72  1  0  0  0  0
 61 74  1  0  0  0  0
 63 64  1  0  0  0  0
M  CHG  2  73   1  74   1
M  ISO  4  40 100  59 101  69 100  82 101
M  END
> <Batch ID>
0087

> <Smiles>
CNC(=NC(=O)c1ccc([100NH:0][100C:0](=O)N2CCCC(n3nc(-c4ccc(Oc5ccc(F)cc5F)cc4)c(C(N)=O)c3N)C2)c(F)c1)[101CH2:1][101O:1]c1ccc2c(c1)CN(C(=O)C(NC(=O)C(C)NC)C(C)(C)C)C(C(=O)NC1CCCc3ccccc31)C2

> <Shape>
0.286

> <Color>
0.142

> <Negative vol penalty>
0.000

$$$$

  -OEChem-04052300203D

 85 94  0     1  0  0  0  0  0999 V2000
  -29.2755  -36.6038   19.7251 C   0  0  0  0  0  0  0  0  0  0  0  0
  -29.4263  -35.2419   19.4844 C   0  0  0  0  0  0  0  0  0  0  0  0
  -23.7457   -8.9505   19.7351 C   0  0  0  0  0  0  0  0  0  0  0  0
  -23.2714  -10.4982   21.5286 C   0  0  0  0  0  0  0  0  0  0  0  0
  -28.5522  -37.0384   20.8351 C   0  0  0  0  0  0  0  0  0  0  0  0
  -28.8548  -34.3138   20.3541 C   0  0  0  0  0  0  0  0  0  0  0  0
  -26.4807  -28.8641   18.8808 C   0  0  0  0  0  0  0  0  0  0  0  0
  -28.3748  -19.9871   19.8446 C   0  0  0  0  0  0  0  0  0  0  0  0
  -28.2875  -18.6178   19.5938 C   0  0  0  0  0  0  0  0  0  0  0  0
  -22.9433   -7.9903   20.3515 C   0  0  0  0  0  0  0  0  0  0  0  0
  -22.4690   -9.5381   22.1450 C   0  0  0  0  0  0  0  0  0  0  0  0
  -26.9956  -27.5698   18.9395 C   0  0  0  0  0  0  0  0  0  0  0  0
  -19.6420   -7.3257   20.6555 C   0  0  0  0  0  0  0  0  0  0  0  0
  -18.7456   -6.6188   19.8542 C   0  0  0  0  0  0  0  0  0  0  0  0
  -25.9325  -27.2504   21.0812 C   0  0  0  0  0  0  0  0  0  0  0  0
  -30.4520  -18.2925   20.6166 C   0  0  0  0  0  0  0  0  0  0  0  0
  -19.8309   -4.5488   20.4663 C   0  0  0  0  0  0  0  0  0  0  0  0
  -23.9098  -10.2044   20.3237 C   0  0  0  0  0  0  0  0  0  0  0  0
  -24.3375  -12.1637   18.7471 C   0  0  0  0  0  0  0  0  0  0  0  0
  -27.9634  -36.1152   21.7135 C   0  0  0  0  0  0  0  0  0  0  0  0
  -25.6954  -29.3659   19.9287 C   0  0  0  0  0  0  0  0  0  0  0  0
  -28.1241  -34.7364   21.4775 C   0  0  0  0  0  0  0  0  0  0  0  0
  -25.4066  -28.5505   21.0322 C   0  0  0  0  0  0  0  0  0  0  0  0
  -29.5007  -20.5092   20.4813 C   0  0  0  0  0  0  0  0  0  0  0  0
  -29.3261  -17.7705   19.9798 C   0  0  0  0  0  0  0  0  0  0  0  0
  -22.3049   -8.2841   21.5564 C   0  0  0  0  0  0  0  0  0  0  0  0
  -26.7240  -26.7638   20.0411 C   0  0  0  0  0  0  0  0  0  0  0  0
  -20.6329   -6.6443   21.3622 C   0  0  0  0  0  0  0  0  0  0  0  0
  -18.8400   -5.2303   19.7596 C   0  0  0  0  0  0  0  0  0  0  0  0
  -30.5393  -19.6619   20.8673 C   0  0  0  0  0  0  0  0  0  0  0  0
  -20.7274   -5.2559   21.2676 C   0  0  0  0  0  0  0  0  0  0  0  0
  -24.7390  -11.1964   19.6878 C   0  0  0  0  0  0  0  0  0  0  0  0
  -25.4871  -12.8562   18.4546 C   0  0  0  0  0  0  0  0  0  0  0  0
  -29.0441  -24.1194   20.7937 C   0  0  0  0  0  0  0  0  0  0  0  0
  -30.3710  -23.9171   21.4187 C   0  0  0  0  0  0  0  0  0  0  0  0
  -28.4511  -25.3216   20.6796 C   0  0  0  0  0  0  0  0  0  1  0  0
  -23.0414  -12.4140   18.1877 C   0  0  0  0  0  0  0  0  0  0  0  0
  -25.9705  -31.7767   21.9821 C   0  0  0  0  0  0  0  0  0  0  0  0
  -22.9682  -30.8864   22.8284 C   0  0  0  0  0  0  0  0  0  0  0  0
  -20.6021  -28.4303   22.9557 C   0  0  0  0  0  0  0  0  0  0  0  0
  -30.1782  -15.4006   20.0429 C   0  0  0  0  0  0  0  0  0  0  0  0
  -27.2307  -36.6324   22.9260 C   0  0  0  0  0  0  0  0  0  0  0  0
  -25.1253  -30.7548   19.8379 C   0  0  0  0  0  0  0  0  0  0  0  0
  -24.5522  -29.0348   22.1740 C   0  0  0  0  0  0  0  0  0  0  0  0
  -28.5315  -22.7911   20.3435 C   0  0  0  0  0  0  0  0  0  0  0  0
  -30.7341  -22.4608   21.3809 C   0  0  0  0  0  0  0  0  0  0  0  0
  -26.3399  -35.5865   23.5915 C   0  0  0  0  0  0  0  0  0  0  0  0
  -30.3135  -11.8683   19.6171 C   0  0  0  0  0  0  0  0  0  0  0  0
  -27.0906  -34.2680   23.7487 C   0  0  0  0  0  0  0  0  0  0  0  0
  -28.8423  -11.4581   19.5202 C   0  0  0  0  0  0  0  0  0  0  0  0
  -30.5204  -13.0067   20.6146 C   0  0  0  0  0  0  0  0  0  0  0  0
  -28.2012  -13.7754   20.2990 C   0  0  0  0  0  0  0  0  0  0  0  0
  -27.4980  -33.6991   22.3842 C   0  0  1  0  0  0  0  0  0  0  0  0
  -24.7641  -31.3426   21.1986 C   0  0  1  0  0  0  0  0  0  0  0  0
  -27.9340  -12.6755   19.2585 C   0  0  2  0  0  0  0  0  0  0  0  0
  -18.2587  -27.9913   23.7387 C   0  0  0  0  0  0  0  0  0  0  0  0
  -23.9640  -30.7194   25.7077 C   0  0  0  0  0  0  0  0  0  0  0  0
  -21.9137  -29.3958   26.2665 C   0  0  0  0  0  0  0  0  0  0  0  0
  -21.6966  -31.7414   25.4457 C   0  0  0  0  0  0  0  0  0  0  0  0
  -19.6768  -27.8165   20.2124 C   0  0  0  0  0  0  0  0  0  0  0  0
  -22.3817  -29.9213   23.8302 C   0  0  1  0  0  0  0  0  0  0  0  0
  -19.1332  -28.4260   22.5728 C   0  0  2  0  0  0  0  0  0  0  0  0
  -22.5067  -30.4357   25.2920 C   0  0  0  0  0  0  0  0  0  0  0  0
  -26.0419  -11.2650   19.9739 N   0  0  0  0  0  0  0  0  0  0  0  0
  -26.4691  -12.2836   19.2083 N   0  0  0  0  0  0  0  0  0  0  0  0
  -29.5836  -21.8432   20.7227 N   0  0  3  0  0  0  0  0  0  0  0  0
  -24.0230  -30.4023   22.0417 N   0  0  0  0  0  0  0  0  0  0  0  0
  -29.6300  -14.1266   20.3018 N   0  0  0  0  0  0  0  0  0  0  0  0
  -25.7436  -13.8928   17.6288 N   0  0  0  0  0  0  0  0  0  0  0  0
  -21.9698  -11.6091   18.5979 N   0  0  0  0  0  0  0  0  0  0  0  0
  -29.2372  -16.3795   19.7251 N   0  0  0  0  0  0  0  0  0  0  0  0
  -26.3627  -33.0786   21.7358 N   0  0  0  0  0  0  0  0  0  0  0  0
  -21.0104  -29.6701   23.4004 N   0  0  0  0  0  0  0  0  0  0  0  0
  -18.8972  -27.4930   21.4349 N   0  3  0  0  0  0  0  0  0  0  0  0
  -31.0670  -24.8005   21.8933 O   0  0  0  0  0  0  0  0  0  0  0  0
  -22.8426  -13.3138   17.3366 O   0  0  0  0  0  0  0  0  0  0  0  0
  -26.5050  -30.9892   22.7540 O   0  0  0  0  0  0  0  0  0  0  0  0
  -22.5028  -32.0255   22.7419 O   0  0  0  0  0  0  0  0  0  0  0  0
  -21.3151  -27.4327   22.8725 O   0  0  0  0  0  0  0  0  0  0  0  0
  -31.3950  -15.6017   20.0722 O   0  0  0  0  0  0  0  0  0  0  0  0
  -21.5217   -7.3476   22.1580 O   0  0  0  0  0  0  0  0  0  0  0  0
  -27.2259  -25.5003   20.1012 O   0  0  0  0  0  0  0  0  0  1  0  0
  -17.9781   -4.5513   18.9913 F   0  0  0  0  0  0  0  0  0  0  0  0
  -31.6265  -20.1536   21.4785 F   0  0  0  0  0  0  0  0  0  0  0  0
  -21.6765   -4.5956   21.9452 F   0  0  0  0  0  0  0  0  0  0  0  0
  1  2  1  0  0  0  0
  1  5  2  0  0  0  0
  2  6  2  0  0  0  0
  3 10  2  0  0  0  0
  3 18  1  0  0  0  0
  4 11  1  0  0  0  0
  4 18  2  0  0  0  0
  5 20  1  0  0  0  0
  6 22  1  0  0  0  0
  7 12  2  0  0  0  0
  7 21  1  0  0  0  0
  8  9  2  0  0  0  0
  8 24  1  0  0  0  0
  9 25  1  0  0  0  0
 10 26  1  0  0  0  0
 11 26  2  0  0  0  0
 12 27  1  0  0  0  0
 13 14  2  0  0  0  0
 13 28  1  0  0  0  0
 14 29  1  0  0  0  0
 15 23  1  0  0  0  0
 15 27  2  0  0  0  0
 16 25  2  0  0  0  0
 16 30  1  0  0  0  0
 17 29  2  0  0  0  0
 17 31  1  0  0  0  0
 18 32  1  0  0  0  0
 19 32  1  0  0  0  0
 19 33  2  0  0  0  0
 19 37  1  0  0  0  0
 20 22  2  0  0  0  0
 20 42  1  0  0  0  0
 21 23  2  0  0  0  0
 21 43  1  0  0  0  0
 22 53  1  0  0  0  0
 23 44  1  0  0  0  0
 24 30  2  0  0  0  0
 24 66  1  0  0  0  0
 25 71  1  0  0  0  0
 26 81  1  0  0  0  0
 27 82  1  0  0  0  0
 28 31  2  0  0  0  0
 28 81  1  0  0  0  0
 29 83  1  0  0  0  0
 30 84  1  0  0  0  0
 31 85  1  0  0  0  0
 32 64  2  0  0  0  0
 33 65  1  0  0  0  0
 33 69  1  0  0  0  0
 34 35  1  0  0  0  0
 34 36  2  0  0  0  0
 34 45  1  0  0  0  0
 35 46  1  0  0  0  0
 35 75  2  0  0  0  0
 36 82  1  0  0  0  0
 37 70  1  0  0  0  0
 37 76  2  0  0  0  0
 38 54  1  0  0  0  0
 38 72  1  0  0  0  0
 38 77  2  0  0  0  0
 39 61  1  0  0  0  0
 39 67  1  0  0  0  0
 39 78  2  0  0  0  0
 40 62  1  0  0  0  0
 40 73  1  0  0  0  0
 40 79  2  0  0  0  0
 41 68  1  0  0  0  0
 41 71  1  0  0  0  0
 41 80  2  0  0  0  0
 42 47  1  0  0  0  0
 43 54  1  0  0  0  0
 44 67  1  0  0  0  0
 45 66  1  0  0  0  0
 46 66  1  0  0  0  0
 47 49  1  0  0  0  0
 48 50  1  0  0  0  0
 48 51  1  0  0  0  0
 49 53  1  0  0  0  0
 50 55  1  0  0  0  0
 51 68  1  0  0  0  0
 52 55  1  0  0  0  0
 52 68  1  0  0  0  0
 53 72  1  0  0  0  0
 54 67  1  0  0  0  0
 55 65  1  0  0  0  0
 56 62  1  0  0  0  0
 57 63  1  0  0  0  0
 58 63  1  0  0  0  0
 59 63  1  0  0  0  0
 60 74  1  0  0  0  0
 61 63  1  0  0  0  0
 61 73  1  0  0  0  0
 62 74  1  0  0  0  0
 64 65  1  0  0  0  0
M  CHG  1  74   1
M  ISO  4  36 101  41 100  71 100  82 101
M  END
> <Batch ID>
0087

> <Smiles>
CNC(C)C(=O)NC(C(=O)N1Cc2cc([101O:1][101CH:1]=C3CN(c4ccc([100NH:0][100C:0](=O)N5CCCC(n6nc(-c7ccc(Oc8ccc(F)cc8F)cc7)c(C(N)=O)c6N)C5)cc4F)CC3=O)ccc2CC1C(=O)NC1CCCc2ccccc21)C(C)(C)C

> <Shape>
0.306

> <Color>
0.111

> <Negative vol penalty>
0.000

$$$$

  -OEChem-04052300203D

 77 84  0     1  0  0  0  0  0999 V2000
  -29.6723  -11.1150   19.1705 C   0  0  0  0  0  0  0  0  0  0  0  0
  -29.0154  -11.8751   18.2081 C   0  0  0  0  0  0  0  0  0  0  0  0
  -25.2309  -28.5781   19.0506 C   0  0  0  0  0  0  0  0  0  0  0  0
  -26.6178  -26.9823   20.2199 C   0  0  0  0  0  0  0  0  0  0  0  0
  -29.7620  -11.5794   20.4821 C   0  0  0  0  0  0  0  0  0  0  0  0
  -28.4468  -13.0996   18.5571 C   0  0  0  0  0  0  0  0  0  0  0  0
  -28.0764  -18.1156   15.0630 C   0  0  0  0  0  0  0  0  0  0  0  0
  -25.6674  -29.5867   19.9095 C   0  0  0  0  0  0  0  0  0  0  0  0
  -27.0542  -27.9910   21.0788 C   0  0  0  0  0  0  0  0  0  0  0  0
  -27.0470  -18.6420   14.2838 C   0  0  0  0  0  0  0  0  0  0  0  0
  -25.0070  -30.6398   23.0527 C   0  0  0  0  0  0  0  0  0  0  0  0
  -24.0468  -31.5078   23.5725 C   0  0  0  0  0  0  0  0  0  0  0  0
  -26.4133  -20.0873   16.1083 C   0  0  0  0  0  0  0  0  0  0  0  0
  -25.1790  -33.3771   22.5422 C   0  0  0  0  0  0  0  0  0  0  0  0
  -25.7061  -27.2758   19.2059 C   0  0  0  0  0  0  0  0  0  0  0  0
  -25.4021  -26.1848   16.9201 C   0  0  0  0  0  0  0  0  0  0  0  0
  -29.2027  -12.8147   20.8451 C   0  0  0  0  0  0  0  0  0  0  0  0
  -28.2754  -18.5640   16.3766 C   0  0  0  0  0  0  0  0  0  0  0  0
  -28.5280  -13.5803   19.8750 C   0  0  0  0  0  0  0  0  0  0  0  0
  -27.4474  -19.5668   16.9012 C   0  0  0  0  0  0  0  0  0  0  0  0
  -26.5790  -29.2932   20.9236 C   0  0  0  0  0  0  0  0  0  0  0  0
  -26.2135  -19.6259   14.8074 C   0  0  0  0  0  0  0  0  0  0  0  0
  -26.0532  -31.1404   22.2777 C   0  0  0  0  0  0  0  0  0  0  0  0
  -24.1328  -32.8764   23.3172 C   0  0  0  0  0  0  0  0  0  0  0  0
  -26.1392  -32.5090   22.0225 C   0  0  0  0  0  0  0  0  0  0  0  0
  -25.2552  -26.2333   18.3193 C   0  0  0  0  0  0  0  0  0  0  0  0
  -24.8108  -25.0005   16.5536 C   0  0  0  0  0  0  0  0  0  0  0  0
  -22.8256  -20.4498   13.8915 C   0  0  0  0  0  0  0  0  0  0  0  0
  -23.9225  -20.0013   14.5148 C   0  0  0  0  0  0  0  0  0  1  0  0
  -26.0180  -27.1260   16.0310 C   0  0  0  0  0  0  0  0  0  0  0  0
  -28.1830  -17.2055   19.2489 C   0  0  0  0  0  0  0  0  0  0  0  0
  -20.8663  -21.7433   14.5871 C   0  0  0  0  0  0  0  0  0  0  0  0
  -29.2611  -20.1050   20.2252 C   0  0  0  0  0  0  0  0  0  0  0  0
  -29.5197  -23.4537   19.6205 C   0  0  0  0  0  0  0  0  0  0  0  0
  -20.6143  -21.4673   16.8682 C   0  0  0  0  0  0  0  0  0  0  0  0
  -29.2840  -13.2531   22.2859 C   0  0  0  0  0  0  0  0  0  0  0  0
  -29.4069  -18.0051   17.1949 C   0  0  0  0  0  0  0  0  0  0  0  0
  -27.6319  -20.0969   18.2988 C   0  0  0  0  0  0  0  0  0  0  0  0
  -28.9803  -14.7351   22.4897 C   0  0  0  0  0  0  0  0  0  0  0  0
  -23.2091  -21.1047   19.3463 C   0  0  0  0  0  0  0  0  0  0  0  0
  -27.7279  -15.1348   21.7160 C   0  0  0  0  0  0  0  0  0  0  0  0
  -23.9731  -22.4210   19.1964 C   0  0  0  0  0  0  0  0  0  0  0  0
  -21.7089  -21.3027   19.1483 C   0  0  0  0  0  0  0  0  0  0  0  0
  -22.1122  -23.2746   17.7048 C   0  0  0  0  0  0  0  0  0  0  0  0
  -27.9200  -14.9253   20.2092 C   0  0  1  0  0  0  0  0  0  0  0  0
  -29.1957  -18.1686   18.6969 C   0  0  1  0  0  0  0  0  0  0  0  0
  -23.6335  -23.1122   17.8629 C   0  0  1  0  0  0  0  0  0  0  0  0
  -20.7358  -22.6559   13.3850 C   0  0  0  0  0  0  0  0  0  0  0  0
  -20.4531  -19.5192   13.4772 C   0  0  0  0  0  0  0  0  0  0  0  0
  -30.2550  -25.8299   19.9529 C   0  0  0  0  0  0  0  0  0  0  0  0
  -26.9310  -20.1688   22.1942 C   0  0  0  0  0  0  0  0  0  0  0  0
  -27.3157  -22.6282   22.4621 C   0  0  0  0  0  0  0  0  0  0  0  0
  -29.0985  -21.0103   23.1153 C   0  0  0  0  0  0  0  0  0  0  0  0
  -31.9826  -23.0356   18.0337 C   0  0  0  0  0  0  0  0  0  0  0  0
  -21.4013  -20.3213   14.3700 C   0  0  1  0  0  0  0  0  0  0  0  0
  -28.6111  -21.3948   20.6644 C   0  0  1  0  0  0  0  0  0  0  0  0
  -30.7039  -24.4011   19.6887 C   0  0  2  0  0  0  0  0  0  0  0  0
  -27.9841  -21.2894   22.0833 C   0  0  0  0  0  0  0  0  0  0  0  0
  -24.6203  -25.1649   18.8085 N   0  0  0  0  0  0  0  0  0  0  0  0
  -20.4966  -22.2357   15.7329 N   0  0  0  0  0  0  0  0  0  0  0  0
  -24.3629  -24.4338   17.7106 N   0  0  0  0  0  0  0  0  0  0  0  0
  -28.7482  -19.5143   19.0617 N   0  0  0  0  0  0  0  0  0  0  0  0
  -21.4398  -21.9856   17.8791 N   0  0  0  0  0  0  0  0  0  0  0  0
  -24.6355  -24.3989   15.3579 N   0  0  0  0  0  0  0  0  0  0  0  0
  -27.3838  -26.9847   15.7501 N   0  0  0  0  0  0  0  0  0  0  0  0
  -28.7169  -15.9950   19.6477 N   0  0  0  0  0  0  0  0  0  0  0  0
  -29.6313  -22.4299   20.5374 N   0  0  0  0  0  0  0  0  0  0  0  0
  -31.4617  -24.3762   18.4057 N   0  3  0  0  0  0  0  0  0  0  0  0
  -25.3799  -28.0744   15.5144 O   0  0  0  0  0  0  0  0  0  0  0  0
  -27.0048  -17.5367   19.3098 O   0  0  0  0  0  0  0  0  0  0  0  0
  -30.1943  -19.6424   20.8861 O   0  0  0  0  0  0  0  0  0  0  0  0
  -28.5870  -23.6087   18.8353 O   0  0  0  0  0  0  0  0  0  0  0  0
  -20.0440  -20.3803   16.9738 O   0  0  0  0  0  0  0  0  0  0  0  0
  -27.0053  -30.2773   21.7618 O   0  0  0  0  0  0  0  0  0  0  0  0
  -25.2002  -20.1448   14.0437 O   0  0  0  0  0  0  0  0  0  1  0  0
  -23.2098  -33.7097   23.8151 F   0  0  0  0  0  0  0  0  0  0  0  0
  -27.1413  -32.9957   21.2777 F   0  0  0  0  0  0  0  0  0  0  0  0
  1  2  1  0  0  0  0
  1  5  2  0  0  0  0
  2  6  2  0  0  0  0
  3  8  2  0  0  0  0
  3 15  1  0  0  0  0
  4  9  1  0  0  0  0
  4 15  2  0  0  0  0
  5 17  1  0  0  0  0
  6 19  1  0  0  0  0
  7 10  2  0  0  0  0
  7 18  1  0  0  0  0
  8 21  1  0  0  0  0
  9 21  2  0  0  0  0
 10 22  1  0  0  0  0
 11 12  2  0  0  0  0
 11 23  1  0  0  0  0
 12 24  1  0  0  0  0
 13 20  1  0  0  0  0
 13 22  2  0  0  0  0
 14 24  2  0  0  0  0
 14 25  1  0  0  0  0
 15 26  1  0  0  0  0
 16 26  1  0  0  0  0
 16 27  2  0  0  0  0
 16 30  1  0  0  0  0
 17 19  2  0  0  0  0
 17 36  1  0  0  0  0
 18 20  2  0  0  0  0
 18 37  1  0  0  0  0
 19 45  1  0  0  0  0
 20 38  1  0  0  0  0
 21 74  1  0  0  0  0
 22 75  1  0  0  0  0
 23 25  2  0  0  0  0
 23 74  1  0  0  0  0
 24 76  1  0  0  0  0
 25 77  1  0  0  0  0
 26 59  2  0  0  0  0
 27 61  1  0  0  0  0
 27 64  1  0  0  0  0
 28 29  2  0  0  0  0
 28 55  1  0  0  0  0
 29 75  1  0  0  0  0
 30 65  1  0  0  0  0
 30 69  2  0  0  0  0
 31 46  1  0  0  0  0
 31 66  1  0  0  0  0
 31 70  2  0  0  0  0
 32 48  1  0  0  0  0
 32 55  1  0  0  0  0
 32 60  2  0  0  0  0
 33 56  1  0  0  0  0
 33 62  1  0  0  0  0
 33 71  2  0  0  0  0
 34 57  1  0  0  0  0
 34 67  1  0  0  0  0
 34 72  2  0  0  0  0
 35 60  1  0  0  0  0
 35 63  1  0  0  0  0
 35 73  2  0  0  0  0
 36 39  1  0  0  0  0
 37 46  1  0  0  0  0
 38 62  1  0  0  0  0
 39 41  1  0  0  0  0
 40 42  1  0  0  0  0
 40 43  1  0  0  0  0
 41 45  1  0  0  0  0
 42 47  1  0  0  0  0
 43 63  1  0  0  0  0
 44 47  1  0  0  0  0
 44 63  1  0  0  0  0
 45 66  1  0  0  0  0
 46 62  1  0  0  0  0
 47 61  1  0  0  0  0
 49 55  1  0  0  0  0
 50 57  1  0  0  0  0
 51 58  1  0  0  0  0
 52 58  1  0  0  0  0
 53 58  1  0  0  0  0
 54 68  1  0  0  0  0
 56 58  1  0  0  0  0
 56 67  1  0  0  0  0
 57 68  1  0  0  0  0
 59 61  1  0  0  0  0
M  CHG  1  68   1
M  ISO  4  29 101  35 100  60 100  75 101
M  END
> <Batch ID>
0087

> <Smiles>
CNC(C)C(=O)NC(C(=O)N1Cc2cc([101O:1][101CH:1]=CC(C)=C(C)[100NH:0][100C:0](=O)N3CCCC(n4nc(-c5ccc(Oc6ccc(F)cc6F)cc5)c(C(N)=O)c4N)C3)ccc2CC1C(=O)NC1CCCc2ccccc21)C(C)(C)C

> <Shape>
0.201

> <Color>
0.048

> <Negative vol penalty>
0.000

$$$$

  -OEChem-04052300203D

 86 95  0     1  0  0  0  0  0999 V2000
  -27.6898  -31.7937   14.9488 C   0  0  0  0  0  0  0  0  0  0  0  0
  -27.7350  -30.6601   15.7541 C   0  0  0  0  0  0  0  0  0  0  0  0
  -22.4245  -13.5572   20.1307 C   0  0  0  0  0  0  0  0  0  0  0  0
  -22.7827  -12.5571   22.3007 C   0  0  0  0  0  0  0  0  0  0  0  0
  -27.5981  -33.0574   15.5305 C   0  0  0  0  0  0  0  0  0  0  0  0
  -27.6896  -30.7899   17.1417 C   0  0  0  0  0  0  0  0  0  0  0  0
  -24.5300  -27.4730   19.3006 C   0  0  0  0  0  0  0  0  0  0  0  0
  -21.1355  -13.0252   20.0983 C   0  0  0  0  0  0  0  0  0  0  0  0
  -21.4936  -12.0251   22.2683 C   0  0  0  0  0  0  0  0  0  0  0  0
  -24.9838  -26.1627   19.4452 C   0  0  0  0  0  0  0  0  0  0  0  0
  -18.1103  -13.7430   21.4273 C   0  0  0  0  0  0  0  0  0  0  0  0
  -17.0740  -14.5797   21.0133 C   0  0  0  0  0  0  0  0  0  0  0  0
  -25.5082  -26.6059   21.7577 C   0  0  0  0  0  0  0  0  0  0  0  0
  -30.7146  -20.4026   17.9327 C   0  0  0  0  0  0  0  0  0  0  0  0
  -16.5836  -13.0709   19.1912 C   0  0  0  0  0  0  0  0  0  0  0  0
  -23.2481  -13.3231   21.2319 C   0  0  0  0  0  0  0  0  0  0  0  0
  -24.9709  -15.1234   21.7782 C   0  0  0  0  0  0  0  0  0  0  0  0
  -27.5418  -33.2021   16.9257 C   0  0  0  0  0  0  0  0  0  0  0  0
  -24.5721  -28.3643   20.3824 C   0  0  0  0  0  0  0  0  0  0  0  0
  -27.5984  -32.0568   17.7427 C   0  0  0  0  0  0  0  0  0  0  0  0
  -25.0519  -27.9262   21.6250 C   0  0  0  0  0  0  0  0  0  0  0  0
  -31.4632  -19.2361   17.6025 C   0  0  0  0  0  0  0  0  0  0  0  0
  -20.6700  -12.2592   21.1671 C   0  0  0  0  0  0  0  0  0  0  0  0
  -25.4757  -25.7298   20.6731 C   0  0  0  0  0  0  0  0  0  0  0  0
  -18.3834  -12.5702   20.7232 C   0  0  0  0  0  0  0  0  0  0  0  0
  -16.3106  -14.2437   19.8953 C   0  0  0  0  0  0  0  0  0  0  0  0
  -17.6201  -12.2341   19.6052 C   0  0  0  0  0  0  0  0  0  0  0  0
  -24.5800  -13.8719   21.2657 C   0  0  0  0  0  0  0  0  0  0  0  0
  -31.0191  -18.1256   18.2859 C   0  0  0  0  0  0  0  0  0  0  0  0
  -26.3287  -15.1684   21.5757 C   0  0  0  0  0  0  0  0  0  0  0  0
  -29.7265  -20.1390   18.8559 C   0  0  0  0  0  0  0  0  0  0  0  0
  -27.4732  -22.8083   20.0851 C   0  0  0  0  0  0  0  0  0  0  0  0
  -28.6029  -22.3709   19.2224 C   0  0  0  0  0  0  0  0  0  0  0  0
  -26.9575  -24.0386   20.0291 C   0  0  0  0  0  0  0  0  0  1  0  0
  -24.1777  -16.1532   22.3832 C   0  0  0  0  0  0  0  0  0  0  0  0
  -31.5184  -16.7274   18.2334 C   0  0  0  0  0  0  0  0  0  0  0  0
  -26.0463  -31.1200   20.9624 C   0  0  0  0  0  0  0  0  0  0  0  0
  -24.2558  -31.0609   23.6666 C   0  0  0  0  0  0  0  0  0  0  0  0
  -22.5279  -29.2134   25.9574 C   0  0  0  0  0  0  0  0  0  0  0  0
  -30.8169  -14.3624   18.4285 C   0  0  0  0  0  0  0  0  0  0  0  0
  -27.4906  -34.5916   17.5099 C   0  0  0  0  0  0  0  0  0  0  0  0
  -24.0539  -29.7667   20.2174 C   0  0  0  0  0  0  0  0  0  0  0  0
  -25.0994  -28.8379   22.8229 C   0  0  0  0  0  0  0  0  0  0  0  0
  -27.0256  -21.6876   20.9566 C   0  0  0  0  0  0  0  0  0  0  0  0
  -27.0697  -34.6204   18.9770 C   0  0  0  0  0  0  0  0  0  0  0  0
  -29.5735  -11.5446   20.1639 C   0  0  0  0  0  0  0  0  0  0  0  0
  -27.8317  -33.5648   19.7718 C   0  0  0  0  0  0  0  0  0  0  0  0
  -28.1976  -12.0018   20.6560 C   0  0  0  0  0  0  0  0  0  0  0  0
  -27.7459  -20.4847   20.3701 C   0  0  0  0  0  0  0  0  0  0  0  0
  -29.8880  -12.0896   18.7714 C   0  0  0  0  0  0  0  0  0  0  0  0
  -28.3686  -13.9956   19.1134 C   0  0  0  0  0  0  0  0  0  0  0  0
  -27.5265  -32.1551   19.2511 C   0  0  1  0  0  0  0  0  0  0  0  0
  -24.6213  -30.7384   21.2476 C   0  0  1  0  0  0  0  0  0  0  0  0
  -28.0347  -13.5307   20.5401 C   0  0  1  0  0  0  0  0  0  0  0  0
  -32.5864  -19.2332   16.6340 C   0  0  0  0  0  0  0  0  0  0  0  0
  -21.2040  -29.4410   28.0771 C   0  0  0  0  0  0  0  0  0  0  0  0
  -26.8428  -31.4450   25.2383 C   0  0  0  0  0  0  0  0  0  0  0  0
  -25.6171  -30.7211   27.2979 C   0  0  0  0  0  0  0  0  0  0  0  0
  -24.9021  -32.7782   26.0815 C   0  0  0  0  0  0  0  0  0  0  0  0
  -20.0912  -28.1100   24.6909 C   0  0  0  0  0  0  0  0  0  0  0  0
  -24.4421  -30.5116   25.0604 C   0  0  1  0  0  0  0  0  0  0  0  0
  -21.1451  -29.3910   26.5583 C   0  0  2  0  0  0  0  0  0  0  0  0
  -25.4521  -31.3471   25.8966 C   0  0  0  0  0  0  0  0  0  0  0  0
  -25.6063  -13.1724   20.7745 N   0  0  0  0  0  0  0  0  0  0  0  0
  -26.6556  -13.9872   20.9773 N   0  0  0  0  0  0  0  0  0  0  0  0
  -28.7571  -20.9988   19.4598 N   0  0  0  0  0  0  0  0  0  0  0  0
  -24.5874  -30.2016   22.6095 N   0  0  0  0  0  0  0  0  0  0  0  0
  -29.7196  -13.5437   18.7480 N   0  0  0  0  0  0  0  0  0  0  0  0
  -27.2628  -16.1027   21.8529 N   0  0  0  0  0  0  0  0  0  0  0  0
  -22.7980  -15.9440   22.5138 N   0  0  0  0  0  0  0  0  0  0  0  0
  -30.5649  -15.7380   18.4751 N   0  0  0  0  0  0  0  0  0  0  0  0
  -26.2344  -31.7094   19.7268 N   0  0  0  0  0  0  0  0  0  0  0  0
  -23.1090  -30.4245   25.6464 N   0  0  0  0  0  0  0  0  0  0  0  0
  -20.2581  -28.2618   26.1593 N   0  3  0  0  0  0  0  0  0  0  0  0
  -29.2106  -23.1254   18.4812 O   0  0  0  0  0  0  0  0  0  0  0  0
  -24.6752  -17.2339   22.7810 O   0  0  0  0  0  0  0  0  0  0  0  0
  -32.6956  -16.5230   17.9499 O   0  0  0  0  0  0  0  0  0  0  0  0
  -26.9109  -30.8976   21.8018 O   0  0  0  0  0  0  0  0  0  0  0  0
  -23.8250  -32.2076   23.5212 O   0  0  0  0  0  0  0  0  0  0  0  0
  -23.0426  -28.1108   25.7849 O   0  0  0  0  0  0  0  0  0  0  0  0
  -31.9345  -13.9093   18.1622 O   0  0  0  0  0  0  0  0  0  0  0  0
  -19.4122  -11.7401   21.1359 O   0  0  0  0  0  0  0  0  0  0  0  0
  -25.9198  -24.4515   20.8167 O   0  0  0  0  0  0  0  0  0  1  0  0
  -15.3144  -15.0465   19.4988 F   0  0  0  0  0  0  0  0  0  0  0  0
  -17.8769  -11.1082   18.9254 F   0  0  0  0  0  0  0  0  0  0  0  0
  -29.7046  -18.4911   19.3207 S   0  0  0  0  0  0  0  0  0  0  0  0
  1  2  1  0  0  0  0
  1  5  2  0  0  0  0
  2  6  2  0  0  0  0
  3  8  2  0  0  0  0
  3 16  1  0  0  0  0
  4  9  1  0  0  0  0
  4 16  2  0  0  0  0
  5 18  1  0  0  0  0
  6 20  1  0  0  0  0
  7 10  2  0  0  0  0
  7 19  1  0  0  0  0
  8 23  1  0  0  0  0
  9 23  2  0  0  0  0
 10 24  1  0  0  0  0
 11 12  2  0  0  0  0
 11 25  1  0  0  0  0
 12 26  1  0  0  0  0
 13 21  1  0  0  0  0
 13 24  2  0  0  0  0
 14 22  1  0  0  0  0
 14 31  2  0  0  0  0
 15 26  2  0  0  0  0
 15 27  1  0  0  0  0
 16 28  1  0  0  0  0
 17 28  1  0  0  0  0
 17 30  2  0  0  0  0
 17 35  1  0  0  0  0
 18 20  2  0  0  0  0
 18 41  1  0  0  0  0
 19 21  2  0  0  0  0
 19 42  1  0  0  0  0
 20 52  1  0  0  0  0
 21 43  1  0  0  0  0
 22 29  2  0  0  0  0
 22 55  1  0  0  0  0
 23 82  1  0  0  0  0
 24 83  1  0  0  0  0
 25 27  2  0  0  0  0
 25 82  1  0  0  0  0
 26 84  1  0  0  0  0
 27 85  1  0  0  0  0
 28 64  2  0  0  0  0
 29 36  1  0  0  0  0
 29 86  1  0  0  0  0
 30 65  1  0  0  0  0
 30 69  1  0  0  0  0
 31 66  1  0  0  0  0
 31 86  1  0  0  0  0
 32 33  1  0  0  0  0
 32 34  2  0  0  0  0
 32 44  1  0  0  0  0
 33 66  1  0  0  0  0
 33 75  2  0  0  0  0
 34 83  1  0  0  0  0
 35 70  1  0  0  0  0
 35 76  2  0  0  0  0
 36 71  1  0  0  0  0
 36 77  2  0  0  0  0
 37 53  1  0  0  0  0
 37 72  1  0  0  0  0
 37 78  2  0  0  0  0
 38 61  1  0  0  0  0
 38 67  1  0  0  0  0
 38 79  2  0  0  0  0
 39 62  1  0  0  0  0
 39 73  1  0  0  0  0
 39 80  2  0  0  0  0
 40 68  1  0  0  0  0
 40 71  1  0  0  0  0
 40 81  2  0  0  0  0
 41 45  1  0  0  0  0
 42 53  1  0  0  0  0
 43 67  1  0  0  0  0
 44 49  1  0  0  0  0
 45 47  1  0  0  0  0
 46 48  1  0  0  0  0
 46 50  1  0  0  0  0
 47 52  1  0  0  0  0
 48 54  1  0  0  0  0
 49 66  1  0  0  0  0
 50 68  1  0  0  0  0
 51 54  1  0  0  0  0
 51 68  1  0  0  0  0
 52 72  1  0  0  0  0
 53 67  1  0  0  0  0
 54 65  1  0  0  0  0
 56 62  1  0  0  0  0
 57 63  1  0  0  0  0
 58 63  1  0  0  0  0
 59 63  1  0  0  0  0
 60 74  1  0  0  0  0
 61 63  1  0  0  0  0
 61 73  1  0  0  0  0
 62 74  1  0  0  0  0
 64 65  1  0  0  0  0
M  CHG  1  74   1
M  ISO  4  34 101  40 100  71 100  83 101
M  END
> <Batch ID>
0087

> <Smiles>
CNC(C)C(=O)NC(C(=O)N1Cc2cc([101O:1][101CH:1]=C3CCN(c4cc(C)c(C(=O)[100NH:0][100C:0](=O)N5CCCC(n6nc(-c7ccc(Oc8ccc(F)cc8F)cc7)c(C(N)=O)c6N)C5)s4)C3=O)ccc2CC1C(=O)NC1CCCc2ccccc21)C(C)(C)C

> <Shape>
0.220

> <Color>
0.066

> <Negative vol penalty>
0.000

$$$$

  -OEChem-04052300203D

 87 96  0     1  0  0  0  0  0999 V2000
  -37.3149  -27.1843   21.2593 C   0  0  0  0  0  0  0  0  0  0  0  0
  -36.6553  -26.0410   21.6989 C   0  0  0  0  0  0  0  0  0  0  0  0
  -32.9795  -12.5974   25.7999 C   0  0  0  0  0  0  0  0  0  0  0  0
  -23.0788   -9.8965   19.9995 C   0  0  0  0  0  0  0  0  0  0  0  0
  -23.5217  -10.1053   22.3653 C   0  0  0  0  0  0  0  0  0  0  0  0
  -36.6318  -28.3976   21.1876 C   0  0  0  0  0  0  0  0  0  0  0  0
  -35.3124  -26.1106   22.0681 C   0  0  0  0  0  0  0  0  0  0  0  0
  -32.5810  -22.2809   20.1924 C   0  0  0  0  0  0  0  0  0  0  0  0
  -32.8969  -13.9861   25.9011 C   0  0  0  0  0  0  0  0  0  0  0  0
  -32.3702  -11.9384   24.7321 C   0  0  0  0  0  0  0  0  0  0  0  0
  -22.2601   -8.7953   20.2499 C   0  0  0  0  0  0  0  0  0  0  0  0
  -22.7029   -9.0041   22.6158 C   0  0  0  0  0  0  0  0  0  0  0  0
  -32.6865  -21.0486   20.8359 C   0  0  0  0  0  0  0  0  0  0  0  0
  -22.9263   -5.6365   22.4145 C   0  0  0  0  0  0  0  0  0  0  0  0
  -23.3955   -4.6688   23.3027 C   0  0  0  0  0  0  0  0  0  0  0  0
  -30.6105  -21.4785   21.9867 C   0  0  0  0  0  0  0  0  0  0  0  0
  -31.5954  -14.0569   23.8668 C   0  0  0  0  0  0  0  0  0  0  0  0
  -21.4881   -5.0574   24.7338 C   0  0  0  0  0  0  0  0  0  0  0  0
  -23.7096  -10.5514   21.0572 C   0  0  0  0  0  0  0  0  0  0  0  0
  -24.1706  -13.0418   20.7520 C   0  0  0  0  0  0  0  0  0  0  0  0
  -35.2772  -28.4801   21.5469 C   0  0  0  0  0  0  0  0  0  0  0  0
  -31.4931  -23.1275   20.4500 C   0  0  0  0  0  0  0  0  0  0  0  0
  -34.6109  -27.3264   22.0023 C   0  0  0  0  0  0  0  0  0  0  0  0
  -30.4922  -22.7199   21.3433 C   0  0  0  0  0  0  0  0  0  0  0  0
  -32.2048  -14.7159   24.9346 C   0  0  0  0  0  0  0  0  0  0  0  0
  -31.6781  -12.6682   23.7656 C   0  0  0  0  0  0  0  0  0  0  0  0
  -22.0721   -8.3491   21.5580 C   0  0  0  0  0  0  0  0  0  0  0  0
  -31.7027  -20.6485   21.7353 C   0  0  0  0  0  0  0  0  0  0  0  0
  -21.7380   -6.3148   22.6860 C   0  0  0  0  0  0  0  0  0  0  0  0
  -22.6764   -4.3792   24.4623 C   0  0  0  0  0  0  0  0  0  0  0  0
  -21.0189   -6.0252   23.8456 C   0  0  0  0  0  0  0  0  0  0  0  0
  -24.5559  -11.6887   20.7991 C   0  0  0  0  0  0  0  0  0  0  0  0
  -25.3323  -13.7203   20.4755 C   0  0  0  0  0  0  0  0  0  0  0  0
  -31.9615  -18.3107   24.4575 C   0  0  0  0  0  0  0  0  0  0  0  0
  -32.0269  -18.2443   25.9239 C   0  0  0  0  0  0  0  0  0  0  0  0
  -32.0230  -16.9426   23.9044 C   0  0  0  0  0  0  0  0  0  0  0  0
  -30.0907  -10.1924   23.9199 C   0  0  0  0  0  0  0  0  0  0  0  0
  -31.8612  -19.4383   23.7306 C   0  0  0  0  0  0  0  0  0  1  0  0
  -30.5579  -10.6918   22.7735 C   0  0  0  0  0  0  0  0  0  0  0  0
  -22.8780  -13.6327   20.9414 C   0  0  0  0  0  0  0  0  0  0  0  0
  -31.1610  -26.0489   21.6578 C   0  0  0  0  0  0  0  0  0  0  0  0
  -28.0579  -25.6222   20.8147 C   0  0  0  0  0  0  0  0  0  0  0  0
  -25.5118  -23.4532   20.1364 C   0  0  0  0  0  0  0  0  0  0  0  0
  -31.0674  -12.5921   21.3753 C   0  0  0  0  0  0  0  0  0  0  0  0
  -34.5937  -29.8236   21.4976 C   0  0  0  0  0  0  0  0  0  0  0  0
  -31.3803  -24.4420   19.7276 C   0  0  0  0  0  0  0  0  0  0  0  0
  -29.2939  -23.5831   21.6392 C   0  0  0  0  0  0  0  0  0  0  0  0
  -32.1344  -16.8049   26.3327 C   0  0  0  0  0  0  0  0  0  0  0  0
  -33.0707  -29.7344   21.5507 C   0  0  0  0  0  0  0  0  0  0  0  0
  -29.5491  -13.2098   18.2928 C   0  0  0  0  0  0  0  0  0  0  0  0
  -32.6302  -28.7756   22.6522 C   0  0  0  0  0  0  0  0  0  0  0  0
  -28.0586  -13.0167   18.5703 C   0  0  0  0  0  0  0  0  0  0  0  0
  -30.3822  -12.1664   19.0283 C   0  0  0  0  0  0  0  0  0  0  0  0
  -28.6664  -11.9520   20.7985 C   0  0  0  0  0  0  0  0  0  0  0  0
  -33.1479  -27.3565   22.3880 C   0  0  1  0  0  0  0  0  0  0  0  0
  -30.4928  -25.4484   20.4534 C   0  0  1  0  0  0  0  0  0  0  0  0
  -27.7775  -12.9890   20.0830 C   0  0  2  0  0  0  0  0  0  0  0  0
  -23.0812  -23.4013   19.5147 C   0  0  0  0  0  0  0  0  0  0  0  0
  -27.3105  -26.3294   23.6872 C   0  0  0  0  0  0  0  0  0  0  0  0
  -25.0438  -25.3543   23.2638 C   0  0  0  0  0  0  0  0  0  0  0  0
  -25.8177  -27.3255   21.9455 C   0  0  0  0  0  0  0  0  0  0  0  0
  -26.0729  -22.0463   17.5938 C   0  0  0  0  0  0  0  0  0  0  0  0
  -26.8340  -25.0552   21.4928 C   0  0  1  0  0  0  0  0  0  0  0  0
  -24.5109  -23.3998   18.9964 C   0  0  2  0  0  0  0  0  0  0  0  0
  -26.2749  -26.0004   22.5934 C   0  0  0  0  0  0  0  0  0  0  0  0
  -25.8605  -11.5158   20.5706 N   0  0  0  0  0  0  0  0  0  0  0  0
  -26.3050  -12.7693   20.3772 N   0  0  0  0  0  0  0  0  0  0  0  0
  -32.1230  -16.1028   25.0361 N   0  0  0  0  0  0  0  0  0  0  0  0
  -29.2320  -24.8621   20.9126 N   0  0  0  0  0  0  0  0  0  0  0  0
  -30.0828  -12.1682   20.4606 N   0  0  0  0  0  0  0  0  0  0  0  0
  -25.6065  -15.0316   20.3092 N   0  0  0  0  0  0  0  0  0  0  0  0
  -21.7924  -12.7905   21.2182 N   0  0  0  0  0  0  0  0  0  0  0  0
  -32.3438  -26.7054   21.3761 N   0  0  0  0  0  0  0  0  0  0  0  0
  -25.8835  -24.7483   20.4294 N   0  0  0  0  0  0  0  0  0  0  0  0
  -31.0457  -11.9833   22.6571 N   0  0  0  0  0  0  0  0  0  0  0  0
  -24.7153  -22.1665   18.1850 N   0  3  0  0  0  0  0  0  0  0  0  0
  -31.9990  -19.1987   26.6817 O   0  0  0  0  0  0  0  0  0  0  0  0
  -31.9916  -16.6454   22.7230 O   0  0  0  0  0  0  0  0  0  0  0  0
  -22.6882  -14.8694   20.8511 O   0  0  0  0  0  0  0  0  0  0  0  0
  -30.6412  -25.9269   22.7608 O   0  0  0  0  0  0  0  0  0  0  0  0
  -27.9734  -26.6963   20.2141 O   0  0  0  0  0  0  0  0  0  0  0  0
  -25.9201  -22.4470   20.7121 O   0  0  0  0  0  0  0  0  0  0  0  0
  -31.9199  -13.4360   21.0697 O   0  0  0  0  0  0  0  0  0  0  0  0
  -21.2731   -7.2747   21.8028 O   0  0  0  0  0  0  0  0  0  0  0  0
  -31.8036  -19.4464   22.3652 O   0  0  0  0  0  0  0  0  0  1  0  0
  -23.1263   -3.4488   25.3144 F   0  0  0  0  0  0  0  0  0  0  0  0
  -19.8761   -6.6727   24.1111 F   0  0  0  0  0  0  0  0  0  0  0  0
  1  2  1  0  0  0  0
  1  6  2  0  0  0  0
  2  7  2  0  0  0  0
  3  9  1  0  0  0  0
  3 10  2  0  0  0  0
  4 11  2  0  0  0  0
  4 19  1  0  0  0  0
  5 12  1  0  0  0  0
  5 19  2  0  0  0  0
  6 21  1  0  0  0  0
  7 23  1  0  0  0  0
  8 13  2  0  0  0  0
  8 22  1  0  0  0  0
  9 25  2  0  0  0  0
 10 26  1  0  0  0  0
 11 27  1  0  0  0  0
 12 27  2  0  0  0  0
 13 28  1  0  0  0  0
 14 15  2  0  0  0  0
 14 29  1  0  0  0  0
 15 30  1  0  0  0  0
 16 24  1  0  0  0  0
 16 28  2  0  0  0  0
 17 25  1  0  0  0  0
 17 26  2  0  0  0  0
 18 30  2  0  0  0  0
 18 31  1  0  0  0  0
 19 32  1  0  0  0  0
 20 32  1  0  0  0  0
 20 33  2  0  0  0  0
 20 40  1  0  0  0  0
 21 23  2  0  0  0  0
 21 45  1  0  0  0  0
 22 24  2  0  0  0  0
 22 46  1  0  0  0  0
 23 55  1  0  0  0  0
 24 47  1  0  0  0  0
 25 68  1  0  0  0  0
 26 75  1  0  0  0  0
 27 84  1  0  0  0  0
 28 85  1  0  0  0  0
 29 31  2  0  0  0  0
 29 84  1  0  0  0  0
 30 86  1  0  0  0  0
 31 87  1  0  0  0  0
 32 66  2  0  0  0  0
 33 67  1  0  0  0  0
 33 71  1  0  0  0  0
 34 35  1  0  0  0  0
 34 36  1  0  0  0  0
 34 38  2  0  0  0  0
 35 48  1  0  0  0  0
 35 77  2  0  0  0  0
 36 68  1  0  0  0  0
 36 78  2  0  0  0  0
 37 39  2  0  0  0  0
 38 85  1  0  0  0  0
 39 75  1  0  0  0  0
 40 72  1  0  0  0  0
 40 79  2  0  0  0  0
 41 56  1  0  0  0  0
 41 73  1  0  0  0  0
 41 80  2  0  0  0  0
 42 63  1  0  0  0  0
 42 69  1  0  0  0  0
 42 81  2  0  0  0  0
 43 64  1  0  0  0  0
 43 74  1  0  0  0  0
 43 82  2  0  0  0  0
 44 70  1  0  0  0  0
 44 75  1  0  0  0  0
 44 83  2  0  0  0  0
 45 49  1  0  0  0  0
 46 56  1  0  0  0  0
 47 69  1  0  0  0  0
 48 68  1  0  0  0  0
 49 51  1  0  0  0  0
 50 52  1  0  0  0  0
 50 53  1  0  0  0  0
 51 55  1  0  0  0  0
 52 57  1  0  0  0  0
 53 70  1  0  0  0  0
 54 57  1  0  0  0  0
 54 70  1  0  0  0  0
 55 73  1  0  0  0  0
 56 69  1  0  0  0  0
 57 67  1  0  0  0  0
 58 64  1  0  0  0  0
 59 65  1  0  0  0  0
 60 65  1  0  0  0  0
 61 65  1  0  0  0  0
 62 76  1  0  0  0  0
 63 65  1  0  0  0  0
 63 74  1  0  0  0  0
 64 76  1  0  0  0  0
 66 67  1  0  0  0  0
M  CHG  1  76   1
M  ISO  4  38 101  44 100  75 100  85 101
M  END
> <Batch ID>
0087

> <Smiles>
C=C[100N:0](c1cccc(N2CC(=O)C(=[101CH:1][101O:1]c3ccc4c(c3)CN(C(=O)C(NC(=O)C(C)NC)C(C)(C)C)C(C(=O)NC3CCCc5ccccc53)C4)C2=O)c1)[100C:0](=O)N1CCCC(n2nc(-c3ccc(Oc4ccc(F)cc4F)cc3)c(C(N)=O)c2N)C1

> <Shape>
0.187

> <Color>
0.196

> <Negative vol penalty>
0.000

$$$$

  -OEChem-04052300203D

 88 97  0     1  0  0  0  0  0999 V2000
  -27.2151  -34.9813   13.8196 C   0  0  0  0  0  0  0  0  0  0  0  0
  -26.9409  -33.6653   14.1781 C   0  0  0  0  0  0  0  0  0  0  0  0
  -22.9303  -10.9030   19.1730 C   0  0  0  0  0  0  0  0  0  0  0  0
  -23.2578   -9.7382   21.2642 C   0  0  0  0  0  0  0  0  0  0  0  0
  -29.4423  -19.7617   20.5277 C   0  0  0  0  0  0  0  0  0  0  0  0
  -27.9575  -35.7952   14.6743 C   0  0  0  0  0  0  0  0  0  0  0  0
  -27.4100  -33.1622   15.3911 C   0  0  0  0  0  0  0  0  0  0  0  0
  -24.6143  -29.0951   19.0172 C   0  0  0  0  0  0  0  0  0  0  0  0
  -28.4888  -20.7780   20.5877 C   0  0  0  0  0  0  0  0  0  0  0  0
  -21.9911   -9.9465   18.7873 C   0  0  0  0  0  0  0  0  0  0  0  0
  -22.3186   -8.7817   20.8786 C   0  0  0  0  0  0  0  0  0  0  0  0
  -24.7684  -27.7186   19.1764 C   0  0  0  0  0  0  0  0  0  0  0  0
  -22.2098   -6.0667   18.8668 C   0  0  0  0  0  0  0  0  0  0  0  0
  -22.5273   -4.7249   19.0773 C   0  0  0  0  0  0  0  0  0  0  0  0
  -26.2381  -28.1059   21.0497 C   0  0  0  0  0  0  0  0  0  0  0  0
  -24.4060  -22.7211   20.4407 C   0  0  0  0  0  0  0  0  0  0  0  0
  -26.9668  -19.4270   19.2856 C   0  0  0  0  0  0  0  0  0  0  0  0
  -20.5915   -4.4905   20.5038 C   0  0  0  0  0  0  0  0  0  0  0  0
  -23.5637  -10.7988   20.4115 C   0  0  0  0  0  0  0  0  0  0  0  0
  -29.1581  -18.5781   19.8465 C   0  0  0  0  0  0  0  0  0  0  0  0
  -24.2916  -12.9811   21.5139 C   0  0  0  0  0  0  0  0  0  0  0  0
  -28.4276  -35.3046   15.9027 C   0  0  0  0  0  0  0  0  0  0  0  0
  -25.2806  -29.9890   19.8677 C   0  0  0  0  0  0  0  0  0  0  0  0
  -28.1605  -33.9698   16.2623 C   0  0  0  0  0  0  0  0  0  0  0  0
  -26.0887  -29.4932   20.9009 C   0  0  0  0  0  0  0  0  0  0  0  0
  -25.3037  -23.6033   19.7903 C   0  0  0  0  0  0  0  0  0  0  0  0
  -27.2511  -20.6107   19.9667 C   0  0  0  0  0  0  0  0  0  0  0  0
  -21.6853   -8.8859   19.6401 C   0  0  0  0  0  0  0  0  0  0  0  0
  -25.5827  -27.2239   20.1909 C   0  0  0  0  0  0  0  0  0  0  0  0
  -21.0831   -6.6204   19.4748 C   0  0  0  0  0  0  0  0  0  0  0  0
  -21.7182   -3.9368   19.8957 C   0  0  0  0  0  0  0  0  0  0  0  0
  -27.9204  -18.4107   19.2255 C   0  0  0  0  0  0  0  0  0  0  0  0
  -20.2740   -5.8324   20.2933 C   0  0  0  0  0  0  0  0  0  0  0  0
  -24.5343  -11.7862   20.8102 C   0  0  0  0  0  0  0  0  0  0  0  0
  -26.4639  -22.9024   19.5452 C   0  0  0  0  0  0  0  0  0  0  0  0
  -25.5301  -13.5607   21.6438 C   0  0  0  0  0  0  0  0  0  0  0  0
  -25.0450  -21.5081   20.5734 C   0  0  0  0  0  0  0  0  0  0  0  0
  -30.1755  -17.4974   19.7847 C   0  0  0  0  0  0  0  0  0  0  0  0
  -23.0572  -13.5189   22.0063 C   0  0  0  0  0  0  0  0  0  0  0  0
  -27.4644  -32.2633   19.4649 C   0  0  0  0  0  0  0  0  0  0  0  0
  -26.9057  -32.8147   22.6123 C   0  0  0  0  0  0  0  0  0  0  0  0
  -25.8238  -31.6113   25.6170 C   0  0  0  0  0  0  0  0  0  0  0  0
  -30.4561  -15.0466   19.5886 C   0  0  0  0  0  0  0  0  0  0  0  0
  -29.2663  -36.2078   16.7719 C   0  0  0  0  0  0  0  0  0  0  0  0
  -25.0827  -31.4705   19.6997 C   0  0  0  0  0  0  0  0  0  0  0  0
  -26.8098  -30.4105   21.8533 C   0  0  0  0  0  0  0  0  0  0  0  0
  -29.4075  -35.7112   18.2085 C   0  0  0  0  0  0  0  0  0  0  0  0
  -30.1512  -11.7085   20.7118 C   0  0  0  0  0  0  0  0  0  0  0  0
  -29.7466  -34.2241   18.2284 C   0  0  0  0  0  0  0  0  0  0  0  0
  -28.6429  -11.5286   20.9042 C   0  0  0  0  0  0  0  0  0  0  0  0
  -30.4687  -12.5695   19.4900 C   0  0  0  0  0  0  0  0  0  0  0  0
  -28.2792  -13.6841   19.6371 C   0  0  0  0  0  0  0  0  0  0  0  0
  -28.6308  -33.3951   17.5809 C   0  0  1  0  0  0  0  0  0  0  0  0
  -26.2159  -32.2967   20.3003 C   0  0  1  0  0  0  0  0  0  0  0  0
  -27.9060  -12.8830   20.8949 C   0  0  1  0  0  0  0  0  0  0  0  0
  -27.7158  -23.3471   18.8922 C   0  0  0  0  0  0  0  0  0  0  0  0
  -25.5208  -32.2852   28.0152 C   0  0  0  0  0  0  0  0  0  0  0  0
  -29.9119  -32.5512   23.0636 C   0  0  0  0  0  0  0  0  0  0  0  0
  -29.4506  -32.2811   25.5095 C   0  0  0  0  0  0  0  0  0  0  0  0
  -28.8218  -34.3983   24.3499 C   0  0  0  0  0  0  0  0  0  0  0  0
  -22.9019  -31.1561   25.4967 C   0  0  0  0  0  0  0  0  0  0  0  0
  -25.0320  -25.0362   19.4380 C   0  0  0  0  0  0  0  0  0  1  0  0
  -27.4849  -32.2985   23.9073 C   0  0  1  0  0  0  0  0  0  0  0  0
  -24.8664  -32.1849   26.6460 C   0  0  2  0  0  0  0  0  0  0  0  0
  -28.9054  -32.8648   24.1886 C   0  0  0  0  0  0  0  0  0  0  0  0
  -25.8254  -11.6156   20.5135 N   0  0  0  0  0  0  0  0  0  0  0  0
  -26.2953  -21.6301   20.0258 N   0  0  0  0  0  0  0  0  0  0  0  0
  -26.4051  -12.7110   21.0333 N   0  0  0  0  0  0  0  0  0  0  0  0
  -26.5894  -31.8510   21.6442 N   0  0  0  0  0  0  0  0  0  0  0  0
  -29.7399  -13.8372   19.5620 N   0  0  0  0  0  0  0  0  0  0  0  0
  -25.9450  -14.7091   22.2193 N   0  0  0  0  0  0  0  0  0  0  0  0
  -21.8778  -12.7943   21.7866 N   0  0  0  0  0  0  0  0  0  0  0  0
  -29.6709  -16.1993   19.7012 N   0  0  0  0  0  0  0  0  0  0  0  0
  -27.5180  -33.2450   18.4938 N   0  0  0  0  0  0  0  0  0  0  0  0
  -26.5041  -32.6036   24.9434 N   0  0  0  0  0  0  0  0  0  0  0  0
  -23.6568  -31.3227   26.7653 N   0  3  0  0  0  0  0  0  0  0  0  0
  -31.3662  -17.7971   19.7705 O   0  0  0  0  0  0  0  0  0  0  0  0
  -22.9993  -14.6178   22.6086 O   0  0  0  0  0  0  0  0  0  0  0  0
  -28.3167  -31.4110   19.6859 O   0  0  0  0  0  0  0  0  0  0  0  0
  -26.7334  -34.0275   22.4678 O   0  0  0  0  0  0  0  0  0  0  0  0
  -25.9576  -30.4037   25.4319 O   0  0  0  0  0  0  0  0  0  0  0  0
  -31.6897  -15.0944   19.5538 O   0  0  0  0  0  0  0  0  0  0  0  0
  -24.6266  -20.3690   21.1121 O   0  0  0  0  0  0  0  0  0  0  0  0
  -20.7687   -7.9525   19.2642 O   0  0  0  0  0  0  0  0  0  0  0  0
  -25.7354  -25.8808   20.3481 O   0  0  0  0  0  0  0  0  0  1  0  0
  -22.0225   -2.6479   20.0966 F   0  0  0  0  0  0  0  0  0  0  0  0
  -27.6368  -17.2771   18.5686 F   0  0  0  0  0  0  0  0  0  0  0  0
  -19.1897   -6.3584   20.8792 F   0  0  0  0  0  0  0  0  0  0  0  0
  1  2  1  0  0  0  0
  1  6  2  0  0  0  0
  2  7  2  0  0  0  0
  3 10  2  0  0  0  0
  3 19  1  0  0  0  0
  4 11  1  0  0  0  0
  4 19  2  0  0  0  0
  5  9  2  0  0  0  0
  5 20  1  0  0  0  0
  6 22  1  0  0  0  0
  7 24  1  0  0  0  0
  8 12  2  0  0  0  0
  8 23  1  0  0  0  0
  9 27  1  0  0  0  0
 10 28  1  0  0  0  0
 11 28  2  0  0  0  0
 12 29  1  0  0  0  0
 13 14  2  0  0  0  0
 13 30  1  0  0  0  0
 14 31  1  0  0  0  0
 15 25  1  0  0  0  0
 15 29  2  0  0  0  0
 16 26  1  0  0  0  0
 16 37  2  0  0  0  0
 17 27  2  0  0  0  0
 17 32  1  0  0  0  0
 18 31  2  0  0  0  0
 18 33  1  0  0  0  0
 19 34  1  0  0  0  0
 20 32  2  0  0  0  0
 20 38  1  0  0  0  0
 21 34  1  0  0  0  0
 21 36  2  0  0  0  0
 21 39  1  0  0  0  0
 22 24  2  0  0  0  0
 22 44  1  0  0  0  0
 23 25  2  0  0  0  0
 23 45  1  0  0  0  0
 24 53  1  0  0  0  0
 25 46  1  0  0  0  0
 26 35  2  0  0  0  0
 26 62  1  0  0  0  0
 27 67  1  0  0  0  0
 28 84  1  0  0  0  0
 29 85  1  0  0  0  0
 30 33  2  0  0  0  0
 30 84  1  0  0  0  0
 31 86  1  0  0  0  0
 32 87  1  0  0  0  0
 33 88  1  0  0  0  0
 34 66  2  0  0  0  0
 35 56  1  0  0  0  0
 35 67  1  0  0  0  0
 36 68  1  0  0  0  0
 36 71  1  0  0  0  0
 37 67  1  0  0  0  0
 37 83  1  0  0  0  0
 38 73  1  0  0  0  0
 38 77  2  0  0  0  0
 39 72  1  0  0  0  0
 39 78  2  0  0  0  0
 40 54  1  0  0  0  0
 40 74  1  0  0  0  0
 40 79  2  0  0  0  0
 41 63  1  0  0  0  0
 41 69  1  0  0  0  0
 41 80  2  0  0  0  0
 42 64  1  0  0  0  0
 42 75  1  0  0  0  0
 42 81  2  0  0  0  0
 43 70  1  0  0  0  0
 43 73  1  0  0  0  0
 43 82  2  0  0  0  0
 44 47  1  0  0  0  0
 45 54  1  0  0  0  0
 46 69  1  0  0  0  0
 47 49  1  0  0  0  0
 48 50  1  0  0  0  0
 48 51  1  0  0  0  0
 49 53  1  0  0  0  0
 50 55  1  0  0  0  0
 51 70  1  0  0  0  0
 52 55  1  0  0  0  0
 52 70  1  0  0  0  0
 53 74  1  0  0  0  0
 54 69  1  0  0  0  0
 55 68  1  0  0  0  0
 57 64  1  0  0  0  0
 58 65  1  0  0  0  0
 59 65  1  0  0  0  0
 60 65  1  0  0  0  0
 61 76  1  0  0  0  0
 62 85  1  0  0  0  0
 63 65  1  0  0  0  0
 63 75  1  0  0  0  0
 64 76  1  0  0  0  0
 66 68  1  0  0  0  0
M  CHG  1  76   1
M  ISO  4  43 100  62 101  73 100  85 101
M  END
> <Batch ID>
0087

> <Smiles>
CNC(C)C(=O)NC(C(=O)N1Cc2cc([101O:1][101CH2:1]C3=C(C)N(c4ccc(C(=O)[100NH:0][100C:0](=O)N5CCCC(n6nc(-c7ccc(Oc8ccc(F)cc8F)cc7)c(C(N)=O)c6N)C5)c(F)c4)C(=O)C3)ccc2CC1C(=O)NC1CCCc2ccccc21)C(C)(C)C

> <Shape>
0.261

> <Color>
0.111

> <Negative vol penalty>
0.000

$$$$

  -OEChem-04052300203D

 87 96  0     1  0  0  0  0  0999 V2000
  -23.1948  -33.4499   15.1429 C   0  0  0  0  0  0  0  0  0  0  0  0
  -23.9251  -32.2681   15.2165 C   0  0  0  0  0  0  0  0  0  0  0  0
  -23.2544   -9.5930   20.6378 C   0  0  0  0  0  0  0  0  0  0  0  0
  -23.2401  -11.2985   22.3490 C   0  0  0  0  0  0  0  0  0  0  0  0
  -23.2108  -34.3455   16.2113 C   0  0  0  0  0  0  0  0  0  0  0  0
  -24.6727  -31.9817   16.3582 C   0  0  0  0  0  0  0  0  0  0  0  0
  -25.6535  -26.4643   18.8285 C   0  0  0  0  0  0  0  0  0  0  0  0
  -31.8701  -18.9658   20.3566 C   0  0  0  0  0  0  0  0  0  0  0  0
  -31.5204  -17.6229   20.2152 C   0  0  0  0  0  0  0  0  0  0  0  0
  -22.3668   -8.8272   21.3937 C   0  0  0  0  0  0  0  0  0  0  0  0
  -22.3525  -10.5327   23.1049 C   0  0  0  0  0  0  0  0  0  0  0  0
  -26.7243  -25.5755   18.7435 C   0  0  0  0  0  0  0  0  0  0  0  0
  -22.5085   -6.7723   24.0736 C   0  0  0  0  0  0  0  0  0  0  0  0
  -22.7763   -5.4094   24.2017 C   0  0  0  0  0  0  0  0  0  0  0  0
  -27.6111  -26.4559   20.8069 C   0  0  0  0  0  0  0  0  0  0  0  0
  -29.7015  -19.6191   19.5155 C   0  0  0  0  0  0  0  0  0  0  0  0
  -20.6545   -4.8952   23.1669 C   0  0  0  0  0  0  0  0  0  0  0  0
  -23.6911  -10.8287   21.1155 C   0  0  0  0  0  0  0  0  0  0  0  0
  -24.2842  -12.5891   19.3671 C   0  0  0  0  0  0  0  0  0  0  0  0
  -23.9512  -34.0655   17.3706 C   0  0  0  0  0  0  0  0  0  0  0  0
  -25.5591  -27.3647   19.8995 C   0  0  0  0  0  0  0  0  0  0  0  0
  -24.6997  -32.8751   17.4426 C   0  0  0  0  0  0  0  0  0  0  0  0
  -26.5368  -27.3534   20.9045 C   0  0  0  0  0  0  0  0  0  0  0  0
  -30.9607  -19.9639   20.0067 C   0  0  0  0  0  0  0  0  0  0  0  0
  -30.2613  -17.2781   19.7240 C   0  0  0  0  0  0  0  0  0  0  0  0
  -21.9159   -9.2970   22.6272 C   0  0  0  0  0  0  0  0  0  0  0  0
  -27.7048  -25.5731   19.7313 C   0  0  0  0  0  0  0  0  0  0  0  0
  -21.3137   -7.1967   23.4922 C   0  0  0  0  0  0  0  0  0  0  0  0
  -21.8493   -4.4709   23.7483 C   0  0  0  0  0  0  0  0  0  0  0  0
  -29.3518  -18.2762   19.3741 C   0  0  0  0  0  0  0  0  0  0  0  0
  -20.3867   -6.2582   23.0388 C   0  0  0  0  0  0  0  0  0  0  0  0
  -24.6083  -11.6200   20.3354 C   0  0  0  0  0  0  0  0  0  0  0  0
  -25.4992  -13.0483   18.9207 C   0  0  0  0  0  0  0  0  0  0  0  0
  -32.0622  -24.0195   20.3286 C   0  0  0  0  0  0  0  0  0  0  0  0
  -32.6447  -21.7081   20.0199 C   0  0  0  0  0  0  0  0  0  0  0  0
  -30.7629  -23.7258   20.4732 C   0  0  0  0  0  0  0  0  0  0  0  0
  -33.0304  -22.9844   20.1068 C   0  0  0  0  0  0  0  0  0  0  0  0
  -30.3133  -22.2862   20.4225 C   0  0  0  0  0  0  0  0  0  0  0  0
  -22.9996  -13.0344   18.9119 C   0  0  0  0  0  0  0  0  0  0  0  0
  -25.5405  -30.5315   20.1727 C   0  0  0  0  0  0  0  0  0  0  0  0
  -24.9167  -29.8694   23.2864 C   0  0  0  0  0  0  0  0  0  0  0  0
  -25.1215  -27.6547   25.8748 C   0  0  0  0  0  0  0  0  0  0  0  0
  -30.6958  -14.8017   19.8821 C   0  0  0  0  0  0  0  0  0  0  0  0
  -23.9756  -35.0862   18.4807 C   0  0  0  0  0  0  0  0  0  0  0  0
  -24.3838  -28.2988   19.9906 C   0  0  0  0  0  0  0  0  0  0  0  0
  -26.4710  -28.2860   22.0854 C   0  0  0  0  0  0  0  0  0  0  0  0
  -24.4937  -34.5329   19.8057 C   0  0  0  0  0  0  0  0  0  0  0  0
  -30.1780  -11.2835   19.7056 C   0  0  0  0  0  0  0  0  0  0  0  0
  -25.7671  -33.7228   19.5845 C   0  0  0  0  0  0  0  0  0  0  0  0
  -28.6562  -11.1371   19.7741 C   0  0  0  0  0  0  0  0  0  0  0  0
  -30.6789  -12.4209   20.5939 C   0  0  0  0  0  0  0  0  0  0  0  0
  -28.5061  -13.5714   20.4365 C   0  0  0  0  0  0  0  0  0  0  0  0
  -25.5031  -32.5174   18.6742 C   0  0  1  0  0  0  0  0  0  0  0  0
  -24.6600  -29.5240   20.8565 C   0  0  1  0  0  0  0  0  0  0  0  0
  -27.9483  -12.4802   19.5082 C   0  0  2  0  0  0  0  0  0  0  0  0
  -24.5592  -27.4114   28.3083 C   0  0  0  0  0  0  0  0  0  0  0  0
  -27.2886  -31.6474   24.0097 C   0  0  0  0  0  0  0  0  0  0  0  0
  -27.2672  -30.6267   26.2957 C   0  0  0  0  0  0  0  0  0  0  0  0
  -25.2914  -31.9190   25.4903 C   0  0  0  0  0  0  0  0  0  0  0  0
  -23.3240  -25.3630   25.3495 C   0  0  0  0  0  0  0  0  0  0  0  0
  -29.7197  -24.7589   20.6972 C   0  0  0  0  0  0  0  0  0  1  0  0
  -25.7568  -29.6321   24.5180 C   0  0  1  0  0  0  0  0  0  0  0  0
  -24.0873  -27.1827   26.8808 C   0  0  2  0  0  0  0  0  0  0  0  0
  -26.4036  -30.9399   25.0553 C   0  0  0  0  0  0  0  0  0  0  0  0
  -25.9260  -11.4714   20.4952 N   0  0  0  0  0  0  0  0  0  0  0  0
  -26.4406  -12.3532   19.6212 N   0  0  0  0  0  0  0  0  0  0  0  0
  -31.3128  -21.3160   20.1484 N   0  0  0  0  0  0  0  0  0  0  0  0
  -25.3057  -29.1848   22.1263 N   0  0  0  0  0  0  0  0  0  0  0  0
  -29.9666  -13.6622   20.2827 N   0  0  0  0  0  0  0  0  0  0  0  0
  -25.8435  -13.9747   18.0012 N   0  0  0  0  0  0  0  0  0  0  0  0
  -21.8538  -12.4575   19.4764 N   0  0  0  0  0  0  0  0  0  0  0  0
  -29.9091  -15.9131   19.5810 N   0  0  0  0  0  0  0  0  0  0  0  0
  -24.8511  -31.4583   19.4143 N   0  0  0  0  0  0  0  0  0  0  0  0
  -24.8917  -28.9551   25.4780 N   0  0  0  0  0  0  0  0  0  0  0  0
  -23.8175  -25.7280   26.7024 N   0  3  0  0  0  0  0  0  0  0  0  0
  -29.1238  -22.0150   20.5968 O   0  0  0  0  0  0  0  0  0  0  0  0
  -22.8717  -13.9061   18.0190 O   0  0  0  0  0  0  0  0  0  0  0  0
  -26.7552  -30.4731   20.3233 O   0  0  0  0  0  0  0  0  0  0  0  0
  -23.9467  -30.6286   23.3531 O   0  0  0  0  0  0  0  0  0  0  0  0
  -26.0434  -26.9425   25.4832 O   0  0  0  0  0  0  0  0  0  0  0  0
  -31.9255  -14.7842   19.7851 O   0  0  0  0  0  0  0  0  0  0  0  0
  -34.3324  -23.4045   19.9846 O   0  0  0  0  0  0  0  0  0  0  0  0
  -21.0497   -8.5501   23.3650 O   0  0  0  0  0  0  0  0  0  0  0  0
  -28.7513  -24.7070   19.6504 O   0  0  0  0  0  0  0  0  0  1  0  0
  -22.1073   -3.1621   23.8700 F   0  0  0  0  0  0  0  0  0  0  0  0
  -28.1393  -17.9565   18.8994 F   0  0  0  0  0  0  0  0  0  0  0  0
  -19.2377   -6.6598   22.4783 F   0  0  0  0  0  0  0  0  0  0  0  0
  1  2  1  0  0  0  0
  1  5  2  0  0  0  0
  2  6  2  0  0  0  0
  3 10  2  0  0  0  0
  3 18  1  0  0  0  0
  4 11  1  0  0  0  0
  4 18  2  0  0  0  0
  5 20  1  0  0  0  0
  6 22  1  0  0  0  0
  7 12  2  0  0  0  0
  7 21  1  0  0  0  0
  8  9  2  0  0  0  0
  8 24  1  0  0  0  0
  9 25  1  0  0  0  0
 10 26  1  0  0  0  0
 11 26  2  0  0  0  0
 12 27  1  0  0  0  0
 13 14  2  0  0  0  0
 13 28  1  0  0  0  0
 14 29  1  0  0  0  0
 15 23  1  0  0  0  0
 15 27  2  0  0  0  0
 16 24  2  0  0  0  0
 16 30  1  0  0  0  0
 17 29  2  0  0  0  0
 17 31  1  0  0  0  0
 18 32  1  0  0  0  0
 19 32  1  0  0  0  0
 19 33  2  0  0  0  0
 19 39  1  0  0  0  0
 20 22  2  0  0  0  0
 20 44  1  0  0  0  0
 21 23  2  0  0  0  0
 21 45  1  0  0  0  0
 22 53  1  0  0  0  0
 23 46  1  0  0  0  0
 24 67  1  0  0  0  0
 25 30  2  0  0  0  0
 25 72  1  0  0  0  0
 26 83  1  0  0  0  0
 27 84  1  0  0  0  0
 28 31  2  0  0  0  0
 28 83  1  0  0  0  0
 29 85  1  0  0  0  0
 30 86  1  0  0  0  0
 31 87  1  0  0  0  0
 32 65  2  0  0  0  0
 33 66  1  0  0  0  0
 33 70  1  0  0  0  0
 34 36  2  0  0  0  0
 34 37  1  0  0  0  0
 35 37  2  0  0  0  0
 35 67  1  0  0  0  0
 36 38  1  0  0  0  0
 36 61  1  0  0  0  0
 37 82  1  0  0  0  0
 38 67  1  0  0  0  0
 38 76  2  0  0  0  0
 39 71  1  0  0  0  0
 39 77  2  0  0  0  0
 40 54  1  0  0  0  0
 40 73  1  0  0  0  0
 40 78  2  0  0  0  0
 41 62  1  0  0  0  0
 41 68  1  0  0  0  0
 41 79  2  0  0  0  0
 42 63  1  0  0  0  0
 42 74  1  0  0  0  0
 42 80  2  0  0  0  0
 43 69  1  0  0  0  0
 43 72  1  0  0  0  0
 43 81  2  0  0  0  0
 44 47  1  0  0  0  0
 45 54  1  0  0  0  0
 46 68  1  0  0  0  0
 47 49  1  0  0  0  0
 48 50  1  0  0  0  0
 48 51  1  0  0  0  0
 49 53  1  0  0  0  0
 50 55  1  0  0  0  0
 51 69  1  0  0  0  0
 52 55  1  0  0  0  0
 52 69  1  0  0  0  0
 53 73  1  0  0  0  0
 54 68  1  0  0  0  0
 55 66  1  0  0  0  0
 56 63  1  0  0  0  0
 57 64  1  0  0  0  0
 58 64  1  0  0  0  0
 59 64  1  0  0  0  0
 60 75  1  0  0  0  0
 61 84  1  0  0  0  0
 62 64  1  0  0  0  0
 62 74  1  0  0  0  0
 63 75  1  0  0  0  0
 65 66  1  0  0  0  0
M  CHG  1  75   1
M  ISO  4  43 100  61 101  72 100  84 101
M  END
> <Batch ID>
0087

> <Smiles>
CNC(C)C(=O)NC(C(=O)N1Cc2cc([101O:1][101CH2:1]C3=CC(=O)CN(c4ccc([100NH:0][100C:0](=O)N5CCCC(n6nc(-c7ccc(Oc8ccc(F)cc8F)cc7)c(C(N)=O)c6N)C5)c(F)c4)C3=O)ccc2CC1C(=O)NC1CCCc2ccccc21)C(C)(C)C

> <Shape>
0.271

> <Color>
0.102

> <Negative vol penalty>
0.000

$$$$

  -OEChem-04052300203D

 85 93  0     1  0  0  0  0  0999 V2000
  -27.7729  -24.4705   16.6133 C   0  0  0  0  0  0  0  0  0  0  0  0
  -26.5990  -24.7113   17.3200 C   0  0  0  0  0  0  0  0  0  0  0  0
  -26.3927  -14.0194   20.9226 C   0  0  0  0  0  0  0  0  0  0  0  0
  -24.1058  -14.0005   20.1434 C   0  0  0  0  0  0  0  0  0  0  0  0
  -28.9929  -24.9203   17.1165 C   0  0  0  0  0  0  0  0  0  0  0  0
  -26.6446  -25.4012   18.5309 C   0  0  0  0  0  0  0  0  0  0  0  0
  -23.0255  -28.9244   18.8969 C   0  0  0  0  0  0  0  0  0  0  0  0
  -26.1502  -12.8620   21.6624 C   0  0  0  0  0  0  0  0  0  0  0  0
  -23.8633  -12.8431   20.8833 C   0  0  0  0  0  0  0  0  0  0  0  0
  -21.7383  -28.4855   19.2037 C   0  0  0  0  0  0  0  0  0  0  0  0
  -24.4617   -9.5300   20.5896 C   0  0  0  0  0  0  0  0  0  0  0  0
  -23.7604   -8.4986   19.9652 C   0  0  0  0  0  0  0  0  0  0  0  0
  -18.1975  -22.3375   20.0104 C   0  0  0  0  0  0  0  0  0  0  0  0
  -20.5286  -22.7684   20.4765 C   0  0  0  0  0  0  0  0  0  0  0  0
  -22.0760  -29.1229   21.5056 C   0  0  0  0  0  0  0  0  0  0  0  0
  -19.8999  -20.8840   19.1014 C   0  0  0  0  0  0  0  0  0  0  0  0
  -22.0387   -8.6471   21.6537 C   0  0  0  0  0  0  0  0  0  0  0  0
  -25.3705  -14.5886   20.1631 C   0  0  0  0  0  0  0  0  0  0  0  0
  -19.1841  -23.1092   20.6241 C   0  0  0  0  0  0  0  0  0  0  0  0
  -26.0727  -15.8641   18.0684 C   0  0  0  0  0  0  0  0  0  0  0  0
  -29.0523  -25.6245   18.3294 C   0  0  0  0  0  0  0  0  0  0  0  0
  -23.8530  -29.4568   19.8960 C   0  0  0  0  0  0  0  0  0  0  0  0
  -27.8667  -25.8597   19.0515 C   0  0  0  0  0  0  0  0  0  0  0  0
  -23.3724  -29.5703   21.2084 C   0  0  0  0  0  0  0  0  0  0  0  0
  -18.5554  -21.2248   19.2490 C   0  0  0  0  0  0  0  0  0  0  0  0
  -20.8865  -21.6558   19.7151 C   0  0  0  0  0  0  0  0  0  0  0  0
  -24.8856  -12.2739   21.6428 C   0  0  0  0  0  0  0  0  0  0  0  0
  -21.2644  -28.5820   20.5088 C   0  0  0  0  0  0  0  0  0  0  0  0
  -23.9516  -10.1200   21.7461 C   0  0  0  0  0  0  0  0  0  0  0  0
  -22.5489   -8.0572   20.4972 C   0  0  0  0  0  0  0  0  0  0  0  0
  -22.7401   -9.6785   22.2781 C   0  0  0  0  0  0  0  0  0  0  0  0
  -25.6202  -15.7845   19.3991 C   0  0  0  0  0  0  0  0  0  0  0  0
  -26.1482  -17.2112   17.8115 C   0  0  0  0  0  0  0  0  0  0  0  0
  -18.3279  -23.0985   23.5390 C   0  0  0  0  0  0  0  0  0  0  0  0
  -17.9237  -23.9423   22.5844 C   0  0  0  0  0  0  0  0  0  0  0  0
  -18.8047  -24.2887   21.4295 C   0  0  0  0  0  0  0  0  0  0  0  0
  -26.3958  -14.8142   17.1470 C   0  0  0  0  0  0  0  0  0  0  0  0
  -26.6529  -28.6406   21.1601 C   0  0  0  0  0  0  0  0  0  0  0  0
  -26.3297  -31.4647   22.7230 C   0  0  0  0  0  0  0  0  0  0  0  0
  -24.2522  -33.9004   23.9055 C   0  0  0  0  0  0  0  0  0  0  0  0
  -23.3551  -21.9680   20.1086 C   0  0  0  0  0  0  0  0  0  0  0  0
  -30.3998  -26.0497   18.8567 C   0  0  0  0  0  0  0  0  0  0  0  0
  -25.2294  -29.9505   19.5434 C   0  0  0  0  0  0  0  0  0  0  0  0
  -24.2138  -30.1530   22.3134 C   0  0  0  0  0  0  0  0  0  0  0  0
  -30.3179  -27.1002   19.9613 C   0  0  0  0  0  0  0  0  0  0  0  0
  -26.8696  -21.4071   20.0043 C   0  0  0  0  0  0  0  0  0  0  0  0
  -29.2648  -26.7087   20.9932 C   0  0  0  0  0  0  0  0  0  0  0  0
  -26.9892  -19.9100   19.7102 C   0  0  0  0  0  0  0  0  0  0  0  0
  -25.6885  -21.7117   20.9240 C   0  0  0  0  0  0  0  0  0  0  0  0
  -24.5177  -19.6749   20.1827 C   0  0  0  0  0  0  0  0  0  0  0  0
  -27.8723  -26.6262   20.3563 C   0  0  1  0  0  0  0  0  0  0  0  0
  -26.1713  -30.0012   20.7424 C   0  0  1  0  0  0  0  0  0  0  0  0
  -25.6543  -19.3259   19.2079 C   0  0  2  0  0  0  0  0  0  0  0  0
  -24.2767  -36.0655   25.1740 C   0  0  0  0  0  0  0  0  0  0  0  0
  -17.4066  -27.1039   21.5461 C   0  0  0  0  0  0  0  0  0  0  0  0
  -26.7746  -29.9329   25.3241 C   0  0  0  0  0  0  0  0  0  0  0  0
  -25.8601  -31.9076   26.5620 C   0  0  0  0  0  0  0  0  0  0  0  0
  -27.9386  -32.1430   25.2029 C   0  0  0  0  0  0  0  0  0  0  0  0
  -23.0817  -35.3826   21.6269 C   0  0  0  0  0  0  0  0  0  0  0  0
  -19.7917  -27.6582   22.1316 C   0  0  0  0  0  0  0  0  0  1  0  0
  -25.7120  -31.8984   24.0304 C   0  0  1  0  0  0  0  0  0  0  0  0
  -24.3119  -35.4136   23.8004 C   0  0  2  0  0  0  0  0  0  0  0  0
  -18.7239  -26.5710   22.0897 C   0  0  2  0  0  0  0  0  0  0  0  0
  -26.5559  -31.4577   25.2597 C   0  0  0  0  0  0  0  0  0  0  0  0
  -25.4223  -16.9854   19.9492 N   0  0  0  0  0  0  0  0  0  0  0  0
  -19.1815  -25.4942   21.2014 N   0  0  0  0  0  0  0  0  0  0  0  0
  -25.7521  -17.8324   18.9593 N   0  0  0  0  0  0  0  0  0  0  0  0
  -25.5548  -30.6160   21.9199 N   0  0  0  0  0  0  0  0  0  0  0  0
  -24.4578  -21.1313   20.3824 N   0  0  0  0  0  0  0  0  0  0  0  0
  -17.5581  -20.4440   18.6287 N   0  0  0  0  0  0  0  0  0  0  0  0
  -26.5142  -17.9132   16.7180 N   0  0  0  0  0  0  0  0  0  0  0  0
  -26.2621  -13.4860   17.5739 N   0  0  0  0  0  0  0  0  0  0  0  0
  -22.2523  -21.3093   19.5658 N   0  0  0  0  0  0  0  0  0  0  0  0
  -27.3236  -27.9520   20.1674 N   0  0  0  0  0  0  0  0  0  0  0  0
  -25.5119  -33.3400   23.9289 N   0  0  0  0  0  0  0  0  0  0  0  0
  -23.1573  -35.9238   23.0083 N   0  3  0  0  0  0  0  0  0  0  0  0
  -26.8070  -15.0472   15.9850 O   0  0  0  0  0  0  0  0  0  0  0  0
  -26.4337  -28.2455   22.2992 O   0  0  0  0  0  0  0  0  0  0  0  0
  -27.4553  -31.8699   22.4221 O   0  0  0  0  0  0  0  0  0  0  0  0
  -23.1941  -33.2780   23.9648 O   0  0  0  0  0  0  0  0  0  0  0  0
  -23.3965  -23.1839   20.3134 O   0  0  0  0  0  0  0  0  0  0  0  0
  -24.6487  -11.1444   22.3644 O   0  0  0  0  0  0  0  0  0  0  0  0
  -20.0086  -28.1537   20.8111 O   0  0  0  0  0  0  0  0  0  1  0  0
  -21.8747   -7.0677   19.8966 F   0  0  0  0  0  0  0  0  0  0  0  0
  -22.2444  -10.2422   23.3882 F   0  0  0  0  0  0  0  0  0  0  0  0
  1  2  1  0  0  0  0
  1  5  2  0  0  0  0
  2  6  2  0  0  0  0
  3  8  2  0  0  0  0
  3 18  1  0  0  0  0
  4  9  1  0  0  0  0
  4 18  2  0  0  0  0
  5 21  1  0  0  0  0
  6 23  1  0  0  0  0
  7 10  2  0  0  0  0
  7 22  1  0  0  0  0
  8 27  1  0  0  0  0
  9 27  2  0  0  0  0
 10 28  1  0  0  0  0
 11 12  2  0  0  0  0
 11 29  1  0  0  0  0
 12 30  1  0  0  0  0
 13 19  1  0  0  0  0
 13 25  2  0  0  0  0
 14 19  2  0  0  0  0
 14 26  1  0  0  0  0
 15 24  1  0  0  0  0
 15 28  2  0  0  0  0
 16 25  1  0  0  0  0
 16 26  2  0  0  0  0
 17 30  2  0  0  0  0
 17 31  1  0  0  0  0
 18 32  1  0  0  0  0
 19 36  1  0  0  0  0
 20 32  1  0  0  0  0
 20 33  2  0  0  0  0
 20 37  1  0  0  0  0
 21 23  2  0  0  0  0
 21 42  1  0  0  0  0
 22 24  2  0  0  0  0
 22 43  1  0  0  0  0
 23 51  1  0  0  0  0
 24 44  1  0  0  0  0
 25 70  1  0  0  0  0
 26 73  1  0  0  0  0
 27 82  1  0  0  0  0
 28 83  1  0  0  0  0
 29 31  2  0  0  0  0
 29 82  1  0  0  0  0
 30 84  1  0  0  0  0
 31 85  1  0  0  0  0
 32 65  2  0  0  0  0
 33 67  1  0  0  0  0
 33 71  1  0  0  0  0
 34 35  2  0  0  0  0
 35 36  1  0  0  0  0
 36 66  2  0  0  0  0
 37 72  1  0  0  0  0
 37 77  2  0  0  0  0
 38 52  1  0  0  0  0
 38 74  1  0  0  0  0
 38 78  2  0  0  0  0
 39 61  1  0  0  0  0
 39 68  1  0  0  0  0
 39 79  2  0  0  0  0
 40 62  1  0  0  0  0
 40 75  1  0  0  0  0
 40 80  2  0  0  0  0
 41 69  1  0  0  0  0
 41 73  1  0  0  0  0
 41 81  2  0  0  0  0
 42 45  1  0  0  0  0
 43 52  1  0  0  0  0
 44 68  1  0  0  0  0
 45 47  1  0  0  0  0
 46 48  1  0  0  0  0
 46 49  1  0  0  0  0
 47 51  1  0  0  0  0
 48 53  1  0  0  0  0
 49 69  1  0  0  0  0
 50 53  1  0  0  0  0
 50 69  1  0  0  0  0
 51 74  1  0  0  0  0
 52 68  1  0  0  0  0
 53 67  1  0  0  0  0
 54 62  1  0  0  0  0
 55 63  1  0  0  0  0
 56 64  1  0  0  0  0
 57 64  1  0  0  0  0
 58 64  1  0  0  0  0
 59 76  1  0  0  0  0
 60 63  1  0  0  0  0
 60 83  1  0  0  0  0
 61 64  1  0  0  0  0
 61 75  1  0  0  0  0
 62 76  1  0  0  0  0
 63 66  1  0  0  0  0
 65 67  1  0  0  0  0
M  CHG  1  76   1
M  ISO  4  41 100  60 101  73 100  83 101
M  END
> <Batch ID>
0087

> <Smiles>
C=CC(=NC(C)[101CH2:1][101O:1]c1ccc2c(c1)CN(C(=O)C(NC(=O)C(C)NC)C(C)(C)C)C(C(=O)NC1CCCc3ccccc31)C2)c1cc(N)cc([100NH:0][100C:0](=O)N2CCCC(n3nc(-c4ccc(Oc5ccc(F)cc5F)cc4)c(C(N)=O)c3N)C2)c1

> <Shape>
0.278

> <Color>
0.081

> <Negative vol penalty>
0.000

$$$$

  -OEChem-04052300203D

 83 91  0     1  0  0  0  0  0999 V2000
  -32.1314  -34.7767   22.5567 C   0  0  0  0  0  0  0  0  0  0  0  0
  -31.8307  -33.4375   22.3299 C   0  0  0  0  0  0  0  0  0  0  0  0
  -23.8928   -9.7848   22.0273 C   0  0  0  0  0  0  0  0  0  0  0  0
  -24.4849  -11.2505   23.8545 C   0  0  0  0  0  0  0  0  0  0  0  0
  -28.7859  -20.5319   20.0759 C   0  0  0  0  0  0  0  0  0  0  0  0
  -31.3189  -35.5403   23.3938 C   0  0  0  0  0  0  0  0  0  0  0  0
  -30.7178  -32.8607   22.9409 C   0  0  0  0  0  0  0  0  0  0  0  0
  -28.0085  -30.0106   19.7501 C   0  0  0  0  0  0  0  0  0  0  0  0
  -28.4834  -19.1858   19.8702 C   0  0  0  0  0  0  0  0  0  0  0  0
  -23.4303   -8.8355   22.9387 C   0  0  0  0  0  0  0  0  0  0  0  0
  -24.0223  -10.3012   24.7658 C   0  0  0  0  0  0  0  0  0  0  0  0
  -28.4992  -28.7384   19.4594 C   0  0  0  0  0  0  0  0  0  0  0  0
  -20.6715   -8.3333   24.8279 C   0  0  0  0  0  0  0  0  0  0  0  0
  -19.4459   -7.7227   24.5621 C   0  0  0  0  0  0  0  0  0  0  0  0
  -26.9486  -27.7852   21.0426 C   0  0  0  0  0  0  0  0  0  0  0  0
  -30.8390  -18.6864   19.6740 C   0  0  0  0  0  0  0  0  0  0  0  0
  -20.5328   -5.5656   24.5059 C   0  0  0  0  0  0  0  0  0  0  0  0
  -24.4202  -10.9923   22.4852 C   0  0  0  0  0  0  0  0  0  0  0  0
  -30.1150  -20.9552   20.0804 C   0  0  0  0  0  0  0  0  0  0  0  0
  -24.1587  -13.0129   20.9502 C   0  0  0  0  0  0  0  0  0  0  0  0
  -30.1900  -34.9752   24.0078 C   0  0  0  0  0  0  0  0  0  0  0  0
  -26.9900  -30.1810   20.6988 C   0  0  0  0  0  0  0  0  0  0  0  0
  -29.8902  -33.6172   23.7881 C   0  0  0  0  0  0  0  0  0  0  0  0
  -26.4450  -29.0604   21.3417 C   0  0  0  0  0  0  0  0  0  0  0  0
  -29.5099  -18.2631   19.6693 C   0  0  0  0  0  0  0  0  0  0  0  0
  -23.4951   -9.0937   24.3079 C   0  0  0  0  0  0  0  0  0  0  0  0
  -27.9712  -27.6257   20.1078 C   0  0  0  0  0  0  0  0  0  0  0  0
  -21.8278   -7.5601   24.9327 C   0  0  0  0  0  0  0  0  0  0  0  0
  -19.3765   -6.3388   24.4011 C   0  0  0  0  0  0  0  0  0  0  0  0
  -31.1415  -20.0325   19.8795 C   0  0  0  0  0  0  0  0  0  0  0  0
  -21.7584   -6.1763   24.7717 C   0  0  0  0  0  0  0  0  0  0  0  0
  -24.8986  -11.9731   21.5443 C   0  0  0  0  0  0  0  0  0  0  0  0
  -25.0618  -13.6581   20.1411 C   0  0  0  0  0  0  0  0  0  0  0  0
  -29.5549  -24.4749   20.6759 C   0  0  0  0  0  0  0  0  0  0  0  0
  -30.4335  -22.3963   20.2979 C   0  0  0  0  0  0  0  0  0  0  0  0
  -22.7784  -13.3643   21.1150 C   0  0  0  0  0  0  0  0  0  0  0  0
  -26.7476  -31.6981   23.4815 C   0  0  0  0  0  0  0  0  0  0  0  0
  -23.6334  -30.8217   23.2445 C   0  0  0  0  0  0  0  0  0  0  0  0
  -21.3176  -28.6792   21.9432 C   0  0  0  0  0  0  0  0  0  0  0  0
  -30.1008  -15.8511   19.2458 C   0  0  0  0  0  0  0  0  0  0  0  0
  -29.3686  -35.8279   24.9420 C   0  0  0  0  0  0  0  0  0  0  0  0
  -26.4533  -31.5574   20.9816 C   0  0  0  0  0  0  0  0  0  0  0  0
  -25.3366  -29.1876   22.3534 C   0  0  0  0  0  0  0  0  0  0  0  0
  -27.9949  -35.2399   25.2541 C   0  0  0  0  0  0  0  0  0  0  0  0
  -29.7420  -12.3468   18.7278 C   0  0  0  0  0  0  0  0  0  0  0  0
  -28.1137  -33.7581   25.5963 C   0  0  0  0  0  0  0  0  0  0  0  0
  -28.3891  -12.0227   19.3655 C   0  0  0  0  0  0  0  0  0  0  0  0
  -30.4998  -13.4133   19.5165 C   0  0  0  0  0  0  0  0  0  0  0  0
  -28.3931  -14.3226   20.4132 C   0  0  0  0  0  0  0  0  0  0  0  0
  -28.6776  -32.9622   24.4132 C   0  0  1  0  0  0  0  0  0  0  0  0
  -25.7697  -31.6644   22.3412 C   0  0  1  0  0  0  0  0  0  0  0  0
  -27.5646  -13.3002   19.6181 C   0  0  2  0  0  0  0  0  0  0  0  0
  -18.8560  -28.1918   21.9602 C   0  0  0  0  0  0  0  0  0  0  0  0
  -23.9001  -29.5844   26.0208 C   0  0  0  0  0  0  0  0  0  0  0  0
  -21.7809  -28.3240   25.5863 C   0  0  0  0  0  0  0  0  0  0  0  0
  -21.7601  -30.8181   25.6296 C   0  0  0  0  0  0  0  0  0  0  0  0
  -21.0895  -29.1341   19.0277 C   0  0  0  0  0  0  0  0  0  0  0  0
  -28.4047  -25.4171   20.8760 C   0  0  0  0  0  0  0  0  0  1  0  0
  -22.8250  -29.6213   23.6737 C   0  0  1  0  0  0  0  0  0  0  0  0
  -19.9858  -28.9298   21.2590 C   0  0  2  0  0  0  0  0  0  0  0  0
  -22.5887  -29.5844   25.2100 C   0  0  0  0  0  0  0  0  0  0  0  0
  -26.1735  -11.9549   21.1465 N   0  0  0  0  0  0  0  0  0  0  0  0
  -29.3410  -23.2164   20.4829 N   0  0  0  0  0  0  0  0  0  0  0  0
  -26.2417  -12.9912   20.2936 N   0  0  0  0  0  0  0  0  0  0  0  0
  -24.8498  -30.5549   22.6003 N   0  0  0  0  0  0  0  0  0  0  0  0
  -29.6582  -14.5956   19.7135 N   0  0  0  0  0  0  0  0  0  0  0  0
  -24.9537  -14.7251   19.3212 N   0  0  0  0  0  0  0  0  0  0  0  0
  -21.9927  -12.5960   21.9849 N   0  0  0  0  0  0  0  0  0  0  0  0
  -29.2024  -16.8958   19.4605 N   0  0  0  0  0  0  0  0  0  0  0  0
  -27.6511  -32.7417   23.4171 N   0  0  0  0  0  0  0  0  0  0  0  0
  -21.6003  -29.6493   22.8814 N   0  0  0  0  0  0  0  0  0  0  0  0
  -20.0375  -28.4724   19.8416 N   0  3  0  0  0  0  0  0  0  0  0  0
  -31.6103  -22.7475   20.2969 O   0  0  0  0  0  0  0  0  0  0  0  0
  -22.2533  -14.3208   20.4963 O   0  0  0  0  0  0  0  0  0  0  0  0
  -26.6860  -30.8417   24.3558 O   0  0  0  0  0  0  0  0  0  0  0  0
  -23.1982  -31.9545   23.4660 O   0  0  0  0  0  0  0  0  0  0  0  0
  -22.0336  -27.7170   21.6750 O   0  0  0  0  0  0  0  0  0  0  0  0
  -31.1843  -15.9844   18.6711 O   0  0  0  0  0  0  0  0  0  0  0  0
  -23.0436   -8.1677   25.1975 O   0  0  0  0  0  0  0  0  0  0  0  0
  -28.4487  -26.3829   19.8263 O   0  0  0  0  0  0  0  0  0  1  0  0
  -18.1993   -5.7524   24.1473 F   0  0  0  0  0  0  0  0  0  0  0  0
  -32.4226  -20.4281   19.8815 F   0  0  0  0  0  0  0  0  0  0  0  0
  -22.8656   -5.4281   24.8724 F   0  0  0  0  0  0  0  0  0  0  0  0
  1  2  1  0  0  0  0
  1  6  2  0  0  0  0
  2  7  2  0  0  0  0
  3 10  2  0  0  0  0
  3 18  1  0  0  0  0
  4 11  1  0  0  0  0
  4 18  2  0  0  0  0
  5  9  2  0  0  0  0
  5 19  1  0  0  0  0
  6 21  1  0  0  0  0
  7 23  1  0  0  0  0
  8 12  2  0  0  0  0
  8 22  1  0  0  0  0
  9 25  1  0  0  0  0
 10 26  1  0  0  0  0
 11 26  2  0  0  0  0
 12 27  1  0  0  0  0
 13 14  2  0  0  0  0
 13 28  1  0  0  0  0
 14 29  1  0  0  0  0
 15 24  1  0  0  0  0
 15 27  2  0  0  0  0
 16 25  2  0  0  0  0
 16 30  1  0  0  0  0
 17 29  2  0  0  0  0
 17 31  1  0  0  0  0
 18 32  1  0  0  0  0
 19 30  2  0  0  0  0
 19 35  1  0  0  0  0
 20 32  1  0  0  0  0
 20 33  2  0  0  0  0
 20 36  1  0  0  0  0
 21 23  2  0  0  0  0
 21 41  1  0  0  0  0
 22 24  2  0  0  0  0
 22 42  1  0  0  0  0
 23 50  1  0  0  0  0
 24 43  1  0  0  0  0
 25 69  1  0  0  0  0
 26 79  1  0  0  0  0
 27 80  1  0  0  0  0
 28 31  2  0  0  0  0
 28 79  1  0  0  0  0
 29 81  1  0  0  0  0
 30 82  1  0  0  0  0
 31 83  1  0  0  0  0
 32 62  2  0  0  0  0
 33 64  1  0  0  0  0
 33 67  1  0  0  0  0
 34 58  1  0  0  0  0
 34 63  2  0  0  0  0
 35 63  1  0  0  0  0
 35 73  2  0  0  0  0
 36 68  1  0  0  0  0
 36 74  2  0  0  0  0
 37 51  1  0  0  0  0
 37 70  1  0  0  0  0
 37 75  2  0  0  0  0
 38 59  1  0  0  0  0
 38 65  1  0  0  0  0
 38 76  2  0  0  0  0
 39 60  1  0  0  0  0
 39 71  1  0  0  0  0
 39 77  2  0  0  0  0
 40 66  1  0  0  0  0
 40 69  1  0  0  0  0
 40 78  2  0  0  0  0
 41 44  1  0  0  0  0
 42 51  1  0  0  0  0
 43 65  1  0  0  0  0
 44 46  1  0  0  0  0
 45 47  1  0  0  0  0
 45 48  1  0  0  0  0
 46 50  1  0  0  0  0
 47 52  1  0  0  0  0
 48 66  1  0  0  0  0
 49 52  1  0  0  0  0
 49 66  1  0  0  0  0
 50 70  1  0  0  0  0
 51 65  1  0  0  0  0
 52 64  1  0  0  0  0
 53 60  1  0  0  0  0
 54 61  1  0  0  0  0
 55 61  1  0  0  0  0
 56 61  1  0  0  0  0
 57 72  1  0  0  0  0
 58 80  1  0  0  0  0
 59 61  1  0  0  0  0
 59 71  1  0  0  0  0
 60 72  1  0  0  0  0
 62 64  1  0  0  0  0
M  CHG  1  72   1
M  ISO  4  40 100  58 101  69 100  80 101
M  END
> <Batch ID>
0087

> <Smiles>
CNC(C)C(=O)NC(C(=O)N1Cc2cc([101O:1][101CH:1]=CNC(=O)c3ccc([100NH:0][100C:0](=O)N4CCCC(n5nc(-c6ccc(Oc7ccc(F)cc7F)cc6)c(C(N)=O)c5N)C4)cc3F)ccc2CC1C(=O)NC1CCCc2ccccc21)C(C)(C)C

> <Shape>
0.303

> <Color>
0.144

> <Negative vol penalty>
0.000

$$$$

  -OEChem-04052300203D

 86 95  0     1  0  0  0  0  0999 V2000
  -20.5466  -25.4854   25.6337 C   0  0  0  0  0  0  0  0  0  0  0  0
  -21.5477  -25.3174   24.6825 C   0  0  0  0  0  0  0  0  0  0  0  0
  -24.7002   -8.8555   20.7751 C   0  0  0  0  0  0  0  0  0  0  0  0
  -23.1709  -10.7185   20.6082 C   0  0  0  0  0  0  0  0  0  0  0  0
  -19.5092  -26.3872   25.4004 C   0  0  0  0  0  0  0  0  0  0  0  0
  -21.5115  -26.0504   23.4968 C   0  0  0  0  0  0  0  0  0  0  0  0
  -26.0257  -27.9930   22.2749 C   0  0  0  0  0  0  0  0  0  0  0  0
  -29.1920  -20.7646   20.3624 C   0  0  0  0  0  0  0  0  0  0  0  0
  -29.2105  -19.4700   20.8813 C   0  0  0  0  0  0  0  0  0  0  0  0
  -23.6330   -8.0054   21.0645 C   0  0  0  0  0  0  0  0  0  0  0  0
  -22.1036   -9.8683   20.8975 C   0  0  0  0  0  0  0  0  0  0  0  0
  -26.9575  -27.1278   21.7030 C   0  0  0  0  0  0  0  0  0  0  0  0
  -21.7090   -7.2446   23.7373 C   0  0  0  0  0  0  0  0  0  0  0  0
  -21.8693   -6.3380   24.7851 C   0  0  0  0  0  0  0  0  0  0  0  0
  -26.4083  -27.9902   19.5181 C   0  0  0  0  0  0  0  0  0  0  0  0
  -28.5786  -18.5946   18.7199 C   0  0  0  0  0  0  0  0  0  0  0  0
  -21.5141   -4.5041   23.2528 C   0  0  0  0  0  0  0  0  0  0  0  0
  -24.4692  -10.2121   20.5470 C   0  0  0  0  0  0  0  0  0  0  0  0
  -26.0897  -11.4030   18.9775 C   0  0  0  0  0  0  0  0  0  0  0  0
  -19.4654  -27.1388   24.2156 C   0  0  0  0  0  0  0  0  0  0  0  0
  -25.2692  -28.8570   21.4702 C   0  0  0  0  0  0  0  0  0  0  0  0
  -20.4718  -26.9622   23.2469 C   0  0  0  0  0  0  0  0  0  0  0  0
  -25.4694  -28.8672   20.0825 C   0  0  0  0  0  0  0  0  0  0  0  0
  -28.8667  -20.9743   19.0223 C   0  0  0  0  0  0  0  0  0  0  0  0
  -28.9038  -18.3850   20.0601 C   0  0  0  0  0  0  0  0  0  0  0  0
  -28.5601  -19.8893   18.2010 C   0  0  0  0  0  0  0  0  0  0  0  0
  -22.3347   -8.5117   21.1257 C   0  0  0  0  0  0  0  0  0  0  0  0
  -27.1468  -27.1242   20.3242 C   0  0  0  0  0  0  0  0  0  0  0  0
  -21.4511   -6.7810   22.4472 C   0  0  0  0  0  0  0  0  0  0  0  0
  -21.7719   -4.9678   24.5429 C   0  0  0  0  0  0  0  0  0  0  0  0
  -21.3538   -5.4108   22.2049 C   0  0  0  0  0  0  0  0  0  0  0  0
  -25.5713  -11.0910   20.2486 C   0  0  0  0  0  0  0  0  0  0  0  0
  -27.1212  -12.2736   19.2316 C   0  0  0  0  0  0  0  0  0  0  0  0
  -29.3319  -24.1943   17.3145 C   0  0  0  0  0  0  0  0  0  0  0  0
  -28.4007  -24.4889   18.2278 C   0  0  0  0  0  0  0  0  0  0  0  0
  -28.0454  -23.3100   18.9925 C   0  0  0  0  0  0  0  0  0  0  0  0
  -29.6548  -22.7591   17.4717 C   0  0  0  0  0  0  0  0  0  0  0  0
  -27.1355  -23.2118   19.9684 C   0  0  0  0  0  0  0  0  0  0  0  0
  -25.6759  -10.9466   17.6828 C   0  0  0  0  0  0  0  0  0  0  0  0
  -22.1697  -29.2214   20.8666 C   0  0  0  0  0  0  0  0  0  0  0  0
  -23.1951  -31.8167   19.2127 C   0  0  0  0  0  0  0  0  0  0  0  0
  -25.7374  -33.3764   17.5541 C   0  0  0  0  0  0  0  0  0  0  0  0
  -29.2253  -16.6880   21.8940 C   0  0  0  0  0  0  0  0  0  0  0  0
  -18.2986  -28.0667   23.9872 C   0  0  0  0  0  0  0  0  0  0  0  0
  -24.2872  -29.8031   22.1051 C   0  0  0  0  0  0  0  0  0  0  0  0
  -24.6970  -29.7897   19.1765 C   0  0  0  0  0  0  0  0  0  0  0  0
  -18.5354  -29.0795   22.8700 C   0  0  0  0  0  0  0  0  0  0  0  0
  -29.3468  -13.5608   23.5918 C   0  0  0  0  0  0  0  0  0  0  0  0
  -19.1212  -28.3915   21.6410 C   0  0  0  0  0  0  0  0  0  0  0  0
  -28.4180  -12.6651   22.7688 C   0  0  0  0  0  0  0  0  0  0  0  0
  -28.8284  -14.9957   23.6698 C   0  0  0  0  0  0  0  0  0  0  0  0
  -27.6009  -14.7235   21.5512 C   0  0  0  0  0  0  0  0  0  0  0  0
  -20.4806  -27.7573   21.9593 C   0  0  1  0  0  0  0  0  0  0  0  0
  -23.2041  -30.2762   21.1405 C   0  0  1  0  0  0  0  0  0  0  0  0
  -28.1149  -13.2835   21.3900 C   0  0  2  0  0  0  0  0  0  0  0  0
  -26.2632  -35.4717   16.2771 C   0  0  0  0  0  0  0  0  0  0  0  0
  -21.6702  -30.7286   16.8043 C   0  0  0  0  0  0  0  0  0  0  0  0
  -22.9779  -32.2969   15.3556 C   0  0  0  0  0  0  0  0  0  0  0  0
  -21.4770  -33.2005   17.1315 C   0  0  0  0  0  0  0  0  0  0  0  0
  -27.8307  -34.1696   19.4902 C   0  0  0  0  0  0  0  0  0  0  0  0
  -27.7866  -25.8248   18.4379 C   0  0  0  0  0  0  0  0  0  1  0  0
  -23.6407  -32.0723   17.7931 C   0  0  1  0  0  0  0  0  0  0  0  0
  -26.2750  -34.7936   17.6383 C   0  0  2  0  0  0  0  0  0  0  0  0
  -22.4548  -32.0557   16.7877 C   0  0  0  0  0  0  0  0  0  0  0  0
  -26.2200  -11.7127   21.2368 N   0  0  0  0  0  0  0  0  0  0  0  0
  -27.1567  -12.4240   20.5867 N   0  0  0  0  0  0  0  0  0  0  0  0
  -28.8529  -22.2780   18.5258 N   0  0  0  0  0  0  0  0  0  0  0  0
  -23.7440  -30.6916   19.8443 N   0  0  0  0  0  0  0  0  0  0  0  0
  -28.5675  -15.5171   22.3263 N   0  0  0  0  0  0  0  0  0  0  0  0
  -28.2266  -20.0789   16.8409 N   0  0  0  0  0  0  0  0  0  0  0  0
  -27.9923  -12.9173   18.4258 N   0  0  0  0  0  0  0  0  0  0  0  0
  -24.5984  -10.0539   17.6019 N   0  0  0  0  0  0  0  0  0  0  0  0
  -28.9233  -17.0699   20.5873 N   0  0  0  0  0  0  0  0  0  0  0  0
  -21.5143  -28.7695   21.9961 N   0  0  0  0  0  0  0  0  0  0  0  0
  -24.3851  -33.3267   17.8185 N   0  0  0  0  0  0  0  0  0  0  0  0
  -27.6755  -34.7869   18.1478 N   0  3  0  0  0  0  0  0  0  0  0  0
  -30.4748  -22.1658   16.7902 O   0  0  0  0  0  0  0  0  0  0  0  0
  -26.2552  -11.3067   16.6300 O   0  0  0  0  0  0  0  0  0  0  0  0
  -21.9792  -28.8465   19.7156 O   0  0  0  0  0  0  0  0  0  0  0  0
  -22.3953  -32.5909   19.7441 O   0  0  0  0  0  0  0  0  0  0  0  0
  -26.4455  -32.4107   17.2776 O   0  0  0  0  0  0  0  0  0  0  0  0
  -30.0203  -17.2912   22.6193 O   0  0  0  0  0  0  0  0  0  0  0  0
  -21.2930   -7.6823   21.4078 O   0  0  0  0  0  0  0  0  0  0  0  0
  -28.0552  -26.2803   19.7633 O   0  0  0  0  0  0  0  0  0  1  0  0
  -21.9274   -4.0972   25.5489 F   0  0  0  0  0  0  0  0  0  0  0  0
  -21.1075   -4.9594   20.9674 F   0  0  0  0  0  0  0  0  0  0  0  0
  1  2  1  0  0  0  0
  1  5  2  0  0  0  0
  2  6  2  0  0  0  0
  3 10  2  0  0  0  0
  3 18  1  0  0  0  0
  4 11  1  0  0  0  0
  4 18  2  0  0  0  0
  5 20  1  0  0  0  0
  6 22  1  0  0  0  0
  7 12  2  0  0  0  0
  7 21  1  0  0  0  0
  8  9  2  0  0  0  0
  8 24  1  0  0  0  0
  9 25  1  0  0  0  0
 10 27  1  0  0  0  0
 11 27  2  0  0  0  0
 12 28  1  0  0  0  0
 13 14  2  0  0  0  0
 13 29  1  0  0  0  0
 14 30  1  0  0  0  0
 15 23  1  0  0  0  0
 15 28  2  0  0  0  0
 16 25  2  0  0  0  0
 16 26  1  0  0  0  0
 17 30  2  0  0  0  0
 17 31  1  0  0  0  0
 18 32  1  0  0  0  0
 19 32  1  0  0  0  0
 19 33  2  0  0  0  0
 19 39  1  0  0  0  0
 20 22  2  0  0  0  0
 20 44  1  0  0  0  0
 21 23  2  0  0  0  0
 21 45  1  0  0  0  0
 22 53  1  0  0  0  0
 23 46  1  0  0  0  0
 24 26  2  0  0  0  0
 24 67  1  0  0  0  0
 25 73  1  0  0  0  0
 26 70  1  0  0  0  0
 27 83  1  0  0  0  0
 28 84  1  0  0  0  0
 29 31  2  0  0  0  0
 29 83  1  0  0  0  0
 30 85  1  0  0  0  0
 31 86  1  0  0  0  0
 32 65  2  0  0  0  0
 33 66  1  0  0  0  0
 33 71  1  0  0  0  0
 34 35  2  0  0  0  0
 34 37  1  0  0  0  0
 35 36  1  0  0  0  0
 35 61  1  0  0  0  0
 36 38  2  0  0  0  0
 36 67  1  0  0  0  0
 37 67  1  0  0  0  0
 37 77  2  0  0  0  0
 39 72  1  0  0  0  0
 39 78  2  0  0  0  0
 40 54  1  0  0  0  0
 40 74  1  0  0  0  0
 40 79  2  0  0  0  0
 41 62  1  0  0  0  0
 41 68  1  0  0  0  0
 41 80  2  0  0  0  0
 42 63  1  0  0  0  0
 42 75  1  0  0  0  0
 42 81  2  0  0  0  0
 43 69  1  0  0  0  0
 43 73  1  0  0  0  0
 43 82  2  0  0  0  0
 44 47  1  0  0  0  0
 45 54  1  0  0  0  0
 46 68  1  0  0  0  0
 47 49  1  0  0  0  0
 48 50  1  0  0  0  0
 48 51  1  0  0  0  0
 49 53  1  0  0  0  0
 50 55  1  0  0  0  0
 51 69  1  0  0  0  0
 52 55  1  0  0  0  0
 52 69  1  0  0  0  0
 53 74  1  0  0  0  0
 54 68  1  0  0  0  0
 55 66  1  0  0  0  0
 56 63  1  0  0  0  0
 57 64  1  0  0  0  0
 58 64  1  0  0  0  0
 59 64  1  0  0  0  0
 60 76  1  0  0  0  0
 61 84  1  0  0  0  0
 62 64  1  0  0  0  0
 62 75  1  0  0  0  0
 63 76  1  0  0  0  0
 65 66  1  0  0  0  0
M  CHG  1  76   1
M  ISO  4  43 100  61 101  73 100  84 101
M  END
> <Batch ID>
0087

> <Smiles>
C=C1C([101CH2:1][101O:1]c2ccc3c(c2)CN(C(=O)C(NC(=O)C(C)NC)C(C)(C)C)C(C(=O)NC2CCCc4ccccc42)C3)=CC(=O)N1c1ccc([100NH:0][100C:0](=O)N2CCCC(n3nc(-c4ccc(Oc5ccc(F)cc5F)cc4)c(C(N)=O)c3N)C2)cc1N

> <Shape>
0.297

> <Color>
0.113

> <Negative vol penalty>
0.000

$$$$
