
  -OEChem-04052300233D

 85 94  0     1  0  0  0  0  0999 V2000
  -26.8522  -36.3739   21.5521 C   0  0  0  0  0  0  0  0  0  0  0  0
  -27.6733  -35.2510   21.5322 C   0  0  0  0  0  0  0  0  0  0  0  0
  -23.5756   -9.7808   21.9248 C   0  0  0  0  0  0  0  0  0  0  0  0
  -24.4152  -11.1015   23.7654 C   0  0  0  0  0  0  0  0  0  0  0  0
  -25.5077  -36.2468   21.8990 C   0  0  0  0  0  0  0  0  0  0  0  0
  -27.1507  -34.0006   21.8603 C   0  0  0  0  0  0  0  0  0  0  0  0
  -28.7406  -28.5989   19.4519 C   0  0  0  0  0  0  0  0  0  0  0  0
  -31.8003  -19.2535   19.7356 C   0  0  0  0  0  0  0  0  0  0  0  0
  -29.5269  -19.9983   20.0729 C   0  0  0  0  0  0  0  0  0  0  0  0
  -31.3410  -17.9573   19.5020 C   0  0  0  0  0  0  0  0  0  0  0  0
  -29.0676  -18.7021   19.8392 C   0  0  0  0  0  0  0  0  0  0  0  0
  -23.0561   -8.8530   22.8274 C   0  0  0  0  0  0  0  0  0  0  0  0
  -23.8957  -10.1737   24.6681 C   0  0  0  0  0  0  0  0  0  0  0  0
  -29.5967  -27.5908   19.8930 C   0  0  0  0  0  0  0  0  0  0  0  0
  -24.2124   -6.3006   24.7176 C   0  0  0  0  0  0  0  0  0  0  0  0
  -24.4203   -4.9480   24.4474 C   0  0  0  0  0  0  0  0  0  0  0  0
  -27.7140  -26.4119   20.8337 C   0  0  0  0  0  0  0  0  0  0  0  0
  -22.0313   -4.5968   24.3672 C   0  0  0  0  0  0  0  0  0  0  0  0
  -24.2552  -10.9050   22.3937 C   0  0  0  0  0  0  0  0  0  0  0  0
  -24.1442  -13.0000   20.9423 C   0  0  0  0  0  0  0  0  0  0  0  0
  -24.9661  -34.9926   22.2222 C   0  0  0  0  0  0  0  0  0  0  0  0
  -27.3639  -28.5263   19.7084 C   0  0  0  0  0  0  0  0  0  0  0  0
  -25.7981  -33.8568   22.2132 C   0  0  0  0  0  0  0  0  0  0  0  0
  -26.8423  -27.4191   20.3926 C   0  0  0  0  0  0  0  0  0  0  0  0
  -30.8932  -20.2740   20.0212 C   0  0  0  0  0  0  0  0  0  0  0  0
  -29.9747  -17.6816   19.5537 C   0  0  0  0  0  0  0  0  0  0  0  0
  -23.2161   -9.0494   24.1991 C   0  0  0  0  0  0  0  0  0  0  0  0
  -29.0839  -26.4985   20.5865 C   0  0  0  0  0  0  0  0  0  0  0  0
  -22.9139   -6.8012   24.8127 C   0  0  0  0  0  0  0  0  0  0  0  0
  -23.3298   -4.0961   24.2721 C   0  0  0  0  0  0  0  0  0  0  0  0
  -21.8234   -5.9493   24.6375 C   0  0  0  0  0  0  0  0  0  0  0  0
  -24.7926  -11.8635   21.4617 C   0  0  0  0  0  0  0  0  0  0  0  0
  -25.0724  -13.5737   20.1083 C   0  0  0  0  0  0  0  0  0  0  0  0
  -32.6440  -23.3547   20.8624 C   0  0  0  0  0  0  0  0  0  0  0  0
  -31.5044  -23.8504   20.3846 C   0  0  0  0  0  0  0  0  0  0  0  0
  -32.5760  -21.8877   20.8021 C   0  0  0  0  0  0  0  0  0  0  0  0
  -30.6478  -22.7213   19.9730 C   0  0  0  0  0  0  0  0  0  0  0  0
  -22.8211  -13.4929   21.1916 C   0  0  0  0  0  0  0  0  0  0  0  0
  -25.2869  -30.3061   21.3277 C   0  0  0  0  0  0  0  0  0  0  0  0
  -23.1252  -28.2526   20.0499 C   0  0  0  0  0  0  0  0  0  0  0  0
  -22.4879  -25.1763   18.7170 C   0  0  0  0  0  0  0  0  0  0  0  0
  -30.2733  -15.2378   19.0201 C   0  0  0  0  0  0  0  0  0  0  0  0
  -23.5183  -34.9122   22.6367 C   0  0  0  0  0  0  0  0  0  0  0  0
  -26.4503  -29.6089   19.2026 C   0  0  0  0  0  0  0  0  0  0  0  0
  -25.3692  -27.2838   20.6756 C   0  0  0  0  0  0  0  0  0  0  0  0
  -22.9542  -33.4940   22.6075 C   0  0  0  0  0  0  0  0  0  0  0  0
  -29.5036  -11.8161   18.4063 C   0  0  0  0  0  0  0  0  0  0  0  0
  -23.9195  -32.5217   23.2780 C   0  0  0  0  0  0  0  0  0  0  0  0
  -28.1560  -11.6169   19.1038 C   0  0  0  0  0  0  0  0  0  0  0  0
  -30.4126  -12.7625   19.1885 C   0  0  0  0  0  0  0  0  0  0  0  0
  -28.4661  -13.8604   20.2251 C   0  0  0  0  0  0  0  0  0  0  0  0
  -25.2624  -32.4795   22.5388 C   0  0  1  0  0  0  0  0  0  0  0  0
  -25.1330  -29.6851   19.9682 C   0  0  1  0  0  0  0  0  0  0  0  0
  -27.4915  -12.9659   19.4417 C   0  0  2  0  0  0  0  0  0  0  0  0
  -20.6185  -23.7755   17.8001 C   0  0  0  0  0  0  0  0  0  0  0  0
  -22.1172  -27.7465   22.8850 C   0  0  0  0  0  0  0  0  0  0  0  0
  -20.9538  -25.7005   22.0314 C   0  0  0  0  0  0  0  0  0  0  0  0
  -20.3188  -27.9496   21.1591 C   0  0  0  0  0  0  0  0  0  0  0  0
  -23.7895  -24.9666   16.0673 C   0  0  0  0  0  0  0  0  0  0  0  0
  -31.0916  -25.2703   20.2452 C   0  0  0  0  0  0  0  0  0  1  0  0
  -22.5279  -26.9314   20.4699 C   0  0  1  0  0  0  0  0  0  0  0  0
  -21.7328  -24.7561   17.4689 C   0  0  2  0  0  0  0  0  0  0  0  0
  -21.5075  -27.0852   21.6329 C   0  0  0  0  0  0  0  0  0  0  0  0
  -26.0366  -11.7220   20.9964 N   0  0  0  0  0  0  0  0  0  0  0  0
  -26.1772  -12.7769   20.1759 N   0  0  0  0  0  0  0  0  0  0  0  0
  -31.3509  -21.5659   20.2545 N   0  0  0  0  0  0  0  0  0  0  0  0
  -24.5174  -28.3712   20.1662 N   0  0  0  0  0  0  0  0  0  0  0  0
  -29.7179  -14.0209   19.4688 N   0  0  0  0  0  0  0  0  0  0  0  0
  -25.0431  -14.6770   19.3309 N   0  0  0  0  0  0  0  0  0  0  0  0
  -21.9987  -12.7818   22.0760 N   0  0  0  0  0  0  0  0  0  0  0  0
  -29.5078  -16.3650   19.3164 N   0  0  0  0  0  0  0  0  0  0  0  0
  -25.1526  -31.6814   21.3365 N   0  0  0  0  0  0  0  0  0  0  0  0
  -21.9709  -26.3328   19.2616 N   0  0  0  0  0  0  0  0  0  0  0  0
  -22.6579  -24.1058   16.4982 N   0  3  0  0  0  0  0  0  0  0  0  0
  -33.4726  -21.1518   21.1813 O   0  0  0  0  0  0  0  0  0  0  0  0
  -29.5360  -22.8444   19.4845 O   0  0  0  0  0  0  0  0  0  0  0  0
  -22.3754  -14.5242   20.6335 O   0  0  0  0  0  0  0  0  0  0  0  0
  -25.5095  -29.5904   22.2972 O   0  0  0  0  0  0  0  0  0  0  0  0
  -22.3847  -29.1441   19.6274 O   0  0  0  0  0  0  0  0  0  0  0  0
  -23.4388  -24.5401   19.1661 O   0  0  0  0  0  0  0  0  0  0  0  0
  -31.3354  -15.2744   18.3934 O   0  0  0  0  0  0  0  0  0  0  0  0
  -22.7091   -8.1444   25.0802 O   0  0  0  0  0  0  0  0  0  0  0  0
  -29.9173  -25.5134   21.0187 O   0  0  0  0  0  0  0  0  0  1  0  0
  -23.5297   -2.7976   24.0111 F   0  0  0  0  0  0  0  0  0  0  0  0
  -20.5736   -6.4247   24.7265 F   0  0  0  0  0  0  0  0  0  0  0  0
  1  2  1  0  0  0  0
  1  5  2  0  0  0  0
  2  6  2  0  0  0  0
  3 12  2  0  0  0  0
  3 19  1  0  0  0  0
  4 13  1  0  0  0  0
  4 19  2  0  0  0  0
  5 21  1  0  0  0  0
  6 23  1  0  0  0  0
  7 14  2  0  0  0  0
  7 22  1  0  0  0  0
  8 10  2  0  0  0  0
  8 25  1  0  0  0  0
  9 11  1  0  0  0  0
  9 25  2  0  0  0  0
 10 26  1  0  0  0  0
 11 26  2  0  0  0  0
 12 27  1  0  0  0  0
 13 27  2  0  0  0  0
 14 28  1  0  0  0  0
 15 16  2  0  0  0  0
 15 29  1  0  0  0  0
 16 30  1  0  0  0  0
 17 24  1  0  0  0  0
 17 28  2  0  0  0  0
 18 30  2  0  0  0  0
 18 31  1  0  0  0  0
 19 32  1  0  0  0  0
 20 32  1  0  0  0  0
 20 33  2  0  0  0  0
 20 38  1  0  0  0  0
 21 23  2  0  0  0  0
 21 43  1  0  0  0  0
 22 24  2  0  0  0  0
 22 44  1  0  0  0  0
 23 52  1  0  0  0  0
 24 45  1  0  0  0  0
 25 66  1  0  0  0  0
 26 71  1  0  0  0  0
 27 82  1  0  0  0  0
 28 83  1  0  0  0  0
 29 31  2  0  0  0  0
 29 82  1  0  0  0  0
 30 84  1  0  0  0  0
 31 85  1  0  0  0  0
 32 64  2  0  0  0  0
 33 65  1  0  0  0  0
 33 69  1  0  0  0  0
 34 35  2  0  0  0  0
 34 36  1  0  0  0  0
 35 37  1  0  0  0  0
 35 60  1  0  0  0  0
 36 66  1  0  0  0  0
 36 75  2  0  0  0  0
 37 66  1  0  0  0  0
 37 76  2  0  0  0  0
 38 70  1  0  0  0  0
 38 77  2  0  0  0  0
 39 53  1  0  0  0  0
 39 72  1  0  0  0  0
 39 78  2  0  0  0  0
 40 61  1  0  0  0  0
 40 67  1  0  0  0  0
 40 79  2  0  0  0  0
 41 62  1  0  0  0  0
 41 73  1  0  0  0  0
 41 80  2  0  0  0  0
 42 68  1  0  0  0  0
 42 71  1  0  0  0  0
 42 81  2  0  0  0  0
 43 46  1  0  0  0  0
 44 53  1  0  0  0  0
 45 67  1  0  0  0  0
 46 48  1  0  0  0  0
 47 49  1  0  0  0  0
 47 50  1  0  0  0  0
 48 52  1  0  0  0  0
 49 54  1  0  0  0  0
 50 68  1  0  0  0  0
 51 54  1  0  0  0  0
 51 68  1  0  0  0  0
 52 72  1  0  0  0  0
 53 67  1  0  0  0  0
 54 65  1  0  0  0  0
 55 62  1  0  0  0  0
 56 63  1  0  0  0  0
 57 63  1  0  0  0  0
 58 63  1  0  0  0  0
 59 74  1  0  0  0  0
 60 83  1  0  0  0  0
 61 63  1  0  0  0  0
 61 73  1  0  0  0  0
 62 74  1  0  0  0  0
 64 65  1  0  0  0  0
M  CHG  1  74   1
M  ISO  4  42 100  60 101  71 100  83 101
M  END
> <Batch ID>
0088

> <Smiles>
CNC(C)C(=O)NC(C(=O)N1Cc2cc([101O:1][101CH2:1]C3=CC(=O)N(c4ccc([100NH:0][100C:0](=O)N5CCCC(n6nc(-c7ccc(Oc8ccc(F)cc8F)cc7)c(C(N)=O)c6N)C5)cc4)C3=O)ccc2CC1C(=O)NC1CCCc2ccccc21)C(C)(C)C

> <Shape>
0.296

> <Color>
0.133

> <Negative vol penalty>
0.000

$$$$

  -OEChem-04052300233D

 87 96  0     1  0  0  0  0  0999 V2000
  -17.0426  -26.8950   22.3368 C   0  0  0  0  0  0  0  0  0  0  0  0
  -18.2638  -26.2766   22.5851 C   0  0  0  0  0  0  0  0  0  0  0  0
  -24.2533   -9.5687   21.6234 C   0  0  0  0  0  0  0  0  0  0  0  0
  -24.7116  -10.7957   23.6535 C   0  0  0  0  0  0  0  0  0  0  0  0
  -17.0095  -28.1640   21.7602 C   0  0  0  0  0  0  0  0  0  0  0  0
  -19.4528  -26.9265   22.2560 C   0  0  0  0  0  0  0  0  0  0  0  0
  -24.7661  -26.6404   25.2879 C   0  0  0  0  0  0  0  0  0  0  0  0
  -23.8507   -8.4679   22.3795 C   0  0  0  0  0  0  0  0  0  0  0  0
  -24.3089   -9.6949   24.4097 C   0  0  0  0  0  0  0  0  0  0  0  0
  -25.9241  -25.8918   25.0825 C   0  0  0  0  0  0  0  0  0  0  0  0
  -21.1125   -7.5041   24.1133 C   0  0  0  0  0  0  0  0  0  0  0  0
  -19.9390   -6.8520   23.7349 C   0  0  0  0  0  0  0  0  0  0  0  0
  -26.9080  -27.7497   23.8994 C   0  0  0  0  0  0  0  0  0  0  0  0
  -28.5259  -20.9757   20.7616 C   0  0  0  0  0  0  0  0  0  0  0  0
  -30.6457  -20.3238   21.7199 C   0  0  0  0  0  0  0  0  0  0  0  0
  -21.1833   -4.8085   23.3981 C   0  0  0  0  0  0  0  0  0  0  0  0
  -24.6839  -10.7326   22.2604 C   0  0  0  0  0  0  0  0  0  0  0  0
  -24.2933  -12.9286   21.0224 C   0  0  0  0  0  0  0  0  0  0  0  0
  -18.1989  -28.8338   21.4328 C   0  0  0  0  0  0  0  0  0  0  0  0
  -24.6660  -27.9477   24.7904 C   0  0  0  0  0  0  0  0  0  0  0  0
  -19.4356  -28.2052   21.6733 C   0  0  0  0  0  0  0  0  0  0  0  0
  -25.7486  -28.5137   24.1021 C   0  0  0  0  0  0  0  0  0  0  0  0
  -29.6953  -21.3073   21.4458 C   0  0  0  0  0  0  0  0  0  0  0  0
  -28.3067  -19.6605   20.3517 C   0  0  0  0  0  0  0  0  0  0  0  0
  -29.2571  -18.6770   20.6259 C   0  0  0  0  0  0  0  0  0  0  0  0
  -23.8785   -8.5310   23.7727 C   0  0  0  0  0  0  0  0  0  0  0  0
  -26.9942  -26.4453   24.3856 C   0  0  0  0  0  0  0  0  0  0  0  0
  -22.3214   -6.8085   24.1341 C   0  0  0  0  0  0  0  0  0  0  0  0
  -19.9744   -5.5042   23.3773 C   0  0  0  0  0  0  0  0  0  0  0  0
  -30.4266  -19.0086   21.3100 C   0  0  0  0  0  0  0  0  0  0  0  0
  -22.3568   -5.4607   23.7765 C   0  0  0  0  0  0  0  0  0  0  0  0
  -25.1004  -11.8698   21.4799 C   0  0  0  0  0  0  0  0  0  0  0  0
  -25.1565  -13.7460   20.3345 C   0  0  0  0  0  0  0  0  0  0  0  0
  -30.9173  -24.5929   22.4332 C   0  0  0  0  0  0  0  0  0  0  0  0
  -29.6054  -24.7759   22.5671 C   0  0  0  0  0  0  0  0  0  0  0  0
  -31.1525  -23.2129   21.9853 C   0  0  0  0  0  0  0  0  0  0  0  0
  -28.9248  -23.5212   22.1921 C   0  0  0  0  0  0  0  0  0  0  0  0
  -22.8888  -13.1532   21.2032 C   0  0  0  0  0  0  0  0  0  0  0  0
  -22.7739  -29.4127   22.6982 C   0  0  0  0  0  0  0  0  0  0  0  0
  -24.3637  -32.0563   23.7014 C   0  0  0  0  0  0  0  0  0  0  0  0
  -27.1733  -33.3876   25.1088 C   0  0  0  0  0  0  0  0  0  0  0  0
  -30.0304  -16.3991   19.8778 C   0  0  0  0  0  0  0  0  0  0  0  0
  -18.1118  -30.1847   20.7677 C   0  0  0  0  0  0  0  0  0  0  0  0
  -23.4201  -28.7515   25.0436 C   0  0  0  0  0  0  0  0  0  0  0  0
  -25.6992  -29.9200   23.5653 C   0  0  0  0  0  0  0  0  0  0  0  0
  -19.4254  -30.9620   20.7933 C   0  0  0  0  0  0  0  0  0  0  0  0
  -29.9388  -12.9888   18.8589 C   0  0  0  0  0  0  0  0  0  0  0  0
  -20.5861  -30.0626   20.3802 C   0  0  0  0  0  0  0  0  0  0  0  0
  -28.6055  -12.4807   19.4123 C   0  0  0  0  0  0  0  0  0  0  0  0
  -30.6053  -13.9825   19.8086 C   0  0  0  0  0  0  0  0  0  0  0  0
  -28.4256  -14.6009   20.7759 C   0  0  0  0  0  0  0  0  0  0  0  0
  -20.7474  -28.8884   21.3531 C   0  0  1  0  0  0  0  0  0  0  0  0
  -23.2315  -29.8911   24.0470 C   0  0  1  0  0  0  0  0  0  0  0  0
  -27.6855  -13.6466   19.8245 C   0  0  2  0  0  0  0  0  0  0  0  0
  -28.1970  -35.5826   25.7655 C   0  0  0  0  0  0  0  0  0  0  0  0
  -24.9940  -32.6357   20.7728 C   0  0  0  0  0  0  0  0  0  0  0  0
  -26.7602  -34.2350   21.5416 C   0  0  0  0  0  0  0  0  0  0  0  0
  -24.3694  -34.6460   22.1230 C   0  0  0  0  0  0  0  0  0  0  0  0
  -27.3081  -32.6040   27.9596 C   0  0  0  0  0  0  0  0  0  0  0  0
  -28.8735  -25.9937   22.9999 C   0  0  0  0  0  0  0  0  0  1  0  0
  -25.6207  -32.7745   23.2736 C   0  0  1  0  0  0  0  0  0  0  0  0
  -27.3581  -34.4001   26.2246 C   0  0  2  0  0  0  0  0  0  0  0  0
  -25.4366  -33.5456   21.9360 C   0  0  0  0  0  0  0  0  0  0  0  0
  -26.3782  -12.0000   21.1133 N   0  0  0  0  0  0  0  0  0  0  0  0
  -26.3805  -13.1502   20.4182 N   0  0  0  0  0  0  0  0  0  0  0  0
  -29.9141  -22.6179   21.8548 N   0  0  0  0  0  0  0  0  0  0  0  0
  -24.4569  -30.6635   23.8330 N   0  0  0  0  0  0  0  0  0  0  0  0
  -29.6760  -15.0612   20.1519 N   0  0  0  0  0  0  0  0  0  0  0  0
  -27.1150  -19.3466   19.6601 N   0  0  0  0  0  0  0  0  0  0  0  0
  -24.9803  -14.9091   19.6722 N   0  0  0  0  0  0  0  0  0  0  0  0
  -22.1509  -12.2140   21.9365 N   0  0  0  0  0  0  0  0  0  0  0  0
  -29.0544  -17.3353   20.2177 N   0  0  0  0  0  0  0  0  0  0  0  0
  -21.4010  -29.3250   22.5683 N   0  0  0  0  0  0  0  0  0  0  0  0
  -26.0134  -33.6157   24.3990 N   0  0  0  0  0  0  0  0  0  0  0  0
  -28.0362  -33.7675   27.3911 N   0  3  0  0  0  0  0  0  0  0  0  0
  -32.2617  -22.7456   21.7840 O   0  0  0  0  0  0  0  0  0  0  0  0
  -27.7139  -23.3671   22.1999 O   0  0  0  0  0  0  0  0  0  0  0  0
  -22.3023  -14.1486   20.7146 O   0  0  0  0  0  0  0  0  0  0  0  0
  -23.6049  -29.1446   21.8384 O   0  0  0  0  0  0  0  0  0  0  0  0
  -23.3389  -32.7077   23.9180 O   0  0  0  0  0  0  0  0  0  0  0  0
  -27.9793  -32.4867   24.8866 O   0  0  0  0  0  0  0  0  0  0  0  0
  -31.1084  -16.6905   19.3533 O   0  0  0  0  0  0  0  0  0  0  0  0
  -23.4854   -7.4572   24.5108 O   0  0  0  0  0  0  0  0  0  0  0  0
  -28.1255  -25.7166   24.1831 O   0  0  0  0  0  0  0  0  0  1  0  0
  -18.8471   -4.8776   23.0154 F   0  0  0  0  0  0  0  0  0  0  0  0
  -31.3476  -18.0721   21.5792 F   0  0  0  0  0  0  0  0  0  0  0  0
  -23.5149   -4.7869   23.7957 F   0  0  0  0  0  0  0  0  0  0  0  0
  1  2  1  0  0  0  0
  1  5  2  0  0  0  0
  2  6  2  0  0  0  0
  3  8  2  0  0  0  0
  3 17  1  0  0  0  0
  4  9  1  0  0  0  0
  4 17  2  0  0  0  0
  5 19  1  0  0  0  0
  6 21  1  0  0  0  0
  7 10  2  0  0  0  0
  7 20  1  0  0  0  0
  8 26  1  0  0  0  0
  9 26  2  0  0  0  0
 10 27  1  0  0  0  0
 11 12  2  0  0  0  0
 11 28  1  0  0  0  0
 12 29  1  0  0  0  0
 13 22  1  0  0  0  0
 13 27  2  0  0  0  0
 14 23  1  0  0  0  0
 14 24  2  0  0  0  0
 15 23  2  0  0  0  0
 15 30  1  0  0  0  0
 16 29  2  0  0  0  0
 16 31  1  0  0  0  0
 17 32  1  0  0  0  0
 18 32  1  0  0  0  0
 18 33  2  0  0  0  0
 18 38  1  0  0  0  0
 19 21  2  0  0  0  0
 19 43  1  0  0  0  0
 20 22  2  0  0  0  0
 20 44  1  0  0  0  0
 21 52  1  0  0  0  0
 22 45  1  0  0  0  0
 23 66  1  0  0  0  0
 24 25  1  0  0  0  0
 24 69  1  0  0  0  0
 25 30  2  0  0  0  0
 25 72  1  0  0  0  0
 26 83  1  0  0  0  0
 27 84  1  0  0  0  0
 28 31  2  0  0  0  0
 28 83  1  0  0  0  0
 29 85  1  0  0  0  0
 30 86  1  0  0  0  0
 31 87  1  0  0  0  0
 32 64  2  0  0  0  0
 33 65  1  0  0  0  0
 33 70  1  0  0  0  0
 34 35  2  0  0  0  0
 34 36  1  0  0  0  0
 35 37  1  0  0  0  0
 35 60  1  0  0  0  0
 36 66  1  0  0  0  0
 36 76  2  0  0  0  0
 37 66  1  0  0  0  0
 37 77  2  0  0  0  0
 38 71  1  0  0  0  0
 38 78  2  0  0  0  0
 39 53  1  0  0  0  0
 39 73  1  0  0  0  0
 39 79  2  0  0  0  0
 40 61  1  0  0  0  0
 40 67  1  0  0  0  0
 40 80  2  0  0  0  0
 41 62  1  0  0  0  0
 41 74  1  0  0  0  0
 41 81  2  0  0  0  0
 42 68  1  0  0  0  0
 42 72  1  0  0  0  0
 42 82  2  0  0  0  0
 43 46  1  0  0  0  0
 44 53  1  0  0  0  0
 45 67  1  0  0  0  0
 46 48  1  0  0  0  0
 47 49  1  0  0  0  0
 47 50  1  0  0  0  0
 48 52  1  0  0  0  0
 49 54  1  0  0  0  0
 50 68  1  0  0  0  0
 51 54  1  0  0  0  0
 51 68  1  0  0  0  0
 52 73  1  0  0  0  0
 53 67  1  0  0  0  0
 54 65  1  0  0  0  0
 55 62  1  0  0  0  0
 56 63  1  0  0  0  0
 57 63  1  0  0  0  0
 58 63  1  0  0  0  0
 59 75  1  0  0  0  0
 60 84  1  0  0  0  0
 61 63  1  0  0  0  0
 61 74  1  0  0  0  0
 62 75  1  0  0  0  0
 64 65  1  0  0  0  0
M  CHG  1  75   1
M  ISO  4  42 100  60 101  72 100  84 101
M  END
> <Batch ID>
0088

> <Smiles>
CNC(C)C(=O)NC(C(=O)N1Cc2cc([101O:1][101CH2:1]C3=CC(=O)N(c4cc(N)c([100NH:0][100C:0](=O)N5CCCC(n6nc(-c7ccc(Oc8ccc(F)cc8F)cc7)c(C(N)=O)c6N)C5)c(F)c4)C3=O)ccc2CC1C(=O)NC1CCCc2ccccc21)C(C)(C)C

> <Shape>
0.309

> <Color>
0.143

> <Negative vol penalty>
0.000

$$$$

  -OEChem-04052300233D

 85 94  0     1  0  0  0  0  0999 V2000
  -33.9698  -34.5564   20.0267 C   0  0  0  0  0  0  0  0  0  0  0  0
  -33.4783  -33.2637   20.1774 C   0  0  0  0  0  0  0  0  0  0  0  0
  -24.3865   -8.6463   21.3933 C   0  0  0  0  0  0  0  0  0  0  0  0
  -24.4523  -10.2171   23.2278 C   0  0  0  0  0  0  0  0  0  0  0  0
  -33.5282  -35.5721   20.8737 C   0  0  0  0  0  0  0  0  0  0  0  0
  -32.5455  -32.9857   21.1760 C   0  0  0  0  0  0  0  0  0  0  0  0
  -28.7270  -30.1016   19.5189 C   0  0  0  0  0  0  0  0  0  0  0  0
  -24.0901   -7.6162   22.2859 C   0  0  0  0  0  0  0  0  0  0  0  0
  -24.1559   -9.1871   24.1204 C   0  0  0  0  0  0  0  0  0  0  0  0
  -28.9740  -28.7365   19.3797 C   0  0  0  0  0  0  0  0  0  0  0  0
  -21.3829   -6.4689   23.9555 C   0  0  0  0  0  0  0  0  0  0  0  0
  -20.3669   -5.5798   23.6051 C   0  0  0  0  0  0  0  0  0  0  0  0
  -27.8777  -28.3290   21.4894 C   0  0  0  0  0  0  0  0  0  0  0  0
  -26.7335  -20.2698   19.5966 C   0  0  0  0  0  0  0  0  0  0  0  0
  -29.1760  -18.9357   19.4031 C   0  0  0  0  0  0  0  0  0  0  0  0
  -21.9408   -3.7486   23.6881 C   0  0  0  0  0  0  0  0  0  0  0  0
  -24.5677   -9.9467   21.8642 C   0  0  0  0  0  0  0  0  0  0  0  0
  -23.9594  -11.8398   20.2661 C   0  0  0  0  0  0  0  0  0  0  0  0
  -32.5823  -35.3084   21.8769 C   0  0  0  0  0  0  0  0  0  0  0  0
  -28.0619  -30.5926   20.6516 C   0  0  0  0  0  0  0  0  0  0  0  0
  -32.0918  -33.9985   22.0380 C   0  0  0  0  0  0  0  0  0  0  0  0
  -27.6212  -29.7004   21.6395 C   0  0  0  0  0  0  0  0  0  0  0  0
  -26.7604  -18.8892   19.3994 C   0  0  0  0  0  0  0  0  0  0  0  0
  -27.9279  -20.9834   19.6969 C   0  0  0  0  0  0  0  0  0  0  0  0
  -27.9816  -18.2222   19.3027 C   0  0  0  0  0  0  0  0  0  0  0  0
  -23.9748   -7.8866   23.6494 C   0  0  0  0  0  0  0  0  0  0  0  0
  -28.5519  -27.8503   20.3664 C   0  0  0  0  0  0  0  0  0  0  0  0
  -22.6779   -5.9979   24.1721 C   0  0  0  0  0  0  0  0  0  0  0  0
  -20.6458   -4.2196   23.4714 C   0  0  0  0  0  0  0  0  0  0  0  0
  -29.1491  -20.3163   19.6002 C   0  0  0  0  0  0  0  0  0  0  0  0
  -22.9568   -4.6378   24.0385 C   0  0  0  0  0  0  0  0  0  0  0  0
  -24.8744  -11.0111   20.9427 C   0  0  0  0  0  0  0  0  0  0  0  0
  -24.7463  -12.6814   19.5184 C   0  0  0  0  0  0  0  0  0  0  0  0
  -27.8388  -24.3361   20.0765 C   0  0  0  0  0  0  0  0  0  0  0  0
  -26.8810  -23.2312   20.0186 C   0  0  0  0  0  0  0  0  0  0  0  0
  -27.7205  -25.6702   20.2042 C   0  0  0  0  0  0  0  0  0  1  0  0
  -22.5263  -11.8482   20.3097 C   0  0  0  0  0  0  0  0  0  0  0  0
  -28.8204  -32.5829   23.0111 C   0  0  0  0  0  0  0  0  0  0  0  0
  -25.7046  -32.1883   23.8225 C   0  0  0  0  0  0  0  0  0  0  0  0
  -22.8972  -30.2529   23.6832 C   0  0  0  0  0  0  0  0  0  0  0  0
  -29.1683  -16.0228   18.9853 C   0  0  0  0  0  0  0  0  0  0  0  0
  -32.1703  -36.4287   22.7987 C   0  0  0  0  0  0  0  0  0  0  0  0
  -27.7795  -32.0649   20.7741 C   0  0  0  0  0  0  0  0  0  0  0  0
  -26.8851  -30.1747   22.8650 C   0  0  0  0  0  0  0  0  0  0  0  0
  -28.9615  -23.3346   19.9311 C   0  0  0  0  0  0  0  0  0  0  0  0
  -30.8996  -36.1302   23.5901 C   0  0  0  0  0  0  0  0  0  0  0  0
  -29.7069  -12.5339   18.5220 C   0  0  0  0  0  0  0  0  0  0  0  0
  -30.9614  -34.7293   24.1906 C   0  0  0  0  0  0  0  0  0  0  0  0
  -28.4224  -11.8948   19.0548 C   0  0  0  0  0  0  0  0  0  0  0  0
  -30.1167  -13.7542   19.3446 C   0  0  0  0  0  0  0  0  0  0  0  0
  -27.7851  -14.1309   20.0452 C   0  0  0  0  0  0  0  0  0  0  0  0
  -31.0605  -33.6627   23.0934 C   0  0  1  0  0  0  0  0  0  0  0  0
  -27.5484  -32.5112   22.2145 C   0  0  1  0  0  0  0  0  0  0  0  0
  -27.2969  -12.9364   19.2094 C   0  0  2  0  0  0  0  0  0  0  0  0
  -25.4657  -18.1502   19.2953 C   0  0  0  0  0  0  0  0  0  0  0  0
  -20.5166  -30.1756   24.4732 C   0  0  0  0  0  0  0  0  0  0  0  0
  -26.6594  -31.4184   26.6163 C   0  0  0  0  0  0  0  0  0  0  0  0
  -24.3888  -30.4575   27.0517 C   0  0  0  0  0  0  0  0  0  0  0  0
  -24.6398  -32.8929   26.5735 C   0  0  0  0  0  0  0  0  0  0  0  0
  -21.8565  -30.2322   20.9127 C   0  0  0  0  0  0  0  0  0  0  0  0
  -24.9418  -31.2241   24.6984 C   0  0  1  0  0  0  0  0  0  0  0  0
  -21.4552  -30.5922   23.3515 C   0  0  2  0  0  0  0  0  0  0  0  0
  -25.1730  -31.4892   26.2129 C   0  0  0  0  0  0  0  0  0  0  0  0
  -26.1453  -11.2998   20.6505 N   0  0  0  0  0  0  0  0  0  0  0  0
  -26.0346  -12.3194   19.7820 N   0  0  0  0  0  0  0  0  0  0  0  0
  -27.8994  -22.3449   19.8911 N   0  0  0  0  0  0  0  0  0  0  0  0
  -26.6385  -31.6241   22.9420 N   0  0  0  0  0  0  0  0  0  0  0  0
  -29.0022  -14.6991   19.4447 N   0  0  0  0  0  0  0  0  0  0  0  0
  -24.4550  -13.6882   18.6676 N   0  0  0  0  0  0  0  0  0  0  0  0
  -21.8774  -10.9157   21.1305 N   0  0  0  0  0  0  0  0  0  0  0  0
  -28.0304  -16.8204   19.1016 N   0  0  0  0  0  0  0  0  0  0  0  0
  -29.7662  -33.4419   22.4847 N   0  0  0  0  0  0  0  0  0  0  0  0
  -23.5461  -31.3115   24.2828 N   0  0  0  0  0  0  0  0  0  0  0  0
  -21.0333  -29.8966   22.1029 N   0  3  0  0  0  0  0  0  0  0  0  0
  -25.6716  -23.1387   20.0548 O   0  0  0  0  0  0  0  0  0  0  0  0
  -21.8412  -12.6478   19.6281 O   0  0  0  0  0  0  0  0  0  0  0  0
  -28.9347  -31.9100   24.0288 O   0  0  0  0  0  0  0  0  0  0  0  0
  -25.4750  -33.3971   23.9110 O   0  0  0  0  0  0  0  0  0  0  0  0
  -23.3968  -29.1570   23.4384 O   0  0  0  0  0  0  0  0  0  0  0  0
  -30.2327  -16.4118   18.4978 O   0  0  0  0  0  0  0  0  0  0  0  0
  -23.6853   -6.8818   24.5207 O   0  0  0  0  0  0  0  0  0  0  0  0
  -28.7923  -26.5175   20.2333 O   0  0  0  0  0  0  0  0  0  1  0  0
  -19.6698   -3.3657   23.1364 F   0  0  0  0  0  0  0  0  0  0  0  0
  -30.3027  -20.9927   19.6961 F   0  0  0  0  0  0  0  0  0  0  0  0
  -24.1987   -4.1792   24.2465 F   0  0  0  0  0  0  0  0  0  0  0  0
  1  2  1  0  0  0  0
  1  5  2  0  0  0  0
  2  6  2  0  0  0  0
  3  8  2  0  0  0  0
  3 17  1  0  0  0  0
  4  9  1  0  0  0  0
  4 17  2  0  0  0  0
  5 19  1  0  0  0  0
  6 21  1  0  0  0  0
  7 10  2  0  0  0  0
  7 20  1  0  0  0  0
  8 26  1  0  0  0  0
  9 26  2  0  0  0  0
 10 27  1  0  0  0  0
 11 12  2  0  0  0  0
 11 28  1  0  0  0  0
 12 29  1  0  0  0  0
 13 22  1  0  0  0  0
 13 27  2  0  0  0  0
 14 23  2  0  0  0  0
 14 24  1  0  0  0  0
 15 25  2  0  0  0  0
 15 30  1  0  0  0  0
 16 29  2  0  0  0  0
 16 31  1  0  0  0  0
 17 32  1  0  0  0  0
 18 32  1  0  0  0  0
 18 33  2  0  0  0  0
 18 37  1  0  0  0  0
 19 21  2  0  0  0  0
 19 42  1  0  0  0  0
 20 22  2  0  0  0  0
 20 43  1  0  0  0  0
 21 52  1  0  0  0  0
 22 44  1  0  0  0  0
 23 25  1  0  0  0  0
 23 55  1  0  0  0  0
 24 30  2  0  0  0  0
 24 66  1  0  0  0  0
 25 71  1  0  0  0  0
 26 81  1  0  0  0  0
 27 82  1  0  0  0  0
 28 31  2  0  0  0  0
 28 81  1  0  0  0  0
 29 83  1  0  0  0  0
 30 84  1  0  0  0  0
 31 85  1  0  0  0  0
 32 64  2  0  0  0  0
 33 65  1  0  0  0  0
 33 69  1  0  0  0  0
 34 35  1  0  0  0  0
 34 36  2  0  0  0  0
 34 45  1  0  0  0  0
 35 66  1  0  0  0  0
 35 75  2  0  0  0  0
 36 82  1  0  0  0  0
 37 70  1  0  0  0  0
 37 76  2  0  0  0  0
 38 53  1  0  0  0  0
 38 72  1  0  0  0  0
 38 77  2  0  0  0  0
 39 61  1  0  0  0  0
 39 67  1  0  0  0  0
 39 78  2  0  0  0  0
 40 62  1  0  0  0  0
 40 73  1  0  0  0  0
 40 79  2  0  0  0  0
 41 68  1  0  0  0  0
 41 71  1  0  0  0  0
 41 80  2  0  0  0  0
 42 46  1  0  0  0  0
 43 53  1  0  0  0  0
 44 67  1  0  0  0  0
 45 66  1  0  0  0  0
 46 48  1  0  0  0  0
 47 49  1  0  0  0  0
 47 50  1  0  0  0  0
 48 52  1  0  0  0  0
 49 54  1  0  0  0  0
 50 68  1  0  0  0  0
 51 54  1  0  0  0  0
 51 68  1  0  0  0  0
 52 72  1  0  0  0  0
 53 67  1  0  0  0  0
 54 65  1  0  0  0  0
 56 62  1  0  0  0  0
 57 63  1  0  0  0  0
 58 63  1  0  0  0  0
 59 63  1  0  0  0  0
 60 74  1  0  0  0  0
 61 63  1  0  0  0  0
 61 73  1  0  0  0  0
 62 74  1  0  0  0  0
 64 65  1  0  0  0  0
M  CHG  1  74   1
M  ISO  4  36 101  41 100  71 100  82 101
M  END
> <Batch ID>
0088

> <Smiles>
CNC(C)C(=O)NC(C(=O)N1Cc2cc([101O:1][101CH:1]=C3CN(c4cc(C)c([100NH:0][100C:0](=O)N5CCCC(n6nc(-c7ccc(Oc8ccc(F)cc8F)cc7)c(C(N)=O)c6N)C5)cc4F)C3=O)ccc2CC1C(=O)NC1CCCc2ccccc21)C(C)(C)C

> <Shape>
0.285

> <Color>
0.101

> <Negative vol penalty>
0.000

$$$$

  -OEChem-04052300233D

 84 92  0     1  0  0  0  0  0999 V2000
  -26.4366  -32.8752   27.1922 C   0  0  0  0  0  0  0  0  0  0  0  0
  -26.9935  -32.0311   26.2368 C   0  0  0  0  0  0  0  0  0  0  0  0
  -22.8234  -11.4969   18.7241 C   0  0  0  0  0  0  0  0  0  0  0  0
  -22.8217  -10.3603   20.8561 C   0  0  0  0  0  0  0  0  0  0  0  0
  -30.4387  -19.5320   19.3289 C   0  0  0  0  0  0  0  0  0  0  0  0
  -25.1495  -32.6322   27.6700 C   0  0  0  0  0  0  0  0  0  0  0  0
  -26.2640  -30.9428   25.7594 C   0  0  0  0  0  0  0  0  0  0  0  0
  -26.3666  -28.6468   20.0829 C   0  0  0  0  0  0  0  0  0  0  0  0
  -29.6235  -20.6631   19.2864 C   0  0  0  0  0  0  0  0  0  0  0  0
  -21.8021  -10.6590   18.2765 C   0  0  0  0  0  0  0  0  0  0  0  0
  -21.8003   -9.5223   20.4085 C   0  0  0  0  0  0  0  0  0  0  0  0
  -27.0390  -27.5619   19.5219 C   0  0  0  0  0  0  0  0  0  0  0  0
  -21.5031   -6.7873   18.4433 C   0  0  0  0  0  0  0  0  0  0  0  0
  -21.6236   -5.4224   18.7040 C   0  0  0  0  0  0  0  0  0  0  0  0
  -28.5989  -18.2392   20.2125 C   0  0  0  0  0  0  0  0  0  0  0  0
  -25.0821  -26.1891   19.8463 C   0  0  0  0  0  0  0  0  0  0  0  0
  -19.5627   -5.4810   19.9634 C   0  0  0  0  0  0  0  0  0  0  0  0
  -23.3333  -11.3476   20.0139 C   0  0  0  0  0  0  0  0  0  0  0  0
  -29.9264  -18.3200   19.7919 C   0  0  0  0  0  0  0  0  0  0  0  0
  -24.2474  -13.4484   21.1357 C   0  0  0  0  0  0  0  0  0  0  0  0
  -24.4001  -31.5460   27.1912 C   0  0  0  0  0  0  0  0  0  0  0  0
  -25.0484  -28.5079   20.5405 C   0  0  0  0  0  0  0  0  0  0  0  0
  -24.9662  -30.6843   26.2323 C   0  0  0  0  0  0  0  0  0  0  0  0
  -24.3944  -27.2744   20.4104 C   0  0  0  0  0  0  0  0  0  0  0  0
  -28.2960  -20.5822   19.7071 C   0  0  0  0  0  0  0  0  0  0  0  0
  -27.7837  -19.3702   20.1701 C   0  0  0  0  0  0  0  0  0  0  0  0
  -21.2906   -9.6717   19.1187 C   0  0  0  0  0  0  0  0  0  0  0  0
  -26.3977  -26.3320   19.4062 C   0  0  0  0  0  0  0  0  0  0  0  0
  -20.4124   -7.4991   18.9427 C   0  0  0  0  0  0  0  0  0  0  0  0
  -20.6534   -4.7692   19.4640 C   0  0  0  0  0  0  0  0  0  0  0  0
  -19.4422   -6.8459   19.7027 C   0  0  0  0  0  0  0  0  0  0  0  0
  -24.3887  -12.2125   20.4767 C   0  0  0  0  0  0  0  0  0  0  0  0
  -25.5362  -13.8667   21.3608 C   0  0  0  0  0  0  0  0  0  0  0  0
  -30.7950  -17.1157   19.8366 C   0  0  0  0  0  0  0  0  0  0  0  0
  -23.0577  -14.1550   21.5110 C   0  0  0  0  0  0  0  0  0  0  0  0
  -23.6116  -28.7931   23.3615 C   0  0  0  0  0  0  0  0  0  0  0  0
  -20.9236  -28.3557   21.5991 C   0  0  0  0  0  0  0  0  0  0  0  0
  -27.8544  -23.0111   19.2177 C   0  0  0  0  0  0  0  0  0  0  0  0
  -19.4911  -27.1236   18.7572 C   0  0  0  0  0  0  0  0  0  0  0  0
  -30.7672  -14.6446   19.7088 C   0  0  0  0  0  0  0  0  0  0  0  0
  -23.0310  -31.2962   27.7723 C   0  0  0  0  0  0  0  0  0  0  0  0
  -24.3279  -29.6948   21.1188 C   0  0  0  0  0  0  0  0  0  0  0  0
  -22.9728  -27.0785   20.8678 C   0  0  0  0  0  0  0  0  0  0  0  0
  -22.1814  -30.3391   26.9401 C   0  0  0  0  0  0  0  0  0  0  0  0
  -29.9358  -11.4075   20.8610 C   0  0  0  0  0  0  0  0  0  0  0  0
  -22.9958  -29.1130   26.5396 C   0  0  0  0  0  0  0  0  0  0  0  0
  -28.4062  -11.4294   20.9267 C   0  0  0  0  0  0  0  0  0  0  0  0
  -30.4631  -12.1848   19.6557 C   0  0  0  0  0  0  0  0  0  0  0  0
  -28.4340  -13.5765   19.5950 C   0  0  0  0  0  0  0  0  0  0  0  0
  -24.1968  -29.5078   25.6718 C   0  0  1  0  0  0  0  0  0  0  0  0
  -23.1621  -29.3043   22.0220 C   0  0  1  0  0  0  0  0  0  0  0  0
  -27.8564  -12.8668   20.8302 C   0  0  1  0  0  0  0  0  0  0  0  0
  -17.2691  -26.8828   17.6161 C   0  0  0  0  0  0  0  0  0  0  0  0
  -20.1925  -26.0889   23.5062 C   0  0  0  0  0  0  0  0  0  0  0  0
  -18.5268  -25.2957   21.8138 C   0  0  0  0  0  0  0  0  0  0  0  0
  -18.2768  -27.5538   22.8439 C   0  0  0  0  0  0  0  0  0  0  0  0
  -20.3790  -28.7297   16.4353 C   0  0  0  0  0  0  0  0  0  0  0  0
  -26.6854  -23.9727   19.3240 C   0  0  0  0  0  0  0  0  0  1  0  0
  -20.1181  -27.1579   21.1572 C   0  0  1  0  0  0  0  0  0  0  0  0
  -18.5150  -27.7408   17.7720 C   0  0  2  0  0  0  0  0  0  0  0  0
  -19.3060  -26.5269   22.3233 C   0  0  0  0  0  0  0  0  0  0  0  0
  -25.6663  -11.8682   20.2947 N   0  0  0  0  0  0  0  0  0  0  0  0
  -26.3397  -12.8940   20.8427 N   0  0  0  0  0  0  0  0  0  0  0  0
  -22.3129  -28.2674   21.4322 N   0  0  0  0  0  0  0  0  0  0  0  0
  -29.9033  -13.5375   19.6425 N   0  0  0  0  0  0  0  0  0  0  0  0
  -26.4420  -19.2647   20.6002 N   0  0  0  0  0  0  0  0  0  0  0  0
  -26.0491  -14.9681   21.9492 N   0  0  0  0  0  0  0  0  0  0  0  0
  -21.8157  -13.5827   21.2040 N   0  0  0  0  0  0  0  0  0  0  0  0
  -27.4876  -21.7424   19.6537 N   0  0  0  0  0  0  0  0  0  0  0  0
  -30.1333  -15.8918   19.7333 N   0  0  0  0  0  0  0  0  0  0  0  0
  -23.7724  -29.7800   24.3152 N   0  0  0  0  0  0  0  0  0  0  0  0
  -19.3015  -27.6067   20.0347 N   0  0  0  0  0  0  0  0  0  0  0  0
  -19.1539  -27.8892   16.4338 N   0  3  0  0  0  0  0  0  0  0  0  0
  -32.0118  -17.2587   19.9191 O   0  0  0  0  0  0  0  0  0  0  0  0
  -23.0949  -15.2690   22.0865 O   0  0  0  0  0  0  0  0  0  0  0  0
  -23.7972  -27.5920   23.5185 O   0  0  0  0  0  0  0  0  0  0  0  0
  -20.3410  -29.3366   22.0683 O   0  0  0  0  0  0  0  0  0  0  0  0
  -28.9476  -23.3729   18.7953 O   0  0  0  0  0  0  0  0  0  0  0  0
  -20.3347  -26.2929   18.4273 O   0  0  0  0  0  0  0  0  0  0  0  0
  -31.9951  -14.5318   19.7789 O   0  0  0  0  0  0  0  0  0  0  0  0
  -20.2938   -8.8540   18.6823 O   0  0  0  0  0  0  0  0  0  0  0  0
  -27.0519  -25.2713   18.8596 O   0  0  0  0  0  0  0  0  0  1  0  0
  -20.7685   -3.4581   19.7130 F   0  0  0  0  0  0  0  0  0  0  0  0
  -18.3915   -7.5243   20.1842 F   0  0  0  0  0  0  0  0  0  0  0  0
  1  2  1  0  0  0  0
  1  6  2  0  0  0  0
  2  7  2  0  0  0  0
  3 10  2  0  0  0  0
  3 18  1  0  0  0  0
  4 11  1  0  0  0  0
  4 18  2  0  0  0  0
  5  9  2  0  0  0  0
  5 19  1  0  0  0  0
  6 21  1  0  0  0  0
  7 23  1  0  0  0  0
  8 12  2  0  0  0  0
  8 22  1  0  0  0  0
  9 25  1  0  0  0  0
 10 27  1  0  0  0  0
 11 27  2  0  0  0  0
 12 28  1  0  0  0  0
 13 14  2  0  0  0  0
 13 29  1  0  0  0  0
 14 30  1  0  0  0  0
 15 19  2  0  0  0  0
 15 26  1  0  0  0  0
 16 24  1  0  0  0  0
 16 28  2  0  0  0  0
 17 30  2  0  0  0  0
 17 31  1  0  0  0  0
 18 32  1  0  0  0  0
 19 34  1  0  0  0  0
 20 32  1  0  0  0  0
 20 33  2  0  0  0  0
 20 35  1  0  0  0  0
 21 23  2  0  0  0  0
 21 41  1  0  0  0  0
 22 24  2  0  0  0  0
 22 42  1  0  0  0  0
 23 50  1  0  0  0  0
 24 43  1  0  0  0  0
 25 26  2  0  0  0  0
 25 69  1  0  0  0  0
 26 66  1  0  0  0  0
 27 81  1  0  0  0  0
 28 82  1  0  0  0  0
 29 31  2  0  0  0  0
 29 81  1  0  0  0  0
 30 83  1  0  0  0  0
 31 84  1  0  0  0  0
 32 62  2  0  0  0  0
 33 63  1  0  0  0  0
 33 67  1  0  0  0  0
 34 70  1  0  0  0  0
 34 74  2  0  0  0  0
 35 68  1  0  0  0  0
 35 75  2  0  0  0  0
 36 51  1  0  0  0  0
 36 71  1  0  0  0  0
 36 76  2  0  0  0  0
 37 59  1  0  0  0  0
 37 64  1  0  0  0  0
 37 77  2  0  0  0  0
 38 58  1  0  0  0  0
 38 69  1  0  0  0  0
 38 78  2  0  0  0  0
 39 60  1  0  0  0  0
 39 72  1  0  0  0  0
 39 79  2  0  0  0  0
 40 65  1  0  0  0  0
 40 70  1  0  0  0  0
 40 80  2  0  0  0  0
 41 44  1  0  0  0  0
 42 51  1  0  0  0  0
 43 64  1  0  0  0  0
 44 46  1  0  0  0  0
 45 47  1  0  0  0  0
 45 48  1  0  0  0  0
 46 50  1  0  0  0  0
 47 52  1  0  0  0  0
 48 65  1  0  0  0  0
 49 52  1  0  0  0  0
 49 65  1  0  0  0  0
 50 71  1  0  0  0  0
 51 64  1  0  0  0  0
 52 63  1  0  0  0  0
 53 60  1  0  0  0  0
 54 61  1  0  0  0  0
 55 61  1  0  0  0  0
 56 61  1  0  0  0  0
 57 73  1  0  0  0  0
 58 82  1  0  0  0  0
 59 61  1  0  0  0  0
 59 72  1  0  0  0  0
 60 73  1  0  0  0  0
 62 63  1  0  0  0  0
M  CHG  1  73   1
M  ISO  4  40 100  58 101  70 100  82 101
M  END
> <Batch ID>
0088

> <Smiles>
CNC(C)C(=O)NC(C(=O)N1Cc2cc([101O:1][101CH2:1]C(=O)Nc3ccc(C(=O)[100NH:0][100C:0](=O)N4CCCC(n5nc(-c6ccc(Oc7ccc(F)cc7F)cc6)c(C(N)=O)c5N)C4)cc3N)ccc2CC1C(=O)NC1CCCc2ccccc21)C(C)(C)C

> <Shape>
0.296

> <Color>
0.097

> <Negative vol penalty>
0.000

$$$$

  -OEChem-04052300233D

 83 91  0     1  0  0  0  0  0999 V2000
  -17.0931  -25.1755   24.1719 C   0  0  0  0  0  0  0  0  0  0  0  0
  -18.2713  -24.6441   24.6867 C   0  0  0  0  0  0  0  0  0  0  0  0
  -32.5347  -17.6724   23.3888 C   0  0  0  0  0  0  0  0  0  0  0  0
  -22.9991   -9.9253   20.0389 C   0  0  0  0  0  0  0  0  0  0  0  0
  -23.6972  -10.0534   22.3482 C   0  0  0  0  0  0  0  0  0  0  0  0
  -17.1460  -26.1931   23.2203 C   0  0  0  0  0  0  0  0  0  0  0  0
  -19.5032  -25.1294   24.2493 C   0  0  0  0  0  0  0  0  0  0  0  0
  -24.6160  -25.7201   27.5684 C   0  0  0  0  0  0  0  0  0  0  0  0
  -31.7238  -18.5836   24.0653 C   0  0  0  0  0  0  0  0  0  0  0  0
  -31.9645  -16.7437   22.5182 C   0  0  0  0  0  0  0  0  0  0  0  0
  -22.2400   -8.7923   20.3312 C   0  0  0  0  0  0  0  0  0  0  0  0
  -22.9381   -8.9203   22.6406 C   0  0  0  0  0  0  0  0  0  0  0  0
  -25.7520  -24.9212   27.6913 C   0  0  0  0  0  0  0  0  0  0  0  0
  -23.2183   -5.5710   22.2738 C   0  0  0  0  0  0  0  0  0  0  0  0
  -23.8065   -4.5829   23.0632 C   0  0  0  0  0  0  0  0  0  0  0  0
  -26.8787  -26.2809   26.0479 C   0  0  0  0  0  0  0  0  0  0  0  0
  -29.7723  -17.6372   23.0007 C   0  0  0  0  0  0  0  0  0  0  0  0
  -22.0613   -4.8604   24.7108 C   0  0  0  0  0  0  0  0  0  0  0  0
  -23.7278  -10.5559   21.0474 C   0  0  0  0  0  0  0  0  0  0  0  0
  -24.0921  -13.0685   20.7988 C   0  0  0  0  0  0  0  0  0  0  0  0
  -18.3791  -26.6978   22.7782 C   0  0  0  0  0  0  0  0  0  0  0  0
  -24.5991  -26.8006   26.6747 C   0  0  0  0  0  0  0  0  0  0  0  0
  -19.5727  -26.1539   23.2899 C   0  0  0  0  0  0  0  0  0  0  0  0
  -25.7422  -27.0935   25.9173 C   0  0  0  0  0  0  0  0  0  0  0  0
  -30.3426  -18.5660   23.8713 C   0  0  0  0  0  0  0  0  0  0  0  0
  -30.5833  -16.7261   22.3242 C   0  0  0  0  0  0  0  0  0  0  0  0
  -22.2094   -8.2898   21.6320 C   0  0  0  0  0  0  0  0  0  0  0  0
  -26.8826  -25.1998   26.9290 C   0  0  0  0  0  0  0  0  0  0  0  0
  -22.0517   -6.2039   22.7029 C   0  0  0  0  0  0  0  0  0  0  0  0
  -23.2279   -4.2275   24.2817 C   0  0  0  0  0  0  0  0  0  0  0  0
  -21.4732   -5.8486   23.9213 C   0  0  0  0  0  0  0  0  0  0  0  0
  -24.5126  -11.7260   20.7459 C   0  0  0  0  0  0  0  0  0  0  0  0
  -25.1993  -13.7901   20.4250 C   0  0  0  0  0  0  0  0  0  0  0  0
  -28.7499  -21.2464   25.9621 C   0  0  0  0  0  0  0  0  0  0  0  0
  -28.9213  -22.2446   26.8398 C   0  0  0  0  0  0  0  0  0  0  0  0
  -22.8148  -13.6143   21.1542 C   0  0  0  0  0  0  0  0  0  0  0  0
  -29.9226  -20.4749   25.4528 C   0  0  0  0  0  0  0  0  0  0  0  0
  -22.8934  -27.5566   24.1012 C   0  0  0  0  0  0  0  0  0  0  0  0
  -24.5307  -30.3486   24.3158 C   0  0  0  0  0  0  0  0  0  0  0  0
  -27.3070  -32.0022   25.4134 C   0  0  0  0  0  0  0  0  0  0  0  0
  -30.6667  -14.8099   20.6909 C   0  0  0  0  0  0  0  0  0  0  0  0
  -18.3866  -27.7657   21.7132 C   0  0  0  0  0  0  0  0  0  0  0  0
  -23.3750  -27.6689   26.5734 C   0  0  0  0  0  0  0  0  0  0  0  0
  -25.7821  -28.2543   24.9584 C   0  0  0  0  0  0  0  0  0  0  0  0
  -19.7275  -28.4827   21.5790 C   0  0  0  0  0  0  0  0  0  0  0  0
  -29.5977  -12.2767   18.4287 C   0  0  0  0  0  0  0  0  0  0  0  0
  -20.8719  -27.4744   21.5539 C   0  0  0  0  0  0  0  0  0  0  0  0
  -28.1449  -12.0181   18.8342 C   0  0  0  0  0  0  0  0  0  0  0  0
  -30.4820  -12.5654   19.6405 C   0  0  0  0  0  0  0  0  0  0  0  0
  -28.5443  -13.3764   20.9277 C   0  0  0  0  0  0  0  0  0  0  0  0
  -20.9280  -26.6709   22.8588 C   0  0  1  0  0  0  0  0  0  0  0  0
  -23.2916  -28.4325   25.2553 C   0  0  1  0  0  0  0  0  0  0  0  0
  -27.6021  -13.1448   19.7351 C   0  0  2  0  0  0  0  0  0  0  0  0
  -28.3812  -34.2701   25.4046 C   0  0  0  0  0  0  0  0  0  0  0  0
  -25.3526  -29.9455   21.4051 C   0  0  0  0  0  0  0  0  0  0  0  0
  -27.1362  -31.6698   21.7427 C   0  0  0  0  0  0  0  0  0  0  0  0
  -24.7349  -32.2950   21.9988 C   0  0  0  0  0  0  0  0  0  0  0  0
  -27.2443  -32.1712   28.3674 C   0  0  0  0  0  0  0  0  0  0  0  0
  -27.7914  -23.0517   27.3931 C   0  0  0  0  0  0  0  0  0  1  0  0
  -25.8390  -30.8656   23.7679 C   0  0  1  0  0  0  0  0  0  0  0  0
  -27.4688  -33.3150   26.1583 C   0  0  2  0  0  0  0  0  0  0  0  0
  -25.7646  -31.1708   22.2452 C   0  0  0  0  0  0  0  0  0  0  0  0
  -25.7875  -11.5996   20.3681 N   0  0  0  0  0  0  0  0  0  0  0  0
  -26.1775  -12.8718   20.1801 N   0  0  0  0  0  0  0  0  0  0  0  0
  -24.5584  -29.0700   24.8902 N   0  0  0  0  0  0  0  0  0  0  0  0
  -29.9076  -13.6463   20.4446 N   0  0  0  0  0  0  0  0  0  0  0  0
  -25.4218  -15.1143   20.2850 N   0  0  0  0  0  0  0  0  0  0  0  0
  -21.7873  -12.7313   21.5130 N   0  0  0  0  0  0  0  0  0  0  0  0
  -29.5197  -19.4920   24.5583 N   0  0  0  0  0  0  0  0  0  0  0  0
  -30.0047  -15.7824   21.4396 N   0  0  0  0  0  0  0  0  0  0  0  0
  -21.5278  -27.4604   23.9130 N   0  0  0  0  0  0  0  0  0  0  0  0
  -26.2005  -32.0148   24.5907 N   0  0  0  0  0  0  0  0  0  0  0  0
  -28.0516  -33.0757   27.5089 N   0  3  0  0  0  0  0  0  0  0  0  0
  -22.5865  -14.8477   21.1377 O   0  0  0  0  0  0  0  0  0  0  0  0
  -31.0624  -20.7326   25.8214 O   0  0  0  0  0  0  0  0  0  0  0  0
  -23.7608  -27.0098   23.4303 O   0  0  0  0  0  0  0  0  0  0  0  0
  -23.5230  -31.0563   24.2433 O   0  0  0  0  0  0  0  0  0  0  0  0
  -28.0865  -31.0611   25.5450 O   0  0  0  0  0  0  0  0  0  0  0  0
  -31.8092  -14.9457   20.2456 O   0  0  0  0  0  0  0  0  0  0  0  0
  -21.4686   -7.1843   21.9176 O   0  0  0  0  0  0  0  0  0  0  0  0
  -27.9925  -24.4213   27.0466 O   0  0  0  0  0  0  0  0  0  1  0  0
  -23.7920   -3.2774   25.0389 F   0  0  0  0  0  0  0  0  0  0  0  0
  -20.3518   -6.4522   24.3383 F   0  0  0  0  0  0  0  0  0  0  0  0
  1  2  1  0  0  0  0
  1  6  2  0  0  0  0
  2  7  2  0  0  0  0
  3  9  2  0  0  0  0
  3 10  1  0  0  0  0
  4 11  2  0  0  0  0
  4 19  1  0  0  0  0
  5 12  1  0  0  0  0
  5 19  2  0  0  0  0
  6 21  1  0  0  0  0
  7 23  1  0  0  0  0
  8 13  2  0  0  0  0
  8 22  1  0  0  0  0
  9 25  1  0  0  0  0
 10 26  2  0  0  0  0
 11 27  1  0  0  0  0
 12 27  2  0  0  0  0
 13 28  1  0  0  0  0
 14 15  2  0  0  0  0
 14 29  1  0  0  0  0
 15 30  1  0  0  0  0
 16 24  1  0  0  0  0
 16 28  2  0  0  0  0
 17 25  2  0  0  0  0
 17 26  1  0  0  0  0
 18 30  2  0  0  0  0
 18 31  1  0  0  0  0
 19 32  1  0  0  0  0
 20 32  1  0  0  0  0
 20 33  2  0  0  0  0
 20 36  1  0  0  0  0
 21 23  2  0  0  0  0
 21 42  1  0  0  0  0
 22 24  2  0  0  0  0
 22 43  1  0  0  0  0
 23 51  1  0  0  0  0
 24 44  1  0  0  0  0
 25 69  1  0  0  0  0
 26 70  1  0  0  0  0
 27 80  1  0  0  0  0
 28 81  1  0  0  0  0
 29 31  2  0  0  0  0
 29 80  1  0  0  0  0
 30 82  1  0  0  0  0
 31 83  1  0  0  0  0
 32 63  2  0  0  0  0
 33 64  1  0  0  0  0
 33 67  1  0  0  0  0
 34 35  2  0  0  0  0
 34 37  1  0  0  0  0
 35 59  1  0  0  0  0
 36 68  1  0  0  0  0
 36 74  2  0  0  0  0
 37 69  1  0  0  0  0
 37 75  2  0  0  0  0
 38 52  1  0  0  0  0
 38 71  1  0  0  0  0
 38 76  2  0  0  0  0
 39 60  1  0  0  0  0
 39 65  1  0  0  0  0
 39 77  2  0  0  0  0
 40 61  1  0  0  0  0
 40 72  1  0  0  0  0
 40 78  2  0  0  0  0
 41 66  1  0  0  0  0
 41 70  1  0  0  0  0
 41 79  2  0  0  0  0
 42 45  1  0  0  0  0
 43 52  1  0  0  0  0
 44 65  1  0  0  0  0
 45 47  1  0  0  0  0
 46 48  1  0  0  0  0
 46 49  1  0  0  0  0
 47 51  1  0  0  0  0
 48 53  1  0  0  0  0
 49 66  1  0  0  0  0
 50 53  1  0  0  0  0
 50 66  1  0  0  0  0
 51 71  1  0  0  0  0
 52 65  1  0  0  0  0
 53 64  1  0  0  0  0
 54 61  1  0  0  0  0
 55 62  1  0  0  0  0
 56 62  1  0  0  0  0
 57 62  1  0  0  0  0
 58 73  1  0  0  0  0
 59 81  1  0  0  0  0
 60 62  1  0  0  0  0
 60 72  1  0  0  0  0
 61 73  1  0  0  0  0
 63 64  1  0  0  0  0
M  CHG  1  73   1
M  ISO  4  41 100  59 101  70 100  81 101
M  END
> <Batch ID>
0088

> <Smiles>
CNC(C)C(=O)NC(C(=O)N1Cc2cc([101O:1][101CH2:1]C=CC(=O)Nc3cccc([100NH:0][100C:0](=O)N4CCCC(n5nc(-c6ccc(Oc7ccc(F)cc7F)cc6)c(C(N)=O)c5N)C4)c3)ccc2CC1C(=O)NC1CCCc2ccccc21)C(C)(C)C

> <Shape>
0.309

> <Color>
0.222

> <Negative vol penalty>
0.000

$$$$

  -OEChem-04052300233D

 86 94  0     1  0  0  0  0  0999 V2000
  -15.5537  -24.7755   21.8975 C   0  0  0  0  0  0  0  0  0  0  0  0
  -16.8657  -24.3136   21.8725 C   0  0  0  0  0  0  0  0  0  0  0  0
  -23.0225   -9.9444   19.9568 C   0  0  0  0  0  0  0  0  0  0  0  0
  -23.8199   -9.9019   22.2370 C   0  0  0  0  0  0  0  0  0  0  0  0
  -15.2880  -26.0973   22.2527 C   0  0  0  0  0  0  0  0  0  0  0  0
  -17.9129  -25.1735   22.2016 C   0  0  0  0  0  0  0  0  0  0  0  0
  -21.2958  -23.0206   25.2945 C   0  0  0  0  0  0  0  0  0  0  0  0
  -22.2589   -8.8034   20.2025 C   0  0  0  0  0  0  0  0  0  0  0  0
  -23.0562   -8.7609   22.4828 C   0  0  0  0  0  0  0  0  0  0  0  0
  -22.2104  -22.1376   24.7220 C   0  0  0  0  0  0  0  0  0  0  0  0
  -19.3188   -8.0468   21.6913 C   0  0  0  0  0  0  0  0  0  0  0  0
  -18.0034   -8.0348   21.2273 C   0  0  0  0  0  0  0  0  0  0  0  0
  -30.0349  -17.3440   23.1492 C   0  0  0  0  0  0  0  0  0  0  0  0
  -32.0440  -18.1893   24.1911 C   0  0  0  0  0  0  0  0  0  0  0  0
  -23.8785  -23.8803   24.7138 C   0  0  0  0  0  0  0  0  0  0  0  0
  -32.1906  -16.4592   22.5111 C   0  0  0  0  0  0  0  0  0  0  0  0
  -18.5005   -6.1002   19.8681 C   0  0  0  0  0  0  0  0  0  0  0  0
  -23.8031  -10.4937   20.9740 C   0  0  0  0  0  0  0  0  0  0  0  0
  -30.6557  -18.2024   24.0565 C   0  0  0  0  0  0  0  0  0  0  0  0
  -24.1958  -13.0127   20.8846 C   0  0  0  0  0  0  0  0  0  0  0  0
  -16.3317  -26.9713   22.5957 C   0  0  0  0  0  0  0  0  0  0  0  0
  -21.6630  -24.3454   25.5713 C   0  0  0  0  0  0  0  0  0  0  0  0
  -17.6610  -26.5086   22.5604 C   0  0  0  0  0  0  0  0  0  0  0  0
  -22.9675  -24.7773   25.2921 C   0  0  0  0  0  0  0  0  0  0  0  0
  -30.8023  -16.4723   22.3765 C   0  0  0  0  0  0  0  0  0  0  0  0
  -22.2757   -8.2116   21.4655 C   0  0  0  0  0  0  0  0  0  0  0  0
  -23.5011  -22.5682   24.4289 C   0  0  0  0  0  0  0  0  0  0  0  0
  -20.2251   -7.0855   21.2436 C   0  0  0  0  0  0  0  0  0  0  0  0
  -17.5943   -7.0615   20.3158 C   0  0  0  0  0  0  0  0  0  0  0  0
  -32.8115  -17.3177   23.4185 C   0  0  0  0  0  0  0  0  0  0  0  0
  -19.8159   -6.1122   20.3320 C   0  0  0  0  0  0  0  0  0  0  0  0
  -24.5927  -11.6720   20.7206 C   0  0  0  0  0  0  0  0  0  0  0  0
  -25.2973  -13.7447   20.5139 C   0  0  0  0  0  0  0  0  0  0  0  0
  -25.5489  -21.4451   24.5537 C   0  0  0  0  0  0  0  0  0  1  0  0
  -29.8388  -19.1288   24.8813 C   0  0  0  0  0  0  0  0  0  0  0  0
  -22.9434  -13.5485   21.3321 C   0  0  0  0  0  0  0  0  0  0  0  0
  -26.4965  -20.6169   24.0982 C   0  0  0  0  0  0  0  0  0  0  0  0
  -27.7225  -20.3972   24.9252 C   0  0  0  0  0  0  0  0  0  0  0  0
  -20.6753  -27.2002   24.5825 C   0  0  0  0  0  0  0  0  0  0  0  0
  -22.7432  -28.2663   26.8429 C   0  0  0  0  0  0  0  0  0  0  0  0
  -25.5135  -27.6737   28.7456 C   0  0  0  0  0  0  0  0  0  0  0  0
  -30.7863  -14.6741   20.6123 C   0  0  0  0  0  0  0  0  0  0  0  0
  -15.9990  -28.4045   22.9271 C   0  0  0  0  0  0  0  0  0  0  0  0
  -20.6729  -25.2778   26.2135 C   0  0  0  0  0  0  0  0  0  0  0  0
  -23.4176  -26.1837   25.5887 C   0  0  0  0  0  0  0  0  0  0  0  0
  -17.1352  -29.1477   23.6250 C   0  0  0  0  0  0  0  0  0  0  0  0
  -29.5829  -12.3190   18.2285 C   0  0  0  0  0  0  0  0  0  0  0  0
  -18.4582  -28.8937   22.9095 C   0  0  0  0  0  0  0  0  0  0  0  0
  -28.1447  -12.0511   18.6778 C   0  0  0  0  0  0  0  0  0  0  0  0
  -30.5222  -12.5111   19.4178 C   0  0  0  0  0  0  0  0  0  0  0  0
  -28.6537  -13.2545   20.8410 C   0  0  0  0  0  0  0  0  0  0  0  0
  -18.8220  -27.4042   22.9349 C   0  0  1  0  0  0  0  0  0  0  0  0
  -20.9990  -26.7496   25.9788 C   0  0  1  0  0  0  0  0  0  0  0  0
  -27.6583  -13.1188   19.6773 C   0  0  2  0  0  0  0  0  0  0  0  0
  -26.9833  -28.7473   30.4732 C   0  0  0  0  0  0  0  0  0  0  0  0
  -24.0294  -29.9867   24.6759 C   0  0  0  0  0  0  0  0  0  0  0  0
  -26.0087  -30.2796   26.1809 C   0  0  0  0  0  0  0  0  0  0  0  0
  -23.7696  -31.1199   26.8901 C   0  0  0  0  0  0  0  0  0  0  0  0
  -24.9037  -25.5722   30.7384 C   0  0  0  0  0  0  0  0  0  0  0  0
  -24.2081  -28.6301   26.8653 C   0  0  1  0  0  0  0  0  0  0  0  0
  -25.7744  -27.8574   30.2298 C   0  0  2  0  0  0  0  0  0  0  0  0
  -24.4952  -29.9780   26.1456 C   0  0  0  0  0  0  0  0  0  0  0  0
  -25.8482  -11.5562   20.2799 N   0  0  0  0  0  0  0  0  0  0  0  0
  -26.2498  -12.8334   20.1637 N   0  0  0  0  0  0  0  0  0  0  0  0
  -22.4111  -27.0596   26.2110 N   0  0  0  0  0  0  0  0  0  0  0  0
  -29.9994  -13.5403   20.3192 N   0  0  0  0  0  0  0  0  0  0  0  0
  -25.5343  -15.0724   20.4566 N   0  0  0  0  0  0  0  0  0  0  0  0
  -21.9184  -12.6556   21.6731 N   0  0  0  0  0  0  0  0  0  0  0  0
  -30.1720  -15.6002   21.4546 N   0  0  0  0  0  0  0  0  0  0  0  0
  -28.6186  -19.5134   24.3272 N   0  0  0  0  0  0  0  0  0  0  0  0
  -19.3492  -27.0347   24.2311 N   0  0  0  0  0  0  0  0  0  0  0  0
  -24.6142  -28.6024   28.2663 N   0  0  0  0  0  0  0  0  0  0  0  0
  -26.0227  -26.5392   30.8792 N   0  3  0  0  0  0  0  0  0  0  0  0
  -30.2798  -19.5156   25.9602 O   0  0  0  0  0  0  0  0  0  0  0  0
  -22.7340  -14.7828   21.4110 O   0  0  0  0  0  0  0  0  0  0  0  0
  -27.8860  -20.9499   26.0091 O   0  0  0  0  0  0  0  0  0  0  0  0
  -21.5626  -27.6651   23.8766 O   0  0  0  0  0  0  0  0  0  0  0  0
  -21.9244  -29.0215   27.3730 O   0  0  0  0  0  0  0  0  0  0  0  0
  -26.0564  -26.7965   28.0775 O   0  0  0  0  0  0  0  0  0  0  0  0
  -31.9109  -14.8263   20.1283 O   0  0  0  0  0  0  0  0  0  0  0  0
  -26.3900  -19.9541   22.8930 O   0  0  0  0  0  0  0  0  0  0  0  0
  -21.5304   -7.0983   21.7057 O   0  0  0  0  0  0  0  0  0  0  0  0
  -24.3955  -21.7086   23.8696 O   0  0  0  0  0  0  0  0  0  1  0  0
  -16.3307   -7.0492   19.8715 F   0  0  0  0  0  0  0  0  0  0  0  0
  -34.1443  -17.3029   23.5499 F   0  0  0  0  0  0  0  0  0  0  0  0
  -20.6817   -5.1855   19.8992 F   0  0  0  0  0  0  0  0  0  0  0  0
  1  2  1  0  0  0  0
  1  5  2  0  0  0  0
  2  6  2  0  0  0  0
  3  8  2  0  0  0  0
  3 18  1  0  0  0  0
  4  9  1  0  0  0  0
  4 18  2  0  0  0  0
  5 21  1  0  0  0  0
  6 23  1  0  0  0  0
  7 10  2  0  0  0  0
  7 22  1  0  0  0  0
  8 26  1  0  0  0  0
  9 26  2  0  0  0  0
 10 27  1  0  0  0  0
 11 12  2  0  0  0  0
 11 28  1  0  0  0  0
 12 29  1  0  0  0  0
 13 19  2  0  0  0  0
 13 25  1  0  0  0  0
 14 19  1  0  0  0  0
 14 30  2  0  0  0  0
 15 24  1  0  0  0  0
 15 27  2  0  0  0  0
 16 25  2  0  0  0  0
 16 30  1  0  0  0  0
 17 29  2  0  0  0  0
 17 31  1  0  0  0  0
 18 32  1  0  0  0  0
 19 35  1  0  0  0  0
 20 32  1  0  0  0  0
 20 33  2  0  0  0  0
 20 36  1  0  0  0  0
 21 23  2  0  0  0  0
 21 43  1  0  0  0  0
 22 24  2  0  0  0  0
 22 44  1  0  0  0  0
 23 52  1  0  0  0  0
 24 45  1  0  0  0  0
 25 69  1  0  0  0  0
 26 82  1  0  0  0  0
 27 83  1  0  0  0  0
 28 31  2  0  0  0  0
 28 82  1  0  0  0  0
 29 84  1  0  0  0  0
 30 85  1  0  0  0  0
 31 86  1  0  0  0  0
 32 63  2  0  0  0  0
 33 64  1  0  0  0  0
 33 67  1  0  0  0  0
 34 37  2  0  0  0  0
 34 83  1  0  0  0  0
 35 70  1  0  0  0  0
 35 74  2  0  0  0  0
 36 68  1  0  0  0  0
 36 75  2  0  0  0  0
 37 38  1  0  0  0  0
 37 81  1  0  0  0  0
 38 70  1  0  0  0  0
 38 76  2  0  0  0  0
 39 53  1  0  0  0  0
 39 71  1  0  0  0  0
 39 77  2  0  0  0  0
 40 60  1  0  0  0  0
 40 65  1  0  0  0  0
 40 78  2  0  0  0  0
 41 61  1  0  0  0  0
 41 72  1  0  0  0  0
 41 79  2  0  0  0  0
 42 66  1  0  0  0  0
 42 69  1  0  0  0  0
 42 80  2  0  0  0  0
 43 46  1  0  0  0  0
 44 53  1  0  0  0  0
 45 65  1  0  0  0  0
 46 48  1  0  0  0  0
 47 49  1  0  0  0  0
 47 50  1  0  0  0  0
 48 52  1  0  0  0  0
 49 54  1  0  0  0  0
 50 66  1  0  0  0  0
 51 54  1  0  0  0  0
 51 66  1  0  0  0  0
 52 71  1  0  0  0  0
 53 65  1  0  0  0  0
 54 64  1  0  0  0  0
 55 61  1  0  0  0  0
 56 62  1  0  0  0  0
 57 62  1  0  0  0  0
 58 62  1  0  0  0  0
 59 73  1  0  0  0  0
 60 62  1  0  0  0  0
 60 72  1  0  0  0  0
 61 73  1  0  0  0  0
 63 64  1  0  0  0  0
M  CHG  1  73   1
M  ISO  4  34 101  42 100  69 100  83 101
M  END
> <Batch ID>
0088

> <Smiles>
CNC(C)C(=O)NC(C(=O)N1Cc2cc([101O:1][101CH2:1]C(=O)C(=O)NC(=O)c3cc(F)cc([100NH:0][100C:0](=O)N4CCCC(n5nc(-c6ccc(Oc7ccc(F)cc7F)cc6)c(C(N)=O)c5N)C4)c3)ccc2CC1C(=O)NC1CCCc2ccccc21)C(C)(C)C

> <Shape>
0.211

> <Color>
0.185

> <Negative vol penalty>
0.000

$$$$

  -OEChem-04052300233D

 87 96  0     1  0  0  0  0  0999 V2000
  -29.0389  -35.8054   22.2361 C   0  0  0  0  0  0  0  0  0  0  0  0
  -29.1722  -34.4314   22.0634 C   0  0  0  0  0  0  0  0  0  0  0  0
  -22.9713  -10.1481   20.0002 C   0  0  0  0  0  0  0  0  0  0  0  0
  -24.6698   -9.0683   21.3367 C   0  0  0  0  0  0  0  0  0  0  0  0
  -27.9709  -36.3136   22.9744 C   0  0  0  0  0  0  0  0  0  0  0  0
  -28.2382  -33.5647   22.6298 C   0  0  0  0  0  0  0  0  0  0  0  0
  -26.7708  -29.9271   19.4268 C   0  0  0  0  0  0  0  0  0  0  0  0
  -27.7101  -20.6962   16.8524 C   0  0  0  0  0  0  0  0  0  0  0  0
  -27.3956  -19.4931   16.2206 C   0  0  0  0  0  0  0  0  0  0  0  0
  -22.0080   -9.2907   20.5317 C   0  0  0  0  0  0  0  0  0  0  0  0
  -23.7065   -8.2109   21.8682 C   0  0  0  0  0  0  0  0  0  0  0  0
  -27.6416  -28.8546   19.2393 C   0  0  0  0  0  0  0  0  0  0  0  0
  -22.0521   -5.4226   20.9097 C   0  0  0  0  0  0  0  0  0  0  0  0
  -22.3661   -4.0660   20.9912 C   0  0  0  0  0  0  0  0  0  0  0  0
  -26.3267  -27.5279   20.7658 C   0  0  0  0  0  0  0  0  0  0  0  0
  -28.3487  -19.4844   18.8425 C   0  0  0  0  0  0  0  0  0  0  0  0
  -22.0721   -4.1419   23.3880 C   0  0  0  0  0  0  0  0  0  0  0  0
  -24.3022  -10.0369   20.4027 C   0  0  0  0  0  0  0  0  0  0  0  0
  -25.6559  -11.0631   18.4995 C   0  0  0  0  0  0  0  0  0  0  0  0
  -27.0180  -35.4532   23.5421 C   0  0  0  0  0  0  0  0  0  0  0  0
  -25.6758  -29.8115   20.2951 C   0  0  0  0  0  0  0  0  0  0  0  0
  -27.1573  -34.0618   23.3776 C   0  0  0  0  0  0  0  0  0  0  0  0
  -25.4420  -28.5996   20.9607 C   0  0  0  0  0  0  0  0  0  0  0  0
  -28.1867  -20.6919   18.1633 C   0  0  0  0  0  0  0  0  0  0  0  0
  -27.5576  -18.2856   16.8999 C   0  0  0  0  0  0  0  0  0  0  0  0
  -28.0341  -18.2812   18.2108 C   0  0  0  0  0  0  0  0  0  0  0  0
  -22.3755   -8.3221   21.4657 C   0  0  0  0  0  0  0  0  0  0  0  0
  -27.4213  -27.6557   19.9110 C   0  0  0  0  0  0  0  0  0  0  0  0
  -21.7481   -6.1389   22.0674 C   0  0  0  0  0  0  0  0  0  0  0  0
  -22.3761   -3.4257   22.2303 C   0  0  0  0  0  0  0  0  0  0  0  0
  -21.7581   -5.4986   23.3065 C   0  0  0  0  0  0  0  0  0  0  0  0
  -25.2979  -10.9219   19.8536 C   0  0  0  0  0  0  0  0  0  0  0  0
  -26.6398  -12.0214   18.5025 C   0  0  0  0  0  0  0  0  0  0  0  0
  -28.4987  -24.3490   19.0141 C   0  0  0  0  0  0  0  0  0  0  0  0
  -27.8330  -23.1215   18.4799 C   0  0  0  0  0  0  0  0  0  0  0  0
  -30.2057  -23.1231   20.1837 C   0  0  0  0  0  0  0  0  0  0  0  0
  -27.7571  -25.4428   19.2321 C   0  0  0  0  0  0  0  0  0  1  0  0
  -25.1447  -10.3883   17.3423 C   0  0  0  0  0  0  0  0  0  0  0  0
  -24.7688  -31.2724   22.9685 C   0  0  0  0  0  0  0  0  0  0  0  0
  -22.0895  -29.4870   22.5735 C   0  0  0  0  0  0  0  0  0  0  0  0
  -20.6334  -26.7032   21.2404 C   0  0  0  0  0  0  0  0  0  0  0  0
  -28.6720  -16.9105   20.2259 C   0  0  0  0  0  0  0  0  0  0  0  0
  -25.9070  -36.0466   24.3717 C   0  0  0  0  0  0  0  0  0  0  0  0
  -24.7306  -30.9690   20.4660 C   0  0  0  0  0  0  0  0  0  0  0  0
  -24.2694  -28.4176   21.8881 C   0  0  0  0  0  0  0  0  0  0  0  0
  -29.9706  -24.2740   19.2457 C   0  0  0  0  0  0  0  0  0  0  0  0
  -29.3331  -21.8952   20.0343 C   0  0  0  0  0  0  0  0  0  0  0  0
  -24.7522  -35.0805   24.6236 C   0  0  0  0  0  0  0  0  0  0  0  0
  -29.2050  -14.0965   22.3412 C   0  0  0  0  0  0  0  0  0  0  0  0
  -25.2817  -33.7161   25.0535 C   0  0  0  0  0  0  0  0  0  0  0  0
  -28.2655  -13.0314   21.7712 C   0  0  0  0  0  0  0  0  0  0  0  0
  -28.5911  -15.4933   22.2656 C   0  0  0  0  0  0  0  0  0  0  0  0
  -27.1732  -14.8249   20.3651 C   0  0  0  0  0  0  0  0  0  0  0  0
  -26.1508  -33.0908   23.9556 C   0  0  1  0  0  0  0  0  0  0  0  0
  -23.9401  -30.9076   21.7694 C   0  0  1  0  0  0  0  0  0  0  0  0
  -27.7744  -13.4099   20.3601 C   0  0  2  0  0  0  0  0  0  0  0  0
  -18.4377  -25.4940   21.1207 C   0  0  0  0  0  0  0  0  0  0  0  0
  -22.4922  -28.4783   25.4249 C   0  0  0  0  0  0  0  0  0  0  0  0
  -20.8897  -26.6221   24.9203 C   0  0  0  0  0  0  0  0  0  0  0  0
  -20.1193  -28.9928   24.8257 C   0  0  0  0  0  0  0  0  0  0  0  0
  -20.5128  -26.9738   18.2958 C   0  0  0  0  0  0  0  0  0  0  0  0
  -21.6463  -28.1125   23.0131 C   0  0  1  0  0  0  0  0  0  0  0  0
  -19.3468  -26.5166   20.4568 C   0  0  2  0  0  0  0  0  0  0  0  0
  -21.3102  -28.0552   24.5301 C   0  0  0  0  0  0  0  0  0  0  0  0
  -25.9976  -11.7261   20.6585 N   0  0  0  0  0  0  0  0  0  0  0  0
  -26.8051  -12.3818   19.8075 N   0  0  0  0  0  0  0  0  0  0  0  0
  -28.5150  -21.9360   18.8152 N   0  0  0  0  0  0  0  0  0  0  0  0
  -23.3773  -29.5805   22.0270 N   0  0  0  0  0  0  0  0  0  0  0  0
  -28.1529  -15.7841   20.8987 N   0  0  0  0  0  0  0  0  0  0  0  0
  -27.2306  -17.0789   16.2413 N   0  0  0  0  0  0  0  0  0  0  0  0
  -27.3711  -12.5825   17.5162 N   0  0  0  0  0  0  0  0  0  0  0  0
  -24.1350   -9.4323   17.5180 N   0  0  0  0  0  0  0  0  0  0  0  0
  -28.2074  -17.0671   18.9204 N   0  0  0  0  0  0  0  0  0  0  0  0
  -25.3203  -32.5379   22.9072 N   0  0  0  0  0  0  0  0  0  0  0  0
  -20.5367  -27.7430   22.1409 N   0  0  0  0  0  0  0  0  0  0  0  0
  -19.6459  -26.0511   19.0730 N   0  3  0  0  0  0  0  0  0  0  0  0
  -26.8169  -23.2144   17.7951 O   0  0  0  0  0  0  0  0  0  0  0  0
  -31.0703  -23.1808   21.0591 O   0  0  0  0  0  0  0  0  0  0  0  0
  -25.5822  -10.6142   16.1886 O   0  0  0  0  0  0  0  0  0  0  0  0
  -24.8970  -30.4661   23.8823 O   0  0  0  0  0  0  0  0  0  0  0  0
  -21.3187  -30.4413   22.7034 O   0  0  0  0  0  0  0  0  0  0  0  0
  -21.6238  -25.9949   21.0734 O   0  0  0  0  0  0  0  0  0  0  0  0
  -29.4907  -17.6642   20.7585 O   0  0  0  0  0  0  0  0  0  0  0  0
  -21.4358   -7.4855   21.9847 O   0  0  0  0  0  0  0  0  0  0  0  0
  -28.2700  -26.6075   19.7303 O   0  0  0  0  0  0  0  0  0  1  0  0
  -22.6761   -2.1226   22.3083 F   0  0  0  0  0  0  0  0  0  0  0  0
  -21.4657   -6.1812   24.4220 F   0  0  0  0  0  0  0  0  0  0  0  0
  1  2  1  0  0  0  0
  1  5  2  0  0  0  0
  2  6  2  0  0  0  0
  3 10  2  0  0  0  0
  3 18  1  0  0  0  0
  4 11  1  0  0  0  0
  4 18  2  0  0  0  0
  5 20  1  0  0  0  0
  6 22  1  0  0  0  0
  7 12  2  0  0  0  0
  7 21  1  0  0  0  0
  8  9  2  0  0  0  0
  8 24  1  0  0  0  0
  9 25  1  0  0  0  0
 10 27  1  0  0  0  0
 11 27  2  0  0  0  0
 12 28  1  0  0  0  0
 13 14  2  0  0  0  0
 13 29  1  0  0  0  0
 14 30  1  0  0  0  0
 15 23  1  0  0  0  0
 15 28  2  0  0  0  0
 16 24  2  0  0  0  0
 16 26  1  0  0  0  0
 17 30  2  0  0  0  0
 17 31  1  0  0  0  0
 18 32  1  0  0  0  0
 19 32  1  0  0  0  0
 19 33  2  0  0  0  0
 19 38  1  0  0  0  0
 20 22  2  0  0  0  0
 20 43  1  0  0  0  0
 21 23  2  0  0  0  0
 21 44  1  0  0  0  0
 22 54  1  0  0  0  0
 23 45  1  0  0  0  0
 24 67  1  0  0  0  0
 25 26  2  0  0  0  0
 25 70  1  0  0  0  0
 26 73  1  0  0  0  0
 27 84  1  0  0  0  0
 28 85  1  0  0  0  0
 29 31  2  0  0  0  0
 29 84  1  0  0  0  0
 30 86  1  0  0  0  0
 31 87  1  0  0  0  0
 32 65  2  0  0  0  0
 33 66  1  0  0  0  0
 33 71  1  0  0  0  0
 34 35  1  0  0  0  0
 34 37  2  0  0  0  0
 34 46  1  0  0  0  0
 35 67  1  0  0  0  0
 35 77  2  0  0  0  0
 36 46  1  0  0  0  0
 36 47  1  0  0  0  0
 36 78  2  0  0  0  0
 37 85  1  0  0  0  0
 38 72  1  0  0  0  0
 38 79  2  0  0  0  0
 39 55  1  0  0  0  0
 39 74  1  0  0  0  0
 39 80  2  0  0  0  0
 40 62  1  0  0  0  0
 40 68  1  0  0  0  0
 40 81  2  0  0  0  0
 41 63  1  0  0  0  0
 41 75  1  0  0  0  0
 41 82  2  0  0  0  0
 42 69  1  0  0  0  0
 42 73  1  0  0  0  0
 42 83  2  0  0  0  0
 43 48  1  0  0  0  0
 44 55  1  0  0  0  0
 45 68  1  0  0  0  0
 47 67  1  0  0  0  0
 48 50  1  0  0  0  0
 49 51  1  0  0  0  0
 49 52  1  0  0  0  0
 50 54  1  0  0  0  0
 51 56  1  0  0  0  0
 52 69  1  0  0  0  0
 53 56  1  0  0  0  0
 53 69  1  0  0  0  0
 54 74  1  0  0  0  0
 55 68  1  0  0  0  0
 56 66  1  0  0  0  0
 57 63  1  0  0  0  0
 58 64  1  0  0  0  0
 59 64  1  0  0  0  0
 60 64  1  0  0  0  0
 61 76  1  0  0  0  0
 62 64  1  0  0  0  0
 62 75  1  0  0  0  0
 63 76  1  0  0  0  0
 65 66  1  0  0  0  0
M  CHG  1  76   1
M  ISO  4  37 101  42 100  73 100  85 101
M  END
> <Batch ID>
0088

> <Smiles>
CNC(C)C(=O)NC(C(=O)N1Cc2cc([101O:1][101CH:1]=C3CC(=O)CN(c4ccc(N)c([100NH:0][100C:0](=O)N5CCCC(n6nc(-c7ccc(Oc8ccc(F)cc8F)cc7)c(C(N)=O)c6N)C5)c4)C3=O)ccc2CC1C(=O)NC1CCCc2ccccc21)C(C)(C)C

> <Shape>
0.352

> <Color>
0.096

> <Negative vol penalty>
0.000

$$$$

  -OEChem-04052300233D

 81 89  0     1  0  0  0  0  0999 V2000
  -29.1554  -34.6896   23.0978 C   0  0  0  0  0  0  0  0  0  0  0  0
  -29.2108  -33.3168   23.3164 C   0  0  0  0  0  0  0  0  0  0  0  0
  -24.3347   -9.5788   21.4584 C   0  0  0  0  0  0  0  0  0  0  0  0
  -24.7986  -10.6743   23.5612 C   0  0  0  0  0  0  0  0  0  0  0  0
  -27.9442  -35.2923   22.7608 C   0  0  0  0  0  0  0  0  0  0  0  0
  -28.0547  -32.5460   23.1991 C   0  0  0  0  0  0  0  0  0  0  0  0
  -28.8292  -28.2638   20.6092 C   0  0  0  0  0  0  0  0  0  0  0  0
  -23.9624   -8.4221   22.1431 C   0  0  0  0  0  0  0  0  0  0  0  0
  -24.4263   -9.5175   24.2460 C   0  0  0  0  0  0  0  0  0  0  0  0
  -29.4513  -27.2148   21.2848 C   0  0  0  0  0  0  0  0  0  0  0  0
  -21.2661   -7.2916   23.8416 C   0  0  0  0  0  0  0  0  0  0  0  0
  -20.0995   -6.6445   23.4345 C   0  0  0  0  0  0  0  0  0  0  0  0
  -27.3028  -26.1765   21.6387 C   0  0  0  0  0  0  0  0  0  0  0  0
  -30.4449  -19.3555   21.1326 C   0  0  0  0  0  0  0  0  0  0  0  0
  -28.0546  -19.5923   21.3914 C   0  0  0  0  0  0  0  0  0  0  0  0
  -21.3756   -4.6524   22.9445 C   0  0  0  0  0  0  0  0  0  0  0  0
  -24.7529  -10.7049   22.1675 C   0  0  0  0  0  0  0  0  0  0  0  0
  -29.5212  -21.4156   21.9928 C   0  0  0  0  0  0  0  0  0  0  0  0
  -24.3058  -12.9718   21.0862 C   0  0  0  0  0  0  0  0  0  0  0  0
  -26.7746  -34.5271   22.6298 C   0  0  0  0  0  0  0  0  0  0  0  0
  -27.4358  -28.2825   20.4526 C   0  0  0  0  0  0  0  0  0  0  0  0
  -26.8264  -33.1393   22.8613 C   0  0  0  0  0  0  0  0  0  0  0  0
  -26.6657  -27.2256   20.9585 C   0  0  0  0  0  0  0  0  0  0  0  0
  -29.1593  -18.8267   21.0184 C   0  0  0  0  0  0  0  0  0  0  0  0
  -30.6259  -20.6500   21.6198 C   0  0  0  0  0  0  0  0  0  0  0  0
  -24.0082   -8.3914   23.5369 C   0  0  0  0  0  0  0  0  0  0  0  0
  -28.6879  -26.1724   21.8021 C   0  0  0  0  0  0  0  0  0  0  0  0
  -22.4875   -6.6192   23.8001 C   0  0  0  0  0  0  0  0  0  0  0  0
  -20.1542   -5.3248   22.9859 C   0  0  0  0  0  0  0  0  0  0  0  0
  -28.2355  -20.8868   21.8786 C   0  0  0  0  0  0  0  0  0  0  0  0
  -22.5423   -5.2996   23.3516 C   0  0  0  0  0  0  0  0  0  0  0  0
  -25.1382  -11.9000   21.4607 C   0  0  0  0  0  0  0  0  0  0  0  0
  -25.1446  -13.8500   20.4446 C   0  0  0  0  0  0  0  0  0  0  0  0
  -29.6794  -22.7853   22.5101 C   0  0  0  0  0  0  0  0  0  0  0  0
  -29.1422  -23.8837   21.9647 C   0  0  0  0  0  0  0  0  0  1  0  0
  -22.9001  -13.1570   21.2993 C   0  0  0  0  0  0  0  0  0  0  0  0
  -25.0992  -30.2238   21.3882 C   0  0  0  0  0  0  0  0  0  0  0  0
  -23.2730  -28.2799   19.5421 C   0  0  0  0  0  0  0  0  0  0  0  0
  -22.8502  -25.2195   18.0922 C   0  0  0  0  0  0  0  0  0  0  0  0
  -29.9632  -16.6196   20.1081 C   0  0  0  0  0  0  0  0  0  0  0  0
  -25.4792  -35.2302   22.3100 C   0  0  0  0  0  0  0  0  0  0  0  0
  -26.7825  -29.4078   19.6981 C   0  0  0  0  0  0  0  0  0  0  0  0
  -25.1685  -27.1882   20.7995 C   0  0  0  0  0  0  0  0  0  0  0  0
  -24.3748  -34.2876   21.8387 C   0  0  0  0  0  0  0  0  0  0  0  0
  -29.9192  -13.2847   18.8615 C   0  0  0  0  0  0  0  0  0  0  0  0
  -24.2911  -33.0661   22.7486 C   0  0  0  0  0  0  0  0  0  0  0  0
  -28.6029  -12.7154   19.3958 C   0  0  0  0  0  0  0  0  0  0  0  0
  -30.5806  -14.2245   19.8680 C   0  0  0  0  0  0  0  0  0  0  0  0
  -28.4036  -14.7348   20.9022 C   0  0  0  0  0  0  0  0  0  0  0  0
  -25.5989  -32.2658   22.7193 C   0  0  1  0  0  0  0  0  0  0  0  0
  -25.3073  -29.5829   20.0453 C   0  0  1  0  0  0  0  0  0  0  0  0
  -27.6678  -13.8331   19.8975 C   0  0  2  0  0  0  0  0  0  0  0  0
  -21.2409  -23.9169   16.6743 C   0  0  0  0  0  0  0  0  0  0  0  0
  -21.4519  -27.9016   21.9609 C   0  0  0  0  0  0  0  0  0  0  0  0
  -20.4554  -25.9129   20.8120 C   0  0  0  0  0  0  0  0  0  0  0  0
  -20.2516  -28.1767   19.7842 C   0  0  0  0  0  0  0  0  0  0  0  0
  -24.8503  -24.8695   15.9391 C   0  0  0  0  0  0  0  0  0  0  0  0
  -22.4935  -27.0080   19.7740 C   0  0  1  0  0  0  0  0  0  0  0  0
  -22.4654  -24.8187   16.6795 C   0  0  2  0  0  0  0  0  0  0  0  0
  -21.1911  -27.2512   20.5876 C   0  0  0  0  0  0  0  0  0  0  0  0
  -26.4082  -12.0788   21.0879 N   0  0  0  0  0  0  0  0  0  0  0  0
  -26.3802  -13.2731   20.4724 N   0  0  0  0  0  0  0  0  0  0  0  0
  -24.5757  -28.3146   20.0595 N   0  0  0  0  0  0  0  0  0  0  0  0
  -29.6368  -15.2597   20.2952 N   0  0  0  0  0  0  0  0  0  0  0  0
  -31.9400  -21.1605   21.7255 N   0  0  0  0  0  0  0  0  0  0  0  0
  -24.9384  -15.0516   19.8649 N   0  0  0  0  0  0  0  0  0  0  0  0
  -22.1894  -12.1566   21.9763 N   0  0  0  0  0  0  0  0  0  0  0  0
  -28.9753  -17.5121   20.5228 N   0  0  0  0  0  0  0  0  0  0  0  0
  -25.6788  -31.4722   21.5117 N   0  0  0  0  0  0  0  0  0  0  0  0
  -22.2745  -26.4178   18.4579 N   0  0  0  0  0  0  0  0  0  0  0  0
  -23.5881  -24.0905   16.0236 N   0  3  0  0  0  0  0  0  0  0  0  0
  -22.2891  -14.1719   20.8866 O   0  0  0  0  0  0  0  0  0  0  0  0
  -24.4590  -29.6304   22.2483 O   0  0  0  0  0  0  0  0  0  0  0  0
  -22.7481  -29.2057   18.9185 O   0  0  0  0  0  0  0  0  0  0  0  0
  -23.5849  -24.5360   18.8018 O   0  0  0  0  0  0  0  0  0  0  0  0
  -31.0285  -16.9661   19.5912 O   0  0  0  0  0  0  0  0  0  0  0  0
  -23.6447   -7.2629   24.2054 O   0  0  0  0  0  0  0  0  0  0  0  0
  -29.2925  -25.1476   22.4625 O   0  0  0  0  0  0  0  0  0  1  0  0
  -19.0336   -4.7030   22.5964 F   0  0  0  0  0  0  0  0  0  0  0  0
  -27.1617  -21.6095   22.2303 F   0  0  0  0  0  0  0  0  0  0  0  0
  -23.7126   -4.6480   23.3106 F   0  0  0  0  0  0  0  0  0  0  0  0
  1  2  1  0  0  0  0
  1  5  2  0  0  0  0
  2  6  2  0  0  0  0
  3  8  2  0  0  0  0
  3 17  1  0  0  0  0
  4  9  1  0  0  0  0
  4 17  2  0  0  0  0
  5 20  1  0  0  0  0
  6 22  1  0  0  0  0
  7 10  2  0  0  0  0
  7 21  1  0  0  0  0
  8 26  1  0  0  0  0
  9 26  2  0  0  0  0
 10 27  1  0  0  0  0
 11 12  2  0  0  0  0
 11 28  1  0  0  0  0
 12 29  1  0  0  0  0
 13 23  1  0  0  0  0
 13 27  2  0  0  0  0
 14 24  1  0  0  0  0
 14 25  2  0  0  0  0
 15 24  2  0  0  0  0
 15 30  1  0  0  0  0
 16 29  2  0  0  0  0
 16 31  1  0  0  0  0
 17 32  1  0  0  0  0
 18 25  1  0  0  0  0
 18 30  2  0  0  0  0
 18 34  1  0  0  0  0
 19 32  1  0  0  0  0
 19 33  2  0  0  0  0
 19 36  1  0  0  0  0
 20 22  2  0  0  0  0
 20 41  1  0  0  0  0
 21 23  2  0  0  0  0
 21 42  1  0  0  0  0
 22 50  1  0  0  0  0
 23 43  1  0  0  0  0
 24 68  1  0  0  0  0
 25 65  1  0  0  0  0
 26 77  1  0  0  0  0
 27 78  1  0  0  0  0
 28 31  2  0  0  0  0
 28 77  1  0  0  0  0
 29 79  1  0  0  0  0
 30 80  1  0  0  0  0
 31 81  1  0  0  0  0
 32 61  2  0  0  0  0
 33 62  1  0  0  0  0
 33 66  1  0  0  0  0
 34 35  2  0  0  0  0
 35 78  1  0  0  0  0
 36 67  1  0  0  0  0
 36 72  2  0  0  0  0
 37 51  1  0  0  0  0
 37 69  1  0  0  0  0
 37 73  2  0  0  0  0
 38 58  1  0  0  0  0
 38 63  1  0  0  0  0
 38 74  2  0  0  0  0
 39 59  1  0  0  0  0
 39 70  1  0  0  0  0
 39 75  2  0  0  0  0
 40 64  1  0  0  0  0
 40 68  1  0  0  0  0
 40 76  2  0  0  0  0
 41 44  1  0  0  0  0
 42 51  1  0  0  0  0
 43 63  1  0  0  0  0
 44 46  1  0  0  0  0
 45 47  1  0  0  0  0
 45 48  1  0  0  0  0
 46 50  1  0  0  0  0
 47 52  1  0  0  0  0
 48 64  1  0  0  0  0
 49 52  1  0  0  0  0
 49 64  1  0  0  0  0
 50 69  1  0  0  0  0
 51 63  1  0  0  0  0
 52 62  1  0  0  0  0
 53 59  1  0  0  0  0
 54 60  1  0  0  0  0
 55 60  1  0  0  0  0
 56 60  1  0  0  0  0
 57 71  1  0  0  0  0
 58 60  1  0  0  0  0
 58 70  1  0  0  0  0
 59 71  1  0  0  0  0
 61 62  1  0  0  0  0
M  CHG  1  71   1
M  ISO  4  35 101  40 100  68 100  78 101
M  END
> <Batch ID>
0088

> <Smiles>
CNC(C)C(=O)NC(C(=O)N1Cc2cc([101O:1][101CH:1]=Cc3c(N)cc([100NH:0][100C:0](=O)N4CCCC(n5nc(-c6ccc(Oc7ccc(F)cc7F)cc6)c(C(N)=O)c5N)C4)cc3F)ccc2CC1C(=O)NC1CCCc2ccccc21)C(C)(C)C

> <Shape>
0.290

> <Color>
0.121

> <Negative vol penalty>
0.000

$$$$

  -OEChem-04052300233D

 87 96  0     1  0  0  0  0  0999 V2000
  -26.6432  -36.2752   21.5482 C   0  0  0  0  0  0  0  0  0  0  0  0
  -27.4892  -35.1708   21.5548 C   0  0  0  0  0  0  0  0  0  0  0  0
  -23.5863   -9.7940   21.9168 C   0  0  0  0  0  0  0  0  0  0  0  0
  -24.4181  -11.0906   23.7780 C   0  0  0  0  0  0  0  0  0  0  0  0
  -25.2941  -36.1204   21.8644 C   0  0  0  0  0  0  0  0  0  0  0  0
  -26.9867  -33.9110   21.8787 C   0  0  0  0  0  0  0  0  0  0  0  0
  -28.7514  -28.5317   19.5432 C   0  0  0  0  0  0  0  0  0  0  0  0
  -31.8655  -19.2548   19.8900 C   0  0  0  0  0  0  0  0  0  0  0  0
  -31.3997  -17.9641   19.6395 C   0  0  0  0  0  0  0  0  0  0  0  0
  -23.0570   -8.8581   22.8053 C   0  0  0  0  0  0  0  0  0  0  0  0
  -23.8888  -10.1547   24.6665 C   0  0  0  0  0  0  0  0  0  0  0  0
  -29.6189  -27.5454   20.0106 C   0  0  0  0  0  0  0  0  0  0  0  0
  -20.3406   -8.5743   24.7987 C   0  0  0  0  0  0  0  0  0  0  0  0
  -19.0433   -8.1191   24.5640 C   0  0  0  0  0  0  0  0  0  0  0  0
  -27.7411  -26.3307   20.9146 C   0  0  0  0  0  0  0  0  0  0  0  0
  -29.5946  -20.0103   20.2206 C   0  0  0  0  0  0  0  0  0  0  0  0
  -19.8732   -5.8593   24.3592 C   0  0  0  0  0  0  0  0  0  0  0  0
  -24.2669  -10.9103   22.4031 C   0  0  0  0  0  0  0  0  0  0  0  0
  -24.1738  -13.0219   20.9748 C   0  0  0  0  0  0  0  0  0  0  0  0
  -24.7729  -34.8565   22.1829 C   0  0  0  0  0  0  0  0  0  0  0  0
  -27.3710  -28.4301   19.7678 C   0  0  0  0  0  0  0  0  0  0  0  0
  -25.6296  -33.7393   22.2008 C   0  0  0  0  0  0  0  0  0  0  0  0
  -26.8579  -27.3157   20.4467 C   0  0  0  0  0  0  0  0  0  0  0  0
  -30.9630  -20.2779   20.1806 C   0  0  0  0  0  0  0  0  0  0  0  0
  -30.0314  -17.6965   19.6795 C   0  0  0  0  0  0  0  0  0  0  0  0
  -23.2083   -9.0384   24.1802 C   0  0  0  0  0  0  0  0  0  0  0  0
  -29.1141  -26.4462   20.6990 C   0  0  0  0  0  0  0  0  0  0  0  0
  -21.4044   -7.6720   24.8136 C   0  0  0  0  0  0  0  0  0  0  0  0
  -18.8095   -6.7616   24.3443 C   0  0  0  0  0  0  0  0  0  0  0  0
  -29.1288  -18.7196   19.9701 C   0  0  0  0  0  0  0  0  0  0  0  0
  -21.1706   -6.3146   24.5939 C   0  0  0  0  0  0  0  0  0  0  0  0
  -24.8143  -11.8772   21.4858 C   0  0  0  0  0  0  0  0  0  0  0  0
  -25.1099  -13.6015   20.1537 C   0  0  0  0  0  0  0  0  0  0  0  0
  -32.7262  -23.3467   21.0731 C   0  0  0  0  0  0  0  0  0  0  0  0
  -31.5965  -23.8513   20.5709 C   0  0  0  0  0  0  0  0  0  0  0  0
  -32.6506  -21.8725   20.9876 C   0  0  0  0  0  0  0  0  0  0  0  0
  -30.7330  -22.7251   20.1561 C   0  0  0  0  0  0  0  0  0  0  0  0
  -22.8509  -13.5171   21.2205 C   0  0  0  0  0  0  0  0  0  0  0  0
  -25.2178  -30.1730   21.3266 C   0  0  0  0  0  0  0  0  0  0  0  0
  -23.1325  -28.0645   20.0119 C   0  0  0  0  0  0  0  0  0  0  0  0
  -22.5947  -24.9669   18.6844 C   0  0  0  0  0  0  0  0  0  0  0  0
  -30.3245  -15.2577   19.1203 C   0  0  0  0  0  0  0  0  0  0  0  0
  -23.3178  -34.7464   22.5640 C   0  0  0  0  0  0  0  0  0  0  0  0
  -26.4459  -29.4891   19.2338 C   0  0  0  0  0  0  0  0  0  0  0  0
  -25.3819  -27.1494   20.6962 C   0  0  0  0  0  0  0  0  0  0  0  0
  -22.7860  -33.3159   22.5308 C   0  0  0  0  0  0  0  0  0  0  0  0
  -29.5462  -11.8462   18.4625 C   0  0  0  0  0  0  0  0  0  0  0  0
  -23.7564  -32.3692   23.2300 C   0  0  0  0  0  0  0  0  0  0  0  0
  -28.1930  -11.6443   19.1484 C   0  0  0  0  0  0  0  0  0  0  0  0
  -30.4533  -12.7801   19.2616 C   0  0  0  0  0  0  0  0  0  0  0  0
  -28.5038  -13.8738   20.2972 C   0  0  0  0  0  0  0  0  0  0  0  0
  -25.1169  -32.3524   22.5227 C   0  0  1  0  0  0  0  0  0  0  0  0
  -25.1096  -29.5406   19.9679 C   0  0  1  0  0  0  0  0  0  0  0  0
  -27.5313  -12.9919   19.4970 C   0  0  2  0  0  0  0  0  0  0  0  0
  -33.9185  -24.0259   21.6371 C   0  0  0  0  0  0  0  0  0  0  0  0
  -20.7787  -23.5196   17.7331 C   0  0  0  0  0  0  0  0  0  0  0  0
  -22.0695  -27.5530   22.8259 C   0  0  0  0  0  0  0  0  0  0  0  0
  -20.9719  -25.4766   21.9585 C   0  0  0  0  0  0  0  0  0  0  0  0
  -20.3081  -27.7059   21.0571 C   0  0  0  0  0  0  0  0  0  0  0  0
  -23.9626  -24.7703   16.0672 C   0  0  0  0  0  0  0  0  0  0  0  0
  -31.1559  -25.2608   20.4127 C   0  0  0  0  0  0  0  0  0  1  0  0
  -22.5547  -26.7328   20.4263 C   0  0  1  0  0  0  0  0  0  0  0  0
  -21.8786  -24.5226   17.4217 C   0  0  2  0  0  0  0  0  0  0  0  0
  -21.5041  -26.8709   21.5641 C   0  0  0  0  0  0  0  0  0  0  0  0
  -26.0610  -11.7361   21.0275 N   0  0  0  0  0  0  0  0  0  0  0  0
  -26.2113  -12.7997   20.2199 N   0  0  0  0  0  0  0  0  0  0  0  0
  -31.4271  -21.5647   20.4298 N   0  0  0  0  0  0  0  0  0  0  0  0
  -24.5187  -28.2146   20.1599 N   0  0  0  0  0  0  0  0  0  0  0  0
  -29.7614  -14.0380   19.5513 N   0  0  0  0  0  0  0  0  0  0  0  0
  -25.0902  -14.7136   19.3887 N   0  0  0  0  0  0  0  0  0  0  0  0
  -22.0197  -12.7992   22.0912 N   0  0  0  0  0  0  0  0  0  0  0  0
  -29.5611  -16.3845   19.4241 N   0  0  0  0  0  0  0  0  0  0  0  0
  -25.0530  -31.5449   21.3234 N   0  0  0  0  0  0  0  0  0  0  0  0
  -22.0397  -26.1148   19.2093 N   0  0  0  0  0  0  0  0  0  0  0  0
  -22.8404  -23.8873   16.4771 N   0  3  0  0  0  0  0  0  0  0  0  0
  -33.5355  -21.1175   21.3586 O   0  0  0  0  0  0  0  0  0  0  0  0
  -29.6222  -22.8566   19.6666 O   0  0  0  0  0  0  0  0  0  0  0  0
  -22.4129  -14.5563   20.6711 O   0  0  0  0  0  0  0  0  0  0  0  0
  -25.4333  -29.4681   22.3056 O   0  0  0  0  0  0  0  0  0  0  0  0
  -22.3827  -28.9368   19.5664 O   0  0  0  0  0  0  0  0  0  0  0  0
  -23.5485  -24.3546   19.1597 O   0  0  0  0  0  0  0  0  0  0  0  0
  -31.3910  -15.2973   18.5014 O   0  0  0  0  0  0  0  0  0  0  0  0
  -22.6918   -8.1254   25.0475 O   0  0  0  0  0  0  0  0  0  0  0  0
  -29.9587  -25.4824   21.1570 O   0  0  0  0  0  0  0  0  0  1  0  0
  -17.5633   -6.3244   24.1205 F   0  0  0  0  0  0  0  0  0  0  0  0
  -27.8112  -18.4743   20.0098 F   0  0  0  0  0  0  0  0  0  0  0  0
  -22.1883   -5.4429   24.6082 F   0  0  0  0  0  0  0  0  0  0  0  0
  1  2  1  0  0  0  0
  1  5  2  0  0  0  0
  2  6  2  0  0  0  0
  3 10  2  0  0  0  0
  3 18  1  0  0  0  0
  4 11  1  0  0  0  0
  4 18  2  0  0  0  0
  5 20  1  0  0  0  0
  6 22  1  0  0  0  0
  7 12  2  0  0  0  0
  7 21  1  0  0  0  0
  8  9  2  0  0  0  0
  8 24  1  0  0  0  0
  9 25  1  0  0  0  0
 10 26  1  0  0  0  0
 11 26  2  0  0  0  0
 12 27  1  0  0  0  0
 13 14  2  0  0  0  0
 13 28  1  0  0  0  0
 14 29  1  0  0  0  0
 15 23  1  0  0  0  0
 15 27  2  0  0  0  0
 16 24  2  0  0  0  0
 16 30  1  0  0  0  0
 17 29  2  0  0  0  0
 17 31  1  0  0  0  0
 18 32  1  0  0  0  0
 19 32  1  0  0  0  0
 19 33  2  0  0  0  0
 19 38  1  0  0  0  0
 20 22  2  0  0  0  0
 20 43  1  0  0  0  0
 21 23  2  0  0  0  0
 21 44  1  0  0  0  0
 22 52  1  0  0  0  0
 23 45  1  0  0  0  0
 24 67  1  0  0  0  0
 25 30  2  0  0  0  0
 25 72  1  0  0  0  0
 26 83  1  0  0  0  0
 27 84  1  0  0  0  0
 28 31  2  0  0  0  0
 28 83  1  0  0  0  0
 29 85  1  0  0  0  0
 30 86  1  0  0  0  0
 31 87  1  0  0  0  0
 32 65  2  0  0  0  0
 33 66  1  0  0  0  0
 33 70  1  0  0  0  0
 34 35  2  0  0  0  0
 34 36  1  0  0  0  0
 34 55  1  0  0  0  0
 35 37  1  0  0  0  0
 35 61  1  0  0  0  0
 36 67  1  0  0  0  0
 36 76  2  0  0  0  0
 37 67  1  0  0  0  0
 37 77  2  0  0  0  0
 38 71  1  0  0  0  0
 38 78  2  0  0  0  0
 39 53  1  0  0  0  0
 39 73  1  0  0  0  0
 39 79  2  0  0  0  0
 40 62  1  0  0  0  0
 40 68  1  0  0  0  0
 40 80  2  0  0  0  0
 41 63  1  0  0  0  0
 41 74  1  0  0  0  0
 41 81  2  0  0  0  0
 42 69  1  0  0  0  0
 42 72  1  0  0  0  0
 42 82  2  0  0  0  0
 43 46  1  0  0  0  0
 44 53  1  0  0  0  0
 45 68  1  0  0  0  0
 46 48  1  0  0  0  0
 47 49  1  0  0  0  0
 47 50  1  0  0  0  0
 48 52  1  0  0  0  0
 49 54  1  0  0  0  0
 50 69  1  0  0  0  0
 51 54  1  0  0  0  0
 51 69  1  0  0  0  0
 52 73  1  0  0  0  0
 53 68  1  0  0  0  0
 54 66  1  0  0  0  0
 56 63  1  0  0  0  0
 57 64  1  0  0  0  0
 58 64  1  0  0  0  0
 59 64  1  0  0  0  0
 60 75  1  0  0  0  0
 61 84  1  0  0  0  0
 62 64  1  0  0  0  0
 62 74  1  0  0  0  0
 63 75  1  0  0  0  0
 65 66  1  0  0  0  0
M  CHG  1  75   1
M  ISO  4  42 100  61 101  72 100  84 101
M  END
> <Batch ID>
0088

> <Smiles>
CNC(C)C(=O)NC(C(=O)N1Cc2cc([101O:1][101CH2:1]C3=C(C)C(=O)N(c4ccc([100NH:0][100C:0](=O)N5CCCC(n6nc(-c7ccc(Oc8ccc(F)cc8F)cc7)c(C(N)=O)c6N)C5)c(F)c4)C3=O)ccc2CC1C(=O)NC1CCCc2ccccc21)C(C)(C)C

> <Shape>
0.290

> <Color>
0.132

> <Negative vol penalty>
0.000

$$$$

  -OEChem-04052300233D

 87 96  0     1  0  0  0  0  0999 V2000
  -17.3247  -25.5647   22.9636 C   0  0  0  0  0  0  0  0  0  0  0  0
  -18.6582  -25.3291   22.6444 C   0  0  0  0  0  0  0  0  0  0  0  0
  -23.4712  -16.1875   22.6349 C   0  0  0  0  0  0  0  0  0  0  0  0
  -22.5331  -16.0934   20.4104 C   0  0  0  0  0  0  0  0  0  0  0  0
  -16.8069  -26.8564   22.8800 C   0  0  0  0  0  0  0  0  0  0  0  0
  -19.4743  -26.3851   22.2404 C   0  0  0  0  0  0  0  0  0  0  0  0
  -24.0131  -26.3014   24.4848 C   0  0  0  0  0  0  0  0  0  0  0  0
  -30.0769  -19.1251   20.6325 C   0  0  0  0  0  0  0  0  0  0  0  0
  -30.5402  -17.8115   20.5597 C   0  0  0  0  0  0  0  0  0  0  0  0
  -22.5314  -17.1550   22.9903 C   0  0  0  0  0  0  0  0  0  0  0  0
  -21.5933  -17.0608   20.7659 C   0  0  0  0  0  0  0  0  0  0  0  0
  -24.9514  -25.3966   23.9902 C   0  0  0  0  0  0  0  0  0  0  0  0
  -22.0889  -20.4770   22.5512 C   0  0  0  0  0  0  0  0  0  0  0  0
  -22.5414  -21.5889   23.2614 C   0  0  0  0  0  0  0  0  0  0  0  0
  -26.0074  -27.1776   22.7524 C   0  0  0  0  0  0  0  0  0  0  0  0
  -29.3085  -18.7292   22.8886 C   0  0  0  0  0  0  0  0  0  0  0  0
  -21.0613  -21.0258   25.0861 C   0  0  0  0  0  0  0  0  0  0  0  0
  -23.4722  -15.6568   21.3449 C   0  0  0  0  0  0  0  0  0  0  0  0
  -24.3109  -13.2609   21.0917 C   0  0  0  0  0  0  0  0  0  0  0  0
  -17.6195  -27.9304   22.4841 C   0  0  0  0  0  0  0  0  0  0  0  0
  -24.0584  -27.6513   24.1077 C   0  0  0  0  0  0  0  0  0  0  0  0
  -18.9664  -27.6923   22.1502 C   0  0  0  0  0  0  0  0  0  0  0  0
  -25.0700  -28.0980   23.2457 C   0  0  0  0  0  0  0  0  0  0  0  0
  -29.4610  -19.5840   21.7969 C   0  0  0  0  0  0  0  0  0  0  0  0
  -30.3877  -16.9567   21.6514 C   0  0  0  0  0  0  0  0  0  0  0  0
  -21.5924  -17.5916   22.0558 C   0  0  0  0  0  0  0  0  0  0  0  0
  -25.9470  -25.8340   23.1216 C   0  0  0  0  0  0  0  0  0  0  0  0
  -21.1226  -19.6394   23.1084 C   0  0  0  0  0  0  0  0  0  0  0  0
  -22.0276  -21.8633   24.5289 C   0  0  0  0  0  0  0  0  0  0  0  0
  -29.7718  -17.4156   22.8158 C   0  0  0  0  0  0  0  0  0  0  0  0
  -20.6088  -19.9138   24.3758 C   0  0  0  0  0  0  0  0  0  0  0  0
  -24.4431  -14.6578   20.9770 C   0  0  0  0  0  0  0  0  0  0  0  0
  -25.4976  -12.7632   20.6114 C   0  0  0  0  0  0  0  0  0  0  0  0
  -28.7472  -23.1472   21.5576 C   0  0  0  0  0  0  0  0  0  0  0  0
  -27.7947  -22.7694   22.4078 C   0  0  0  0  0  0  0  0  0  0  0  0
  -29.5460  -21.9671   21.1976 C   0  0  0  0  0  0  0  0  0  0  0  0
  -27.9217  -21.3152   22.6248 C   0  0  0  0  0  0  0  0  0  0  0  0
  -23.2136  -12.4829   21.5879 C   0  0  0  0  0  0  0  0  0  0  0  0
  -22.0937  -29.6163   22.5642 C   0  0  0  0  0  0  0  0  0  0  0  0
  -24.3058  -31.8431   23.3829 C   0  0  0  0  0  0  0  0  0  0  0  0
  -27.5321  -32.5394   24.2509 C   0  0  0  0  0  0  0  0  0  0  0  0
  -30.9068  -14.9046   20.3435 C   0  0  0  0  0  0  0  0  0  0  0  0
  -17.0027  -29.3014   22.3632 C   0  0  0  0  0  0  0  0  0  0  0  0
  -23.0550  -28.6199   24.6711 C   0  0  0  0  0  0  0  0  0  0  0  0
  -25.1746  -29.5408   22.8262 C   0  0  0  0  0  0  0  0  0  0  0  0
  -18.0308  -30.4273   22.2875 C   0  0  0  0  0  0  0  0  0  0  0  0
  -29.0235  -13.7687   17.5496 C   0  0  0  0  0  0  0  0  0  0  0  0
  -19.1343  -30.0767   21.2945 C   0  0  0  0  0  0  0  0  0  0  0  0
  -27.6089  -13.7428   18.1275 C   0  0  0  0  0  0  0  0  0  0  0  0
  -29.8206  -14.9774   18.0410 C   0  0  0  0  0  0  0  0  0  0  0  0
  -28.4428  -15.0878   20.0939 C   0  0  0  0  0  0  0  0  0  0  0  0
  -19.8898  -28.8159   21.7318 C   0  0  1  0  0  0  0  0  0  0  0  0
  -22.8865  -29.8712   23.8149 C   0  0  1  0  0  0  0  0  0  0  0  0
  -27.6373  -13.8525   19.6622 C   0  0  1  0  0  0  0  0  0  0  0  0
  -29.0488  -34.4555   24.8212 C   0  0  0  0  0  0  0  0  0  0  0  0
  -24.4450  -32.6080   20.4324 C   0  0  0  0  0  0  0  0  0  0  0  0
  -26.5899  -33.8054   20.9157 C   0  0  0  0  0  0  0  0  0  0  0  0
  -24.4759  -34.5444   22.0147 C   0  0  0  0  0  0  0  0  0  0  0  0
  -31.5428  -15.0247   22.7428 C   0  0  0  0  0  0  0  0  0  0  0  0
  -28.0773  -31.4557   26.9503 C   0  0  0  0  0  0  0  0  0  0  0  0
  -26.7462  -23.5950   23.0598 C   0  0  0  0  0  0  0  0  0  1  0  0
  -25.5644  -32.3835   22.7481 C   0  0  1  0  0  0  0  0  0  0  0  0
  -28.1142  -33.3874   25.3673 C   0  0  2  0  0  0  0  0  0  0  0  0
  -25.2659  -33.3077   21.5339 C   0  0  0  0  0  0  0  0  0  0  0  0
  -25.6209  -15.0239   20.4643 N   0  0  0  0  0  0  0  0  0  0  0  0
  -26.2396  -13.8498   20.2526 N   0  0  0  0  0  0  0  0  0  0  0  0
  -28.9986  -20.8931   21.8694 N   0  0  0  0  0  0  0  0  0  0  0  0
  -24.1665  -30.4480   23.3989 N   0  0  0  0  0  0  0  0  0  0  0  0
  -29.7852  -15.0635   19.5079 N   0  0  0  0  0  0  0  0  0  0  0  0
  -25.9682  -11.5064   20.4653 N   0  0  0  0  0  0  0  0  0  0  0  0
  -22.0703  -13.1541   22.0424 N   0  0  0  0  0  0  0  0  0  0  0  0
  -20.8216  -29.1280   22.7942 N   0  0  0  0  0  0  0  0  0  0  0  0
  -26.3173  -33.0280   23.8187 N   0  0  0  0  0  0  0  0  0  0  0  0
  -30.8680  -15.5971   21.5728 N   0  0  0  0  0  0  0  0  0  0  0  0
  -28.8804  -32.5348   26.3197 N   0  3  0  0  0  0  0  0  0  0  0  0
  -30.5011  -22.0014   20.4389 O   0  0  0  0  0  0  0  0  0  0  0  0
  -27.1874  -20.6614   23.3483 O   0  0  0  0  0  0  0  0  0  0  0  0
  -23.2524  -11.2303   21.6422 O   0  0  0  0  0  0  0  0  0  0  0  0
  -22.5982  -29.8470   21.4716 O   0  0  0  0  0  0  0  0  0  0  0  0
  -23.4803  -32.6294   23.8537 O   0  0  0  0  0  0  0  0  0  0  0  0
  -28.1001  -31.5453   23.8041 O   0  0  0  0  0  0  0  0  0  0  0  0
  -31.8577  -14.1793   20.0278 O   0  0  0  0  0  0  0  0  0  0  0  0
  -20.6750  -18.5354   22.4024 O   0  0  0  0  0  0  0  0  0  0  0  0
  -26.8637  -24.9528   22.6369 O   0  0  0  0  0  0  0  0  0  1  0  0
  -22.4634  -22.9303   25.2114 F   0  0  0  0  0  0  0  0  0  0  0  0
  -29.6185  -16.6024   23.8708 F   0  0  0  0  0  0  0  0  0  0  0  0
  -19.6812  -19.1121   24.9168 F   0  0  0  0  0  0  0  0  0  0  0  0
  1  2  1  0  0  0  0
  1  5  2  0  0  0  0
  2  6  2  0  0  0  0
  3 10  2  0  0  0  0
  3 18  1  0  0  0  0
  4 11  1  0  0  0  0
  4 18  2  0  0  0  0
  5 20  1  0  0  0  0
  6 22  1  0  0  0  0
  7 12  2  0  0  0  0
  7 21  1  0  0  0  0
  8  9  2  0  0  0  0
  8 24  1  0  0  0  0
  9 25  1  0  0  0  0
 10 26  1  0  0  0  0
 11 26  2  0  0  0  0
 12 27  1  0  0  0  0
 13 14  2  0  0  0  0
 13 28  1  0  0  0  0
 14 29  1  0  0  0  0
 15 23  1  0  0  0  0
 15 27  2  0  0  0  0
 16 24  2  0  0  0  0
 16 30  1  0  0  0  0
 17 29  2  0  0  0  0
 17 31  1  0  0  0  0
 18 32  1  0  0  0  0
 19 32  1  0  0  0  0
 19 33  2  0  0  0  0
 19 38  1  0  0  0  0
 20 22  2  0  0  0  0
 20 43  1  0  0  0  0
 21 23  2  0  0  0  0
 21 44  1  0  0  0  0
 22 52  1  0  0  0  0
 23 45  1  0  0  0  0
 24 67  1  0  0  0  0
 25 30  2  0  0  0  0
 25 74  1  0  0  0  0
 26 83  1  0  0  0  0
 27 84  1  0  0  0  0
 28 31  2  0  0  0  0
 28 83  1  0  0  0  0
 29 85  1  0  0  0  0
 30 86  1  0  0  0  0
 31 87  1  0  0  0  0
 32 65  2  0  0  0  0
 33 66  1  0  0  0  0
 33 70  1  0  0  0  0
 34 35  2  0  0  0  0
 34 36  1  0  0  0  0
 35 37  1  0  0  0  0
 35 61  1  0  0  0  0
 36 67  1  0  0  0  0
 36 76  2  0  0  0  0
 37 67  1  0  0  0  0
 37 77  2  0  0  0  0
 38 71  1  0  0  0  0
 38 78  2  0  0  0  0
 39 53  1  0  0  0  0
 39 72  1  0  0  0  0
 39 79  2  0  0  0  0
 40 62  1  0  0  0  0
 40 68  1  0  0  0  0
 40 80  2  0  0  0  0
 41 63  1  0  0  0  0
 41 73  1  0  0  0  0
 41 81  2  0  0  0  0
 42 69  1  0  0  0  0
 42 74  1  0  0  0  0
 42 82  2  0  0  0  0
 43 46  1  0  0  0  0
 44 53  1  0  0  0  0
 45 68  1  0  0  0  0
 46 48  1  0  0  0  0
 47 49  1  0  0  0  0
 47 50  1  0  0  0  0
 48 52  1  0  0  0  0
 49 54  1  0  0  0  0
 50 69  1  0  0  0  0
 51 54  1  0  0  0  0
 51 69  1  0  0  0  0
 52 72  1  0  0  0  0
 53 68  1  0  0  0  0
 54 66  1  0  0  0  0
 55 63  1  0  0  0  0
 56 64  1  0  0  0  0
 57 64  1  0  0  0  0
 58 64  1  0  0  0  0
 59 74  1  0  0  0  0
 60 75  1  0  0  0  0
 61 84  1  0  0  0  0
 62 64  1  0  0  0  0
 62 73  1  0  0  0  0
 63 75  1  0  0  0  0
 65 66  1  0  0  0  0
M  CHG  1  75   1
M  ISO  4  42 100  61 101  74 100  84 101
M  END
> <Batch ID>
0088

> <Smiles>
CNC(C)C(=O)NC(C(=O)N1Cc2cc([101O:1][101CH2:1]C3=CC(=O)N(c4ccc([100N:0](C)[100C:0](=O)N5CCCC(n6nc(-c7ccc(Oc8ccc(F)cc8F)cc7)c(C(N)=O)c6N)C5)c(F)c4)C3=O)ccc2CC1C(=O)NC1CCCc2ccccc21)C(C)(C)C

> <Shape>
0.265

> <Color>
0.111

> <Negative vol penalty>
0.000

$$$$

  -OEChem-04052300233D

 82 90  0     1  0  0  0  0  0999 V2000
  -24.1317  -11.9884   20.6127 C   0  0  0  0  0  0  0  0  0  0  0  0
  -23.7353  -13.2687   20.9859 C   0  0  0  0  0  0  0  0  0  0  0  0
  -18.2467  -27.7011   22.9149 C   0  0  0  0  0  0  0  0  0  0  0  0
  -30.8639  -29.2031   23.7648 C   0  0  0  0  0  0  0  0  0  0  0  0
  -29.7864  -27.3657   24.9049 C   0  0  0  0  0  0  0  0  0  0  0  0
  -18.3104  -26.5614   22.1134 C   0  0  0  0  0  0  0  0  0  0  0  0
  -25.4845  -11.7041   20.4311 C   0  0  0  0  0  0  0  0  0  0  0  0
  -24.6915  -14.2650   21.1787 C   0  0  0  0  0  0  0  0  0  0  0  0
  -23.3729  -18.6628   19.0419 C   0  0  0  0  0  0  0  0  0  0  0  0
  -19.3724  -28.5108   23.0669 C   0  0  0  0  0  0  0  0  0  0  0  0
  -32.0367  -28.9586   24.4790 C   0  0  0  0  0  0  0  0  0  0  0  0
  -30.9593  -27.1211   25.6191 C   0  0  0  0  0  0  0  0  0  0  0  0
  -22.4348  -19.4426   19.7168 C   0  0  0  0  0  0  0  0  0  0  0  0
  -33.7813  -25.7847   27.4814 C   0  0  0  0  0  0  0  0  0  0  0  0
  -34.2050  -24.4611   27.6003 C   0  0  0  0  0  0  0  0  0  0  0  0
  -20.6256  -27.0406   21.6160 C   0  0  0  0  0  0  0  0  0  0  0  0
  -24.2140  -20.8217   20.5840 C   0  0  0  0  0  0  0  0  0  0  0  0
  -34.3639  -24.2960   25.1952 C   0  0  0  0  0  0  0  0  0  0  0  0
  -29.7386  -28.4068   23.9778 C   0  0  0  0  0  0  0  0  0  0  0  0
  -19.4999  -26.2311   21.4640 C   0  0  0  0  0  0  0  0  0  0  0  0
  -28.1553  -28.1070   22.0002 C   0  0  0  0  0  0  0  0  0  0  0  0
  -26.4571  -12.7000   20.6123 C   0  0  0  0  0  0  0  0  0  0  0  0
  -24.7417  -18.9504   19.1419 C   0  0  0  0  0  0  0  0  0  0  0  0
  -26.0587  -13.9934   21.0005 C   0  0  0  0  0  0  0  0  0  0  0  0
  -25.1672  -20.0455   19.9073 C   0  0  0  0  0  0  0  0  0  0  0  0
  -20.5618  -28.1805   22.4174 C   0  0  0  0  0  0  0  0  0  0  0  0
  -32.0845  -27.9175   25.4062 C   0  0  0  0  0  0  0  0  0  0  0  0
  -22.8554  -20.5205   20.4903 C   0  0  0  0  0  0  0  0  0  0  0  0
  -33.6489  -26.3640   26.2194 C   0  0  0  0  0  0  0  0  0  0  0  0
  -34.4964  -23.7168   26.4572 C   0  0  0  0  0  0  0  0  0  0  0  0
  -33.9402  -25.6196   25.0763 C   0  0  0  0  0  0  0  0  0  0  0  0
  -28.5266  -28.6593   23.2407 C   0  0  0  0  0  0  0  0  0  0  0  0
  -26.9270  -28.6598   21.7320 C   0  0  0  0  0  0  0  0  0  0  0  0
  -20.9869  -23.4302   21.3691 C   0  0  0  0  0  0  0  0  0  0  0  0
  -19.5665  -25.0141   20.6087 C   0  0  0  0  0  0  0  0  0  0  0  0
  -28.8580  -27.1772   21.1649 C   0  0  0  0  0  0  0  0  0  0  0  0
  -27.2863  -17.3948   20.2415 C   0  0  0  0  0  0  0  0  0  0  0  0
  -28.8851  -19.9374   19.0162 C   0  0  0  0  0  0  0  0  0  0  0  0
  -28.8212  -23.2125   18.0589 C   0  0  0  0  0  0  0  0  0  0  0  0
  -21.8110  -30.1688   23.3298 C   0  0  0  0  0  0  0  0  0  0  0  0
  -27.9110  -12.3328   20.4504 C   0  0  0  0  0  0  0  0  0  0  0  0
  -25.7390  -18.1158   18.3861 C   0  0  0  0  0  0  0  0  0  0  0  0
  -26.6237  -20.4086   20.0308 C   0  0  0  0  0  0  0  0  0  0  0  0
  -28.8324  -13.5417   20.3097 C   0  0  0  0  0  0  0  0  0  0  0  0
  -24.4581  -32.4552   23.9950 C   0  0  0  0  0  0  0  0  0  0  0  0
  -28.4989  -14.5927   21.3638 C   0  0  0  0  0  0  0  0  0  0  0  0
  -25.7220  -31.6261   23.7560 C   0  0  0  0  0  0  0  0  0  0  0  0
  -23.3467  -31.6239   24.6334 C   0  0  0  0  0  0  0  0  0  0  0  0
  -24.2819  -29.5504   23.6874 C   0  0  0  0  0  0  0  0  0  0  0  0
  -27.0643  -15.1074   21.1950 C   0  0  1  0  0  0  0  0  0  0  0  0
  -27.1453  -18.1879   18.9731 C   0  0  1  0  0  0  0  0  0  0  0  0
  -25.4074  -30.3283   22.9862 C   0  0  2  0  0  0  0  0  0  0  0  0
  -30.2912  -25.0230   17.1321 C   0  0  0  0  0  0  0  0  0  0  0  0
  -30.1846  -20.2812   21.7554 C   0  0  0  0  0  0  0  0  0  0  0  0
  -30.8691  -22.5880   21.0639 C   0  0  0  0  0  0  0  0  0  0  0  0
  -31.7324  -20.6067   19.8182 C   0  0  0  0  0  0  0  0  0  0  0  0
  -27.1447  -23.4938   15.6363 C   0  0  0  0  0  0  0  0  0  0  0  0
  -22.2701  -22.6562   21.3577 C   0  0  0  0  0  0  0  0  0  1  0  0
  -29.3128  -21.2861   19.5427 C   0  0  1  0  0  0  0  0  0  0  0  0
  -29.3157  -23.9042   16.8013 C   0  0  2  0  0  0  0  0  0  0  0  0
  -30.4974  -21.1828   20.5445 C   0  0  0  0  0  0  0  0  0  0  0  0
  -27.6085  -29.4987   23.7269 N   0  0  0  0  0  0  0  0  0  0  0  0
  -20.7691  -24.3592   20.4956 N   0  0  0  0  0  0  0  0  0  0  0  0
  -26.6481  -29.4781   22.7869 N   0  0  0  0  0  0  0  0  0  0  0  0
  -27.5609  -19.5585   19.2781 N   0  0  0  0  0  0  0  0  0  0  0  0
  -23.1006  -30.4128   23.8476 N   0  0  0  0  0  0  0  0  0  0  0  0
  -26.0690  -28.5211   20.6990 N   0  0  0  0  0  0  0  0  0  0  0  0
  -30.1085  -26.7092   21.5910 N   0  0  0  0  0  0  0  0  0  0  0  0
  -21.7051  -29.0032   22.5717 N   0  0  0  0  0  0  0  0  0  0  0  0
  -26.9917  -16.0521   20.1011 N   0  0  0  0  0  0  0  0  0  0  0  0
  -29.5903  -22.1118   18.3724 N   0  0  0  0  0  0  0  0  0  0  0  0
  -18.5539  -24.5807   19.9444 N   0  3  0  0  0  0  0  0  0  0  0  0
  -28.1705  -24.4870   16.0464 N   0  3  0  0  0  0  0  0  0  0  0  0
  -28.3981  -26.7861   20.0654 O   0  0  0  0  0  0  0  0  0  0  0  0
  -27.6377  -17.9590   21.2709 O   0  0  0  0  0  0  0  0  0  0  0  0
  -29.6940  -19.2487   18.3894 O   0  0  0  0  0  0  0  0  0  0  0  0
  -27.8521  -23.6111   18.7012 O   0  0  0  0  0  0  0  0  0  0  0  0
  -20.8764  -30.9512   23.5205 O   0  0  0  0  0  0  0  0  0  0  0  0
  -33.2289  -27.6784   26.1031 O   0  0  0  0  0  0  0  0  0  0  0  0
  -21.9419  -21.2829   21.1507 O   0  0  0  0  0  0  0  0  0  1  0  0
  -34.9047  -22.4462   26.5716 F   0  0  0  0  0  0  0  0  0  0  0  0
  -33.8160  -26.1710   23.8613 F   0  0  0  0  0  0  0  0  0  0  0  0
  1  2  1  0  0  0  0
  1  7  2  0  0  0  0
  2  8  2  0  0  0  0
  3  6  2  0  0  0  0
  3 10  1  0  0  0  0
  4 11  2  0  0  0  0
  4 19  1  0  0  0  0
  5 12  1  0  0  0  0
  5 19  2  0  0  0  0
  6 20  1  0  0  0  0
  7 22  1  0  0  0  0
  8 24  1  0  0  0  0
  9 13  2  0  0  0  0
  9 23  1  0  0  0  0
 10 26  2  0  0  0  0
 11 27  1  0  0  0  0
 12 27  2  0  0  0  0
 13 28  1  0  0  0  0
 14 15  2  0  0  0  0
 14 29  1  0  0  0  0
 15 30  1  0  0  0  0
 16 20  2  0  0  0  0
 16 26  1  0  0  0  0
 17 25  1  0  0  0  0
 17 28  2  0  0  0  0
 18 30  2  0  0  0  0
 18 31  1  0  0  0  0
 19 32  1  0  0  0  0
 20 35  1  0  0  0  0
 21 32  1  0  0  0  0
 21 33  2  0  0  0  0
 21 36  1  0  0  0  0
 22 24  2  0  0  0  0
 22 41  1  0  0  0  0
 23 25  2  0  0  0  0
 23 42  1  0  0  0  0
 24 50  1  0  0  0  0
 25 43  1  0  0  0  0
 26 69  1  0  0  0  0
 27 79  1  0  0  0  0
 28 80  1  0  0  0  0
 29 31  2  0  0  0  0
 29 79  1  0  0  0  0
 30 81  1  0  0  0  0
 31 82  1  0  0  0  0
 32 62  2  0  0  0  0
 33 64  1  0  0  0  0
 33 67  1  0  0  0  0
 34 58  1  0  0  0  0
 34 63  2  0  0  0  0
 35 63  1  0  0  0  0
 35 72  2  0  0  0  0
 36 68  1  0  0  0  0
 36 74  2  0  0  0  0
 37 51  1  0  0  0  0
 37 70  1  0  0  0  0
 37 75  2  0  0  0  0
 38 59  1  0  0  0  0
 38 65  1  0  0  0  0
 38 76  2  0  0  0  0
 39 60  1  0  0  0  0
 39 71  1  0  0  0  0
 39 77  2  0  0  0  0
 40 66  1  0  0  0  0
 40 69  1  0  0  0  0
 40 78  2  0  0  0  0
 41 44  1  0  0  0  0
 42 51  1  0  0  0  0
 43 65  1  0  0  0  0
 44 46  1  0  0  0  0
 45 47  1  0  0  0  0
 45 48  1  0  0  0  0
 46 50  1  0  0  0  0
 47 52  1  0  0  0  0
 48 66  1  0  0  0  0
 49 52  1  0  0  0  0
 49 66  1  0  0  0  0
 50 70  1  0  0  0  0
 51 65  1  0  0  0  0
 52 64  1  0  0  0  0
 53 60  1  0  0  0  0
 54 61  1  0  0  0  0
 55 61  1  0  0  0  0
 56 61  1  0  0  0  0
 57 73  1  0  0  0  0
 58 80  1  0  0  0  0
 59 61  1  0  0  0  0
 59 71  1  0  0  0  0
 60 73  1  0  0  0  0
 62 64  1  0  0  0  0
M  CHG  2  72   1  73   1
M  ISO  4  40 100  58 101  69 100  80 101
M  END
> <Batch ID>
0088

> <Smiles>
CNC(C)C(=O)NC(C(=O)N1Cc2cc([101O:1][101CH:1]=CNC(=N)c3cccc([100NH:0][100C:0](=O)N4CCCC(n5nc(-c6ccc(Oc7ccc(F)cc7F)cc6)c(C(N)=O)c5N)C4)c3)ccc2CC1C(=O)NC1CCCc2ccccc21)C(C)(C)C

> <Shape>
0.231

> <Color>
0.070

> <Negative vol penalty>
0.000

$$$$

  -OEChem-04052300233D

 87 95  0     1  0  0  0  0  0999 V2000
  -23.0661   -7.1516   22.3828 C   0  0  0  0  0  0  0  0  0  0  0  0
  -23.7637   -7.8998   21.4400 C   0  0  0  0  0  0  0  0  0  0  0  0
  -25.0596  -31.3262   21.1760 C   0  0  0  0  0  0  0  0  0  0  0  0
  -24.8936  -29.6153   22.8737 C   0  0  0  0  0  0  0  0  0  0  0  0
  -29.3265  -20.2928   19.3579 C   0  0  0  0  0  0  0  0  0  0  0  0
  -21.9069   -7.6670   22.9612 C   0  0  0  0  0  0  0  0  0  0  0  0
  -23.3017   -9.1636   21.0741 C   0  0  0  0  0  0  0  0  0  0  0  0
  -27.0121  -12.6040   20.8692 C   0  0  0  0  0  0  0  0  0  0  0  0
  -28.7550  -21.5298   19.0598 C   0  0  0  0  0  0  0  0  0  0  0  0
  -24.4212  -32.2304   22.0248 C   0  0  0  0  0  0  0  0  0  0  0  0
  -24.2552  -30.5195   23.7225 C   0  0  0  0  0  0  0  0  0  0  0  0
  -27.8349  -12.5868   19.7438 C   0  0  0  0  0  0  0  0  0  0  0  0
  -25.2379  -34.1552   24.6821 C   0  0  0  0  0  0  0  0  0  0  0  0
  -25.7766  -35.4376   24.7865 C   0  0  0  0  0  0  0  0  0  0  0  0
  -26.5826  -14.4239   18.8077 C   0  0  0  0  0  0  0  0  0  0  0  0
  -26.9286  -20.4155   17.9373 C   0  0  0  0  0  0  0  0  0  0  0  0
  -23.6993  -36.3754   23.9849 C   0  0  0  0  0  0  0  0  0  0  0  0
  -25.2958  -30.0186   21.6004 C   0  0  0  0  0  0  0  0  0  0  0  0
  -28.6991  -19.1171   18.9456 C   0  0  0  0  0  0  0  0  0  0  0  0
  -27.3384  -28.8464   20.6200 C   0  0  0  0  0  0  0  0  0  0  0  0
  -21.4359   -8.9417   22.6093 C   0  0  0  0  0  0  0  0  0  0  0  0
  -25.9598  -13.5256   20.9676 C   0  0  0  0  0  0  0  0  0  0  0  0
  -22.1344   -9.6960   21.6473 C   0  0  0  0  0  0  0  0  0  0  0  0
  -25.7495  -14.4524   19.9365 C   0  0  0  0  0  0  0  0  0  0  0  0
  -27.5561  -21.5911   18.3496 C   0  0  0  0  0  0  0  0  0  0  0  0
  -24.0190  -31.8271   23.2981 C   0  0  0  0  0  0  0  0  0  0  0  0
  -27.6184  -13.4950   18.7115 C   0  0  0  0  0  0  0  0  0  0  0  0
  -23.9299  -33.9829   24.2290 C   0  0  0  0  0  0  0  0  0  0  0  0
  -25.0073  -36.5477   24.4379 C   0  0  0  0  0  0  0  0  0  0  0  0
  -27.5002  -19.1785   18.2354 C   0  0  0  0  0  0  0  0  0  0  0  0
  -23.1606  -35.0930   23.8805 C   0  0  0  0  0  0  0  0  0  0  0  0
  -25.9547  -29.0840   20.7239 C   0  0  0  0  0  0  0  0  0  0  0  0
  -27.4486  -27.8761   19.6541 C   0  0  0  0  0  0  0  0  0  0  0  0
  -29.3128  -17.8024   19.2628 C   0  0  0  0  0  0  0  0  0  0  0  0
  -28.4268  -29.4488   21.3329 C   0  0  0  0  0  0  0  0  0  0  0  0
  -29.1308  -14.6095   17.3183 C   0  0  0  0  0  0  0  0  0  1  0  0
  -29.4442  -14.9246   16.0484 C   0  0  0  0  0  0  0  0  0  0  0  0
  -29.5665  -15.4881   18.4512 C   0  0  0  0  0  0  0  0  0  0  0  0
  -22.7974  -13.3032   21.1985 C   0  0  0  0  0  0  0  0  0  0  0  0
  -22.9907  -16.5167   21.5966 C   0  0  0  0  0  0  0  0  0  0  0  0
  -24.3415  -19.7754   20.8393 C   0  0  0  0  0  0  0  0  0  0  0  0
  -25.7909  -23.0855   17.3509 C   0  0  0  0  0  0  0  0  0  0  0  0
  -20.1520   -9.4371   23.2266 C   0  0  0  0  0  0  0  0  0  0  0  0
  -25.0979  -13.5488   22.2001 C   0  0  0  0  0  0  0  0  0  0  0  0
  -24.6461  -15.4754   20.0027 C   0  0  0  0  0  0  0  0  0  0  0  0
  -19.9364  -10.9392   23.0609 C   0  0  0  0  0  0  0  0  0  0  0  0
  -24.0081  -26.0280   16.4341 C   0  0  0  0  0  0  0  0  0  0  0  0
  -20.2204  -11.3640   21.6236 C   0  0  0  0  0  0  0  0  0  0  0  0
  -24.4694  -27.0658   17.4598 C   0  0  0  0  0  0  0  0  0  0  0  0
  -23.8737  -24.6384   17.0543 C   0  0  0  0  0  0  0  0  0  0  0  0
  -25.5253  -25.1975   18.7947 C   0  0  0  0  0  0  0  0  0  0  0  0
  -21.6787  -11.0812   21.2427 C   0  0  1  0  0  0  0  0  0  0  0  0
  -23.7353  -14.1929   21.9643 C   0  0  1  0  0  0  0  0  0  0  0  0
  -25.7376  -26.5999   18.2016 C   0  0  2  0  0  0  0  0  0  0  0  0
  -29.0575  -14.0922   14.8607 C   0  0  0  0  0  0  0  0  0  0  0  0
  -24.3942  -22.2213   21.3981 C   0  0  0  0  0  0  0  0  0  0  0  0
  -20.9762  -16.7939   19.3218 C   0  0  0  0  0  0  0  0  0  0  0  0
  -21.6177  -19.2072   19.1409 C   0  0  0  0  0  0  0  0  0  0  0  0
  -20.5960  -18.3446   21.2468 C   0  0  0  0  0  0  0  0  0  0  0  0
  -26.8198  -19.4774   22.4293 C   0  0  0  0  0  0  0  0  0  0  0  0
  -22.9755  -17.7112   20.6736 C   0  0  1  0  0  0  0  0  0  0  0  0
  -24.8006  -20.8232   21.8372 C   0  0  2  0  0  0  0  0  0  0  0  0
  -21.5610  -17.9938   20.0933 C   0  0  0  0  0  0  0  0  0  0  0  0
  -25.2374  -28.3259   19.8904 N   0  0  0  0  0  0  0  0  0  0  0  0
  -26.1739  -27.6025   19.2535 N   0  0  0  0  0  0  0  0  0  0  0  0
  -23.8264  -15.4539   21.2255 N   0  0  0  0  0  0  0  0  0  0  0  0
  -25.1142  -24.2623   17.7358 N   0  0  0  0  0  0  0  0  0  0  0  0
  -28.5106  -27.2390   19.1168 N   0  0  0  0  0  0  0  0  0  0  0  0
  -28.1364  -30.4292   22.2915 N   0  0  0  0  0  0  0  0  0  0  0  0
  -26.9757  -22.8478   18.0469 N   0  0  0  0  0  0  0  0  0  0  0  0
  -29.0597  -16.7822   18.3468 N   0  0  0  0  0  0  0  0  0  0  0  0
  -22.5527  -12.0871   21.8073 N   0  0  0  0  0  0  0  0  0  0  0  0
  -23.5428  -18.8206   21.4323 N   0  0  0  0  0  0  0  0  0  0  0  0
  -26.2837  -20.7879   21.9798 N   0  3  0  0  0  0  0  0  0  0  0  0
  -30.0074  -17.6947   20.2698 O   0  0  0  0  0  0  0  0  0  0  0  0
  -29.6225  -29.1390   21.1144 O   0  0  0  0  0  0  0  0  0  0  0  0
  -30.2935  -15.0783   19.3511 O   0  0  0  0  0  0  0  0  0  0  0  0
  -22.3292  -13.6920   20.1349 O   0  0  0  0  0  0  0  0  0  0  0  0
  -22.2924  -16.5293   22.6134 O   0  0  0  0  0  0  0  0  0  0  0  0
  -24.6565  -19.8034   19.6517 O   0  0  0  0  0  0  0  0  0  0  0  0
  -25.3658  -22.3576   16.4501 O   0  0  0  0  0  0  0  0  0  0  0  0
  -30.1467  -16.0758   15.7399 O   0  0  0  0  0  0  0  0  0  0  0  0
  -23.3963  -32.7092   24.1267 O   0  0  0  0  0  0  0  0  0  0  0  0
  -28.4196  -13.4800   17.6116 O   0  0  0  0  0  0  0  0  0  1  0  0
  -25.5243  -37.7792   24.5397 F   0  0  0  0  0  0  0  0  0  0  0  0
  -26.8885  -18.0550   17.8338 F   0  0  0  0  0  0  0  0  0  0  0  0
  -21.9031  -34.9339   23.4457 F   0  0  0  0  0  0  0  0  0  0  0  0
  1  2  1  0  0  0  0
  1  6  2  0  0  0  0
  2  7  2  0  0  0  0
  3 10  2  0  0  0  0
  3 18  1  0  0  0  0
  4 11  1  0  0  0  0
  4 18  2  0  0  0  0
  5  9  2  0  0  0  0
  5 19  1  0  0  0  0
  6 21  1  0  0  0  0
  7 23  1  0  0  0  0
  8 12  2  0  0  0  0
  8 22  1  0  0  0  0
  9 25  1  0  0  0  0
 10 26  1  0  0  0  0
 11 26  2  0  0  0  0
 12 27  1  0  0  0  0
 13 14  2  0  0  0  0
 13 28  1  0  0  0  0
 14 29  1  0  0  0  0
 15 24  1  0  0  0  0
 15 27  2  0  0  0  0
 16 25  2  0  0  0  0
 16 30  1  0  0  0  0
 17 29  2  0  0  0  0
 17 31  1  0  0  0  0
 18 32  1  0  0  0  0
 19 30  2  0  0  0  0
 19 34  1  0  0  0  0
 20 32  1  0  0  0  0
 20 33  2  0  0  0  0
 20 35  1  0  0  0  0
 21 23  2  0  0  0  0
 21 43  1  0  0  0  0
 22 24  2  0  0  0  0
 22 44  1  0  0  0  0
 23 52  1  0  0  0  0
 24 45  1  0  0  0  0
 25 70  1  0  0  0  0
 26 83  1  0  0  0  0
 27 84  1  0  0  0  0
 28 31  2  0  0  0  0
 28 83  1  0  0  0  0
 29 85  1  0  0  0  0
 30 86  1  0  0  0  0
 31 87  1  0  0  0  0
 32 64  2  0  0  0  0
 33 65  1  0  0  0  0
 33 68  1  0  0  0  0
 34 71  1  0  0  0  0
 34 75  2  0  0  0  0
 35 69  1  0  0  0  0
 35 76  2  0  0  0  0
 36 37  2  0  0  0  0
 36 38  1  0  0  0  0
 36 84  1  0  0  0  0
 37 55  1  0  0  0  0
 37 82  1  0  0  0  0
 38 71  1  0  0  0  0
 38 77  2  0  0  0  0
 39 53  1  0  0  0  0
 39 72  1  0  0  0  0
 39 78  2  0  0  0  0
 40 61  1  0  0  0  0
 40 66  1  0  0  0  0
 40 79  2  0  0  0  0
 41 62  1  0  0  0  0
 41 73  1  0  0  0  0
 41 80  2  0  0  0  0
 42 67  1  0  0  0  0
 42 70  1  0  0  0  0
 42 81  2  0  0  0  0
 43 46  1  0  0  0  0
 44 53  1  0  0  0  0
 45 66  1  0  0  0  0
 46 48  1  0  0  0  0
 47 49  1  0  0  0  0
 47 50  1  0  0  0  0
 48 52  1  0  0  0  0
 49 54  1  0  0  0  0
 50 67  1  0  0  0  0
 51 54  1  0  0  0  0
 51 67  1  0  0  0  0
 52 72  1  0  0  0  0
 53 66  1  0  0  0  0
 54 65  1  0  0  0  0
 56 62  1  0  0  0  0
 57 63  1  0  0  0  0
 58 63  1  0  0  0  0
 59 63  1  0  0  0  0
 60 74  1  0  0  0  0
 61 63  1  0  0  0  0
 61 73  1  0  0  0  0
 62 74  1  0  0  0  0
 64 65  1  0  0  0  0
M  CHG  1  74   1
M  ISO  4  36 101  42 100  70 100  84 101
M  END
> <Batch ID>
0088

> <Smiles>
CNC(C)C(=O)NC(C(=O)N1Cc2cc([101O:1][101CH:1](C(C)=O)C(=O)NC(=O)c3ccc([100NH:0][100C:0](=O)N4CCCC(n5nc(-c6ccc(Oc7ccc(F)cc7F)cc6)c(C(N)=O)c5N)C4)cc3F)ccc2CC1C(=O)NC1CCCc2ccccc21)C(C)(C)C

> <Shape>
0.252

> <Color>
0.070

> <Negative vol penalty>
0.000

$$$$

  -OEChem-04052300233D

 83 91  0     1  0  0  0  0  0999 V2000
  -25.7904  -23.2956   20.1893 C   0  0  0  0  0  0  0  0  0  0  0  0
  -28.9414  -37.4783   22.2050 C   0  0  0  0  0  0  0  0  0  0  0  0
  -29.1298  -36.4116   21.3320 C   0  0  0  0  0  0  0  0  0  0  0  0
  -24.6336   -8.5477   21.3016 C   0  0  0  0  0  0  0  0  0  0  0  0
  -23.3332  -10.5721   21.5204 C   0  0  0  0  0  0  0  0  0  0  0  0
  -26.4971  -19.4102   20.1307 C   0  0  0  0  0  0  0  0  0  0  0  0
  -28.4103  -37.2534   23.4743 C   0  0  0  0  0  0  0  0  0  0  0  0
  -28.7882  -35.1191   21.7284 C   0  0  0  0  0  0  0  0  0  0  0  0
  -26.2861  -28.9479   19.0879 C   0  0  0  0  0  0  0  0  0  0  0  0
  -26.7107  -18.0319   20.1106 C   0  0  0  0  0  0  0  0  0  0  0  0
  -23.8989   -7.9642   22.3337 C   0  0  0  0  0  0  0  0  0  0  0  0
  -22.5984   -9.9886   22.5525 C   0  0  0  0  0  0  0  0  0  0  0  0
  -26.5886  -27.5872   19.0594 C   0  0  0  0  0  0  0  0  0  0  0  0
  -20.8705   -6.5115   22.7230 C   0  0  0  0  0  0  0  0  0  0  0  0
  -20.4228   -5.2032   22.5406 C   0  0  0  0  0  0  0  0  0  0  0  0
  -25.6052  -27.3288   21.2469 C   0  0  0  0  0  0  0  0  0  0  0  0
  -29.0874  -18.4035   19.8863 C   0  0  0  0  0  0  0  0  0  0  0  0
  -21.6757   -4.5034   24.4842 C   0  0  0  0  0  0  0  0  0  0  0  0
  -24.3508   -9.8517   20.8949 C   0  0  0  0  0  0  0  0  0  0  0  0
  -27.5787  -20.2851   20.0284 C   0  0  0  0  0  0  0  0  0  0  0  0
  -24.8197  -10.4180   18.4522 C   0  0  0  0  0  0  0  0  0  0  0  0
  -28.0530  -35.9588   23.8829 C   0  0  0  0  0  0  0  0  0  0  0  0
  -25.6496  -29.5123   20.2027 C   0  0  0  0  0  0  0  0  0  0  0  0
  -28.2531  -34.8764   23.0048 C   0  0  0  0  0  0  0  0  0  0  0  0
  -25.2934  -28.6965   21.2860 C   0  0  0  0  0  0  0  0  0  0  0  0
  -28.0058  -17.5286   19.9885 C   0  0  0  0  0  0  0  0  0  0  0  0
  -22.8813   -8.6846   22.9591 C   0  0  0  0  0  0  0  0  0  0  0  0
  -26.2507  -26.7780   20.1402 C   0  0  0  0  0  0  0  0  0  0  0  0
  -21.7210   -6.8159   23.7859 C   0  0  0  0  0  0  0  0  0  0  0  0
  -20.8253   -4.1991   23.4212 C   0  0  0  0  0  0  0  0  0  0  0  0
  -28.8738  -19.7818   19.9063 C   0  0  0  0  0  0  0  0  0  0  0  0
  -22.1235   -5.8118   24.6666 C   0  0  0  0  0  0  0  0  0  0  0  0
  -25.1098  -10.4553   19.8292 C   0  0  0  0  0  0  0  0  0  0  0  0
  -25.8354  -11.1345   17.8678 C   0  0  0  0  0  0  0  0  0  0  0  0
  -25.5130  -24.5596   20.2128 C   0  0  0  0  0  0  0  0  0  1  0  0
  -27.3449  -21.7593   20.0475 C   0  0  0  0  0  0  0  0  0  0  0  0
  -23.7296   -9.7917   17.7629 C   0  0  0  0  0  0  0  0  0  0  0  0
  -26.4192  -31.7391   22.3364 C   0  0  0  0  0  0  0  0  0  0  0  0
  -23.3630  -31.2917   23.3272 C   0  0  0  0  0  0  0  0  0  0  0  0
  -20.6430  -29.2373   23.4950 C   0  0  0  0  0  0  0  0  0  0  0  0
  -29.4433  -15.4643   19.8530 C   0  0  0  0  0  0  0  0  0  0  0  0
  -27.5265  -35.7584   25.2819 C   0  0  0  0  0  0  0  0  0  0  0  0
  -25.3062  -30.9767   20.2066 C   0  0  0  0  0  0  0  0  0  0  0  0
  -24.5908  -29.2496   22.4980 C   0  0  0  0  0  0  0  0  0  0  0  0
  -26.8413  -34.4099   25.4876 C   0  0  0  0  0  0  0  0  0  0  0  0
  -30.4312  -12.3196   18.5069 C   0  0  0  0  0  0  0  0  0  0  0  0
  -27.6890  -33.2855   24.9012 C   0  0  0  0  0  0  0  0  0  0  0  0
  -29.1508  -11.4832   18.5623 C   0  0  0  0  0  0  0  0  0  0  0  0
  -30.5558  -13.2465   19.7148 C   0  0  0  0  0  0  0  0  0  0  0  0
  -28.1107  -13.2703   20.0153 C   0  0  0  0  0  0  0  0  0  0  0  0
  -27.8717  -33.4633   23.3891 C   0  0  1  0  0  0  0  0  0  0  0  0
  -25.1182  -31.5425   21.6108 C   0  0  1  0  0  0  0  0  0  0  0  0
  -27.9089  -12.3680   18.7870 C   0  0  2  0  0  0  0  0  0  0  0  0
  -18.3052  -29.1342   24.4013 C   0  0  0  0  0  0  0  0  0  0  0  0
  -24.4730  -30.8199   26.1299 C   0  0  0  0  0  0  0  0  0  0  0  0
  -22.2696  -29.8097   26.7569 C   0  0  0  0  0  0  0  0  0  0  0  0
  -22.3886  -32.1996   26.0520 C   0  0  0  0  0  0  0  0  0  0  0  0
  -19.4843  -28.9211   20.7901 C   0  0  0  0  0  0  0  0  0  0  0  0
  -22.6838  -30.3807   24.3210 C   0  0  1  0  0  0  0  0  0  0  0  0
  -19.1740  -29.4852   23.2034 C   0  0  2  0  0  0  0  0  0  0  0  0
  -22.9687  -30.7921   25.7931 C   0  0  0  0  0  0  0  0  0  0  0  0
  -26.2227  -11.1411   20.1033 N   0  0  0  0  0  0  0  0  0  0  0  0
  -26.0246  -22.1452   20.1696 N   0  0  0  0  0  0  0  0  0  0  0  0
  -26.6409  -11.5413   18.8905 N   0  0  0  0  0  0  0  0  0  0  0  0
  -24.2822  -30.6886   22.4571 N   0  0  0  0  0  0  0  0  0  0  0  0
  -29.3448  -14.0568   19.8625 N   0  0  0  0  0  0  0  0  0  0  0  0
  -26.1091  -11.4500   16.5841 N   0  0  0  0  0  0  0  0  0  0  0  0
  -22.7744   -9.0957   18.5162 N   0  0  0  0  0  0  0  0  0  0  0  0
  -28.2226  -16.1285   19.9682 N   0  0  0  0  0  0  0  0  0  0  0  0
  -26.6769  -33.0514   22.6838 N   0  0  0  0  0  0  0  0  0  0  0  0
  -21.2687  -30.3721   23.9662 N   0  0  0  0  0  0  0  0  0  0  0  0
  -18.7300  -28.6617   22.0434 N   0  3  0  0  0  0  0  0  0  0  0  0
  -28.3131  -22.5110   19.9563 O   0  0  0  0  0  0  0  0  0  0  0  0
  -23.6153   -9.8336   16.5144 O   0  0  0  0  0  0  0  0  0  0  0  0
  -27.1354  -30.7715   22.5654 O   0  0  0  0  0  0  0  0  0  0  0  0
  -23.0828  -32.4930   23.3183 O   0  0  0  0  0  0  0  0  0  0  0  0
  -21.1808  -28.1453   23.3254 O   0  0  0  0  0  0  0  0  0  0  0  0
  -30.5277  -16.0380   19.7231 O   0  0  0  0  0  0  0  0  0  0  0  0
  -22.1640   -8.1154   23.9661 O   0  0  0  0  0  0  0  0  0  0  0  0
  -26.5454  -25.4497   20.1152 O   0  0  0  0  0  0  0  0  0  1  0  0
  -20.3940   -2.9430   23.2468 F   0  0  0  0  0  0  0  0  0  0  0  0
  -29.9208  -20.6134   19.8069 F   0  0  0  0  0  0  0  0  0  0  0  0
  -22.9394   -6.0983   25.6903 F   0  0  0  0  0  0  0  0  0  0  0  0
  1 35  2  0  0  0  0
  1 63  2  0  0  0  0
  2  3  1  0  0  0  0
  2  7  2  0  0  0  0
  3  8  2  0  0  0  0
  4 11  2  0  0  0  0
  4 19  1  0  0  0  0
  5 12  1  0  0  0  0
  5 19  2  0  0  0  0
  6 10  2  0  0  0  0
  6 20  1  0  0  0  0
  7 22  1  0  0  0  0
  8 24  1  0  0  0  0
  9 13  2  0  0  0  0
  9 23  1  0  0  0  0
 10 26  1  0  0  0  0
 11 27  1  0  0  0  0
 12 27  2  0  0  0  0
 13 28  1  0  0  0  0
 14 15  2  0  0  0  0
 14 29  1  0  0  0  0
 15 30  1  0  0  0  0
 16 25  1  0  0  0  0
 16 28  2  0  0  0  0
 17 26  2  0  0  0  0
 17 31  1  0  0  0  0
 18 30  2  0  0  0  0
 18 32  1  0  0  0  0
 19 33  1  0  0  0  0
 20 31  2  0  0  0  0
 20 36  1  0  0  0  0
 21 33  1  0  0  0  0
 21 34  2  0  0  0  0
 21 37  1  0  0  0  0
 22 24  2  0  0  0  0
 22 42  1  0  0  0  0
 23 25  2  0  0  0  0
 23 43  1  0  0  0  0
 24 51  1  0  0  0  0
 25 44  1  0  0  0  0
 26 69  1  0  0  0  0
 27 79  1  0  0  0  0
 28 80  1  0  0  0  0
 29 32  2  0  0  0  0
 29 79  1  0  0  0  0
 30 81  1  0  0  0  0
 31 82  1  0  0  0  0
 32 83  1  0  0  0  0
 33 62  2  0  0  0  0
 34 64  1  0  0  0  0
 34 67  1  0  0  0  0
 35 80  1  0  0  0  0
 36 63  1  0  0  0  0
 36 73  2  0  0  0  0
 37 68  1  0  0  0  0
 37 74  2  0  0  0  0
 38 52  1  0  0  0  0
 38 70  1  0  0  0  0
 38 75  2  0  0  0  0
 39 59  1  0  0  0  0
 39 65  1  0  0  0  0
 39 76  2  0  0  0  0
 40 60  1  0  0  0  0
 40 71  1  0  0  0  0
 40 77  2  0  0  0  0
 41 66  1  0  0  0  0
 41 69  1  0  0  0  0
 41 78  2  0  0  0  0
 42 45  1  0  0  0  0
 43 52  1  0  0  0  0
 44 65  1  0  0  0  0
 45 47  1  0  0  0  0
 46 48  1  0  0  0  0
 46 49  1  0  0  0  0
 47 51  1  0  0  0  0
 48 53  1  0  0  0  0
 49 66  1  0  0  0  0
 50 53  1  0  0  0  0
 50 66  1  0  0  0  0
 51 70  1  0  0  0  0
 52 65  1  0  0  0  0
 53 64  1  0  0  0  0
 54 60  1  0  0  0  0
 55 61  1  0  0  0  0
 56 61  1  0  0  0  0
 57 61  1  0  0  0  0
 58 72  1  0  0  0  0
 59 61  1  0  0  0  0
 59 71  1  0  0  0  0
 60 72  1  0  0  0  0
 62 64  1  0  0  0  0
M  CHG  1  72   1
M  ISO  4  35 101  41 100  69 100  80 101
M  END
> <Batch ID>
0088

> <Smiles>
CNC(C)C(=O)NC(C(=O)N1Cc2cc([101O:1][101CH:1]=C=NC(=O)c3ccc([100NH:0][100C:0](=O)N4CCCC(n5nc(-c6ccc(Oc7ccc(F)cc7F)cc6)c(C(N)=O)c5N)C4)cc3F)ccc2CC1C(=O)NC1CCCc2ccccc21)C(C)(C)C

> <Shape>
0.305

> <Color>
0.103

> <Negative vol penalty>
0.000

$$$$

  -OEChem-04052300233D

 84 93  0     1  0  0  0  0  0999 V2000
  -26.5197  -37.9060   26.4114 C   0  0  0  0  0  0  0  0  0  0  0  0
  -26.1781  -36.7147   27.0435 C   0  0  0  0  0  0  0  0  0  0  0  0
  -22.8478  -10.8466   21.7029 C   0  0  0  0  0  0  0  0  0  0  0  0
  -24.4881   -9.0783   21.5628 C   0  0  0  0  0  0  0  0  0  0  0  0
  -26.1893  -38.1023   25.0712 C   0  0  0  0  0  0  0  0  0  0  0  0
  -25.5050  -35.7194   26.3359 C   0  0  0  0  0  0  0  0  0  0  0  0
  -28.3158  -29.1244   25.6306 C   0  0  0  0  0  0  0  0  0  0  0  0
  -30.4763  -19.1362   22.0413 C   0  0  0  0  0  0  0  0  0  0  0  0
  -28.1262  -19.1380   22.6018 C   0  0  0  0  0  0  0  0  0  0  0  0
  -30.3727  -17.8134   21.6112 C   0  0  0  0  0  0  0  0  0  0  0  0
  -28.0226  -17.8152   22.1716 C   0  0  0  0  0  0  0  0  0  0  0  0
  -22.1414  -10.1158   22.6581 C   0  0  0  0  0  0  0  0  0  0  0  0
  -23.7818   -8.3475   22.5181 C   0  0  0  0  0  0  0  0  0  0  0  0
  -28.6881  -27.7800   25.6300 C   0  0  0  0  0  0  0  0  0  0  0  0
  -21.0250   -6.3929   22.6220 C   0  0  0  0  0  0  0  0  0  0  0  0
  -20.8240   -5.0340   22.3800 C   0  0  0  0  0  0  0  0  0  0  0  0
  -26.7790  -27.2408   24.2471 C   0  0  0  0  0  0  0  0  0  0  0  0
  -22.0158   -4.4959   24.4115 C   0  0  0  0  0  0  0  0  0  0  0  0
  -24.0211  -10.3279   21.1552 C   0  0  0  0  0  0  0  0  0  0  0  0
  -24.2840  -11.5142   18.9122 C   0  0  0  0  0  0  0  0  0  0  0  0
  -25.5204  -37.1051   24.3441 C   0  0  0  0  0  0  0  0  0  0  0  0
  -27.1809  -29.5350   24.9258 C   0  0  0  0  0  0  0  0  0  0  0  0
  -25.1642  -35.9031   24.9851 C   0  0  0  0  0  0  0  0  0  0  0  0
  -26.4082  -28.5881   24.2337 C   0  0  0  0  0  0  0  0  0  0  0  0
  -29.3530  -19.7985   22.5367 C   0  0  0  0  0  0  0  0  0  0  0  0
  -29.1459  -17.1529   21.6763 C   0  0  0  0  0  0  0  0  0  0  0  0
  -22.6084   -8.8662   23.0658 C   0  0  0  0  0  0  0  0  0  0  0  0
  -27.9215  -26.8405   24.9402 C   0  0  0  0  0  0  0  0  0  0  0  0
  -21.7215   -6.8033   23.7587 C   0  0  0  0  0  0  0  0  0  0  0  0
  -21.3194   -4.0855   23.2747 C   0  0  0  0  0  0  0  0  0  0  0  0
  -22.2169   -5.8548   24.6535 C   0  0  0  0  0  0  0  0  0  0  0  0
  -24.7509  -11.0821   20.1680 C   0  0  0  0  0  0  0  0  0  0  0  0
  -25.3493  -12.1839   18.3616 C   0  0  0  0  0  0  0  0  0  0  0  0
  -29.5604  -23.8345   23.8501 C   0  0  0  0  0  0  0  0  0  0  0  0
  -29.1301  -25.0999   23.9491 C   0  0  0  0  0  0  0  0  0  1  0  0
  -23.0018  -11.3271   18.2983 C   0  0  0  0  0  0  0  0  0  0  0  0
  -24.9574  -32.3773   23.8993 C   0  0  0  0  0  0  0  0  0  0  0  0
  -25.2546  -30.5502   21.4531 C   0  0  0  0  0  0  0  0  0  0  0  0
  -26.1756  -28.5075   18.8809 C   0  0  0  0  0  0  0  0  0  0  0  0
  -30.0573  -15.0072   20.7213 C   0  0  0  0  0  0  0  0  0  0  0  0
  -25.1425  -37.3819   22.9105 C   0  0  0  0  0  0  0  0  0  0  0  0
  -26.7078  -30.9631   24.9495 C   0  0  0  0  0  0  0  0  0  0  0  0
  -25.1759  -29.0701   23.5180 C   0  0  0  0  0  0  0  0  0  0  0  0
  -30.4804  -23.3677   22.7582 C   0  0  0  0  0  0  0  0  0  0  0  0
  -29.1461  -22.7533   24.8077 C   0  0  0  0  0  0  0  0  0  0  0  0
  -24.7609  -36.1278   22.1282 C   0  0  0  0  0  0  0  0  0  0  0  0
  -30.1367  -12.2942   18.4170 C   0  0  0  0  0  0  0  0  0  0  0  0
  -23.8020  -35.2631   22.9404 C   0  0  0  0  0  0  0  0  0  0  0  0
  -28.7203  -11.7186   18.4857 C   0  0  0  0  0  0  0  0  0  0  0  0
  -29.8912  -22.1619   22.0220 C   0  0  0  0  0  0  0  0  0  0  0  0
  -28.5604  -21.5565   24.0561 C   0  0  0  0  0  0  0  0  0  0  0  0
  -30.6200  -12.7758   19.7838 C   0  0  0  0  0  0  0  0  0  0  0  0
  -28.3018  -13.1366   20.5354 C   0  0  0  0  0  0  0  0  0  0  0  0
  -24.4557  -34.7898   24.2443 C   0  0  1  0  0  0  0  0  0  0  0  0
  -26.0702  -31.4098   23.6217 C   0  0  1  0  0  0  0  0  0  0  0  0
  -27.7467  -12.6977   19.1705 C   0  0  2  0  0  0  0  0  0  0  0  0
  -25.8048  -28.1420   16.4260 C   0  0  0  0  0  0  0  0  0  0  0  0
  -22.5183  -29.3417   22.0501 C   0  0  0  0  0  0  0  0  0  0  0  0
  -22.6263  -28.1810   19.8344 C   0  0  0  0  0  0  0  0  0  0  0  0
  -22.6323  -30.6735   19.9364 C   0  0  0  0  0  0  0  0  0  0  0  0
  -29.0395  -28.9321   18.2669 C   0  0  0  0  0  0  0  0  0  0  0  0
  -24.6925  -29.3984   20.6588 C   0  0  1  0  0  0  0  0  0  0  0  0
  -26.6721  -28.8136   17.4794 C   0  0  2  0  0  0  0  0  0  0  0  0
  -23.1378  -29.3948   20.6393 C   0  0  0  0  0  0  0  0  0  0  0  0
  -26.0145  -11.4465   20.4015 N   0  0  0  0  0  0  0  0  0  0  0  0
  -26.3507  -12.1146   19.2849 N   0  0  0  0  0  0  0  0  0  0  0  0
  -29.4572  -21.1261   22.9704 N   0  0  0  0  0  0  0  0  0  0  0  0
  -25.4619  -30.3338   22.8208 N   0  0  0  0  0  0  0  0  0  0  0  0
  -29.6497  -13.7029   20.3699 N   0  0  0  0  0  0  0  0  0  0  0  0
  -25.5178  -12.8193   17.1825 N   0  0  0  0  0  0  0  0  0  0  0  0
  -22.0214  -10.6152   19.0026 N   0  0  0  0  0  0  0  0  0  0  0  0
  -29.0407  -15.8091   21.2392 N   0  0  0  0  0  0  0  0  0  0  0  0
  -25.3656  -33.6947   23.9850 N   0  0  0  0  0  0  0  0  0  0  0  0
  -25.3065  -29.4756   19.3376 N   0  0  0  0  0  0  0  0  0  0  0  0
  -28.0730  -28.3344   17.3099 N   0  3  0  0  0  0  0  0  0  0  0  0
  -22.7390  -11.7638   17.1521 O   0  0  0  0  0  0  0  0  0  0  0  0
  -23.8119  -31.9607   24.0251 O   0  0  0  0  0  0  0  0  0  0  0  0
  -25.4988  -31.6157   20.8802 O   0  0  0  0  0  0  0  0  0  0  0  0
  -26.5211  -27.5075   19.5064 O   0  0  0  0  0  0  0  0  0  0  0  0
  -31.2161  -15.3937   20.5484 O   0  0  0  0  0  0  0  0  0  0  0  0
  -21.9195   -8.1528   23.9980 O   0  0  0  0  0  0  0  0  0  0  0  0
  -28.2932  -25.5303   24.9400 O   0  0  0  0  0  0  0  0  0  1  0  0
  -21.1249   -2.7807   23.0429 F   0  0  0  0  0  0  0  0  0  0  0  0
  -22.8857   -6.2431   25.7479 F   0  0  0  0  0  0  0  0  0  0  0  0
  1  2  1  0  0  0  0
  1  5  2  0  0  0  0
  2  6  2  0  0  0  0
  3 12  2  0  0  0  0
  3 19  1  0  0  0  0
  4 13  1  0  0  0  0
  4 19  2  0  0  0  0
  5 21  1  0  0  0  0
  6 23  1  0  0  0  0
  7 14  2  0  0  0  0
  7 22  1  0  0  0  0
  8 10  2  0  0  0  0
  8 25  1  0  0  0  0
  9 11  1  0  0  0  0
  9 25  2  0  0  0  0
 10 26  1  0  0  0  0
 11 26  2  0  0  0  0
 12 27  1  0  0  0  0
 13 27  2  0  0  0  0
 14 28  1  0  0  0  0
 15 16  2  0  0  0  0
 15 29  1  0  0  0  0
 16 30  1  0  0  0  0
 17 24  1  0  0  0  0
 17 28  2  0  0  0  0
 18 30  2  0  0  0  0
 18 31  1  0  0  0  0
 19 32  1  0  0  0  0
 20 32  1  0  0  0  0
 20 33  2  0  0  0  0
 20 36  1  0  0  0  0
 21 23  2  0  0  0  0
 21 41  1  0  0  0  0
 22 24  2  0  0  0  0
 22 42  1  0  0  0  0
 23 54  1  0  0  0  0
 24 43  1  0  0  0  0
 25 67  1  0  0  0  0
 26 72  1  0  0  0  0
 27 81  1  0  0  0  0
 28 82  1  0  0  0  0
 29 31  2  0  0  0  0
 29 81  1  0  0  0  0
 30 83  1  0  0  0  0
 31 84  1  0  0  0  0
 32 65  2  0  0  0  0
 33 66  1  0  0  0  0
 33 70  1  0  0  0  0
 34 35  2  0  0  0  0
 34 44  1  0  0  0  0
 34 45  1  0  0  0  0
 35 82  1  0  0  0  0
 36 71  1  0  0  0  0
 36 76  2  0  0  0  0
 37 55  1  0  0  0  0
 37 73  1  0  0  0  0
 37 77  2  0  0  0  0
 38 62  1  0  0  0  0
 38 68  1  0  0  0  0
 38 78  2  0  0  0  0
 39 63  1  0  0  0  0
 39 74  1  0  0  0  0
 39 79  2  0  0  0  0
 40 69  1  0  0  0  0
 40 72  1  0  0  0  0
 40 80  2  0  0  0  0
 41 46  1  0  0  0  0
 42 55  1  0  0  0  0
 43 68  1  0  0  0  0
 44 50  1  0  0  0  0
 45 51  1  0  0  0  0
 46 48  1  0  0  0  0
 47 49  1  0  0  0  0
 47 52  1  0  0  0  0
 48 54  1  0  0  0  0
 49 56  1  0  0  0  0
 50 67  1  0  0  0  0
 51 67  1  0  0  0  0
 52 69  1  0  0  0  0
 53 56  1  0  0  0  0
 53 69  1  0  0  0  0
 54 73  1  0  0  0  0
 55 68  1  0  0  0  0
 56 66  1  0  0  0  0
 57 63  1  0  0  0  0
 58 64  1  0  0  0  0
 59 64  1  0  0  0  0
 60 64  1  0  0  0  0
 61 75  1  0  0  0  0
 62 64  1  0  0  0  0
 62 74  1  0  0  0  0
 63 75  1  0  0  0  0
 65 66  1  0  0  0  0
M  CHG  1  75   1
M  ISO  4  35 101  40 100  72 100  82 101
M  END
> <Batch ID>
0088

> <Smiles>
CNC(C)C(=O)NC(C(=O)N1Cc2cc([101O:1][101CH:1]=C3CCN(c4ccc([100NH:0][100C:0](=O)N5CCCC(n6nc(-c7ccc(Oc8ccc(F)cc8F)cc7)c(C(N)=O)c6N)C5)cc4)CC3)ccc2CC1C(=O)NC1CCCc2ccccc21)C(C)(C)C

> <Shape>
0.312

> <Color>
0.107

> <Negative vol penalty>
0.000

$$$$

  -OEChem-04052300233D

 83 91  0     1  0  0  0  0  0999 V2000
  -25.6290  -30.1241   30.0112 C   0  0  0  0  0  0  0  0  0  0  0  0
  -26.3334  -28.9338   29.8618 C   0  0  0  0  0  0  0  0  0  0  0  0
  -23.0753   -9.8688   19.9405 C   0  0  0  0  0  0  0  0  0  0  0  0
  -23.8349   -9.8748   22.2339 C   0  0  0  0  0  0  0  0  0  0  0  0
  -32.6536  -17.4886   23.4562 C   0  0  0  0  0  0  0  0  0  0  0  0
  -30.4705  -18.3389   24.0462 C   0  0  0  0  0  0  0  0  0  0  0  0
  -24.2426  -30.1355   29.8641 C   0  0  0  0  0  0  0  0  0  0  0  0
  -25.6517  -27.7539   29.5662 C   0  0  0  0  0  0  0  0  0  0  0  0
  -27.9238  -25.0554   25.9330 C   0  0  0  0  0  0  0  0  0  0  0  0
  -32.0650  -16.6051   22.5514 C   0  0  0  0  0  0  0  0  0  0  0  0
  -29.8819  -17.4554   23.1414 C   0  0  0  0  0  0  0  0  0  0  0  0
  -22.3309   -8.7159   20.1900 C   0  0  0  0  0  0  0  0  0  0  0  0
  -23.0905   -8.7219   22.4835 C   0  0  0  0  0  0  0  0  0  0  0  0
  -29.0425  -24.3086   26.2998 C   0  0  0  0  0  0  0  0  0  0  0  0
  -19.8619   -7.9253   23.0854 C   0  0  0  0  0  0  0  0  0  0  0  0
  -19.1048   -7.8853   24.2562 C   0  0  0  0  0  0  0  0  0  0  0  0
  -27.6755  -22.3238   26.4055 C   0  0  0  0  0  0  0  0  0  0  0  0
  -20.3453   -5.9472   24.9923 C   0  0  0  0  0  0  0  0  0  0  0  0
  -23.8274  -10.4482   20.9624 C   0  0  0  0  0  0  0  0  0  0  0  0
  -31.8563  -18.3555   24.2036 C   0  0  0  0  0  0  0  0  0  0  0  0
  -24.1703  -12.9733   20.8431 C   0  0  0  0  0  0  0  0  0  0  0  0
  -23.5445  -28.9569   29.5570 C   0  0  0  0  0  0  0  0  0  0  0  0
  -26.6683  -24.4430   25.8101 C   0  0  0  0  0  0  0  0  0  0  0  0
  -24.2545  -27.7492   29.4161 C   0  0  0  0  0  0  0  0  0  0  0  0
  -26.5429  -23.0646   26.0345 C   0  0  0  0  0  0  0  0  0  0  0  0
  -30.6792  -16.5885   22.3940 C   0  0  0  0  0  0  0  0  0  0  0  0
  -22.3385   -8.1424   21.4615 C   0  0  0  0  0  0  0  0  0  0  0  0
  -28.9179  -22.9432   26.5389 C   0  0  0  0  0  0  0  0  0  0  0  0
  -20.8607   -6.9761   22.8680 C   0  0  0  0  0  0  0  0  0  0  0  0
  -19.3465   -6.8963   25.2096 C   0  0  0  0  0  0  0  0  0  0  0  0
  -21.1024   -5.9871   23.8214 C   0  0  0  0  0  0  0  0  0  0  0  0
  -24.5970  -11.6389   20.7051 C   0  0  0  0  0  0  0  0  0  0  0  0
  -25.2628  -13.7224   20.4802 C   0  0  0  0  0  0  0  0  0  0  0  0
  -32.4803  -19.2921   25.1630 C   0  0  0  0  0  0  0  0  0  0  0  0
  -22.8999  -13.4895   21.2621 C   0  0  0  0  0  0  0  0  0  0  0  0
  -23.8593  -24.7745   27.2604 C   0  0  0  0  0  0  0  0  0  0  0  0
  -22.8826  -22.6622   25.0006 C   0  0  0  0  0  0  0  0  0  0  0  0
  -32.1721  -21.4828   26.2637 C   0  0  0  0  0  0  0  0  0  0  0  0
  -23.7037  -20.1798   22.8073 C   0  0  0  0  0  0  0  0  0  0  0  0
  -30.7294  -14.7656   20.6559 C   0  0  0  0  0  0  0  0  0  0  0  0
  -22.0407  -29.0098   29.4542 C   0  0  0  0  0  0  0  0  0  0  0  0
  -25.4765  -25.2575   25.3875 C   0  0  0  0  0  0  0  0  0  0  0  0
  -25.2213  -22.3556   25.8963 C   0  0  0  0  0  0  0  0  0  0  0  0
  -21.4336  -27.7870   28.7711 C   0  0  0  0  0  0  0  0  0  0  0  0
  -29.6143  -12.3530   18.2868 C   0  0  0  0  0  0  0  0  0  0  0  0
  -22.0428  -26.5054   29.3307 C   0  0  0  0  0  0  0  0  0  0  0  0
  -28.1744  -12.0619   18.7161 C   0  0  0  0  0  0  0  0  0  0  0  0
  -30.5293  -12.5810   19.4886 C   0  0  0  0  0  0  0  0  0  0  0  0
  -28.6225  -13.3059   20.8699 C   0  0  0  0  0  0  0  0  0  0  0  0
  -23.5532  -26.4534   29.0710 C   0  0  1  0  0  0  0  0  0  0  0  0
  -24.1478  -24.6271   25.7931 C   0  0  1  0  0  0  0  0  0  0  0  0
  -27.6497  -13.1334   19.6919 C   0  0  2  0  0  0  0  0  0  0  0  0
  -22.6851  -18.6210   21.1250 C   0  0  0  0  0  0  0  0  0  0  0  0
  -21.7896  -20.9352   27.2661 C   0  0  0  0  0  0  0  0  0  0  0  0
  -21.6597  -19.0245   25.6535 C   0  0  0  0  0  0  0  0  0  0  0  0
  -20.3065  -21.0824   25.2578 C   0  0  0  0  0  0  0  0  0  0  0  0
  -25.3229  -21.3131   20.6044 C   0  0  0  0  0  0  0  0  0  0  0  0
  -31.2743  -22.6499   26.4062 C   0  0  0  0  0  0  0  0  0  1  0  0
  -22.8088  -21.1574   24.9044 C   0  0  1  0  0  0  0  0  0  0  0  0
  -23.3517  -19.9700   21.3456 C   0  0  2  0  0  0  0  0  0  0  0  0
  -21.6658  -20.5633   25.7750 C   0  0  0  0  0  0  0  0  0  0  0  0
  -25.8618  -11.5426   20.2870 N   0  0  0  0  0  0  0  0  0  0  0  0
  -26.2393  -12.8261   20.1590 N   0  0  0  0  0  0  0  0  0  0  0  0
  -24.0841  -23.1965   25.4871 N   0  0  0  0  0  0  0  0  0  0  0  0
  -29.9707  -13.6119   20.3662 N   0  0  0  0  0  0  0  0  0  0  0  0
  -25.4738  -15.0538   20.4076 N   0  0  0  0  0  0  0  0  0  0  0  0
  -21.8876  -12.5807   21.5990 N   0  0  0  0  0  0  0  0  0  0  0  0
  -30.0823  -15.6907   21.4745 N   0  0  0  0  0  0  0  0  0  0  0  0
  -31.7610  -20.5117   25.4444 N   0  0  0  0  0  0  0  0  0  0  0  0
  -23.8173  -26.0850   27.6966 N   0  0  0  0  0  0  0  0  0  0  0  0
  -22.7023  -20.8439   23.4836 N   0  0  0  0  0  0  0  0  0  0  0  0
  -33.2969  -21.5111   26.9685 N   0  3  0  0  0  0  0  0  0  0  0  0
  -24.5796  -20.0308   20.5033 N   0  3  0  0  0  0  0  0  0  0  0  0
  -33.5627  -19.0619   25.6827 O   0  0  0  0  0  0  0  0  0  0  0  0
  -22.6642  -14.7202   21.3197 O   0  0  0  0  0  0  0  0  0  0  0  0
  -23.6861  -23.7734   27.9456 O   0  0  0  0  0  0  0  0  0  0  0  0
  -21.9127  -23.3389   24.6500 O   0  0  0  0  0  0  0  0  0  0  0  0
  -24.7597  -19.7899   23.3008 O   0  0  0  0  0  0  0  0  0  0  0  0
  -31.8586  -14.9340   20.1885 O   0  0  0  0  0  0  0  0  0  0  0  0
  -21.6120   -7.0176   21.7055 O   0  0  0  0  0  0  0  0  0  0  0  0
  -30.0082  -22.2120   26.8977 O   0  0  0  0  0  0  0  0  0  1  0  0
  -18.6204   -6.8590   26.3346 F   0  0  0  0  0  0  0  0  0  0  0  0
  -22.0614   -5.0733   23.6187 F   0  0  0  0  0  0  0  0  0  0  0  0
  1  2  1  0  0  0  0
  1  7  2  0  0  0  0
  2  8  2  0  0  0  0
  3 12  2  0  0  0  0
  3 19  1  0  0  0  0
  4 13  1  0  0  0  0
  4 19  2  0  0  0  0
  5 10  2  0  0  0  0
  5 20  1  0  0  0  0
  6 11  1  0  0  0  0
  6 20  2  0  0  0  0
  7 22  1  0  0  0  0
  8 24  1  0  0  0  0
  9 14  2  0  0  0  0
  9 23  1  0  0  0  0
 10 26  1  0  0  0  0
 11 26  2  0  0  0  0
 12 27  1  0  0  0  0
 13 27  2  0  0  0  0
 14 28  1  0  0  0  0
 15 16  2  0  0  0  0
 15 29  1  0  0  0  0
 16 30  1  0  0  0  0
 17 25  1  0  0  0  0
 17 28  2  0  0  0  0
 18 30  2  0  0  0  0
 18 31  1  0  0  0  0
 19 32  1  0  0  0  0
 20 34  1  0  0  0  0
 21 32  1  0  0  0  0
 21 33  2  0  0  0  0
 21 35  1  0  0  0  0
 22 24  2  0  0  0  0
 22 41  1  0  0  0  0
 23 25  2  0  0  0  0
 23 42  1  0  0  0  0
 24 50  1  0  0  0  0
 25 43  1  0  0  0  0
 26 68  1  0  0  0  0
 27 80  1  0  0  0  0
 28 81  1  0  0  0  0
 29 31  2  0  0  0  0
 29 80  1  0  0  0  0
 30 82  1  0  0  0  0
 31 83  1  0  0  0  0
 32 62  2  0  0  0  0
 33 63  1  0  0  0  0
 33 66  1  0  0  0  0
 34 69  1  0  0  0  0
 34 74  2  0  0  0  0
 35 67  1  0  0  0  0
 35 75  2  0  0  0  0
 36 51  1  0  0  0  0
 36 70  1  0  0  0  0
 36 76  2  0  0  0  0
 37 59  1  0  0  0  0
 37 64  1  0  0  0  0
 37 77  2  0  0  0  0
 38 58  1  0  0  0  0
 38 69  1  0  0  0  0
 38 72  2  0  0  0  0
 39 60  1  0  0  0  0
 39 71  1  0  0  0  0
 39 78  2  0  0  0  0
 40 65  1  0  0  0  0
 40 68  1  0  0  0  0
 40 79  2  0  0  0  0
 41 44  1  0  0  0  0
 42 51  1  0  0  0  0
 43 64  1  0  0  0  0
 44 46  1  0  0  0  0
 45 47  1  0  0  0  0
 45 48  1  0  0  0  0
 46 50  1  0  0  0  0
 47 52  1  0  0  0  0
 48 65  1  0  0  0  0
 49 52  1  0  0  0  0
 49 65  1  0  0  0  0
 50 70  1  0  0  0  0
 51 64  1  0  0  0  0
 52 63  1  0  0  0  0
 53 60  1  0  0  0  0
 54 61  1  0  0  0  0
 55 61  1  0  0  0  0
 56 61  1  0  0  0  0
 57 73  1  0  0  0  0
 58 81  1  0  0  0  0
 59 61  1  0  0  0  0
 59 71  1  0  0  0  0
 60 73  1  0  0  0  0
 62 63  1  0  0  0  0
M  CHG  2  72   1  73   1
M  ISO  4  40 100  58 101  68 100  81 101
M  END
> <Batch ID>
0088

> <Smiles>
CNC(C)C(=O)NC(C(=O)N1Cc2cc([101O:1][101CH2:1]C(N)=NC(=O)c3ccc([100NH:0][100C:0](=O)N4CCCC(n5nc(-c6ccc(Oc7ccc(F)cc7F)cc6)c(C(N)=O)c5N)C4)cc3)ccc2CC1C(=O)NC1CCCc2ccccc21)C(C)(C)C

> <Shape>
0.166

> <Color>
0.187

> <Negative vol penalty>
0.000

$$$$

  -OEChem-04052300233D

 85 93  0     1  0  0  0  0  0999 V2000
  -27.7202  -32.9092   27.2098 C   0  0  0  0  0  0  0  0  0  0  0  0
  -27.8691  -31.7701   26.4253 C   0  0  0  0  0  0  0  0  0  0  0  0
  -24.3077  -10.7944   23.7010 C   0  0  0  0  0  0  0  0  0  0  0  0
  -24.1336  -13.1649   24.1340 C   0  0  0  0  0  0  0  0  0  0  0  0
  -26.4561  -33.4684   27.3921 C   0  0  0  0  0  0  0  0  0  0  0  0
  -26.7537  -31.1887   25.8234 C   0  0  0  0  0  0  0  0  0  0  0  0
  -27.5912  -29.9246   20.9916 C   0  0  0  0  0  0  0  0  0  0  0  0
  -23.8635  -10.5253   24.9955 C   0  0  0  0  0  0  0  0  0  0  0  0
  -23.6893  -12.8958   25.4286 C   0  0  0  0  0  0  0  0  0  0  0  0
  -28.3176  -28.7583   20.7554 C   0  0  0  0  0  0  0  0  0  0  0  0
  -22.4308   -9.2106   28.0670 C   0  0  0  0  0  0  0  0  0  0  0  0
  -21.4630   -8.2191   28.2275 C   0  0  0  0  0  0  0  0  0  0  0  0
  -31.4477  -19.8411   21.6070 C   0  0  0  0  0  0  0  0  0  0  0  0
  -29.5280  -18.4565   21.1228 C   0  0  0  0  0  0  0  0  0  0  0  0
  -26.2617  -27.5727   20.3230 C   0  0  0  0  0  0  0  0  0  0  0  0
  -31.7559  -17.6239   20.6981 C   0  0  0  0  0  0  0  0  0  0  0  0
  -19.9501   -9.4675   26.8169 C   0  0  0  0  0  0  0  0  0  0  0  0
  -24.4429  -12.1142   23.2703 C   0  0  0  0  0  0  0  0  0  0  0  0
  -30.0652  -19.6571   21.5871 C   0  0  0  0  0  0  0  0  0  0  0  0
  -24.1129  -12.5462   20.7778 C   0  0  0  0  0  0  0  0  0  0  0  0
  -25.3259  -32.8992   26.7843 C   0  0  0  0  0  0  0  0  0  0  0  0
  -26.1915  -29.9211   20.9059 C   0  0  0  0  0  0  0  0  0  0  0  0
  -25.4730  -31.7400   25.9988 C   0  0  0  0  0  0  0  0  0  0  0  0
  -25.5200  -28.7409   20.5562 C   0  0  0  0  0  0  0  0  0  0  0  0
  -32.2931  -18.8245   21.1624 C   0  0  0  0  0  0  0  0  0  0  0  0
  -30.3733  -17.4399   20.6782 C   0  0  0  0  0  0  0  0  0  0  0  0
  -23.5543  -11.5760   25.8593 C   0  0  0  0  0  0  0  0  0  0  0  0
  -27.6527  -27.5814   20.4238 C   0  0  0  0  0  0  0  0  0  0  0  0
  -22.1583  -10.3306   27.2815 C   0  0  0  0  0  0  0  0  0  0  0  0
  -20.2226   -8.3475   27.6024 C   0  0  0  0  0  0  0  0  0  0  0  0
  -20.9180  -10.4590   26.6564 C   0  0  0  0  0  0  0  0  0  0  0  0
  -24.9023  -12.3929   21.9333 C   0  0  0  0  0  0  0  0  0  0  0  0
  -25.0172  -12.7966   19.7749 C   0  0  0  0  0  0  0  0  0  0  0  0
  -28.7504  -24.1961   20.8452 C   0  0  0  0  0  0  0  0  0  0  0  0
  -28.1116  -25.3588   20.9899 C   0  0  0  0  0  0  0  0  0  1  0  0
  -29.1698  -20.7338   22.0578 C   0  0  0  0  0  0  0  0  0  0  0  0
  -22.6894  -12.4691   20.6248 C   0  0  0  0  0  0  0  0  0  0  0  0
  -28.4232  -23.0759   21.7493 C   0  0  0  0  0  0  0  0  0  0  0  0
  -23.8179  -30.4802   22.9448 C   0  0  0  0  0  0  0  0  0  0  0  0
  -21.9827  -30.1706   20.2880 C   0  0  0  0  0  0  0  0  0  0  0  0
  -21.6367  -28.9062   17.1371 C   0  0  0  0  0  0  0  0  0  0  0  0
  -30.5261  -15.1110   19.7299 C   0  0  0  0  0  0  0  0  0  0  0  0
  -23.9734  -33.5118   27.0489 C   0  0  0  0  0  0  0  0  0  0  0  0
  -25.4243  -31.1939   21.1376 C   0  0  0  0  0  0  0  0  0  0  0  0
  -24.0200  -28.6892   20.4314 C   0  0  0  0  0  0  0  0  0  0  0  0
  -22.8949  -33.0525   26.0711 C   0  0  0  0  0  0  0  0  0  0  0  0
  -29.5512  -11.9099   18.5135 C   0  0  0  0  0  0  0  0  0  0  0  0
  -22.9444  -31.5382   25.8944 C   0  0  0  0  0  0  0  0  0  0  0  0
  -28.1739  -11.6871   19.1424 C   0  0  0  0  0  0  0  0  0  0  0  0
  -30.4975  -12.6404   19.4646 C   0  0  0  0  0  0  0  0  0  0  0  0
  -28.5982  -13.6747   20.6444 C   0  0  0  0  0  0  0  0  0  0  0  0
  -24.2906  -31.0948   25.3091 C   0  0  1  0  0  0  0  0  0  0  0  0
  -23.9690  -30.9521   21.5263 C   0  0  1  0  0  0  0  0  0  0  0  0
  -27.5900  -12.9999   19.7001 C   0  0  2  0  0  0  0  0  0  0  0  0
  -20.0104  -28.7879   15.2296 C   0  0  0  0  0  0  0  0  0  0  0  0
  -20.3579  -28.0813   21.8061 C   0  0  0  0  0  0  0  0  0  0  0  0
  -19.3998  -27.3365   19.6163 C   0  0  0  0  0  0  0  0  0  0  0  0
  -18.9962  -29.6611   20.4262 C   0  0  0  0  0  0  0  0  0  0  0  0
  -23.4999  -30.3021   15.3099 C   0  0  0  0  0  0  0  0  0  0  0  0
  -21.2952  -29.0211   19.5916 C   0  0  1  0  0  0  0  0  0  0  0  0
  -21.1787  -29.5469   15.8393 C   0  0  2  0  0  0  0  0  0  0  0  0
  -20.0404  -28.5252   20.3642 C   0  0  0  0  0  0  0  0  0  0  0  0
  -26.2077  -12.5340   21.6884 N   0  0  0  0  0  0  0  0  0  0  0  0
  -26.2455  -12.7785   20.3675 N   0  0  0  0  0  0  0  0  0  0  0  0
  -23.3139  -29.9581   20.6736 N   0  0  0  0  0  0  0  0  0  0  0  0
  -29.8792  -13.8764   19.9491 N   0  0  0  0  0  0  0  0  0  0  0  0
  -33.6910  -19.0107   21.1820 N   0  0  0  0  0  0  0  0  0  0  0  0
  -24.8737  -13.0283   18.4527 N   0  0  0  0  0  0  0  0  0  0  0  0
  -21.9089  -12.2040   21.7583 N   0  0  0  0  0  0  0  0  0  0  0  0
  -29.8280  -16.2202   20.2061 N   0  0  0  0  0  0  0  0  0  0  0  0
  -29.2186  -21.9172   21.4293 N   0  0  0  0  0  0  0  0  0  0  0  0
  -24.3322  -31.3521   23.8856 N   0  0  0  0  0  0  0  0  0  0  0  0
  -21.0199  -29.4733   18.2322 N   0  0  0  0  0  0  0  0  0  0  0  0
  -28.3644  -20.4655   23.0853 N   0  3  0  0  0  0  0  0  0  0  0  0
  -22.2933  -29.5675   14.8503 N   0  3  0  0  0  0  0  0  0  0  0  0
  -22.1274  -12.6143   19.5127 O   0  0  0  0  0  0  0  0  0  0  0  0
  -27.6030  -23.0910   22.6517 O   0  0  0  0  0  0  0  0  0  0  0  0
  -23.2737  -29.4055   23.1693 O   0  0  0  0  0  0  0  0  0  0  0  0
  -21.3638  -31.2208   20.4764 O   0  0  0  0  0  0  0  0  0  0  0  0
  -22.4566  -27.9914   17.1753 O   0  0  0  0  0  0  0  0  0  0  0  0
  -31.6059  -15.1816   19.1374 O   0  0  0  0  0  0  0  0  0  0  0  0
  -23.1205  -11.3138   27.1225 O   0  0  0  0  0  0  0  0  0  0  0  0
  -28.3592  -26.4414   20.1933 O   0  0  0  0  0  0  0  0  0  1  0  0
  -19.2939   -7.3945   27.7554 F   0  0  0  0  0  0  0  0  0  0  0  0
  -20.6508  -11.5322   25.8996 F   0  0  0  0  0  0  0  0  0  0  0  0
  1  2  1  0  0  0  0
  1  5  2  0  0  0  0
  2  6  2  0  0  0  0
  3  8  2  0  0  0  0
  3 18  1  0  0  0  0
  4  9  1  0  0  0  0
  4 18  2  0  0  0  0
  5 21  1  0  0  0  0
  6 23  1  0  0  0  0
  7 10  2  0  0  0  0
  7 22  1  0  0  0  0
  8 27  1  0  0  0  0
  9 27  2  0  0  0  0
 10 28  1  0  0  0  0
 11 12  2  0  0  0  0
 11 29  1  0  0  0  0
 12 30  1  0  0  0  0
 13 19  1  0  0  0  0
 13 25  2  0  0  0  0
 14 19  2  0  0  0  0
 14 26  1  0  0  0  0
 15 24  1  0  0  0  0
 15 28  2  0  0  0  0
 16 25  1  0  0  0  0
 16 26  2  0  0  0  0
 17 30  2  0  0  0  0
 17 31  1  0  0  0  0
 18 32  1  0  0  0  0
 19 36  1  0  0  0  0
 20 32  1  0  0  0  0
 20 33  2  0  0  0  0
 20 37  1  0  0  0  0
 21 23  2  0  0  0  0
 21 43  1  0  0  0  0
 22 24  2  0  0  0  0
 22 44  1  0  0  0  0
 23 52  1  0  0  0  0
 24 45  1  0  0  0  0
 25 67  1  0  0  0  0
 26 70  1  0  0  0  0
 27 82  1  0  0  0  0
 28 83  1  0  0  0  0
 29 31  2  0  0  0  0
 29 82  1  0  0  0  0
 30 84  1  0  0  0  0
 31 85  1  0  0  0  0
 32 63  2  0  0  0  0
 33 64  1  0  0  0  0
 33 68  1  0  0  0  0
 34 35  2  0  0  0  0
 34 38  1  0  0  0  0
 35 83  1  0  0  0  0
 36 71  1  0  0  0  0
 36 74  2  0  0  0  0
 37 69  1  0  0  0  0
 37 76  2  0  0  0  0
 38 71  1  0  0  0  0
 38 77  2  0  0  0  0
 39 53  1  0  0  0  0
 39 72  1  0  0  0  0
 39 78  2  0  0  0  0
 40 60  1  0  0  0  0
 40 65  1  0  0  0  0
 40 79  2  0  0  0  0
 41 61  1  0  0  0  0
 41 73  1  0  0  0  0
 41 80  2  0  0  0  0
 42 66  1  0  0  0  0
 42 70  1  0  0  0  0
 42 81  2  0  0  0  0
 43 46  1  0  0  0  0
 44 53  1  0  0  0  0
 45 65  1  0  0  0  0
 46 48  1  0  0  0  0
 47 49  1  0  0  0  0
 47 50  1  0  0  0  0
 48 52  1  0  0  0  0
 49 54  1  0  0  0  0
 50 66  1  0  0  0  0
 51 54  1  0  0  0  0
 51 66  1  0  0  0  0
 52 72  1  0  0  0  0
 53 65  1  0  0  0  0
 54 64  1  0  0  0  0
 55 61  1  0  0  0  0
 56 62  1  0  0  0  0
 57 62  1  0  0  0  0
 58 62  1  0  0  0  0
 59 75  1  0  0  0  0
 60 62  1  0  0  0  0
 60 73  1  0  0  0  0
 61 75  1  0  0  0  0
 63 64  1  0  0  0  0
M  CHG  2  74   1  75   1
M  ISO  4  35 101  42 100  70 100  83 101
M  END
> <Batch ID>
0088

> <Smiles>
CNC(C)C(=O)NC(C(=O)N1Cc2cc([101O:1][101CH:1]=CC(=O)NC(=N)c3cc(N)cc([100NH:0][100C:0](=O)N4CCCC(n5nc(-c6ccc(Oc7ccc(F)cc7F)cc6)c(C(N)=O)c5N)C4)c3)ccc2CC1C(=O)NC1CCCc2ccccc21)C(C)(C)C

> <Shape>
0.257

> <Color>
0.110

> <Negative vol penalty>
0.000

$$$$

  -OEChem-04052300233D

 85 93  0     1  0  0  0  0  0999 V2000
  -28.4399  -38.0850   16.0968 C   0  0  0  0  0  0  0  0  0  0  0  0
  -28.7603  -36.7314   16.0755 C   0  0  0  0  0  0  0  0  0  0  0  0
  -24.1663   -9.2921   22.5371 C   0  0  0  0  0  0  0  0  0  0  0  0
  -24.2691   -9.0949   20.1313 C   0  0  0  0  0  0  0  0  0  0  0  0
  -29.3186  -20.5746   18.8523 C   0  0  0  0  0  0  0  0  0  0  0  0
  -28.0121  -38.6803   17.2828 C   0  0  0  0  0  0  0  0  0  0  0  0
  -28.6542  -35.9725   17.2406 C   0  0  0  0  0  0  0  0  0  0  0  0
  -26.9955  -30.0926   17.6659 C   0  0  0  0  0  0  0  0  0  0  0  0
  -29.1626  -21.9589   18.7816 C   0  0  0  0  0  0  0  0  0  0  0  0
  -23.0741   -8.4249   22.5615 C   0  0  0  0  0  0  0  0  0  0  0  0
  -23.1769   -8.2277   20.1557 C   0  0  0  0  0  0  0  0  0  0  0  0
  -27.7337  -28.9163   17.7892 C   0  0  0  0  0  0  0  0  0  0  0  0
  -22.5340   -5.0930   22.3614 C   0  0  0  0  0  0  0  0  0  0  0  0
  -22.5321   -4.0797   23.3199 C   0  0  0  0  0  0  0  0  0  0  0  0
  -27.4330  -28.9855   20.1817 C   0  0  0  0  0  0  0  0  0  0  0  0
  -20.4842   -4.9625   24.2493 C   0  0  0  0  0  0  0  0  0  0  0  0
  -24.7638   -9.6272   21.3220 C   0  0  0  0  0  0  0  0  0  0  0  0
  -29.2613  -19.8060   17.6897 C   0  0  0  0  0  0  0  0  0  0  0  0
  -27.2538  -10.1784   21.3824 C   0  0  0  0  0  0  0  0  0  0  0  0
  -27.8914  -37.9262   18.4607 C   0  0  0  0  0  0  0  0  0  0  0  0
  -26.4789  -30.7311   18.8025 C   0  0  0  0  0  0  0  0  0  0  0  0
  -28.2257  -36.5586   18.4437 C   0  0  0  0  0  0  0  0  0  0  0  0
  -26.6864  -30.1684   20.0699 C   0  0  0  0  0  0  0  0  0  0  0  0
  -28.9492  -22.5746   17.5483 C   0  0  0  0  0  0  0  0  0  0  0  0
  -28.8918  -21.8060   16.3857 C   0  0  0  0  0  0  0  0  0  0  0  0
  -22.5794   -7.8926   21.3708 C   0  0  0  0  0  0  0  0  0  0  0  0
  -27.9550  -28.3641   19.0475 C   0  0  0  0  0  0  0  0  0  0  0  0
  -21.5110   -6.0412   22.3469 C   0  0  0  0  0  0  0  0  0  0  0  0
  -21.5072   -4.0144   24.2638 C   0  0  0  0  0  0  0  0  0  0  0  0
  -20.4861   -5.9759   23.2909 C   0  0  0  0  0  0  0  0  0  0  0  0
  -29.0479  -20.4217   16.4564 C   0  0  0  0  0  0  0  0  0  0  0  0
  -25.8917  -10.5234   21.2961 C   0  0  0  0  0  0  0  0  0  0  0  0
  -27.9173  -11.3789   21.3116 C   0  0  0  0  0  0  0  0  0  0  0  0
  -29.4283  -18.3397   17.7685 C   0  0  0  0  0  0  0  0  0  0  0  0
  -27.8647   -8.8880   21.5147 C   0  0  0  0  0  0  0  0  0  0  0  0
  -26.9030  -33.5701   20.1677 C   0  0  0  0  0  0  0  0  0  0  0  0
  -24.5056  -32.5613   22.1062 C   0  0  0  0  0  0  0  0  0  0  0  0
  -28.8301  -24.8728   18.5672 C   0  0  0  0  0  0  0  0  0  0  0  0
  -22.7789  -29.9465   23.4581 C   0  0  0  0  0  0  0  0  0  0  0  0
  -28.5540  -16.2116   18.7084 C   0  0  0  0  0  0  0  0  0  0  0  0
  -27.4702  -38.6242   19.7296 C   0  0  0  0  0  0  0  0  0  0  0  0
  -25.6620  -31.9849   18.6502 C   0  0  0  0  0  0  0  0  0  0  0  0
  -26.1360  -30.8040   21.3195 C   0  0  0  0  0  0  0  0  0  0  0  0
  -27.0259  -37.6670   20.8326 C   0  0  0  0  0  0  0  0  0  0  0  0
  -26.2344  -16.1145   21.6011 C   0  0  0  0  0  0  0  0  0  0  0  0
  -28.0187  -36.5176   20.9738 C   0  0  0  0  0  0  0  0  0  0  0  0
  -25.9974  -14.6136   21.7264 C   0  0  0  0  0  0  0  0  0  0  0  0
  -26.4766  -16.5424   20.1542 C   0  0  0  0  0  0  0  0  0  0  0  0
  -27.3401  -14.2744   19.6187 C   0  0  0  0  0  0  0  0  0  0  0  0
  -28.0997  -35.6966   19.6811 C   0  0  1  0  0  0  0  0  0  0  0  0
  -25.6198  -32.8285   19.9206 C   0  0  1  0  0  0  0  0  0  0  0  0
  -27.1491  -13.8332   21.0770 C   0  0  2  0  0  0  0  0  0  0  0  0
  -20.8969  -29.4347   25.0372 C   0  0  0  0  0  0  0  0  0  0  0  0
  -26.3251  -33.1881   24.4740 C   0  0  0  0  0  0  0  0  0  0  0  0
  -24.8139  -31.8039   25.9122 C   0  0  0  0  0  0  0  0  0  0  0  0
  -23.9347  -33.8514   24.7909 C   0  0  0  0  0  0  0  0  0  0  0  0
  -21.2096  -28.6058   21.3370 C   0  0  0  0  0  0  0  0  0  0  0  0
  -28.6214  -26.2954   18.0821 C   0  0  0  0  0  0  0  0  0  1  0  0
  -24.4315  -31.7959   23.4052 C   0  0  1  0  0  0  0  0  0  0  0  0
  -21.2896  -29.6830   23.5891 C   0  0  2  0  0  0  0  0  0  0  0  0
  -24.8884  -32.6487   24.6224 C   0  0  0  0  0  0  0  0  0  0  0  0
  -25.6997  -11.8400   21.1795 N   0  0  0  0  0  0  0  0  0  0  0  0
  -26.9499  -12.3329   21.1921 N   0  0  0  0  0  0  0  0  0  0  0  0
  -25.3492  -32.0321   21.1192 N   0  0  0  0  0  0  0  0  0  0  0  0
  -27.5106  -15.7267   19.5027 N   0  0  0  0  0  0  0  0  0  0  0  0
  -28.6772  -22.4116   15.1270 N   0  0  0  0  0  0  0  0  0  0  0  0
  -29.2279  -11.7010   21.3405 N   0  0  0  0  0  0  0  0  0  0  0  0
  -27.0360   -7.7592   21.5725 N   0  0  0  0  0  0  0  0  0  0  0  0
  -28.7952  -23.9805   17.5010 N   0  0  0  0  0  0  0  0  0  0  0  0
  -28.5527  -17.6452   18.5116 N   0  0  0  0  0  0  0  0  0  0  0  0
  -26.9575  -34.8148   19.5701 N   0  0  0  0  0  0  0  0  0  0  0  0
  -23.0653  -31.2944   23.5062 N   0  0  0  0  0  0  0  0  0  0  0  0
  -30.4452  -17.7979   17.0987 N   0  3  0  0  0  0  0  0  0  0  0  0
  -20.9022  -28.4891   22.7857 N   0  3  0  0  0  0  0  0  0  0  0  0
  -29.1079   -8.7418   21.5962 O   0  0  0  0  0  0  0  0  0  0  0  0
  -27.7781  -33.0521   20.8514 O   0  0  0  0  0  0  0  0  0  0  0  0
  -23.8341  -33.5870   21.9694 O   0  0  0  0  0  0  0  0  0  0  0  0
  -29.0005  -24.6174   19.7547 O   0  0  0  0  0  0  0  0  0  0  0  0
  -23.6058  -29.0464   23.3299 O   0  0  0  0  0  0  0  0  0  0  0  0
  -29.4152  -15.5272   18.1662 O   0  0  0  0  0  0  0  0  0  0  0  0
  -21.5138   -7.0462   21.3942 O   0  0  0  0  0  0  0  0  0  0  0  0
  -28.6757  -27.2164   19.1707 O   0  0  0  0  0  0  0  0  0  1  0  0
  -21.5048   -3.0403   25.1832 F   0  0  0  0  0  0  0  0  0  0  0  0
  -19.5000   -6.8833   23.2812 F   0  0  0  0  0  0  0  0  0  0  0  0
  -28.9936  -19.6804   15.3394 F   0  0  0  0  0  0  0  0  0  0  0  0
  1  2  1  0  0  0  0
  1  6  2  0  0  0  0
  2  7  2  0  0  0  0
  3 10  2  0  0  0  0
  3 17  1  0  0  0  0
  4 11  1  0  0  0  0
  4 17  2  0  0  0  0
  5  9  2  0  0  0  0
  5 18  1  0  0  0  0
  6 20  1  0  0  0  0
  7 22  1  0  0  0  0
  8 12  2  0  0  0  0
  8 21  1  0  0  0  0
  9 24  1  0  0  0  0
 10 26  1  0  0  0  0
 11 26  2  0  0  0  0
 12 27  1  0  0  0  0
 13 14  2  0  0  0  0
 13 28  1  0  0  0  0
 14 29  1  0  0  0  0
 15 23  1  0  0  0  0
 15 27  2  0  0  0  0
 16 29  2  0  0  0  0
 16 30  1  0  0  0  0
 17 32  1  0  0  0  0
 18 31  2  0  0  0  0
 18 34  1  0  0  0  0
 19 32  1  0  0  0  0
 19 33  2  0  0  0  0
 19 35  1  0  0  0  0
 20 22  2  0  0  0  0
 20 41  1  0  0  0  0
 21 23  2  0  0  0  0
 21 42  1  0  0  0  0
 22 50  1  0  0  0  0
 23 43  1  0  0  0  0
 24 25  2  0  0  0  0
 24 69  1  0  0  0  0
 25 31  1  0  0  0  0
 25 66  1  0  0  0  0
 26 81  1  0  0  0  0
 27 82  1  0  0  0  0
 28 30  2  0  0  0  0
 28 81  1  0  0  0  0
 29 83  1  0  0  0  0
 30 84  1  0  0  0  0
 31 85  1  0  0  0  0
 32 62  2  0  0  0  0
 33 63  1  0  0  0  0
 33 67  1  0  0  0  0
 34 70  1  0  0  0  0
 34 73  2  0  0  0  0
 35 68  1  0  0  0  0
 35 75  2  0  0  0  0
 36 51  1  0  0  0  0
 36 71  1  0  0  0  0
 36 76  2  0  0  0  0
 37 59  1  0  0  0  0
 37 64  1  0  0  0  0
 37 77  2  0  0  0  0
 38 58  1  0  0  0  0
 38 69  1  0  0  0  0
 38 78  2  0  0  0  0
 39 60  1  0  0  0  0
 39 72  1  0  0  0  0
 39 79  2  0  0  0  0
 40 65  1  0  0  0  0
 40 70  1  0  0  0  0
 40 80  2  0  0  0  0
 41 44  1  0  0  0  0
 42 51  1  0  0  0  0
 43 64  1  0  0  0  0
 44 46  1  0  0  0  0
 45 47  1  0  0  0  0
 45 48  1  0  0  0  0
 46 50  1  0  0  0  0
 47 52  1  0  0  0  0
 48 65  1  0  0  0  0
 49 52  1  0  0  0  0
 49 65  1  0  0  0  0
 50 71  1  0  0  0  0
 51 64  1  0  0  0  0
 52 63  1  0  0  0  0
 53 60  1  0  0  0  0
 54 61  1  0  0  0  0
 55 61  1  0  0  0  0
 56 61  1  0  0  0  0
 57 74  1  0  0  0  0
 58 82  1  0  0  0  0
 59 61  1  0  0  0  0
 59 72  1  0  0  0  0
 60 74  1  0  0  0  0
 62 63  1  0  0  0  0
M  CHG  2  73   1  74   1
M  ISO  4  40 100  58 101  70 100  82 101
M  END
> <Batch ID>
0088

> <Smiles>
CNC(C)C(=O)NC(C(=O)N1Cc2cc([101O:1][101CH2:1]C(=O)Nc3ccc(C(N)=[100N:0][100C:0](=O)N4CCCC(n5nc(-c6ccc(Oc7ccc(F)cc7F)cc6)c(C(N)=O)c5N)C4)c(F)c3N)ccc2CC1C(=O)NC1CCCc2ccccc21)C(C)(C)C

> <Shape>
0.237

> <Color>
0.088

> <Negative vol penalty>
0.000

$$$$

  -OEChem-04052300233D

 86 95  0     1  0  0  0  0  0999 V2000
  -26.8643  -37.7673   21.8606 C   0  0  0  0  0  0  0  0  0  0  0  0
  -27.4967  -36.5751   21.5226 C   0  0  0  0  0  0  0  0  0  0  0  0
  -23.7095   -8.8729   20.1942 C   0  0  0  0  0  0  0  0  0  0  0  0
  -23.3177  -10.5130   21.9244 C   0  0  0  0  0  0  0  0  0  0  0  0
  -25.7736  -37.7547   22.7290 C   0  0  0  0  0  0  0  0  0  0  0  0
  -27.0393  -35.3696   22.0536 C   0  0  0  0  0  0  0  0  0  0  0  0
  -26.9931  -29.9081   19.2832 C   0  0  0  0  0  0  0  0  0  0  0  0
  -23.0041   -7.9239   20.9340 C   0  0  0  0  0  0  0  0  0  0  0  0
  -22.6123   -9.5639   22.6642 C   0  0  0  0  0  0  0  0  0  0  0  0
  -27.8563  -28.8153   19.3498 C   0  0  0  0  0  0  0  0  0  0  0  0
  -19.7719   -7.1524   21.5590 C   0  0  0  0  0  0  0  0  0  0  0  0
  -18.8442   -6.3611   20.8817 C   0  0  0  0  0  0  0  0  0  0  0  0
  -26.4210  -27.7896   20.9952 C   0  0  0  0  0  0  0  0  0  0  0  0
  -27.8758  -20.0840   19.2566 C   0  0  0  0  0  0  0  0  0  0  0  0
  -30.0580  -18.4826   19.9322 C   0  0  0  0  0  0  0  0  0  0  0  0
  -20.0668   -4.3785   21.5232 C   0  0  0  0  0  0  0  0  0  0  0  0
  -23.8663  -10.1675   20.6894 C   0  0  0  0  0  0  0  0  0  0  0  0
  -24.0749  -12.0367   18.9660 C   0  0  0  0  0  0  0  0  0  0  0  0
  -25.2966  -36.5474   23.2634 C   0  0  0  0  0  0  0  0  0  0  0  0
  -25.8412  -29.9550   20.0815 C   0  0  0  0  0  0  0  0  0  0  0  0
  -25.9420  -35.3410   22.9311 C   0  0  0  0  0  0  0  0  0  0  0  0
  -25.5436  -28.8830   20.9350 C   0  0  0  0  0  0  0  0  0  0  0  0
  -29.0376  -20.6661   19.7638 C   0  0  0  0  0  0  0  0  0  0  0  0
  -27.8052  -18.7012   19.0873 C   0  0  0  0  0  0  0  0  0  0  0  0
  -28.8963  -17.9006   19.4251 C   0  0  0  0  0  0  0  0  0  0  0  0
  -22.4555   -8.2694   22.1690 C   0  0  0  0  0  0  0  0  0  0  0  0
  -27.5718  -27.7571   20.2080 C   0  0  0  0  0  0  0  0  0  0  0  0
  -20.8472   -6.5567   22.2184 C   0  0  0  0  0  0  0  0  0  0  0  0
  -18.9916   -4.9742   20.8638 C   0  0  0  0  0  0  0  0  0  0  0  0
  -30.1287  -19.8654   20.1015 C   0  0  0  0  0  0  0  0  0  0  0  0
  -20.9946   -5.1698   22.2005 C   0  0  0  0  0  0  0  0  0  0  0  0
  -24.5954  -11.1481   19.9258 C   0  0  0  0  0  0  0  0  0  0  0  0
  -25.1646  -12.7531   18.5348 C   0  0  0  0  0  0  0  0  0  0  0  0
  -28.6483  -24.3417   19.9907 C   0  0  0  0  0  0  0  0  0  0  0  0
  -28.0943  -23.0057   19.6442 C   0  0  0  0  0  0  0  0  0  0  0  0
  -27.9147  -25.4568   19.9591 C   0  0  0  0  0  0  0  0  0  1  0  0
  -22.7270  -12.2000   18.5054 C   0  0  0  0  0  0  0  0  0  0  0  0
  -24.7838  -31.8752   22.3833 C   0  0  0  0  0  0  0  0  0  0  0  0
  -22.1069  -30.0605   22.1313 C   0  0  0  0  0  0  0  0  0  0  0  0
  -20.6958  -27.0899   21.2200 C   0  0  0  0  0  0  0  0  0  0  0  0
  -29.8544  -15.5745   19.5586 C   0  0  0  0  0  0  0  0  0  0  0  0
  -24.1440  -36.5889   24.2352 C   0  0  0  0  0  0  0  0  0  0  0  0
  -24.9063  -31.1288   19.9783 C   0  0  0  0  0  0  0  0  0  0  0  0
  -24.3092  -28.8755   21.7979 C   0  0  0  0  0  0  0  0  0  0  0  0
  -30.0794  -24.2211   20.3822 C   0  0  0  0  0  0  0  0  0  0  0  0
  -23.4872  -35.2293   24.4596 C   0  0  0  0  0  0  0  0  0  0  0  0
  -30.1097  -12.0301   19.3380 C   0  0  0  0  0  0  0  0  0  0  0  0
  -24.5466  -34.1563   24.6904 C   0  0  0  0  0  0  0  0  0  0  0  0
  -28.6550  -11.5577   19.3923 C   0  0  0  0  0  0  0  0  0  0  0  0
  -30.2716  -22.7209   20.5319 C   0  0  0  0  0  0  0  0  0  0  0  0
  -30.3482  -13.2373   20.2432 C   0  0  0  0  0  0  0  0  0  0  0  0
  -27.9791  -13.8935   20.0811 C   0  0  0  0  0  0  0  0  0  0  0  0
  -25.4597  -34.0105   23.4671 C   0  0  1  0  0  0  0  0  0  0  0  0
  -24.0304  -31.3054   21.2148 C   0  0  1  0  0  0  0  0  0  0  0  0
  -27.6753  -12.7196   19.1359 C   0  0  2  0  0  0  0  0  0  0  0  0
  -18.4928  -25.8891   21.1684 C   0  0  0  0  0  0  0  0  0  0  0  0
  -22.3029  -29.5769   25.1376 C   0  0  0  0  0  0  0  0  0  0  0  0
  -20.7064  -27.6679   24.8641 C   0  0  0  0  0  0  0  0  0  0  0  0
  -19.9839  -29.9869   24.2959 C   0  0  0  0  0  0  0  0  0  0  0  0
  -20.7751  -26.8293   18.2730 C   0  0  0  0  0  0  0  0  0  0  0  0
  -21.6125  -28.7891   22.7778 C   0  0  1  0  0  0  0  0  0  0  0  0
  -19.4609  -26.7720   20.3963 C   0  0  2  0  0  0  0  0  0  0  0  0
  -21.1758  -29.0059   24.2542 C   0  0  0  0  0  0  0  0  0  0  0  0
  -25.9132  -11.2854   20.0947 N   0  0  0  0  0  0  0  0  0  0  0  0
  -26.2300  -12.2686   19.2351 N   0  0  0  0  0  0  0  0  0  0  0  0
  -29.1071  -22.0833   19.9377 N   0  0  0  0  0  0  0  0  0  0  0  0
  -23.4295  -30.0486   21.6660 N   0  0  0  0  0  0  0  0  0  0  0  0
  -29.3863  -14.2994   19.9403 N   0  0  0  0  0  0  0  0  0  0  0  0
  -26.6190  -18.1326   18.5715 N   0  0  0  0  0  0  0  0  0  0  0  0
  -25.3058  -13.7438   17.6287 N   0  0  0  0  0  0  0  0  0  0  0  0
  -21.7298  -11.3821   19.0539 N   0  0  0  0  0  0  0  0  0  0  0  0
  -28.8480  -16.4937   19.2637 N   0  0  0  0  0  0  0  0  0  0  0  0
  -24.7941  -33.2564   22.4265 N   0  0  0  0  0  0  0  0  0  0  0  0
  -20.5572  -28.2745   21.9119 N   0  0  0  0  0  0  0  0  0  0  0  0
  -19.8432  -26.0648   19.1414 N   0  3  0  0  0  0  0  0  0  0  0  0
  -26.9683  -22.8412   19.2049 O   0  0  0  0  0  0  0  0  0  0  0  0
  -22.4189  -13.0349   17.6214 O   0  0  0  0  0  0  0  0  0  0  0  0
  -25.3151  -31.1179   23.1869 O   0  0  0  0  0  0  0  0  0  0  0  0
  -21.3453  -31.0262   22.0361 O   0  0  0  0  0  0  0  0  0  0  0  0
  -21.6830  -26.3584   21.2499 O   0  0  0  0  0  0  0  0  0  0  0  0
  -31.0594  -15.8242   19.4716 O   0  0  0  0  0  0  0  0  0  0  0  0
  -21.7669   -7.3436   22.8911 O   0  0  0  0  0  0  0  0  0  0  0  0
  -28.4130  -26.6895   20.2754 O   0  0  0  0  0  0  0  0  0  1  0  0
  -18.0998   -4.2144   20.2146 F   0  0  0  0  0  0  0  0  0  0  0  0
  -31.2506  -20.4140   20.5892 F   0  0  0  0  0  0  0  0  0  0  0  0
  -22.0248   -4.5918   22.8332 F   0  0  0  0  0  0  0  0  0  0  0  0
  1  2  1  0  0  0  0
  1  5  2  0  0  0  0
  2  6  2  0  0  0  0
  3  8  2  0  0  0  0
  3 17  1  0  0  0  0
  4  9  1  0  0  0  0
  4 17  2  0  0  0  0
  5 19  1  0  0  0  0
  6 21  1  0  0  0  0
  7 10  2  0  0  0  0
  7 20  1  0  0  0  0
  8 26  1  0  0  0  0
  9 26  2  0  0  0  0
 10 27  1  0  0  0  0
 11 12  2  0  0  0  0
 11 28  1  0  0  0  0
 12 29  1  0  0  0  0
 13 22  1  0  0  0  0
 13 27  2  0  0  0  0
 14 23  1  0  0  0  0
 14 24  2  0  0  0  0
 15 25  2  0  0  0  0
 15 30  1  0  0  0  0
 16 29  2  0  0  0  0
 16 31  1  0  0  0  0
 17 32  1  0  0  0  0
 18 32  1  0  0  0  0
 18 33  2  0  0  0  0
 18 37  1  0  0  0  0
 19 21  2  0  0  0  0
 19 42  1  0  0  0  0
 20 22  2  0  0  0  0
 20 43  1  0  0  0  0
 21 53  1  0  0  0  0
 22 44  1  0  0  0  0
 23 30  2  0  0  0  0
 23 66  1  0  0  0  0
 24 25  1  0  0  0  0
 24 69  1  0  0  0  0
 25 72  1  0  0  0  0
 26 82  1  0  0  0  0
 27 83  1  0  0  0  0
 28 31  2  0  0  0  0
 28 82  1  0  0  0  0
 29 84  1  0  0  0  0
 30 85  1  0  0  0  0
 31 86  1  0  0  0  0
 32 64  2  0  0  0  0
 33 65  1  0  0  0  0
 33 70  1  0  0  0  0
 34 35  1  0  0  0  0
 34 36  2  0  0  0  0
 34 45  1  0  0  0  0
 35 66  1  0  0  0  0
 35 76  2  0  0  0  0
 36 83  1  0  0  0  0
 37 71  1  0  0  0  0
 37 77  2  0  0  0  0
 38 54  1  0  0  0  0
 38 73  1  0  0  0  0
 38 78  2  0  0  0  0
 39 61  1  0  0  0  0
 39 67  1  0  0  0  0
 39 79  2  0  0  0  0
 40 62  1  0  0  0  0
 40 74  1  0  0  0  0
 40 80  2  0  0  0  0
 41 68  1  0  0  0  0
 41 72  1  0  0  0  0
 41 81  2  0  0  0  0
 42 46  1  0  0  0  0
 43 54  1  0  0  0  0
 44 67  1  0  0  0  0
 45 50  1  0  0  0  0
 46 48  1  0  0  0  0
 47 49  1  0  0  0  0
 47 51  1  0  0  0  0
 48 53  1  0  0  0  0
 49 55  1  0  0  0  0
 50 66  1  0  0  0  0
 51 68  1  0  0  0  0
 52 55  1  0  0  0  0
 52 68  1  0  0  0  0
 53 73  1  0  0  0  0
 54 67  1  0  0  0  0
 55 65  1  0  0  0  0
 56 62  1  0  0  0  0
 57 63  1  0  0  0  0
 58 63  1  0  0  0  0
 59 63  1  0  0  0  0
 60 75  1  0  0  0  0
 61 63  1  0  0  0  0
 61 74  1  0  0  0  0
 62 75  1  0  0  0  0
 64 65  1  0  0  0  0
M  CHG  1  75   1
M  ISO  4  36 101  41 100  72 100  83 101
M  END
> <Batch ID>
0088

> <Smiles>
CNC(C)C(=O)NC(C(=O)N1Cc2cc([101O:1][101CH:1]=C3CCN(c4cc(N)c([100NH:0][100C:0](=O)N5CCCC(n6nc(-c7ccc(Oc8ccc(F)cc8F)cc7)c(C(N)=O)c6N)C5)cc4F)C3=O)ccc2CC1C(=O)NC1CCCc2ccccc21)C(C)(C)C

> <Shape>
0.354

> <Color>
0.103

> <Negative vol penalty>
0.000

$$$$

  -OEChem-04052300233D

 84 93  0     1  0  0  0  0  0999 V2000
  -29.5271  -31.7944   24.2193 C   0  0  0  0  0  0  0  0  0  0  0  0
  -29.1979  -30.5445   23.7046 C   0  0  0  0  0  0  0  0  0  0  0  0
  -29.3180  -18.4379   14.6791 C   0  0  0  0  0  0  0  0  0  0  0  0
  -23.0270  -10.2584   19.9289 C   0  0  0  0  0  0  0  0  0  0  0  0
  -23.9097   -9.6936   22.1058 C   0  0  0  0  0  0  0  0  0  0  0  0
  -28.5320  -32.6101   24.7562 C   0  0  0  0  0  0  0  0  0  0  0  0
  -27.8734  -30.1091   23.7276 C   0  0  0  0  0  0  0  0  0  0  0  0
  -26.4444  -28.0034   19.3494 C   0  0  0  0  0  0  0  0  0  0  0  0
  -28.8071  -19.6623   15.1094 C   0  0  0  0  0  0  0  0  0  0  0  0
  -29.3759  -17.3579   15.5599 C   0  0  0  0  0  0  0  0  0  0  0  0
  -22.2172   -9.1232   19.9627 C   0  0  0  0  0  0  0  0  0  0  0  0
  -23.0999   -8.5583   22.1396 C   0  0  0  0  0  0  0  0  0  0  0  0
  -26.8623  -26.6960   19.1053 C   0  0  0  0  0  0  0  0  0  0  0  0
  -19.8607   -7.8293   22.7694 C   0  0  0  0  0  0  0  0  0  0  0  0
  -19.1680   -7.5642   23.9507 C   0  0  0  0  0  0  0  0  0  0  0  0
  -24.6929  -25.8833   19.7781 C   0  0  0  0  0  0  0  0  0  0  0  0
  -28.4119  -18.7269   17.3017 C   0  0  0  0  0  0  0  0  0  0  0  0
  -20.3059   -5.4415   24.1415 C   0  0  0  0  0  0  0  0  0  0  0  0
  -23.8733  -10.5435   21.0004 C   0  0  0  0  0  0  0  0  0  0  0  0
  -24.3881  -13.0047   21.4312 C   0  0  0  0  0  0  0  0  0  0  0  0
  -27.1932  -32.1885   24.7770 C   0  0  0  0  0  0  0  0  0  0  0  0
  -25.1489  -28.2603   19.8208 C   0  0  0  0  0  0  0  0  0  0  0  0
  -26.8596  -30.9194   24.2665 C   0  0  0  0  0  0  0  0  0  0  0  0
  -24.2602  -27.1951   20.0249 C   0  0  0  0  0  0  0  0  0  0  0  0
  -28.3541  -19.8069   16.4207 C   0  0  0  0  0  0  0  0  0  0  0  0
  -28.9228  -17.5024   16.8713 C   0  0  0  0  0  0  0  0  0  0  0  0
  -22.2536   -8.2732   21.0681 C   0  0  0  0  0  0  0  0  0  0  0  0
  -25.9875  -25.6354   19.3224 C   0  0  0  0  0  0  0  0  0  0  0  0
  -20.7759   -6.9005   22.2740 C   0  0  0  0  0  0  0  0  0  0  0  0
  -19.3906   -6.3703   24.6367 C   0  0  0  0  0  0  0  0  0  0  0  0
  -20.9985   -5.7066   22.9601 C   0  0  0  0  0  0  0  0  0  0  0  0
  -24.7105  -11.7157   20.9658 C   0  0  0  0  0  0  0  0  0  0  0  0
  -25.5096  -13.7539   21.1717 C   0  0  0  0  0  0  0  0  0  0  0  0
  -27.2100  -22.8039   17.4702 C   0  0  0  0  0  0  0  0  0  0  0  0
  -27.6776  -22.2056   16.2193 C   0  0  0  0  0  0  0  0  0  0  0  0
  -26.7901  -24.0336   17.8188 C   0  0  0  0  0  0  0  0  0  1  0  0
  -23.1826  -13.4820   22.0434 C   0  0  0  0  0  0  0  0  0  0  0  0
  -23.9379  -29.5678   22.4528 C   0  0  0  0  0  0  0  0  0  0  0  0
  -21.1321  -29.2313   20.8601 C   0  0  0  0  0  0  0  0  0  0  0  0
  -19.3464  -27.6055   18.4487 C   0  0  0  0  0  0  0  0  0  0  0  0
  -29.4946  -15.1330   17.3753 C   0  0  0  0  0  0  0  0  0  0  0  0
  -26.1594  -33.0854   25.4106 C   0  0  0  0  0  0  0  0  0  0  0  0
  -24.7047  -29.6783   20.0537 C   0  0  0  0  0  0  0  0  0  0  0  0
  -22.8523  -27.4190   20.5110 C   0  0  0  0  0  0  0  0  0  0  0  0
  -27.4104  -21.4696   18.1516 C   0  0  0  0  0  0  0  0  0  0  0  0
  -24.7240  -32.7054   25.0565 C   0  0  0  0  0  0  0  0  0  0  0  0
  -30.1510  -12.3768   19.7382 C   0  0  0  0  0  0  0  0  0  0  0  0
  -24.5177  -31.2014   25.2055 C   0  0  0  0  0  0  0  0  0  0  0  0
  -28.7548  -12.0283   20.2511 C   0  0  0  0  0  0  0  0  0  0  0  0
  -30.1115  -12.9254   18.3149 C   0  0  0  0  0  0  0  0  0  0  0  0
  -27.7997  -13.7425   18.6590 C   0  0  0  0  0  0  0  0  0  0  0  0
  -25.4304  -30.4221   24.2510 C   0  0  1  0  0  0  0  0  0  0  0  0
  -23.5313  -29.7853   21.0228 C   0  0  1  0  0  0  0  0  0  0  0  0
  -27.8019  -13.2275   20.1063 C   0  0  1  0  0  0  0  0  0  0  0  0
  -17.0664  -27.5250   17.4035 C   0  0  0  0  0  0  0  0  0  0  0  0
  -20.0666  -27.7478   23.3043 C   0  0  0  0  0  0  0  0  0  0  0  0
  -18.1958  -26.8878   21.8801 C   0  0  0  0  0  0  0  0  0  0  0  0
  -18.4446  -29.3404   22.2616 C   0  0  0  0  0  0  0  0  0  0  0  0
  -28.7330  -16.6278   19.2070 C   0  0  0  0  0  0  0  0  0  0  0  0
  -20.4153  -28.3245   15.7842 C   0  0  0  0  0  0  0  0  0  0  0  0
  -20.0865  -28.1476   20.7537 C   0  0  1  0  0  0  0  0  0  0  0  0
  -18.4625  -28.1235   17.3285 C   0  0  2  0  0  0  0  0  0  0  0  0
  -19.2255  -28.0262   22.0426 C   0  0  0  0  0  0  0  0  0  0  0  0
  -25.9404  -11.6466   20.4497 N   0  0  0  0  0  0  0  0  0  0  0  0
  -26.4007  -12.9015   20.5891 N   0  0  0  0  0  0  0  0  0  0  0  0
  -27.8499  -21.0146   16.8444 N   0  0  0  0  0  0  0  0  0  0  0  0
  -22.4671  -28.8229   20.7303 N   0  0  0  0  0  0  0  0  0  0  0  0
  -29.1645  -14.0347   18.1945 N   0  0  0  0  0  0  0  0  0  0  0  0
  -25.8105  -15.0521   21.3873 N   0  0  0  0  0  0  0  0  0  0  0  0
  -22.1282  -12.5790   22.2359 N   0  0  0  0  0  0  0  0  0  0  0  0
  -24.8982  -30.4523   22.9055 N   0  0  0  0  0  0  0  0  0  0  0  0
  -19.3189  -28.4381   19.5475 N   0  0  0  0  0  0  0  0  0  0  0  0
  -28.9829  -16.3840   17.7826 N   0  0  0  0  0  0  0  0  0  0  0  0
  -19.0508  -27.7793   16.0032 N   0  3  0  0  0  0  0  0  0  0  0  0
  -27.8546  -22.6065   15.0878 O   0  0  0  0  0  0  0  0  0  0  0  0
  -23.0386  -14.6778   22.3939 O   0  0  0  0  0  0  0  0  0  0  0  0
  -23.4177  -28.6652   23.0983 O   0  0  0  0  0  0  0  0  0  0  0  0
  -20.7771  -30.3982   21.0443 O   0  0  0  0  0  0  0  0  0  0  0  0
  -19.9934  -26.5644   18.3594 O   0  0  0  0  0  0  0  0  0  0  0  0
  -30.2139  -15.0093   16.3768 O   0  0  0  0  0  0  0  0  0  0  0  0
  -21.4634   -7.1655   21.1015 O   0  0  0  0  0  0  0  0  0  0  0  0
  -26.3932  -24.3582   19.0856 O   0  0  0  0  0  0  0  0  0  1  0  0
  -18.7265   -6.1166   25.7720 F   0  0  0  0  0  0  0  0  0  0  0  0
  -21.8774   -4.8109   22.4898 F   0  0  0  0  0  0  0  0  0  0  0  0
  1  2  1  0  0  0  0
  1  6  2  0  0  0  0
  2  7  2  0  0  0  0
  3  9  2  0  0  0  0
  3 10  1  0  0  0  0
  4 11  2  0  0  0  0
  4 19  1  0  0  0  0
  5 12  1  0  0  0  0
  5 19  2  0  0  0  0
  6 21  1  0  0  0  0
  7 23  1  0  0  0  0
  8 13  2  0  0  0  0
  8 22  1  0  0  0  0
  9 25  1  0  0  0  0
 10 26  2  0  0  0  0
 11 27  1  0  0  0  0
 12 27  2  0  0  0  0
 13 28  1  0  0  0  0
 14 15  2  0  0  0  0
 14 29  1  0  0  0  0
 15 30  1  0  0  0  0
 16 24  1  0  0  0  0
 16 28  2  0  0  0  0
 17 25  2  0  0  0  0
 17 26  1  0  0  0  0
 18 30  2  0  0  0  0
 18 31  1  0  0  0  0
 19 32  1  0  0  0  0
 20 32  1  0  0  0  0
 20 33  2  0  0  0  0
 20 37  1  0  0  0  0
 21 23  2  0  0  0  0
 21 42  1  0  0  0  0
 22 24  2  0  0  0  0
 22 43  1  0  0  0  0
 23 52  1  0  0  0  0
 24 44  1  0  0  0  0
 25 66  1  0  0  0  0
 26 73  1  0  0  0  0
 27 81  1  0  0  0  0
 28 82  1  0  0  0  0
 29 31  2  0  0  0  0
 29 81  1  0  0  0  0
 30 83  1  0  0  0  0
 31 84  1  0  0  0  0
 32 64  2  0  0  0  0
 33 65  1  0  0  0  0
 33 69  1  0  0  0  0
 34 35  1  0  0  0  0
 34 36  2  0  0  0  0
 34 45  1  0  0  0  0
 35 66  1  0  0  0  0
 35 75  2  0  0  0  0
 36 82  1  0  0  0  0
 37 70  1  0  0  0  0
 37 76  2  0  0  0  0
 38 53  1  0  0  0  0
 38 71  1  0  0  0  0
 38 77  2  0  0  0  0
 39 61  1  0  0  0  0
 39 67  1  0  0  0  0
 39 78  2  0  0  0  0
 40 62  1  0  0  0  0
 40 72  1  0  0  0  0
 40 79  2  0  0  0  0
 41 68  1  0  0  0  0
 41 73  1  0  0  0  0
 41 80  2  0  0  0  0
 42 46  1  0  0  0  0
 43 53  1  0  0  0  0
 44 67  1  0  0  0  0
 45 66  1  0  0  0  0
 46 48  1  0  0  0  0
 47 49  1  0  0  0  0
 47 50  1  0  0  0  0
 48 52  1  0  0  0  0
 49 54  1  0  0  0  0
 50 68  1  0  0  0  0
 51 54  1  0  0  0  0
 51 68  1  0  0  0  0
 52 71  1  0  0  0  0
 53 67  1  0  0  0  0
 54 65  1  0  0  0  0
 55 62  1  0  0  0  0
 56 63  1  0  0  0  0
 57 63  1  0  0  0  0
 58 63  1  0  0  0  0
 59 73  1  0  0  0  0
 60 74  1  0  0  0  0
 61 63  1  0  0  0  0
 61 72  1  0  0  0  0
 62 74  1  0  0  0  0
 64 65  1  0  0  0  0
M  CHG  1  74   1
M  ISO  4  36 101  41 100  73 100  82 101
M  END
> <Batch ID>
0088

> <Smiles>
CNC(C)C(=O)NC(C(=O)N1Cc2cc([101O:1][101CH:1]=C3CN(c4cccc([100N:0](C)[100C:0](=O)N5CCCC(n6nc(-c7ccc(Oc8ccc(F)cc8F)cc7)c(C(N)=O)c6N)C5)c4)C3=O)ccc2CC1C(=O)NC1CCCc2ccccc21)C(C)(C)C

> <Shape>
0.300

> <Color>
0.148

> <Negative vol penalty>
0.000

$$$$

  -OEChem-04052300233D

 86 94  0     1  0  0  0  0  0999 V2000
  -20.1077  -22.7843   20.1197 C   0  0  0  0  0  0  0  0  0  0  0  0
  -21.4757  -22.5847   19.9646 C   0  0  0  0  0  0  0  0  0  0  0  0
  -33.7272  -24.8128   17.4009 C   0  0  0  0  0  0  0  0  0  0  0  0
  -23.7797  -30.3062   21.1583 C   0  0  0  0  0  0  0  0  0  0  0  0
  -25.8753  -30.5498   22.3358 C   0  0  0  0  0  0  0  0  0  0  0  0
  -34.3228  -23.6137   17.7920 C   0  0  0  0  0  0  0  0  0  0  0  0
  -19.3622  -21.9109   20.9105 C   0  0  0  0  0  0  0  0  0  0  0  0
  -22.0993  -21.5122   20.6013 C   0  0  0  0  0  0  0  0  0  0  0  0
  -26.8000  -18.2043   18.4877 C   0  0  0  0  0  0  0  0  0  0  0  0
  -32.3675  -25.0236   17.6301 C   0  0  0  0  0  0  0  0  0  0  0  0
  -23.1614  -31.1452   22.0852 C   0  0  0  0  0  0  0  0  0  0  0  0
  -25.2569  -31.3889   23.2627 C   0  0  0  0  0  0  0  0  0  0  0  0
  -28.1707  -18.2562   18.7371 C   0  0  0  0  0  0  0  0  0  0  0  0
  -24.2739  -34.6178   23.4298 C   0  0  0  0  0  0  0  0  0  0  0  0
  -24.9425  -35.7879   23.7896 C   0  0  0  0  0  0  0  0  0  0  0  0
  -32.1990  -22.8359   18.6414 C   0  0  0  0  0  0  0  0  0  0  0  0
  -27.9289  -16.5190   20.3933 C   0  0  0  0  0  0  0  0  0  0  0  0
  -24.9836  -35.0563   26.0918 C   0  0  0  0  0  0  0  0  0  0  0  0
  -25.1367  -30.0084   21.2836 C   0  0  0  0  0  0  0  0  0  0  0  0
  -33.5587  -22.6252   18.4122 C   0  0  0  0  0  0  0  0  0  0  0  0
  -26.4069  -29.5187   19.1262 C   0  0  0  0  0  0  0  0  0  0  0  0
  -19.9753  -20.8216   21.5494 C   0  0  0  0  0  0  0  0  0  0  0  0
  -25.9803  -17.3155   19.1981 C   0  0  0  0  0  0  0  0  0  0  0  0
  -21.3616  -20.6242   21.4025 C   0  0  0  0  0  0  0  0  0  0  0  0
  -26.5485  -16.4560   20.1492 C   0  0  0  0  0  0  0  0  0  0  0  0
  -31.6034  -24.0351   18.2503 C   0  0  0  0  0  0  0  0  0  0  0  0
  -23.8999  -31.6866   23.1374 C   0  0  0  0  0  0  0  0  0  0  0  0
  -28.7349  -17.4155   19.6921 C   0  0  0  0  0  0  0  0  0  0  0  0
  -23.9601  -33.6670   24.4009 C   0  0  0  0  0  0  0  0  0  0  0  0
  -25.2974  -36.0071   25.1206 C   0  0  0  0  0  0  0  0  0  0  0  0
  -24.3150  -33.8863   25.7320 C   0  0  0  0  0  0  0  0  0  0  0  0
  -25.7759  -29.1413   20.3267 C   0  0  0  0  0  0  0  0  0  0  0  0
  -26.8495  -28.3366   18.5846 C   0  0  0  0  0  0  0  0  0  0  0  0
  -34.1964  -21.3444   18.8296 C   0  0  0  0  0  0  0  0  0  0  0  0
  -26.5777  -30.8213   18.5519 C   0  0  0  0  0  0  0  0  0  0  0  0
  -33.2210  -19.2638   18.8850 C   0  0  0  0  0  0  0  0  0  0  0  0
  -32.2832  -18.3293   19.5949 C   0  0  0  0  0  0  0  0  0  0  0  0
  -23.5213  -17.6339   21.1869 C   0  0  0  0  0  0  0  0  0  0  0  0
  -23.4315  -14.3983   20.9733 C   0  0  0  0  0  0  0  0  0  0  0  0
  -25.0955  -11.4905   20.3234 C   0  0  0  0  0  0  0  0  0  0  0  0
  -29.3212  -23.3726   19.0865 C   0  0  0  0  0  0  0  0  0  0  0  0
  -19.1365  -19.9318   22.4323 C   0  0  0  0  0  0  0  0  0  0  0  0
  -24.5077  -17.2530   18.8983 C   0  0  0  0  0  0  0  0  0  0  0  0
  -25.7152  -15.4696   20.9246 C   0  0  0  0  0  0  0  0  0  0  0  0
  -19.8068  -18.6025   22.7699 C   0  0  0  0  0  0  0  0  0  0  0  0
  -25.8536  -23.5447   19.8760 C   0  0  0  0  0  0  0  0  0  0  0  0
  -21.2551  -18.8271   23.1926 C   0  0  0  0  0  0  0  0  0  0  0  0
  -25.5762  -25.0471   19.9649 C   0  0  0  0  0  0  0  0  0  0  0  0
  -27.2348  -23.1896   20.4238 C   0  0  0  0  0  0  0  0  0  0  0  0
  -28.0702  -25.4546   19.9325 C   0  0  0  0  0  0  0  0  0  0  0  0
  -22.0698  -19.4579   22.0569 C   0  0  1  0  0  0  0  0  0  0  0  0
  -23.6885  -16.6706   20.0459 C   0  0  1  0  0  0  0  0  0  0  0  0
  -26.7166  -25.8691   19.3329 C   0  0  2  0  0  0  0  0  0  0  0  0
  -35.1712  -18.0366   17.9390 C   0  0  0  0  0  0  0  0  0  0  0  0
  -24.7673   -9.0032   20.2679 C   0  0  0  0  0  0  0  0  0  0  0  0
  -23.5347  -14.3192   24.0217 C   0  0  0  0  0  0  0  0  0  0  0  0
  -24.1576  -11.8992   23.8684 C   0  0  0  0  0  0  0  0  0  0  0  0
  -21.9569  -12.6769   22.9884 C   0  0  0  0  0  0  0  0  0  0  0  0
  -25.7403  -11.3531   17.4382 C   0  0  0  0  0  0  0  0  0  0  0  0
  -33.8655  -18.7437   17.6237 C   0  0  0  0  0  0  0  0  0  0  0  0
  -30.8381  -18.4010   19.1811 C   0  0  0  0  0  0  0  0  0  1  0  0
  -24.0708  -13.2589   21.7295 C   0  0  1  0  0  0  0  0  0  0  0  0
  -24.7331  -10.2932   19.4633 C   0  0  2  0  0  0  0  0  0  0  0  0
  -23.4457  -13.0584   23.1389 C   0  0  0  0  0  0  0  0  0  0  0  0
  -25.8122  -27.8226   20.5359 N   0  0  0  0  0  0  0  0  0  0  0  0
  -33.3691  -20.4282   19.4328 N   0  0  0  0  0  0  0  0  0  0  0  0
  -26.4712  -27.3610   19.4594 N   0  0  0  0  0  0  0  0  0  0  0  0
  -24.2794  -15.4508   20.6000 N   0  0  0  0  0  0  0  0  0  0  0  0
  -28.2649  -24.0046   19.7761 N   0  0  0  0  0  0  0  0  0  0  0  0
  -27.5214  -28.0469   17.4502 N   0  0  0  0  0  0  0  0  0  0  0  0
  -26.0615  -31.9278   19.2401 N   0  0  0  0  0  0  0  0  0  0  0  0
  -30.2223  -24.2494   18.4833 N   0  0  0  0  0  0  0  0  0  0  0  0
  -22.4188  -18.4587   21.0699 N   0  0  0  0  0  0  0  0  0  0  0  0
  -23.9765  -12.0896   20.8622 N   0  0  0  0  0  0  0  0  0  0  0  0
  -25.6885  -10.1637   18.3268 N   0  3  0  0  0  0  0  0  0  0  0  0
  -35.3849  -21.1549   18.5916 O   0  0  0  0  0  0  0  0  0  0  0  0
  -27.1560  -30.9970   17.4527 O   0  0  0  0  0  0  0  0  0  0  0  0
  -32.7557  -17.5756   20.4315 O   0  0  0  0  0  0  0  0  0  0  0  0
  -24.3316  -17.6281   22.1062 O   0  0  0  0  0  0  0  0  0  0  0  0
  -22.2258  -14.3528   20.7168 O   0  0  0  0  0  0  0  0  0  0  0  0
  -26.2553  -11.8553   20.5025 O   0  0  0  0  0  0  0  0  0  0  0  0
  -29.4042  -22.1439   19.0119 O   0  0  0  0  0  0  0  0  0  0  0  0
  -23.2969  -32.5056   24.0420 O   0  0  0  0  0  0  0  0  0  0  0  0
  -30.0724  -17.4645   19.9381 O   0  0  0  0  0  0  0  0  0  1  0  0
  -25.9409  -37.1300   25.4658 F   0  0  0  0  0  0  0  0  0  0  0  0
  -24.0172  -32.9759   26.6692 F   0  0  0  0  0  0  0  0  0  0  0  0
  1  2  1  0  0  0  0
  1  7  2  0  0  0  0
  2  8  2  0  0  0  0
  3  6  2  0  0  0  0
  3 10  1  0  0  0  0
  4 11  2  0  0  0  0
  4 19  1  0  0  0  0
  5 12  1  0  0  0  0
  5 19  2  0  0  0  0
  6 20  1  0  0  0  0
  7 22  1  0  0  0  0
  8 24  1  0  0  0  0
  9 13  2  0  0  0  0
  9 23  1  0  0  0  0
 10 26  2  0  0  0  0
 11 27  1  0  0  0  0
 12 27  2  0  0  0  0
 13 28  1  0  0  0  0
 14 15  2  0  0  0  0
 14 29  1  0  0  0  0
 15 30  1  0  0  0  0
 16 20  2  0  0  0  0
 16 26  1  0  0  0  0
 17 25  1  0  0  0  0
 17 28  2  0  0  0  0
 18 30  2  0  0  0  0
 18 31  1  0  0  0  0
 19 32  1  0  0  0  0
 20 34  1  0  0  0  0
 21 32  1  0  0  0  0
 21 33  2  0  0  0  0
 21 35  1  0  0  0  0
 22 24  2  0  0  0  0
 22 42  1  0  0  0  0
 23 25  2  0  0  0  0
 23 43  1  0  0  0  0
 24 51  1  0  0  0  0
 25 44  1  0  0  0  0
 26 72  1  0  0  0  0
 27 83  1  0  0  0  0
 28 84  1  0  0  0  0
 29 31  2  0  0  0  0
 29 83  1  0  0  0  0
 30 85  1  0  0  0  0
 31 86  1  0  0  0  0
 32 65  2  0  0  0  0
 33 67  1  0  0  0  0
 33 70  1  0  0  0  0
 34 66  1  0  0  0  0
 34 76  2  0  0  0  0
 35 71  1  0  0  0  0
 35 77  2  0  0  0  0
 36 37  1  0  0  0  0
 36 60  1  0  0  0  0
 36 66  2  0  0  0  0
 37 61  1  0  0  0  0
 37 78  2  0  0  0  0
 38 52  1  0  0  0  0
 38 73  1  0  0  0  0
 38 79  2  0  0  0  0
 39 62  1  0  0  0  0
 39 68  1  0  0  0  0
 39 80  2  0  0  0  0
 40 63  1  0  0  0  0
 40 74  1  0  0  0  0
 40 81  2  0  0  0  0
 41 69  1  0  0  0  0
 41 72  1  0  0  0  0
 41 82  2  0  0  0  0
 42 45  1  0  0  0  0
 43 52  1  0  0  0  0
 44 68  1  0  0  0  0
 45 47  1  0  0  0  0
 46 48  1  0  0  0  0
 46 49  1  0  0  0  0
 47 51  1  0  0  0  0
 48 53  1  0  0  0  0
 49 69  1  0  0  0  0
 50 53  1  0  0  0  0
 50 69  1  0  0  0  0
 51 73  1  0  0  0  0
 52 68  1  0  0  0  0
 53 67  1  0  0  0  0
 54 60  1  0  0  0  0
 55 63  1  0  0  0  0
 56 64  1  0  0  0  0
 57 64  1  0  0  0  0
 58 64  1  0  0  0  0
 59 75  1  0  0  0  0
 61 84  1  0  0  0  0
 62 64  1  0  0  0  0
 62 74  1  0  0  0  0
 63 75  1  0  0  0  0
 65 67  1  0  0  0  0
M  CHG  1  75   1
M  ISO  4  41 100  61 101  72 100  84 101
M  END
> <Batch ID>
0088

> <Smiles>
C=CC(NC(=O)c1cccc([100NH:0][100C:0](=O)N2CCCC(n3nc(-c4ccc(Oc5ccc(F)cc5F)cc4)c(C(N)=O)c3N)C2)c1)C(=O)[101CH2:1][101O:1]c1ccc2c(c1)CN(C(=O)C(NC(=O)C(C)NC)C(C)(C)C)C(C(=O)NC1CCCc3ccccc31)C2

> <Shape>
0.202

> <Color>
0.086

> <Negative vol penalty>
0.000

$$$$

  -OEChem-04052300233D

 88 97  0     1  0  0  0  0  0999 V2000
  -29.9872  -36.1416   19.0611 C   0  0  0  0  0  0  0  0  0  0  0  0
  -30.2131  -34.7690   19.0784 C   0  0  0  0  0  0  0  0  0  0  0  0
  -23.3910   -9.7217   19.9084 C   0  0  0  0  0  0  0  0  0  0  0  0
  -23.9970   -9.8636   22.2428 C   0  0  0  0  0  0  0  0  0  0  0  0
  -29.0661  -36.7065   19.9423 C   0  0  0  0  0  0  0  0  0  0  0  0
  -29.5187  -33.9605   19.9777 C   0  0  0  0  0  0  0  0  0  0  0  0
  -27.5855  -28.2259   19.0382 C   0  0  0  0  0  0  0  0  0  0  0  0
  -29.7480  -19.7917   21.2068 C   0  0  0  0  0  0  0  0  0  0  0  0
  -29.6694  -18.4015   21.1249 C   0  0  0  0  0  0  0  0  0  0  0  0
  -22.7761   -8.4919   20.1427 C   0  0  0  0  0  0  0  0  0  0  0  0
  -23.3820   -8.6337   22.4772 C   0  0  0  0  0  0  0  0  0  0  0  0
  -28.1143  -26.9870   19.3979 C   0  0  0  0  0  0  0  0  0  0  0  0
  -20.2407   -7.4624   22.9025 C   0  0  0  0  0  0  0  0  0  0  0  0
  -19.4210   -7.3530   24.0257 C   0  0  0  0  0  0  0  0  0  0  0  0
  -26.6933  -26.9533   21.3470 C   0  0  0  0  0  0  0  0  0  0  0  0
  -30.6500  -18.2164   23.3252 C   0  0  0  0  0  0  0  0  0  0  0  0
  -20.8359   -5.5942   24.8871 C   0  0  0  0  0  0  0  0  0  0  0  0
  -24.0015  -10.4076   20.9584 C   0  0  0  0  0  0  0  0  0  0  0  0
  -24.0456  -12.9529   20.7932 C   0  0  0  0  0  0  0  0  0  0  0  0
  -28.3530  -35.9033   20.8462 C   0  0  0  0  0  0  0  0  0  0  0  0
  -26.6129  -28.8438   19.8373 C   0  0  0  0  0  0  0  0  0  0  0  0
  -28.5882  -34.5154   20.8727 C   0  0  0  0  0  0  0  0  0  0  0  0
  -26.1519  -28.1988   20.9938 C   0  0  0  0  0  0  0  0  0  0  0  0
  -30.2777  -20.3943   22.3479 C   0  0  0  0  0  0  0  0  0  0  0  0
  -30.1204  -17.6138   22.1841 C   0  0  0  0  0  0  0  0  0  0  0  0
  -22.7715   -7.9479   21.4271 C   0  0  0  0  0  0  0  0  0  0  0  0
  -27.6702  -26.3518   20.5540 C   0  0  0  0  0  0  0  0  0  0  0  0
  -21.3580   -6.6376   22.7715 C   0  0  0  0  0  0  0  0  0  0  0  0
  -19.7186   -6.4190   25.0180 C   0  0  0  0  0  0  0  0  0  0  0  0
  -30.7287  -19.6066   23.4071 C   0  0  0  0  0  0  0  0  0  0  0  0
  -21.6556   -5.7036   23.7638 C   0  0  0  0  0  0  0  0  0  0  0  0
  -24.6374  -11.6778   20.7169 C   0  0  0  0  0  0  0  0  0  0  0  0
  -25.0612  -13.8221   20.4777 C   0  0  0  0  0  0  0  0  0  0  0  0
  -29.8785  -23.9995   22.1181 C   0  0  0  0  0  0  0  0  0  0  0  0
  -31.0665  -23.9213   22.9791 C   0  0  0  0  0  0  0  0  0  0  0  0
  -29.4351  -22.6333   21.7739 C   0  0  0  0  0  0  0  0  0  0  0  0
  -29.2249  -15.7872   24.3134 C   0  0  0  0  0  0  0  0  0  0  0  0
  -29.2912  -25.1245   21.7103 C   0  0  0  0  0  0  0  0  0  1  0  0
  -29.8743  -15.3761   23.2221 C   0  0  0  0  0  0  0  0  0  0  0  0
  -22.6985  -13.3188   21.1202 C   0  0  0  0  0  0  0  0  0  0  0  0
  -26.4547  -31.5604   21.4803 C   0  0  0  0  0  0  0  0  0  0  0  0
  -23.3730  -30.6538   21.9312 C   0  0  0  0  0  0  0  0  0  0  0  0
  -21.0853  -28.1243   22.0526 C   0  0  0  0  0  0  0  0  0  0  0  0
  -30.2910  -15.5437   20.8506 C   0  0  0  0  0  0  0  0  0  0  0  0
  -27.4022  -36.5653   21.8118 C   0  0  0  0  0  0  0  0  0  0  0  0
  -26.0333  -30.1680   19.4212 C   0  0  0  0  0  0  0  0  0  0  0  0
  -25.0948  -28.8106   21.8751 C   0  0  0  0  0  0  0  0  0  0  0  0
  -31.4033  -22.4759   23.1984 C   0  0  0  0  0  0  0  0  0  0  0  0
  -26.4334  -35.5912   22.4771 C   0  0  0  0  0  0  0  0  0  0  0  0
  -29.6603  -12.9749   18.5720 C   0  0  0  0  0  0  0  0  0  0  0  0
  -27.1770  -34.3567   22.9772 C   0  0  0  0  0  0  0  0  0  0  0  0
  -28.2516  -12.5020   18.9297 C   0  0  0  0  0  0  0  0  0  0  0  0
  -30.4666  -13.2899   19.8267 C   0  0  0  0  0  0  0  0  0  0  0  0
  -28.4094  -13.8377   21.0881 C   0  0  0  0  0  0  0  0  0  0  0  0
  -27.8364  -33.6021   21.8165 C   0  0  1  0  0  0  0  0  0  0  0  0
  -25.4195  -30.9431   20.5831 C   0  0  1  0  0  0  0  0  0  0  0  0
  -27.5472  -13.5127   19.8518 C   0  0  2  0  0  0  0  0  0  0  0  0
  -18.6514  -27.6884   22.4811 C   0  0  0  0  0  0  0  0  0  0  0  0
  -23.8411  -30.9986   24.9265 C   0  0  0  0  0  0  0  0  0  0  0  0
  -21.7580  -29.6710   25.3342 C   0  0  0  0  0  0  0  0  0  0  0  0
  -21.6320  -31.8419   24.1120 C   0  0  0  0  0  0  0  0  0  0  0  0
  -20.6819  -27.0350   19.3305 C   0  0  0  0  0  0  0  0  0  0  0  0
  -22.6412  -29.8290   22.9623 C   0  0  1  0  0  0  0  0  0  0  0  0
  -19.7092  -27.9799   21.4281 C   0  0  2  0  0  0  0  0  0  0  0  0
  -22.4894  -30.5742   24.3184 C   0  0  0  0  0  0  0  0  0  0  0  0
  -25.9287  -11.7280   20.3792 N   0  0  0  0  0  0  0  0  0  0  0  0
  -26.1567  -13.0451   20.2404 N   0  0  0  0  0  0  0  0  0  0  0  0
  -30.3551  -21.7829   22.4269 N   0  0  0  0  0  0  0  0  0  0  0  0
  -24.5635  -30.1092   21.4293 N   0  0  0  0  0  0  0  0  0  0  0  0
  -29.7621  -14.2491   20.6781 N   0  0  0  0  0  0  0  0  0  0  0  0
  -25.1149  -15.1677   20.3827 N   0  0  0  0  0  0  0  0  0  0  0  0
  -21.7832  -12.3003   21.4189 N   0  0  0  0  0  0  0  0  0  0  0  0
  -26.8516  -32.8263   21.0936 N   0  0  0  0  0  0  0  0  0  0  0  0
  -21.3758  -29.4390   22.3499 N   0  0  0  0  0  0  0  0  0  0  0  0
  -30.0387  -16.1702   22.0987 N   0  0  0  0  0  0  0  0  0  0  0  0
  -19.7045  -26.8672   20.4366 N   0  3  0  0  0  0  0  0  0  0  0  0
  -31.6768  -24.8713   23.4383 O   0  0  0  0  0  0  0  0  0  0  0  0
  -28.4788  -22.3450   21.0756 O   0  0  0  0  0  0  0  0  0  0  0  0
  -22.3135  -14.5126   21.1307 O   0  0  0  0  0  0  0  0  0  0  0  0
  -26.8621  -30.9351   22.4522 O   0  0  0  0  0  0  0  0  0  0  0  0
  -22.9018  -31.7380   21.5787 O   0  0  0  0  0  0  0  0  0  0  0  0
  -21.8267  -27.1662   22.2597 O   0  0  0  0  0  0  0  0  0  0  0  0
  -30.9588  -16.0973   19.9675 O   0  0  0  0  0  0  0  0  0  0  0  0
  -22.1714   -6.7479   21.6562 O   0  0  0  0  0  0  0  0  0  0  0  0
  -28.1851  -25.1429   20.9078 O   0  0  0  0  0  0  0  0  0  1  0  0
  -18.9321   -6.3151   26.0973 F   0  0  0  0  0  0  0  0  0  0  0  0
  -31.2402  -20.1749   24.5085 F   0  0  0  0  0  0  0  0  0  0  0  0
  -22.7283   -4.9093   23.6441 F   0  0  0  0  0  0  0  0  0  0  0  0
  1  2  1  0  0  0  0
  1  5  2  0  0  0  0
  2  6  2  0  0  0  0
  3 10  2  0  0  0  0
  3 18  1  0  0  0  0
  4 11  1  0  0  0  0
  4 18  2  0  0  0  0
  5 20  1  0  0  0  0
  6 22  1  0  0  0  0
  7 12  2  0  0  0  0
  7 21  1  0  0  0  0
  8  9  2  0  0  0  0
  8 24  1  0  0  0  0
  9 25  1  0  0  0  0
 10 26  1  0  0  0  0
 11 26  2  0  0  0  0
 12 27  1  0  0  0  0
 13 14  2  0  0  0  0
 13 28  1  0  0  0  0
 14 29  1  0  0  0  0
 15 23  1  0  0  0  0
 15 27  2  0  0  0  0
 16 25  2  0  0  0  0
 16 30  1  0  0  0  0
 17 29  2  0  0  0  0
 17 31  1  0  0  0  0
 18 32  1  0  0  0  0
 19 32  1  0  0  0  0
 19 33  2  0  0  0  0
 19 40  1  0  0  0  0
 20 22  2  0  0  0  0
 20 45  1  0  0  0  0
 21 23  2  0  0  0  0
 21 46  1  0  0  0  0
 22 55  1  0  0  0  0
 23 47  1  0  0  0  0
 24 30  2  0  0  0  0
 24 68  1  0  0  0  0
 25 75  1  0  0  0  0
 26 84  1  0  0  0  0
 27 85  1  0  0  0  0
 28 31  2  0  0  0  0
 28 84  1  0  0  0  0
 29 86  1  0  0  0  0
 30 87  1  0  0  0  0
 31 88  1  0  0  0  0
 32 66  2  0  0  0  0
 33 67  1  0  0  0  0
 33 71  1  0  0  0  0
 34 35  1  0  0  0  0
 34 36  1  0  0  0  0
 34 38  2  0  0  0  0
 35 48  1  0  0  0  0
 35 77  2  0  0  0  0
 36 68  1  0  0  0  0
 36 78  2  0  0  0  0
 37 39  2  0  0  0  0
 38 85  1  0  0  0  0
 39 75  1  0  0  0  0
 40 72  1  0  0  0  0
 40 79  2  0  0  0  0
 41 56  1  0  0  0  0
 41 73  1  0  0  0  0
 41 80  2  0  0  0  0
 42 63  1  0  0  0  0
 42 69  1  0  0  0  0
 42 81  2  0  0  0  0
 43 64  1  0  0  0  0
 43 74  1  0  0  0  0
 43 82  2  0  0  0  0
 44 70  1  0  0  0  0
 44 75  1  0  0  0  0
 44 83  2  0  0  0  0
 45 49  1  0  0  0  0
 46 56  1  0  0  0  0
 47 69  1  0  0  0  0
 48 68  1  0  0  0  0
 49 51  1  0  0  0  0
 50 52  1  0  0  0  0
 50 53  1  0  0  0  0
 51 55  1  0  0  0  0
 52 57  1  0  0  0  0
 53 70  1  0  0  0  0
 54 57  1  0  0  0  0
 54 70  1  0  0  0  0
 55 73  1  0  0  0  0
 56 69  1  0  0  0  0
 57 67  1  0  0  0  0
 58 64  1  0  0  0  0
 59 65  1  0  0  0  0
 60 65  1  0  0  0  0
 61 65  1  0  0  0  0
 62 76  1  0  0  0  0
 63 65  1  0  0  0  0
 63 74  1  0  0  0  0
 64 76  1  0  0  0  0
 66 67  1  0  0  0  0
M  CHG  1  76   1
M  ISO  4  38 101  44 100  75 100  85 101
M  END
> <Batch ID>
0088

> <Smiles>
C=C[100N:0](c1ccc(N2CC(=O)C(=[101CH:1][101O:1]c3ccc4c(c3)CN(C(=O)C(NC(=O)C(C)NC)C(C)(C)C)C(C(=O)NC3CCCc5ccccc53)C4)C2=O)c(F)c1)[100C:0](=O)N1CCCC(n2nc(-c3ccc(Oc4ccc(F)cc4F)cc3)c(C(N)=O)c2N)C1

> <Shape>
0.341

> <Color>
0.196

> <Negative vol penalty>
0.000

$$$$

  -OEChem-04052300233D

 83 91  0     1  0  0  0  0  0999 V2000
  -32.1314  -34.7767   22.5567 C   0  0  0  0  0  0  0  0  0  0  0  0
  -31.8307  -33.4375   22.3299 C   0  0  0  0  0  0  0  0  0  0  0  0
  -23.8928   -9.7848   22.0273 C   0  0  0  0  0  0  0  0  0  0  0  0
  -24.4849  -11.2505   23.8545 C   0  0  0  0  0  0  0  0  0  0  0  0
  -28.7859  -20.5319   20.0759 C   0  0  0  0  0  0  0  0  0  0  0  0
  -31.3189  -35.5403   23.3938 C   0  0  0  0  0  0  0  0  0  0  0  0
  -30.7178  -32.8607   22.9409 C   0  0  0  0  0  0  0  0  0  0  0  0
  -28.0085  -30.0106   19.7501 C   0  0  0  0  0  0  0  0  0  0  0  0
  -28.4834  -19.1858   19.8702 C   0  0  0  0  0  0  0  0  0  0  0  0
  -23.4303   -8.8355   22.9387 C   0  0  0  0  0  0  0  0  0  0  0  0
  -24.0223  -10.3012   24.7658 C   0  0  0  0  0  0  0  0  0  0  0  0
  -28.4992  -28.7384   19.4594 C   0  0  0  0  0  0  0  0  0  0  0  0
  -20.6715   -8.3333   24.8279 C   0  0  0  0  0  0  0  0  0  0  0  0
  -19.4459   -7.7227   24.5621 C   0  0  0  0  0  0  0  0  0  0  0  0
  -26.9486  -27.7852   21.0426 C   0  0  0  0  0  0  0  0  0  0  0  0
  -30.8390  -18.6864   19.6740 C   0  0  0  0  0  0  0  0  0  0  0  0
  -20.5328   -5.5656   24.5059 C   0  0  0  0  0  0  0  0  0  0  0  0
  -24.4202  -10.9923   22.4852 C   0  0  0  0  0  0  0  0  0  0  0  0
  -30.1150  -20.9552   20.0804 C   0  0  0  0  0  0  0  0  0  0  0  0
  -24.1587  -13.0129   20.9502 C   0  0  0  0  0  0  0  0  0  0  0  0
  -30.1900  -34.9752   24.0078 C   0  0  0  0  0  0  0  0  0  0  0  0
  -26.9900  -30.1810   20.6988 C   0  0  0  0  0  0  0  0  0  0  0  0
  -29.8902  -33.6172   23.7881 C   0  0  0  0  0  0  0  0  0  0  0  0
  -26.4450  -29.0604   21.3417 C   0  0  0  0  0  0  0  0  0  0  0  0
  -29.5099  -18.2631   19.6693 C   0  0  0  0  0  0  0  0  0  0  0  0
  -23.4951   -9.0937   24.3079 C   0  0  0  0  0  0  0  0  0  0  0  0
  -27.9712  -27.6257   20.1078 C   0  0  0  0  0  0  0  0  0  0  0  0
  -21.8278   -7.5601   24.9327 C   0  0  0  0  0  0  0  0  0  0  0  0
  -19.3765   -6.3388   24.4011 C   0  0  0  0  0  0  0  0  0  0  0  0
  -31.1415  -20.0325   19.8795 C   0  0  0  0  0  0  0  0  0  0  0  0
  -21.7584   -6.1763   24.7717 C   0  0  0  0  0  0  0  0  0  0  0  0
  -24.8986  -11.9731   21.5443 C   0  0  0  0  0  0  0  0  0  0  0  0
  -25.0618  -13.6581   20.1411 C   0  0  0  0  0  0  0  0  0  0  0  0
  -29.5549  -24.4749   20.6759 C   0  0  0  0  0  0  0  0  0  0  0  0
  -30.4335  -22.3963   20.2979 C   0  0  0  0  0  0  0  0  0  0  0  0
  -22.7784  -13.3643   21.1150 C   0  0  0  0  0  0  0  0  0  0  0  0
  -26.7476  -31.6981   23.4815 C   0  0  0  0  0  0  0  0  0  0  0  0
  -23.6334  -30.8217   23.2445 C   0  0  0  0  0  0  0  0  0  0  0  0
  -21.3176  -28.6792   21.9432 C   0  0  0  0  0  0  0  0  0  0  0  0
  -30.1008  -15.8511   19.2458 C   0  0  0  0  0  0  0  0  0  0  0  0
  -29.3686  -35.8279   24.9420 C   0  0  0  0  0  0  0  0  0  0  0  0
  -26.4533  -31.5574   20.9816 C   0  0  0  0  0  0  0  0  0  0  0  0
  -25.3366  -29.1876   22.3534 C   0  0  0  0  0  0  0  0  0  0  0  0
  -27.9949  -35.2399   25.2541 C   0  0  0  0  0  0  0  0  0  0  0  0
  -29.7420  -12.3468   18.7278 C   0  0  0  0  0  0  0  0  0  0  0  0
  -28.1137  -33.7581   25.5963 C   0  0  0  0  0  0  0  0  0  0  0  0
  -28.3891  -12.0227   19.3655 C   0  0  0  0  0  0  0  0  0  0  0  0
  -30.4998  -13.4133   19.5165 C   0  0  0  0  0  0  0  0  0  0  0  0
  -28.3931  -14.3226   20.4132 C   0  0  0  0  0  0  0  0  0  0  0  0
  -28.6776  -32.9622   24.4132 C   0  0  1  0  0  0  0  0  0  0  0  0
  -25.7697  -31.6644   22.3412 C   0  0  1  0  0  0  0  0  0  0  0  0
  -27.5646  -13.3002   19.6181 C   0  0  2  0  0  0  0  0  0  0  0  0
  -18.8560  -28.1918   21.9602 C   0  0  0  0  0  0  0  0  0  0  0  0
  -23.9001  -29.5844   26.0208 C   0  0  0  0  0  0  0  0  0  0  0  0
  -21.7809  -28.3240   25.5863 C   0  0  0  0  0  0  0  0  0  0  0  0
  -21.7601  -30.8181   25.6296 C   0  0  0  0  0  0  0  0  0  0  0  0
  -21.0895  -29.1341   19.0277 C   0  0  0  0  0  0  0  0  0  0  0  0
  -28.4047  -25.4171   20.8760 C   0  0  0  0  0  0  0  0  0  1  0  0
  -22.8250  -29.6213   23.6737 C   0  0  1  0  0  0  0  0  0  0  0  0
  -19.9858  -28.9298   21.2590 C   0  0  2  0  0  0  0  0  0  0  0  0
  -22.5887  -29.5844   25.2100 C   0  0  0  0  0  0  0  0  0  0  0  0
  -26.1735  -11.9549   21.1465 N   0  0  0  0  0  0  0  0  0  0  0  0
  -29.3410  -23.2164   20.4829 N   0  0  0  0  0  0  0  0  0  0  0  0
  -26.2417  -12.9912   20.2936 N   0  0  0  0  0  0  0  0  0  0  0  0
  -24.8498  -30.5549   22.6003 N   0  0  0  0  0  0  0  0  0  0  0  0
  -29.6582  -14.5956   19.7135 N   0  0  0  0  0  0  0  0  0  0  0  0
  -24.9537  -14.7251   19.3212 N   0  0  0  0  0  0  0  0  0  0  0  0
  -21.9927  -12.5960   21.9849 N   0  0  0  0  0  0  0  0  0  0  0  0
  -29.2024  -16.8958   19.4605 N   0  0  0  0  0  0  0  0  0  0  0  0
  -27.6511  -32.7417   23.4171 N   0  0  0  0  0  0  0  0  0  0  0  0
  -21.6003  -29.6493   22.8814 N   0  0  0  0  0  0  0  0  0  0  0  0
  -20.0375  -28.4724   19.8416 N   0  3  0  0  0  0  0  0  0  0  0  0
  -31.6103  -22.7475   20.2969 O   0  0  0  0  0  0  0  0  0  0  0  0
  -22.2533  -14.3208   20.4963 O   0  0  0  0  0  0  0  0  0  0  0  0
  -26.6860  -30.8417   24.3558 O   0  0  0  0  0  0  0  0  0  0  0  0
  -23.1982  -31.9545   23.4660 O   0  0  0  0  0  0  0  0  0  0  0  0
  -22.0336  -27.7170   21.6750 O   0  0  0  0  0  0  0  0  0  0  0  0
  -31.1843  -15.9844   18.6711 O   0  0  0  0  0  0  0  0  0  0  0  0
  -23.0436   -8.1677   25.1975 O   0  0  0  0  0  0  0  0  0  0  0  0
  -28.4487  -26.3829   19.8263 O   0  0  0  0  0  0  0  0  0  1  0  0
  -18.1993   -5.7524   24.1473 F   0  0  0  0  0  0  0  0  0  0  0  0
  -32.4226  -20.4281   19.8815 F   0  0  0  0  0  0  0  0  0  0  0  0
  -22.8656   -5.4281   24.8724 F   0  0  0  0  0  0  0  0  0  0  0  0
  1  2  1  0  0  0  0
  1  6  2  0  0  0  0
  2  7  2  0  0  0  0
  3 10  2  0  0  0  0
  3 18  1  0  0  0  0
  4 11  1  0  0  0  0
  4 18  2  0  0  0  0
  5  9  2  0  0  0  0
  5 19  1  0  0  0  0
  6 21  1  0  0  0  0
  7 23  1  0  0  0  0
  8 12  2  0  0  0  0
  8 22  1  0  0  0  0
  9 25  1  0  0  0  0
 10 26  1  0  0  0  0
 11 26  2  0  0  0  0
 12 27  1  0  0  0  0
 13 14  2  0  0  0  0
 13 28  1  0  0  0  0
 14 29  1  0  0  0  0
 15 24  1  0  0  0  0
 15 27  2  0  0  0  0
 16 25  2  0  0  0  0
 16 30  1  0  0  0  0
 17 29  2  0  0  0  0
 17 31  1  0  0  0  0
 18 32  1  0  0  0  0
 19 30  2  0  0  0  0
 19 35  1  0  0  0  0
 20 32  1  0  0  0  0
 20 33  2  0  0  0  0
 20 36  1  0  0  0  0
 21 23  2  0  0  0  0
 21 41  1  0  0  0  0
 22 24  2  0  0  0  0
 22 42  1  0  0  0  0
 23 50  1  0  0  0  0
 24 43  1  0  0  0  0
 25 69  1  0  0  0  0
 26 79  1  0  0  0  0
 27 80  1  0  0  0  0
 28 31  2  0  0  0  0
 28 79  1  0  0  0  0
 29 81  1  0  0  0  0
 30 82  1  0  0  0  0
 31 83  1  0  0  0  0
 32 62  2  0  0  0  0
 33 64  1  0  0  0  0
 33 67  1  0  0  0  0
 34 58  1  0  0  0  0
 34 63  2  0  0  0  0
 35 63  1  0  0  0  0
 35 73  2  0  0  0  0
 36 68  1  0  0  0  0
 36 74  2  0  0  0  0
 37 51  1  0  0  0  0
 37 70  1  0  0  0  0
 37 75  2  0  0  0  0
 38 59  1  0  0  0  0
 38 65  1  0  0  0  0
 38 76  2  0  0  0  0
 39 60  1  0  0  0  0
 39 71  1  0  0  0  0
 39 77  2  0  0  0  0
 40 66  1  0  0  0  0
 40 69  1  0  0  0  0
 40 78  2  0  0  0  0
 41 44  1  0  0  0  0
 42 51  1  0  0  0  0
 43 65  1  0  0  0  0
 44 46  1  0  0  0  0
 45 47  1  0  0  0  0
 45 48  1  0  0  0  0
 46 50  1  0  0  0  0
 47 52  1  0  0  0  0
 48 66  1  0  0  0  0
 49 52  1  0  0  0  0
 49 66  1  0  0  0  0
 50 70  1  0  0  0  0
 51 65  1  0  0  0  0
 52 64  1  0  0  0  0
 53 60  1  0  0  0  0
 54 61  1  0  0  0  0
 55 61  1  0  0  0  0
 56 61  1  0  0  0  0
 57 72  1  0  0  0  0
 58 80  1  0  0  0  0
 59 61  1  0  0  0  0
 59 71  1  0  0  0  0
 60 72  1  0  0  0  0
 62 64  1  0  0  0  0
M  CHG  1  72   1
M  ISO  4  40 100  58 101  69 100  80 101
M  END
> <Batch ID>
0088

> <Smiles>
CNC(C)C(=O)NC(C(=O)N1Cc2cc([101O:1][101CH:1]=CNC(=O)c3ccc([100NH:0][100C:0](=O)N4CCCC(n5nc(-c6ccc(Oc7ccc(F)cc7F)cc6)c(C(N)=O)c5N)C4)cc3F)ccc2CC1C(=O)NC1CCCc2ccccc21)C(C)(C)C

> <Shape>
0.303

> <Color>
0.144

> <Negative vol penalty>
0.000

$$$$

  -OEChem-04052300233D

 87 96  0     1  0  0  0  0  0999 V2000
  -25.6586  -36.2426   15.9361 C   0  0  0  0  0  0  0  0  0  0  0  0
  -25.8434  -34.8638   15.9268 C   0  0  0  0  0  0  0  0  0  0  0  0
  -24.1629   -8.9827   21.4458 C   0  0  0  0  0  0  0  0  0  0  0  0
  -24.5295  -10.2753   23.4537 C   0  0  0  0  0  0  0  0  0  0  0  0
  -25.8776  -36.9662   17.1076 C   0  0  0  0  0  0  0  0  0  0  0  0
  -26.2485  -34.2079   17.0887 C   0  0  0  0  0  0  0  0  0  0  0  0
  -24.6088  -28.5954   18.9100 C   0  0  0  0  0  0  0  0  0  0  0  0
  -23.7419   -7.9008   22.2191 C   0  0  0  0  0  0  0  0  0  0  0  0
  -24.1085   -9.1935   24.2270 C   0  0  0  0  0  0  0  0  0  0  0  0
  -25.2408  -27.3563   18.8147 C   0  0  0  0  0  0  0  0  0  0  0  0
  -20.9478   -6.9596   23.8743 C   0  0  0  0  0  0  0  0  0  0  0  0
  -19.7965   -6.2834   23.4708 C   0  0  0  0  0  0  0  0  0  0  0  0
  -26.1046  -27.6317   21.0501 C   0  0  0  0  0  0  0  0  0  0  0  0
  -27.8968  -20.2528   19.3116 C   0  0  0  0  0  0  0  0  0  0  0  0
  -30.2818  -20.2027   19.6935 C   0  0  0  0  0  0  0  0  0  0  0  0
  -21.0729   -4.2446   23.2451 C   0  0  0  0  0  0  0  0  0  0  0  0
  -24.5567  -10.1699   22.0631 C   0  0  0  0  0  0  0  0  0  0  0  0
  -24.1931  -12.3231   20.7443 C   0  0  0  0  0  0  0  0  0  0  0  0
  -26.2761  -36.3176   18.2870 C   0  0  0  0  0  0  0  0  0  0  0  0
  -24.7291  -29.3681   20.0739 C   0  0  0  0  0  0  0  0  0  0  0  0
  -26.4743  -34.9237   18.2767 C   0  0  0  0  0  0  0  0  0  0  0  0
  -25.4710  -28.8791   21.1586 C   0  0  0  0  0  0  0  0  0  0  0  0
  -29.1193  -20.9178   19.4055 C   0  0  0  0  0  0  0  0  0  0  0  0
  -27.8367  -18.8728   19.5058 C   0  0  0  0  0  0  0  0  0  0  0  0
  -30.2217  -18.8227   19.8877 C   0  0  0  0  0  0  0  0  0  0  0  0
  -28.9991  -18.1578   19.7938 C   0  0  0  0  0  0  0  0  0  0  0  0
  -23.7147   -8.0062   23.6097 C   0  0  0  0  0  0  0  0  0  0  0  0
  -25.9912  -26.8756   19.8837 C   0  0  0  0  0  0  0  0  0  0  0  0
  -22.1618   -6.2783   23.9631 C   0  0  0  0  0  0  0  0  0  0  0  0
  -19.8590   -4.9260   23.1563 C   0  0  0  0  0  0  0  0  0  0  0  0
  -22.2243   -4.9208   23.6486 C   0  0  0  0  0  0  0  0  0  0  0  0
  -24.9922  -11.2876   21.2648 C   0  0  0  0  0  0  0  0  0  0  0  0
  -25.0744  -13.1289   20.0657 C   0  0  0  0  0  0  0  0  0  0  0  0
  -28.5846  -24.5049   19.1692 C   0  0  0  0  0  0  0  0  0  0  0  0
  -29.9552  -24.4089   18.6482 C   0  0  0  0  0  0  0  0  0  0  0  0
  -28.1024  -23.1548   19.5243 C   0  0  0  0  0  0  0  0  0  0  0  0
  -27.8845  -25.6315   19.3018 C   0  0  0  0  0  0  0  0  0  1  0  0
  -22.7805  -12.5375   20.8636 C   0  0  0  0  0  0  0  0  0  0  0  0
  -25.9270  -32.2337   20.7501 C   0  0  0  0  0  0  0  0  0  0  0  0
  -24.6620  -31.6410   23.6777 C   0  0  0  0  0  0  0  0  0  0  0  0
  -23.6084  -29.3393   25.9666 C   0  0  0  0  0  0  0  0  0  0  0  0
  -29.9361  -15.8206   19.7170 C   0  0  0  0  0  0  0  0  0  0  0  0
  -26.5464  -37.1482   19.5166 C   0  0  0  0  0  0  0  0  0  0  0  0
  -24.0192  -30.6906   20.1710 C   0  0  0  0  0  0  0  0  0  0  0  0
  -25.6146  -29.6608   22.4380 C   0  0  0  0  0  0  0  0  0  0  0  0
  -30.3723  -22.9679   18.6635 C   0  0  0  0  0  0  0  0  0  0  0  0
  -26.6117  -36.3288   20.8029 C   0  0  0  0  0  0  0  0  0  0  0  0
  -29.9179  -12.3802   18.8000 C   0  0  0  0  0  0  0  0  0  0  0  0
  -27.4780  -35.0893   20.6028 C   0  0  0  0  0  0  0  0  0  0  0  0
  -28.5691  -11.8745   19.3167 C   0  0  0  0  0  0  0  0  0  0  0  0
  -30.5370  -13.4095   19.7440 C   0  0  0  0  0  0  0  0  0  0  0  0
  -28.3153  -14.0327   20.6069 C   0  0  0  0  0  0  0  0  0  0  0  0
  -26.8891  -34.1730   19.5235 C   0  0  1  0  0  0  0  0  0  0  0  0
  -24.6333  -31.6235   21.2103 C   0  0  1  0  0  0  0  0  0  0  0  0
  -27.6223  -13.0420   19.6572 C   0  0  2  0  0  0  0  0  0  0  0  0
  -22.6603  -29.1559   28.2828 C   0  0  0  0  0  0  0  0  0  0  0  0
  -27.4168  -32.2314   24.8494 C   0  0  0  0  0  0  0  0  0  0  0  0
  -26.6728  -31.1317   26.9720 C   0  0  0  0  0  0  0  0  0  0  0  0
  -25.5039  -33.1777   26.1532 C   0  0  0  0  0  0  0  0  0  0  0  0
  -21.1438  -28.0315   24.9795 C   0  0  0  0  0  0  0  0  0  0  0  0
  -25.1578  -30.9847   24.9436 C   0  0  1  0  0  0  0  0  0  0  0  0
  -22.3418  -29.2534   26.7990 C   0  0  2  0  0  0  0  0  0  0  0  0
  -26.1869  -31.8673   25.7049 C   0  0  0  0  0  0  0  0  0  0  0  0
  -26.2820  -11.4208   20.9442 N   0  0  0  0  0  0  0  0  0  0  0  0
  -26.3000  -12.5494   20.2148 N   0  0  0  0  0  0  0  0  0  0  0  0
  -29.1795  -22.2959   19.2113 N   0  0  0  0  0  0  0  0  0  0  0  0
  -24.9069  -30.9511   22.4819 N   0  0  0  0  0  0  0  0  0  0  0  0
  -29.5845  -14.4877   20.0179 N   0  0  0  0  0  0  0  0  0  0  0  0
  -26.5864  -18.2214   19.4064 N   0  0  0  0  0  0  0  0  0  0  0  0
  -31.4130  -18.1201   20.1786 N   0  0  0  0  0  0  0  0  0  0  0  0
  -24.9128  -14.2694   19.3618 N   0  0  0  0  0  0  0  0  0  0  0  0
  -22.0239  -11.6128   21.5962 N   0  0  0  0  0  0  0  0  0  0  0  0
  -28.9384  -16.7558   19.9900 N   0  0  0  0  0  0  0  0  0  0  0  0
  -25.7745  -33.4180   20.0547 N   0  0  0  0  0  0  0  0  0  0  0  0
  -23.9700  -30.6470   25.7205 N   0  0  0  0  0  0  0  0  0  0  0  0
  -21.5463  -28.0549   26.4094 N   0  3  0  0  0  0  0  0  0  0  0  0
  -30.6390  -25.3432   18.2670 O   0  0  0  0  0  0  0  0  0  0  0  0
  -27.0071  -22.8833   19.9843 O   0  0  0  0  0  0  0  0  0  0  0  0
  -22.2037  -13.5112   20.3225 O   0  0  0  0  0  0  0  0  0  0  0  0
  -26.9853  -31.6724   21.0082 O   0  0  0  0  0  0  0  0  0  0  0  0
  -24.0727  -32.7224   23.7480 O   0  0  0  0  0  0  0  0  0  0  0  0
  -24.2182  -28.3459   25.5771 O   0  0  0  0  0  0  0  0  0  0  0  0
  -31.0308  -16.1079   19.2259 O   0  0  0  0  0  0  0  0  0  0  0  0
  -23.3038   -6.9509   24.3646 O   0  0  0  0  0  0  0  0  0  0  0  0
  -26.6097  -25.6668   19.7931 O   0  0  0  0  0  0  0  0  0  1  0  0
  -18.7530   -4.2764   22.7703 F   0  0  0  0  0  0  0  0  0  0  0  0
  -23.3874   -4.2607   23.7332 F   0  0  0  0  0  0  0  0  0  0  0  0
  1  2  1  0  0  0  0
  1  5  2  0  0  0  0
  2  6  2  0  0  0  0
  3  8  2  0  0  0  0
  3 17  1  0  0  0  0
  4  9  1  0  0  0  0
  4 17  2  0  0  0  0
  5 19  1  0  0  0  0
  6 21  1  0  0  0  0
  7 10  2  0  0  0  0
  7 20  1  0  0  0  0
  8 27  1  0  0  0  0
  9 27  2  0  0  0  0
 10 28  1  0  0  0  0
 11 12  2  0  0  0  0
 11 29  1  0  0  0  0
 12 30  1  0  0  0  0
 13 22  1  0  0  0  0
 13 28  2  0  0  0  0
 14 23  1  0  0  0  0
 14 24  2  0  0  0  0
 15 23  2  0  0  0  0
 15 25  1  0  0  0  0
 16 30  2  0  0  0  0
 16 31  1  0  0  0  0
 17 32  1  0  0  0  0
 18 32  1  0  0  0  0
 18 33  2  0  0  0  0
 18 38  1  0  0  0  0
 19 21  2  0  0  0  0
 19 43  1  0  0  0  0
 20 22  2  0  0  0  0
 20 44  1  0  0  0  0
 21 53  1  0  0  0  0
 22 45  1  0  0  0  0
 23 66  1  0  0  0  0
 24 26  1  0  0  0  0
 24 69  1  0  0  0  0
 25 26  2  0  0  0  0
 25 70  1  0  0  0  0
 26 73  1  0  0  0  0
 27 84  1  0  0  0  0
 28 85  1  0  0  0  0
 29 31  2  0  0  0  0
 29 84  1  0  0  0  0
 30 86  1  0  0  0  0
 31 87  1  0  0  0  0
 32 64  2  0  0  0  0
 33 65  1  0  0  0  0
 33 71  1  0  0  0  0
 34 35  1  0  0  0  0
 34 36  1  0  0  0  0
 34 37  2  0  0  0  0
 35 46  1  0  0  0  0
 35 77  2  0  0  0  0
 36 66  1  0  0  0  0
 36 78  2  0  0  0  0
 37 85  1  0  0  0  0
 38 72  1  0  0  0  0
 38 79  2  0  0  0  0
 39 54  1  0  0  0  0
 39 74  1  0  0  0  0
 39 80  2  0  0  0  0
 40 61  1  0  0  0  0
 40 67  1  0  0  0  0
 40 81  2  0  0  0  0
 41 62  1  0  0  0  0
 41 75  1  0  0  0  0
 41 82  2  0  0  0  0
 42 68  1  0  0  0  0
 42 73  1  0  0  0  0
 42 83  2  0  0  0  0
 43 47  1  0  0  0  0
 44 54  1  0  0  0  0
 45 67  1  0  0  0  0
 46 66  1  0  0  0  0
 47 49  1  0  0  0  0
 48 50  1  0  0  0  0
 48 51  1  0  0  0  0
 49 53  1  0  0  0  0
 50 55  1  0  0  0  0
 51 68  1  0  0  0  0
 52 55  1  0  0  0  0
 52 68  1  0  0  0  0
 53 74  1  0  0  0  0
 54 67  1  0  0  0  0
 55 65  1  0  0  0  0
 56 62  1  0  0  0  0
 57 63  1  0  0  0  0
 58 63  1  0  0  0  0
 59 63  1  0  0  0  0
 60 76  1  0  0  0  0
 61 63  1  0  0  0  0
 61 75  1  0  0  0  0
 62 76  1  0  0  0  0
 64 65  1  0  0  0  0
M  CHG  1  76   1
M  ISO  4  37 101  42 100  73 100  85 101
M  END
> <Batch ID>
0088

> <Smiles>
CNC(C)C(=O)NC(C(=O)N1Cc2cc([101O:1][101CH:1]=C3C(=O)CN(c4cc(N)c([100NH:0][100C:0](=O)N5CCCC(n6nc(-c7ccc(Oc8ccc(F)cc8F)cc7)c(C(N)=O)c6N)C5)c(N)c4)C3=O)ccc2CC1C(=O)NC1CCCc2ccccc21)C(C)(C)C

> <Shape>
0.335

> <Color>
0.124

> <Negative vol penalty>
0.000

$$$$

  -OEChem-04052300233D

 83 91  0     1  0  0  0  0  0999 V2000
  -31.2918  -30.7376   14.0565 C   0  0  0  0  0  0  0  0  0  0  0  0
  -30.8076  -29.5082   14.4916 C   0  0  0  0  0  0  0  0  0  0  0  0
  -22.9058  -10.0199   20.0012 C   0  0  0  0  0  0  0  0  0  0  0  0
  -23.6699  -10.0168   22.2932 C   0  0  0  0  0  0  0  0  0  0  0  0
  -29.0872  -17.4973   22.1098 C   0  0  0  0  0  0  0  0  0  0  0  0
  -31.4300  -31.7905   14.9599 C   0  0  0  0  0  0  0  0  0  0  0  0
  -30.4622  -29.3306   15.8309 C   0  0  0  0  0  0  0  0  0  0  0  0
  -25.9173  -25.8660   18.0325 C   0  0  0  0  0  0  0  0  0  0  0  0
  -28.4421  -18.6400   21.6368 C   0  0  0  0  0  0  0  0  0  0  0  0
  -22.0998   -8.9133   20.2684 C   0  0  0  0  0  0  0  0  0  0  0  0
  -22.8638   -8.9102   22.5604 C   0  0  0  0  0  0  0  0  0  0  0  0
  -25.8945  -24.5804   18.5714 C   0  0  0  0  0  0  0  0  0  0  0  0
  -22.9692   -5.5698   22.0496 C   0  0  0  0  0  0  0  0  0  0  0  0
  -23.5286   -4.5221   22.7810 C   0  0  0  0  0  0  0  0  0  0  0  0
  -29.4928  -16.7853   19.8370 C   0  0  0  0  0  0  0  0  0  0  0  0
  -26.0131  -25.5157   20.7919 C   0  0  0  0  0  0  0  0  0  0  0  0
  -21.8430   -4.8135   24.4873 C   0  0  0  0  0  0  0  0  0  0  0  0
  -23.6909  -10.5716   21.0136 C   0  0  0  0  0  0  0  0  0  0  0  0
  -29.6126  -16.5700   21.2100 C   0  0  0  0  0  0  0  0  0  0  0  0
  -24.1717  -13.0720   20.8575 C   0  0  0  0  0  0  0  0  0  0  0  0
  -31.0770  -31.6286   16.3089 C   0  0  0  0  0  0  0  0  0  0  0  0
  -25.9994  -26.9876   18.8702 C   0  0  0  0  0  0  0  0  0  0  0  0
  -30.5970  -30.3819   16.7535 C   0  0  0  0  0  0  0  0  0  0  0  0
  -26.0342  -26.8145   20.2612 C   0  0  0  0  0  0  0  0  0  0  0  0
  -28.3223  -18.8553   20.2638 C   0  0  0  0  0  0  0  0  0  0  0  0
  -28.8476  -17.9280   19.3639 C   0  0  0  0  0  0  0  0  0  0  0  0
  -22.0788   -8.3585   21.5480 C   0  0  0  0  0  0  0  0  0  0  0  0
  -25.9453  -24.4049   19.9512 C   0  0  0  0  0  0  0  0  0  0  0  0
  -21.8468   -6.2394   22.5370 C   0  0  0  0  0  0  0  0  0  0  0  0
  -22.9655   -4.1439   23.9999 C   0  0  0  0  0  0  0  0  0  0  0  0
  -21.2837   -5.8613   23.7558 C   0  0  0  0  0  0  0  0  0  0  0  0
  -24.5242  -11.7144   20.7381 C   0  0  0  0  0  0  0  0  0  0  0  0
  -25.3029  -13.7547   20.4823 C   0  0  0  0  0  0  0  0  0  0  0  0
  -30.2854  -15.3790   21.7038 C   0  0  0  0  0  0  0  0  0  0  0  0
  -22.9327  -13.6632   21.2709 C   0  0  0  0  0  0  0  0  0  0  0  0
  -30.8546  -14.3745   20.7763 C   0  0  0  0  0  0  0  0  0  0  0  0
  -28.0988  -29.3407   19.2691 C   0  0  0  0  0  0  0  0  0  0  0  0
  -25.8352  -30.4940   21.2860 C   0  0  0  0  0  0  0  0  0  0  0  0
  -27.0963  -21.0307   20.5779 C   0  0  0  0  0  0  0  0  0  0  0  0
  -23.1590  -29.8576   23.3059 C   0  0  0  0  0  0  0  0  0  0  0  0
  -31.2884  -32.7816   17.2580 C   0  0  0  0  0  0  0  0  0  0  0  0
  -25.9961  -28.3687   18.2743 C   0  0  0  0  0  0  0  0  0  0  0  0
  -26.1023  -27.9865   21.2047 C   0  0  0  0  0  0  0  0  0  0  0  0
  -30.5468  -32.6237   18.5829 C   0  0  0  0  0  0  0  0  0  0  0  0
  -29.5558  -12.1468   18.2848 C   0  0  0  0  0  0  0  0  0  0  0  0
  -30.7509  -31.2204   19.1450 C   0  0  0  0  0  0  0  0  0  0  0  0
  -28.1131  -11.9172   18.7340 C   0  0  0  0  0  0  0  0  0  0  0  0
  -30.4921  -12.3130   19.4773 C   0  0  0  0  0  0  0  0  0  0  0  0
  -28.6323  -13.1690   20.8762 C   0  0  0  0  0  0  0  0  0  0  0  0
  -30.1883  -30.1577   18.1933 C   0  0  1  0  0  0  0  0  0  0  0  0
  -26.6000  -29.4203   19.1999 C   0  0  1  0  0  0  0  0  0  0  0  0
  -27.6524  -13.0243   19.6988 C   0  0  2  0  0  0  0  0  0  0  0  0
  -21.5441  -30.9959   24.8531 C   0  0  0  0  0  0  0  0  0  0  0  0
  -28.0032  -30.6546   23.4269 C   0  0  0  0  0  0  0  0  0  0  0  0
  -26.1939  -30.8698   25.1440 C   0  0  0  0  0  0  0  0  0  0  0  0
  -26.4434  -32.6088   23.3730 C   0  0  0  0  0  0  0  0  0  0  0  0
  -20.8379  -29.0796   21.6429 C   0  0  0  0  0  0  0  0  0  0  0  0
  -26.4915  -22.1047   19.6930 C   0  0  0  0  0  0  0  0  0  1  0  0
  -25.5309  -30.3332   22.7558 C   0  0  1  0  0  0  0  0  0  0  0  0
  -21.8056  -30.5343   23.4278 C   0  0  2  0  0  0  0  0  0  0  0  0
  -26.5435  -31.0942   23.6574 C   0  0  0  0  0  0  0  0  0  0  0  0
  -25.7809  -11.5428   20.3194 N   0  0  0  0  0  0  0  0  0  0  0  0
  -30.4353  -15.1151   22.9737 N   0  0  0  0  0  0  0  0  0  0  0  0
  -26.2280  -12.8016   20.1725 N   0  0  0  0  0  0  0  0  0  0  0  0
  -30.0068  -13.3456   20.3906 N   0  0  0  0  0  0  0  0  0  0  0  0
  -26.1031  -29.3166   20.5734 N   0  0  0  0  0  0  0  0  0  0  0  0
  -28.7389  -18.1260   17.9692 N   0  0  0  0  0  0  0  0  0  0  0  0
  -25.5866  -15.0714   20.3902 N   0  0  0  0  0  0  0  0  0  0  0  0
  -21.8727  -12.8163   21.6223 N   0  0  0  0  0  0  0  0  0  0  0  0
  -27.6649  -20.0223   19.8073 N   0  0  0  0  0  0  0  0  0  0  0  0
  -28.7471  -30.0903   18.3061 N   0  0  0  0  0  0  0  0  0  0  0  0
  -24.1436  -30.7482   22.9333 N   0  0  0  0  0  0  0  0  0  0  0  0
  -20.7191  -29.5945   23.0313 N   0  3  0  0  0  0  0  0  0  0  0  0
  -22.7650  -14.9057   21.3112 O   0  0  0  0  0  0  0  0  0  0  0  0
  -32.0190  -14.5602   20.4476 O   0  0  0  0  0  0  0  0  0  0  0  0
  -28.6280  -28.6514   20.1331 O   0  0  0  0  0  0  0  0  0  0  0  0
  -25.8281  -31.6220   20.7868 O   0  0  0  0  0  0  0  0  0  0  0  0
  -27.0527  -21.1065   21.8014 O   0  0  0  0  0  0  0  0  0  0  0  0
  -23.3268  -28.6597   23.5234 O   0  0  0  0  0  0  0  0  0  0  0  0
  -21.2922   -7.2788   21.8092 O   0  0  0  0  0  0  0  0  0  0  0  0
  -25.9238  -23.1512   20.4798 O   0  0  0  0  0  0  0  0  0  1  0  0
  -23.5018   -3.1368   24.7015 F   0  0  0  0  0  0  0  0  0  0  0  0
  -20.2047   -6.5000   24.2286 F   0  0  0  0  0  0  0  0  0  0  0  0
  1  2  1  0  0  0  0
  1  6  2  0  0  0  0
  2  7  2  0  0  0  0
  3 10  2  0  0  0  0
  3 18  1  0  0  0  0
  4 11  1  0  0  0  0
  4 18  2  0  0  0  0
  5  9  2  0  0  0  0
  5 19  1  0  0  0  0
  6 21  1  0  0  0  0
  7 23  1  0  0  0  0
  8 12  2  0  0  0  0
  8 22  1  0  0  0  0
  9 25  1  0  0  0  0
 10 27  1  0  0  0  0
 11 27  2  0  0  0  0
 12 28  1  0  0  0  0
 13 14  2  0  0  0  0
 13 29  1  0  0  0  0
 14 30  1  0  0  0  0
 15 19  2  0  0  0  0
 15 26  1  0  0  0  0
 16 24  1  0  0  0  0
 16 28  2  0  0  0  0
 17 30  2  0  0  0  0
 17 31  1  0  0  0  0
 18 32  1  0  0  0  0
 19 34  1  0  0  0  0
 20 32  1  0  0  0  0
 20 33  2  0  0  0  0
 20 35  1  0  0  0  0
 21 23  2  0  0  0  0
 21 41  1  0  0  0  0
 22 24  2  0  0  0  0
 22 42  1  0  0  0  0
 23 50  1  0  0  0  0
 24 43  1  0  0  0  0
 25 26  2  0  0  0  0
 25 70  1  0  0  0  0
 26 67  1  0  0  0  0
 27 80  1  0  0  0  0
 28 81  1  0  0  0  0
 29 31  2  0  0  0  0
 29 80  1  0  0  0  0
 30 82  1  0  0  0  0
 31 83  1  0  0  0  0
 32 62  2  0  0  0  0
 33 64  1  0  0  0  0
 33 68  1  0  0  0  0
 34 36  1  0  0  0  0
 34 63  2  0  0  0  0
 35 69  1  0  0  0  0
 35 74  2  0  0  0  0
 36 65  1  0  0  0  0
 36 75  2  0  0  0  0
 37 51  1  0  0  0  0
 37 71  1  0  0  0  0
 37 76  2  0  0  0  0
 38 59  1  0  0  0  0
 38 66  1  0  0  0  0
 38 77  2  0  0  0  0
 39 58  1  0  0  0  0
 39 70  1  0  0  0  0
 39 78  2  0  0  0  0
 40 60  1  0  0  0  0
 40 72  1  0  0  0  0
 40 79  2  0  0  0  0
 41 44  1  0  0  0  0
 42 51  1  0  0  0  0
 43 66  1  0  0  0  0
 44 46  1  0  0  0  0
 45 47  1  0  0  0  0
 45 48  1  0  0  0  0
 46 50  1  0  0  0  0
 47 52  1  0  0  0  0
 48 65  1  0  0  0  0
 49 52  1  0  0  0  0
 49 65  1  0  0  0  0
 50 71  1  0  0  0  0
 51 66  1  0  0  0  0
 52 64  1  0  0  0  0
 53 60  1  0  0  0  0
 54 61  1  0  0  0  0
 55 61  1  0  0  0  0
 56 61  1  0  0  0  0
 57 73  1  0  0  0  0
 58 81  1  0  0  0  0
 59 61  1  0  0  0  0
 59 72  1  0  0  0  0
 60 73  1  0  0  0  0
 62 64  1  0  0  0  0
M  CHG  1  73   1
M  ISO  4  34 100  36 100  58 101  81 101
M  END
> <Batch ID>
0088

> <Smiles>
CNC(C)C(=O)NC(C(=O)N1Cc2cc([101O:1][101CH2:1]C(=O)Nc3ccc([100C:0](=N)[100C:0](=O)N4CCCC(n5nc(-c6ccc(Oc7ccc(F)cc7F)cc6)c(C(N)=O)c5N)C4)cc3N)ccc2CC1C(=O)NC1CCCc2ccccc21)C(C)(C)C

> <Shape>
0.350

> <Color>
0.234

> <Negative vol penalty>
0.000

$$$$

  -OEChem-04052300233D

 87 96  0     1  0  0  0  0  0999 V2000
  -16.6379  -28.6642   24.0684 C   0  0  0  0  0  0  0  0  0  0  0  0
  -17.3012  -28.2587   22.9147 C   0  0  0  0  0  0  0  0  0  0  0  0
  -24.8801   -8.5208   21.4435 C   0  0  0  0  0  0  0  0  0  0  0  0
  -23.3485  -10.3785   21.6440 C   0  0  0  0  0  0  0  0  0  0  0  0
  -16.9328  -29.8999   24.6428 C   0  0  0  0  0  0  0  0  0  0  0  0
  -18.2591  -29.0892   22.3341 C   0  0  0  0  0  0  0  0  0  0  0  0
  -25.0475  -26.8546   21.4310 C   0  0  0  0  0  0  0  0  0  0  0  0
  -28.7892  -21.1384   21.4036 C   0  0  0  0  0  0  0  0  0  0  0  0
  -28.5979  -19.8007   21.0581 C   0  0  0  0  0  0  0  0  0  0  0  0
  -23.8045   -7.6327   21.4559 C   0  0  0  0  0  0  0  0  0  0  0  0
  -22.2730   -9.4904   21.6564 C   0  0  0  0  0  0  0  0  0  0  0  0
  -26.3134  -26.4254   21.0320 C   0  0  0  0  0  0  0  0  0  0  0  0
  -21.7349   -6.2598   23.7485 C   0  0  0  0  0  0  0  0  0  0  0  0
  -21.8413   -5.1254   24.5531 C   0  0  0  0  0  0  0  0  0  0  0  0
  -26.8027  -28.6325   20.1733 C   0  0  0  0  0  0  0  0  0  0  0  0
  -29.1889  -20.3069   18.7708 C   0  0  0  0  0  0  0  0  0  0  0  0
  -21.5899   -3.7196   22.6043 C   0  0  0  0  0  0  0  0  0  0  0  0
  -24.6521   -9.8937   21.5376 C   0  0  0  0  0  0  0  0  0  0  0  0
  -26.8315  -10.8649   22.4402 C   0  0  0  0  0  0  0  0  0  0  0  0
  -17.9017  -30.7418   24.0745 C   0  0  0  0  0  0  0  0  0  0  0  0
  -24.6596  -28.1801   21.2163 C   0  0  0  0  0  0  0  0  0  0  0  0
  -18.5663  -30.3379   22.9007 C   0  0  0  0  0  0  0  0  0  0  0  0
  -25.5406  -29.0714   20.5820 C   0  0  0  0  0  0  0  0  0  0  0  0
  -29.1803  -22.0605   20.4327 C   0  0  0  0  0  0  0  0  0  0  0  0
  -28.7978  -19.3849   19.7417 C   0  0  0  0  0  0  0  0  0  0  0  0
  -29.3802  -21.6447   19.1164 C   0  0  0  0  0  0  0  0  0  0  0  0
  -22.5010   -8.1175   21.5623 C   0  0  0  0  0  0  0  0  0  0  0  0
  -27.1888  -27.3121   20.4045 C   0  0  0  0  0  0  0  0  0  0  0  0
  -21.5559   -6.1241   22.3717 C   0  0  0  0  0  0  0  0  0  0  0  0
  -21.7688   -3.8553   23.9810 C   0  0  0  0  0  0  0  0  0  0  0  0
  -21.4834   -4.8540   21.7997 C   0  0  0  0  0  0  0  0  0  0  0  0
  -25.7627  -10.8115   21.5254 C   0  0  0  0  0  0  0  0  0  0  0  0
  -27.6134  -11.9024   21.9944 C   0  0  0  0  0  0  0  0  0  0  0  0
  -28.6268  -24.4905   20.2388 C   0  0  0  0  0  0  0  0  0  0  0  0
  -29.3195  -17.3956   18.3519 C   0  0  0  0  0  0  0  0  0  0  0  0
  -27.0940  -10.0496   23.5899 C   0  0  0  0  0  0  0  0  0  0  0  0
  -21.9966  -30.7940   21.6055 C   0  0  0  0  0  0  0  0  0  0  0  0
  -24.6778  -32.1567   22.2095 C   0  0  0  0  0  0  0  0  0  0  0  0
  -27.7778  -33.1719   23.2076 C   0  0  0  0  0  0  0  0  0  0  0  0
  -27.8127  -17.1897   20.2242 C   0  0  0  0  0  0  0  0  0  0  0  0
  -18.1525  -32.0889   24.7046 C   0  0  0  0  0  0  0  0  0  0  0  0
  -23.2827  -28.6700   21.5741 C   0  0  0  0  0  0  0  0  0  0  0  0
  -25.0676  -30.4788   20.3405 C   0  0  0  0  0  0  0  0  0  0  0  0
  -19.4489  -32.7471   24.2392 C   0  0  0  0  0  0  0  0  0  0  0  0
  -31.2706  -24.8892   21.4454 C   0  0  0  0  0  0  0  0  0  0  0  0
  -27.4965  -14.5092   17.6744 C   0  0  0  0  0  0  0  0  0  0  0  0
  -19.5770  -32.6600   22.7217 C   0  0  0  0  0  0  0  0  0  0  0  0
  -30.5350  -26.0190   20.7269 C   0  0  0  0  0  0  0  0  0  0  0  0
  -27.0486  -13.3297   18.5357 C   0  0  0  0  0  0  0  0  0  0  0  0
  -30.3294  -23.7683   21.8724 C   0  0  0  0  0  0  0  0  0  0  0  0
  -26.9868  -15.8325   18.2343 C   0  0  0  0  0  0  0  0  0  0  0  0
  -26.9234  -14.8939   20.5266 C   0  0  0  0  0  0  0  0  0  0  0  0
  -19.6294  -31.2001   22.2554 C   0  0  1  0  0  0  0  0  0  0  0  0
  -29.0200  -25.8594   20.7928 C   0  0  1  0  0  0  0  0  0  1  0  0
  -23.2680  -30.1334   22.0511 C   0  0  1  0  0  0  0  0  0  0  0  0
  -27.4419  -13.5424   20.0073 C   0  0  1  0  0  0  0  0  0  0  0  0
  -29.0104  -35.1815   24.0676 C   0  0  0  0  0  0  0  0  0  0  0  0
  -24.6774  -33.3531   19.4037 C   0  0  0  0  0  0  0  0  0  0  0  0
  -26.6335  -34.7614   20.0807 C   0  0  0  0  0  0  0  0  0  0  0  0
  -24.4459  -35.0235   21.2504 C   0  0  0  0  0  0  0  0  0  0  0  0
  -28.4974  -31.7966   25.7275 C   0  0  0  0  0  0  0  0  0  0  0  0
  -25.8388  -32.9567   21.6752 C   0  0  1  0  0  0  0  0  0  0  0  0
  -28.2431  -33.9230   24.4420 C   0  0  2  0  0  0  0  0  0  0  0  0
  -25.4001  -33.9953   20.6046 C   0  0  0  0  0  0  0  0  0  0  0  0
  -25.8542  -11.7412   20.5708 N   0  0  0  0  0  0  0  0  0  0  0  0
  -26.9896  -12.3886   20.8833 N   0  0  0  0  0  0  0  0  0  0  0  0
  -29.3695  -23.4345   20.8126 N   0  0  0  0  0  0  0  0  0  0  0  0
  -24.3531  -30.9790   21.5253 N   0  0  0  0  0  0  0  0  0  0  0  0
  -27.3431  -15.9910   19.6512 N   0  0  0  0  0  0  0  0  0  0  0  0
  -29.7752  -22.5622   18.1167 N   0  0  0  0  0  0  0  0  0  0  0  0
  -28.7668  -12.4371   22.4485 N   0  0  0  0  0  0  0  0  0  0  0  0
  -26.5760  -10.4538   24.8280 N   0  0  0  0  0  0  0  0  0  0  0  0
  -20.9443  -30.6421   22.4881 N   0  0  0  0  0  0  0  0  0  0  0  0
  -26.5017  -33.5396   22.8368 N   0  0  0  0  0  0  0  0  0  0  0  0
  -28.6002  -17.9994   19.3842 N   0  0  0  0  0  0  0  0  0  0  0  0
  -29.1321  -33.0593   25.2695 N   0  3  0  0  0  0  0  0  0  0  0  0
  -27.7744  -24.3968   19.3572 O   0  0  0  0  0  0  0  0  0  0  0  0
  -30.3851  -17.7770   17.8742 O   0  0  0  0  0  0  0  0  0  0  0  0
  -27.7817   -9.0025   23.5245 O   0  0  0  0  0  0  0  0  0  0  0  0
  -21.9713  -31.3989   20.5401 O   0  0  0  0  0  0  0  0  0  0  0  0
  -24.0699  -32.5654   23.2028 O   0  0  0  0  0  0  0  0  0  0  0  0
  -28.4779  -32.3446   22.6280 O   0  0  0  0  0  0  0  0  0  0  0  0
  -27.6069  -17.4945   21.4048 O   0  0  0  0  0  0  0  0  0  0  0  0
  -21.4512   -7.2513   21.5742 O   0  0  0  0  0  0  0  0  0  0  0  0
  -28.4249  -26.8877   20.0215 O   0  0  0  0  0  0  0  0  0  1  0  0
  -21.8726   -2.7660   24.7536 F   0  0  0  0  0  0  0  0  0  0  0  0
  -21.3128   -4.7173   20.4776 F   0  0  0  0  0  0  0  0  0  0  0  0
  1  2  1  0  0  0  0
  1  5  2  0  0  0  0
  2  6  2  0  0  0  0
  3 10  2  0  0  0  0
  3 18  1  0  0  0  0
  4 11  1  0  0  0  0
  4 18  2  0  0  0  0
  5 20  1  0  0  0  0
  6 22  1  0  0  0  0
  7 12  2  0  0  0  0
  7 21  1  0  0  0  0
  8  9  2  0  0  0  0
  8 24  1  0  0  0  0
  9 25  1  0  0  0  0
 10 27  1  0  0  0  0
 11 27  2  0  0  0  0
 12 28  1  0  0  0  0
 13 14  2  0  0  0  0
 13 29  1  0  0  0  0
 14 30  1  0  0  0  0
 15 23  1  0  0  0  0
 15 28  2  0  0  0  0
 16 25  2  0  0  0  0
 16 26  1  0  0  0  0
 17 30  2  0  0  0  0
 17 31  1  0  0  0  0
 18 32  1  0  0  0  0
 19 32  1  0  0  0  0
 19 33  2  0  0  0  0
 19 36  1  0  0  0  0
 20 22  2  0  0  0  0
 20 41  1  0  0  0  0
 21 23  2  0  0  0  0
 21 42  1  0  0  0  0
 22 53  1  0  0  0  0
 23 43  1  0  0  0  0
 24 26  2  0  0  0  0
 24 67  1  0  0  0  0
 25 75  1  0  0  0  0
 26 70  1  0  0  0  0
 27 84  1  0  0  0  0
 28 85  1  0  0  0  0
 29 31  2  0  0  0  0
 29 84  1  0  0  0  0
 30 86  1  0  0  0  0
 31 87  1  0  0  0  0
 32 65  2  0  0  0  0
 33 66  1  0  0  0  0
 33 71  1  0  0  0  0
 34 54  1  0  0  0  0
 34 67  1  0  0  0  0
 34 77  2  0  0  0  0
 35 75  1  0  0  0  0
 35 78  2  0  0  0  0
 36 72  1  0  0  0  0
 36 79  2  0  0  0  0
 37 55  1  0  0  0  0
 37 73  1  0  0  0  0
 37 80  2  0  0  0  0
 38 62  1  0  0  0  0
 38 68  1  0  0  0  0
 38 81  2  0  0  0  0
 39 63  1  0  0  0  0
 39 74  1  0  0  0  0
 39 82  2  0  0  0  0
 40 69  1  0  0  0  0
 40 75  1  0  0  0  0
 40 83  2  0  0  0  0
 41 44  1  0  0  0  0
 42 55  1  0  0  0  0
 43 68  1  0  0  0  0
 44 47  1  0  0  0  0
 45 48  1  0  0  0  0
 45 50  1  0  0  0  0
 46 49  1  0  0  0  0
 46 51  1  0  0  0  0
 47 53  1  0  0  0  0
 48 54  1  0  0  0  0
 49 56  1  0  0  0  0
 50 67  1  0  0  0  0
 51 69  1  0  0  0  0
 52 56  1  0  0  0  0
 52 69  1  0  0  0  0
 53 73  1  0  0  0  0
 54 85  1  0  0  0  0
 55 68  1  0  0  0  0
 56 66  1  0  0  0  0
 57 63  1  0  0  0  0
 58 64  1  0  0  0  0
 59 64  1  0  0  0  0
 60 64  1  0  0  0  0
 61 76  1  0  0  0  0
 62 64  1  0  0  0  0
 62 74  1  0  0  0  0
 63 76  1  0  0  0  0
 65 66  1  0  0  0  0
M  CHG  1  76   1
M  ISO  4  40 100  54 101  75 100  85 101
M  END
> <Batch ID>
0088

> <Smiles>
CNC(C)C(=O)NC(C(=O)N1Cc2cc([101O:1][101CH:1]3CCCN(c4ccc([100N:0](C=O)[100C:0](=O)N5CCCC(n6nc(-c7ccc(Oc8ccc(F)cc8F)cc7)c(C(N)=O)c6N)C5)cc4N)C3=O)ccc2CC1C(=O)NC1CCCc2ccccc21)C(C)(C)C

> <Shape>
0.341

> <Color>
0.145

> <Negative vol penalty>
0.000

$$$$

  -OEChem-04052300233D

 85 93  0     1  0  0  0  0  0999 V2000
  -29.4414  -37.7620   22.5936 C   0  0  0  0  0  0  0  0  0  0  0  0
  -29.2647  -36.4778   22.0886 C   0  0  0  0  0  0  0  0  0  0  0  0
  -24.4416   -9.3958   21.6099 C   0  0  0  0  0  0  0  0  0  0  0  0
  -24.6334  -10.6993   23.6351 C   0  0  0  0  0  0  0  0  0  0  0  0
  -29.9394  -20.8777   21.2939 C   0  0  0  0  0  0  0  0  0  0  0  0
  -28.8634  -38.1164   23.8119 C   0  0  0  0  0  0  0  0  0  0  0  0
  -28.5106  -35.5469   22.8022 C   0  0  0  0  0  0  0  0  0  0  0  0
  -24.8982  -31.1797   20.4818 C   0  0  0  0  0  0  0  0  0  0  0  0
  -29.8882  -19.5366   20.9142 C   0  0  0  0  0  0  0  0  0  0  0  0
  -24.0856   -8.2774   22.3635 C   0  0  0  0  0  0  0  0  0  0  0  0
  -24.2774   -9.5808   24.3887 C   0  0  0  0  0  0  0  0  0  0  0  0
  -25.0976  -29.8181   20.2586 C   0  0  0  0  0  0  0  0  0  0  0  0
  -21.3248   -7.0976   23.9189 C   0  0  0  0  0  0  0  0  0  0  0  0
  -20.2471   -6.3322   23.4736 C   0  0  0  0  0  0  0  0  0  0  0  0
  -27.5250  -20.9615   21.3237 C   0  0  0  0  0  0  0  0  0  0  0  0
  -24.0348  -29.3230   22.3669 C   0  0  0  0  0  0  0  0  0  0  0  0
  -21.6940   -4.4068   23.2817 C   0  0  0  0  0  0  0  0  0  0  0  0
  -24.7156  -10.6068   22.2457 C   0  0  0  0  0  0  0  0  0  0  0  0
  -28.7578  -21.5902   21.4987 C   0  0  0  0  0  0  0  0  0  0  0  0
  -24.2200  -12.7326   20.9255 C   0  0  0  0  0  0  0  0  0  0  0  0
  -28.0938  -37.1924   24.5361 C   0  0  0  0  0  0  0  0  0  0  0  0
  -24.2743  -31.6246   21.6563 C   0  0  0  0  0  0  0  0  0  0  0  0
  -27.9228  -35.8889   24.0320 C   0  0  0  0  0  0  0  0  0  0  0  0
  -23.8264  -30.6907   22.6014 C   0  0  0  0  0  0  0  0  0  0  0  0
  -28.6554  -18.9079   20.7391 C   0  0  0  0  0  0  0  0  0  0  0  0
  -24.0035   -8.3699   23.7529 C   0  0  0  0  0  0  0  0  0  0  0  0
  -24.6684  -28.8896   21.2025 C   0  0  0  0  0  0  0  0  0  0  0  0
  -22.5871   -6.5177   24.0456 C   0  0  0  0  0  0  0  0  0  0  0  0
  -20.4317   -4.9868   23.1550 C   0  0  0  0  0  0  0  0  0  0  0  0
  -27.4738  -19.6203   20.9439 C   0  0  0  0  0  0  0  0  0  0  0  0
  -22.7717   -5.1723   23.7270 C   0  0  0  0  0  0  0  0  0  0  0  0
  -25.0839  -11.7624   21.4679 C   0  0  0  0  0  0  0  0  0  0  0  0
  -25.0541  -13.6131   20.2808 C   0  0  0  0  0  0  0  0  0  0  0  0
  -26.3084  -25.7037   21.2764 C   0  0  0  0  0  0  0  0  0  0  0  0
  -26.0239  -26.9980   21.4378 C   0  0  0  0  0  0  0  0  0  1  0  0
  -28.8125  -23.0183   21.9029 C   0  0  0  0  0  0  0  0  0  0  0  0
  -22.7914  -12.8294   20.9980 C   0  0  0  0  0  0  0  0  0  0  0  0
  -27.5930  -25.1570   21.7913 C   0  0  0  0  0  0  0  0  0  0  0  0
  -25.1484  -33.4497   24.1076 C   0  0  0  0  0  0  0  0  0  0  0  0
  -22.0398  -33.1061   24.9684 C   0  0  0  0  0  0  0  0  0  0  0  0
  -19.1686  -31.2707   24.7846 C   0  0  0  0  0  0  0  0  0  0  0  0
  -29.6866  -16.6974   20.1092 C   0  0  0  0  0  0  0  0  0  0  0  0
  -27.5281  -37.6071   25.8712 C   0  0  0  0  0  0  0  0  0  0  0  0
  -24.0427  -33.0954   21.8697 C   0  0  0  0  0  0  0  0  0  0  0  0
  -23.1330  -31.1156   23.8692 C   0  0  0  0  0  0  0  0  0  0  0  0
  -26.4318  -36.6767   26.3838 C   0  0  0  0  0  0  0  0  0  0  0  0
  -29.9823  -13.2741   19.1761 C   0  0  0  0  0  0  0  0  0  0  0  0
  -26.8568  -35.2191   26.2366 C   0  0  0  0  0  0  0  0  0  0  0  0
  -28.6632  -12.6554   19.6446 C   0  0  0  0  0  0  0  0  0  0  0  0
  -30.4828  -14.3437   20.1452 C   0  0  0  0  0  0  0  0  0  0  0  0
  -28.1897  -14.7759   20.9354 C   0  0  0  0  0  0  0  0  0  0  0  0
  -27.0911  -34.8586   24.7647 C   0  0  1  0  0  0  0  0  0  0  0  0
  -23.8577  -33.4642   23.3385 C   0  0  1  0  0  0  0  0  0  0  0  0
  -27.6127  -13.7388   19.9582 C   0  0  2  0  0  0  0  0  0  0  0  0
  -16.8045  -31.2220   25.6250 C   0  0  0  0  0  0  0  0  0  0  0  0
  -23.0297  -32.1455   27.6900 C   0  0  0  0  0  0  0  0  0  0  0  0
  -20.7391  -31.2324   28.1231 C   0  0  0  0  0  0  0  0  0  0  0  0
  -21.0588  -33.6824   27.7798 C   0  0  0  0  0  0  0  0  0  0  0  0
  -18.0676  -31.4436   22.0429 C   0  0  0  0  0  0  0  0  0  0  0  0
  -21.2653  -32.1168   25.8053 C   0  0  1  0  0  0  0  0  0  0  0  0
  -17.7315  -31.6736   24.5072 C   0  0  2  0  0  0  0  0  0  0  0  0
  -21.5380  -32.2861   27.3267 C   0  0  0  0  0  0  0  0  0  0  0  0
  -26.3683  -12.0034   21.1917 N   0  0  0  0  0  0  0  0  0  0  0  0
  -26.3176  -13.1351   20.4686 N   0  0  0  0  0  0  0  0  0  0  0  0
  -22.9354  -32.5651   24.0351 N   0  0  0  0  0  0  0  0  0  0  0  0
  -29.4361  -15.3380   20.3918 N   0  0  0  0  0  0  0  0  0  0  0  0
  -24.8227  -14.7417   19.5771 N   0  0  0  0  0  0  0  0  0  0  0  0
  -22.0895  -11.8402   21.7003 N   0  0  0  0  0  0  0  0  0  0  0  0
  -28.6068  -17.5455   20.3527 N   0  0  0  0  0  0  0  0  0  0  0  0
  -27.7143  -23.7932   21.5319 N   0  0  0  0  0  0  0  0  0  0  0  0
  -25.8287  -34.6523   24.0877 N   0  0  0  0  0  0  0  0  0  0  0  0
  -19.8645  -32.2718   25.4285 N   0  0  0  0  0  0  0  0  0  0  0  0
  -17.2601  -31.0652   23.2310 N   0  3  0  0  0  0  0  0  0  0  0  0
  -29.8028  -23.4327   22.4991 O   0  0  0  0  0  0  0  0  0  0  0  0
  -22.1548  -13.7564   20.4422 O   0  0  0  0  0  0  0  0  0  0  0  0
  -28.4189  -25.8544   22.3712 O   0  0  0  0  0  0  0  0  0  0  0  0
  -25.5003  -32.4238   24.6781 O   0  0  0  0  0  0  0  0  0  0  0  0
  -21.8517  -34.3142   25.1315 O   0  0  0  0  0  0  0  0  0  0  0  0
  -19.6268  -30.1758   24.4655 O   0  0  0  0  0  0  0  0  0  0  0  0
  -30.7697  -17.0773   19.6568 O   0  0  0  0  0  0  0  0  0  0  0  0
  -23.6559   -7.2787   24.4885 O   0  0  0  0  0  0  0  0  0  0  0  0
  -24.8624  -27.5599   20.9874 O   0  0  0  0  0  0  0  0  0  1  0  0
  -19.3964   -4.2515   22.7289 F   0  0  0  0  0  0  0  0  0  0  0  0
  -26.2830  -19.0267   20.7781 F   0  0  0  0  0  0  0  0  0  0  0  0
  -23.9817   -4.6093   23.8478 F   0  0  0  0  0  0  0  0  0  0  0  0
  1  2  1  0  0  0  0
  1  6  2  0  0  0  0
  2  7  2  0  0  0  0
  3 10  2  0  0  0  0
  3 18  1  0  0  0  0
  4 11  1  0  0  0  0
  4 18  2  0  0  0  0
  5  9  2  0  0  0  0
  5 19  1  0  0  0  0
  6 21  1  0  0  0  0
  7 23  1  0  0  0  0
  8 12  2  0  0  0  0
  8 22  1  0  0  0  0
  9 25  1  0  0  0  0
 10 26  1  0  0  0  0
 11 26  2  0  0  0  0
 12 27  1  0  0  0  0
 13 14  2  0  0  0  0
 13 28  1  0  0  0  0
 14 29  1  0  0  0  0
 15 19  2  0  0  0  0
 15 30  1  0  0  0  0
 16 24  1  0  0  0  0
 16 27  2  0  0  0  0
 17 29  2  0  0  0  0
 17 31  1  0  0  0  0
 18 32  1  0  0  0  0
 19 36  1  0  0  0  0
 20 32  1  0  0  0  0
 20 33  2  0  0  0  0
 20 37  1  0  0  0  0
 21 23  2  0  0  0  0
 21 43  1  0  0  0  0
 22 24  2  0  0  0  0
 22 44  1  0  0  0  0
 23 52  1  0  0  0  0
 24 45  1  0  0  0  0
 25 30  2  0  0  0  0
 25 69  1  0  0  0  0
 26 81  1  0  0  0  0
 27 82  1  0  0  0  0
 28 31  2  0  0  0  0
 28 81  1  0  0  0  0
 29 83  1  0  0  0  0
 30 84  1  0  0  0  0
 31 85  1  0  0  0  0
 32 63  2  0  0  0  0
 33 64  1  0  0  0  0
 33 67  1  0  0  0  0
 34 35  2  0  0  0  0
 34 38  1  0  0  0  0
 35 82  1  0  0  0  0
 36 70  1  0  0  0  0
 36 74  2  0  0  0  0
 37 68  1  0  0  0  0
 37 75  2  0  0  0  0
 38 70  1  0  0  0  0
 38 76  2  0  0  0  0
 39 53  1  0  0  0  0
 39 71  1  0  0  0  0
 39 77  2  0  0  0  0
 40 60  1  0  0  0  0
 40 65  1  0  0  0  0
 40 78  2  0  0  0  0
 41 61  1  0  0  0  0
 41 72  1  0  0  0  0
 41 79  2  0  0  0  0
 42 66  1  0  0  0  0
 42 69  1  0  0  0  0
 42 80  2  0  0  0  0
 43 46  1  0  0  0  0
 44 53  1  0  0  0  0
 45 65  1  0  0  0  0
 46 48  1  0  0  0  0
 47 49  1  0  0  0  0
 47 50  1  0  0  0  0
 48 52  1  0  0  0  0
 49 54  1  0  0  0  0
 50 66  1  0  0  0  0
 51 54  1  0  0  0  0
 51 66  1  0  0  0  0
 52 71  1  0  0  0  0
 53 65  1  0  0  0  0
 54 64  1  0  0  0  0
 55 61  1  0  0  0  0
 56 62  1  0  0  0  0
 57 62  1  0  0  0  0
 58 62  1  0  0  0  0
 59 73  1  0  0  0  0
 60 62  1  0  0  0  0
 60 72  1  0  0  0  0
 61 73  1  0  0  0  0
 63 64  1  0  0  0  0
M  CHG  1  73   1
M  ISO  4  35 101  42 100  69 100  82 101
M  END
> <Batch ID>
0088

> <Smiles>
CNC(C)C(=O)NC(C(=O)N1Cc2cc([101O:1][101CH:1]=CC(=O)NC(=O)c3ccc([100NH:0][100C:0](=O)N4CCCC(n5nc(-c6ccc(Oc7ccc(F)cc7F)cc6)c(C(N)=O)c5N)C4)c(F)c3)ccc2CC1C(=O)NC1CCCc2ccccc21)C(C)(C)C

> <Shape>
0.292

> <Color>
0.108

> <Negative vol penalty>
0.000

$$$$

  -OEChem-04052300233D

 87 96  0     1  0  0  0  0  0999 V2000
  -27.5080  -37.6531   21.2609 C   0  0  0  0  0  0  0  0  0  0  0  0
  -27.9616  -36.5864   20.4916 C   0  0  0  0  0  0  0  0  0  0  0  0
  -23.1624  -10.6990   21.5013 C   0  0  0  0  0  0  0  0  0  0  0  0
  -22.6239  -12.9915   20.9613 C   0  0  0  0  0  0  0  0  0  0  0  0
  -26.9185  -37.4153   22.5018 C   0  0  0  0  0  0  0  0  0  0  0  0
  -27.8269  -35.2811   20.9634 C   0  0  0  0  0  0  0  0  0  0  0  0
  -26.7234  -28.5932   18.6460 C   0  0  0  0  0  0  0  0  0  0  0  0
  -22.0970  -10.6605   22.4007 C   0  0  0  0  0  0  0  0  0  0  0  0
  -21.5584  -12.9530   21.8608 C   0  0  0  0  0  0  0  0  0  0  0  0
  -27.2689  -27.3142   18.7480 C   0  0  0  0  0  0  0  0  0  0  0  0
  -18.7364  -10.3120   22.2680 C   0  0  0  0  0  0  0  0  0  0  0  0
  -17.9057   -9.1918   22.2413 C   0  0  0  0  0  0  0  0  0  0  0  0
  -26.1628  -27.0183   20.8712 C   0  0  0  0  0  0  0  0  0  0  0  0
  -28.9752  -19.9275   19.2898 C   0  0  0  0  0  0  0  0  0  0  0  0
  -30.2765  -19.4425   21.2667 C   0  0  0  0  0  0  0  0  0  0  0  0
  -18.4648   -8.7224   24.5444 C   0  0  0  0  0  0  0  0  0  0  0  0
  -23.4259  -11.8645   20.7816 C   0  0  0  0  0  0  0  0  0  0  0  0
  -24.4968  -11.5759   18.4843 C   0  0  0  0  0  0  0  0  0  0  0  0
  -26.7678  -36.1058   22.9847 C   0  0  0  0  0  0  0  0  0  0  0  0
  -25.9009  -29.0994   19.6627 C   0  0  0  0  0  0  0  0  0  0  0  0
  -27.2361  -35.0256   22.2125 C   0  0  0  0  0  0  0  0  0  0  0  0
  -25.6060  -28.3030   20.7785 C   0  0  0  0  0  0  0  0  0  0  0  0
  -29.6880  -20.3680   20.4049 C   0  0  0  0  0  0  0  0  0  0  0  0
  -28.8508  -18.5614   19.0366 C   0  0  0  0  0  0  0  0  0  0  0  0
  -29.4393  -17.6359   19.8984 C   0  0  0  0  0  0  0  0  0  0  0  0
  -21.2950  -11.7875   22.5805 C   0  0  0  0  0  0  0  0  0  0  0  0
  -26.9910  -26.5276   19.8620 C   0  0  0  0  0  0  0  0  0  0  0  0
  -19.4314  -10.6374   23.4328 C   0  0  0  0  0  0  0  0  0  0  0  0
  -17.7699   -8.3970   23.3796 C   0  0  0  0  0  0  0  0  0  0  0  0
  -30.1522  -18.0764   21.0134 C   0  0  0  0  0  0  0  0  0  0  0  0
  -19.2956   -9.8426   24.5710 C   0  0  0  0  0  0  0  0  0  0  0  0
  -24.5266  -11.9050   19.8528 C   0  0  0  0  0  0  0  0  0  0  0  0
  -25.7855  -11.7783   18.0544 C   0  0  0  0  0  0  0  0  0  0  0  0
  -29.3513  -23.9722   20.7308 C   0  0  0  0  0  0  0  0  0  0  0  0
  -30.6548  -23.7707   21.3783 C   0  0  0  0  0  0  0  0  0  0  0  0
  -28.8254  -22.6686   20.2776 C   0  0  0  0  0  0  0  0  0  0  0  0
  -28.7377  -25.1454   20.5755 C   0  0  0  0  0  0  0  0  0  1  0  0
  -23.4021  -11.1275   17.6743 C   0  0  0  0  0  0  0  0  0  0  0  0
  -26.0663  -31.5640   21.6632 C   0  0  0  0  0  0  0  0  0  0  0  0
  -23.0676  -30.6177   22.4600 C   0  0  0  0  0  0  0  0  0  0  0  0
  -20.7611  -28.1058   22.5910 C   0  0  0  0  0  0  0  0  0  0  0  0
  -30.2414  -15.2501   20.0028 C   0  0  0  0  0  0  0  0  0  0  0  0
  -26.1671  -35.9014   24.3530 C   0  0  0  0  0  0  0  0  0  0  0  0
  -25.2987  -30.4708   19.5251 C   0  0  0  0  0  0  0  0  0  0  0  0
  -24.7125  -28.7921   21.8880 C   0  0  0  0  0  0  0  0  0  0  0  0
  -30.9839  -22.3074   21.3447 C   0  0  0  0  0  0  0  0  0  0  0  0
  -25.7225  -34.4646   24.6145 C   0  0  0  0  0  0  0  0  0  0  0  0
  -30.3103  -11.7107   19.6216 C   0  0  0  0  0  0  0  0  0  0  0  0
  -26.8076  -33.4831   24.1830 C   0  0  0  0  0  0  0  0  0  0  0  0
  -28.8325  -11.3296   19.5069 C   0  0  0  0  0  0  0  0  0  0  0  0
  -30.5255  -12.8569   20.6084 C   0  0  0  0  0  0  0  0  0  0  0  0
  -28.2276  -13.6688   20.2480 C   0  0  0  0  0  0  0  0  0  0  0  0
  -27.0853  -33.5939   22.6790 C   0  0  1  0  0  0  0  0  0  0  0  0
  -24.8903  -31.0810   20.8623 C   0  0  1  0  0  0  0  0  0  0  0  0
  -27.9535  -12.5620   19.2168 C   0  0  2  0  0  0  0  0  0  0  0  0
  -18.4111  -27.6258   23.3291 C   0  0  0  0  0  0  0  0  0  0  0  0
  -23.9977  -30.5440   25.3651 C   0  0  0  0  0  0  0  0  0  0  0  0
  -21.9681  -29.1820   25.9074 C   0  0  0  0  0  0  0  0  0  0  0  0
  -21.7124  -31.5014   25.0253 C   0  0  0  0  0  0  0  0  0  0  0  0
  -19.9177  -27.4042   19.8423 C   0  0  0  0  0  0  0  0  0  0  0  0
  -22.4814  -29.6618   23.4708 C   0  0  1  0  0  0  0  0  0  0  0  0
  -19.3023  -28.0550   22.1740 C   0  0  2  0  0  0  0  0  0  0  0  0
  -22.5583  -30.2135   24.9223 C   0  0  0  0  0  0  0  0  0  0  0  0
  -25.7383  -12.2872   20.2649 N   0  0  0  0  0  0  0  0  0  0  0  0
  -26.4818  -12.1995   19.1488 N   0  0  0  0  0  0  0  0  0  0  0  0
  -29.8123  -21.7321   20.6585 N   0  0  0  0  0  0  0  0  0  0  0  0
  -24.1528  -30.1422   21.7103 N   0  0  0  0  0  0  0  0  0  0  0  0
  -29.6632  -13.9908   20.2685 N   0  0  0  0  0  0  0  0  0  0  0  0
  -28.1241  -18.1372   17.9012 N   0  0  0  0  0  0  0  0  0  0  0  0
  -26.3796  -11.6351   16.8506 N   0  0  0  0  0  0  0  0  0  0  0  0
  -22.1455  -10.9731   18.2754 N   0  0  0  0  0  0  0  0  0  0  0  0
  -29.3256  -16.2440   19.6590 N   0  0  0  0  0  0  0  0  0  0  0  0
  -26.0508  -32.9211   21.9231 N   0  0  0  0  0  0  0  0  0  0  0  0
  -21.1275  -29.3656   23.0151 N   0  0  0  0  0  0  0  0  0  0  0  0
  -19.1172  -27.0898   21.0537 N   0  3  0  0  0  0  0  0  0  0  0  0
  -31.3525  -24.6456   21.8617 O   0  0  0  0  0  0  0  0  0  0  0  0
  -27.7663  -22.4836   19.7037 O   0  0  0  0  0  0  0  0  0  0  0  0
  -23.5380  -10.8556   16.4573 O   0  0  0  0  0  0  0  0  0  0  0  0
  -26.9235  -30.7644   22.0203 O   0  0  0  0  0  0  0  0  0  0  0  0
  -22.5762  -31.7422   22.3352 O   0  0  0  0  0  0  0  0  0  0  0  0
  -21.5005  -27.1250   22.5487 O   0  0  0  0  0  0  0  0  0  0  0  0
  -31.4615  -15.4266   20.0485 O   0  0  0  0  0  0  0  0  0  0  0  0
  -20.2551  -11.7502   23.4579 O   0  0  0  0  0  0  0  0  0  0  0  0
  -27.5226  -25.2791   19.9644 O   0  0  0  0  0  0  0  0  0  1  0  0
  -16.9709   -7.3222   23.3543 F   0  0  0  0  0  0  0  0  0  0  0  0
  -30.7226  -17.1965   21.8490 F   0  0  0  0  0  0  0  0  0  0  0  0
  -19.9598  -10.1508   25.6933 F   0  0  0  0  0  0  0  0  0  0  0  0
  1  2  1  0  0  0  0
  1  5  2  0  0  0  0
  2  6  2  0  0  0  0
  3  8  2  0  0  0  0
  3 17  1  0  0  0  0
  4  9  1  0  0  0  0
  4 17  2  0  0  0  0
  5 19  1  0  0  0  0
  6 21  1  0  0  0  0
  7 10  2  0  0  0  0
  7 20  1  0  0  0  0
  8 26  1  0  0  0  0
  9 26  2  0  0  0  0
 10 27  1  0  0  0  0
 11 12  2  0  0  0  0
 11 28  1  0  0  0  0
 12 29  1  0  0  0  0
 13 22  1  0  0  0  0
 13 27  2  0  0  0  0
 14 23  1  0  0  0  0
 14 24  2  0  0  0  0
 15 23  2  0  0  0  0
 15 30  1  0  0  0  0
 16 29  2  0  0  0  0
 16 31  1  0  0  0  0
 17 32  1  0  0  0  0
 18 32  1  0  0  0  0
 18 33  2  0  0  0  0
 18 38  1  0  0  0  0
 19 21  2  0  0  0  0
 19 43  1  0  0  0  0
 20 22  2  0  0  0  0
 20 44  1  0  0  0  0
 21 53  1  0  0  0  0
 22 45  1  0  0  0  0
 23 66  1  0  0  0  0
 24 25  1  0  0  0  0
 24 69  1  0  0  0  0
 25 30  2  0  0  0  0
 25 72  1  0  0  0  0
 26 83  1  0  0  0  0
 27 84  1  0  0  0  0
 28 31  2  0  0  0  0
 28 83  1  0  0  0  0
 29 85  1  0  0  0  0
 30 86  1  0  0  0  0
 31 87  1  0  0  0  0
 32 64  2  0  0  0  0
 33 65  1  0  0  0  0
 33 70  1  0  0  0  0
 34 35  1  0  0  0  0
 34 36  1  0  0  0  0
 34 37  2  0  0  0  0
 35 46  1  0  0  0  0
 35 76  2  0  0  0  0
 36 66  1  0  0  0  0
 36 77  2  0  0  0  0
 37 84  1  0  0  0  0
 38 71  1  0  0  0  0
 38 78  2  0  0  0  0
 39 54  1  0  0  0  0
 39 73  1  0  0  0  0
 39 79  2  0  0  0  0
 40 61  1  0  0  0  0
 40 67  1  0  0  0  0
 40 80  2  0  0  0  0
 41 62  1  0  0  0  0
 41 74  1  0  0  0  0
 41 81  2  0  0  0  0
 42 68  1  0  0  0  0
 42 72  1  0  0  0  0
 42 82  2  0  0  0  0
 43 47  1  0  0  0  0
 44 54  1  0  0  0  0
 45 67  1  0  0  0  0
 46 66  1  0  0  0  0
 47 49  1  0  0  0  0
 48 50  1  0  0  0  0
 48 51  1  0  0  0  0
 49 53  1  0  0  0  0
 50 55  1  0  0  0  0
 51 68  1  0  0  0  0
 52 55  1  0  0  0  0
 52 68  1  0  0  0  0
 53 73  1  0  0  0  0
 54 67  1  0  0  0  0
 55 65  1  0  0  0  0
 56 62  1  0  0  0  0
 57 63  1  0  0  0  0
 58 63  1  0  0  0  0
 59 63  1  0  0  0  0
 60 75  1  0  0  0  0
 61 63  1  0  0  0  0
 61 74  1  0  0  0  0
 62 75  1  0  0  0  0
 64 65  1  0  0  0  0
M  CHG  1  75   1
M  ISO  4  37 101  42 100  72 100  84 101
M  END
> <Batch ID>
0088

> <Smiles>
CNC(C)C(=O)NC(C(=O)N1Cc2cc([101O:1][101CH:1]=C3C(=O)CN(c4cc(N)c([100NH:0][100C:0](=O)N5CCCC(n6nc(-c7ccc(Oc8ccc(F)cc8F)cc7)c(C(N)=O)c6N)C5)c(F)c4)C3=O)ccc2CC1C(=O)NC1CCCc2ccccc21)C(C)(C)C

> <Shape>
0.329

> <Color>
0.076

> <Negative vol penalty>
0.000

$$$$

  -OEChem-04052300233D

 84 92  0     1  0  0  0  0  0999 V2000
  -24.9838  -22.4223   12.0774 C   0  0  0  0  0  0  0  0  0  0  0  0
  -24.0559  -21.8773   12.9576 C   0  0  0  0  0  0  0  0  0  0  0  0
  -27.3417  -23.1418   20.2652 C   0  0  0  0  0  0  0  0  0  0  0  0
  -29.3700  -23.3782   18.9740 C   0  0  0  0  0  0  0  0  0  0  0  0
  -25.6479  -23.6005   12.4122 C   0  0  0  0  0  0  0  0  0  0  0  0
  -23.7830  -22.5164   14.1675 C   0  0  0  0  0  0  0  0  0  0  0  0
  -20.0988  -20.6990   16.8743 C   0  0  0  0  0  0  0  0  0  0  0  0
  -27.3575  -24.5091   20.5403 C   0  0  0  0  0  0  0  0  0  0  0  0
  -29.3857  -24.7456   19.2490 C   0  0  0  0  0  0  0  0  0  0  0  0
  -20.1925  -19.4879   17.5586 C   0  0  0  0  0  0  0  0  0  0  0  0
  -26.5437  -27.3796   18.9494 C   0  0  0  0  0  0  0  0  0  0  0  0
  -25.3440  -28.0799   18.8242 C   0  0  0  0  0  0  0  0  0  0  0  0
  -20.4990  -20.6882   19.6285 C   0  0  0  0  0  0  0  0  0  0  0  0
  -25.8271  -14.2574   20.7004 C   0  0  0  0  0  0  0  0  0  0  0  0
  -25.4637  -28.7019   21.1557 C   0  0  0  0  0  0  0  0  0  0  0  0
  -24.3833  -12.4361   20.6756 C   0  0  0  0  0  0  0  0  0  0  0  0
  -28.3480  -22.5763   19.4821 C   0  0  0  0  0  0  0  0  0  0  0  0
  -27.3246  -20.4416   18.5316 C   0  0  0  0  0  0  0  0  0  0  0  0
  -25.3917  -24.2470   13.6325 C   0  0  0  0  0  0  0  0  0  0  0  0
  -20.2155  -21.9157   17.5615 C   0  0  0  0  0  0  0  0  0  0  0  0
  -24.4254  -23.7192   14.5130 C   0  0  0  0  0  0  0  0  0  0  0  0
  -20.4038  -21.9134   18.9510 C   0  0  0  0  0  0  0  0  0  0  0  0
  -24.4760  -13.8099   20.6342 C   0  0  0  0  0  0  0  0  0  0  0  0
  -28.3794  -25.3110   20.0322 C   0  0  0  0  0  0  0  0  0  0  0  0
  -20.3955  -19.4824   18.9355 C   0  0  0  0  0  0  0  0  0  0  0  0
  -27.2035  -27.3404   20.1778 C   0  0  0  0  0  0  0  0  0  0  0  0
  -24.8039  -28.7410   19.9273 C   0  0  0  0  0  0  0  0  0  0  0  0
  -26.6635  -28.0016   21.2809 C   0  0  0  0  0  0  0  0  0  0  0  0
  -28.3327  -21.1638   19.1980 C   0  0  0  0  0  0  0  0  0  0  0  0
  -26.7157  -13.2085   20.7902 C   0  0  0  0  0  0  0  0  0  0  0  0
  -27.7824  -19.1468   18.5169 C   0  0  0  0  0  0  0  0  0  0  0  0
  -21.7246  -17.7371   19.7468 C   0  0  0  0  0  0  0  0  0  1  0  0
  -26.0852  -20.9003   17.9756 C   0  0  0  0  0  0  0  0  0  0  0  0
  -28.1981  -13.2485   20.8775 C   0  0  0  0  0  0  0  0  0  0  0  0
  -21.9316  -16.5796   20.3864 C   0  0  0  0  0  0  0  0  0  0  0  0
  -23.3284  -16.0442   20.4877 C   0  0  0  0  0  0  0  0  0  0  0  0
  -22.2331  -24.3695   17.4512 C   0  0  0  0  0  0  0  0  0  0  0  0
  -20.1415  -25.6809   19.5555 C   0  0  0  0  0  0  0  0  0  0  0  0
  -17.7240  -25.2030   21.9165 C   0  0  0  0  0  0  0  0  0  0  0  0
  -30.1379  -14.7813   20.9853 C   0  0  0  0  0  0  0  0  0  0  0  0
  -26.1333  -25.5238   13.9409 C   0  0  0  0  0  0  0  0  0  0  0  0
  -20.0854  -23.2137   16.8126 C   0  0  0  0  0  0  0  0  0  0  0  0
  -20.5154  -23.1925   19.7383 C   0  0  0  0  0  0  0  0  0  0  0  0
  -26.1069  -25.8836   15.4228 C   0  0  0  0  0  0  0  0  0  0  0  0
  -32.3247  -17.2421   19.6973 C   0  0  0  0  0  0  0  0  0  0  0  0
  -24.6818  -25.8099   15.9503 C   0  0  0  0  0  0  0  0  0  0  0  0
  -31.3991  -18.4221   19.3889 C   0  0  0  0  0  0  0  0  0  0  0  0
  -31.9102  -16.5146   20.9755 C   0  0  0  0  0  0  0  0  0  0  0  0
  -29.5834  -17.2752   20.7201 C   0  0  0  0  0  0  0  0  0  0  0  0
  -24.1349  -24.3804   15.8481 C   0  0  1  0  0  0  0  0  0  0  0  0
  -20.7331  -24.3894   17.5377 C   0  0  1  0  0  0  0  0  0  0  0  0
  -29.9169  -17.9974   19.4047 C   0  0  1  0  0  0  0  0  0  0  0  0
  -16.2284  -26.4646   23.4879 C   0  0  0  0  0  0  0  0  0  0  0  0
  -22.5117  -26.1726   21.4129 C   0  0  0  0  0  0  0  0  0  0  0  0
  -20.8840  -26.5323   23.2809 C   0  0  0  0  0  0  0  0  0  0  0  0
  -20.8654  -28.0519   21.3027 C   0  0  0  0  0  0  0  0  0  0  0  0
  -15.2804  -24.1514   20.6196 C   0  0  0  0  0  0  0  0  0  0  0  0
  -20.0005  -25.6887   21.0585 C   0  0  1  0  0  0  0  0  0  0  0  0
  -16.3607  -25.8432   22.1061 C   0  0  2  0  0  0  0  0  0  0  0  0
  -21.0653  -26.5871   21.7489 C   0  0  0  0  0  0  0  0  0  0  0  0
  -29.3538  -20.3918   19.5792 N   0  0  0  0  0  0  0  0  0  0  0  0
  -28.9897  -19.1711   19.1510 N   0  0  0  0  0  0  0  0  0  0  0  0
  -20.3880  -24.4357   18.9600 N   0  0  0  0  0  0  0  0  0  0  0  0
  -30.4971  -16.1382   20.9070 N   0  0  0  0  0  0  0  0  0  0  0  0
  -27.2660  -18.0011   18.0237 N   0  0  0  0  0  0  0  0  0  0  0  0
  -26.0685  -21.3244   16.6399 N   0  0  0  0  0  0  0  0  0  0  0  0
  -23.3458  -14.6571   20.5376 N   0  0  0  0  0  0  0  0  0  0  0  0
  -28.7679  -14.5219   20.8672 N   0  0  0  0  0  0  0  0  0  0  0  0
  -22.7224  -24.3920   16.1591 N   0  0  0  0  0  0  0  0  0  0  0  0
  -18.6215  -26.0749   21.3371 N   0  0  0  0  0  0  0  0  0  0  0  0
  -15.2837  -24.8261   21.9432 N   0  3  0  0  0  0  0  0  0  0  0  0
  -25.0275  -20.9484   18.6482 O   0  0  0  0  0  0  0  0  0  0  0  0
  -28.8192  -12.1952   20.9907 O   0  0  0  0  0  0  0  0  0  0  0  0
  -24.2927  -16.8012   20.5178 O   0  0  0  0  0  0  0  0  0  0  0  0
  -22.8972  -24.3378   18.4806 O   0  0  0  0  0  0  0  0  0  0  0  0
  -20.0296  -26.7394   18.9321 O   0  0  0  0  0  0  0  0  0  0  0  0
  -17.9694  -24.0466   22.2524 O   0  0  0  0  0  0  0  0  0  0  0  0
  -30.9681  -13.8756   21.1110 O   0  0  0  0  0  0  0  0  0  0  0  0
  -20.9067  -15.8555   20.9609 O   0  0  0  0  0  0  0  0  0  0  0  0
  -28.3950  -26.6454   20.3003 O   0  0  0  0  0  0  0  0  0  0  0  0
  -20.4880  -18.3017   19.6058 O   0  0  0  0  0  0  0  0  0  1  0  0
  -23.6525  -29.4148   19.8065 F   0  0  0  0  0  0  0  0  0  0  0  0
  -27.2933  -27.9685   22.4633 F   0  0  0  0  0  0  0  0  0  0  0  0
  -25.9209  -11.6917   20.7940 S   0  0  0  0  0  0  0  0  0  0  0  0
  1  2  1  0  0  0  0
  1  5  2  0  0  0  0
  2  6  2  0  0  0  0
  3  8  2  0  0  0  0
  3 17  1  0  0  0  0
  4  9  1  0  0  0  0
  4 17  2  0  0  0  0
  5 19  1  0  0  0  0
  6 21  1  0  0  0  0
  7 10  2  0  0  0  0
  7 20  1  0  0  0  0
  8 24  1  0  0  0  0
  9 24  2  0  0  0  0
 10 25  1  0  0  0  0
 11 12  2  0  0  0  0
 11 26  1  0  0  0  0
 12 27  1  0  0  0  0
 13 22  1  0  0  0  0
 13 25  2  0  0  0  0
 14 23  1  0  0  0  0
 14 30  2  0  0  0  0
 15 27  2  0  0  0  0
 15 28  1  0  0  0  0
 16 23  2  0  0  0  0
 16 84  1  0  0  0  0
 17 29  1  0  0  0  0
 18 29  1  0  0  0  0
 18 31  2  0  0  0  0
 18 33  1  0  0  0  0
 19 21  2  0  0  0  0
 19 41  1  0  0  0  0
 20 22  2  0  0  0  0
 20 42  1  0  0  0  0
 21 50  1  0  0  0  0
 22 43  1  0  0  0  0
 23 67  1  0  0  0  0
 24 80  1  0  0  0  0
 25 81  1  0  0  0  0
 26 28  2  0  0  0  0
 26 80  1  0  0  0  0
 27 82  1  0  0  0  0
 28 83  1  0  0  0  0
 29 61  2  0  0  0  0
 30 34  1  0  0  0  0
 30 84  1  0  0  0  0
 31 62  1  0  0  0  0
 31 65  1  0  0  0  0
 32 35  2  0  0  0  0
 32 81  1  0  0  0  0
 33 66  1  0  0  0  0
 33 72  2  0  0  0  0
 34 68  1  0  0  0  0
 34 73  2  0  0  0  0
 35 36  1  0  0  0  0
 35 79  1  0  0  0  0
 36 67  1  0  0  0  0
 36 74  2  0  0  0  0
 37 51  1  0  0  0  0
 37 69  1  0  0  0  0
 37 75  2  0  0  0  0
 38 58  1  0  0  0  0
 38 63  1  0  0  0  0
 38 76  2  0  0  0  0
 39 59  1  0  0  0  0
 39 70  1  0  0  0  0
 39 77  2  0  0  0  0
 40 64  1  0  0  0  0
 40 68  1  0  0  0  0
 40 78  2  0  0  0  0
 41 44  1  0  0  0  0
 42 51  1  0  0  0  0
 43 63  1  0  0  0  0
 44 46  1  0  0  0  0
 45 47  1  0  0  0  0
 45 48  1  0  0  0  0
 46 50  1  0  0  0  0
 47 52  1  0  0  0  0
 48 64  1  0  0  0  0
 49 52  1  0  0  0  0
 49 64  1  0  0  0  0
 50 69  1  0  0  0  0
 51 63  1  0  0  0  0
 52 62  1  0  0  0  0
 53 59  1  0  0  0  0
 54 60  1  0  0  0  0
 55 60  1  0  0  0  0
 56 60  1  0  0  0  0
 57 71  1  0  0  0  0
 58 60  1  0  0  0  0
 58 70  1  0  0  0  0
 59 71  1  0  0  0  0
 61 62  1  0  0  0  0
M  CHG  1  71   1
M  ISO  4  32 101  40 100  68 100  81 101
M  END
> <Batch ID>
0088

> <Smiles>
CNC(C)C(=O)NC(C(=O)N1Cc2cc([101O:1][101CH2:1]C(=O)C(=O)Nc3csc(C(=O)[100NH:0][100C:0](=O)N4CCCC(n5nc(-c6ccc(Oc7ccc(F)cc7F)cc6)c(C(N)=O)c5N)C4)c3)ccc2CC1C(=O)NC1CCCc2ccccc21)C(C)(C)C

> <Shape>
0.209

> <Color>
0.067

> <Negative vol penalty>
0.000

$$$$

  -OEChem-04052300233D

 90 99  0     1  0  0  0  0  0999 V2000
  -28.0964  -37.8654   22.0846 C   0  0  0  0  0  0  0  0  0  0  0  0
  -28.1749  -36.9178   21.0691 C   0  0  0  0  0  0  0  0  0  0  0  0
  -22.5547   -5.7683   19.7428 C   0  0  0  0  0  0  0  0  0  0  0  0
  -24.5892   -5.8792   21.0410 C   0  0  0  0  0  0  0  0  0  0  0  0
  -27.9356  -37.4560   23.4077 C   0  0  0  0  0  0  0  0  0  0  0  0
  -28.0937  -35.5600   21.3763 C   0  0  0  0  0  0  0  0  0  0  0  0
  -25.7131  -29.3609   18.6891 C   0  0  0  0  0  0  0  0  0  0  0  0
  -27.1095  -19.8237   20.7023 C   0  0  0  0  0  0  0  0  0  0  0  0
  -28.7406  -19.9643   18.9255 C   0  0  0  0  0  0  0  0  0  0  0  0
  -27.0076  -21.2147   20.7188 C   0  0  0  0  0  0  0  0  0  0  0  0
  -28.6386  -21.3553   18.9420 C   0  0  0  0  0  0  0  0  0  0  0  0
  -22.9175   -4.5026   19.2823 C   0  0  0  0  0  0  0  0  0  0  0  0
  -24.9520   -4.6135   20.5806 C   0  0  0  0  0  0  0  0  0  0  0  0
  -26.1497  -28.0638   18.4233 C   0  0  0  0  0  0  0  0  0  0  0  0
  -22.8835   -1.3262   20.4408 C   0  0  0  0  0  0  0  0  0  0  0  0
  -21.9047   -0.3325   20.4373 C   0  0  0  0  0  0  0  0  0  0  0  0
  -25.7926  -27.4763   20.7355 C   0  0  0  0  0  0  0  0  0  0  0  0
  -22.1554   -0.0940   18.0462 C   0  0  0  0  0  0  0  0  0  0  0  0
  -23.3905   -6.4566   20.6221 C   0  0  0  0  0  0  0  0  0  0  0  0
  -22.2655   -8.0675   22.2491 C   0  0  0  0  0  0  0  0  0  0  0  0
  -27.8427  -36.0929   23.7301 C   0  0  0  0  0  0  0  0  0  0  0  0
  -25.3226  -29.7291   19.9846 C   0  0  0  0  0  0  0  0  0  0  0  0
  -27.9328  -35.1319   22.7050 C   0  0  0  0  0  0  0  0  0  0  0  0
  -25.3490  -28.7780   21.0146 C   0  0  0  0  0  0  0  0  0  0  0  0
  -27.9761  -19.1985   19.8057 C   0  0  0  0  0  0  0  0  0  0  0  0
  -27.7721  -21.9805   19.8387 C   0  0  0  0  0  0  0  0  0  0  0  0
  -24.1161   -3.9252   19.7012 C   0  0  0  0  0  0  0  0  0  0  0  0
  -26.1923  -27.1221   19.4472 C   0  0  0  0  0  0  0  0  0  0  0  0
  -23.4983   -1.7039   19.2470 C   0  0  0  0  0  0  0  0  0  0  0  0
  -21.5407    0.2836   19.2400 C   0  0  0  0  0  0  0  0  0  0  0  0
  -23.1342   -1.0878   18.0497 C   0  0  0  0  0  0  0  0  0  0  0  0
  -23.0165   -7.7643   21.0977 C   0  0  0  0  0  0  0  0  0  0  0  0
  -22.1869   -9.4387   22.2567 C   0  0  0  0  0  0  0  0  0  0  0  0
  -28.2932  -15.0467   19.7601 C   0  0  0  0  0  0  0  0  0  0  0  0
  -27.0852  -15.5635   19.5420 C   0  0  0  0  0  0  0  0  0  0  0  0
  -26.9129  -17.0428   19.5079 C   0  0  0  0  0  0  0  0  0  0  0  0
  -29.3563  -17.2138   20.0390 C   0  0  0  0  0  0  0  0  0  0  0  0
  -21.6904   -7.1882   23.2247 C   0  0  0  0  0  0  0  0  0  0  0  0
  -28.3521  -24.2811   19.0548 C   0  0  0  0  0  0  0  0  0  0  0  0
  -27.9826  -25.7020   19.3592 C   0  0  0  0  0  0  0  0  0  1  0  0
  -26.3550  -31.8418   22.1234 C   0  0  0  0  0  0  0  0  0  0  0  0
  -23.7234  -30.8855   23.7612 C   0  0  0  0  0  0  0  0  0  0  0  0
  -21.3859  -28.4650   24.3303 C   0  0  0  0  0  0  0  0  0  0  0  0
  -25.8273  -13.5091   19.8633 C   0  0  0  0  0  0  0  0  0  0  0  0
  -27.7167  -35.6968   25.1799 C   0  0  0  0  0  0  0  0  0  0  0  0
  -24.8287  -31.1249   20.2492 C   0  0  0  0  0  0  0  0  0  0  0  0
  -24.9212  -29.1171   22.4183 C   0  0  0  0  0  0  0  0  0  0  0  0
  -27.2632  -34.2529   25.3797 C   0  0  0  0  0  0  0  0  0  0  0  0
  -22.1793  -13.2148   19.3490 C   0  0  0  0  0  0  0  0  0  0  0  0
  -28.0544  -33.3147   24.4738 C   0  0  0  0  0  0  0  0  0  0  0  0
  -21.9349  -11.7779   19.8000 C   0  0  0  0  0  0  0  0  0  0  0  0
  -23.5457  -13.3833   18.6856 C   0  0  0  0  0  0  0  0  0  0  0  0
  -24.4337  -11.4655   19.9804 C   0  0  0  0  0  0  0  0  0  0  0  0
  -27.8240  -33.6507   22.9955 C   0  0  1  0  0  0  0  0  0  0  0  0
  -24.9427  -31.5312   21.7153 C   0  0  1  0  0  0  0  0  0  0  0  0
  -23.0843  -11.2878   20.6935 C   0  0  2  0  0  0  0  0  0  0  0  0
  -19.3838  -27.9560   25.7550 C   0  0  0  0  0  0  0  0  0  0  0  0
  -25.5576  -30.3246   26.1342 C   0  0  0  0  0  0  0  0  0  0  0  0
  -23.7156  -28.9649   27.1473 C   0  0  0  0  0  0  0  0  0  0  0  0
  -23.3805  -31.4014   26.7302 C   0  0  0  0  0  0  0  0  0  0  0  0
  -19.6186  -28.2332   21.9676 C   0  0  0  0  0  0  0  0  0  0  0  0
  -23.4275  -29.8035   24.7715 C   0  0  1  0  0  0  0  0  0  0  0  0
  -19.8728  -28.5304   24.4346 C   0  0  2  0  0  0  0  0  0  0  0  0
  -24.0303  -30.1174   26.1699 C   0  0  0  0  0  0  0  0  0  0  0  0
  -23.3884   -8.8552   20.4226 N   0  0  0  0  0  0  0  0  0  0  0  0
  -22.8688   -9.8572   21.1521 N   0  0  0  0  0  0  0  0  0  0  0  0
  -29.3846  -15.8277   19.9841 N   0  0  0  0  0  0  0  0  0  0  0  0
  -28.0784  -17.8072   19.7893 N   0  0  0  0  0  0  0  0  0  0  0  0
  -24.4521  -30.4968   22.6282 N   0  0  0  0  0  0  0  0  0  0  0  0
  -24.6273  -12.8496   19.5294 N   0  0  0  0  0  0  0  0  0  0  0  0
  -21.6016  -10.3152   23.1002 N   0  0  0  0  0  0  0  0  0  0  0  0
  -21.8664   -5.8069   23.0655 N   0  0  0  0  0  0  0  0  0  0  0  0
  -27.6690  -23.3906   19.8552 N   0  0  0  0  0  0  0  0  0  0  0  0
  -25.9854  -14.7824   19.3230 N   0  0  0  0  0  0  0  0  0  0  0  0
  -26.5432  -33.1409   22.5550 N   0  0  0  0  0  0  0  0  0  0  0  0
  -21.9790  -29.6293   24.7706 N   0  0  0  0  0  0  0  0  0  0  0  0
  -19.2433  -27.7601   23.3249 N   0  3  0  0  0  0  0  0  0  0  0  0
  -25.8116  -17.5323   19.2566 O   0  0  0  0  0  0  0  0  0  0  0  0
  -30.3741  -17.8692   20.2775 O   0  0  0  0  0  0  0  0  0  0  0  0
  -21.0257   -7.6140   24.1996 O   0  0  0  0  0  0  0  0  0  0  0  0
  -29.1628  -24.1058   18.1609 O   0  0  0  0  0  0  0  0  0  0  0  0
  -28.8174  -26.5118   19.7130 O   0  0  0  0  0  0  0  0  0  0  0  0
  -27.2104  -30.9670   22.0534 O   0  0  0  0  0  0  0  0  0  0  0  0
  -23.3166  -32.0319   23.9663 O   0  0  0  0  0  0  0  0  0  0  0  0
  -21.9821  -27.4782   23.9045 O   0  0  0  0  0  0  0  0  0  0  0  0
  -26.6901  -12.9904   20.5810 O   0  0  0  0  0  0  0  0  0  0  0  0
  -24.4704   -2.6901   19.2523 O   0  0  0  0  0  0  0  0  0  0  0  0
  -26.6187  -25.8555   19.1906 O   0  0  0  0  0  0  0  0  0  1  0  0
  -20.6018    1.2390   19.2370 F   0  0  0  0  0  0  0  0  0  0  0  0
  -23.7221   -1.4456   16.8999 F   0  0  0  0  0  0  0  0  0  0  0  0
  1  2  1  0  0  0  0
  1  5  2  0  0  0  0
  2  6  2  0  0  0  0
  3 12  2  0  0  0  0
  3 19  1  0  0  0  0
  4 13  1  0  0  0  0
  4 19  2  0  0  0  0
  5 21  1  0  0  0  0
  6 23  1  0  0  0  0
  7 14  2  0  0  0  0
  7 22  1  0  0  0  0
  8 10  2  0  0  0  0
  8 25  1  0  0  0  0
  9 11  1  0  0  0  0
  9 25  2  0  0  0  0
 10 26  1  0  0  0  0
 11 26  2  0  0  0  0
 12 27  1  0  0  0  0
 13 27  2  0  0  0  0
 14 28  1  0  0  0  0
 15 16  2  0  0  0  0
 15 29  1  0  0  0  0
 16 30  1  0  0  0  0
 17 24  1  0  0  0  0
 17 28  2  0  0  0  0
 18 30  2  0  0  0  0
 18 31  1  0  0  0  0
 19 32  1  0  0  0  0
 20 32  1  0  0  0  0
 20 33  2  0  0  0  0
 20 38  1  0  0  0  0
 21 23  2  0  0  0  0
 21 45  1  0  0  0  0
 22 24  2  0  0  0  0
 22 46  1  0  0  0  0
 23 54  1  0  0  0  0
 24 47  1  0  0  0  0
 25 68  1  0  0  0  0
 26 73  1  0  0  0  0
 27 87  1  0  0  0  0
 28 88  1  0  0  0  0
 29 31  2  0  0  0  0
 29 87  1  0  0  0  0
 30 89  1  0  0  0  0
 31 90  1  0  0  0  0
 32 65  2  0  0  0  0
 33 66  1  0  0  0  0
 33 71  1  0  0  0  0
 34 35  2  0  0  0  0
 34 67  1  0  0  0  0
 35 36  1  0  0  0  0
 35 74  1  0  0  0  0
 36 68  1  0  0  0  0
 36 78  2  0  0  0  0
 37 67  1  0  0  0  0
 37 68  1  0  0  0  0
 37 79  2  0  0  0  0
 38 72  1  0  0  0  0
 38 80  2  0  0  0  0
 39 40  1  0  0  0  0
 39 73  1  0  0  0  0
 39 81  2  0  0  0  0
 40 82  2  0  0  0  0
 40 88  1  0  0  0  0
 41 55  1  0  0  0  0
 41 75  1  0  0  0  0
 41 83  2  0  0  0  0
 42 62  1  0  0  0  0
 42 69  1  0  0  0  0
 42 84  2  0  0  0  0
 43 63  1  0  0  0  0
 43 76  1  0  0  0  0
 43 85  2  0  0  0  0
 44 70  1  0  0  0  0
 44 74  1  0  0  0  0
 44 86  2  0  0  0  0
 45 48  1  0  0  0  0
 46 55  1  0  0  0  0
 47 69  1  0  0  0  0
 48 50  1  0  0  0  0
 49 51  1  0  0  0  0
 49 52  1  0  0  0  0
 50 54  1  0  0  0  0
 51 56  1  0  0  0  0
 52 70  1  0  0  0  0
 53 56  1  0  0  0  0
 53 70  1  0  0  0  0
 54 75  1  0  0  0  0
 55 69  1  0  0  0  0
 56 66  1  0  0  0  0
 57 63  1  0  0  0  0
 58 64  1  0  0  0  0
 59 64  1  0  0  0  0
 60 64  1  0  0  0  0
 61 77  1  0  0  0  0
 62 64  1  0  0  0  0
 62 76  1  0  0  0  0
 63 77  1  0  0  0  0
 65 66  1  0  0  0  0
M  CHG  1  77   1
M  ISO  4  40 101  44 100  74 100  88 101
M  END
> <Batch ID>
0088

> <Smiles>
CNC(C)C(=O)NC(C(=O)N1Cc2cc([101O:1][101C:1](=O)C(=O)Nc3ccc(-n4c(=O)[nH]cc([100NH:0][100C:0](=O)N5CCCC(n6nc(-c7ccc(Oc8ccc(F)cc8F)cc7)c(C(N)=O)c6N)C5)c4=O)cc3)ccc2CC1C(=O)NC1CCCc2ccccc21)C(C)(C)C

> <Shape>
0.278

> <Color>
0.096

> <Negative vol penalty>
0.000

$$$$

  -OEChem-04052300233D

 86 94  0     1  0  0  0  0  0999 V2000
  -28.1371  -19.0346   18.5154 C   0  0  0  0  0  0  0  0  0  0  0  0
  -29.0968  -18.4071   19.3032 C   0  0  0  0  0  0  0  0  0  0  0  0
  -23.1921   -9.8191   19.9309 C   0  0  0  0  0  0  0  0  0  0  0  0
  -23.5714   -9.9980   22.3102 C   0  0  0  0  0  0  0  0  0  0  0  0
  -33.3892  -11.8012   25.1057 C   0  0  0  0  0  0  0  0  0  0  0  0
  -28.3575  -20.3302   18.0498 C   0  0  0  0  0  0  0  0  0  0  0  0
  -30.2781  -19.0746   19.6250 C   0  0  0  0  0  0  0  0  0  0  0  0
  -31.5234  -18.5752   24.5081 C   0  0  0  0  0  0  0  0  0  0  0  0
  -32.6590  -12.1122   23.9587 C   0  0  0  0  0  0  0  0  0  0  0  0
  -22.4271   -8.6714   20.1391 C   0  0  0  0  0  0  0  0  0  0  0  0
  -22.8064   -8.8504   22.5184 C   0  0  0  0  0  0  0  0  0  0  0  0
  -32.1071  -17.3700   24.8963 C   0  0  0  0  0  0  0  0  0  0  0  0
  -23.2110   -5.5043   22.2515 C   0  0  0  0  0  0  0  0  0  0  0  0
  -23.7108   -4.5429   23.1297 C   0  0  0  0  0  0  0  0  0  0  0  0
  -31.4313  -12.2068   26.4620 C   0  0  0  0  0  0  0  0  0  0  0  0
  -34.2829  -18.4094   24.8298 C   0  0  0  0  0  0  0  0  0  0  0  0
  -21.7547   -4.7996   24.5243 C   0  0  0  0  0  0  0  0  0  0  0  0
  -23.7643  -10.4824   21.0164 C   0  0  0  0  0  0  0  0  0  0  0  0
  -32.7753  -11.8484   26.3574 C   0  0  0  0  0  0  0  0  0  0  0  0
  -24.1001  -12.9996   20.7744 C   0  0  0  0  0  0  0  0  0  0  0  0
  -29.5378  -21.0174   18.3740 C   0  0  0  0  0  0  0  0  0  0  0  0
  -32.3175  -19.7055   24.2669 C   0  0  0  0  0  0  0  0  0  0  0  0
  -30.5151  -20.3801   19.1622 C   0  0  0  0  0  0  0  0  0  0  0  0
  -33.7066  -19.6284   24.4412 C   0  0  0  0  0  0  0  0  0  0  0  0
  -31.3151  -12.4707   24.0632 C   0  0  0  0  0  0  0  0  0  0  0  0
  -22.2343   -8.1871   21.4329 C   0  0  0  0  0  0  0  0  0  0  0  0
  -33.4873  -17.2862   25.0544 C   0  0  0  0  0  0  0  0  0  0  0  0
  -21.9830   -6.1136   22.5097 C   0  0  0  0  0  0  0  0  0  0  0  0
  -22.9827   -4.1905   24.2661 C   0  0  0  0  0  0  0  0  0  0  0  0
  -30.7012  -12.5180   25.3149 C   0  0  0  0  0  0  0  0  0  0  0  0
  -21.2549   -5.7612   23.6461 C   0  0  0  0  0  0  0  0  0  0  0  0
  -24.5550  -11.6676   20.8019 C   0  0  0  0  0  0  0  0  0  0  0  0
  -25.2304  -13.7436   20.5391 C   0  0  0  0  0  0  0  0  0  0  0  0
  -34.1675  -14.4258   27.1268 C   0  0  0  0  0  0  0  0  0  0  0  0
  -33.6881  -15.5709   26.6318 C   0  0  0  0  0  0  0  0  0  1  0  0
  -33.5501  -11.5185   27.5744 C   0  0  0  0  0  0  0  0  0  0  0  0
  -22.7744  -13.5179   20.9464 C   0  0  0  0  0  0  0  0  0  0  0  0
  -33.6750  -13.9255   28.4410 C   0  0  0  0  0  0  0  0  0  0  0  0
  -32.8956  -21.5424   21.7380 C   0  0  0  0  0  0  0  0  0  0  0  0
  -34.5428  -23.3203   23.8940 C   0  0  0  0  0  0  0  0  0  0  0  0
  -36.2119  -23.4537   26.8678 C   0  0  0  0  0  0  0  0  0  0  0  0
  -31.0364  -12.7885   21.5798 C   0  0  0  0  0  0  0  0  0  0  0  0
  -29.7522  -22.3990   17.8083 C   0  0  0  0  0  0  0  0  0  0  0  0
  -31.6699  -21.0052   23.8746 C   0  0  0  0  0  0  0  0  0  0  0  0
  -34.6016  -20.8184   24.2143 C   0  0  0  0  0  0  0  0  0  0  0  0
  -30.8656  -23.1766   18.5053 C   0  0  0  0  0  0  0  0  0  0  0  0
  -29.5216  -13.4709   18.4307 C   0  0  0  0  0  0  0  0  0  0  0  0
  -32.1027  -22.3006   18.6756 C   0  0  0  0  0  0  0  0  0  0  0  0
  -28.0339  -13.2130   18.6805 C   0  0  0  0  0  0  0  0  0  0  0  0
  -30.4042  -12.4862   19.1957 C   0  0  0  0  0  0  0  0  0  0  0  0
  -28.6456  -12.1416   20.8862 C   0  0  0  0  0  0  0  0  0  0  0  0
  -31.7982  -21.0805   19.5532 C   0  0  1  0  0  0  0  0  0  0  0  0
  -32.6237  -21.9553   23.1569 C   0  0  1  0  0  0  0  0  0  0  0  0
  -27.7183  -13.1496   20.1878 C   0  0  2  0  0  0  0  0  0  0  0  0
  -37.4812  -25.0361   28.3450 C   0  0  0  0  0  0  0  0  0  0  0  0
  -36.9456  -23.1362   22.0225 C   0  0  0  0  0  0  0  0  0  0  0  0
  -38.3954  -23.8783   23.9240 C   0  0  0  0  0  0  0  0  0  0  0  0
  -36.6033  -25.3846   23.0626 C   0  0  0  0  0  0  0  0  0  0  0  0
  -33.8321  -11.9971   29.9359 C   0  0  0  0  0  0  0  0  0  0  0  0
  -34.2874  -23.1069   29.0892 C   0  0  0  0  0  0  0  0  0  0  0  0
  -35.9643  -23.3378   24.4021 C   0  0  1  0  0  0  0  0  0  0  0  0
  -36.1240  -24.4270   28.0294 C   0  0  2  0  0  0  0  0  0  0  0  0
  -36.9607  -23.9111   23.3553 C   0  0  0  0  0  0  0  0  0  0  0  0
  -25.8716  -11.5681   20.6000 N   0  0  0  0  0  0  0  0  0  0  0  0
  -26.2537  -12.8470   20.4433 N   0  0  0  0  0  0  0  0  0  0  0  0
  -33.9217  -22.0651   23.8258 N   0  0  0  0  0  0  0  0  0  0  0  0
  -30.0512  -12.4833   20.6170 N   0  0  0  0  0  0  0  0  0  0  0  0
  -25.4388  -15.0708   20.4068 N   0  0  0  0  0  0  0  0  0  0  0  0
  -21.7289  -12.6144   21.1802 N   0  0  0  0  0  0  0  0  0  0  0  0
  -30.5763  -12.7867   22.8962 N   0  0  0  0  0  0  0  0  0  0  0  0
  -31.7637  -21.4586   20.9498 N   0  0  0  0  0  0  0  0  0  0  0  0
  -35.9376  -24.0686   25.6644 N   0  0  0  0  0  0  0  0  0  0  0  0
  -33.6810  -12.5152   28.5812 N   0  0  0  0  0  0  0  0  0  0  0  0
  -35.6251  -23.7328   29.2501 N   0  3  0  0  0  0  0  0  0  0  0  0
  -34.0620  -10.4007   27.6372 O   0  0  0  0  0  0  0  0  0  0  0  0
  -22.5219  -14.7447   20.8778 O   0  0  0  0  0  0  0  0  0  0  0  0
  -33.2751  -14.7083   29.3020 O   0  0  0  0  0  0  0  0  0  0  0  0
  -34.0472  -21.3181   21.3841 O   0  0  0  0  0  0  0  0  0  0  0  0
  -34.0010  -24.3820   23.5763 O   0  0  0  0  0  0  0  0  0  0  0  0
  -36.4991  -22.2676   27.0128 O   0  0  0  0  0  0  0  0  0  0  0  0
  -32.1960  -13.0600   21.2580 O   0  0  0  0  0  0  0  0  0  0  0  0
  -21.4877   -7.0674   21.6365 O   0  0  0  0  0  0  0  0  0  0  0  0
  -34.0597  -16.1110   25.4326 O   0  0  0  0  0  0  0  0  0  1  0  0
  -23.4622   -3.2660   25.1085 F   0  0  0  0  0  0  0  0  0  0  0  0
  -29.4101  -12.8617   25.4278 F   0  0  0  0  0  0  0  0  0  0  0  0
  -20.0740   -6.3421   23.8988 F   0  0  0  0  0  0  0  0  0  0  0  0
  1  2  1  0  0  0  0
  1  6  2  0  0  0  0
  2  7  2  0  0  0  0
  3 10  2  0  0  0  0
  3 18  1  0  0  0  0
  4 11  1  0  0  0  0
  4 18  2  0  0  0  0
  5  9  2  0  0  0  0
  5 19  1  0  0  0  0
  6 21  1  0  0  0  0
  7 23  1  0  0  0  0
  8 12  2  0  0  0  0
  8 22  1  0  0  0  0
  9 25  1  0  0  0  0
 10 26  1  0  0  0  0
 11 26  2  0  0  0  0
 12 27  1  0  0  0  0
 13 14  2  0  0  0  0
 13 28  1  0  0  0  0
 14 29  1  0  0  0  0
 15 19  2  0  0  0  0
 15 30  1  0  0  0  0
 16 24  1  0  0  0  0
 16 27  2  0  0  0  0
 17 29  2  0  0  0  0
 17 31  1  0  0  0  0
 18 32  1  0  0  0  0
 19 36  1  0  0  0  0
 20 32  1  0  0  0  0
 20 33  2  0  0  0  0
 20 37  1  0  0  0  0
 21 23  2  0  0  0  0
 21 43  1  0  0  0  0
 22 24  2  0  0  0  0
 22 44  1  0  0  0  0
 23 52  1  0  0  0  0
 24 45  1  0  0  0  0
 25 30  2  0  0  0  0
 25 70  1  0  0  0  0
 26 82  1  0  0  0  0
 27 83  1  0  0  0  0
 28 31  2  0  0  0  0
 28 82  1  0  0  0  0
 29 84  1  0  0  0  0
 30 85  1  0  0  0  0
 31 86  1  0  0  0  0
 32 64  2  0  0  0  0
 33 65  1  0  0  0  0
 33 68  1  0  0  0  0
 34 35  2  0  0  0  0
 34 38  1  0  0  0  0
 35 83  1  0  0  0  0
 36 73  1  0  0  0  0
 36 75  2  0  0  0  0
 37 69  1  0  0  0  0
 37 76  2  0  0  0  0
 38 73  1  0  0  0  0
 38 77  2  0  0  0  0
 39 53  1  0  0  0  0
 39 71  1  0  0  0  0
 39 78  2  0  0  0  0
 40 61  1  0  0  0  0
 40 66  1  0  0  0  0
 40 79  2  0  0  0  0
 41 62  1  0  0  0  0
 41 72  1  0  0  0  0
 41 80  2  0  0  0  0
 42 67  1  0  0  0  0
 42 70  1  0  0  0  0
 42 81  2  0  0  0  0
 43 46  1  0  0  0  0
 44 53  1  0  0  0  0
 45 66  1  0  0  0  0
 46 48  1  0  0  0  0
 47 49  1  0  0  0  0
 47 50  1  0  0  0  0
 48 52  1  0  0  0  0
 49 54  1  0  0  0  0
 50 67  1  0  0  0  0
 51 54  1  0  0  0  0
 51 67  1  0  0  0  0
 52 71  1  0  0  0  0
 53 66  1  0  0  0  0
 54 65  1  0  0  0  0
 55 62  1  0  0  0  0
 56 63  1  0  0  0  0
 57 63  1  0  0  0  0
 58 63  1  0  0  0  0
 59 73  1  0  0  0  0
 60 74  1  0  0  0  0
 61 63  1  0  0  0  0
 61 72  1  0  0  0  0
 62 74  1  0  0  0  0
 64 65  1  0  0  0  0
M  CHG  1  74   1
M  ISO  4  35 101  42 100  70 100  83 101
M  END
> <Batch ID>
0088

> <Smiles>
CNC(C)C(=O)NC(C(=O)N1Cc2cc([101O:1][101CH:1]=CC(=O)N(C)C(=O)c3ccc([100NH:0][100C:0](=O)N4CCCC(n5nc(-c6ccc(Oc7ccc(F)cc7F)cc6)c(C(N)=O)c5N)C4)c(F)c3)ccc2CC1C(=O)NC1CCCc2ccccc21)C(C)(C)C

> <Shape>
0.177

> <Color>
0.182

> <Negative vol penalty>
0.000

$$$$

  -OEChem-04052300233D

 84 93  0     1  0  0  0  0  0999 V2000
  -16.6402  -28.9256   24.2157 C   0  0  0  0  0  0  0  0  0  0  0  0
  -17.5335  -27.8592   24.2070 C   0  0  0  0  0  0  0  0  0  0  0  0
  -32.5357  -18.4685   21.6484 C   0  0  0  0  0  0  0  0  0  0  0  0
  -23.0566   -9.9662   21.5324 C   0  0  0  0  0  0  0  0  0  0  0  0
  -23.7558  -10.9675   23.6171 C   0  0  0  0  0  0  0  0  0  0  0  0
  -16.8949  -30.0533   23.4364 C   0  0  0  0  0  0  0  0  0  0  0  0
  -18.6816  -27.9194   23.4179 C   0  0  0  0  0  0  0  0  0  0  0  0
  -24.1774  -25.5559   24.7281 C   0  0  0  0  0  0  0  0  0  0  0  0
  -31.7206  -19.5643   21.9320 C   0  0  0  0  0  0  0  0  0  0  0  0
  -31.9693  -17.2759   21.1983 C   0  0  0  0  0  0  0  0  0  0  0  0
  -22.3069   -9.0239   22.2364 C   0  0  0  0  0  0  0  0  0  0  0  0
  -23.0060  -10.0252   24.3211 C   0  0  0  0  0  0  0  0  0  0  0  0
  -24.8069  -24.3740   24.3399 C   0  0  0  0  0  0  0  0  0  0  0  0
  -22.8729   -6.1599   23.9397 C   0  0  0  0  0  0  0  0  0  0  0  0
  -22.9649   -4.8276   23.5370 C   0  0  0  0  0  0  0  0  0  0  0  0
  -25.9416  -25.5651   22.5755 C   0  0  0  0  0  0  0  0  0  0  0  0
  -20.5904   -4.7981   23.0920 C   0  0  0  0  0  0  0  0  0  0  0  0
  -23.7811  -10.9380   22.2228 C   0  0  0  0  0  0  0  0  0  0  0  0
  -24.1249  -13.1701   21.0365 C   0  0  0  0  0  0  0  0  0  0  0  0
  -18.0516  -30.1313   22.6448 C   0  0  0  0  0  0  0  0  0  0  0  0
  -24.4173  -26.7510   24.0349 C   0  0  0  0  0  0  0  0  0  0  0  0
  -18.9514  -29.0486   22.6261 C   0  0  0  0  0  0  0  0  0  0  0  0
  -25.3158  -26.7612   22.9585 C   0  0  0  0  0  0  0  0  0  0  0  0
  -30.3391  -19.4675   21.7656 C   0  0  0  0  0  0  0  0  0  0  0  0
  -30.5878  -17.1791   21.0319 C   0  0  0  0  0  0  0  0  0  0  0  0
  -22.2816   -9.0534   23.6307 C   0  0  0  0  0  0  0  0  0  0  0  0
  -25.6869  -24.3779   23.2617 C   0  0  0  0  0  0  0  0  0  0  0  0
  -21.6396   -6.8113   23.9186 C   0  0  0  0  0  0  0  0  0  0  0  0
  -21.8237   -4.1467   23.1131 C   0  0  0  0  0  0  0  0  0  0  0  0
  -20.4984   -6.1304   23.4947 C   0  0  0  0  0  0  0  0  0  0  0  0
  -29.7726  -18.2749   21.3155 C   0  0  0  0  0  0  0  0  0  0  0  0
  -24.5562  -11.9113   21.4962 C   0  0  0  0  0  0  0  0  0  0  0  0
  -25.2259  -13.7033   20.4121 C   0  0  0  0  0  0  0  0  0  0  0  0
  -28.3814  -22.1027   22.5505 C   0  0  0  0  0  0  0  0  0  0  0  0
  -29.8123  -21.8028   22.4873 C   0  0  0  0  0  0  0  0  0  0  0  0
  -27.6681  -23.1867   22.9055 C   0  0  0  0  0  0  0  0  0  1  0  0
  -22.8436  -13.8009   21.1627 C   0  0  0  0  0  0  0  0  0  0  0  0
  -22.6255  -28.7672   22.3532 C   0  0  0  0  0  0  0  0  0  0  0  0
  -25.3493  -30.5280   22.2961 C   0  0  0  0  0  0  0  0  0  0  0  0
  -28.7542  -30.6053   22.5132 C   0  0  0  0  0  0  0  0  0  0  0  0
  -30.6851  -14.7866   20.2492 C   0  0  0  0  0  0  0  0  0  0  0  0
  -18.2602  -31.3511   21.7826 C   0  0  0  0  0  0  0  0  0  0  0  0
  -23.7508  -28.0228   24.4829 C   0  0  0  0  0  0  0  0  0  0  0  0
  -25.6231  -28.0220   22.1940 C   0  0  0  0  0  0  0  0  0  0  0  0
  -28.0940  -20.7020   22.0604 C   0  0  0  0  0  0  0  0  0  0  0  0
  -19.6885  -31.4924   21.2627 C   0  0  0  0  0  0  0  0  0  0  0  0
  -29.6346  -11.5761   19.1237 C   0  0  0  0  0  0  0  0  0  0  0  0
  -20.1894  -30.1620   20.7095 C   0  0  0  0  0  0  0  0  0  0  0  0
  -28.1843  -11.4807   19.6028 C   0  0  0  0  0  0  0  0  0  0  0  0
  -30.5176  -12.3101   20.1314 C   0  0  0  0  0  0  0  0  0  0  0  0
  -28.5746  -13.5355   21.0213 C   0  0  0  0  0  0  0  0  0  0  0  0
  -20.2203  -29.0867   21.8024 C   0  0  1  0  0  0  0  0  0  0  0  0
  -23.6749  -29.0772   23.3830 C   0  0  1  0  0  0  0  0  0  0  0  0
  -27.6332  -12.8613   20.0099 C   0  0  2  0  0  0  0  0  0  0  0  0
  -30.7007  -32.1844   22.3891 C   0  0  0  0  0  0  0  0  0  0  0  0
  -25.0770  -30.6210   19.2585 C   0  0  0  0  0  0  0  0  0  0  0  0
  -27.4686  -31.3513   19.1362 C   0  0  0  0  0  0  0  0  0  0  0  0
  -25.7898  -32.7760   20.3085 C   0  0  0  0  0  0  0  0  0  0  0  0
  -29.5741  -29.9968   25.2911 C   0  0  0  0  0  0  0  0  0  0  0  0
  -26.5468  -30.6154   21.3811 C   0  0  1  0  0  0  0  0  0  0  0  0
  -29.6932  -31.5012   23.3007 C   0  0  2  0  0  0  0  0  0  0  0  0
  -26.2135  -31.3166   20.0340 C   0  0  0  0  0  0  0  0  0  0  0  0
  -25.8317  -11.6598   21.1898 N   0  0  0  0  0  0  0  0  0  0  0  0
  -26.2113  -12.7679   20.5308 N   0  0  0  0  0  0  0  0  0  0  0  0
  -29.5382  -20.5502   22.0460 N   0  0  0  0  0  0  0  0  0  0  0  0
  -24.9417  -29.2386   22.6664 N   0  0  0  0  0  0  0  0  0  0  0  0
  -29.9353  -13.6113   20.4666 N   0  0  0  0  0  0  0  0  0  0  0  0
  -25.4376  -14.8764   19.7785 N   0  0  0  0  0  0  0  0  0  0  0  0
  -21.8235  -13.1133   21.8342 N   0  0  0  0  0  0  0  0  0  0  0  0
  -30.0160  -15.9659   20.5746 N   0  0  0  0  0  0  0  0  0  0  0  0
  -21.3739  -29.2679   22.6572 N   0  0  0  0  0  0  0  0  0  0  0  0
  -27.6011  -31.2682   22.1497 N   0  0  0  0  0  0  0  0  0  0  0  0
  -30.4411  -30.7043   24.3140 N   0  3  0  0  0  0  0  0  0  0  0  0
  -30.8307  -22.4132   22.7381 O   0  0  0  0  0  0  0  0  0  0  0  0
  -22.6053  -14.9338   20.6796 O   0  0  0  0  0  0  0  0  0  0  0  0
  -22.9292  -28.1230   21.3561 O   0  0  0  0  0  0  0  0  0  0  0  0
  -24.8002  -31.5658   22.6743 O   0  0  0  0  0  0  0  0  0  0  0  0
  -29.0190  -29.4357   22.2440 O   0  0  0  0  0  0  0  0  0  0  0  0
  -31.8261  -14.7511   19.7813 O   0  0  0  0  0  0  0  0  0  0  0  0
  -21.5500   -8.1342   24.3180 O   0  0  0  0  0  0  0  0  0  0  0  0
  -26.3022  -23.2256   22.8803 O   0  0  0  0  0  0  0  0  0  1  0  0
  -21.9125   -2.8678   22.7250 F   0  0  0  0  0  0  0  0  0  0  0  0
  -19.3110   -6.7512   23.4712 F   0  0  0  0  0  0  0  0  0  0  0  0
  -28.4434  -18.1816   21.1564 F   0  0  0  0  0  0  0  0  0  0  0  0
  1  2  1  0  0  0  0
  1  6  2  0  0  0  0
  2  7  2  0  0  0  0
  3  9  2  0  0  0  0
  3 10  1  0  0  0  0
  4 11  2  0  0  0  0
  4 18  1  0  0  0  0
  5 12  1  0  0  0  0
  5 18  2  0  0  0  0
  6 20  1  0  0  0  0
  7 22  1  0  0  0  0
  8 13  2  0  0  0  0
  8 21  1  0  0  0  0
  9 24  1  0  0  0  0
 10 25  2  0  0  0  0
 11 26  1  0  0  0  0
 12 26  2  0  0  0  0
 13 27  1  0  0  0  0
 14 15  2  0  0  0  0
 14 28  1  0  0  0  0
 15 29  1  0  0  0  0
 16 23  1  0  0  0  0
 16 27  2  0  0  0  0
 17 29  2  0  0  0  0
 17 30  1  0  0  0  0
 18 32  1  0  0  0  0
 19 32  1  0  0  0  0
 19 33  2  0  0  0  0
 19 37  1  0  0  0  0
 20 22  2  0  0  0  0
 20 42  1  0  0  0  0
 21 23  2  0  0  0  0
 21 43  1  0  0  0  0
 22 52  1  0  0  0  0
 23 44  1  0  0  0  0
 24 31  2  0  0  0  0
 24 65  1  0  0  0  0
 25 31  1  0  0  0  0
 25 70  1  0  0  0  0
 26 80  1  0  0  0  0
 27 81  1  0  0  0  0
 28 30  2  0  0  0  0
 28 80  1  0  0  0  0
 29 82  1  0  0  0  0
 30 83  1  0  0  0  0
 31 84  1  0  0  0  0
 32 63  2  0  0  0  0
 33 64  1  0  0  0  0
 33 68  1  0  0  0  0
 34 35  1  0  0  0  0
 34 36  2  0  0  0  0
 34 45  1  0  0  0  0
 35 65  1  0  0  0  0
 35 74  2  0  0  0  0
 36 81  1  0  0  0  0
 37 69  1  0  0  0  0
 37 75  2  0  0  0  0
 38 53  1  0  0  0  0
 38 71  1  0  0  0  0
 38 76  2  0  0  0  0
 39 60  1  0  0  0  0
 39 66  1  0  0  0  0
 39 77  2  0  0  0  0
 40 61  1  0  0  0  0
 40 72  1  0  0  0  0
 40 78  2  0  0  0  0
 41 67  1  0  0  0  0
 41 70  1  0  0  0  0
 41 79  2  0  0  0  0
 42 46  1  0  0  0  0
 43 53  1  0  0  0  0
 44 66  1  0  0  0  0
 45 65  1  0  0  0  0
 46 48  1  0  0  0  0
 47 49  1  0  0  0  0
 47 50  1  0  0  0  0
 48 52  1  0  0  0  0
 49 54  1  0  0  0  0
 50 67  1  0  0  0  0
 51 54  1  0  0  0  0
 51 67  1  0  0  0  0
 52 71  1  0  0  0  0
 53 66  1  0  0  0  0
 54 64  1  0  0  0  0
 55 61  1  0  0  0  0
 56 62  1  0  0  0  0
 57 62  1  0  0  0  0
 58 62  1  0  0  0  0
 59 73  1  0  0  0  0
 60 62  1  0  0  0  0
 60 72  1  0  0  0  0
 61 73  1  0  0  0  0
 63 64  1  0  0  0  0
M  CHG  1  73   1
M  ISO  4  36 101  41 100  70 100  81 101
M  END
> <Batch ID>
0088

> <Smiles>
CNC(C)C(=O)NC(C(=O)N1Cc2cc([101O:1][101CH:1]=C3CN(c4cccc([100NH:0][100C:0](=O)N5CCCC(n6nc(-c7ccc(Oc8ccc(F)cc8F)cc7)c(C(N)=O)c6N)C5)c4F)C3=O)ccc2CC1C(=O)NC1CCCc2ccccc21)C(C)(C)C

> <Shape>
0.281

> <Color>
0.190

> <Negative vol penalty>
0.000

$$$$

  -OEChem-04052300233D

 84 92  0     1  0  0  0  0  0999 V2000
  -25.9389  -13.1460   21.3296 C   0  0  0  0  0  0  0  0  0  0  0  0
  -17.3007  -20.1894   14.0034 C   0  0  0  0  0  0  0  0  0  0  0  0
  -18.1098  -19.1738   14.5028 C   0  0  0  0  0  0  0  0  0  0  0  0
  -28.2902  -26.5344   18.8960 C   0  0  0  0  0  0  0  0  0  0  0  0
  -29.3273  -25.9495   20.9982 C   0  0  0  0  0  0  0  0  0  0  0  0
  -17.6772  -21.5221   14.1650 C   0  0  0  0  0  0  0  0  0  0  0  0
  -19.2964  -19.4903   15.1633 C   0  0  0  0  0  0  0  0  0  0  0  0
  -21.7917  -16.4967   19.8874 C   0  0  0  0  0  0  0  0  0  0  0  0
  -27.7688  -27.6913   19.4751 C   0  0  0  0  0  0  0  0  0  0  0  0
  -28.8060  -27.1064   21.5774 C   0  0  0  0  0  0  0  0  0  0  0  0
  -22.8097  -15.5471   19.9639 C   0  0  0  0  0  0  0  0  0  0  0  0
  -25.1869  -28.5204   21.4927 C   0  0  0  0  0  0  0  0  0  0  0  0
  -23.8514  -28.8284   21.2341 C   0  0  0  0  0  0  0  0  0  0  0  0
  -28.5346  -13.7422   20.5038 C   0  0  0  0  0  0  0  0  0  0  0  0
  -29.8680  -12.9965   18.6324 C   0  0  0  0  0  0  0  0  0  0  0  0
  -24.3937  -17.2948   20.4696 C   0  0  0  0  0  0  0  0  0  0  0  0
  -24.5273  -30.9234   20.2385 C   0  0  0  0  0  0  0  0  0  0  0  0
  -29.0694  -25.6635   19.6576 C   0  0  0  0  0  0  0  0  0  0  0  0
  -29.5588  -13.9680   19.5843 C   0  0  0  0  0  0  0  0  0  0  0  0
  -30.8482  -24.3272   18.4093 C   0  0  0  0  0  0  0  0  0  0  0  0
  -18.8642  -21.8554   14.8363 C   0  0  0  0  0  0  0  0  0  0  0  0
  -22.0696  -17.8560   20.0909 C   0  0  0  0  0  0  0  0  0  0  0  0
  -19.6898  -20.8287   15.3329 C   0  0  0  0  0  0  0  0  0  0  0  0
  -23.3770  -18.2593   20.3976 C   0  0  0  0  0  0  0  0  0  0  0  0
  -27.8196  -12.5449   20.4715 C   0  0  0  0  0  0  0  0  0  0  0  0
  -28.1288  -11.5734   19.5196 C   0  0  0  0  0  0  0  0  0  0  0  0
  -28.0267  -27.9773   20.8157 C   0  0  0  0  0  0  0  0  0  0  0  0
  -24.1114  -15.9464   20.2522 C   0  0  0  0  0  0  0  0  0  0  0  0
  -26.1928  -29.4139   21.1243 C   0  0  0  0  0  0  0  0  0  0  0  0
  -23.5215  -30.0299   20.6069 C   0  0  0  0  0  0  0  0  0  0  0  0
  -29.1530  -11.7992   18.6000 C   0  0  0  0  0  0  0  0  0  0  0  0
  -25.8629  -30.6153   20.4972 C   0  0  0  0  0  0  0  0  0  0  0  0
  -29.6078  -24.4680   19.0601 C   0  0  0  0  0  0  0  0  0  0  0  0
  -30.8865  -23.0093   18.0246 C   0  0  0  0  0  0  0  0  0  0  0  0
  -24.9927  -14.0269   21.2568 C   0  0  0  0  0  0  0  0  0  1  0  0
  -30.3173  -15.2359   19.6183 C   0  0  0  0  0  0  0  0  0  0  0  0
  -31.8740  -25.3008   18.1736 C   0  0  0  0  0  0  0  0  0  0  0  0
  -21.8451  -20.4820   18.3140 C   0  0  0  0  0  0  0  0  0  0  0  0
  -22.6738  -21.9560   21.0822 C   0  0  0  0  0  0  0  0  0  0  0  0
  -24.1837  -21.7484   24.1357 C   0  0  0  0  0  0  0  0  0  0  0  0
  -30.2043  -17.7126   19.4445 C   0  0  0  0  0  0  0  0  0  0  0  0
  -19.2532  -23.3086   14.9450 C   0  0  0  0  0  0  0  0  0  0  0  0
  -20.9554  -18.8647   20.0313 C   0  0  0  0  0  0  0  0  0  0  0  0
  -23.7239  -19.7040   20.6445 C   0  0  0  0  0  0  0  0  0  0  0  0
  -20.3385  -23.5724   15.9856 C   0  0  0  0  0  0  0  0  0  0  0  0
  -27.3021  -19.4753   17.9519 C   0  0  0  0  0  0  0  0  0  0  0  0
  -21.4729  -22.5629   15.8415 C   0  0  0  0  0  0  0  0  0  0  0  0
  -27.7274  -20.9283   18.1321 C   0  0  0  0  0  0  0  0  0  0  0  0
  -27.8318  -18.5756   19.0677 C   0  0  0  0  0  0  0  0  0  0  0  0
  -29.7384  -20.1286   19.4270 C   0  0  0  0  0  0  0  0  0  0  0  0
  -20.9720  -21.1328   16.0768 C   0  0  1  0  0  0  0  0  0  0  0  0
  -21.4464  -20.2812   19.7488 C   0  0  1  0  0  0  0  0  0  0  0  0
  -29.2526  -21.0258   18.2796 C   0  0  2  0  0  0  0  0  0  0  0  0
  -24.7361  -23.1277   26.1580 C   0  0  0  0  0  0  0  0  0  0  0  0
  -24.9329  -23.3080   19.5399 C   0  0  0  0  0  0  0  0  0  0  0  0
  -25.9888  -23.8901   21.7341 C   0  0  0  0  0  0  0  0  0  0  0  0
  -23.7373  -24.7953   21.1563 C   0  0  0  0  0  0  0  0  0  0  0  0
  -22.5779  -20.0044   25.9075 C   0  0  0  0  0  0  0  0  0  0  0  0
  -23.9768  -22.3464   21.7370 C   0  0  1  0  0  0  0  0  0  0  0  0
  -23.7288  -22.1864   25.5162 C   0  0  2  0  0  0  0  0  0  0  0  0
  -24.6531  -23.5579   21.0353 C   0  0  0  0  0  0  0  0  0  0  0  0
  -28.9087  -23.3302   19.0890 N   0  0  0  0  0  0  0  0  0  0  0  0
  -26.7885  -12.3373   21.4100 N   0  0  0  0  0  0  0  0  0  0  0  0
  -29.7124  -22.4621   18.4515 N   0  0  0  0  0  0  0  0  0  0  0  0
  -22.6011  -20.6533   20.5688 N   0  0  0  0  0  0  0  0  0  0  0  0
  -29.2767  -18.7447   19.2747 N   0  0  0  0  0  0  0  0  0  0  0  0
  -27.4145  -10.3555   19.4745 N   0  0  0  0  0  0  0  0  0  0  0  0
  -31.8096  -22.2767   17.3662 N   0  0  0  0  0  0  0  0  0  0  0  0
  -31.6729  -26.6086   18.6359 N   0  0  0  0  0  0  0  0  0  0  0  0
  -29.6387  -16.3805   19.4436 N   0  0  0  0  0  0  0  0  0  0  0  0
  -20.8081  -20.8812   17.4926 N   0  0  0  0  0  0  0  0  0  0  0  0
  -23.6755  -22.5648   23.1476 N   0  0  0  0  0  0  0  0  0  0  0  0
  -31.6333  -15.1622   19.8157 N   0  3  0  0  0  0  0  0  0  0  0  0
  -23.5590  -21.0026   26.4055 N   0  3  0  0  0  0  0  0  0  0  0  0
  -32.9303  -25.0234   17.5566 O   0  0  0  0  0  0  0  0  0  0  0  0
  -23.0077  -20.2904   17.9775 O   0  0  0  0  0  0  0  0  0  0  0  0
  -21.7520  -22.7743   21.0345 O   0  0  0  0  0  0  0  0  0  0  0  0
  -24.9195  -20.7811   23.9526 O   0  0  0  0  0  0  0  0  0  0  0  0
  -31.4097  -17.8579   19.6170 O   0  0  0  0  0  0  0  0  0  0  0  0
  -27.5183  -29.1063   21.3811 O   0  0  0  0  0  0  0  0  0  0  0  0
  -25.1071  -15.0218   20.3268 O   0  0  0  0  0  0  0  0  0  1  0  0
  -22.2390  -30.3248   20.3572 F   0  0  0  0  0  0  0  0  0  0  0  0
  -29.4592  -10.8722   17.6811 F   0  0  0  0  0  0  0  0  0  0  0  0
  -26.8249  -31.4772   20.1398 F   0  0  0  0  0  0  0  0  0  0  0  0
  1 35  2  0  0  0  0
  1 63  2  0  0  0  0
  2  3  1  0  0  0  0
  2  6  2  0  0  0  0
  3  7  2  0  0  0  0
  4  9  2  0  0  0  0
  4 18  1  0  0  0  0
  5 10  1  0  0  0  0
  5 18  2  0  0  0  0
  6 21  1  0  0  0  0
  7 23  1  0  0  0  0
  8 11  2  0  0  0  0
  8 22  1  0  0  0  0
  9 27  1  0  0  0  0
 10 27  2  0  0  0  0
 11 28  1  0  0  0  0
 12 13  2  0  0  0  0
 12 29  1  0  0  0  0
 13 30  1  0  0  0  0
 14 19  2  0  0  0  0
 14 25  1  0  0  0  0
 15 19  1  0  0  0  0
 15 31  2  0  0  0  0
 16 24  1  0  0  0  0
 16 28  2  0  0  0  0
 17 30  2  0  0  0  0
 17 32  1  0  0  0  0
 18 33  1  0  0  0  0
 19 36  1  0  0  0  0
 20 33  1  0  0  0  0
 20 34  2  0  0  0  0
 20 37  1  0  0  0  0
 21 23  2  0  0  0  0
 21 42  1  0  0  0  0
 22 24  2  0  0  0  0
 22 43  1  0  0  0  0
 23 51  1  0  0  0  0
 24 44  1  0  0  0  0
 25 26  2  0  0  0  0
 25 63  1  0  0  0  0
 26 31  1  0  0  0  0
 26 67  1  0  0  0  0
 27 80  1  0  0  0  0
 28 81  1  0  0  0  0
 29 32  2  0  0  0  0
 29 80  1  0  0  0  0
 30 82  1  0  0  0  0
 31 83  1  0  0  0  0
 32 84  1  0  0  0  0
 33 62  2  0  0  0  0
 34 64  1  0  0  0  0
 34 68  1  0  0  0  0
 35 81  1  0  0  0  0
 36 70  1  0  0  0  0
 36 73  2  0  0  0  0
 37 69  1  0  0  0  0
 37 75  2  0  0  0  0
 38 52  1  0  0  0  0
 38 71  1  0  0  0  0
 38 76  2  0  0  0  0
 39 59  1  0  0  0  0
 39 65  1  0  0  0  0
 39 77  2  0  0  0  0
 40 60  1  0  0  0  0
 40 72  1  0  0  0  0
 40 78  2  0  0  0  0
 41 66  1  0  0  0  0
 41 70  1  0  0  0  0
 41 79  2  0  0  0  0
 42 45  1  0  0  0  0
 43 52  1  0  0  0  0
 44 65  1  0  0  0  0
 45 47  1  0  0  0  0
 46 48  1  0  0  0  0
 46 49  1  0  0  0  0
 47 51  1  0  0  0  0
 48 53  1  0  0  0  0
 49 66  1  0  0  0  0
 50 53  1  0  0  0  0
 50 66  1  0  0  0  0
 51 71  1  0  0  0  0
 52 65  1  0  0  0  0
 53 64  1  0  0  0  0
 54 60  1  0  0  0  0
 55 61  1  0  0  0  0
 56 61  1  0  0  0  0
 57 61  1  0  0  0  0
 58 74  1  0  0  0  0
 59 61  1  0  0  0  0
 59 72  1  0  0  0  0
 60 74  1  0  0  0  0
 62 64  1  0  0  0  0
M  CHG  2  73   1  74   1
M  ISO  4  35 101  41 100  70 100  81 101
M  END
> <Batch ID>
0088

> <Smiles>
CNC(C)C(=O)NC(C(=O)N1Cc2cc([101O:1][101CH:1]=C=Nc3cc(C(=N)[100NH:0][100C:0](=O)N4CCCC(n5nc(-c6ccc(Oc7ccc(F)cc7F)cc6)c(C(N)=O)c5N)C4)cc(F)c3N)ccc2CC1C(=O)NC1CCCc2ccccc21)C(C)(C)C

> <Shape>
0.209

> <Color>
0.073

> <Negative vol penalty>
0.000

$$$$

  -OEChem-04052300233D

 89 98  0     1  0  0  0  0  0999 V2000
  -22.3898   -8.3300   20.7344 C   0  0  0  0  0  0  0  0  0  0  0  0
  -21.8075   -9.5776   20.9341 C   0  0  0  0  0  0  0  0  0  0  0  0
  -25.2537  -26.1058   16.9216 C   0  0  0  0  0  0  0  0  0  0  0  0
  -26.6131  -27.9215   16.0894 C   0  0  0  0  0  0  0  0  0  0  0  0
  -18.8474  -26.6448   23.6858 C   0  0  0  0  0  0  0  0  0  0  0  0
  -23.7533   -8.1534   20.9658 C   0  0  0  0  0  0  0  0  0  0  0  0
  -22.5882  -10.6491   21.3664 C   0  0  0  0  0  0  0  0  0  0  0  0
  -21.9366  -16.5389   19.8201 C   0  0  0  0  0  0  0  0  0  0  0  0
  -18.6459  -25.2673   23.6006 C   0  0  0  0  0  0  0  0  0  0  0  0
  -25.1632  -25.5825   15.6318 C   0  0  0  0  0  0  0  0  0  0  0  0
  -26.5227  -27.3981   14.7997 C   0  0  0  0  0  0  0  0  0  0  0  0
  -21.3290  -17.6160   20.4639 C   0  0  0  0  0  0  0  0  0  0  0  0
  -24.8745  -23.5706   12.6178 C   0  0  0  0  0  0  0  0  0  0  0  0
  -25.0592  -22.1970   12.4609 C   0  0  0  0  0  0  0  0  0  0  0  0
  -23.4675  -18.2771   21.3633 C   0  0  0  0  0  0  0  0  0  0  0  0
  -20.9307  -24.9783   22.8701 C   0  0  0  0  0  0  0  0  0  0  0  0
  -27.2846  -22.3911   13.3813 C   0  0  0  0  0  0  0  0  0  0  0  0
  -25.9787  -27.2754   17.1504 C   0  0  0  0  0  0  0  0  0  0  0  0
  -20.0905  -27.1892   23.3630 C   0  0  0  0  0  0  0  0  0  0  0  0
  -27.0518  -27.5274   19.4509 C   0  0  0  0  0  0  0  0  0  0  0  0
  -24.5530   -9.2256   21.3919 C   0  0  0  0  0  0  0  0  0  0  0  0
  -23.3148  -16.3161   19.9522 C   0  0  0  0  0  0  0  0  0  0  0  0
  -23.9634  -10.4863   21.6050 C   0  0  0  0  0  0  0  0  0  0  0  0
  -24.0906  -17.1979   20.7182 C   0  0  0  0  0  0  0  0  0  0  0  0
  -19.6876  -24.4340   23.1928 C   0  0  0  0  0  0  0  0  0  0  0  0
  -25.7977  -26.2286   14.5709 C   0  0  0  0  0  0  0  0  0  0  0  0
  -22.0939  -18.4836   21.2380 C   0  0  0  0  0  0  0  0  0  0  0  0
  -25.8949  -24.3545   13.1564 C   0  0  0  0  0  0  0  0  0  0  0  0
  -26.2642  -21.6072   12.8427 C   0  0  0  0  0  0  0  0  0  0  0  0
  -21.1321  -26.3560   22.9552 C   0  0  0  0  0  0  0  0  0  0  0  0
  -27.1000  -23.7647   13.5381 C   0  0  0  0  0  0  0  0  0  0  0  0
  -26.0721  -27.8168   18.4824 C   0  0  0  0  0  0  0  0  0  0  0  0
  -26.6979  -28.2910   20.5363 C   0  0  0  0  0  0  0  0  0  0  0  0
  -18.7223  -20.9247   23.4689 C   0  0  0  0  0  0  0  0  0  0  0  0
  -19.6130  -20.8556   22.4766 C   0  0  0  0  0  0  0  0  0  0  0  0
  -18.6120  -22.3372   23.8920 C   0  0  0  0  0  0  0  0  0  0  0  0
  -20.1319  -22.2176   22.2273 C   0  0  0  0  0  0  0  0  0  0  0  0
  -20.2995  -28.6573   23.4525 C   0  0  0  0  0  0  0  0  0  0  0  0
  -28.1810  -26.6471   19.3761 C   0  0  0  0  0  0  0  0  0  0  0  0
  -25.1047  -13.9684   21.1303 C   0  0  0  0  0  0  0  0  0  0  0  0
  -27.5371  -15.7427   19.9229 C   0  0  0  0  0  0  0  0  0  0  0  0
  -28.6773  -18.8037   18.9345 C   0  0  0  0  0  0  0  0  0  0  0  0
  -21.5434  -30.5481   22.4519 C   0  0  0  0  0  0  0  0  0  0  0  0
  -26.0131   -8.9747   21.6744 C   0  0  0  0  0  0  0  0  0  0  0  0
  -23.9595  -15.1652   19.2297 C   0  0  0  0  0  0  0  0  0  0  0  0
  -25.5772  -17.0144   20.8754 C   0  0  0  0  0  0  0  0  0  0  0  0
  -26.8431  -10.2523   21.7711 C   0  0  0  0  0  0  0  0  0  0  0  0
  -24.4660  -32.3781   21.6732 C   0  0  0  0  0  0  0  0  0  0  0  0
  -26.1373  -11.2824   22.6472 C   0  0  0  0  0  0  0  0  0  0  0  0
  -25.3091  -31.3863   20.8671 C   0  0  0  0  0  0  0  0  0  0  0  0
  -22.9772  -32.2472   21.3551 C   0  0  0  0  0  0  0  0  0  0  0  0
  -23.2736  -29.9028   20.6666 C   0  0  0  0  0  0  0  0  0  0  0  0
  -24.7819  -11.6790   22.0496 C   0  0  1  0  0  0  0  0  0  0  0  0
  -25.2850  -14.7365   19.8515 C   0  0  1  0  0  0  0  0  0  0  0  0
  -24.7730  -29.9470   21.0030 C   0  0  1  0  0  0  0  0  0  0  0  0
  -17.9155  -19.8611   24.1161 C   0  0  0  0  0  0  0  0  0  0  0  0
  -30.7195  -19.9468   18.0289 C   0  0  0  0  0  0  0  0  0  0  0  0
  -28.8169  -15.6439   22.6910 C   0  0  0  0  0  0  0  0  0  0  0  0
  -30.3007  -17.5369   21.9961 C   0  0  0  0  0  0  0  0  0  0  0  0
  -30.4173  -15.3560   20.7909 C   0  0  0  0  0  0  0  0  0  0  0  0
  -27.2646  -19.6269   16.4675 C   0  0  0  0  0  0  0  0  0  0  0  0
  -20.0955  -19.6903   21.6924 C   0  0  0  0  0  0  0  0  0  1  0  0
  -28.4112  -16.8560   20.4478 C   0  0  1  0  0  0  0  0  0  0  0  0
  -29.4133  -19.2486   17.6836 C   0  0  2  0  0  0  0  0  0  0  0  0
  -29.4582  -16.3508   21.4803 C   0  0  0  0  0  0  0  0  0  0  0  0
  -25.1637  -28.6956   18.9144 N   0  0  0  0  0  0  0  0  0  0  0  0
  -25.5712  -28.9649   20.1664 N   0  0  0  0  0  0  0  0  0  0  0  0
  -19.4866  -23.0608   23.1080 N   0  0  0  0  0  0  0  0  0  0  0  0
  -26.1602  -15.8707   20.1545 N   0  0  0  0  0  0  0  0  0  0  0  0
  -22.5463  -30.8574   21.5166 N   0  0  0  0  0  0  0  0  0  0  0  0
  -27.2434  -28.4450   21.7615 N   0  0  0  0  0  0  0  0  0  0  0  0
  -28.3981  -25.9384   18.1866 N   0  0  0  0  0  0  0  0  0  0  0  0
  -21.2328  -29.1881   22.5617 N   0  0  0  0  0  0  0  0  0  0  0  0
  -24.9648  -12.6051   20.9527 N   0  0  0  0  0  0  0  0  0  0  0  0
  -28.9915  -17.5056   19.2774 N   0  0  0  0  0  0  0  0  0  0  0  0
  -28.5709  -20.1912   16.8945 N   0  3  0  0  0  0  0  0  0  0  0  0
  -17.8698  -22.7323   24.7773 O   0  0  0  0  0  0  0  0  0  0  0  0
  -20.9732  -22.4874   21.3846 O   0  0  0  0  0  0  0  0  0  0  0  0
  -19.6325  -29.3087   24.2517 O   0  0  0  0  0  0  0  0  0  0  0  0
  -28.9647  -26.4810   20.3414 O   0  0  0  0  0  0  0  0  0  0  0  0
  -25.0949  -14.5679   22.1990 O   0  0  0  0  0  0  0  0  0  0  0  0
  -28.0561  -14.7979   19.3232 O   0  0  0  0  0  0  0  0  0  0  0  0
  -27.9040  -19.5358   19.5482 O   0  0  0  0  0  0  0  0  0  0  0  0
  -20.9984  -31.4039   23.1560 O   0  0  0  0  0  0  0  0  0  0  0  0
  -25.7098  -25.7180   13.3122 O   0  0  0  0  0  0  0  0  0  0  0  0
  -21.5032  -19.5353   21.8679 O   0  0  0  0  0  0  0  0  0  1  0  0
  -26.4409  -20.2879   12.6934 F   0  0  0  0  0  0  0  0  0  0  0  0
  -22.3309  -26.8682   22.6422 F   0  0  0  0  0  0  0  0  0  0  0  0
  -28.0835  -24.5125   14.0572 F   0  0  0  0  0  0  0  0  0  0  0  0
  1  2  1  0  0  0  0
  1  6  2  0  0  0  0
  2  7  2  0  0  0  0
  3 10  2  0  0  0  0
  3 18  1  0  0  0  0
  4 11  1  0  0  0  0
  4 18  2  0  0  0  0
  5  9  2  0  0  0  0
  5 19  1  0  0  0  0
  6 21  1  0  0  0  0
  7 23  1  0  0  0  0
  8 12  2  0  0  0  0
  8 22  1  0  0  0  0
  9 25  1  0  0  0  0
 10 26  1  0  0  0  0
 11 26  2  0  0  0  0
 12 27  1  0  0  0  0
 13 14  2  0  0  0  0
 13 28  1  0  0  0  0
 14 29  1  0  0  0  0
 15 24  1  0  0  0  0
 15 27  2  0  0  0  0
 16 25  2  0  0  0  0
 16 30  1  0  0  0  0
 17 29  2  0  0  0  0
 17 31  1  0  0  0  0
 18 32  1  0  0  0  0
 19 30  2  0  0  0  0
 19 38  1  0  0  0  0
 20 32  1  0  0  0  0
 20 33  2  0  0  0  0
 20 39  1  0  0  0  0
 21 23  2  0  0  0  0
 21 44  1  0  0  0  0
 22 24  2  0  0  0  0
 22 45  1  0  0  0  0
 23 53  1  0  0  0  0
 24 46  1  0  0  0  0
 25 68  1  0  0  0  0
 26 85  1  0  0  0  0
 27 86  1  0  0  0  0
 28 31  2  0  0  0  0
 28 85  1  0  0  0  0
 29 87  1  0  0  0  0
 30 88  1  0  0  0  0
 31 89  1  0  0  0  0
 32 66  2  0  0  0  0
 33 67  1  0  0  0  0
 33 71  1  0  0  0  0
 34 35  2  0  0  0  0
 34 36  1  0  0  0  0
 34 56  1  0  0  0  0
 35 37  1  0  0  0  0
 35 62  1  0  0  0  0
 36 68  1  0  0  0  0
 36 77  2  0  0  0  0
 37 68  1  0  0  0  0
 37 78  2  0  0  0  0
 38 73  1  0  0  0  0
 38 79  2  0  0  0  0
 39 72  1  0  0  0  0
 39 80  2  0  0  0  0
 40 54  1  0  0  0  0
 40 74  1  0  0  0  0
 40 81  2  0  0  0  0
 41 63  1  0  0  0  0
 41 69  1  0  0  0  0
 41 82  2  0  0  0  0
 42 64  1  0  0  0  0
 42 75  1  0  0  0  0
 42 83  2  0  0  0  0
 43 70  1  0  0  0  0
 43 73  1  0  0  0  0
 43 84  2  0  0  0  0
 44 47  1  0  0  0  0
 45 54  1  0  0  0  0
 46 69  1  0  0  0  0
 47 49  1  0  0  0  0
 48 50  1  0  0  0  0
 48 51  1  0  0  0  0
 49 53  1  0  0  0  0
 50 55  1  0  0  0  0
 51 70  1  0  0  0  0
 52 55  1  0  0  0  0
 52 70  1  0  0  0  0
 53 74  1  0  0  0  0
 54 69  1  0  0  0  0
 55 67  1  0  0  0  0
 57 64  1  0  0  0  0
 58 65  1  0  0  0  0
 59 65  1  0  0  0  0
 60 65  1  0  0  0  0
 61 76  1  0  0  0  0
 62 86  1  0  0  0  0
 63 65  1  0  0  0  0
 63 75  1  0  0  0  0
 64 76  1  0  0  0  0
 66 67  1  0  0  0  0
M  CHG  1  76   1
M  ISO  4  43 100  62 101  73 100  86 101
M  END
> <Batch ID>
0088

> <Smiles>
CNC(C)C(=O)NC(C(=O)N1Cc2cc([101O:1][101CH2:1]C3=C(C)C(=O)N(c4ccc(C(=O)[100NH:0][100C:0](=O)N5CCCC(n6nc(-c7ccc(Oc8ccc(F)cc8F)cc7)c(C(N)=O)c6N)C5)c(F)c4)C3=O)ccc2CC1C(=O)NC1CCCc2ccccc21)C(C)(C)C

> <Shape>
0.230

> <Color>
0.063

> <Negative vol penalty>
0.000

$$$$

  -OEChem-04052300233D

 86 95  0     1  0  0  0  0  0999 V2000
  -26.9409  -36.4453   21.4566 C   0  0  0  0  0  0  0  0  0  0  0  0
  -27.7539  -35.3168   21.4269 C   0  0  0  0  0  0  0  0  0  0  0  0
  -23.6246   -9.7573   21.9416 C   0  0  0  0  0  0  0  0  0  0  0  0
  -24.4728  -11.0913   23.7686 C   0  0  0  0  0  0  0  0  0  0  0  0
  -25.6016  -36.3287   21.8265 C   0  0  0  0  0  0  0  0  0  0  0  0
  -27.2283  -34.0711   21.7682 C   0  0  0  0  0  0  0  0  0  0  0  0
  -28.7406  -28.6503   19.3528 C   0  0  0  0  0  0  0  0  0  0  0  0
  -31.7411  -19.2854   19.6185 C   0  0  0  0  0  0  0  0  0  0  0  0
  -31.2696  -17.9915   19.3970 C   0  0  0  0  0  0  0  0  0  0  0  0
  -23.1273   -8.8256   22.8528 C   0  0  0  0  0  0  0  0  0  0  0  0
  -23.9755  -10.1597   24.6798 C   0  0  0  0  0  0  0  0  0  0  0  0
  -29.5970  -27.6378   19.7831 C   0  0  0  0  0  0  0  0  0  0  0  0
  -24.3367   -6.2905   24.7330 C   0  0  0  0  0  0  0  0  0  0  0  0
  -24.5565   -4.9398   24.4629 C   0  0  0  0  0  0  0  0  0  0  0  0
  -27.7224  -26.4752   20.7594 C   0  0  0  0  0  0  0  0  0  0  0  0
  -29.4784  -20.0462   19.9910 C   0  0  0  0  0  0  0  0  0  0  0  0
  -22.1708   -4.5614   24.4142 C   0  0  0  0  0  0  0  0  0  0  0  0
  -24.2974  -10.8901   22.3995 C   0  0  0  0  0  0  0  0  0  0  0  0
  -24.1439  -12.9806   20.9455 C   0  0  0  0  0  0  0  0  0  0  0  0
  -25.0570  -35.0795   22.1632 C   0  0  0  0  0  0  0  0  0  0  0  0
  -27.3679  -28.5881   19.6326 C   0  0  0  0  0  0  0  0  0  0  0  0
  -25.8809  -33.9379   22.1443 C   0  0  0  0  0  0  0  0  0  0  0  0
  -26.8503  -27.4869   20.3294 C   0  0  0  0  0  0  0  0  0  0  0  0
  -30.8455  -20.3128   19.9156 C   0  0  0  0  0  0  0  0  0  0  0  0
  -29.9026  -17.7249   19.4724 C   0  0  0  0  0  0  0  0  0  0  0  0
  -29.0069  -18.7522   19.7694 C   0  0  0  0  0  0  0  0  0  0  0  0
  -23.3027   -9.0268   24.2219 C   0  0  0  0  0  0  0  0  0  0  0  0
  -29.0885  -26.5515   20.4890 C   0  0  0  0  0  0  0  0  0  0  0  0
  -23.0339   -6.7766   24.8439 C   0  0  0  0  0  0  0  0  0  0  0  0
  -23.4735   -4.0753   24.3034 C   0  0  0  0  0  0  0  0  0  0  0  0
  -21.9510   -5.9121   24.6844 C   0  0  0  0  0  0  0  0  0  0  0  0
  -24.8118  -11.8526   21.4587 C   0  0  0  0  0  0  0  0  0  0  0  0
  -25.0547  -13.5630   20.0984 C   0  0  0  0  0  0  0  0  0  0  0  0
  -32.6312  -23.3842   20.7163 C   0  0  0  0  0  0  0  0  0  0  0  0
  -31.4872  -23.8862   20.2559 C   0  0  0  0  0  0  0  0  0  0  0  0
  -32.5522  -21.9175   20.6624 C   0  0  0  0  0  0  0  0  0  0  0  0
  -30.6160  -22.7615   19.8628 C   0  0  0  0  0  0  0  0  0  0  0  0
  -22.8186  -13.4591   21.2108 C   0  0  0  0  0  0  0  0  0  0  0  0
  -25.3306  -30.3877   21.2803 C   0  0  0  0  0  0  0  0  0  0  0  0
  -23.1338  -28.3448   20.0463 C   0  0  0  0  0  0  0  0  0  0  0  0
  -22.4531  -25.2683   18.7353 C   0  0  0  0  0  0  0  0  0  0  0  0
  -30.2220  -15.2835   18.9398 C   0  0  0  0  0  0  0  0  0  0  0  0
  -23.6158  -35.0104   22.6023 C   0  0  0  0  0  0  0  0  0  0  0  0
  -26.4533  -29.6751   19.1383 C   0  0  0  0  0  0  0  0  0  0  0  0
  -25.3812  -27.3627   20.6377 C   0  0  0  0  0  0  0  0  0  0  0  0
  -23.0417  -33.5960   22.5876 C   0  0  0  0  0  0  0  0  0  0  0  0
  -29.4833  -11.8520   18.3429 C   0  0  0  0  0  0  0  0  0  0  0  0
  -24.0114  -32.6194   23.2453 C   0  0  0  0  0  0  0  0  0  0  0  0
  -28.1472  -11.6390   19.0581 C   0  0  0  0  0  0  0  0  0  0  0  0
  -30.3916  -12.8102   19.1114 C   0  0  0  0  0  0  0  0  0  0  0  0
  -28.4462  -13.8883   20.1709 C   0  0  0  0  0  0  0  0  0  0  0  0
  -25.3413  -32.5654   22.4838 C   0  0  1  0  0  0  0  0  0  0  0  0
  -25.1496  -29.7631   19.9258 C   0  0  1  0  0  0  0  0  0  0  0  0
  -27.4718  -12.9811   19.4019 C   0  0  2  0  0  0  0  0  0  0  0  0
  -20.5591  -23.8773   17.8549 C   0  0  0  0  0  0  0  0  0  0  0  0
  -22.1702  -27.8554   22.8997 C   0  0  0  0  0  0  0  0  0  0  0  0
  -20.9786  -25.8146   22.0731 C   0  0  0  0  0  0  0  0  0  0  0  0
  -20.3444  -28.0650   21.2036 C   0  0  0  0  0  0  0  0  0  0  0  0
  -23.7085  -25.0405   16.0649 C   0  0  0  0  0  0  0  0  0  0  0  0
  -31.0817  -25.3084   20.1184 C   0  0  0  0  0  0  0  0  0  1  0  0
  -22.5346  -27.0291   20.4809 C   0  0  1  0  0  0  0  0  0  0  0  0
  -21.6743  -24.8490   17.5016 C   0  0  2  0  0  0  0  0  0  0  0  0
  -21.5350  -27.1940   21.6604 C   0  0  0  0  0  0  0  0  0  0  0  0
  -26.0513  -11.7242   20.9777 N   0  0  0  0  0  0  0  0  0  0  0  0
  -26.1693  -12.7789   20.1533 N   0  0  0  0  0  0  0  0  0  0  0  0
  -31.3158  -21.6023   20.1365 N   0  0  0  0  0  0  0  0  0  0  0  0
  -24.5285  -28.4542   20.1387 N   0  0  0  0  0  0  0  0  0  0  0  0
  -29.6862  -14.0613   19.3981 N   0  0  0  0  0  0  0  0  0  0  0  0
  -27.6182  -18.5042   19.8510 N   0  0  0  0  0  0  0  0  0  0  0  0
  -25.0029  -14.6642   19.3192 N   0  0  0  0  0  0  0  0  0  0  0  0
  -22.0158  -12.7405   22.1072 N   0  0  0  0  0  0  0  0  0  0  0  0
  -29.4476  -16.4026   19.2438 N   0  0  0  0  0  0  0  0  0  0  0  0
  -25.2059  -31.7639   21.2864 N   0  0  0  0  0  0  0  0  0  0  0  0
  -21.9533  -26.4302   19.2843 N   0  0  0  0  0  0  0  0  0  0  0  0
  -22.5784  -24.1891   16.5177 N   0  3  0  0  0  0  0  0  0  0  0  0
  -33.4500  -21.1768   21.0290 O   0  0  0  0  0  0  0  0  0  0  0  0
  -29.4970  -22.8906   19.3926 O   0  0  0  0  0  0  0  0  0  0  0  0
  -22.3541  -14.4840   20.6565 O   0  0  0  0  0  0  0  0  0  0  0  0
  -25.5646  -29.6739   22.2484 O   0  0  0  0  0  0  0  0  0  0  0  0
  -22.3923  -29.2399   19.6331 O   0  0  0  0  0  0  0  0  0  0  0  0
  -23.4070  -24.6272   19.1706 O   0  0  0  0  0  0  0  0  0  0  0  0
  -31.2755  -15.3307   18.2995 O   0  0  0  0  0  0  0  0  0  0  0  0
  -22.8174   -8.1180   25.1113 O   0  0  0  0  0  0  0  0  0  0  0  0
  -29.9224  -25.5622   20.9106 O   0  0  0  0  0  0  0  0  0  1  0  0
  -23.6847   -2.7786   24.0425 F   0  0  0  0  0  0  0  0  0  0  0  0
  -20.6972   -6.3735   24.7886 F   0  0  0  0  0  0  0  0  0  0  0  0
  1  2  1  0  0  0  0
  1  5  2  0  0  0  0
  2  6  2  0  0  0  0
  3 10  2  0  0  0  0
  3 18  1  0  0  0  0
  4 11  1  0  0  0  0
  4 18  2  0  0  0  0
  5 20  1  0  0  0  0
  6 22  1  0  0  0  0
  7 12  2  0  0  0  0
  7 21  1  0  0  0  0
  8  9  2  0  0  0  0
  8 24  1  0  0  0  0
  9 25  1  0  0  0  0
 10 27  1  0  0  0  0
 11 27  2  0  0  0  0
 12 28  1  0  0  0  0
 13 14  2  0  0  0  0
 13 29  1  0  0  0  0
 14 30  1  0  0  0  0
 15 23  1  0  0  0  0
 15 28  2  0  0  0  0
 16 24  2  0  0  0  0
 16 26  1  0  0  0  0
 17 30  2  0  0  0  0
 17 31  1  0  0  0  0
 18 32  1  0  0  0  0
 19 32  1  0  0  0  0
 19 33  2  0  0  0  0
 19 38  1  0  0  0  0
 20 22  2  0  0  0  0
 20 43  1  0  0  0  0
 21 23  2  0  0  0  0
 21 44  1  0  0  0  0
 22 52  1  0  0  0  0
 23 45  1  0  0  0  0
 24 66  1  0  0  0  0
 25 26  2  0  0  0  0
 25 72  1  0  0  0  0
 26 69  1  0  0  0  0
 27 83  1  0  0  0  0
 28 84  1  0  0  0  0
 29 31  2  0  0  0  0
 29 83  1  0  0  0  0
 30 85  1  0  0  0  0
 31 86  1  0  0  0  0
 32 64  2  0  0  0  0
 33 65  1  0  0  0  0
 33 70  1  0  0  0  0
 34 35  2  0  0  0  0
 34 36  1  0  0  0  0
 35 37  1  0  0  0  0
 35 60  1  0  0  0  0
 36 66  1  0  0  0  0
 36 76  2  0  0  0  0
 37 66  1  0  0  0  0
 37 77  2  0  0  0  0
 38 71  1  0  0  0  0
 38 78  2  0  0  0  0
 39 53  1  0  0  0  0
 39 73  1  0  0  0  0
 39 79  2  0  0  0  0
 40 61  1  0  0  0  0
 40 67  1  0  0  0  0
 40 80  2  0  0  0  0
 41 62  1  0  0  0  0
 41 74  1  0  0  0  0
 41 81  2  0  0  0  0
 42 68  1  0  0  0  0
 42 72  1  0  0  0  0
 42 82  2  0  0  0  0
 43 46  1  0  0  0  0
 44 53  1  0  0  0  0
 45 67  1  0  0  0  0
 46 48  1  0  0  0  0
 47 49  1  0  0  0  0
 47 50  1  0  0  0  0
 48 52  1  0  0  0  0
 49 54  1  0  0  0  0
 50 68  1  0  0  0  0
 51 54  1  0  0  0  0
 51 68  1  0  0  0  0
 52 73  1  0  0  0  0
 53 67  1  0  0  0  0
 54 65  1  0  0  0  0
 55 62  1  0  0  0  0
 56 63  1  0  0  0  0
 57 63  1  0  0  0  0
 58 63  1  0  0  0  0
 59 75  1  0  0  0  0
 60 84  1  0  0  0  0
 61 63  1  0  0  0  0
 61 74  1  0  0  0  0
 62 75  1  0  0  0  0
 64 65  1  0  0  0  0
M  CHG  1  75   1
M  ISO  4  42 100  60 101  72 100  84 101
M  END
> <Batch ID>
0088

> <Smiles>
CNC(C)C(=O)NC(C(=O)N1Cc2cc([101O:1][101CH2:1]C3=CC(=O)N(c4ccc([100NH:0][100C:0](=O)N5CCCC(n6nc(-c7ccc(Oc8ccc(F)cc8F)cc7)c(C(N)=O)c6N)C5)c(N)c4)C3=O)ccc2CC1C(=O)NC1CCCc2ccccc21)C(C)(C)C

> <Shape>
0.300

> <Color>
0.127

> <Negative vol penalty>
0.000

$$$$

  -OEChem-04052300233D

 88 97  0     1  0  0  0  0  0999 V2000
  -29.6268  -36.7034   22.9954 C   0  0  0  0  0  0  0  0  0  0  0  0
  -29.6771  -35.7746   21.9609 C   0  0  0  0  0  0  0  0  0  0  0  0
  -24.7857   -8.7874   21.5859 C   0  0  0  0  0  0  0  0  0  0  0  0
  -23.1939  -10.3093   20.5925 C   0  0  0  0  0  0  0  0  0  0  0  0
  -25.4652  -18.9403   16.8142 C   0  0  0  0  0  0  0  0  0  0  0  0
  -29.1510  -36.3232   24.2496 C   0  0  0  0  0  0  0  0  0  0  0  0
  -29.2526  -34.4646   22.1803 C   0  0  0  0  0  0  0  0  0  0  0  0
  -26.1046  -28.9788   18.8170 C   0  0  0  0  0  0  0  0  0  0  0  0
  -25.9863  -20.1348   17.3114 C   0  0  0  0  0  0  0  0  0  0  0  0
  -23.7910   -8.3002   22.4336 C   0  0  0  0  0  0  0  0  0  0  0  0
  -22.1991   -9.8221   21.4402 C   0  0  0  0  0  0  0  0  0  0  0  0
  -26.2914  -27.6207   18.5632 C   0  0  0  0  0  0  0  0  0  0  0  0
  -21.1828   -6.1571   22.2400 C   0  0  0  0  0  0  0  0  0  0  0  0
  -21.0856   -4.7747   22.3981 C   0  0  0  0  0  0  0  0  0  0  0  0
  -25.4143  -27.0978   20.7487 C   0  0  0  0  0  0  0  0  0  0  0  0
  -21.4850   -5.0176   24.7685 C   0  0  0  0  0  0  0  0  0  0  0  0
  -24.4872   -9.7920   20.6653 C   0  0  0  0  0  0  0  0  0  0  0  0
  -25.8799  -17.7215   17.3511 C   0  0  0  0  0  0  0  0  0  0  0  0
  -25.8527   -9.8150   18.5107 C   0  0  0  0  0  0  0  0  0  0  0  0
  -28.7114  -35.0104   24.4818 C   0  0  0  0  0  0  0  0  0  0  0  0
  -25.5804  -29.4079   20.0448 C   0  0  0  0  0  0  0  0  0  0  0  0
  -28.7717  -34.0661   23.4392 C   0  0  0  0  0  0  0  0  0  0  0  0
  -25.2194  -28.4618   21.0146 C   0  0  0  0  0  0  0  0  0  0  0  0
  -26.9222  -20.1106   18.3454 C   0  0  0  0  0  0  0  0  0  0  0  0
  -26.8158  -17.6973   18.3851 C   0  0  0  0  0  0  0  0  0  0  0  0
  -22.4976   -8.8175   22.3608 C   0  0  0  0  0  0  0  0  0  0  0  0
  -25.9490  -26.6801   19.5303 C   0  0  0  0  0  0  0  0  0  0  0  0
  -21.4312   -6.9698   23.3461 C   0  0  0  0  0  0  0  0  0  0  0  0
  -21.2367   -4.2049   23.6623 C   0  0  0  0  0  0  0  0  0  0  0  0
  -21.5822   -6.4001   24.6103 C   0  0  0  0  0  0  0  0  0  0  0  0
  -27.3369  -18.8918   18.8823 C   0  0  0  0  0  0  0  0  0  0  0  0
  -25.5146  -10.2960   19.7898 C   0  0  0  0  0  0  0  0  0  0  0  0
  -26.8826  -10.6257   18.1002 C   0  0  0  0  0  0  0  0  0  0  0  0
  -27.6167  -23.5074   19.4359 C   0  0  0  0  0  0  0  0  0  0  0  0
  -28.8858  -22.8547   19.7857 C   0  0  0  0  0  0  0  0  0  0  0  0
  -26.7061  -22.5120   18.8347 C   0  0  0  0  0  0  0  0  0  0  0  0
  -24.0149  -16.2310   16.7897 C   0  0  0  0  0  0  0  0  0  0  0  0
  -25.3123  -16.4943   16.8054 C   0  0  0  0  0  0  0  0  0  0  0  0
  -27.3296  -24.7947   19.6295 C   0  0  0  0  0  0  0  0  0  1  0  0
  -25.2863   -8.7323   17.7605 C   0  0  0  0  0  0  0  0  0  0  0  0
  -26.6501  -31.2135   22.4322 C   0  0  0  0  0  0  0  0  0  0  0  0
  -23.6278  -30.8420   23.5503 C   0  0  0  0  0  0  0  0  0  0  0  0
  -20.7610  -28.9909   23.5916 C   0  0  0  0  0  0  0  0  0  0  0  0
  -28.5005  -16.2017   19.5128 C   0  0  0  0  0  0  0  0  0  0  0  0
  -28.2495  -34.6339   25.8673 C   0  0  0  0  0  0  0  0  0  0  0  0
  -25.3601  -30.8750   20.2928 C   0  0  0  0  0  0  0  0  0  0  0  0
  -24.6341  -28.8695   22.3411 C   0  0  0  0  0  0  0  0  0  0  0  0
  -28.7996  -21.4065   19.4035 C   0  0  0  0  0  0  0  0  0  0  0  0
  -27.4677  -33.3236   25.9137 C   0  0  0  0  0  0  0  0  0  0  0  0
  -30.4876  -13.2640   19.8259 C   0  0  0  0  0  0  0  0  0  0  0  0
  -28.1853  -32.2451   25.1082 C   0  0  0  0  0  0  0  0  0  0  0  0
  -29.4693  -12.1256   19.7296 C   0  0  0  0  0  0  0  0  0  0  0  0
  -29.9239  -14.4669   20.5802 C   0  0  0  0  0  0  0  0  0  0  0  0
  -27.6207  -13.8305   19.9804 C   0  0  0  0  0  0  0  0  0  0  0  0
  -28.2969  -32.6421   23.6313 C   0  0  1  0  0  0  0  0  0  0  0  0
  -25.2986  -31.2278   21.7757 C   0  0  1  0  0  0  0  0  0  0  0  0
  -28.1205  -12.6216   19.1727 C   0  0  2  0  0  0  0  0  0  0  0  0
  -18.4772  -28.9191   24.6292 C   0  0  0  0  0  0  0  0  0  0  0  0
  -24.8505  -29.8601   26.1677 C   0  0  0  0  0  0  0  0  0  0  0  0
  -22.6099  -28.9285   26.7840 C   0  0  0  0  0  0  0  0  0  0  0  0
  -22.8863  -31.3838   26.4408 C   0  0  0  0  0  0  0  0  0  0  0  0
  -19.4301  -29.1847   20.9553 C   0  0  0  0  0  0  0  0  0  0  0  0
  -22.9325  -29.8396   24.4395 C   0  0  1  0  0  0  0  0  0  0  0  0
  -19.3035  -29.3877   23.4416 C   0  0  2  0  0  0  0  0  0  0  0  0
  -23.3326  -29.9951   25.9338 C   0  0  0  0  0  0  0  0  0  0  0  0
  -26.2687  -11.3319   20.1671 N   0  0  0  0  0  0  0  0  0  0  0  0
  -27.0909  -11.5084   19.1189 N   0  0  0  0  0  0  0  0  0  0  0  0
  -27.4413  -21.3056   18.8384 N   0  0  0  0  0  0  0  0  0  0  0  0
  -24.4437  -30.3160   22.5386 N   0  0  0  0  0  0  0  0  0  0  0  0
  -28.6480  -14.8837   19.9942 N   0  0  0  0  0  0  0  0  0  0  0  0
  -27.6214  -10.6625   16.9709 N   0  0  0  0  0  0  0  0  0  0  0  0
  -24.2342   -8.0029   18.3308 N   0  0  0  0  0  0  0  0  0  0  0  0
  -27.2548  -16.4732   18.9479 N   0  0  0  0  0  0  0  0  0  0  0  0
  -27.0345  -32.4334   22.9550 N   0  0  0  0  0  0  0  0  0  0  0  0
  -21.5039  -29.9897   24.1847 N   0  0  0  0  0  0  0  0  0  0  0  0
  -18.7285  -28.7894   22.2037 N   0  3  0  0  0  0  0  0  0  0  0  0
  -29.8480  -23.3984   20.3000 O   0  0  0  0  0  0  0  0  0  0  0  0
  -25.5747  -22.7252   18.4351 O   0  0  0  0  0  0  0  0  0  0  0  0
  -25.7119   -8.4105   16.6253 O   0  0  0  0  0  0  0  0  0  0  0  0
  -27.2956  -30.1723   22.4635 O   0  0  0  0  0  0  0  0  0  0  0  0
  -23.4478  -32.0473   23.7416 O   0  0  0  0  0  0  0  0  0  0  0  0
  -21.1962  -27.9021   23.2232 O   0  0  0  0  0  0  0  0  0  0  0  0
  -29.4213  -17.0207   19.5710 O   0  0  0  0  0  0  0  0  0  0  0  0
  -21.5266   -8.3422   23.1877 O   0  0  0  0  0  0  0  0  0  0  0  0
  -26.1310  -25.3539   19.2854 O   0  0  0  0  0  0  0  0  0  1  0  0
  -21.1418   -2.8775   23.8142 F   0  0  0  0  0  0  0  0  0  0  0  0
  -21.8197   -7.1759   25.6769 F   0  0  0  0  0  0  0  0  0  0  0  0
  -28.2377  -18.8703   19.8769 F   0  0  0  0  0  0  0  0  0  0  0  0
  1  2  1  0  0  0  0
  1  6  2  0  0  0  0
  2  7  2  0  0  0  0
  3 10  2  0  0  0  0
  3 17  1  0  0  0  0
  4 11  1  0  0  0  0
  4 17  2  0  0  0  0
  5  9  2  0  0  0  0
  5 18  1  0  0  0  0
  6 20  1  0  0  0  0
  7 22  1  0  0  0  0
  8 12  2  0  0  0  0
  8 21  1  0  0  0  0
  9 24  1  0  0  0  0
 10 26  1  0  0  0  0
 11 26  2  0  0  0  0
 12 27  1  0  0  0  0
 13 14  2  0  0  0  0
 13 28  1  0  0  0  0
 14 29  1  0  0  0  0
 15 23  1  0  0  0  0
 15 27  2  0  0  0  0
 16 29  2  0  0  0  0
 16 30  1  0  0  0  0
 17 32  1  0  0  0  0
 18 25  2  0  0  0  0
 18 38  1  0  0  0  0
 19 32  1  0  0  0  0
 19 33  2  0  0  0  0
 19 40  1  0  0  0  0
 20 22  2  0  0  0  0
 20 45  1  0  0  0  0
 21 23  2  0  0  0  0
 21 46  1  0  0  0  0
 22 55  1  0  0  0  0
 23 47  1  0  0  0  0
 24 31  2  0  0  0  0
 24 68  1  0  0  0  0
 25 31  1  0  0  0  0
 25 73  1  0  0  0  0
 26 84  1  0  0  0  0
 27 85  1  0  0  0  0
 28 30  2  0  0  0  0
 28 84  1  0  0  0  0
 29 86  1  0  0  0  0
 30 87  1  0  0  0  0
 31 88  1  0  0  0  0
 32 66  2  0  0  0  0
 33 67  1  0  0  0  0
 33 71  1  0  0  0  0
 34 35  1  0  0  0  0
 34 36  1  0  0  0  0
 34 39  2  0  0  0  0
 35 48  1  0  0  0  0
 35 77  2  0  0  0  0
 36 68  1  0  0  0  0
 36 78  2  0  0  0  0
 37 38  2  0  0  0  0
 39 85  1  0  0  0  0
 40 72  1  0  0  0  0
 40 79  2  0  0  0  0
 41 56  1  0  0  0  0
 41 74  1  0  0  0  0
 41 80  2  0  0  0  0
 42 63  1  0  0  0  0
 42 69  1  0  0  0  0
 42 81  2  0  0  0  0
 43 64  1  0  0  0  0
 43 75  1  0  0  0  0
 43 82  2  0  0  0  0
 44 70  1  0  0  0  0
 44 73  1  0  0  0  0
 44 83  2  0  0  0  0
 45 49  1  0  0  0  0
 46 56  1  0  0  0  0
 47 69  1  0  0  0  0
 48 68  1  0  0  0  0
 49 51  1  0  0  0  0
 50 52  1  0  0  0  0
 50 53  1  0  0  0  0
 51 55  1  0  0  0  0
 52 57  1  0  0  0  0
 53 70  1  0  0  0  0
 54 57  1  0  0  0  0
 54 70  1  0  0  0  0
 55 74  1  0  0  0  0
 56 69  1  0  0  0  0
 57 67  1  0  0  0  0
 58 64  1  0  0  0  0
 59 65  1  0  0  0  0
 60 65  1  0  0  0  0
 61 65  1  0  0  0  0
 62 76  1  0  0  0  0
 63 65  1  0  0  0  0
 63 75  1  0  0  0  0
 64 76  1  0  0  0  0
 66 67  1  0  0  0  0
M  CHG  1  76   1
M  ISO  4  39 101  44 100  73 100  85 101
M  END
> <Batch ID>
0088

> <Smiles>
C=Cc1ccc(N2CC(=O)C(=[101CH:1][101O:1]c3ccc4c(c3)CN(C(=O)C(NC(=O)C(C)NC)C(C)(C)C)C(C(=O)NC3CCCc5ccccc53)C4)C2=O)c(F)c1[100NH:0][100C:0](=O)N1CCCC(n2nc(-c3ccc(Oc4ccc(F)cc4F)cc3)c(C(N)=O)c2N)C1

> <Shape>
0.299

> <Color>
0.107

> <Negative vol penalty>
0.000

$$$$

  -OEChem-04052300233D

 83 91  0     1  0  0  0  0  0999 V2000
  -27.3435  -37.8727   21.9973 C   0  0  0  0  0  0  0  0  0  0  0  0
  -27.8349  -36.8322   21.2155 C   0  0  0  0  0  0  0  0  0  0  0  0
  -24.7951   -8.6813   21.6279 C   0  0  0  0  0  0  0  0  0  0  0  0
  -23.2435  -10.0033   20.3309 C   0  0  0  0  0  0  0  0  0  0  0  0
  -26.6707  -37.5923   23.1859 C   0  0  0  0  0  0  0  0  0  0  0  0
  -27.6548  -35.5107   21.6224 C   0  0  0  0  0  0  0  0  0  0  0  0
  -26.6318  -28.9395   18.9596 C   0  0  0  0  0  0  0  0  0  0  0  0
  -24.5589  -18.5486   17.2451 C   0  0  0  0  0  0  0  0  0  0  0  0
  -25.0490  -19.7483   17.7608 C   0  0  0  0  0  0  0  0  0  0  0  0
  -23.7439   -8.2312   22.4266 C   0  0  0  0  0  0  0  0  0  0  0  0
  -22.1923   -9.5531   21.1296 C   0  0  0  0  0  0  0  0  0  0  0  0
  -27.1550  -27.6499   19.0435 C   0  0  0  0  0  0  0  0  0  0  0  0
  -21.2649   -5.9408   22.2231 C   0  0  0  0  0  0  0  0  0  0  0  0
  -21.2137   -4.5789   22.5202 C   0  0  0  0  0  0  0  0  0  0  0  0
  -25.9078  -27.2826   21.0754 C   0  0  0  0  0  0  0  0  0  0  0  0
  -26.9369  -18.5719   18.7036 C   0  0  0  0  0  0  0  0  0  0  0  0
  -21.3657   -5.0874   24.8772 C   0  0  0  0  0  0  0  0  0  0  0  0
  -24.5449   -9.5675   20.5801 C   0  0  0  0  0  0  0  0  0  0  0  0
  -26.1142   -9.4416   18.5728 C   0  0  0  0  0  0  0  0  0  0  0  0
  -26.4738  -36.2664   23.6027 C   0  0  0  0  0  0  0  0  0  0  0  0
  -25.7497  -29.4150   19.9406 C   0  0  0  0  0  0  0  0  0  0  0  0
  -26.9799  -35.2124   22.8183 C   0  0  0  0  0  0  0  0  0  0  0  0
  -25.3729  -28.5777   21.0003 C   0  0  0  0  0  0  0  0  0  0  0  0
  -25.2577  -17.3604   17.4587 C   0  0  0  0  0  0  0  0  0  0  0  0
  -26.2379  -19.7600   18.4900 C   0  0  0  0  0  0  0  0  0  0  0  0
  -26.4467  -17.3721   18.1879 C   0  0  0  0  0  0  0  0  0  0  0  0
  -22.4425   -8.6670   22.1775 C   0  0  0  0  0  0  0  0  0  0  0  0
  -26.7953  -26.8223   20.1030 C   0  0  0  0  0  0  0  0  0  0  0  0
  -21.3666   -6.8760   23.2530 C   0  0  0  0  0  0  0  0  0  0  0  0
  -21.2641   -4.1522   23.8472 C   0  0  0  0  0  0  0  0  0  0  0  0
  -21.4170   -6.4493   24.5801 C   0  0  0  0  0  0  0  0  0  0  0  0
  -25.6305  -10.0333   19.7550 C   0  0  0  0  0  0  0  0  0  0  0  0
  -27.1429  -10.2602   18.1751 C   0  0  0  0  0  0  0  0  0  0  0  0
  -26.9988  -23.2675   19.5872 C   0  0  0  0  0  0  0  0  0  0  0  0
  -26.6165  -24.5486   19.5843 C   0  0  0  0  0  0  0  0  0  1  0  0
  -25.6731   -8.2578   17.8947 C   0  0  0  0  0  0  0  0  0  0  0  0
  -26.1677  -22.2403   18.8941 C   0  0  0  0  0  0  0  0  0  0  0  0
  -25.8102  -31.7929   22.0491 C   0  0  0  0  0  0  0  0  0  0  0  0
  -22.7551  -30.8565   22.6074 C   0  0  0  0  0  0  0  0  0  0  0  0
  -20.4169  -28.3738   22.4817 C   0  0  0  0  0  0  0  0  0  0  0  0
  -28.3654  -16.0323   19.1206 C   0  0  0  0  0  0  0  0  0  0  0  0
  -25.7818  -36.0143   24.9189 C   0  0  0  0  0  0  0  0  0  0  0  0
  -25.1733  -30.7991   19.8213 C   0  0  0  0  0  0  0  0  0  0  0  0
  -24.4135  -29.0333   22.0684 C   0  0  0  0  0  0  0  0  0  0  0  0
  -25.3048  -34.5744   25.0903 C   0  0  0  0  0  0  0  0  0  0  0  0
  -30.4396  -13.2552   19.9345 C   0  0  0  0  0  0  0  0  0  0  0  0
  -26.4049  -33.5964   24.6902 C   0  0  0  0  0  0  0  0  0  0  0  0
  -29.4871  -12.0592   19.8673 C   0  0  0  0  0  0  0  0  0  0  0  0
  -29.7516  -14.4973   20.4981 C   0  0  0  0  0  0  0  0  0  0  0  0
  -27.5493  -13.6778   19.7580 C   0  0  0  0  0  0  0  0  0  0  0  0
  -26.7826  -33.7649   23.2135 C   0  0  1  0  0  0  0  0  0  0  0  0
  -24.6843  -31.3596   21.1533 C   0  0  1  0  0  0  0  0  0  0  0  0
  -28.1793  -12.4208   19.1362 C   0  0  2  0  0  0  0  0  0  0  0  0
  -24.7091  -16.0901   16.8945 C   0  0  0  0  0  0  0  0  0  0  0  0
  -18.0181  -27.8967   23.0435 C   0  0  0  0  0  0  0  0  0  0  0  0
  -23.4904  -30.6507   25.5615 C   0  0  0  0  0  0  0  0  0  0  0  0
  -21.4142  -29.2961   25.9122 C   0  0  0  0  0  0  0  0  0  0  0  0
  -21.2434  -31.6530   25.1131 C   0  0  0  0  0  0  0  0  0  0  0  0
  -19.7490  -27.7974   19.6567 C   0  0  0  0  0  0  0  0  0  0  0  0
  -22.0927  -29.8682   23.5366 C   0  0  1  0  0  0  0  0  0  0  0  0
  -18.9884  -28.3605   21.9682 C   0  0  2  0  0  0  0  0  0  0  0  0
  -22.0798  -30.3588   25.0120 C   0  0  0  0  0  0  0  0  0  0  0  0
  -26.2971  -11.1421   20.0868 N   0  0  0  0  0  0  0  0  0  0  0  0
  -27.2103  -11.2536   19.1072 N   0  0  0  0  0  0  0  0  0  0  0  0
  -23.8820  -30.3972   21.9111 N   0  0  0  0  0  0  0  0  0  0  0  0
  -28.5227  -14.7811   19.7536 N   0  0  0  0  0  0  0  0  0  0  0  0
  -27.9873  -10.2200   17.1226 N   0  0  0  0  0  0  0  0  0  0  0  0
  -24.6030   -7.5352   18.4397 N   0  0  0  0  0  0  0  0  0  0  0  0
  -26.7352  -20.9787   19.0136 N   0  0  0  0  0  0  0  0  0  0  0  0
  -27.1708  -16.1756   18.4156 N   0  0  0  0  0  0  0  0  0  0  0  0
  -25.7928  -33.1382   22.3640 N   0  0  0  0  0  0  0  0  0  0  0  0
  -20.7686  -29.6100   22.9812 N   0  0  0  0  0  0  0  0  0  0  0  0
  -18.8668  -27.4448   20.7988 N   0  3  0  0  0  0  0  0  0  0  0  0
  -26.2226   -7.8438   16.8458 O   0  0  0  0  0  0  0  0  0  0  0  0
  -25.1315  -22.5463   18.3160 O   0  0  0  0  0  0  0  0  0  0  0  0
  -26.6329  -30.9674   22.4277 O   0  0  0  0  0  0  0  0  0  0  0  0
  -22.2855  -31.9919   22.4978 O   0  0  0  0  0  0  0  0  0  0  0  0
  -21.1464  -27.3854   22.4468 O   0  0  0  0  0  0  0  0  0  0  0  0
  -29.2388  -16.9018   19.1756 O   0  0  0  0  0  0  0  0  0  0  0  0
  -21.4165   -8.2277   22.9565 O   0  0  0  0  0  0  0  0  0  0  0  0
  -27.3050  -25.5633   20.1876 O   0  0  0  0  0  0  0  0  0  1  0  0
  -21.2134   -2.8444   24.1324 F   0  0  0  0  0  0  0  0  0  0  0  0
  -21.5135   -7.3431   25.5739 F   0  0  0  0  0  0  0  0  0  0  0  0
  1  2  1  0  0  0  0
  1  5  2  0  0  0  0
  2  6  2  0  0  0  0
  3 10  2  0  0  0  0
  3 18  1  0  0  0  0
  4 11  1  0  0  0  0
  4 18  2  0  0  0  0
  5 20  1  0  0  0  0
  6 22  1  0  0  0  0
  7 12  2  0  0  0  0
  7 21  1  0  0  0  0
  8  9  2  0  0  0  0
  8 24  1  0  0  0  0
  9 25  1  0  0  0  0
 10 27  1  0  0  0  0
 11 27  2  0  0  0  0
 12 28  1  0  0  0  0
 13 14  2  0  0  0  0
 13 29  1  0  0  0  0
 14 30  1  0  0  0  0
 15 23  1  0  0  0  0
 15 28  2  0  0  0  0
 16 25  2  0  0  0  0
 16 26  1  0  0  0  0
 17 30  2  0  0  0  0
 17 31  1  0  0  0  0
 18 32  1  0  0  0  0
 19 32  1  0  0  0  0
 19 33  2  0  0  0  0
 19 36  1  0  0  0  0
 20 22  2  0  0  0  0
 20 42  1  0  0  0  0
 21 23  2  0  0  0  0
 21 43  1  0  0  0  0
 22 51  1  0  0  0  0
 23 44  1  0  0  0  0
 24 26  2  0  0  0  0
 24 54  1  0  0  0  0
 25 69  1  0  0  0  0
 26 70  1  0  0  0  0
 27 80  1  0  0  0  0
 28 81  1  0  0  0  0
 29 31  2  0  0  0  0
 29 80  1  0  0  0  0
 30 82  1  0  0  0  0
 31 83  1  0  0  0  0
 32 63  2  0  0  0  0
 33 64  1  0  0  0  0
 33 67  1  0  0  0  0
 34 35  2  0  0  0  0
 34 37  1  0  0  0  0
 35 81  1  0  0  0  0
 36 68  1  0  0  0  0
 36 74  2  0  0  0  0
 37 69  1  0  0  0  0
 37 75  2  0  0  0  0
 38 52  1  0  0  0  0
 38 71  1  0  0  0  0
 38 76  2  0  0  0  0
 39 60  1  0  0  0  0
 39 65  1  0  0  0  0
 39 77  2  0  0  0  0
 40 61  1  0  0  0  0
 40 72  1  0  0  0  0
 40 78  2  0  0  0  0
 41 66  1  0  0  0  0
 41 70  1  0  0  0  0
 41 79  2  0  0  0  0
 42 45  1  0  0  0  0
 43 52  1  0  0  0  0
 44 65  1  0  0  0  0
 45 47  1  0  0  0  0
 46 48  1  0  0  0  0
 46 49  1  0  0  0  0
 47 51  1  0  0  0  0
 48 53  1  0  0  0  0
 49 66  1  0  0  0  0
 50 53  1  0  0  0  0
 50 66  1  0  0  0  0
 51 71  1  0  0  0  0
 52 65  1  0  0  0  0
 53 64  1  0  0  0  0
 55 61  1  0  0  0  0
 56 62  1  0  0  0  0
 57 62  1  0  0  0  0
 58 62  1  0  0  0  0
 59 73  1  0  0  0  0
 60 62  1  0  0  0  0
 60 72  1  0  0  0  0
 61 73  1  0  0  0  0
 63 64  1  0  0  0  0
M  CHG  1  73   1
M  ISO  4  35 101  41 100  70 100  81 101
M  END
> <Batch ID>
0088

> <Smiles>
CNC(C)C(=O)NC(C(=O)N1Cc2cc([101O:1][101CH:1]=CC(=O)Nc3ccc(C)c([100NH:0][100C:0](=O)N4CCCC(n5nc(-c6ccc(Oc7ccc(F)cc7F)cc6)c(C(N)=O)c5N)C4)c3)ccc2CC1C(=O)NC1CCCc2ccccc21)C(C)(C)C

> <Shape>
0.297

> <Color>
0.105

> <Negative vol penalty>
0.000

$$$$

  -OEChem-04052300233D

 84 93  0     1  0  0  0  0  0999 V2000
  -27.3760  -37.7449   23.8602 C   0  0  0  0  0  0  0  0  0  0  0  0
  -27.9646  -36.8012   23.0246 C   0  0  0  0  0  0  0  0  0  0  0  0
  -24.1838   -9.2870   22.1900 C   0  0  0  0  0  0  0  0  0  0  0  0
  -22.9184  -11.2676   21.6306 C   0  0  0  0  0  0  0  0  0  0  0  0
  -26.4881  -37.3366   24.8546 C   0  0  0  0  0  0  0  0  0  0  0  0
  -27.6666  -35.4483   23.1837 C   0  0  0  0  0  0  0  0  0  0  0  0
  -26.9147  -29.4144   19.3965 C   0  0  0  0  0  0  0  0  0  0  0  0
  -28.5675  -19.7717   19.8358 C   0  0  0  0  0  0  0  0  0  0  0  0
  -28.8333  -18.4103   19.6890 C   0  0  0  0  0  0  0  0  0  0  0  0
  -23.3139   -9.0306   23.2498 C   0  0  0  0  0  0  0  0  0  0  0  0
  -22.0485  -11.0112   22.6904 C   0  0  0  0  0  0  0  0  0  0  0  0
  -27.3679  -28.0962   19.3695 C   0  0  0  0  0  0  0  0  0  0  0  0
  -20.2247   -7.7239   23.6765 C   0  0  0  0  0  0  0  0  0  0  0  0
  -19.7694   -6.4156   23.8394 C   0  0  0  0  0  0  0  0  0  0  0  0
  -25.7587  -27.5146   21.0700 C   0  0  0  0  0  0  0  0  0  0  0  0
  -26.2900  -19.4044   19.1180 C   0  0  0  0  0  0  0  0  0  0  0  0
  -20.7574   -6.3460   26.0430 C   0  0  0  0  0  0  0  0  0  0  0  0
  -23.9860  -10.4056   21.3804 C   0  0  0  0  0  0  0  0  0  0  0  0
  -24.7639  -10.2195   18.9581 C   0  0  0  0  0  0  0  0  0  0  0  0
  -26.1716  -35.9789   25.0197 C   0  0  0  0  0  0  0  0  0  0  0  0
  -25.8859  -29.7956   20.2697 C   0  0  0  0  0  0  0  0  0  0  0  0
  -26.7747  -35.0213   24.1821 C   0  0  0  0  0  0  0  0  0  0  0  0
  -25.2926  -28.8377   21.1043 C   0  0  0  0  0  0  0  0  0  0  0  0
  -27.2958  -20.2688   19.5503 C   0  0  0  0  0  0  0  0  0  0  0  0
  -27.8275  -17.5460   19.2567 C   0  0  0  0  0  0  0  0  0  0  0  0
  -22.2463   -9.8926   23.5000 C   0  0  0  0  0  0  0  0  0  0  0  0
  -26.7918  -27.1467   20.2083 C   0  0  0  0  0  0  0  0  0  0  0  0
  -20.9465   -8.3433   24.6969 C   0  0  0  0  0  0  0  0  0  0  0  0
  -20.0357   -5.7266   25.0226 C   0  0  0  0  0  0  0  0  0  0  0  0
  -26.5558  -18.0430   18.9712 C   0  0  0  0  0  0  0  0  0  0  0  0
  -21.2128   -7.6544   25.8801 C   0  0  0  0  0  0  0  0  0  0  0  0
  -24.8846  -10.6713   20.2859 C   0  0  0  0  0  0  0  0  0  0  0  0
  -25.8612  -10.7405   18.3170 C   0  0  0  0  0  0  0  0  0  0  0  0
  -26.6615  -23.5741   19.8055 C   0  0  0  0  0  0  0  0  0  0  0  0
  -25.9167  -22.3537   19.4937 C   0  0  0  0  0  0  0  0  0  0  0  0
  -26.3377  -24.8788   19.8603 C   0  0  0  0  0  0  0  0  0  1  0  0
  -23.7505   -9.4020   18.3578 C   0  0  0  0  0  0  0  0  0  0  0  0
  -25.6448  -31.8311   22.6991 C   0  0  0  0  0  0  0  0  0  0  0  0
  -22.5079  -31.0167   22.5622 C   0  0  0  0  0  0  0  0  0  0  0  0
  -20.1455  -28.7306   21.6459 C   0  0  0  0  0  0  0  0  0  0  0  0
  -29.3089  -15.5105   19.3492 C   0  0  0  0  0  0  0  0  0  0  0  0
  -25.2427  -35.5810   26.1393 C   0  0  0  0  0  0  0  0  0  0  0  0
  -25.3902  -31.2158   20.2676 C   0  0  0  0  0  0  0  0  0  0  0  0
  -24.1713  -29.1915   22.0455 C   0  0  0  0  0  0  0  0  0  0  0  0
  -27.8975  -22.7317   20.0228 C   0  0  0  0  0  0  0  0  0  0  0  0
  -24.6918  -34.1643   25.9992 C   0  0  0  0  0  0  0  0  0  0  0  0
  -30.3733  -12.1194   19.1378 C   0  0  0  0  0  0  0  0  0  0  0  0
  -25.8111  -33.1882   25.6509 C   0  0  0  0  0  0  0  0  0  0  0  0
  -29.0748  -11.3223   19.2813 C   0  0  0  0  0  0  0  0  0  0  0  0
  -30.3731  -13.3672   20.0192 C   0  0  0  0  0  0  0  0  0  0  0  0
  -27.9110  -13.4497   19.9930 C   0  0  0  0  0  0  0  0  0  0  0  0
  -26.4576  -33.5469   24.3074 C   0  0  1  0  0  0  0  0  0  0  0  0
  -24.6866  -31.6050   21.5640 C   0  0  1  0  0  0  0  0  0  0  0  0
  -27.8378  -12.2183   19.0754 C   0  0  2  0  0  0  0  0  0  0  0  0
  -17.6691  -28.3279   21.6984 C   0  0  0  0  0  0  0  0  0  0  0  0
  -22.6841  -30.3354   25.5312 C   0  0  0  0  0  0  0  0  0  0  0  0
  -20.5322  -29.0770   25.2988 C   0  0  0  0  0  0  0  0  0  0  0  0
  -20.5935  -31.5314   24.8576 C   0  0  0  0  0  0  0  0  0  0  0  0
  -19.9842  -28.6165   18.6929 C   0  0  0  0  0  0  0  0  0  0  0  0
  -21.6525  -29.9466   23.1965 C   0  0  1  0  0  0  0  0  0  0  0  0
  -18.8351  -28.8822   20.8946 C   0  0  2  0  0  0  0  0  0  0  0  0
  -21.3880  -30.2160   24.7048 C   0  0  0  0  0  0  0  0  0  0  0  0
  -25.9728  -11.4216   20.4784 N   0  0  0  0  0  0  0  0  0  0  0  0
  -26.5459  -11.4450   19.2630 N   0  0  0  0  0  0  0  0  0  0  0  0
  -27.0337  -21.6114   19.6944 N   0  0  0  0  0  0  0  0  0  0  0  0
  -23.7259  -30.5943   22.0111 N   0  0  0  0  0  0  0  0  0  0  0  0
  -29.1742  -14.1695   19.7665 N   0  0  0  0  0  0  0  0  0  0  0  0
  -26.2976  -10.6601   17.0420 N   0  0  0  0  0  0  0  0  0  0  0  0
  -22.6930   -8.9520   19.1600 N   0  0  0  0  0  0  0  0  0  0  0  0
  -28.1006  -16.1636   19.1081 N   0  0  0  0  0  0  0  0  0  0  0  0
  -25.6178  -33.1144   23.2110 N   0  0  0  0  0  0  0  0  0  0  0  0
  -20.4436  -29.8559   22.3848 N   0  0  0  0  0  0  0  0  0  0  0  0
  -18.8966  -28.1567   19.5943 N   0  3  0  0  0  0  0  0  0  0  0  0
  -24.7738  -22.1021   19.1729 O   0  0  0  0  0  0  0  0  0  0  0  0
  -23.7905   -9.0664   17.1497 O   0  0  0  0  0  0  0  0  0  0  0  0
  -26.3549  -30.9092   23.0832 O   0  0  0  0  0  0  0  0  0  0  0  0
  -22.1067  -32.1831   22.5497 O   0  0  0  0  0  0  0  0  0  0  0  0
  -20.8337  -27.7141   21.5863 O   0  0  0  0  0  0  0  0  0  0  0  0
  -30.4153  -16.0323   19.1893 O   0  0  0  0  0  0  0  0  0  0  0  0
  -21.3971   -9.6425   24.5339 O   0  0  0  0  0  0  0  0  0  0  0  0
  -27.2326  -25.8594   20.1845 O   0  0  0  0  0  0  0  0  0  1  0  0
  -19.5971   -4.4708   25.1795 F   0  0  0  0  0  0  0  0  0  0  0  0
  -25.5817  -17.2218   18.5536 F   0  0  0  0  0  0  0  0  0  0  0  0
  -21.9047   -8.2446   26.8644 F   0  0  0  0  0  0  0  0  0  0  0  0
  1  2  1  0  0  0  0
  1  5  2  0  0  0  0
  2  6  2  0  0  0  0
  3 10  2  0  0  0  0
  3 18  1  0  0  0  0
  4 11  1  0  0  0  0
  4 18  2  0  0  0  0
  5 20  1  0  0  0  0
  6 22  1  0  0  0  0
  7 12  2  0  0  0  0
  7 21  1  0  0  0  0
  8  9  2  0  0  0  0
  8 24  1  0  0  0  0
  9 25  1  0  0  0  0
 10 26  1  0  0  0  0
 11 26  2  0  0  0  0
 12 27  1  0  0  0  0
 13 14  2  0  0  0  0
 13 28  1  0  0  0  0
 14 29  1  0  0  0  0
 15 23  1  0  0  0  0
 15 27  2  0  0  0  0
 16 24  2  0  0  0  0
 16 30  1  0  0  0  0
 17 29  2  0  0  0  0
 17 31  1  0  0  0  0
 18 32  1  0  0  0  0
 19 32  1  0  0  0  0
 19 33  2  0  0  0  0
 19 37  1  0  0  0  0
 20 22  2  0  0  0  0
 20 42  1  0  0  0  0
 21 23  2  0  0  0  0
 21 43  1  0  0  0  0
 22 52  1  0  0  0  0
 23 44  1  0  0  0  0
 24 65  1  0  0  0  0
 25 30  2  0  0  0  0
 25 70  1  0  0  0  0
 26 80  1  0  0  0  0
 27 81  1  0  0  0  0
 28 31  2  0  0  0  0
 28 80  1  0  0  0  0
 29 82  1  0  0  0  0
 30 83  1  0  0  0  0
 31 84  1  0  0  0  0
 32 63  2  0  0  0  0
 33 64  1  0  0  0  0
 33 68  1  0  0  0  0
 34 35  1  0  0  0  0
 34 36  2  0  0  0  0
 34 45  1  0  0  0  0
 35 65  1  0  0  0  0
 35 74  2  0  0  0  0
 36 81  1  0  0  0  0
 37 69  1  0  0  0  0
 37 75  2  0  0  0  0
 38 53  1  0  0  0  0
 38 71  1  0  0  0  0
 38 76  2  0  0  0  0
 39 60  1  0  0  0  0
 39 66  1  0  0  0  0
 39 77  2  0  0  0  0
 40 61  1  0  0  0  0
 40 72  1  0  0  0  0
 40 78  2  0  0  0  0
 41 67  1  0  0  0  0
 41 70  1  0  0  0  0
 41 79  2  0  0  0  0
 42 46  1  0  0  0  0
 43 53  1  0  0  0  0
 44 66  1  0  0  0  0
 45 65  1  0  0  0  0
 46 48  1  0  0  0  0
 47 49  1  0  0  0  0
 47 50  1  0  0  0  0
 48 52  1  0  0  0  0
 49 54  1  0  0  0  0
 50 67  1  0  0  0  0
 51 54  1  0  0  0  0
 51 67  1  0  0  0  0
 52 71  1  0  0  0  0
 53 66  1  0  0  0  0
 54 64  1  0  0  0  0
 55 61  1  0  0  0  0
 56 62  1  0  0  0  0
 57 62  1  0  0  0  0
 58 62  1  0  0  0  0
 59 73  1  0  0  0  0
 60 62  1  0  0  0  0
 60 72  1  0  0  0  0
 61 73  1  0  0  0  0
 63 64  1  0  0  0  0
M  CHG  1  73   1
M  ISO  4  36 101  41 100  70 100  81 101
M  END
> <Batch ID>
0088

> <Smiles>
CNC(C)C(=O)NC(C(=O)N1Cc2cc([101O:1][101CH:1]=C3CN(c4ccc([100NH:0][100C:0](=O)N5CCCC(n6nc(-c7ccc(Oc8ccc(F)cc8F)cc7)c(C(N)=O)c6N)C5)c(F)c4)C3=O)ccc2CC1C(=O)NC1CCCc2ccccc21)C(C)(C)C

> <Shape>
0.291

> <Color>
0.088

> <Negative vol penalty>
0.000

$$$$

  -OEChem-04052300233D

 97107  0     1  0  0  0  0  0999 V2000
  -30.0996  -33.1349   22.1027 C   0  0  0  0  0  0  0  0  0  0  0  0
  -29.2945  -32.2907   21.3447 C   0  0  0  0  0  0  0  0  0  0  0  0
  -30.7507  -17.0227   14.2066 C   0  0  0  0  0  0  0  0  0  0  0  0
  -23.1895   -9.8175   19.9291 C   0  0  0  0  0  0  0  0  0  0  0  0
  -23.5540   -9.9975   22.3107 C   0  0  0  0  0  0  0  0  0  0  0  0
  -31.4517  -33.2718   21.7914 C   0  0  0  0  0  0  0  0  0  0  0  0
  -29.8410  -31.5838   20.2741 C   0  0  0  0  0  0  0  0  0  0  0  0
  -28.3523  -26.7443   20.1794 C   0  0  0  0  0  0  0  0  0  0  0  0
  -29.7263  -17.8894   13.8261 C   0  0  0  0  0  0  0  0  0  0  0  0
  -30.6230  -16.2585   15.3665 C   0  0  0  0  0  0  0  0  0  0  0  0
  -22.4198   -8.6723   20.1334 C   0  0  0  0  0  0  0  0  0  0  0  0
  -22.7842   -8.8523   22.5150 C   0  0  0  0  0  0  0  0  0  0  0  0
  -27.0733  -26.4811   19.6911 C   0  0  0  0  0  0  0  0  0  0  0  0
  -21.2141   -5.7717   23.6350 C   0  0  0  0  0  0  0  0  0  0  0  0
  -21.7034   -4.8110   24.5200 C   0  0  0  0  0  0  0  0  0  0  0  0
  -24.9302  -22.1675   15.6116 C   0  0  0  0  0  0  0  0  0  0  0  0
  -23.3618  -20.8512   14.3293 C   0  0  0  0  0  0  0  0  0  0  0  0
  -28.0220  -25.8453   17.5662 C   0  0  0  0  0  0  0  0  0  0  0  0
  -23.6698   -4.5430   23.1421 C   0  0  0  0  0  0  0  0  0  0  0  0
  -23.7567  -10.4800   21.0178 C   0  0  0  0  0  0  0  0  0  0  0  0
  -24.6697  -21.1117   14.7381 C   0  0  0  0  0  0  0  0  0  0  0  0
  -23.8827  -22.9628   16.0765 C   0  0  0  0  0  0  0  0  0  0  0  0
  -24.1017  -12.9960   20.7757 C   0  0  0  0  0  0  0  0  0  0  0  0
  -32.0171  -32.5588   20.7225 C   0  0  0  0  0  0  0  0  0  0  0  0
  -29.4769  -26.5702   19.3600 C   0  0  0  0  0  0  0  0  0  0  0  0
  -31.2016  -31.7124   19.9474 C   0  0  0  0  0  0  0  0  0  0  0  0
  -29.3144  -26.1046   18.0474 C   0  0  0  0  0  0  0  0  0  0  0  0
  -28.5741  -17.9921   14.6055 C   0  0  0  0  0  0  0  0  0  0  0  0
  -29.4708  -16.3612   16.1460 C   0  0  0  0  0  0  0  0  0  0  0  0
  -22.5748  -22.7023   15.6677 C   0  0  0  0  0  0  0  0  0  0  0  0
  -22.2171   -8.1897   21.4264 C   0  0  0  0  0  0  0  0  0  0  0  0
  -26.9077  -26.0342   18.3834 C   0  0  0  0  0  0  0  0  0  0  0  0
  -21.9526   -6.1180   22.5034 C   0  0  0  0  0  0  0  0  0  0  0  0
  -22.9312   -4.1967   24.2736 C   0  0  0  0  0  0  0  0  0  0  0  0
  -22.3143  -21.6465   14.7941 C   0  0  0  0  0  0  0  0  0  0  0  0
  -23.1805   -5.5037   22.2570 C   0  0  0  0  0  0  0  0  0  0  0  0
  -28.4463  -17.2279   15.7655 C   0  0  0  0  0  0  0  0  0  0  0  0
  -24.5524  -11.6627   20.8073 C   0  0  0  0  0  0  0  0  0  0  0  0
  -25.2357  -13.7364   20.5471 C   0  0  0  0  0  0  0  0  0  0  0  0
  -26.1082  -20.1191   12.9810 C   0  0  0  0  0  0  0  0  0  0  0  0
  -25.7615  -20.2827   14.2520 C   0  0  0  0  0  0  0  0  0  0  0  0
  -27.2543  -19.2014   12.9231 C   0  0  0  0  0  0  0  0  0  0  0  0
  -26.6915  -19.4999   15.0899 C   0  0  0  0  0  0  0  0  0  0  0  0
  -24.1944  -24.0835   17.0096 C   0  0  0  0  0  0  0  0  0  0  0  0
  -22.7764  -13.5185   20.9386 C   0  0  0  0  0  0  0  0  0  0  0  0
  -31.7481  -28.4861   18.2311 C   0  0  0  0  0  0  0  0  0  0  0  0
  -33.0075  -25.7043   17.1368 C   0  0  0  0  0  0  0  0  0  0  0  0
  -32.4951  -22.4640   16.1962 C   0  0  0  0  0  0  0  0  0  0  0  0
  -29.9626  -14.3057   17.4606 C   0  0  0  0  0  0  0  0  0  0  0  0
  -33.4732  -32.7756   20.3948 C   0  0  0  0  0  0  0  0  0  0  0  0
  -30.8518  -26.8330   19.9103 C   0  0  0  0  0  0  0  0  0  0  0  0
  -30.4908  -25.8821   17.1336 C   0  0  0  0  0  0  0  0  0  0  0  0
  -34.0571  -31.7044   19.4772 C   0  0  0  0  0  0  0  0  0  0  0  0
  -30.1130  -12.4334   20.6358 C   0  0  0  0  0  0  0  0  0  0  0  0
  -33.1182  -31.4356   18.3055 C   0  0  0  0  0  0  0  0  0  0  0  0
  -28.6439  -12.1232   20.9180 C   0  0  0  0  0  0  0  0  0  0  0  0
  -30.3934  -12.5358   19.1395 C   0  0  0  0  0  0  0  0  0  0  0  0
  -28.0472  -13.2016   18.7121 C   0  0  0  0  0  0  0  0  0  0  0  0
  -31.7630  -30.9098   18.7938 C   0  0  1  0  0  0  0  0  0  0  0  0
  -31.8865  -27.1128   18.8247 C   0  0  1  0  0  0  0  0  0  0  0  0
  -27.7242  -13.1347   20.2124 C   0  0  1  0  0  0  0  0  0  0  0  0
  -33.7097  -20.4538   15.3124 C   0  0  0  0  0  0  0  0  0  0  0  0
  -33.1003  -26.9811   14.3671 C   0  0  0  0  0  0  0  0  0  0  0  0
  -33.4017  -24.6922   13.3985 C   0  0  0  0  0  0  0  0  0  0  0  0
  -35.1143  -25.6206   14.9567 C   0  0  0  0  0  0  0  0  0  0  0  0
  -28.7623  -16.1941   18.5390 C   0  0  0  0  0  0  0  0  0  0  0  0
  -31.7956  -20.8505   18.5766 C   0  0  0  0  0  0  0  0  0  0  0  0
  -25.5445  -24.7652   16.9045 C   0  0  0  0  0  0  0  0  0  1  0  0
  -32.8715  -24.8943   15.8701 C   0  0  1  0  0  0  0  0  0  0  0  0
  -33.2260  -21.1830   16.5561 C   0  0  2  0  0  0  0  0  0  0  0  0
  -33.5994  -25.5530   14.6645 C   0  0  0  0  0  0  0  0  0  0  0  0
  -25.8699  -11.5591   20.6140 N   0  0  0  0  0  0  0  0  0  0  0  0
  -26.2568  -12.8367   20.4587 N   0  0  0  0  0  0  0  0  0  0  0  0
  -27.5548  -18.8570   14.2231 N   0  0  0  0  0  0  0  0  0  0  0  0
  -31.8144  -26.1591   17.7159 N   0  0  0  0  0  0  0  0  0  0  0  0
  -29.4758  -13.4694   18.4852 N   0  0  0  0  0  0  0  0  0  0  0  0
  -21.5016  -23.4970   16.1289 N   0  0  0  0  0  0  0  0  0  0  0  0
  -25.4489  -15.0629   20.4149 N   0  0  0  0  0  0  0  0  0  0  0  0
  -21.7267  -12.6183   21.1665 N   0  0  0  0  0  0  0  0  0  0  0  0
  -31.8626  -29.5109   19.1510 N   0  0  0  0  0  0  0  0  0  0  0  0
  -33.3427  -23.5516   16.1917 N   0  0  0  0  0  0  0  0  0  0  0  0
  -29.3423  -15.5686   17.3460 N   0  0  0  0  0  0  0  0  0  0  0  0
  -32.3267  -20.2698   17.3165 N   0  3  0  0  0  0  0  0  0  0  0  0
  -27.7920  -18.8537   11.8844 O   0  0  0  0  0  0  0  0  0  0  0  0
  -26.6581  -19.4604   16.3098 O   0  0  0  0  0  0  0  0  0  0  0  0
  -23.3581  -24.4323   17.8397 O   0  0  0  0  0  0  0  0  0  0  0  0
  -22.5280  -14.7460   20.8673 O   0  0  0  0  0  0  0  0  0  0  0  0
  -31.5533  -28.6072   17.0273 O   0  0  0  0  0  0  0  0  0  0  0  0
  -34.1306  -25.9193   17.5994 O   0  0  0  0  0  0  0  0  0  0  0  0
  -31.2934  -22.4959   15.9407 O   0  0  0  0  0  0  0  0  0  0  0  0
  -30.8971  -13.9622   16.7268 O   0  0  0  0  0  0  0  0  0  0  0  0
  -21.4659   -7.0725   21.6261 O   0  0  0  0  0  0  0  0  0  0  0  0
  -25.6604  -25.7771   17.9040 O   0  0  0  0  0  0  0  0  0  1  0  0
  -23.4017   -3.2753   25.1245 F   0  0  0  0  0  0  0  0  0  0  0  0
  -21.0614  -21.3865   14.3936 F   0  0  0  0  0  0  0  0  0  0  0  0
  -23.8950   -5.8331   21.1723 F   0  0  0  0  0  0  0  0  0  0  0  0
  -27.3382  -17.3275   16.5157 F   0  0  0  0  0  0  0  0  0  0  0  0
  1  2  1  0  0  0  0
  1  6  2  0  0  0  0
  2  7  2  0  0  0  0
  3  9  2  0  0  0  0
  3 10  1  0  0  0  0
  4 11  2  0  0  0  0
  4 20  1  0  0  0  0
  5 12  1  0  0  0  0
  5 20  2  0  0  0  0
  6 24  1  0  0  0  0
  7 26  1  0  0  0  0
  8 13  2  0  0  0  0
  8 25  1  0  0  0  0
  9 28  1  0  0  0  0
 10 29  2  0  0  0  0
 11 31  1  0  0  0  0
 12 31  2  0  0  0  0
 13 32  1  0  0  0  0
 14 15  2  0  0  0  0
 14 33  1  0  0  0  0
 15 34  1  0  0  0  0
 16 21  2  0  0  0  0
 16 22  1  0  0  0  0
 17 21  1  0  0  0  0
 17 35  2  0  0  0  0
 18 27  1  0  0  0  0
 18 32  2  0  0  0  0
 19 34  2  0  0  0  0
 19 36  1  0  0  0  0
 20 38  1  0  0  0  0
 21 41  1  0  0  0  0
 22 30  2  0  0  0  0
 22 44  1  0  0  0  0
 23 38  1  0  0  0  0
 23 39  2  0  0  0  0
 23 45  1  0  0  0  0
 24 26  2  0  0  0  0
 24 50  1  0  0  0  0
 25 27  2  0  0  0  0
 25 51  1  0  0  0  0
 26 59  1  0  0  0  0
 27 52  1  0  0  0  0
 28 37  2  0  0  0  0
 28 74  1  0  0  0  0
 29 37  1  0  0  0  0
 29 82  1  0  0  0  0
 30 35  1  0  0  0  0
 30 77  1  0  0  0  0
 31 92  1  0  0  0  0
 32 93  1  0  0  0  0
 33 36  2  0  0  0  0
 33 92  1  0  0  0  0
 34 94  1  0  0  0  0
 35 95  1  0  0  0  0
 36 96  1  0  0  0  0
 37 97  1  0  0  0  0
 38 72  2  0  0  0  0
 39 73  1  0  0  0  0
 39 78  1  0  0  0  0
 40 41  2  0  0  0  0
 40 42  1  0  0  0  0
 41 43  1  0  0  0  0
 42 74  1  0  0  0  0
 42 84  2  0  0  0  0
 43 74  1  0  0  0  0
 43 85  2  0  0  0  0
 44 68  1  0  0  0  0
 44 86  2  0  0  0  0
 45 79  1  0  0  0  0
 45 87  2  0  0  0  0
 46 60  1  0  0  0  0
 46 80  1  0  0  0  0
 46 88  2  0  0  0  0
 47 69  1  0  0  0  0
 47 75  1  0  0  0  0
 47 89  2  0  0  0  0
 48 70  1  0  0  0  0
 48 81  1  0  0  0  0
 48 90  2  0  0  0  0
 49 76  1  0  0  0  0
 49 82  1  0  0  0  0
 49 91  2  0  0  0  0
 50 53  1  0  0  0  0
 51 60  1  0  0  0  0
 52 75  1  0  0  0  0
 53 55  1  0  0  0  0
 54 56  1  0  0  0  0
 54 57  1  0  0  0  0
 55 59  1  0  0  0  0
 56 61  1  0  0  0  0
 57 76  1  0  0  0  0
 58 61  1  0  0  0  0
 58 76  1  0  0  0  0
 59 80  1  0  0  0  0
 60 75  1  0  0  0  0
 61 73  1  0  0  0  0
 62 70  1  0  0  0  0
 63 71  1  0  0  0  0
 64 71  1  0  0  0  0
 65 71  1  0  0  0  0
 66 82  1  0  0  0  0
 67 83  1  0  0  0  0
 68 93  1  0  0  0  0
 69 71  1  0  0  0  0
 69 81  1  0  0  0  0
 70 83  1  0  0  0  0
 72 73  1  0  0  0  0
M  CHG  1  83   1
M  ISO  4  49 100  68 101  82 100  93 101
M  END
> <Batch ID>
0088

> <Smiles>
CNC(C)C(=O)NC(C(=O)N1Cc2cc([101O:1][101CH2:1]C(=O)c3cc(C4=CC(=O)N(c5cccc([100N:0](C)[100C:0](=O)N6CCCC(n7nc(-c8ccc(Oc9ccc(F)cc9F)cc8)c(C(N)=O)c7N)C6)c5F)C4=O)cc(F)c3N)ccc2CC1C(=O)NC1CCCc2ccccc21)C(C)(C)C

> <Shape>
0.180

> <Color>
0.168

> <Negative vol penalty>
0.000

$$$$

  -OEChem-04052300233D

 85 94  0     1  0  0  0  0  0999 V2000
  -29.1175  -38.2003   19.9559 C   0  0  0  0  0  0  0  0  0  0  0  0
  -29.3979  -36.8761   19.6347 C   0  0  0  0  0  0  0  0  0  0  0  0
  -24.2931   -9.3205   21.4880 C   0  0  0  0  0  0  0  0  0  0  0  0
  -24.8160  -10.5627   23.4931 C   0  0  0  0  0  0  0  0  0  0  0  0
  -28.5165  -38.5083   21.1757 C   0  0  0  0  0  0  0  0  0  0  0  0
  -29.0784  -35.8591   20.5336 C   0  0  0  0  0  0  0  0  0  0  0  0
  -27.2033  -30.1916   19.1662 C   0  0  0  0  0  0  0  0  0  0  0  0
  -23.9663   -8.2075   22.2626 C   0  0  0  0  0  0  0  0  0  0  0  0
  -24.4892   -9.4498   24.2678 C   0  0  0  0  0  0  0  0  0  0  0  0
  -27.8767  -28.9731   19.0926 C   0  0  0  0  0  0  0  0  0  0  0  0
  -21.3546   -7.1560   24.1352 C   0  0  0  0  0  0  0  0  0  0  0  0
  -20.1849   -6.4658   23.8174 C   0  0  0  0  0  0  0  0  0  0  0  0
  -27.1859  -28.4620   21.3466 C   0  0  0  0  0  0  0  0  0  0  0  0
  -27.6287  -20.7509   19.3757 C   0  0  0  0  0  0  0  0  0  0  0  0
  -29.9988  -19.3142   19.6936 C   0  0  0  0  0  0  0  0  0  0  0  0
  -21.4757   -4.4638   23.4140 C   0  0  0  0  0  0  0  0  0  0  0  0
  -24.7180  -10.4981   22.1032 C   0  0  0  0  0  0  0  0  0  0  0  0
  -24.1924  -12.6796   20.8898 C   0  0  0  0  0  0  0  0  0  0  0  0
  -28.1806  -37.4937   22.0859 C   0  0  0  0  0  0  0  0  0  0  0  0
  -26.5242  -30.5600   20.3364 C   0  0  0  0  0  0  0  0  0  0  0  0
  -28.4735  -36.1539   21.7673 C   0  0  0  0  0  0  0  0  0  0  0  0
  -26.5026  -29.6847   21.4317 C   0  0  0  0  0  0  0  0  0  0  0  0
  -28.8533  -21.4186   19.3828 C   0  0  0  0  0  0  0  0  0  0  0  0
  -27.5890  -19.3649   19.5276 C   0  0  0  0  0  0  0  0  0  0  0  0
  -28.7741  -18.6465   19.6865 C   0  0  0  0  0  0  0  0  0  0  0  0
  -24.0643   -8.2722   23.6526 C   0  0  0  0  0  0  0  0  0  0  0  0
  -27.8705  -28.1093   20.1839 C   0  0  0  0  0  0  0  0  0  0  0  0
  -22.5849   -6.5001   24.0923 C   0  0  0  0  0  0  0  0  0  0  0  0
  -20.2454   -5.1197   23.4568 C   0  0  0  0  0  0  0  0  0  0  0  0
  -30.0384  -20.7002   19.5417 C   0  0  0  0  0  0  0  0  0  0  0  0
  -22.6455   -5.1540   23.7318 C   0  0  0  0  0  0  0  0  0  0  0  0
  -25.0563  -11.6479   21.3034 C   0  0  0  0  0  0  0  0  0  0  0  0
  -24.9917  -13.5243   20.1590 C   0  0  0  0  0  0  0  0  0  0  0  0
  -27.8112  -23.7123   19.0607 C   0  0  0  0  0  0  0  0  0  0  0  0
  -28.6967  -24.7347   19.0073 C   0  0  0  0  0  0  0  0  0  0  0  0
  -29.8073  -23.7643   19.1888 C   0  0  0  0  0  0  0  0  0  0  0  0
  -22.7927  -12.8584   21.1435 C   0  0  0  0  0  0  0  0  0  0  0  0
  -26.7979  -32.9296   22.4373 C   0  0  0  0  0  0  0  0  0  0  0  0
  -24.0844  -31.6388   23.6593 C   0  0  0  0  0  0  0  0  0  0  0  0
  -22.0829  -28.8968   24.0093 C   0  0  0  0  0  0  0  0  0  0  0  0
  -29.7465  -16.3344   19.4530 C   0  0  0  0  0  0  0  0  0  0  0  0
  -27.5753  -37.8797   23.4123 C   0  0  0  0  0  0  0  0  0  0  0  0
  -25.7803  -31.8662   20.3904 C   0  0  0  0  0  0  0  0  0  0  0  0
  -25.7713  -30.0242   22.7038 C   0  0  0  0  0  0  0  0  0  0  0  0
  -26.9270  -36.7105   24.1491 C   0  0  0  0  0  0  0  0  0  0  0  0
  -29.7130  -12.9223   18.4360 C   0  0  0  0  0  0  0  0  0  0  0  0
  -27.8491  -35.4954   24.1384 C   0  0  0  0  0  0  0  0  0  0  0  0
  -28.4275  -12.3715   19.0573 C   0  0  0  0  0  0  0  0  0  0  0  0
  -30.3953  -13.9377   19.3510 C   0  0  0  0  0  0  0  0  0  0  0  0
  -28.2498  -14.4853   20.4310 C   0  0  0  0  0  0  0  0  0  0  0  0
  -28.1194  -35.0206   22.7056 C   0  0  1  0  0  0  0  0  0  0  0  0
  -25.5525  -32.3657   21.8138 C   0  0  1  0  0  0  0  0  0  0  0  0
  -27.4927  -13.5070   19.5182 C   0  0  2  0  0  0  0  0  0  0  0  0
  -19.9513  -28.1397   25.0957 C   0  0  0  0  0  0  0  0  0  0  0  0
  -25.5037  -31.5232   26.3579 C   0  0  0  0  0  0  0  0  0  0  0  0
  -23.7359  -29.9328   27.1411 C   0  0  0  0  0  0  0  0  0  0  0  0
  -23.1140  -32.2524   26.4665 C   0  0  0  0  0  0  0  0  0  0  0  0
  -20.8488  -28.2437   21.3998 C   0  0  0  0  0  0  0  0  0  0  0  0
  -28.6277  -26.3065   18.8302 C   0  0  0  0  0  0  0  0  0  1  0  0
  -23.7741  -30.5797   24.6893 C   0  0  1  0  0  0  0  0  0  0  0  0
  -20.5856  -28.7143   23.8386 C   0  0  2  0  0  0  0  0  0  0  0  0
  -24.0474  -31.0662   26.1405 C   0  0  0  0  0  0  0  0  0  0  0  0
  -26.3084  -11.8194   20.8712 N   0  0  0  0  0  0  0  0  0  0  0  0
  -26.2371  -12.9687   20.1783 N   0  0  0  0  0  0  0  0  0  0  0  0
  -28.8896  -22.7769   19.2352 N   0  0  0  0  0  0  0  0  0  0  0  0
  -25.0643  -31.3155   22.7100 N   0  0  0  0  0  0  0  0  0  0  0  0
  -29.4505  -14.9857   19.7435 N   0  0  0  0  0  0  0  0  0  0  0  0
  -26.3378  -18.7087   19.5168 N   0  0  0  0  0  0  0  0  0  0  0  0
  -24.7436  -14.6807   19.5081 N   0  0  0  0  0  0  0  0  0  0  0  0
  -22.1248  -11.8960   21.9130 N   0  0  0  0  0  0  0  0  0  0  0  0
  -28.7596  -17.2385   19.8442 N   0  0  0  0  0  0  0  0  0  0  0  0
  -26.9865  -34.2773   22.1972 N   0  0  0  0  0  0  0  0  0  0  0  0
  -22.3961  -30.1662   24.4473 N   0  0  0  0  0  0  0  0  0  0  0  0
  -20.3023  -27.7899   22.7046 N   0  3  0  0  0  0  0  0  0  0  0  0
  -31.0148  -23.8345   19.2627 O   0  0  0  0  0  0  0  0  0  0  0  0
  -22.1495  -13.8340   20.6872 O   0  0  0  0  0  0  0  0  0  0  0  0
  -27.5324  -32.1967   23.0892 O   0  0  0  0  0  0  0  0  0  0  0  0
  -23.4747  -32.7106   23.6914 O   0  0  0  0  0  0  0  0  0  0  0  0
  -22.8934  -28.0016   23.7807 O   0  0  0  0  0  0  0  0  0  0  0  0
  -30.7857  -16.6604   18.8736 O   0  0  0  0  0  0  0  0  0  0  0  0
  -23.7452   -7.1864   24.4088 O   0  0  0  0  0  0  0  0  0  0  0  0
  -28.5275  -26.9196   20.1149 O   0  0  0  0  0  0  0  0  0  1  0  0
  -19.1219   -4.4566   23.1532 F   0  0  0  0  0  0  0  0  0  0  0  0
  -31.2212  -21.3313   19.5496 F   0  0  0  0  0  0  0  0  0  0  0  0
  -23.8244   -4.5182   23.6900 F   0  0  0  0  0  0  0  0  0  0  0  0
  1  2  1  0  0  0  0
  1  5  2  0  0  0  0
  2  6  2  0  0  0  0
  3  8  2  0  0  0  0
  3 17  1  0  0  0  0
  4  9  1  0  0  0  0
  4 17  2  0  0  0  0
  5 19  1  0  0  0  0
  6 21  1  0  0  0  0
  7 10  2  0  0  0  0
  7 20  1  0  0  0  0
  8 26  1  0  0  0  0
  9 26  2  0  0  0  0
 10 27  1  0  0  0  0
 11 12  2  0  0  0  0
 11 28  1  0  0  0  0
 12 29  1  0  0  0  0
 13 22  1  0  0  0  0
 13 27  2  0  0  0  0
 14 23  1  0  0  0  0
 14 24  2  0  0  0  0
 15 25  2  0  0  0  0
 15 30  1  0  0  0  0
 16 29  2  0  0  0  0
 16 31  1  0  0  0  0
 17 32  1  0  0  0  0
 18 32  1  0  0  0  0
 18 33  2  0  0  0  0
 18 37  1  0  0  0  0
 19 21  2  0  0  0  0
 19 42  1  0  0  0  0
 20 22  2  0  0  0  0
 20 43  1  0  0  0  0
 21 51  1  0  0  0  0
 22 44  1  0  0  0  0
 23 30  2  0  0  0  0
 23 65  1  0  0  0  0
 24 25  1  0  0  0  0
 24 68  1  0  0  0  0
 25 71  1  0  0  0  0
 26 81  1  0  0  0  0
 27 82  1  0  0  0  0
 28 31  2  0  0  0  0
 28 81  1  0  0  0  0
 29 83  1  0  0  0  0
 30 84  1  0  0  0  0
 31 85  1  0  0  0  0
 32 63  2  0  0  0  0
 33 64  1  0  0  0  0
 33 69  1  0  0  0  0
 34 35  2  0  0  0  0
 34 65  1  0  0  0  0
 35 36  1  0  0  0  0
 35 59  1  0  0  0  0
 36 65  1  0  0  0  0
 36 75  2  0  0  0  0
 37 70  1  0  0  0  0
 37 76  2  0  0  0  0
 38 52  1  0  0  0  0
 38 72  1  0  0  0  0
 38 77  2  0  0  0  0
 39 60  1  0  0  0  0
 39 66  1  0  0  0  0
 39 78  2  0  0  0  0
 40 61  1  0  0  0  0
 40 73  1  0  0  0  0
 40 79  2  0  0  0  0
 41 67  1  0  0  0  0
 41 71  1  0  0  0  0
 41 80  2  0  0  0  0
 42 45  1  0  0  0  0
 43 52  1  0  0  0  0
 44 66  1  0  0  0  0
 45 47  1  0  0  0  0
 46 48  1  0  0  0  0
 46 49  1  0  0  0  0
 47 51  1  0  0  0  0
 48 53  1  0  0  0  0
 49 67  1  0  0  0  0
 50 53  1  0  0  0  0
 50 67  1  0  0  0  0
 51 72  1  0  0  0  0
 52 66  1  0  0  0  0
 53 64  1  0  0  0  0
 54 61  1  0  0  0  0
 55 62  1  0  0  0  0
 56 62  1  0  0  0  0
 57 62  1  0  0  0  0
 58 74  1  0  0  0  0
 59 82  1  0  0  0  0
 60 62  1  0  0  0  0
 60 73  1  0  0  0  0
 61 74  1  0  0  0  0
 63 64  1  0  0  0  0
M  CHG  1  74   1
M  ISO  4  41 100  59 101  71 100  82 101
M  END
> <Batch ID>
0088

> <Smiles>
CNC(C)C(=O)NC(C(=O)N1Cc2cc([101O:1][101CH2:1]C3=CN(c4cc(N)c([100NH:0][100C:0](=O)N5CCCC(n6nc(-c7ccc(Oc8ccc(F)cc8F)cc7)c(C(N)=O)c6N)C5)cc4F)C3=O)ccc2CC1C(=O)NC1CCCc2ccccc21)C(C)(C)C

> <Shape>
0.347

> <Color>
0.128

> <Negative vol penalty>
0.000

$$$$

  -OEChem-04052300233D

 83 91  0     1  0  0  0  0  0999 V2000
  -30.4779  -35.9707   23.0876 C   0  0  0  0  0  0  0  0  0  0  0  0
  -30.4900  -34.9207   22.1752 C   0  0  0  0  0  0  0  0  0  0  0  0
  -23.1864   -9.8421   21.5623 C   0  0  0  0  0  0  0  0  0  0  0  0
  -23.7630  -11.0318   23.5846 C   0  0  0  0  0  0  0  0  0  0  0  0
  -29.8323  -35.8196   24.3141 C   0  0  0  0  0  0  0  0  0  0  0  0
  -29.8575  -33.7183   22.4892 C   0  0  0  0  0  0  0  0  0  0  0  0
  -26.2732  -28.3281   19.4207 C   0  0  0  0  0  0  0  0  0  0  0  0
  -22.4767   -8.9065   22.3150 C   0  0  0  0  0  0  0  0  0  0  0  0
  -23.0533  -10.0961   24.3373 C   0  0  0  0  0  0  0  0  0  0  0  0
  -26.2810  -26.9362   19.3423 C   0  0  0  0  0  0  0  0  0  0  0  0
  -23.1701   -6.2129   24.2354 C   0  0  0  0  0  0  0  0  0  0  0  0
  -23.3556   -4.8639   23.9332 C   0  0  0  0  0  0  0  0  0  0  0  0
  -31.3744  -19.4757   19.6551 C   0  0  0  0  0  0  0  0  0  0  0  0
  -31.3946  -18.0518   19.7002 C   0  0  0  0  0  0  0  0  0  0  0  0
  -25.1294  -26.8165   21.4585 C   0  0  0  0  0  0  0  0  0  0  0  0
  -21.0011   -4.6516   23.4351 C   0  0  0  0  0  0  0  0  0  0  0  0
  -23.8296  -10.9048   22.1971 C   0  0  0  0  0  0  0  0  0  0  0  0
  -24.0682  -13.0640   20.8599 C   0  0  0  0  0  0  0  0  0  0  0  0
  -29.1832  -34.6181   24.6394 C   0  0  0  0  0  0  0  0  0  0  0  0
  -25.7021  -28.9756   20.5258 C   0  0  0  0  0  0  0  0  0  0  0  0
  -29.2037  -33.5504   23.7217 C   0  0  0  0  0  0  0  0  0  0  0  0
  -25.1133  -28.2168   21.5474 C   0  0  0  0  0  0  0  0  0  0  0  0
  -22.4101   -9.0335   23.7025 C   0  0  0  0  0  0  0  0  0  0  0  0
  -25.7116  -26.1801   20.3626 C   0  0  0  0  0  0  0  0  0  0  0  0
  -21.9000   -6.7813   24.1376 C   0  0  0  0  0  0  0  0  0  0  0  0
  -22.2712   -4.0833   23.5330 C   0  0  0  0  0  0  0  0  0  0  0  0
  -20.8155   -6.0006   23.7374 C   0  0  0  0  0  0  0  0  0  0  0  0
  -24.5633  -11.8712   21.4202 C   0  0  0  0  0  0  0  0  0  0  0  0
  -30.1632  -19.9892   20.0636 C   0  0  0  0  0  0  0  0  0  0  0  0
  -25.1514  -13.6205   20.2247 C   0  0  0  0  0  0  0  0  0  0  0  0
  -30.1980  -17.5311   20.1418 C   0  0  0  0  0  0  0  0  0  0  0  0
  -22.7473  -13.6194   20.9093 C   0  0  0  0  0  0  0  0  0  0  0  0
  -29.7383  -21.4089   20.1622 C   0  0  0  0  0  0  0  0  0  0  0  0
  -26.7912  -30.9066   22.8037 C   0  0  0  0  0  0  0  0  0  0  0  0
  -23.6535  -31.0910   23.6057 C   0  0  0  0  0  0  0  0  0  0  0  0
  -27.8574  -22.8768   20.8047 C   0  0  0  0  0  0  0  0  0  0  0  0
  -20.5543  -29.6643   23.5267 C   0  0  0  0  0  0  0  0  0  0  0  0
  -30.5357  -15.0348   20.1134 C   0  0  0  0  0  0  0  0  0  0  0  0
  -28.5392  -34.4853   25.9967 C   0  0  0  0  0  0  0  0  0  0  0  0
  -25.6780  -30.4784   20.5825 C   0  0  0  0  0  0  0  0  0  0  0  0
  -24.4694  -28.8640   22.7453 C   0  0  0  0  0  0  0  0  0  0  0  0
  -27.5716  -33.3090   26.0993 C   0  0  0  0  0  0  0  0  0  0  0  0
  -29.7179  -11.6921   19.1999 C   0  0  0  0  0  0  0  0  0  0  0  0
  -28.1964  -32.0505   25.5053 C   0  0  0  0  0  0  0  0  0  0  0  0
  -28.2632  -11.5388   19.6500 C   0  0  0  0  0  0  0  0  0  0  0  0
  -30.5249  -12.5506   20.1722 C   0  0  0  0  0  0  0  0  0  0  0  0
  -28.4855  -13.7101   20.9241 C   0  0  0  0  0  0  0  0  0  0  0  0
  -28.5075  -32.2393   24.0157 C   0  0  1  0  0  0  0  0  0  0  0  0
  -25.5264  -31.0205   22.0005 C   0  0  1  0  0  0  0  0  0  0  0  0
  -27.6166  -12.9071   19.9423 C   0  0  2  0  0  0  0  0  0  0  0  0
  -18.1956  -30.0333   24.2999 C   0  0  0  0  0  0  0  0  0  0  0  0
  -24.4593  -30.2909   26.4378 C   0  0  0  0  0  0  0  0  0  0  0  0
  -22.0567  -29.7559   26.8954 C   0  0  0  0  0  0  0  0  0  0  0  0
  -22.7246  -32.0882   26.3151 C   0  0  0  0  0  0  0  0  0  0  0  0
  -19.5274  -29.7022   20.7513 C   0  0  0  0  0  0  0  0  0  0  0  0
  -26.4248  -22.7554   21.3011 C   0  0  0  0  0  0  0  0  0  0  0  0
  -25.7574  -24.1041   21.5220 C   0  0  0  0  0  0  0  0  0  1  0  0
  -22.7352  -30.3119   24.5160 C   0  0  1  0  0  0  0  0  0  0  0  0
  -19.1927  -30.2324   23.1690 C   0  0  2  0  0  0  0  0  0  0  0  0
  -23.0077  -30.5992   26.0196 C   0  0  0  0  0  0  0  0  0  0  0  0
  -25.8601  -11.6803   21.1634 N   0  0  0  0  0  0  0  0  0  0  0  0
  -26.1890  -12.7605   20.4346 N   0  0  0  0  0  0  0  0  0  0  0  0
  -24.4766  -30.3362   22.7579 N   0  0  0  0  0  0  0  0  0  0  0  0
  -29.8540  -13.8327   20.3979 N   0  0  0  0  0  0  0  0  0  0  0  0
  -25.3080  -14.7566   19.5126 N   0  0  0  0  0  0  0  0  0  0  0  0
  -21.7530  -12.9177   21.6046 N   0  0  0  0  0  0  0  0  0  0  0  0
  -29.7860  -16.1894   20.3361 N   0  0  0  0  0  0  0  0  0  0  0  0
  -28.4365  -21.6194   20.6136 N   0  0  0  0  0  0  0  0  0  0  0  0
  -27.2994  -32.1195   23.2279 N   0  0  0  0  0  0  0  0  0  0  0  0
  -21.3758  -30.6204   24.0856 N   0  0  0  0  0  0  0  0  0  0  0  0
  -18.6579  -29.5659   21.9481 N   0  3  0  0  0  0  0  0  0  0  0  0
  -22.4533  -14.6975   20.3394 O   0  0  0  0  0  0  0  0  0  0  0  0
  -30.5399  -22.2940   19.8758 O   0  0  0  0  0  0  0  0  0  0  0  0
  -27.2697  -29.8001   23.0235 O   0  0  0  0  0  0  0  0  0  0  0  0
  -23.6360  -32.3239   23.6403 O   0  0  0  0  0  0  0  0  0  0  0  0
  -28.4122  -23.9532   20.6025 O   0  0  0  0  0  0  0  0  0  0  0  0
  -20.8574  -28.4891   23.3334 O   0  0  0  0  0  0  0  0  0  0  0  0
  -31.6895  -15.0389   19.6766 O   0  0  0  0  0  0  0  0  0  0  0  0
  -21.7175   -8.1209   24.4373 O   0  0  0  0  0  0  0  0  0  0  0  0
  -25.7185  -24.8213   20.2889 O   0  0  0  0  0  0  0  0  0  1  0  0
  -22.4498   -2.7882   23.2412 F   0  0  0  0  0  0  0  0  0  0  0  0
  -19.5932   -6.5413   23.6404 F   0  0  0  0  0  0  0  0  0  0  0  0
  -29.0569  -18.7569   20.4993 S   0  0  0  0  0  0  0  0  0  0  0  0
  1  2  1  0  0  0  0
  1  5  2  0  0  0  0
  2  6  2  0  0  0  0
  3  8  2  0  0  0  0
  3 17  1  0  0  0  0
  4  9  1  0  0  0  0
  4 17  2  0  0  0  0
  5 19  1  0  0  0  0
  6 21  1  0  0  0  0
  7 10  2  0  0  0  0
  7 20  1  0  0  0  0
  8 23  1  0  0  0  0
  9 23  2  0  0  0  0
 10 24  1  0  0  0  0
 11 12  2  0  0  0  0
 11 25  1  0  0  0  0
 12 26  1  0  0  0  0
 13 14  1  0  0  0  0
 13 29  2  0  0  0  0
 14 31  2  0  0  0  0
 15 22  1  0  0  0  0
 15 24  2  0  0  0  0
 16 26  2  0  0  0  0
 16 27  1  0  0  0  0
 17 28  1  0  0  0  0
 18 28  1  0  0  0  0
 18 30  2  0  0  0  0
 18 32  1  0  0  0  0
 19 21  2  0  0  0  0
 19 39  1  0  0  0  0
 20 22  2  0  0  0  0
 20 40  1  0  0  0  0
 21 48  1  0  0  0  0
 22 41  1  0  0  0  0
 23 79  1  0  0  0  0
 24 80  1  0  0  0  0
 25 27  2  0  0  0  0
 25 79  1  0  0  0  0
 26 81  1  0  0  0  0
 27 82  1  0  0  0  0
 28 61  2  0  0  0  0
 29 33  1  0  0  0  0
 29 83  1  0  0  0  0
 30 62  1  0  0  0  0
 30 65  1  0  0  0  0
 31 67  1  0  0  0  0
 31 83  1  0  0  0  0
 32 66  1  0  0  0  0
 32 72  2  0  0  0  0
 33 68  1  0  0  0  0
 33 73  2  0  0  0  0
 34 49  1  0  0  0  0
 34 69  1  0  0  0  0
 34 74  2  0  0  0  0
 35 58  1  0  0  0  0
 35 63  1  0  0  0  0
 35 75  2  0  0  0  0
 36 56  1  0  0  0  0
 36 68  1  0  0  0  0
 36 76  2  0  0  0  0
 37 59  1  0  0  0  0
 37 70  1  0  0  0  0
 37 77  2  0  0  0  0
 38 64  1  0  0  0  0
 38 67  1  0  0  0  0
 38 78  2  0  0  0  0
 39 42  1  0  0  0  0
 40 49  1  0  0  0  0
 41 63  1  0  0  0  0
 42 44  1  0  0  0  0
 43 45  1  0  0  0  0
 43 46  1  0  0  0  0
 44 48  1  0  0  0  0
 45 50  1  0  0  0  0
 46 64  1  0  0  0  0
 47 50  1  0  0  0  0
 47 64  1  0  0  0  0
 48 69  1  0  0  0  0
 49 63  1  0  0  0  0
 50 62  1  0  0  0  0
 51 59  1  0  0  0  0
 52 60  1  0  0  0  0
 53 60  1  0  0  0  0
 54 60  1  0  0  0  0
 55 71  1  0  0  0  0
 56 57  1  0  0  0  0
 57 80  1  0  0  0  0
 58 60  1  0  0  0  0
 58 70  1  0  0  0  0
 59 71  1  0  0  0  0
 61 62  1  0  0  0  0
M  CHG  1  71   1
M  ISO  4  38 100  57 101  67 100  80 101
M  END
> <Batch ID>
0088

> <Smiles>
CNC(C)C(=O)NC(C(=O)N1Cc2cc([101O:1][101CH2:1]CC(=O)NC(=O)c3ccc([100NH:0][100C:0](=O)N4CCCC(n5nc(-c6ccc(Oc7ccc(F)cc7F)cc6)c(C(N)=O)c5N)C4)s3)ccc2CC1C(=O)NC1CCCc2ccccc21)C(C)(C)C

> <Shape>
0.328

> <Color>
0.171

> <Negative vol penalty>
0.000

$$$$

  -OEChem-04052300233D

 87 96  0     1  0  0  0  0  0999 V2000
  -29.2460  -36.9839   23.4469 C   0  0  0  0  0  0  0  0  0  0  0  0
  -29.5231  -35.6953   23.0017 C   0  0  0  0  0  0  0  0  0  0  0  0
  -24.2464   -9.3603   21.5966 C   0  0  0  0  0  0  0  0  0  0  0  0
  -24.7983  -10.6964   23.5323 C   0  0  0  0  0  0  0  0  0  0  0  0
  -28.1089  -37.2247   24.2169 C   0  0  0  0  0  0  0  0  0  0  0  0
  -28.6638  -34.6465   23.3271 C   0  0  0  0  0  0  0  0  0  0  0  0
  -27.2924  -29.7962   19.8487 C   0  0  0  0  0  0  0  0  0  0  0  0
  -23.9089   -8.2934   22.4292 C   0  0  0  0  0  0  0  0  0  0  0  0
  -24.4607   -9.6295   24.3650 C   0  0  0  0  0  0  0  0  0  0  0  0
  -27.7706  -28.4867   19.8347 C   0  0  0  0  0  0  0  0  0  0  0  0
  -21.2940   -7.3763   24.3669 C   0  0  0  0  0  0  0  0  0  0  0  0
  -20.1130   -6.6873   24.0911 C   0  0  0  0  0  0  0  0  0  0  0  0
  -25.9103  -27.7991   21.2079 C   0  0  0  0  0  0  0  0  0  0  0  0
  -28.1619  -20.6478   20.5067 C   0  0  0  0  0  0  0  0  0  0  0  0
  -30.3096  -18.9972   19.8391 C   0  0  0  0  0  0  0  0  0  0  0  0
  -21.3737   -4.6492   23.7847 C   0  0  0  0  0  0  0  0  0  0  0  0
  -24.6912  -10.5618   22.1481 C   0  0  0  0  0  0  0  0  0  0  0  0
  -24.1886  -12.6853   20.8268 C   0  0  0  0  0  0  0  0  0  0  0  0
  -27.2300  -36.1800   24.5438 C   0  0  0  0  0  0  0  0  0  0  0  0
  -26.1235  -30.1197   20.5526 C   0  0  0  0  0  0  0  0  0  0  0  0
  -27.5145  -34.8733   24.1033 C   0  0  0  0  0  0  0  0  0  0  0  0
  -25.4179  -29.1131   21.2271 C   0  0  0  0  0  0  0  0  0  0  0  0
  -29.4586  -21.1615   20.4937 C   0  0  0  0  0  0  0  0  0  0  0  0
  -27.9390  -19.3087   20.1859 C   0  0  0  0  0  0  0  0  0  0  0  0
  -29.0128  -18.4834   19.8521 C   0  0  0  0  0  0  0  0  0  0  0  0
  -24.0160   -8.4279   23.8134 C   0  0  0  0  0  0  0  0  0  0  0  0
  -27.0811  -27.4885   20.5168 C   0  0  0  0  0  0  0  0  0  0  0  0
  -22.5149   -6.7018   24.3515 C   0  0  0  0  0  0  0  0  0  0  0  0
  -20.1529   -5.3237   23.8000 C   0  0  0  0  0  0  0  0  0  0  0  0
  -30.5325  -20.3363   20.1599 C   0  0  0  0  0  0  0  0  0  0  0  0
  -22.5547   -5.3382   24.0604 C   0  0  0  0  0  0  0  0  0  0  0  0
  -25.0406  -11.6641   21.2885 C   0  0  0  0  0  0  0  0  0  0  0  0
  -24.9952  -13.4800   20.0494 C   0  0  0  0  0  0  0  0  0  0  0  0
  -29.3532  -24.7512   21.0528 C   0  0  0  0  0  0  0  0  0  0  0  0
  -30.6869  -24.4415   21.5860 C   0  0  0  0  0  0  0  0  0  0  0  0
  -28.7219  -23.5078   20.5664 C   0  0  0  0  0  0  0  0  0  0  0  0
  -28.7928  -25.9736   21.0128 C   0  0  0  0  0  0  0  0  0  1  0  0
  -22.7930  -12.8967   21.0783 C   0  0  0  0  0  0  0  0  0  0  0  0
  -25.4348  -32.0246   23.0022 C   0  0  0  0  0  0  0  0  0  0  0  0
  -22.3832  -31.1805   22.2969 C   0  0  0  0  0  0  0  0  0  0  0  0
  -20.2564  -28.9162   20.8838 C   0  0  0  0  0  0  0  0  0  0  0  0
  -29.7841  -16.1827   19.1750 C   0  0  0  0  0  0  0  0  0  0  0  0
  -26.0385  -36.4806   25.4183 C   0  0  0  0  0  0  0  0  0  0  0  0
  -25.6062  -31.5320   20.5357 C   0  0  0  0  0  0  0  0  0  0  0  0
  -24.1470  -29.4044   21.9811 C   0  0  0  0  0  0  0  0  0  0  0  0
  -30.9285  -22.9678   21.4425 C   0  0  0  0  0  0  0  0  0  0  0  0
  -24.9798  -35.3809   25.4043 C   0  0  0  0  0  0  0  0  0  0  0  0
  -29.6975  -12.7238   18.3352 C   0  0  0  0  0  0  0  0  0  0  0  0
  -25.6305  -34.0113   25.5706 C   0  0  0  0  0  0  0  0  0  0  0  0
  -28.4081  -12.2237   18.9907 C   0  0  0  0  0  0  0  0  0  0  0  0
  -30.3991  -13.7752   19.1932 C   0  0  0  0  0  0  0  0  0  0  0  0
  -28.2678  -14.4077   20.2547 C   0  0  0  0  0  0  0  0  0  0  0  0
  -26.5932  -33.7138   24.4148 C   0  0  1  0  0  0  0  0  0  0  0  0
  -24.6864  -31.8455   21.7117 C   0  0  1  0  0  0  0  0  0  0  0  0
  -27.4919  -13.3945   19.3973 C   0  0  2  0  0  0  0  0  0  0  0  0
  -17.8154  -28.4815   20.4967 C   0  0  0  0  0  0  0  0  0  0  0  0
  -22.0707  -30.3497   25.2162 C   0  0  0  0  0  0  0  0  0  0  0  0
  -20.0151  -29.0790   24.5620 C   0  0  0  0  0  0  0  0  0  0  0  0
  -20.0994  -31.5535   24.2574 C   0  0  0  0  0  0  0  0  0  0  0  0
  -20.5973  -28.9522   17.9442 C   0  0  0  0  0  0  0  0  0  0  0  0
  -21.4554  -30.0690   22.7245 C   0  0  1  0  0  0  0  0  0  0  0  0
  -19.0884  -29.0904   19.9299 C   0  0  2  0  0  0  0  0  0  0  0  0
  -20.9351  -30.2574   24.1775 C   0  0  0  0  0  0  0  0  0  0  0  0
  -26.2924  -11.7955   20.8415 N   0  0  0  0  0  0  0  0  0  0  0  0
  -26.2329  -12.9086   20.0908 N   0  0  0  0  0  0  0  0  0  0  0  0
  -29.6789  -22.4988   20.8157 N   0  0  0  0  0  0  0  0  0  0  0  0
  -23.6851  -30.8017   21.9401 N   0  0  0  0  0  0  0  0  0  0  0  0
  -29.4712  -14.8551   19.5360 N   0  0  0  0  0  0  0  0  0  0  0  0
  -26.6175  -18.8091   20.2047 N   0  0  0  0  0  0  0  0  0  0  0  0
  -24.7593  -14.6048   19.3411 N   0  0  0  0  0  0  0  0  0  0  0  0
  -22.1165  -11.9846   21.8997 N   0  0  0  0  0  0  0  0  0  0  0  0
  -28.8120  -17.1196   19.5243 N   0  0  0  0  0  0  0  0  0  0  0  0
  -25.8572  -33.3199   23.2326 N   0  0  0  0  0  0  0  0  0  0  0  0
  -20.4027  -30.0056   21.7164 N   0  0  0  0  0  0  0  0  0  0  0  0
  -19.3830  -28.4335   18.6250 N   0  3  0  0  0  0  0  0  0  0  0  0
  -31.4670  -25.2468   22.0646 O   0  0  0  0  0  0  0  0  0  0  0  0
  -27.6149  -23.4148   20.0654 O   0  0  0  0  0  0  0  0  0  0  0  0
  -22.1607  -13.8564   20.5757 O   0  0  0  0  0  0  0  0  0  0  0  0
  -25.6143  -31.0593   23.7355 O   0  0  0  0  0  0  0  0  0  0  0  0
  -21.9660  -32.3411   22.2733 O   0  0  0  0  0  0  0  0  0  0  0  0
  -20.9656  -27.9125   20.8922 O   0  0  0  0  0  0  0  0  0  0  0  0
  -30.8243  -16.4639   18.5742 O   0  0  0  0  0  0  0  0  0  0  0  0
  -23.6864   -7.3871   24.6262 O   0  0  0  0  0  0  0  0  0  0  0  0
  -27.5460  -26.2096   20.5053 O   0  0  0  0  0  0  0  0  0  1  0  0
  -19.0185   -4.6618   23.5367 F   0  0  0  0  0  0  0  0  0  0  0  0
  -31.7830  -20.8193   20.1436 F   0  0  0  0  0  0  0  0  0  0  0  0
  -23.7245   -4.6846   24.0453 F   0  0  0  0  0  0  0  0  0  0  0  0
  1  2  1  0  0  0  0
  1  5  2  0  0  0  0
  2  6  2  0  0  0  0
  3  8  2  0  0  0  0
  3 17  1  0  0  0  0
  4  9  1  0  0  0  0
  4 17  2  0  0  0  0
  5 19  1  0  0  0  0
  6 21  1  0  0  0  0
  7 10  2  0  0  0  0
  7 20  1  0  0  0  0
  8 26  1  0  0  0  0
  9 26  2  0  0  0  0
 10 27  1  0  0  0  0
 11 12  2  0  0  0  0
 11 28  1  0  0  0  0
 12 29  1  0  0  0  0
 13 22  1  0  0  0  0
 13 27  2  0  0  0  0
 14 23  1  0  0  0  0
 14 24  2  0  0  0  0
 15 25  2  0  0  0  0
 15 30  1  0  0  0  0
 16 29  2  0  0  0  0
 16 31  1  0  0  0  0
 17 32  1  0  0  0  0
 18 32  1  0  0  0  0
 18 33  2  0  0  0  0
 18 38  1  0  0  0  0
 19 21  2  0  0  0  0
 19 43  1  0  0  0  0
 20 22  2  0  0  0  0
 20 44  1  0  0  0  0
 21 53  1  0  0  0  0
 22 45  1  0  0  0  0
 23 30  2  0  0  0  0
 23 66  1  0  0  0  0
 24 25  1  0  0  0  0
 24 69  1  0  0  0  0
 25 72  1  0  0  0  0
 26 83  1  0  0  0  0
 27 84  1  0  0  0  0
 28 31  2  0  0  0  0
 28 83  1  0  0  0  0
 29 85  1  0  0  0  0
 30 86  1  0  0  0  0
 31 87  1  0  0  0  0
 32 64  2  0  0  0  0
 33 65  1  0  0  0  0
 33 70  1  0  0  0  0
 34 35  1  0  0  0  0
 34 36  1  0  0  0  0
 34 37  2  0  0  0  0
 35 46  1  0  0  0  0
 35 76  2  0  0  0  0
 36 66  1  0  0  0  0
 36 77  2  0  0  0  0
 37 84  1  0  0  0  0
 38 71  1  0  0  0  0
 38 78  2  0  0  0  0
 39 54  1  0  0  0  0
 39 73  1  0  0  0  0
 39 79  2  0  0  0  0
 40 61  1  0  0  0  0
 40 67  1  0  0  0  0
 40 80  2  0  0  0  0
 41 62  1  0  0  0  0
 41 74  1  0  0  0  0
 41 81  2  0  0  0  0
 42 68  1  0  0  0  0
 42 72  1  0  0  0  0
 42 82  2  0  0  0  0
 43 47  1  0  0  0  0
 44 54  1  0  0  0  0
 45 67  1  0  0  0  0
 46 66  1  0  0  0  0
 47 49  1  0  0  0  0
 48 50  1  0  0  0  0
 48 51  1  0  0  0  0
 49 53  1  0  0  0  0
 50 55  1  0  0  0  0
 51 68  1  0  0  0  0
 52 55  1  0  0  0  0
 52 68  1  0  0  0  0
 53 73  1  0  0  0  0
 54 67  1  0  0  0  0
 55 65  1  0  0  0  0
 56 62  1  0  0  0  0
 57 63  1  0  0  0  0
 58 63  1  0  0  0  0
 59 63  1  0  0  0  0
 60 75  1  0  0  0  0
 61 63  1  0  0  0  0
 61 74  1  0  0  0  0
 62 75  1  0  0  0  0
 64 65  1  0  0  0  0
M  CHG  1  75   1
M  ISO  4  37 101  42 100  72 100  84 101
M  END
> <Batch ID>
0088

> <Smiles>
CNC(C)C(=O)NC(C(=O)N1Cc2cc([101O:1][101CH:1]=C3C(=O)CN(c4cc(N)c([100NH:0][100C:0](=O)N5CCCC(n6nc(-c7ccc(Oc8ccc(F)cc8F)cc7)c(C(N)=O)c6N)C5)cc4F)C3=O)ccc2CC1C(=O)NC1CCCc2ccccc21)C(C)(C)C

> <Shape>
0.352

> <Color>
0.113

> <Negative vol penalty>
0.000

$$$$

  -OEChem-04052300233D

 90100  0     1  0  0  0  0  0999 V2000
  -27.8480  -24.0030   17.1609 C   0  0  0  0  0  0  0  0  0  0  0  0
  -26.6803  -24.2630   17.8711 C   0  0  0  0  0  0  0  0  0  0  0  0
  -24.0463  -24.7450   24.2953 C   0  0  0  0  0  0  0  0  0  0  0  0
  -25.7156  -13.6900   20.2864 C   0  0  0  0  0  0  0  0  0  0  0  0
  -24.1933  -15.0747   21.5523 C   0  0  0  0  0  0  0  0  0  0  0  0
  -29.0626  -24.5254   17.6033 C   0  0  0  0  0  0  0  0  0  0  0  0
  -26.7268  -25.0447   19.0248 C   0  0  0  0  0  0  0  0  0  0  0  0
  -23.0215  -28.4918   19.1775 C   0  0  0  0  0  0  0  0  0  0  0  0
  -22.6756  -24.5889   24.0895 C   0  0  0  0  0  0  0  0  0  0  0  0
  -24.9529  -23.9714   23.5704 C   0  0  0  0  0  0  0  0  0  0  0  0
  -25.2496  -12.5613   20.9606 C   0  0  0  0  0  0  0  0  0  0  0  0
  -23.7273  -13.9460   22.2265 C   0  0  0  0  0  0  0  0  0  0  0  0
  -21.7514  -28.0467   19.5416 C   0  0  0  0  0  0  0  0  0  0  0  0
  -22.5634  -10.5121   20.8270 C   0  0  0  0  0  0  0  0  0  0  0  0
  -22.2829   -9.3746   20.0701 C   0  0  0  0  0  0  0  0  0  0  0  0
  -22.1093  -28.8741   21.7791 C   0  0  0  0  0  0  0  0  0  0  0  0
  -23.9227   -8.1292   21.3340 C   0  0  0  0  0  0  0  0  0  0  0  0
  -25.1875  -14.9467   20.5823 C   0  0  0  0  0  0  0  0  0  0  0  0
  -25.6254  -16.3542   18.5002 C   0  0  0  0  0  0  0  0  0  0  0  0
  -29.1225  -25.3220   18.7576 C   0  0  0  0  0  0  0  0  0  0  0  0
  -23.8506  -29.1228   20.1160 C   0  0  0  0  0  0  0  0  0  0  0  0
  -27.9436  -25.5772   19.4838 C   0  0  0  0  0  0  0  0  0  0  0  0
  -23.3885  -29.3287   21.4237 C   0  0  0  0  0  0  0  0  0  0  0  0
  -22.2114  -23.6592   23.1590 C   0  0  0  0  0  0  0  0  0  0  0  0
  -24.4888  -23.0417   22.6399 C   0  0  0  0  0  0  0  0  0  0  0  0
  -24.2555  -12.6893   21.9307 C   0  0  0  0  0  0  0  0  0  0  0  0
  -21.2963  -28.2352   20.8432 C   0  0  0  0  0  0  0  0  0  0  0  0
  -23.5236  -10.4582   21.8374 C   0  0  0  0  0  0  0  0  0  0  0  0
  -22.9625   -8.1831   20.3235 C   0  0  0  0  0  0  0  0  0  0  0  0
  -24.2032   -9.2667   22.0909 C   0  0  0  0  0  0  0  0  0  0  0  0
  -23.1180  -22.8856   22.4342 C   0  0  0  0  0  0  0  0  0  0  0  0
  -25.6688  -16.1131   19.8865 C   0  0  0  0  0  0  0  0  0  0  0  0
  -26.2031  -17.5911   18.3487 C   0  0  0  0  0  0  0  0  0  0  0  0
  -19.9925  -25.5536   21.9803 C   0  0  0  0  0  0  0  0  0  0  0  0
  -20.2509  -23.8568   20.1951 C   0  0  0  0  0  0  0  0  0  0  0  0
  -19.9636  -26.8782   22.2046 C   0  0  0  0  0  0  0  0  0  1  0  0
  -25.1091  -15.5336   17.4440 C   0  0  0  0  0  0  0  0  0  0  0  0
  -26.6912  -28.4806   21.3899 C   0  0  0  0  0  0  0  0  0  0  0  0
  -26.3187  -31.4114   22.7292 C   0  0  0  0  0  0  0  0  0  0  0  0
  -24.1969  -33.8809   23.7521 C   0  0  0  0  0  0  0  0  0  0  0  0
  -26.8039  -22.2899   21.9908 C   0  0  0  0  0  0  0  0  0  0  0  0
  -30.4657  -25.8254   19.2233 C   0  0  0  0  0  0  0  0  0  0  0  0
  -25.2076  -29.6211   19.7004 C   0  0  0  0  0  0  0  0  0  0  0  0
  -24.2319  -30.0186   22.4635 C   0  0  0  0  0  0  0  0  0  0  0  0
  -19.8982  -24.6020   23.1325 C   0  0  0  0  0  0  0  0  0  0  0  0
  -20.3468  -23.8222   18.6939 C   0  0  0  0  0  0  0  0  0  0  0  0
  -30.3718  -26.9546   20.2462 C   0  0  0  0  0  0  0  0  0  0  0  0
  -19.3693  -22.8080   18.1117 C   0  0  0  0  0  0  0  0  0  0  0  0
  -19.4150  -21.4690   18.8432 C   0  0  0  0  0  0  0  0  0  0  0  0
  -29.4237  -20.4945   20.3814 C   0  0  0  0  0  0  0  0  0  0  0  0
  -29.3502  -26.6129   21.3262 C   0  0  0  0  0  0  0  0  0  0  0  0
  -28.7526  -19.1917   19.9403 C   0  0  0  0  0  0  0  0  0  0  0  0
  -20.4914  -21.4370   19.9154 C   0  0  0  0  0  0  0  0  0  0  0  0
  -28.8965  -20.9749   21.7323 C   0  0  0  0  0  0  0  0  0  0  0  0
  -26.7645  -19.7916   21.3807 C   0  0  0  0  0  0  0  0  0  0  0  0
  -20.2862  -22.3741   22.2356 C   0  0  0  0  0  0  0  0  0  0  0  0
  -27.9495  -26.4413   20.7262 C   0  0  1  0  0  0  0  0  0  0  0  0
  -26.1671  -29.7910   20.8743 C   0  0  1  0  0  0  0  0  0  0  0  0
  -27.2163  -19.3026   19.9949 C   0  0  2  0  0  0  0  0  0  0  0  0
  -24.1845  -36.1403   24.8440 C   0  0  0  0  0  0  0  0  0  0  0  0
  -26.8457  -30.1039   25.4352 C   0  0  0  0  0  0  0  0  0  0  0  0
  -25.8994  -32.1476   26.5288 C   0  0  0  0  0  0  0  0  0  0  0  0
  -27.9488  -32.3257   25.1178 C   0  0  0  0  0  0  0  0  0  0  0  0
  -22.9510  -35.1467   21.3846 C   0  0  0  0  0  0  0  0  0  0  0  0
  -25.7109  -31.9326   24.0091 C   0  0  1  0  0  0  0  0  0  0  0  0
  -24.2148  -35.3820   23.5262 C   0  0  2  0  0  0  0  0  0  0  0  0
  -26.5858  -31.6127   25.2539 C   0  0  0  0  0  0  0  0  0  0  0  0
  -26.2298  -17.1161   20.5671 N   0  0  0  0  0  0  0  0  0  0  0  0
  -26.5443  -17.9995   19.6044 N   0  0  0  0  0  0  0  0  0  0  0  0
  -20.8407  -23.5057   22.9552 N   0  0  3  0  0  0  0  0  0  0  0  0
  -20.3462  -22.6382   20.7838 N   0  0  0  0  0  0  0  0  0  0  0  0
  -25.5536  -30.4822   22.0102 N   0  0  0  0  0  0  0  0  0  0  0  0
  -27.4346  -21.0599   21.7079 N   0  0  0  0  0  0  0  0  0  0  0  0
  -20.1062  -25.1030   20.6732 N   0  3  0  0  0  0  0  0  0  0  0  0
  -26.4474  -18.3582   17.2650 N   0  0  0  0  0  0  0  0  0  0  0  0
  -23.7642  -15.6826   17.0788 N   0  0  0  0  0  0  0  0  0  0  0  0
  -25.4124  -22.2574   21.9054 N   0  0  0  0  0  0  0  0  0  0  0  0
  -27.3637  -27.7319   20.4430 N   0  0  0  0  0  0  0  0  0  0  0  0
  -25.4711  -33.3559   23.7971 N   0  0  0  0  0  0  0  0  0  0  0  0
  -23.0345  -35.7982   22.7171 N   0  3  0  0  0  0  0  0  0  0  0  0
  -25.8150  -14.6816   16.8530 O   0  0  0  0  0  0  0  0  0  0  0  0
  -26.5008  -28.1723   22.5605 O   0  0  0  0  0  0  0  0  0  0  0  0
  -27.4282  -31.8194   22.3767 O   0  0  0  0  0  0  0  0  0  0  0  0
  -23.1566  -33.2390   23.8798 O   0  0  0  0  0  0  0  0  0  0  0  0
  -27.4518  -23.3046   22.2602 O   0  0  0  0  0  0  0  0  0  0  0  0
  -23.8004  -11.5881   22.5886 O   0  0  0  0  0  0  0  0  0  0  0  0
  -20.0447  -27.7966   21.2050 O   0  0  0  0  0  0  0  0  0  1  0  0
  -22.6919   -7.0905   19.5976 F   0  0  0  0  0  0  0  0  0  0  0  0
  -25.1258   -9.2085   23.0610 F   0  0  0  0  0  0  0  0  0  0  0  0
  -22.6710  -21.9915   21.5389 F   0  0  0  0  0  0  0  0  0  0  0  0
  1  2  1  0  0  0  0
  1  6  2  0  0  0  0
  2  7  2  0  0  0  0
  3  9  2  0  0  0  0
  3 10  1  0  0  0  0
  4 11  2  0  0  0  0
  4 18  1  0  0  0  0
  5 12  1  0  0  0  0
  5 18  2  0  0  0  0
  6 20  1  0  0  0  0
  7 22  1  0  0  0  0
  8 13  2  0  0  0  0
  8 21  1  0  0  0  0
  9 24  1  0  0  0  0
 10 25  2  0  0  0  0
 11 26  1  0  0  0  0
 12 26  2  0  0  0  0
 13 27  1  0  0  0  0
 14 15  2  0  0  0  0
 14 28  1  0  0  0  0
 15 29  1  0  0  0  0
 16 23  1  0  0  0  0
 16 27  2  0  0  0  0
 17 29  2  0  0  0  0
 17 30  1  0  0  0  0
 18 32  1  0  0  0  0
 19 32  1  0  0  0  0
 19 33  2  0  0  0  0
 19 37  1  0  0  0  0
 20 22  2  0  0  0  0
 20 42  1  0  0  0  0
 21 23  2  0  0  0  0
 21 43  1  0  0  0  0
 22 57  1  0  0  0  0
 23 44  1  0  0  0  0
 24 31  2  0  0  0  0
 24 70  1  0  0  0  0
 25 31  1  0  0  0  0
 25 77  1  0  0  0  0
 26 86  1  0  0  0  0
 27 87  1  0  0  0  0
 28 30  2  0  0  0  0
 28 86  1  0  0  0  0
 29 88  1  0  0  0  0
 30 89  1  0  0  0  0
 31 90  1  0  0  0  0
 32 68  2  0  0  0  0
 33 69  1  0  0  0  0
 33 75  1  0  0  0  0
 34 36  2  0  0  0  0
 34 45  1  0  0  0  0
 34 74  1  0  0  0  0
 35 46  1  0  0  0  0
 35 71  1  0  0  0  0
 35 74  2  0  0  0  0
 36 87  1  0  0  0  0
 37 76  1  0  0  0  0
 37 81  2  0  0  0  0
 38 58  1  0  0  0  0
 38 78  1  0  0  0  0
 38 82  2  0  0  0  0
 39 65  1  0  0  0  0
 39 72  1  0  0  0  0
 39 83  2  0  0  0  0
 40 66  1  0  0  0  0
 40 79  1  0  0  0  0
 40 84  2  0  0  0  0
 41 73  1  0  0  0  0
 41 77  1  0  0  0  0
 41 85  2  0  0  0  0
 42 47  1  0  0  0  0
 43 58  1  0  0  0  0
 44 72  1  0  0  0  0
 45 70  1  0  0  0  0
 46 48  1  0  0  0  0
 47 51  1  0  0  0  0
 48 49  1  0  0  0  0
 49 53  1  0  0  0  0
 50 52  1  0  0  0  0
 50 54  1  0  0  0  0
 51 57  1  0  0  0  0
 52 59  1  0  0  0  0
 53 71  1  0  0  0  0
 54 73  1  0  0  0  0
 55 59  1  0  0  0  0
 55 73  1  0  0  0  0
 56 70  1  0  0  0  0
 56 71  1  0  0  0  0
 57 78  1  0  0  0  0
 58 72  1  0  0  0  0
 59 69  1  0  0  0  0
 60 66  1  0  0  0  0
 61 67  1  0  0  0  0
 62 67  1  0  0  0  0
 63 67  1  0  0  0  0
 64 80  1  0  0  0  0
 65 67  1  0  0  0  0
 65 79  1  0  0  0  0
 66 80  1  0  0  0  0
 68 69  1  0  0  0  0
M  CHG  2  74   1  80   1
M  ISO  4  36 101  41 100  77 100  87 101
M  END
> <Batch ID>
0088

> <Smiles>
CNC(C)C(=O)NC(C(=O)N1Cc2cc([101O:1][101CH:1]=C3CN(c4cccc([100NH:0][100C:0](=O)N5CCCC(n6nc(-c7ccc(Oc8ccc(F)cc8F)cc7)c(C(N)=O)c6N)C5)c4F)CN4CCCCC4=N3)ccc2CC1C(=O)NC1CCCc2ccccc21)C(C)(C)C

> <Shape>
0.292

> <Color>
0.069

> <Negative vol penalty>
0.000

$$$$

  -OEChem-04052300233D

 82 90  0     1  0  0  0  0  0999 V2000
  -21.8499  -12.3695   19.6227 C   0  0  0  0  0  0  0  0  0  0  0  0
  -21.7181  -13.7322   19.8698 C   0  0  0  0  0  0  0  0  0  0  0  0
  -18.0947  -27.9704   22.9773 C   0  0  0  0  0  0  0  0  0  0  0  0
  -29.3967  -28.7564   25.4943 C   0  0  0  0  0  0  0  0  0  0  0  0
  -28.1979  -26.7348   24.9348 C   0  0  0  0  0  0  0  0  0  0  0  0
  -18.2248  -26.6085   22.7051 C   0  0  0  0  0  0  0  0  0  0  0  0
  -23.0570  -11.7266   19.8941 C   0  0  0  0  0  0  0  0  0  0  0  0
  -22.7929  -14.4526   20.3895 C   0  0  0  0  0  0  0  0  0  0  0  0
  -23.4888  -18.8781   18.0283 C   0  0  0  0  0  0  0  0  0  0  0  0
  -19.1946  -28.8172   22.8400 C   0  0  0  0  0  0  0  0  0  0  0  0
  -29.9987  -28.1020   26.5690 C   0  0  0  0  0  0  0  0  0  0  0  0
  -28.7999  -26.0804   26.0095 C   0  0  0  0  0  0  0  0  0  0  0  0
  -22.6322  -19.9237   18.3700 C   0  0  0  0  0  0  0  0  0  0  0  0
  -28.4083  -25.9186   29.3638 C   0  0  0  0  0  0  0  0  0  0  0  0
  -27.5963  -25.1318   30.1806 C   0  0  0  0  0  0  0  0  0  0  0  0
  -20.5547  -26.9403   22.1586 C   0  0  0  0  0  0  0  0  0  0  0  0
  -24.3377  -20.8436   19.8066 C   0  0  0  0  0  0  0  0  0  0  0  0
  -28.9319  -23.1924   29.6400 C   0  0  0  0  0  0  0  0  0  0  0  0
  -28.4963  -28.0728   24.6772 C   0  0  0  0  0  0  0  0  0  0  0  0
  -19.4547  -26.0935   22.2958 C   0  0  0  0  0  0  0  0  0  0  0  0
  -28.3516  -28.8304   22.2456 C   0  0  0  0  0  0  0  0  0  0  0  0
  -24.1502  -12.4414   20.4084 C   0  0  0  0  0  0  0  0  0  0  0  0
  -24.7746  -18.8014   18.5826 C   0  0  0  0  0  0  0  0  0  0  0  0
  -24.0153  -13.8184   20.6693 C   0  0  0  0  0  0  0  0  0  0  0  0
  -25.2097  -19.7975   19.4684 C   0  0  0  0  0  0  0  0  0  0  0  0
  -20.4246  -28.3021   22.4307 C   0  0  0  0  0  0  0  0  0  0  0  0
  -29.7003  -26.7640   26.8266 C   0  0  0  0  0  0  0  0  0  0  0  0
  -23.0555  -20.9051   19.2615 C   0  0  0  0  0  0  0  0  0  0  0  0
  -29.4820  -25.3424   28.6850 C   0  0  0  0  0  0  0  0  0  0  0  0
  -27.8582  -23.7687   30.3187 C   0  0  0  0  0  0  0  0  0  0  0  0
  -29.7439  -23.9793   28.8232 C   0  0  0  0  0  0  0  0  0  0  0  0
  -27.8737  -28.7483   23.5672 C   0  0  0  0  0  0  0  0  0  0  0  0
  -27.4052  -29.5738   21.5838 C   0  0  0  0  0  0  0  0  0  0  0  0
  -21.0295  -22.9841   21.3427 C   0  0  0  0  0  0  0  0  0  0  0  0
  -19.5923  -24.6368   22.0050 C   0  0  0  0  0  0  0  0  0  0  0  0
  -29.5444  -28.2835   21.6679 C   0  0  0  0  0  0  0  0  0  0  0  0
  -26.2993  -16.7131   20.4314 C   0  0  0  0  0  0  0  0  0  0  0  0
  -28.8373  -18.6504   19.8590 C   0  0  0  0  0  0  0  0  0  0  0  0
  -29.9815  -21.7496   19.0031 C   0  0  0  0  0  0  0  0  0  0  0  0
  -21.5829  -30.5374   22.5207 C   0  0  0  0  0  0  0  0  0  0  0  0
  -25.4198  -11.6936   20.7303 C   0  0  0  0  0  0  0  0  0  0  0  0
  -25.6962  -17.6818   18.1833 C   0  0  0  0  0  0  0  0  0  0  0  0
  -26.5877  -19.7719   20.0756 C   0  0  0  0  0  0  0  0  0  0  0  0
  -26.6292  -12.6038   20.9284 C   0  0  0  0  0  0  0  0  0  0  0  0
  -24.1449  -33.0023   22.3258 C   0  0  0  0  0  0  0  0  0  0  0  0
  -26.2710  -13.7780   21.8338 C   0  0  0  0  0  0  0  0  0  0  0  0
  -25.4356  -32.1978   22.4957 C   0  0  0  0  0  0  0  0  0  0  0  0
  -23.0154  -32.4526   23.1953 C   0  0  0  0  0  0  0  0  0  0  0  0
  -24.0411  -30.2127   23.2042 C   0  0  0  0  0  0  0  0  0  0  0  0
  -25.1663  -14.6391   21.2095 C   0  0  1  0  0  0  0  0  0  0  0  0
  -26.7992  -17.4226   19.2048 C   0  0  1  0  0  0  0  0  0  0  0  0
  -25.1893  -30.6890   22.2994 C   0  0  2  0  0  0  0  0  0  0  0  0
  -32.1066  -23.0379   18.6542 C   0  0  0  0  0  0  0  0  0  0  0  0
  -29.2190  -18.8345   22.8807 C   0  0  0  0  0  0  0  0  0  0  0  0
  -30.6913  -20.8240   22.5035 C   0  0  0  0  0  0  0  0  0  0  0  0
  -31.3384  -18.6015   21.5738 C   0  0  0  0  0  0  0  0  0  0  0  0
  -29.3257  -22.2889   16.1679 C   0  0  0  0  0  0  0  0  0  0  0  0
  -22.3746  -22.4892   20.8995 C   0  0  0  0  0  0  0  0  0  1  0  0
  -29.4209  -19.8728   20.5255 C   0  0  1  0  0  0  0  0  0  0  0  0
  -31.0258  -22.1950   17.9953 C   0  0  2  0  0  0  0  0  0  0  0  0
  -30.1407  -19.5329   21.8611 C   0  0  0  0  0  0  0  0  0  0  0  0
  -26.7138  -29.3886   23.7368 N   0  0  0  0  0  0  0  0  0  0  0  0
  -20.8499  -24.2347   21.6083 N   0  0  0  0  0  0  0  0  0  0  0  0
  -26.4550  -29.8802   22.5131 N   0  0  0  0  0  0  0  0  0  0  0  0
  -27.4496  -18.6535   19.6589 N   0  0  0  0  0  0  0  0  0  0  0  0
  -22.8367  -31.0194   22.9526 N   0  0  0  0  0  0  0  0  0  0  0  0
  -27.3013  -29.9889   20.3034 N   0  0  0  0  0  0  0  0  0  0  0  0
  -30.4071  -27.5454   22.4896 N   0  0  0  0  0  0  0  0  0  0  0  0
  -21.5417  -29.1626   22.2911 N   0  0  0  0  0  0  0  0  0  0  0  0
  -25.7127  -15.4889   20.1733 N   0  0  0  0  0  0  0  0  0  0  0  0
  -30.2769  -20.5105   19.5309 N   0  0  0  0  0  0  0  0  0  0  0  0
  -30.3922  -23.0034   16.9156 N   0  3  0  0  0  0  0  0  0  0  0  0
  -18.6079  -23.9138   22.1325 O   0  0  0  0  0  0  0  0  0  0  0  0
  -29.8448  -28.4585   20.4626 O   0  0  0  0  0  0  0  0  0  0  0  0
  -26.4371  -17.2368   21.5306 O   0  0  0  0  0  0  0  0  0  0  0  0
  -29.5861  -17.7300   19.5218 O   0  0  0  0  0  0  0  0  0  0  0  0
  -29.0036  -22.4343   19.2957 O   0  0  0  0  0  0  0  0  0  0  0  0
  -20.6245  -31.2929   22.3398 O   0  0  0  0  0  0  0  0  0  0  0  0
  -30.2877  -26.1251   27.8751 O   0  0  0  0  0  0  0  0  0  0  0  0
  -22.2211  -21.9264   19.5971 O   0  0  0  0  0  0  0  0  0  1  0  0
  -27.0793  -23.0135   31.1044 F   0  0  0  0  0  0  0  0  0  0  0  0
  -30.7747  -23.4203   28.1745 F   0  0  0  0  0  0  0  0  0  0  0  0
  1  2  1  0  0  0  0
  1  7  2  0  0  0  0
  2  8  2  0  0  0  0
  3  6  2  0  0  0  0
  3 10  1  0  0  0  0
  4 11  2  0  0  0  0
  4 19  1  0  0  0  0
  5 12  1  0  0  0  0
  5 19  2  0  0  0  0
  6 20  1  0  0  0  0
  7 22  1  0  0  0  0
  8 24  1  0  0  0  0
  9 13  2  0  0  0  0
  9 23  1  0  0  0  0
 10 26  2  0  0  0  0
 11 27  1  0  0  0  0
 12 27  2  0  0  0  0
 13 28  1  0  0  0  0
 14 15  2  0  0  0  0
 14 29  1  0  0  0  0
 15 30  1  0  0  0  0
 16 20  2  0  0  0  0
 16 26  1  0  0  0  0
 17 25  1  0  0  0  0
 17 28  2  0  0  0  0
 18 30  2  0  0  0  0
 18 31  1  0  0  0  0
 19 32  1  0  0  0  0
 20 35  1  0  0  0  0
 21 32  1  0  0  0  0
 21 33  2  0  0  0  0
 21 36  1  0  0  0  0
 22 24  2  0  0  0  0
 22 41  1  0  0  0  0
 23 25  2  0  0  0  0
 23 42  1  0  0  0  0
 24 50  1  0  0  0  0
 25 43  1  0  0  0  0
 26 69  1  0  0  0  0
 27 79  1  0  0  0  0
 28 80  1  0  0  0  0
 29 31  2  0  0  0  0
 29 79  1  0  0  0  0
 30 81  1  0  0  0  0
 31 82  1  0  0  0  0
 32 62  2  0  0  0  0
 33 64  1  0  0  0  0
 33 67  1  0  0  0  0
 34 58  1  0  0  0  0
 34 63  2  0  0  0  0
 35 63  1  0  0  0  0
 35 73  2  0  0  0  0
 36 68  1  0  0  0  0
 36 74  2  0  0  0  0
 37 51  1  0  0  0  0
 37 70  1  0  0  0  0
 37 75  2  0  0  0  0
 38 59  1  0  0  0  0
 38 65  1  0  0  0  0
 38 76  2  0  0  0  0
 39 60  1  0  0  0  0
 39 71  1  0  0  0  0
 39 77  2  0  0  0  0
 40 66  1  0  0  0  0
 40 69  1  0  0  0  0
 40 78  2  0  0  0  0
 41 44  1  0  0  0  0
 42 51  1  0  0  0  0
 43 65  1  0  0  0  0
 44 46  1  0  0  0  0
 45 47  1  0  0  0  0
 45 48  1  0  0  0  0
 46 50  1  0  0  0  0
 47 52  1  0  0  0  0
 48 66  1  0  0  0  0
 49 52  1  0  0  0  0
 49 66  1  0  0  0  0
 50 70  1  0  0  0  0
 51 65  1  0  0  0  0
 52 64  1  0  0  0  0
 53 60  1  0  0  0  0
 54 61  1  0  0  0  0
 55 61  1  0  0  0  0
 56 61  1  0  0  0  0
 57 72  1  0  0  0  0
 58 80  1  0  0  0  0
 59 61  1  0  0  0  0
 59 71  1  0  0  0  0
 60 72  1  0  0  0  0
 62 64  1  0  0  0  0
M  CHG  1  72   1
M  ISO  4  40 100  58 101  69 100  80 101
M  END
> <Batch ID>
0088

> <Smiles>
CNC(C)C(=O)NC(C(=O)N1Cc2cc([101O:1][101CH:1]=CNC(=O)c3cccc([100NH:0][100C:0](=O)N4CCCC(n5nc(-c6ccc(Oc7ccc(F)cc7F)cc6)c(C(N)=O)c5N)C4)c3)ccc2CC1C(=O)NC1CCCc2ccccc21)C(C)(C)C

> <Shape>
0.216

> <Color>
0.085

> <Negative vol penalty>
0.000

$$$$

  -OEChem-04052300233D

 83 91  0     1  0  0  0  0  0999 V2000
  -33.9636  -13.6126   18.4928 C   0  0  0  0  0  0  0  0  0  0  0  0
  -33.1204  -14.7123   18.6152 C   0  0  0  0  0  0  0  0  0  0  0  0
  -25.6846  -29.0469   21.3958 C   0  0  0  0  0  0  0  0  0  0  0  0
  -25.1403  -28.2060   19.1972 C   0  0  0  0  0  0  0  0  0  0  0  0
  -33.4487  -12.3830   18.0841 C   0  0  0  0  0  0  0  0  0  0  0  0
  -31.7620  -14.5834   18.3280 C   0  0  0  0  0  0  0  0  0  0  0  0
  -27.1231  -17.4636   21.1012 C   0  0  0  0  0  0  0  0  0  0  0  0
  -21.5027  -23.9556   21.2589 C   0  0  0  0  0  0  0  0  0  0  0  0
  -20.2403  -24.5488   21.2581 C   0  0  0  0  0  0  0  0  0  0  0  0
  -27.0064  -28.6348   21.2262 C   0  0  0  0  0  0  0  0  0  0  0  0
  -26.4621  -27.7940   19.0276 C   0  0  0  0  0  0  0  0  0  0  0  0
  -26.3828  -18.5945   20.7596 C   0  0  0  0  0  0  0  0  0  0  0  0
  -28.4159  -25.2194   20.0199 C   0  0  0  0  0  0  0  0  0  0  0  0
  -28.6355  -23.9462   19.4941 C   0  0  0  0  0  0  0  0  0  0  0  0
  -24.6857  -17.1825   19.7874 C   0  0  0  0  0  0  0  0  0  0  0  0
  -19.8637  -23.7444   19.0113 C   0  0  0  0  0  0  0  0  0  0  0  0
  -29.8293  -24.9207   17.6333 C   0  0  0  0  0  0  0  0  0  0  0  0
  -24.7516  -28.8324   20.3813 C   0  0  0  0  0  0  0  0  0  0  0  0
  -22.8340  -30.5066   20.2148 C   0  0  0  0  0  0  0  0  0  0  0  0
  -32.0816  -12.2365   17.8010 C   0  0  0  0  0  0  0  0  0  0  0  0
  -26.6547  -16.1819   20.7782 C   0  0  0  0  0  0  0  0  0  0  0  0
  -31.2286  -13.3510   17.9138 C   0  0  0  0  0  0  0  0  0  0  0  0
  -25.4207  -16.0368   20.1282 C   0  0  0  0  0  0  0  0  0  0  0  0
  -21.9457  -23.2569   20.1358 C   0  0  0  0  0  0  0  0  0  0  0  0
  -19.4208  -24.4432   20.1343 C   0  0  0  0  0  0  0  0  0  0  0  0
  -27.3951  -28.0084   20.0421 C   0  0  0  0  0  0  0  0  0  0  0  0
  -25.1652  -18.4543   20.1001 C   0  0  0  0  0  0  0  0  0  0  0  0
  -28.9030  -26.3432   19.3524 C   0  0  0  0  0  0  0  0  0  0  0  0
  -29.3421  -23.7969   18.3008 C   0  0  0  0  0  0  0  0  0  0  0  0
  -21.1262  -23.1512   19.0121 C   0  0  0  0  0  0  0  0  0  0  0  0
  -29.6097  -26.1938   18.1591 C   0  0  0  0  0  0  0  0  0  0  0  0
  -23.3859  -29.2573   20.5561 C   0  0  0  0  0  0  0  0  0  0  0  0
  -21.5130  -30.4092   20.5781 C   0  0  0  0  0  0  0  0  0  0  0  0
  -16.0495  -25.5380   19.0199 C   0  0  0  0  0  0  0  0  0  0  0  0
  -17.2615  -24.9790   19.0409 C   0  0  0  0  0  0  0  0  0  0  0  0
  -23.2668  -21.4422   20.5685 C   0  0  0  0  0  0  0  0  0  0  0  0
  -23.4594  -31.6526   19.6222 C   0  0  0  0  0  0  0  0  0  0  0  0
  -27.7134  -13.7989   18.9605 C   0  0  0  0  0  0  0  0  0  0  0  0
  -25.1809  -12.2211   20.2330 C   0  0  0  0  0  0  0  0  0  0  0  0
  -22.1011  -12.3863   21.6940 C   0  0  0  0  0  0  0  0  0  0  0  0
  -17.7464  -25.8955   21.2204 C   0  0  0  0  0  0  0  0  0  0  0  0
  -31.5797  -10.8992   17.3170 C   0  0  0  0  0  0  0  0  0  0  0  0
  -27.4524  -14.9709   21.1773 C   0  0  0  0  0  0  0  0  0  0  0  0
  -24.8639  -14.6822   19.7770 C   0  0  0  0  0  0  0  0  0  0  0  0
  -30.0619  -10.7544   17.3929 C   0  0  0  0  0  0  0  0  0  0  0  0
  -18.6255  -28.2101   23.6818 C   0  0  0  0  0  0  0  0  0  0  0  0
  -29.3783  -11.9947   16.8263 C   0  0  0  0  0  0  0  0  0  0  0  0
  -19.8959  -28.8628   23.1377 C   0  0  0  0  0  0  0  0  0  0  0  0
  -18.6148  -26.7126   23.3970 C   0  0  0  0  0  0  0  0  0  0  0  0
  -20.0299  -27.0198   21.3903 C   0  0  0  0  0  0  0  0  0  0  0  0
  -29.7450  -13.2448   17.6352 C   0  0  1  0  0  0  0  0  0  0  0  0
  -27.1247  -13.7374   20.3416 C   0  0  1  0  0  0  0  0  0  0  0  0
  -20.0874  -28.5394   21.6455 C   0  0  2  0  0  0  0  0  0  0  0  0
  -20.2635  -10.9290   22.5867 C   0  0  0  0  0  0  0  0  0  0  0  0
  -24.3062  -11.5810   17.3807 C   0  0  0  0  0  0  0  0  0  0  0  0
  -22.0476  -10.9847   18.2814 C   0  0  0  0  0  0  0  0  0  0  0  0
  -24.0558   -9.6899   18.9979 C   0  0  0  0  0  0  0  0  0  0  0  0
  -22.3658  -13.5202   24.4149 C   0  0  0  0  0  0  0  0  0  0  0  0
  -24.5686  -20.6992   20.6101 C   0  0  0  0  0  0  0  0  0  1  0  0
  -23.7300  -12.0463   19.8541 C   0  0  1  0  0  0  0  0  0  0  0  0
  -21.5307  -11.7001   22.9221 C   0  0  2  0  0  0  0  0  0  0  0  0
  -23.5460  -11.1012   18.6333 C   0  0  0  0  0  0  0  0  0  0  0  0
  -22.4890  -28.4273   21.0951 N   0  0  0  0  0  0  0  0  0  0  0  0
  -23.2181  -22.6607   20.1390 N   0  0  0  0  0  0  0  0  0  0  0  0
  -21.3601  -29.1564   21.0952 N   0  0  0  0  0  0  0  0  0  0  0  0
  -25.6840  -13.5288   20.1827 N   0  0  0  0  0  0  0  0  0  0  0  0
  -18.8042  -26.4469   21.9705 N   0  0  0  0  0  0  0  0  0  0  0  0
  -20.4790  -31.2738   20.5027 N   0  0  0  0  0  0  0  0  0  0  0  0
  -24.8244  -31.5830   19.3117 N   0  0  0  0  0  0  0  0  0  0  0  0
  -28.9932  -13.2855   18.8711 N   0  0  0  0  0  0  0  0  0  0  0  0
  -23.0432  -11.6024   21.0622 N   0  0  0  0  0  0  0  0  0  0  0  0
  -18.1093  -25.0579   20.1338 N   0  0  0  0  0  0  0  0  0  0  0  0
  -21.2049  -12.7054   23.9728 N   0  3  0  0  0  0  0  0  0  0  0  0
  -22.8304  -32.7128   19.3904 O   0  0  0  0  0  0  0  0  0  0  0  0
  -27.0547  -14.2754   18.0436 O   0  0  0  0  0  0  0  0  0  0  0  0
  -25.8414  -11.2347   20.5683 O   0  0  0  0  0  0  0  0  0  0  0  0
  -21.7438  -13.5043   21.3294 O   0  0  0  0  0  0  0  0  0  0  0  0
  -16.5621  -26.1134   21.5073 O   0  0  0  0  0  0  0  0  0  0  0  0
  -28.6849  -27.6064   19.8761 O   0  0  0  0  0  0  0  0  0  0  0  0
  -24.4409  -19.5565   19.7649 O   0  0  0  0  0  0  0  0  0  1  0  0
  -29.5542  -22.5741   17.7967 F   0  0  0  0  0  0  0  0  0  0  0  0
  -21.5439  -22.4824   17.9280 F   0  0  0  0  0  0  0  0  0  0  0  0
  -30.0811  -27.2696   17.5140 F   0  0  0  0  0  0  0  0  0  0  0  0
  1  2  1  0  0  0  0
  1  5  2  0  0  0  0
  2  6  2  0  0  0  0
  3 10  2  0  0  0  0
  3 18  1  0  0  0  0
  4 11  1  0  0  0  0
  4 18  2  0  0  0  0
  5 20  1  0  0  0  0
  6 22  1  0  0  0  0
  7 12  2  0  0  0  0
  7 21  1  0  0  0  0
  8  9  2  0  0  0  0
  8 24  1  0  0  0  0
  9 25  1  0  0  0  0
 10 26  1  0  0  0  0
 11 26  2  0  0  0  0
 12 27  1  0  0  0  0
 13 14  2  0  0  0  0
 13 28  1  0  0  0  0
 14 29  1  0  0  0  0
 15 23  1  0  0  0  0
 15 27  2  0  0  0  0
 16 25  2  0  0  0  0
 16 30  1  0  0  0  0
 17 29  2  0  0  0  0
 17 31  1  0  0  0  0
 18 32  1  0  0  0  0
 19 32  1  0  0  0  0
 19 33  2  0  0  0  0
 19 37  1  0  0  0  0
 20 22  2  0  0  0  0
 20 42  1  0  0  0  0
 21 23  2  0  0  0  0
 21 43  1  0  0  0  0
 22 51  1  0  0  0  0
 23 44  1  0  0  0  0
 24 30  2  0  0  0  0
 24 64  1  0  0  0  0
 25 72  1  0  0  0  0
 26 79  1  0  0  0  0
 27 80  1  0  0  0  0
 28 31  2  0  0  0  0
 28 79  1  0  0  0  0
 29 81  1  0  0  0  0
 30 82  1  0  0  0  0
 31 83  1  0  0  0  0
 32 63  2  0  0  0  0
 33 65  1  0  0  0  0
 33 68  1  0  0  0  0
 34 35  2  0  0  0  0
 35 72  1  0  0  0  0
 36 59  1  0  0  0  0
 36 64  2  0  0  0  0
 37 69  1  0  0  0  0
 37 74  2  0  0  0  0
 38 52  1  0  0  0  0
 38 70  1  0  0  0  0
 38 75  2  0  0  0  0
 39 60  1  0  0  0  0
 39 66  1  0  0  0  0
 39 76  2  0  0  0  0
 40 61  1  0  0  0  0
 40 71  1  0  0  0  0
 40 77  2  0  0  0  0
 41 67  1  0  0  0  0
 41 72  1  0  0  0  0
 41 78  2  0  0  0  0
 42 45  1  0  0  0  0
 43 52  1  0  0  0  0
 44 66  1  0  0  0  0
 45 47  1  0  0  0  0
 46 48  1  0  0  0  0
 46 49  1  0  0  0  0
 47 51  1  0  0  0  0
 48 53  1  0  0  0  0
 49 67  1  0  0  0  0
 50 53  1  0  0  0  0
 50 67  1  0  0  0  0
 51 70  1  0  0  0  0
 52 66  1  0  0  0  0
 53 65  1  0  0  0  0
 54 61  1  0  0  0  0
 55 62  1  0  0  0  0
 56 62  1  0  0  0  0
 57 62  1  0  0  0  0
 58 73  1  0  0  0  0
 59 80  1  0  0  0  0
 60 62  1  0  0  0  0
 60 71  1  0  0  0  0
 61 73  1  0  0  0  0
 63 65  1  0  0  0  0
M  CHG  1  73   1
M  ISO  4  41 100  59 101  72 100  80 101
M  END
> <Batch ID>
0088

> <Smiles>
C=C[100N:0](c1ccc(NC=[101CH:1][101O:1]c2ccc3c(c2)CN(C(=O)C(NC(=O)C(C)NC)C(C)(C)C)C(C(=O)NC2CCCc4ccccc42)C3)c(F)c1)[100C:0](=O)N1CCCC(n2nc(-c3ccc(Oc4ccc(F)cc4F)cc3)c(C(N)=O)c2N)C1

> <Shape>
0.248

> <Color>
0.067

> <Negative vol penalty>
0.000

$$$$

  -OEChem-04052300233D

 86 94  0     1  0  0  0  0  0999 V2000
  -12.4584  -23.1310   24.9199 C   0  0  0  0  0  0  0  0  0  0  0  0
  -13.6180  -22.3801   24.7564 C   0  0  0  0  0  0  0  0  0  0  0  0
  -23.0002   -9.8910   19.9832 C   0  0  0  0  0  0  0  0  0  0  0  0
  -23.7181   -9.9519   22.2893 C   0  0  0  0  0  0  0  0  0  0  0  0
  -12.4814  -24.5060   24.6902 C   0  0  0  0  0  0  0  0  0  0  0  0
  -14.8012  -23.0036   24.3618 C   0  0  0  0  0  0  0  0  0  0  0  0
  -20.4902  -21.5338   26.0884 C   0  0  0  0  0  0  0  0  0  0  0  0
  -22.2323   -8.7581   20.2521 C   0  0  0  0  0  0  0  0  0  0  0  0
  -22.9501   -8.8189   22.5583 C   0  0  0  0  0  0  0  0  0  0  0  0
  -21.4917  -20.7820   25.4755 C   0  0  0  0  0  0  0  0  0  0  0  0
  -23.1944   -5.4778   22.1020 C   0  0  0  0  0  0  0  0  0  0  0  0
  -23.7791   -4.4637   22.8604 C   0  0  0  0  0  0  0  0  0  0  0  0
  -31.6151  -19.3423   22.7536 C   0  0  0  0  0  0  0  0  0  0  0  0
  -22.4733  -22.8077   24.6082 C   0  0  0  0  0  0  0  0  0  0  0  0
  -31.8859  -17.2648   21.5505 C   0  0  0  0  0  0  0  0  0  0  0  0
  -22.0500   -4.7149   24.5291 C   0  0  0  0  0  0  0  0  0  0  0  0
  -23.7432  -10.4879   21.0018 C   0  0  0  0  0  0  0  0  0  0  0  0
  -30.3207  -18.9661   23.1120 C   0  0  0  0  0  0  0  0  0  0  0  0
  -24.1302  -13.0025   20.8158 C   0  0  0  0  0  0  0  0  0  0  0  0
  -13.6678  -25.1482   24.3020 C   0  0  0  0  0  0  0  0  0  0  0  0
  -20.4665  -22.9296   25.9565 C   0  0  0  0  0  0  0  0  0  0  0  0
  -14.8398  -24.3883   24.1254 C   0  0  0  0  0  0  0  0  0  0  0  0
  -21.4719  -23.5751   25.2225 C   0  0  0  0  0  0  0  0  0  0  0  0
  -32.3978  -18.4917   21.9728 C   0  0  0  0  0  0  0  0  0  0  0  0
  -30.5915  -16.8885   21.9089 C   0  0  0  0  0  0  0  0  0  0  0  0
  -22.2073   -8.2220   21.5397 C   0  0  0  0  0  0  0  0  0  0  0  0
  -22.4818  -21.4186   24.7329 C   0  0  0  0  0  0  0  0  0  0  0  0
  -22.0376   -6.1105   22.5571 C   0  0  0  0  0  0  0  0  0  0  0  0
  -23.2069   -4.0822   24.0740 C   0  0  0  0  0  0  0  0  0  0  0  0
  -21.4654   -5.7290   23.7706 C   0  0  0  0  0  0  0  0  0  0  0  0
  -29.8089  -17.7392   22.6897 C   0  0  0  0  0  0  0  0  0  0  0  0
  -24.5370  -11.6579   20.7245 C   0  0  0  0  0  0  0  0  0  0  0  0
  -25.2414  -13.7230   20.4518 C   0  0  0  0  0  0  0  0  0  0  0  0
  -25.7871  -20.2689   23.9599 C   0  0  0  0  0  0  0  0  0  0  0  0
  -24.7565  -20.9318   24.4897 C   0  0  0  0  0  0  0  0  0  1  0  0
  -29.4910  -19.8745   23.9438 C   0  0  0  0  0  0  0  0  0  0  0  0
  -22.8612  -13.5512   21.1959 C   0  0  0  0  0  0  0  0  0  0  0  0
  -27.1748  -20.5863   24.3933 C   0  0  0  0  0  0  0  0  0  0  0  0
  -18.4304  -25.0312   24.7147 C   0  0  0  0  0  0  0  0  0  0  0  0
  -20.4880  -27.1907   25.9895 C   0  0  0  0  0  0  0  0  0  0  0  0
  -23.6454  -27.8909   27.0792 C   0  0  0  0  0  0  0  0  0  0  0  0
  -30.7206  -14.6827   20.6989 C   0  0  0  0  0  0  0  0  0  0  0  0
  -13.6325  -26.6293   24.0193 C   0  0  0  0  0  0  0  0  0  0  0  0
  -19.3946  -23.7285   26.6459 C   0  0  0  0  0  0  0  0  0  0  0  0
  -21.5029  -25.0729   25.0673 C   0  0  0  0  0  0  0  0  0  0  0  0
  -15.0159  -27.2725   23.9669 C   0  0  0  0  0  0  0  0  0  0  0  0
  -29.6086  -12.2200   18.3804 C   0  0  0  0  0  0  0  0  0  0  0  0
  -15.9645  -26.4303   23.1198 C   0  0  0  0  0  0  0  0  0  0  0  0
  -28.1565  -11.9648   18.7910 C   0  0  0  0  0  0  0  0  0  0  0  0
  -30.5053  -12.4684   19.5919 C   0  0  0  0  0  0  0  0  0  0  0  0
  -28.5861  -13.2640   20.9158 C   0  0  0  0  0  0  0  0  0  0  0  0
  -16.1487  -25.0323   23.7225 C   0  0  1  0  0  0  0  0  0  0  0  0
  -19.1753  -25.1013   26.0178 C   0  0  1  0  0  0  0  0  0  0  0  0
  -27.6321  -13.0728   19.7254 C   0  0  2  0  0  0  0  0  0  0  0  0
  -25.0334  -29.7526   28.0306 C   0  0  0  0  0  0  0  0  0  0  0  0
  -20.6568  -28.4737   23.2263 C   0  0  0  0  0  0  0  0  0  0  0  0
  -22.7157  -29.6777   23.9878 C   0  0  0  0  0  0  0  0  0  0  0  0
  -20.5353  -30.0972   25.1247 C   0  0  0  0  0  0  0  0  0  0  0  0
  -24.1845  -26.3753   29.5633 C   0  0  0  0  0  0  0  0  0  0  0  0
  -21.7287  -27.9009   25.5043 C   0  0  1  0  0  0  0  0  0  0  0  0
  -24.1490  -28.5566   28.3471 C   0  0  2  0  0  0  0  0  0  0  0  0
  -21.4077  -29.0090   24.4619 C   0  0  0  0  0  0  0  0  0  0  0  0
  -25.8075  -11.5291   20.3329 N   0  0  0  0  0  0  0  0  0  0  0  0
  -26.2085  -12.8020   20.1749 N   0  0  0  0  0  0  0  0  0  0  0  0
  -20.4297  -25.8096   25.7550 N   0  0  0  0  0  0  0  0  0  0  0  0
  -29.9481  -13.5333   20.4287 N   0  0  0  0  0  0  0  0  0  0  0  0
  -33.7066  -18.8728   21.6100 N   0  0  0  0  0  0  0  0  0  0  0  0
  -25.4758  -15.0481   20.3446 N   0  0  0  0  0  0  0  0  0  0  0  0
  -21.8280  -12.6691   21.5401 N   0  0  0  0  0  0  0  0  0  0  0  0
  -30.0742  -15.6417   21.4782 N   0  0  0  0  0  0  0  0  0  0  0  0
  -28.1147  -19.7962   23.7344 N   0  0  0  0  0  0  0  0  0  0  0  0
  -17.0561  -25.0830   24.8488 N   0  0  0  0  0  0  0  0  0  0  0  0
  -22.4156  -28.3838   26.6973 N   0  0  0  0  0  0  0  0  0  0  0  0
  -24.9391  -27.5900   29.1610 N   0  3  0  0  0  0  0  0  0  0  0  0
  -30.0459  -20.6409   24.7267 O   0  0  0  0  0  0  0  0  0  0  0  0
  -22.6450  -14.7867   21.2135 O   0  0  0  0  0  0  0  0  0  0  0  0
  -27.4207  -21.4453   25.2339 O   0  0  0  0  0  0  0  0  0  0  0  0
  -19.0563  -24.9384   23.6653 O   0  0  0  0  0  0  0  0  0  0  0  0
  -19.6065  -27.8362   26.5621 O   0  0  0  0  0  0  0  0  0  0  0  0
  -24.2814  -27.0233   26.4847 O   0  0  0  0  0  0  0  0  0  0  0  0
  -31.8607  -14.8191   20.2479 O   0  0  0  0  0  0  0  0  0  0  0  0
  -21.4579   -7.1166   21.8025 O   0  0  0  0  0  0  0  0  0  0  0  0
  -23.4601  -20.6871   24.1332 O   0  0  0  0  0  0  0  0  0  1  0  0
  -23.7676   -3.1073   24.8015 F   0  0  0  0  0  0  0  0  0  0  0  0
  -20.3533   -6.3324   24.2124 F   0  0  0  0  0  0  0  0  0  0  0  0
  -28.5635  -17.3775   23.0346 F   0  0  0  0  0  0  0  0  0  0  0  0
  1  2  1  0  0  0  0
  1  5  2  0  0  0  0
  2  6  2  0  0  0  0
  3  8  2  0  0  0  0
  3 17  1  0  0  0  0
  4  9  1  0  0  0  0
  4 17  2  0  0  0  0
  5 20  1  0  0  0  0
  6 22  1  0  0  0  0
  7 10  2  0  0  0  0
  7 21  1  0  0  0  0
  8 26  1  0  0  0  0
  9 26  2  0  0  0  0
 10 27  1  0  0  0  0
 11 12  2  0  0  0  0
 11 28  1  0  0  0  0
 12 29  1  0  0  0  0
 13 18  1  0  0  0  0
 13 24  2  0  0  0  0
 14 23  1  0  0  0  0
 14 27  2  0  0  0  0
 15 24  1  0  0  0  0
 15 25  2  0  0  0  0
 16 29  2  0  0  0  0
 16 30  1  0  0  0  0
 17 32  1  0  0  0  0
 18 31  2  0  0  0  0
 18 36  1  0  0  0  0
 19 32  1  0  0  0  0
 19 33  2  0  0  0  0
 19 37  1  0  0  0  0
 20 22  2  0  0  0  0
 20 43  1  0  0  0  0
 21 23  2  0  0  0  0
 21 44  1  0  0  0  0
 22 52  1  0  0  0  0
 23 45  1  0  0  0  0
 24 67  1  0  0  0  0
 25 31  1  0  0  0  0
 25 70  1  0  0  0  0
 26 82  1  0  0  0  0
 27 83  1  0  0  0  0
 28 30  2  0  0  0  0
 28 82  1  0  0  0  0
 29 84  1  0  0  0  0
 30 85  1  0  0  0  0
 31 86  1  0  0  0  0
 32 63  2  0  0  0  0
 33 64  1  0  0  0  0
 33 68  1  0  0  0  0
 34 35  2  0  0  0  0
 34 38  1  0  0  0  0
 35 83  1  0  0  0  0
 36 71  1  0  0  0  0
 36 75  2  0  0  0  0
 37 69  1  0  0  0  0
 37 76  2  0  0  0  0
 38 71  1  0  0  0  0
 38 77  2  0  0  0  0
 39 53  1  0  0  0  0
 39 72  1  0  0  0  0
 39 78  2  0  0  0  0
 40 60  1  0  0  0  0
 40 65  1  0  0  0  0
 40 79  2  0  0  0  0
 41 61  1  0  0  0  0
 41 73  1  0  0  0  0
 41 80  2  0  0  0  0
 42 66  1  0  0  0  0
 42 70  1  0  0  0  0
 42 81  2  0  0  0  0
 43 46  1  0  0  0  0
 44 53  1  0  0  0  0
 45 65  1  0  0  0  0
 46 48  1  0  0  0  0
 47 49  1  0  0  0  0
 47 50  1  0  0  0  0
 48 52  1  0  0  0  0
 49 54  1  0  0  0  0
 50 66  1  0  0  0  0
 51 54  1  0  0  0  0
 51 66  1  0  0  0  0
 52 72  1  0  0  0  0
 53 65  1  0  0  0  0
 54 64  1  0  0  0  0
 55 61  1  0  0  0  0
 56 62  1  0  0  0  0
 57 62  1  0  0  0  0
 58 62  1  0  0  0  0
 59 74  1  0  0  0  0
 60 62  1  0  0  0  0
 60 73  1  0  0  0  0
 61 74  1  0  0  0  0
 63 64  1  0  0  0  0
M  CHG  1  74   1
M  ISO  4  35 101  42 100  70 100  83 101
M  END
> <Batch ID>
0088

> <Smiles>
CNC(C)C(=O)NC(C(=O)N1Cc2cc([101O:1][101CH:1]=CC(=O)NC(=O)c3cc(N)cc([100NH:0][100C:0](=O)N4CCCC(n5nc(-c6ccc(Oc7ccc(F)cc7F)cc6)c(C(N)=O)c5N)C4)c3F)ccc2CC1C(=O)NC1CCCc2ccccc21)C(C)(C)C

> <Shape>
0.201

> <Color>
0.186

> <Negative vol penalty>
0.000

$$$$

  -OEChem-04052300233D

 88 97  0     1  0  0  0  0  0999 V2000
  -21.8434  -12.3960   19.3455 C   0  0  0  0  0  0  0  0  0  0  0  0
  -21.7625  -13.6861   19.8596 C   0  0  0  0  0  0  0  0  0  0  0  0
  -28.9509  -28.8013   17.5030 C   0  0  0  0  0  0  0  0  0  0  0  0
  -29.6091  -27.1510   19.1401 C   0  0  0  0  0  0  0  0  0  0  0  0
  -23.0350  -11.6794   19.4482 C   0  0  0  0  0  0  0  0  0  0  0  0
  -22.8729  -14.2601   20.4776 C   0  0  0  0  0  0  0  0  0  0  0  0
  -23.6552  -19.0440   19.0122 C   0  0  0  0  0  0  0  0  0  0  0  0
  -20.1902  -27.2596   20.2483 C   0  0  0  0  0  0  0  0  0  0  0  0
  -20.4295  -28.6094   19.9909 C   0  0  0  0  0  0  0  0  0  0  0  0
  -30.2613  -28.8528   17.0280 C   0  0  0  0  0  0  0  0  0  0  0  0
  -30.9196  -27.2025   18.6651 C   0  0  0  0  0  0  0  0  0  0  0  0
  -22.8420  -20.0246   19.5788 C   0  0  0  0  0  0  0  0  0  0  0  0
  -33.3574  -29.1530   15.1467 C   0  0  0  0  0  0  0  0  0  0  0  0
  -33.5474  -29.1380   13.7650 C   0  0  0  0  0  0  0  0  0  0  0  0
  -24.6118  -20.5958   21.1153 C   0  0  0  0  0  0  0  0  0  0  0  0
  -20.9930  -28.9527   22.3151 C   0  0  0  0  0  0  0  0  0  0  0  0
  -32.4484  -26.9902   13.6371 C   0  0  0  0  0  0  0  0  0  0  0  0
  -28.6248  -27.9504   18.5591 C   0  0  0  0  0  0  0  0  0  0  0  0
  -26.2394  -27.0475   18.6093 C   0  0  0  0  0  0  0  0  0  0  0  0
  -24.1635  -12.2485   20.0591 C   0  0  0  0  0  0  0  0  0  0  0  0
  -24.9511  -18.8243   19.5009 C   0  0  0  0  0  0  0  0  0  0  0  0
  -24.0803  -13.5500   20.5897 C   0  0  0  0  0  0  0  0  0  0  0  0
  -25.4403  -19.6136   20.5515 C   0  0  0  0  0  0  0  0  0  0  0  0
  -20.3523  -26.7563   21.5391 C   0  0  0  0  0  0  0  0  0  0  0  0
  -20.8309  -29.4560   21.0242 C   0  0  0  0  0  0  0  0  0  0  0  0
  -31.2457  -28.0534   17.6090 C   0  0  0  0  0  0  0  0  0  0  0  0
  -23.3192  -20.7987   20.6325 C   0  0  0  0  0  0  0  0  0  0  0  0
  -32.7130  -28.0865   15.7737 C   0  0  0  0  0  0  0  0  0  0  0  0
  -33.0929  -28.0567   13.0101 C   0  0  0  0  0  0  0  0  0  0  0  0
  -20.7537  -27.6029   22.5725 C   0  0  0  0  0  0  0  0  0  0  0  0
  -32.2585  -27.0052   15.0189 C   0  0  0  0  0  0  0  0  0  0  0  0
  -27.2714  -27.8972   19.0506 C   0  0  0  0  0  0  0  0  0  0  0  0
  -25.1592  -27.3866   19.3868 C   0  0  0  0  0  0  0  0  0  0  0  0
  -19.5196  -22.6912   22.2782 C   0  0  0  0  0  0  0  0  0  0  0  0
  -19.1305  -25.0227   22.7140 C   0  0  0  0  0  0  0  0  0  0  0  0
  -20.4821  -22.9657   21.3874 C   0  0  0  0  0  0  0  0  0  0  0  0
  -18.8326  -23.7451   22.9676 C   0  0  0  0  0  0  0  0  0  0  0  0
  -20.8637  -24.4010   21.1198 C   0  0  0  0  0  0  0  0  0  0  0  0
  -26.2559  -26.0414   17.5878 C   0  0  0  0  0  0  0  0  0  0  0  0
  -26.4516  -16.3712   20.8554 C   0  0  0  0  0  0  0  0  0  0  0  0
  -29.0369  -18.3134   20.5976 C   0  0  0  0  0  0  0  0  0  0  0  0
  -30.2607  -21.4881   20.3328 C   0  0  0  0  0  0  0  0  0  0  0  0
  -22.0119  -31.6219   21.4772 C   0  0  0  0  0  0  0  0  0  0  0  0
  -25.4154  -11.4175   20.1887 C   0  0  0  0  0  0  0  0  0  0  0  0
  -25.8253  -17.7808   18.8612 C   0  0  0  0  0  0  0  0  0  0  0  0
  -26.8314  -19.4311   21.0993 C   0  0  0  0  0  0  0  0  0  0  0  0
  -26.6586  -12.2373   20.5247 C   0  0  0  0  0  0  0  0  0  0  0  0
  -24.7997  -30.2789   23.5064 C   0  0  0  0  0  0  0  0  0  0  0  0
  -26.3615  -13.2190   21.6538 C   0  0  0  0  0  0  0  0  0  0  0  0
  -25.6484  -29.5424   22.4717 C   0  0  0  0  0  0  0  0  0  0  0  0
  -24.0376  -31.4462   22.8865 C   0  0  0  0  0  0  0  0  0  0  0  0
  -24.0415  -30.3144   20.6819 C   0  0  0  0  0  0  0  0  0  0  0  0
  -25.2706  -14.2162   21.2451 C   0  0  1  0  0  0  0  0  0  0  0  0
  -26.9441  -17.2950   19.7776 C   0  0  1  0  0  0  0  0  0  0  0  0
  -24.7878  -29.1092   21.2734 C   0  0  1  0  0  0  0  0  0  0  0  0
  -32.4177  -22.7614   20.1791 C   0  0  0  0  0  0  0  0  0  0  0  0
  -29.4988  -17.8867   23.5833 C   0  0  0  0  0  0  0  0  0  0  0  0
  -31.0259  -19.8706   23.5596 C   0  0  0  0  0  0  0  0  0  0  0  0
  -31.5766  -17.8586   22.1917 C   0  0  0  0  0  0  0  0  0  0  0  0
  -20.1431  -31.5583   19.8851 C   0  0  0  0  0  0  0  0  0  0  0  0
  -29.5532  -22.5942   17.6805 C   0  0  0  0  0  0  0  0  0  0  0  0
  -21.2185  -21.9135   20.6415 C   0  0  0  0  0  0  0  0  0  1  0  0
  -29.6766  -19.3637   21.4731 C   0  0  1  0  0  0  0  0  0  0  0  0
  -31.2939  -22.0949   19.4008 C   0  0  2  0  0  0  0  0  0  0  0  0
  -30.4175  -18.7473   22.6931 C   0  0  0  0  0  0  0  0  0  0  0  0
  -26.8816  -28.7148   20.0323 N   0  0  0  0  0  0  0  0  0  0  0  0
  -25.5927  -28.3804   20.2141 N   0  0  0  0  0  0  0  0  0  0  0  0
  -20.1106  -25.3969   21.7954 N   0  0  0  0  0  0  0  0  0  0  0  0
  -27.6455  -18.3938   20.4445 N   0  0  0  0  0  0  0  0  0  0  0  0
  -23.2704  -31.0306   21.7112 N   0  0  0  0  0  0  0  0  0  0  0  0
  -23.8902  -26.9288   19.4365 N   0  0  0  0  0  0  0  0  0  0  0  0
  -27.4488  -25.8217   16.8856 N   0  0  0  0  0  0  0  0  0  0  0  0
  -25.8189  -15.2386   20.3799 N   0  0  0  0  0  0  0  0  0  0  0  0
  -30.5282  -20.1616   20.5975 N   0  0  0  0  0  0  0  0  0  0  0  0
  -21.0783  -30.8519   20.7578 N   0  0  0  0  0  0  0  0  0  0  0  0
  -30.6607  -23.1176   18.5210 N   0  3  0  0  0  0  0  0  0  0  0  0
  -21.7772  -24.6494   20.3309 O   0  0  0  0  0  0  0  0  0  0  0  0
  -25.2383  -25.3689   17.2950 O   0  0  0  0  0  0  0  0  0  0  0  0
  -26.6336  -16.6637   22.0315 O   0  0  0  0  0  0  0  0  0  0  0  0
  -29.7465  -17.4575   20.0632 O   0  0  0  0  0  0  0  0  0  0  0  0
  -29.3134  -22.1280   20.7842 O   0  0  0  0  0  0  0  0  0  0  0  0
  -21.7553  -32.7779   21.8355 O   0  0  0  0  0  0  0  0  0  0  0  0
  -17.8737  -23.3424   23.8648 O   0  0  0  0  0  0  0  0  0  0  0  0
  -32.5245  -28.1032   17.1455 O   0  0  0  0  0  0  0  0  0  0  0  0
  -22.5274  -21.7560   21.1878 O   0  0  0  0  0  0  0  0  0  1  0  0
  -33.2740  -28.0432   11.6831 F   0  0  0  0  0  0  0  0  0  0  0  0
  -20.9121  -27.1303   23.8172 F   0  0  0  0  0  0  0  0  0  0  0  0
  -31.6377  -25.9783   15.6155 F   0  0  0  0  0  0  0  0  0  0  0  0
  1  2  1  0  0  0  0
  1  5  2  0  0  0  0
  2  6  2  0  0  0  0
  3 10  2  0  0  0  0
  3 18  1  0  0  0  0
  4 11  1  0  0  0  0
  4 18  2  0  0  0  0
  5 20  1  0  0  0  0
  6 22  1  0  0  0  0
  7 12  2  0  0  0  0
  7 21  1  0  0  0  0
  8  9  2  0  0  0  0
  8 24  1  0  0  0  0
  9 25  1  0  0  0  0
 10 26  1  0  0  0  0
 11 26  2  0  0  0  0
 12 27  1  0  0  0  0
 13 14  2  0  0  0  0
 13 28  1  0  0  0  0
 14 29  1  0  0  0  0
 15 23  1  0  0  0  0
 15 27  2  0  0  0  0
 16 25  2  0  0  0  0
 16 30  1  0  0  0  0
 17 29  2  0  0  0  0
 17 31  1  0  0  0  0
 18 32  1  0  0  0  0
 19 32  1  0  0  0  0
 19 33  2  0  0  0  0
 19 39  1  0  0  0  0
 20 22  2  0  0  0  0
 20 44  1  0  0  0  0
 21 23  2  0  0  0  0
 21 45  1  0  0  0  0
 22 53  1  0  0  0  0
 23 46  1  0  0  0  0
 24 30  2  0  0  0  0
 24 68  1  0  0  0  0
 25 75  1  0  0  0  0
 26 84  1  0  0  0  0
 27 85  1  0  0  0  0
 28 31  2  0  0  0  0
 28 84  1  0  0  0  0
 29 86  1  0  0  0  0
 30 87  1  0  0  0  0
 31 88  1  0  0  0  0
 32 66  2  0  0  0  0
 33 67  1  0  0  0  0
 33 71  1  0  0  0  0
 34 36  2  0  0  0  0
 34 37  1  0  0  0  0
 35 37  2  0  0  0  0
 35 68  1  0  0  0  0
 36 38  1  0  0  0  0
 36 62  1  0  0  0  0
 37 83  1  0  0  0  0
 38 68  1  0  0  0  0
 38 77  2  0  0  0  0
 39 72  1  0  0  0  0
 39 78  2  0  0  0  0
 40 54  1  0  0  0  0
 40 73  1  0  0  0  0
 40 79  2  0  0  0  0
 41 63  1  0  0  0  0
 41 69  1  0  0  0  0
 41 80  2  0  0  0  0
 42 64  1  0  0  0  0
 42 74  1  0  0  0  0
 42 81  2  0  0  0  0
 43 70  1  0  0  0  0
 43 75  1  0  0  0  0
 43 82  2  0  0  0  0
 44 47  1  0  0  0  0
 45 54  1  0  0  0  0
 46 69  1  0  0  0  0
 47 49  1  0  0  0  0
 48 50  1  0  0  0  0
 48 51  1  0  0  0  0
 49 53  1  0  0  0  0
 50 55  1  0  0  0  0
 51 70  1  0  0  0  0
 52 55  1  0  0  0  0
 52 70  1  0  0  0  0
 53 73  1  0  0  0  0
 54 69  1  0  0  0  0
 55 67  1  0  0  0  0
 56 64  1  0  0  0  0
 57 65  1  0  0  0  0
 58 65  1  0  0  0  0
 59 65  1  0  0  0  0
 60 75  1  0  0  0  0
 61 76  1  0  0  0  0
 62 85  1  0  0  0  0
 63 65  1  0  0  0  0
 63 74  1  0  0  0  0
 64 76  1  0  0  0  0
 66 67  1  0  0  0  0
M  CHG  1  76   1
M  ISO  4  43 100  62 101  75 100  85 101
M  END
> <Batch ID>
0088

> <Smiles>
CNC(C)C(=O)NC(C(=O)N1Cc2cc([101O:1][101CH:1]=C3CC(=O)CN(c4ccc([100N:0](C)[100C:0](=O)N5CCCC(n6nc(-c7ccc(Oc8ccc(F)cc8F)cc7)c(C(N)=O)c6N)C5)cc4F)C3=O)ccc2CC1C(=O)NC1CCCc2ccccc21)C(C)(C)C

> <Shape>
0.222

> <Color>
0.063

> <Negative vol penalty>
0.000

$$$$

  -OEChem-04052300233D

 83 91  0     1  0  0  0  0  0999 V2000
  -24.5565  -23.4723   17.9804 C   0  0  0  0  0  0  0  0  0  0  0  0
  -30.2266  -32.7949   26.0651 C   0  0  0  0  0  0  0  0  0  0  0  0
  -30.1144  -31.6705   25.2535 C   0  0  0  0  0  0  0  0  0  0  0  0
  -24.6724   -9.2116   21.9530 C   0  0  0  0  0  0  0  0  0  0  0  0
  -23.3219  -10.1094   20.1622 C   0  0  0  0  0  0  0  0  0  0  0  0
  -24.2174  -19.7173   16.7914 C   0  0  0  0  0  0  0  0  0  0  0  0
  -29.0895  -33.3402   26.6598 C   0  0  0  0  0  0  0  0  0  0  0  0
  -28.8652  -31.0901   25.0370 C   0  0  0  0  0  0  0  0  0  0  0  0
  -26.8979  -28.3951   19.9016 C   0  0  0  0  0  0  0  0  0  0  0  0
  -23.5326   -8.6561   22.5342 C   0  0  0  0  0  0  0  0  0  0  0  0
  -22.1820   -9.5538   20.7433 C   0  0  0  0  0  0  0  0  0  0  0  0
  -26.8194  -27.0579   19.5148 C   0  0  0  0  0  0  0  0  0  0  0  0
  -21.0297   -6.6961   24.2974 C   0  0  0  0  0  0  0  0  0  0  0  0
  -24.0741  -18.4016   16.3509 C   0  0  0  0  0  0  0  0  0  0  0  0
  -21.1109   -5.3815   24.7567 C   0  0  0  0  0  0  0  0  0  0  0  0
  -25.9615  -19.0188   18.3103 C   0  0  0  0  0  0  0  0  0  0  0  0
  -24.5116  -26.9973   20.2147 C   0  0  0  0  0  0  0  0  0  0  0  0
  -21.6432   -4.6336   22.5219 C   0  0  0  0  0  0  0  0  0  0  0  0
  -24.5671   -9.9383   20.7671 C   0  0  0  0  0  0  0  0  0  0  0  0
  -25.1611  -20.0259   17.7711 C   0  0  0  0  0  0  0  0  0  0  0  0
  -26.5965   -9.9109   19.2217 C   0  0  0  0  0  0  0  0  0  0  0  0
  -27.8244  -32.7719   26.4427 C   0  0  0  0  0  0  0  0  0  0  0  0
  -25.7852  -29.0414   20.4588 C   0  0  0  0  0  0  0  0  0  0  0  0
  -27.7103  -31.6275   25.6305 C   0  0  0  0  0  0  0  0  0  0  0  0
  -24.5779  -28.3434   20.6053 C   0  0  0  0  0  0  0  0  0  0  0  0
  -25.8183  -17.7031   17.8699 C   0  0  0  0  0  0  0  0  0  0  0  0
  -22.2874   -8.8272   21.9294 C   0  0  0  0  0  0  0  0  0  0  0  0
  -25.6270  -26.3580   19.6740 C   0  0  0  0  0  0  0  0  0  0  0  0
  -21.2552   -6.9794   22.9503 C   0  0  0  0  0  0  0  0  0  0  0  0
  -21.4177   -4.3503   23.8690 C   0  0  0  0  0  0  0  0  0  0  0  0
  -24.8745  -17.3945   16.8901 C   0  0  0  0  0  0  0  0  0  0  0  0
  -21.5619   -5.9481   22.0626 C   0  0  0  0  0  0  0  0  0  0  0  0
  -25.7441  -10.5129   20.1665 C   0  0  0  0  0  0  0  0  0  0  0  0
  -27.5572  -10.8603   18.9720 C   0  0  0  0  0  0  0  0  0  0  0  0
  -24.6340  -24.7132   18.3400 C   0  0  0  0  0  0  0  0  0  1  0  0
  -25.3143  -21.4341   18.2420 C   0  0  0  0  0  0  0  0  0  0  0  0
  -26.5262   -8.6099   18.6231 C   0  0  0  0  0  0  0  0  0  0  0  0
  -25.1533  -30.4059   23.2593 C   0  0  0  0  0  0  0  0  0  0  0  0
  -22.3917  -31.2524   21.7830 C   0  0  0  0  0  0  0  0  0  0  0  0
  -20.1132  -30.6268   19.3205 C   0  0  0  0  0  0  0  0  0  0  0  0
  -27.6150  -16.8201   19.3991 C   0  0  0  0  0  0  0  0  0  0  0  0
  -26.6304  -33.3684   27.1450 C   0  0  0  0  0  0  0  0  0  0  0  0
  -25.8784  -30.4918   20.8462 C   0  0  0  0  0  0  0  0  0  0  0  0
  -23.3486  -28.9972   21.1796 C   0  0  0  0  0  0  0  0  0  0  0  0
  -25.2932  -32.9167   26.5635 C   0  0  0  0  0  0  0  0  0  0  0  0
  -29.8070  -14.5461   21.0426 C   0  0  0  0  0  0  0  0  0  0  0  0
  -25.2862  -31.4061   26.3519 C   0  0  0  0  0  0  0  0  0  0  0  0
  -29.0943  -13.1979   20.9131 C   0  0  0  0  0  0  0  0  0  0  0  0
  -28.8191  -15.6915   21.2568 C   0  0  0  0  0  0  0  0  0  0  0  0
  -27.0275  -14.4265   20.1348 C   0  0  0  0  0  0  0  0  0  0  0  0
  -26.3692  -30.9841   25.3517 C   0  0  1  0  0  0  0  0  0  0  0  0
  -24.8327  -30.9030   21.8781 C   0  0  1  0  0  0  0  0  0  0  0  0
  -27.9770  -13.2506   19.8528 C   0  0  2  0  0  0  0  0  0  0  0  0
  -17.9410  -31.4677   18.3867 C   0  0  0  0  0  0  0  0  0  0  0  0
  -20.8989  -29.9909   24.1261 C   0  0  0  0  0  0  0  0  0  0  0  0
  -18.8263  -30.0028   22.7217 C   0  0  0  0  0  0  0  0  0  0  0  0
  -19.9377  -32.1544   23.3201 C   0  0  0  0  0  0  0  0  0  0  0  0
  -21.3340  -31.1997   16.6860 C   0  0  0  0  0  0  0  0  0  0  0  0
  -21.0273  -30.6255   21.6268 C   0  0  1  0  0  0  0  0  0  0  0  0
  -19.4576  -31.5390   18.2994 C   0  0  2  0  0  0  0  0  0  0  0  0
  -20.1961  -30.6802   22.9396 C   0  0  0  0  0  0  0  0  0  0  0  0
  -26.1294  -11.7489   20.4949 N   0  0  0  0  0  0  0  0  0  0  0  0
  -24.4732  -22.3508   17.6427 N   0  0  0  0  0  0  0  0  0  0  0  0
  -27.2345  -11.9313   19.7523 N   0  0  0  0  0  0  0  0  0  0  0  0
  -23.4918  -30.4151   21.5492 N   0  0  0  0  0  0  0  0  0  0  0  0
  -27.7923  -15.6810   20.2126 N   0  0  0  0  0  0  0  0  0  0  0  0
  -28.6380  -10.8750   18.1633 N   0  0  0  0  0  0  0  0  0  0  0  0
  -25.4740   -7.7608   18.9920 N   0  0  0  0  0  0  0  0  0  0  0  0
  -26.6320  -16.6817   18.4197 N   0  0  0  0  0  0  0  0  0  0  0  0
  -25.9439  -31.2659   23.9974 N   0  0  0  0  0  0  0  0  0  0  0  0
  -20.3983  -31.2942   20.4930 N   0  0  0  0  0  0  0  0  0  0  0  0
  -19.8677  -31.1516   16.9200 N   0  3  0  0  0  0  0  0  0  0  0  0
  -26.1532  -21.6788   19.1064 O   0  0  0  0  0  0  0  0  0  0  0  0
  -27.3807   -8.2061   17.7983 O   0  0  0  0  0  0  0  0  0  0  0  0
  -24.7145  -29.3229   23.6286 O   0  0  0  0  0  0  0  0  0  0  0  0
  -22.4782  -32.4430   22.0939 O   0  0  0  0  0  0  0  0  0  0  0  0
  -20.3456  -29.4400   19.1014 O   0  0  0  0  0  0  0  0  0  0  0  0
  -28.3044  -17.8331   19.5417 O   0  0  0  0  0  0  0  0  0  0  0  0
  -21.1749   -8.2851   22.4960 O   0  0  0  0  0  0  0  0  0  0  0  0
  -25.5478  -25.0525   19.2979 O   0  0  0  0  0  0  0  0  0  1  0  0
  -21.4972   -3.0882   24.3105 F   0  0  0  0  0  0  0  0  0  0  0  0
  -24.7283  -16.1337   16.4591 F   0  0  0  0  0  0  0  0  0  0  0  0
  -21.7807   -6.2143   20.7676 F   0  0  0  0  0  0  0  0  0  0  0  0
  1 35  2  0  0  0  0
  1 63  2  0  0  0  0
  2  3  1  0  0  0  0
  2  7  2  0  0  0  0
  3  8  2  0  0  0  0
  4 10  2  0  0  0  0
  4 19  1  0  0  0  0
  5 11  1  0  0  0  0
  5 19  2  0  0  0  0
  6 14  2  0  0  0  0
  6 20  1  0  0  0  0
  7 22  1  0  0  0  0
  8 24  1  0  0  0  0
  9 12  2  0  0  0  0
  9 23  1  0  0  0  0
 10 27  1  0  0  0  0
 11 27  2  0  0  0  0
 12 28  1  0  0  0  0
 13 15  2  0  0  0  0
 13 29  1  0  0  0  0
 14 31  1  0  0  0  0
 15 30  1  0  0  0  0
 16 20  2  0  0  0  0
 16 26  1  0  0  0  0
 17 25  1  0  0  0  0
 17 28  2  0  0  0  0
 18 30  2  0  0  0  0
 18 32  1  0  0  0  0
 19 33  1  0  0  0  0
 20 36  1  0  0  0  0
 21 33  1  0  0  0  0
 21 34  2  0  0  0  0
 21 37  1  0  0  0  0
 22 24  2  0  0  0  0
 22 42  1  0  0  0  0
 23 25  2  0  0  0  0
 23 43  1  0  0  0  0
 24 51  1  0  0  0  0
 25 44  1  0  0  0  0
 26 31  2  0  0  0  0
 26 69  1  0  0  0  0
 27 79  1  0  0  0  0
 28 80  1  0  0  0  0
 29 32  2  0  0  0  0
 29 79  1  0  0  0  0
 30 81  1  0  0  0  0
 31 82  1  0  0  0  0
 32 83  1  0  0  0  0
 33 62  2  0  0  0  0
 34 64  1  0  0  0  0
 34 67  1  0  0  0  0
 35 80  1  0  0  0  0
 36 63  1  0  0  0  0
 36 73  2  0  0  0  0
 37 68  1  0  0  0  0
 37 74  2  0  0  0  0
 38 52  1  0  0  0  0
 38 70  1  0  0  0  0
 38 75  2  0  0  0  0
 39 59  1  0  0  0  0
 39 65  1  0  0  0  0
 39 76  2  0  0  0  0
 40 60  1  0  0  0  0
 40 71  1  0  0  0  0
 40 77  2  0  0  0  0
 41 66  1  0  0  0  0
 41 69  1  0  0  0  0
 41 78  2  0  0  0  0
 42 45  1  0  0  0  0
 43 52  1  0  0  0  0
 44 65  1  0  0  0  0
 45 47  1  0  0  0  0
 46 48  1  0  0  0  0
 46 49  1  0  0  0  0
 47 51  1  0  0  0  0
 48 53  1  0  0  0  0
 49 66  1  0  0  0  0
 50 53  1  0  0  0  0
 50 66  1  0  0  0  0
 51 70  1  0  0  0  0
 52 65  1  0  0  0  0
 53 64  1  0  0  0  0
 54 60  1  0  0  0  0
 55 61  1  0  0  0  0
 56 61  1  0  0  0  0
 57 61  1  0  0  0  0
 58 72  1  0  0  0  0
 59 61  1  0  0  0  0
 59 71  1  0  0  0  0
 60 72  1  0  0  0  0
 62 64  1  0  0  0  0
M  CHG  1  72   1
M  ISO  4  35 101  41 100  69 100  80 101
M  END
> <Batch ID>
0088

> <Smiles>
CNC(C)C(=O)NC(C(=O)N1Cc2cc([101O:1][101CH:1]=C=NC(=O)c3ccc(F)c([100NH:0][100C:0](=O)N4CCCC(n5nc(-c6ccc(Oc7ccc(F)cc7F)cc6)c(C(N)=O)c5N)C4)c3)ccc2CC1C(=O)NC1CCCc2ccccc21)C(C)(C)C

> <Shape>
0.271

> <Color>
0.081

> <Negative vol penalty>
0.000

$$$$

  -OEChem-04052300233D

 86 94  0     1  0  0  0  0  0999 V2000
  -29.2571  -11.2206   20.4655 C   0  0  0  0  0  0  0  0  0  0  0  0
  -29.3494  -12.5583   20.0950 C   0  0  0  0  0  0  0  0  0  0  0  0
  -19.3893  -26.8595   23.0766 C   0  0  0  0  0  0  0  0  0  0  0  0
  -20.3632  -28.8075   22.0306 C   0  0  0  0  0  0  0  0  0  0  0  0
  -28.0058  -10.6364   20.6578 C   0  0  0  0  0  0  0  0  0  0  0  0
  -28.1903  -13.3125   19.9156 C   0  0  0  0  0  0  0  0  0  0  0  0
  -28.4984  -17.8889   22.0619 C   0  0  0  0  0  0  0  0  0  0  0  0
  -18.2003  -27.5610   23.2760 C   0  0  0  0  0  0  0  0  0  0  0  0
  -19.1741  -29.5090   22.2300 C   0  0  0  0  0  0  0  0  0  0  0  0
  -29.2287  -18.8629   21.3825 C   0  0  0  0  0  0  0  0  0  0  0  0
  -14.7874  -28.7252   23.7360 C   0  0  0  0  0  0  0  0  0  0  0  0
  -13.5917  -28.0748   23.4311 C   0  0  0  0  0  0  0  0  0  0  0  0
  -27.1749  -19.8050   20.5379 C   0  0  0  0  0  0  0  0  0  0  0  0
  -14.3127  -27.8243   21.1388 C   0  0  0  0  0  0  0  0  0  0  0  0
  -20.4708  -27.4827   22.4539 C   0  0  0  0  0  0  0  0  0  0  0  0
  -21.8751  -25.5763   21.5048 C   0  0  0  0  0  0  0  0  0  0  0  0
  -26.8311  -11.3863   20.4900 C   0  0  0  0  0  0  0  0  0  0  0  0
  -27.0991  -17.8589   21.9755 C   0  0  0  0  0  0  0  0  0  0  0  0
  -26.9221  -12.7374   20.1045 C   0  0  0  0  0  0  0  0  0  0  0  0
  -26.4290  -18.8311   21.2193 C   0  0  0  0  0  0  0  0  0  0  0  0
  -18.0927  -28.8857   22.8527 C   0  0  0  0  0  0  0  0  0  0  0  0
  -28.5671  -19.8195   20.6180 C   0  0  0  0  0  0  0  0  0  0  0  0
  -15.7457  -28.9252   22.7424 C   0  0  0  0  0  0  0  0  0  0  0  0
  -13.3544  -27.6243   22.1325 C   0  0  0  0  0  0  0  0  0  0  0  0
  -15.5083  -28.4748   21.4438 C   0  0  0  0  0  0  0  0  0  0  0  0
  -21.6995  -26.7588   22.2481 C   0  0  0  0  0  0  0  0  0  0  0  0
  -23.2150  -25.2960   21.6171 C   0  0  0  0  0  0  0  0  0  0  0  0
  -32.0608  -27.3179   21.3298 C   0  0  0  0  0  0  0  0  0  0  0  0
  -33.3133  -26.8808   21.1724 C   0  0  0  0  0  0  0  0  0  0  0  0
  -30.6380  -25.2887   21.0874 C   0  0  0  0  0  0  0  0  0  0  0  0
  -32.9402  -24.3750   20.6285 C   0  0  0  0  0  0  0  0  0  0  0  0
  -30.8170  -26.5857   21.3805 C   0  0  0  0  0  0  0  0  0  0  0  0
  -31.6051  -24.3091   20.6681 C   0  0  0  0  0  0  0  0  0  0  0  0
  -33.8277  -25.5119   20.9617 C   0  0  0  0  0  0  0  0  0  0  0  0
  -30.1849  -20.3600   19.0175 C   0  0  0  0  0  0  0  0  0  1  0  0
  -20.9132  -24.8006   20.7778 C   0  0  0  0  0  0  0  0  0  0  0  0
  -30.9428  -21.1948   18.2988 C   0  0  0  0  0  0  0  0  0  0  0  0
  -24.9629  -15.7699   20.8910 C   0  0  0  0  0  0  0  0  0  0  0  0
  -22.8413  -17.8804   22.1427 C   0  0  0  0  0  0  0  0  0  0  0  0
  -22.1704  -21.0821   23.1153 C   0  0  0  0  0  0  0  0  0  0  0  0
  -28.4325  -27.0512   21.3192 C   0  0  0  0  0  0  0  0  0  0  0  0
  -25.5000  -10.6987   20.6630 C   0  0  0  0  0  0  0  0  0  0  0  0
  -26.3244  -16.8178   22.7360 C   0  0  0  0  0  0  0  0  0  0  0  0
  -24.9270  -18.8549   21.1104 C   0  0  0  0  0  0  0  0  0  0  0  0
  -24.3298  -11.6668   20.8177 C   0  0  0  0  0  0  0  0  0  0  0  0
  -26.7625  -27.2597   24.6095 C   0  0  0  0  0  0  0  0  0  0  0  0
  -24.4061  -12.7689   19.7659 C   0  0  0  0  0  0  0  0  0  0  0  0
  -25.2994  -27.1036   24.2059 C   0  0  0  0  0  0  0  0  0  0  0  0
  -27.5744  -28.0014   23.5483 C   0  0  0  0  0  0  0  0  0  0  0  0
  -26.0078  -27.2373   21.7863 C   0  0  0  0  0  0  0  0  0  0  0  0
  -25.6883  -13.5950   19.9244 C   0  0  1  0  0  0  0  0  0  0  0  0
  -24.9327  -16.5709   22.1619 C   0  0  1  0  0  0  0  0  0  0  0  0
  -25.1868  -26.4509   22.8199 C   0  0  2  0  0  0  0  0  0  0  0  0
  -31.9464  -20.8034   17.2671 C   0  0  0  0  0  0  0  0  0  0  0  0
  -20.3374  -22.5096   24.0639 C   0  0  0  0  0  0  0  0  0  0  0  0
  -21.4711  -17.9281   19.4168 C   0  0  0  0  0  0  0  0  0  0  0  0
  -20.2882  -20.0177   20.1256 C   0  0  0  0  0  0  0  0  0  0  0  0
  -19.9087  -17.8889   21.3693 C   0  0  0  0  0  0  0  0  0  0  0  0
  -23.7630  -21.7296   25.5243 C   0  0  0  0  0  0  0  0  0  0  0  0
  -22.1139  -19.0984   21.6266 C   0  0  1  0  0  0  0  0  0  0  0  0
  -21.5443  -21.6402   24.3806 C   0  0  2  0  0  0  0  0  0  0  0  0
  -20.9739  -18.7319   20.6349 C   0  0  0  0  0  0  0  0  0  0  0  0
  -22.8368  -27.1994   22.7926 N   0  0  0  0  0  0  0  0  0  0  0  0
  -23.7400  -26.2888   22.3910 N   0  0  0  0  0  0  0  0  0  0  0  0
  -24.2143  -17.8124   21.8673 N   0  0  0  0  0  0  0  0  0  0  0  0
  -27.4027  -27.3998   22.2160 N   0  0  0  0  0  0  0  0  0  0  0  0
  -23.9836  -24.2995   21.1285 N   0  0  0  0  0  0  0  0  0  0  0  0
  -19.5794  -25.2308   20.7659 N   0  0  0  0  0  0  0  0  0  0  0  0
  -29.7272  -27.3206   21.7546 N   0  0  0  0  0  0  0  0  0  0  0  0
  -31.1012  -23.0386   20.2735 N   0  0  0  0  0  0  0  0  0  0  0  0
  -25.5555  -14.5285   21.0223 N   0  0  0  0  0  0  0  0  0  0  0  0
  -21.6678  -19.8366   22.8033 N   0  0  0  0  0  0  0  0  0  0  0  0
  -22.5348  -22.4655   25.1282 N   0  3  0  0  0  0  0  0  0  0  0  0
  -35.0432  -25.3196   21.0198 O   0  0  0  0  0  0  0  0  0  0  0  0
  -21.2241  -23.7478   20.1706 O   0  0  0  0  0  0  0  0  0  0  0  0
  -24.4827  -16.2425   19.8674 O   0  0  0  0  0  0  0  0  0  0  0  0
  -22.2157  -17.0245   22.7733 O   0  0  0  0  0  0  0  0  0  0  0  0
  -23.0176  -21.6918   22.4665 O   0  0  0  0  0  0  0  0  0  0  0  0
  -28.2049  -26.5476   20.2132 O   0  0  0  0  0  0  0  0  0  0  0  0
  -31.6979  -23.6232   17.8504 O   0  0  0  0  0  0  0  0  0  0  0  0
  -29.2986  -23.1730   18.4492 O   0  0  0  0  0  0  0  0  0  0  0  0
  -16.9325  -29.5704   23.0469 O   0  0  0  0  0  0  0  0  0  0  0  0
  -29.2776  -20.7709   19.9533 O   0  0  0  0  0  0  0  0  0  1  0  0
  -12.2068  -26.9984   21.8401 F   0  0  0  0  0  0  0  0  0  0  0  0
  -16.4257  -28.6630   20.4852 F   0  0  0  0  0  0  0  0  0  0  0  0
  -30.7127  -22.8778   18.6173 S   0  0  0  0  0  0  0  0  0  0  0  0
  1  2  1  0  0  0  0
  1  5  2  0  0  0  0
  2  6  2  0  0  0  0
  3  8  2  0  0  0  0
  3 15  1  0  0  0  0
  4  9  1  0  0  0  0
  4 15  2  0  0  0  0
  5 17  1  0  0  0  0
  6 19  1  0  0  0  0
  7 10  2  0  0  0  0
  7 18  1  0  0  0  0
  8 21  1  0  0  0  0
  9 21  2  0  0  0  0
 10 22  1  0  0  0  0
 11 12  2  0  0  0  0
 11 23  1  0  0  0  0
 12 24  1  0  0  0  0
 13 20  1  0  0  0  0
 13 22  2  0  0  0  0
 14 24  2  0  0  0  0
 14 25  1  0  0  0  0
 15 26  1  0  0  0  0
 16 26  1  0  0  0  0
 16 27  2  0  0  0  0
 16 36  1  0  0  0  0
 17 19  2  0  0  0  0
 17 42  1  0  0  0  0
 18 20  2  0  0  0  0
 18 43  1  0  0  0  0
 19 51  1  0  0  0  0
 20 44  1  0  0  0  0
 21 82  1  0  0  0  0
 22 83  1  0  0  0  0
 23 25  2  0  0  0  0
 23 82  1  0  0  0  0
 24 84  1  0  0  0  0
 25 85  1  0  0  0  0
 26 63  2  0  0  0  0
 27 64  1  0  0  0  0
 27 67  1  0  0  0  0
 28 29  2  0  0  0  0
 28 32  1  0  0  0  0
 29 34  1  0  0  0  0
 30 32  2  0  0  0  0
 30 33  1  0  0  0  0
 31 33  2  0  0  0  0
 31 34  1  0  0  0  0
 32 69  1  0  0  0  0
 33 70  1  0  0  0  0
 34 74  2  0  0  0  0
 35 37  2  0  0  0  0
 35 83  1  0  0  0  0
 36 68  1  0  0  0  0
 36 75  2  0  0  0  0
 37 54  1  0  0  0  0
 37 86  1  0  0  0  0
 38 52  1  0  0  0  0
 38 71  1  0  0  0  0
 38 76  2  0  0  0  0
 39 60  1  0  0  0  0
 39 65  1  0  0  0  0
 39 77  2  0  0  0  0
 40 61  1  0  0  0  0
 40 72  1  0  0  0  0
 40 78  2  0  0  0  0
 41 66  1  0  0  0  0
 41 69  1  0  0  0  0
 41 79  2  0  0  0  0
 42 45  1  0  0  0  0
 43 52  1  0  0  0  0
 44 65  1  0  0  0  0
 45 47  1  0  0  0  0
 46 48  1  0  0  0  0
 46 49  1  0  0  0  0
 47 51  1  0  0  0  0
 48 53  1  0  0  0  0
 49 66  1  0  0  0  0
 50 53  1  0  0  0  0
 50 66  1  0  0  0  0
 51 71  1  0  0  0  0
 52 65  1  0  0  0  0
 53 64  1  0  0  0  0
 55 61  1  0  0  0  0
 56 62  1  0  0  0  0
 57 62  1  0  0  0  0
 58 62  1  0  0  0  0
 59 73  1  0  0  0  0
 60 62  1  0  0  0  0
 60 72  1  0  0  0  0
 61 73  1  0  0  0  0
 63 64  1  0  0  0  0
 70 86  1  0  0  0  0
 80 86  2  0  0  0  0
 81 86  2  0  0  0  0
M  CHG  1  73   1
M  ISO  4  35 101  41 100  69 100  83 101
M  END
> <Batch ID>
0088

> <Smiles>
CNC(C)C(=O)NC(C(=O)N1Cc2cc([101O:1][101CH:1]=C(C)S(=O)(=O)Nc3cc([100NH:0][100C:0](=O)N4CCCC(n5nc(-c6ccc(Oc7ccc(F)cc7F)cc6)c(C(N)=O)c5N)C4)ccc(=O)c3)ccc2CC1C(=O)NC1CCCc2ccccc21)C(C)(C)C

> <Shape>
0.193

> <Color>
0.086

> <Negative vol penalty>
0.000

$$$$

  -OEChem-04052300233D

 81 89  0     1  0  0  0  0  0999 V2000
  -26.0714  -30.1104   20.0943 C   0  0  0  0  0  0  0  0  0  0  0  0
  -25.5545  -29.3400   21.1309 C   0  0  0  0  0  0  0  0  0  0  0  0
  -28.9006  -12.2137   20.6475 C   0  0  0  0  0  0  0  0  0  0  0  0
  -28.1911  -12.1188   18.3400 C   0  0  0  0  0  0  0  0  0  0  0  0
  -26.3153  -29.5298   18.8504 C   0  0  0  0  0  0  0  0  0  0  0  0
  -25.2800  -27.9886   20.9239 C   0  0  0  0  0  0  0  0  0  0  0  0
  -25.2612  -21.7050   24.3636 C   0  0  0  0  0  0  0  0  0  0  0  0
  -30.2304  -12.0960   20.2435 C   0  0  0  0  0  0  0  0  0  0  0  0
  -29.5210  -12.0012   17.9359 C   0  0  0  0  0  0  0  0  0  0  0  0
  -24.4246  -20.6192   24.6186 C   0  0  0  0  0  0  0  0  0  0  0  0
  -32.3185   -9.6368   19.2350 C   0  0  0  0  0  0  0  0  0  0  0  0
  -33.1314   -8.7459   19.9356 C   0  0  0  0  0  0  0  0  0  0  0  0
  -19.5444  -13.8068   26.4223 C   0  0  0  0  0  0  0  0  0  0  0  0
  -20.0917  -15.0924   26.7013 C   0  0  0  0  0  0  0  0  0  0  0  0
  -24.9602  -19.7052   22.4514 C   0  0  0  0  0  0  0  0  0  0  0  0
  -34.6010  -10.5648   20.5433 C   0  0  0  0  0  0  0  0  0  0  0  0
  -27.8809  -12.2251   19.6957 C   0  0  0  0  0  0  0  0  0  0  0  0
  -25.7736  -13.5347   20.2889 C   0  0  0  0  0  0  0  0  0  0  0  0
  -26.0528  -28.1683   18.6308 C   0  0  0  0  0  0  0  0  0  0  0  0
  -25.9462  -21.8046   23.1441 C   0  0  0  0  0  0  0  0  0  0  0  0
  -25.5193  -27.3895   19.6755 C   0  0  0  0  0  0  0  0  0  0  0  0
  -25.8069  -20.7919   22.1844 C   0  0  0  0  0  0  0  0  0  0  0  0
  -30.5406  -11.9897   18.8877 C   0  0  0  0  0  0  0  0  0  0  0  0
  -24.2717  -19.6206   23.6613 C   0  0  0  0  0  0  0  0  0  0  0  0
  -32.6468  -10.9917   19.1884 C   0  0  0  0  0  0  0  0  0  0  0  0
  -34.2727   -9.2099   20.5898 C   0  0  0  0  0  0  0  0  0  0  0  0
  -33.7880  -11.4557   19.8426 C   0  0  0  0  0  0  0  0  0  0  0  0
  -26.5070  -12.3461   20.1125 C   0  0  0  0  0  0  0  0  0  0  0  0
  -20.3715  -13.0562   25.6160 C   0  0  0  0  0  0  0  0  0  0  0  0
  -21.3165  -15.2753   26.0978 C   0  0  0  0  0  0  0  0  0  0  0  0
  -24.5286  -13.1140   20.6882 C   0  0  0  0  0  0  0  0  0  0  0  0
  -21.9591  -17.2845   25.2169 C   0  0  0  0  0  0  0  0  0  0  0  0
  -26.1814  -14.8973   20.1080 C   0  0  0  0  0  0  0  0  0  0  0  0
  -20.1696  -11.6776   25.1007 C   0  0  0  0  0  0  0  0  0  0  0  0
  -25.9415  -23.8738   20.7312 C   0  0  0  0  0  0  0  0  0  0  0  0
  -28.4020  -22.0456   19.6700 C   0  0  0  0  0  0  0  0  0  0  0  0
  -29.9814  -19.0204   19.6878 C   0  0  0  0  0  0  0  0  0  0  0  0
  -21.2226   -9.8908   23.7508 C   0  0  0  0  0  0  0  0  0  0  0  0
  -26.2882  -27.5962   17.2554 C   0  0  0  0  0  0  0  0  0  0  0  0
  -26.8657  -22.9687   22.8951 C   0  0  0  0  0  0  0  0  0  0  0  0
  -26.5360  -20.8416   20.8674 C   0  0  0  0  0  0  0  0  0  0  0  0
  -26.3217  -26.0703   17.2279 C   0  0  0  0  0  0  0  0  0  0  0  0
  -22.4799   -8.4825   20.7620 C   0  0  0  0  0  0  0  0  0  0  0  0
  -25.1539  -25.4963   18.0239 C   0  0  0  0  0  0  0  0  0  0  0  0
  -23.5754   -9.4628   20.3338 C   0  0  0  0  0  0  0  0  0  0  0  0
  -22.4366   -8.3075   22.2794 C   0  0  0  0  0  0  0  0  0  0  0  0
  -23.4387  -10.5295   22.6202 C   0  0  0  0  0  0  0  0  0  0  0  0
  -25.2319  -25.9145   19.4971 C   0  0  1  0  0  0  0  0  0  0  0  0
  -27.1143  -23.2272   21.4123 C   0  0  1  0  0  0  0  0  0  0  0  0
  -23.4770  -10.7936   21.1063 C   0  0  1  0  0  0  0  0  0  0  0  0
  -31.9465  -17.8183   18.6925 C   0  0  0  0  0  0  0  0  0  0  0  0
  -26.8913  -21.7635   17.0341 C   0  0  0  0  0  0  0  0  0  0  0  0
  -28.3884  -19.8401   16.4622 C   0  0  0  0  0  0  0  0  0  0  0  0
  -29.3553  -22.1159   16.7918 C   0  0  0  0  0  0  0  0  0  0  0  0
  -31.1969  -18.5640   22.3474 C   0  0  0  0  0  0  0  0  0  0  0  0
  -22.7859  -18.5344   25.1675 C   0  0  0  0  0  0  0  0  0  1  0  0
  -28.5243  -20.8199   18.7973 C   0  0  1  0  0  0  0  0  0  0  0  0
  -31.4426  -18.6480   19.8631 C   0  0  2  0  0  0  0  0  0  0  0  0
  -28.2745  -21.1346   17.2953 C   0  0  0  0  0  0  0  0  0  0  0  0
  -25.7878  -11.2523   20.3781 N   0  0  0  0  0  0  0  0  0  0  0  0
  -22.1535  -16.4031   26.1426 N   0  0  0  0  0  0  0  0  0  0  0  0
  -24.5896  -11.7520   20.7255 N   0  0  0  0  0  0  0  0  0  0  0  0
  -27.4185  -22.0031   20.6684 N   0  0  0  0  0  0  0  0  0  0  0  0
  -22.3336   -9.6120   22.9358 N   0  0  0  0  0  0  0  0  0  0  0  0
  -23.3986  -13.7800   21.0075 N   0  0  0  0  0  0  0  0  0  0  0  0
  -27.4960  -15.1520   19.6941 N   0  0  0  0  0  0  0  0  0  0  0  0
  -21.1955  -11.1786   24.2976 N   0  0  0  0  0  0  0  0  0  0  0  0
  -26.2169  -25.1182   20.1971 N   0  0  0  0  0  0  0  0  0  0  0  0
  -29.8370  -20.2485   19.0777 N   0  0  0  0  0  0  0  0  0  0  0  0
  -31.6296  -17.8589   21.1135 N   0  3  0  0  0  0  0  0  0  0  0  0
  -25.4079  -15.8611   20.3233 O   0  0  0  0  0  0  0  0  0  0  0  0
  -19.1627  -11.0571   25.4310 O   0  0  0  0  0  0  0  0  0  0  0  0
  -24.8666  -23.2866   20.6917 O   0  0  0  0  0  0  0  0  0  0  0  0
  -29.1562  -23.0026   19.4778 O   0  0  0  0  0  0  0  0  0  0  0  0
  -29.0602  -18.2929   20.0520 O   0  0  0  0  0  0  0  0  0  0  0  0
  -20.3138   -9.0772   23.9443 O   0  0  0  0  0  0  0  0  0  0  0  0
  -31.8382  -11.8751   18.4930 O   0  0  0  0  0  0  0  0  0  0  0  0
  -23.4553  -18.5600   23.9075 O   0  0  0  0  0  0  0  0  0  1  0  0
  -35.0525   -8.3544   21.2638 F   0  0  0  0  0  0  0  0  0  0  0  0
  -34.1079  -12.7564   19.8024 F   0  0  0  0  0  0  0  0  0  0  0  0
  -21.8015  -13.9008   25.1989 S   0  0  0  0  0  0  0  0  0  0  0  0
  1  2  1  0  0  0  0
  1  5  2  0  0  0  0
  2  6  2  0  0  0  0
  3  8  2  0  0  0  0
  3 17  1  0  0  0  0
  4  9  1  0  0  0  0
  4 17  2  0  0  0  0
  5 19  1  0  0  0  0
  6 21  1  0  0  0  0
  7 10  2  0  0  0  0
  7 20  1  0  0  0  0
  8 23  1  0  0  0  0
  9 23  2  0  0  0  0
 10 24  1  0  0  0  0
 11 12  2  0  0  0  0
 11 25  1  0  0  0  0
 12 26  1  0  0  0  0
 13 14  1  0  0  0  0
 13 29  2  0  0  0  0
 14 30  2  0  0  0  0
 15 22  1  0  0  0  0
 15 24  2  0  0  0  0
 16 26  2  0  0  0  0
 16 27  1  0  0  0  0
 17 28  1  0  0  0  0
 18 28  1  0  0  0  0
 18 31  2  0  0  0  0
 18 33  1  0  0  0  0
 19 21  2  0  0  0  0
 19 39  1  0  0  0  0
 20 22  2  0  0  0  0
 20 40  1  0  0  0  0
 21 48  1  0  0  0  0
 22 41  1  0  0  0  0
 23 77  1  0  0  0  0
 24 78  1  0  0  0  0
 25 27  2  0  0  0  0
 25 77  1  0  0  0  0
 26 79  1  0  0  0  0
 27 80  1  0  0  0  0
 28 60  2  0  0  0  0
 29 34  1  0  0  0  0
 29 81  1  0  0  0  0
 30 61  1  0  0  0  0
 30 81  1  0  0  0  0
 31 62  1  0  0  0  0
 31 65  1  0  0  0  0
 32 56  1  0  0  0  0
 32 61  2  0  0  0  0
 33 66  1  0  0  0  0
 33 71  2  0  0  0  0
 34 67  1  0  0  0  0
 34 72  2  0  0  0  0
 35 49  1  0  0  0  0
 35 68  1  0  0  0  0
 35 73  2  0  0  0  0
 36 57  1  0  0  0  0
 36 63  1  0  0  0  0
 36 74  2  0  0  0  0
 37 58  1  0  0  0  0
 37 69  1  0  0  0  0
 37 75  2  0  0  0  0
 38 64  1  0  0  0  0
 38 67  1  0  0  0  0
 38 76  2  0  0  0  0
 39 42  1  0  0  0  0
 40 49  1  0  0  0  0
 41 63  1  0  0  0  0
 42 44  1  0  0  0  0
 43 45  1  0  0  0  0
 43 46  1  0  0  0  0
 44 48  1  0  0  0  0
 45 50  1  0  0  0  0
 46 64  1  0  0  0  0
 47 50  1  0  0  0  0
 47 64  1  0  0  0  0
 48 68  1  0  0  0  0
 49 63  1  0  0  0  0
 50 62  1  0  0  0  0
 51 58  1  0  0  0  0
 52 59  1  0  0  0  0
 53 59  1  0  0  0  0
 54 59  1  0  0  0  0
 55 70  1  0  0  0  0
 56 78  1  0  0  0  0
 57 59  1  0  0  0  0
 57 69  1  0  0  0  0
 58 70  1  0  0  0  0
 60 62  1  0  0  0  0
M  CHG  1  70   1
M  ISO  4  38 100  56 101  67 100  78 101
M  END
> <Batch ID>
0088

> <Smiles>
CNC(C)C(=O)NC(C(=O)N1Cc2cc([101O:1][101CH:1]=CNc3ccc(C(=O)[100NH:0][100C:0](=O)N4CCCC(n5nc(-c6ccc(Oc7ccc(F)cc7F)cc6)c(C(N)=O)c5N)C4)s3)ccc2CC1C(=O)NC1CCCc2ccccc21)C(C)(C)C

> <Shape>
0.192

> <Color>
0.104

> <Negative vol penalty>
0.000

$$$$

  -OEChem-04052300233D

 85 94  0     1  0  0  0  0  0999 V2000
  -29.7761  -33.1529   25.3261 C   0  0  0  0  0  0  0  0  0  0  0  0
  -29.4708  -31.8954   24.8153 C   0  0  0  0  0  0  0  0  0  0  0  0
  -24.5197   -8.6960   21.4220 C   0  0  0  0  0  0  0  0  0  0  0  0
  -23.6441  -10.6217   22.5890 C   0  0  0  0  0  0  0  0  0  0  0  0
  -28.7502  -34.0227   25.6933 C   0  0  0  0  0  0  0  0  0  0  0  0
  -28.1393  -31.5066   24.6724 C   0  0  0  0  0  0  0  0  0  0  0  0
  -27.2338  -29.2775   20.2164 C   0  0  0  0  0  0  0  0  0  0  0  0
  -23.9996   -7.8604   22.4104 C   0  0  0  0  0  0  0  0  0  0  0  0
  -23.1239   -9.7861   23.5774 C   0  0  0  0  0  0  0  0  0  0  0  0
  -27.6294  -27.9479   20.0775 C   0  0  0  0  0  0  0  0  0  0  0  0
  -20.9932   -6.5535   23.2388 C   0  0  0  0  0  0  0  0  0  0  0  0
  -20.3202   -5.4032   22.8271 C   0  0  0  0  0  0  0  0  0  0  0  0
  -25.3589  -27.2370   20.4758 C   0  0  0  0  0  0  0  0  0  0  0  0
  -27.6135  -19.4515   22.3683 C   0  0  0  0  0  0  0  0  0  0  0  0
  -28.5504  -19.5642   20.1443 C   0  0  0  0  0  0  0  0  0  0  0  0
  -21.9151   -4.0409   24.0261 C   0  0  0  0  0  0  0  0  0  0  0  0
  -24.3420  -10.0766   21.5113 C   0  0  0  0  0  0  0  0  0  0  0  0
  -24.2384  -11.3639   19.3113 C   0  0  0  0  0  0  0  0  0  0  0  0
  -27.4054  -33.6481   25.5458 C   0  0  0  0  0  0  0  0  0  0  0  0
  -25.8976  -29.5969   20.4973 C   0  0  0  0  0  0  0  0  0  0  0  0
  -27.0945  -32.3717   25.0392 C   0  0  0  0  0  0  0  0  0  0  0  0
  -24.9484  -28.5716   20.6152 C   0  0  0  0  0  0  0  0  0  0  0  0
  -27.9519  -20.1927   21.2362 C   0  0  0  0  0  0  0  0  0  0  0  0
  -27.8738  -18.0817   22.4086 C   0  0  0  0  0  0  0  0  0  0  0  0
  -28.4723  -17.4531   21.3167 C   0  0  0  0  0  0  0  0  0  0  0  0
  -23.3017   -8.4055   23.4881 C   0  0  0  0  0  0  0  0  0  0  0  0
  -26.6925  -26.9272   20.2101 C   0  0  0  0  0  0  0  0  0  0  0  0
  -22.1273   -6.4475   24.0441 C   0  0  0  0  0  0  0  0  0  0  0  0
  -20.7811   -4.1469   23.2208 C   0  0  0  0  0  0  0  0  0  0  0  0
  -28.8106  -18.1943   20.1845 C   0  0  0  0  0  0  0  0  0  0  0  0
  -22.5882   -5.1912   24.4378 C   0  0  0  0  0  0  0  0  0  0  0  0
  -24.8795  -10.9403   20.4909 C   0  0  0  0  0  0  0  0  0  0  0  0
  -25.1632  -12.1642   18.6863 C   0  0  0  0  0  0  0  0  0  0  0  0
  -27.2281  -23.4874   21.1173 C   0  0  0  0  0  0  0  0  0  0  0  0
  -27.1374  -22.3974   22.0895 C   0  0  0  0  0  0  0  0  0  0  0  0
  -26.8874  -24.7887   21.1372 C   0  0  0  0  0  0  0  0  0  1  0  0
  -22.9243  -11.0610   18.8242 C   0  0  0  0  0  0  0  0  0  0  0  0
  -24.3940  -31.0489   22.8920 C   0  0  0  0  0  0  0  0  0  0  0  0
  -21.8183  -30.7448   20.9438 C   0  0  0  0  0  0  0  0  0  0  0  0
  -20.3126  -29.0857   18.3695 C   0  0  0  0  0  0  0  0  0  0  0  0
  -29.7777  -15.3947   20.6802 C   0  0  0  0  0  0  0  0  0  0  0  0
  -26.3314  -34.6043   26.0006 C   0  0  0  0  0  0  0  0  0  0  0  0
  -25.4818  -31.0374   20.6176 C   0  0  0  0  0  0  0  0  0  0  0  0
  -23.4976  -28.8625   20.8964 C   0  0  0  0  0  0  0  0  0  0  0  0
  -27.8469  -22.5215   20.1330 C   0  0  0  0  0  0  0  0  0  0  0  0
  -24.9432  -34.2595   25.4674 C   0  0  0  0  0  0  0  0  0  0  0  0
  -29.8914  -12.7903   18.2550 C   0  0  0  0  0  0  0  0  0  0  0  0
  -24.6600  -32.7705   25.6393 C   0  0  0  0  0  0  0  0  0  0  0  0
  -28.5581  -12.0626   18.4417 C   0  0  0  0  0  0  0  0  0  0  0  0
  -30.4657  -13.2723   19.5860 C   0  0  0  0  0  0  0  0  0  0  0  0
  -28.2164  -13.3528   20.5878 C   0  0  0  0  0  0  0  0  0  0  0  0
  -25.6621  -31.9231   24.8461 C   0  0  1  0  0  0  0  0  0  0  0  0
  -24.1933  -31.2229   21.4131 C   0  0  1  0  0  0  0  0  0  0  0  0
  -27.5670  -12.9054   19.2680 C   0  0  2  0  0  0  0  0  0  0  0  0
  -18.1934  -29.0411   17.0262 C   0  0  0  0  0  0  0  0  0  0  0  0
  -20.3750  -29.3972   23.2700 C   0  0  0  0  0  0  0  0  0  0  0  0
  -18.6816  -28.5451   21.6346 C   0  0  0  0  0  0  0  0  0  0  0  0
  -18.9724  -31.0011   21.9605 C   0  0  0  0  0  0  0  0  0  0  0  0
  -21.7591  -29.6608   15.8524 C   0  0  0  0  0  0  0  0  0  0  0  0
  -20.7550  -29.6939   20.7335 C   0  0  1  0  0  0  0  0  0  0  0  0
  -19.6092  -29.5882   17.1217 C   0  0  2  0  0  0  0  0  0  0  0  0
  -19.7236  -29.6534   21.8963 C   0  0  0  0  0  0  0  0  0  0  0  0
  -26.1161  -11.4308   20.6103 N   0  0  0  0  0  0  0  0  0  0  0  0
  -26.2595  -12.1708   19.4977 N   0  0  0  0  0  0  0  0  0  0  0  0
  -27.6957  -21.5437   21.1961 N   0  0  0  0  0  0  0  0  0  0  0  0
  -23.1415  -30.2864   21.0119 N   0  0  0  0  0  0  0  0  0  0  0  0
  -29.4726  -14.0674   20.3116 N   0  0  0  0  0  0  0  0  0  0  0  0
  -27.5230  -17.3501   23.5656 N   0  0  0  0  0  0  0  0  0  0  0  0
  -25.1375  -12.8559   17.5272 N   0  0  0  0  0  0  0  0  0  0  0  0
  -22.1043  -10.2223   19.5913 N   0  0  0  0  0  0  0  0  0  0  0  0
  -28.7446  -16.0627   21.3367 N   0  0  0  0  0  0  0  0  0  0  0  0
  -25.3182  -31.9176   23.4403 N   0  0  0  0  0  0  0  0  0  0  0  0
  -20.1695  -29.9619   19.4244 N   0  0  0  0  0  0  0  0  0  0  0  0
  -20.3573  -29.1716   15.9019 N   0  3  0  0  0  0  0  0  0  0  0  0
  -26.7221  -22.2900   23.2246 O   0  0  0  0  0  0  0  0  0  0  0  0
  -22.4963  -11.5073   17.7328 O   0  0  0  0  0  0  0  0  0  0  0  0
  -23.7565  -30.1911   23.4915 O   0  0  0  0  0  0  0  0  0  0  0  0
  -21.4875  -31.9295   21.0369 O   0  0  0  0  0  0  0  0  0  0  0  0
  -20.9245  -28.0204   18.4058 O   0  0  0  0  0  0  0  0  0  0  0  0
  -30.8648  -15.9103   20.4075 O   0  0  0  0  0  0  0  0  0  0  0  0
  -22.7939   -7.5905   24.4527 O   0  0  0  0  0  0  0  0  0  0  0  0
  -27.0761  -25.6285   20.0757 O   0  0  0  0  0  0  0  0  0  1  0  0
  -20.1339   -3.0425   22.8266 F   0  0  0  0  0  0  0  0  0  0  0  0
  -29.3861  -17.6014   19.1286 F   0  0  0  0  0  0  0  0  0  0  0  0
  -23.6764   -5.0831   25.2123 F   0  0  0  0  0  0  0  0  0  0  0  0
  1  2  1  0  0  0  0
  1  5  2  0  0  0  0
  2  6  2  0  0  0  0
  3  8  2  0  0  0  0
  3 17  1  0  0  0  0
  4  9  1  0  0  0  0
  4 17  2  0  0  0  0
  5 19  1  0  0  0  0
  6 21  1  0  0  0  0
  7 10  2  0  0  0  0
  7 20  1  0  0  0  0
  8 26  1  0  0  0  0
  9 26  2  0  0  0  0
 10 27  1  0  0  0  0
 11 12  2  0  0  0  0
 11 28  1  0  0  0  0
 12 29  1  0  0  0  0
 13 22  1  0  0  0  0
 13 27  2  0  0  0  0
 14 23  1  0  0  0  0
 14 24  2  0  0  0  0
 15 23  2  0  0  0  0
 15 30  1  0  0  0  0
 16 29  2  0  0  0  0
 16 31  1  0  0  0  0
 17 32  1  0  0  0  0
 18 32  1  0  0  0  0
 18 33  2  0  0  0  0
 18 37  1  0  0  0  0
 19 21  2  0  0  0  0
 19 42  1  0  0  0  0
 20 22  2  0  0  0  0
 20 43  1  0  0  0  0
 21 52  1  0  0  0  0
 22 44  1  0  0  0  0
 23 65  1  0  0  0  0
 24 25  1  0  0  0  0
 24 68  1  0  0  0  0
 25 30  2  0  0  0  0
 25 71  1  0  0  0  0
 26 81  1  0  0  0  0
 27 82  1  0  0  0  0
 28 31  2  0  0  0  0
 28 81  1  0  0  0  0
 29 83  1  0  0  0  0
 30 84  1  0  0  0  0
 31 85  1  0  0  0  0
 32 63  2  0  0  0  0
 33 64  1  0  0  0  0
 33 69  1  0  0  0  0
 34 35  1  0  0  0  0
 34 36  2  0  0  0  0
 34 45  1  0  0  0  0
 35 65  1  0  0  0  0
 35 75  2  0  0  0  0
 36 82  1  0  0  0  0
 37 70  1  0  0  0  0
 37 76  2  0  0  0  0
 38 53  1  0  0  0  0
 38 72  1  0  0  0  0
 38 77  2  0  0  0  0
 39 60  1  0  0  0  0
 39 66  1  0  0  0  0
 39 78  2  0  0  0  0
 40 61  1  0  0  0  0
 40 73  1  0  0  0  0
 40 79  2  0  0  0  0
 41 67  1  0  0  0  0
 41 71  1  0  0  0  0
 41 80  2  0  0  0  0
 42 46  1  0  0  0  0
 43 53  1  0  0  0  0
 44 66  1  0  0  0  0
 45 65  1  0  0  0  0
 46 48  1  0  0  0  0
 47 49  1  0  0  0  0
 47 50  1  0  0  0  0
 48 52  1  0  0  0  0
 49 54  1  0  0  0  0
 50 67  1  0  0  0  0
 51 54  1  0  0  0  0
 51 67  1  0  0  0  0
 52 72  1  0  0  0  0
 53 66  1  0  0  0  0
 54 64  1  0  0  0  0
 55 61  1  0  0  0  0
 56 62  1  0  0  0  0
 57 62  1  0  0  0  0
 58 62  1  0  0  0  0
 59 74  1  0  0  0  0
 60 62  1  0  0  0  0
 60 73  1  0  0  0  0
 61 74  1  0  0  0  0
 63 64  1  0  0  0  0
M  CHG  1  74   1
M  ISO  4  36 101  41 100  71 100  82 101
M  END
> <Batch ID>
0088

> <Smiles>
CNC(C)C(=O)NC(C(=O)N1Cc2cc([101O:1][101CH:1]=C3CN(c4cc(N)c([100NH:0][100C:0](=O)N5CCCC(n6nc(-c7ccc(Oc8ccc(F)cc8F)cc7)c(C(N)=O)c6N)C5)c(F)c4)C3=O)ccc2CC1C(=O)NC1CCCc2ccccc21)C(C)(C)C

> <Shape>
0.325

> <Color>
0.097

> <Negative vol penalty>
0.000

$$$$

  -OEChem-04052300233D

 85 93  0     1  0  0  0  0  0999 V2000
  -31.6531  -13.8232   22.3557 C   0  0  0  0  0  0  0  0  0  0  0  0
  -30.9082  -14.9979   22.3824 C   0  0  0  0  0  0  0  0  0  0  0  0
  -19.1888  -25.8227   25.1665 C   0  0  0  0  0  0  0  0  0  0  0  0
  -29.4410  -26.1052   20.1384 C   0  0  0  0  0  0  0  0  0  0  0  0
  -27.2992  -25.0183   20.3996 C   0  0  0  0  0  0  0  0  0  0  0  0
  -31.1977  -12.7267   21.6249 C   0  0  0  0  0  0  0  0  0  0  0  0
  -29.7078  -15.0770   21.6772 C   0  0  0  0  0  0  0  0  0  0  0  0
  -26.0045  -17.2263   24.3811 C   0  0  0  0  0  0  0  0  0  0  0  0
  -29.8951  -25.0277   19.3778 C   0  0  0  0  0  0  0  0  0  0  0  0
  -27.7532  -23.9408   19.6390 C   0  0  0  0  0  0  0  0  0  0  0  0
  -26.0220  -18.6159   24.4929 C   0  0  0  0  0  0  0  0  0  0  0  0
  -28.4660  -20.7413   18.0690 C   0  0  0  0  0  0  0  0  0  0  0  0
  -28.1883  -19.4562   18.5348 C   0  0  0  0  0  0  0  0  0  0  0  0
  -19.1954  -27.0791   24.5708 C   0  0  0  0  0  0  0  0  0  0  0  0
  -20.2859  -24.9820   25.0153 C   0  0  0  0  0  0  0  0  0  0  0  0
  -24.3459  -18.7701   22.7648 C   0  0  0  0  0  0  0  0  0  0  0  0
  -29.4176  -19.9250   20.5611 C   0  0  0  0  0  0  0  0  0  0  0  0
  -28.1431  -26.1005   20.6494 C   0  0  0  0  0  0  0  0  0  0  0  0
  -28.2136  -27.6859   22.6466 C   0  0  0  0  0  0  0  0  0  0  0  0
  -29.9863  -12.7892   20.9183 C   0  0  0  0  0  0  0  0  0  0  0  0
  -25.1641  -16.5977   23.4510 C   0  0  0  0  0  0  0  0  0  0  0  0
  -29.2364  -13.9807   20.9352 C   0  0  0  0  0  0  0  0  0  0  0  0
  -24.3178  -17.3723   22.6449 C   0  0  0  0  0  0  0  0  0  0  0  0
  -29.0511  -23.9456   19.1281 C   0  0  0  0  0  0  0  0  0  0  0  0
  -25.1947  -19.3882   23.6827 C   0  0  0  0  0  0  0  0  0  0  0  0
  -29.2196  -21.6183   18.8492 C   0  0  0  0  0  0  0  0  0  0  0  0
  -28.6641  -19.0481   19.7808 C   0  0  0  0  0  0  0  0  0  0  0  0
  -29.6953  -21.2102   20.0953 C   0  0  0  0  0  0  0  0  0  0  0  0
  -27.6737  -27.2130   21.4356 C   0  0  0  0  0  0  0  0  0  0  0  0
  -20.3144  -27.4444   23.8399 C   0  0  0  0  0  0  0  0  0  0  0  0
  -21.3560  -25.4412   24.2644 C   0  0  0  0  0  0  0  0  0  0  0  0
  -27.4154  -28.7510   22.9856 C   0  0  0  0  0  0  0  0  0  0  0  0
  -24.0473  -21.3768   24.1295 C   0  0  0  0  0  0  0  0  0  1  0  0
  -29.3362  -27.2055   23.3979 C   0  0  0  0  0  0  0  0  0  0  0  0
  -20.3771  -28.7749   23.1822 C   0  0  0  0  0  0  0  0  0  0  0  0
  -23.9484  -22.7050   24.2622 C   0  0  0  0  0  0  0  0  0  0  0  0
  -22.6258  -23.3018   24.6402 C   0  0  0  0  0  0  0  0  0  0  0  0
  -25.6202  -14.7395   20.9128 C   0  0  0  0  0  0  0  0  0  0  0  0
  -22.3839  -14.5279   20.9723 C   0  0  0  0  0  0  0  0  0  0  0  0
  -19.4072  -15.9056   21.9148 C   0  0  0  0  0  0  0  0  0  0  0  0
  -21.7888  -30.2126   21.7457 C   0  0  0  0  0  0  0  0  0  0  0  0
  -29.5584  -11.5939   20.1041 C   0  0  0  0  0  0  0  0  0  0  0  0
  -25.1375  -15.0965   23.3613 C   0  0  0  0  0  0  0  0  0  0  0  0
  -23.3823  -16.7451   21.6449 C   0  0  0  0  0  0  0  0  0  0  0  0
  -28.0899  -11.6338   19.6891 C   0  0  0  0  0  0  0  0  0  0  0  0
  -24.6593  -32.1429   21.0165 C   0  0  0  0  0  0  0  0  0  0  0  0
  -27.7279  -13.0096   19.1387 C   0  0  0  0  0  0  0  0  0  0  0  0
  -25.8121  -31.1464   21.1662 C   0  0  0  0  0  0  0  0  0  0  0  0
  -23.4249  -31.4930   20.3930 C   0  0  0  0  0  0  0  0  0  0  0  0
  -24.1166  -29.2734   21.2009 C   0  0  0  0  0  0  0  0  0  0  0  0
  -27.9169  -14.0970   20.2034 C   0  0  1  0  0  0  0  0  0  0  0  0
  -24.6169  -14.5871   22.0208 C   0  0  1  0  0  0  0  0  0  0  0  0
  -25.3592  -29.8618   21.8887 C   0  0  1  0  0  0  0  0  0  0  0  0
  -16.9307  -15.5204   21.7892 C   0  0  0  0  0  0  0  0  0  0  0  0
  -22.3974  -15.4089   18.0511 C   0  0  0  0  0  0  0  0  0  0  0  0
  -19.9557  -15.9190   18.2661 C   0  0  0  0  0  0  0  0  0  0  0  0
  -20.7728  -13.5834   18.5826 C   0  0  0  0  0  0  0  0  0  0  0  0
  -19.1595  -15.7845   24.8615 C   0  0  0  0  0  0  0  0  0  0  0  0
  -21.2496  -15.3151   20.3619 C   0  0  1  0  0  0  0  0  0  0  0  0
  -18.1952  -15.3087   22.6070 C   0  0  2  0  0  0  0  0  0  0  0  0
  -21.1128  -15.0688   18.8328 C   0  0  0  0  0  0  0  0  0  0  0  0
  -26.6143  -27.9196   21.0325 N   0  0  0  0  0  0  0  0  0  0  0  0
  -21.3987  -26.6550   23.6708 N   0  0  0  0  0  0  0  0  0  0  0  0
  -26.4821  -28.8474   21.9958 N   0  0  0  0  0  0  0  0  0  0  0  0
  -23.3975  -15.2739   21.5902 N   0  0  0  0  0  0  0  0  0  0  0  0
  -23.0553  -30.2896   21.1404 N   0  0  0  0  0  0  0  0  0  0  0  0
  -27.4278  -29.6052   24.0309 N   0  0  0  0  0  0  0  0  0  0  0  0
  -29.1161  -26.2249   24.3749 N   0  0  0  0  0  0  0  0  0  0  0  0
  -22.4684  -24.5779   24.1170 N   0  0  0  0  0  0  0  0  0  0  0  0
  -21.5481  -29.0411   22.4721 N   0  0  0  0  0  0  0  0  0  0  0  0
  -26.8146  -14.0832   21.1410 N   0  0  0  0  0  0  0  0  0  0  0  0
  -20.0571  -14.9759   21.1308 N   0  0  0  0  0  0  0  0  0  0  0  0
  -18.0008  -15.9370   23.9443 N   0  3  0  0  0  0  0  0  0  0  0  0
  -30.4976  -27.6448   23.2198 O   0  0  0  0  0  0  0  0  0  0  0  0
  -19.4105  -29.5280   23.2628 O   0  0  0  0  0  0  0  0  0  0  0  0
  -21.8279  -22.6784   25.3318 O   0  0  0  0  0  0  0  0  0  0  0  0
  -25.3315  -15.4022   19.9232 O   0  0  0  0  0  0  0  0  0  0  0  0
  -22.3674  -13.2960   20.9097 O   0  0  0  0  0  0  0  0  0  0  0  0
  -19.7417  -17.0802   22.0526 O   0  0  0  0  0  0  0  0  0  0  0  0
  -20.9583  -31.1241   21.6776 O   0  0  0  0  0  0  0  0  0  0  0  0
  -25.0199  -23.5524   24.0659 O   0  0  0  0  0  0  0  0  0  0  0  0
  -29.4938  -22.8941   18.3857 O   0  0  0  0  0  0  0  0  0  0  0  0
  -25.2103  -20.7447   23.7894 O   0  0  0  0  0  0  0  0  0  1  0  0
  -28.3960  -17.8145   20.2287 F   0  0  0  0  0  0  0  0  0  0  0  0
  -30.4188  -22.0486   20.8499 F   0  0  0  0  0  0  0  0  0  0  0  0
  1  2  1  0  0  0  0
  1  6  2  0  0  0  0
  2  7  2  0  0  0  0
  3 14  1  0  0  0  0
  3 15  2  0  0  0  0
  4  9  2  0  0  0  0
  4 18  1  0  0  0  0
  5 10  1  0  0  0  0
  5 18  2  0  0  0  0
  6 20  1  0  0  0  0
  7 22  1  0  0  0  0
  8 11  2  0  0  0  0
  8 21  1  0  0  0  0
  9 24  1  0  0  0  0
 10 24  2  0  0  0  0
 11 25  1  0  0  0  0
 12 13  2  0  0  0  0
 12 26  1  0  0  0  0
 13 27  1  0  0  0  0
 14 30  2  0  0  0  0
 15 31  1  0  0  0  0
 16 23  1  0  0  0  0
 16 25  2  0  0  0  0
 17 27  2  0  0  0  0
 17 28  1  0  0  0  0
 18 29  1  0  0  0  0
 19 29  1  0  0  0  0
 19 32  2  0  0  0  0
 19 34  1  0  0  0  0
 20 22  2  0  0  0  0
 20 42  1  0  0  0  0
 21 23  2  0  0  0  0
 21 43  1  0  0  0  0
 22 51  1  0  0  0  0
 23 44  1  0  0  0  0
 24 82  1  0  0  0  0
 25 83  1  0  0  0  0
 26 28  2  0  0  0  0
 26 82  1  0  0  0  0
 27 84  1  0  0  0  0
 28 85  1  0  0  0  0
 29 62  2  0  0  0  0
 30 35  1  0  0  0  0
 30 63  1  0  0  0  0
 31 63  2  0  0  0  0
 31 69  1  0  0  0  0
 32 64  1  0  0  0  0
 32 67  1  0  0  0  0
 33 36  2  0  0  0  0
 33 83  1  0  0  0  0
 34 68  1  0  0  0  0
 34 74  2  0  0  0  0
 35 70  1  0  0  0  0
 35 75  2  0  0  0  0
 36 37  1  0  0  0  0
 36 81  1  0  0  0  0
 37 69  1  0  0  0  0
 37 76  2  0  0  0  0
 38 52  1  0  0  0  0
 38 71  1  0  0  0  0
 38 77  2  0  0  0  0
 39 59  1  0  0  0  0
 39 65  1  0  0  0  0
 39 78  2  0  0  0  0
 40 60  1  0  0  0  0
 40 72  1  0  0  0  0
 40 79  2  0  0  0  0
 41 66  1  0  0  0  0
 41 70  1  0  0  0  0
 41 80  2  0  0  0  0
 42 45  1  0  0  0  0
 43 52  1  0  0  0  0
 44 65  1  0  0  0  0
 45 47  1  0  0  0  0
 46 48  1  0  0  0  0
 46 49  1  0  0  0  0
 47 51  1  0  0  0  0
 48 53  1  0  0  0  0
 49 66  1  0  0  0  0
 50 53  1  0  0  0  0
 50 66  1  0  0  0  0
 51 71  1  0  0  0  0
 52 65  1  0  0  0  0
 53 64  1  0  0  0  0
 54 60  1  0  0  0  0
 55 61  1  0  0  0  0
 56 61  1  0  0  0  0
 57 61  1  0  0  0  0
 58 73  1  0  0  0  0
 59 61  1  0  0  0  0
 59 72  1  0  0  0  0
 60 73  1  0  0  0  0
 62 64  1  0  0  0  0
M  CHG  1  73   1
M  ISO  4  33 101  41 100  70 100  83 101
M  END
> <Batch ID>
0088

> <Smiles>
CNC(C)C(=O)NC(C(=O)N1Cc2cc([101O:1][101CH2:1]C(=O)C(=O)Nc3cccc(C(=O)[100NH:0][100C:0](=O)N4CCCC(n5nc(-c6ccc(Oc7ccc(F)cc7F)cc6)c(C(N)=O)c5N)C4)n3)ccc2CC1C(=O)NC1CCCc2ccccc21)C(C)(C)C

> <Shape>
0.236

> <Color>
0.068

> <Negative vol penalty>
0.000

$$$$

  -OEChem-04052300233D

 88 97  0     1  0  0  0  0  0999 V2000
  -26.9359  -36.1754   21.7535 C   0  0  0  0  0  0  0  0  0  0  0  0
  -27.7299  -35.0542   21.9726 C   0  0  0  0  0  0  0  0  0  0  0  0
  -23.2408   -9.6496   20.2613 C   0  0  0  0  0  0  0  0  0  0  0  0
  -23.8512  -10.0770   22.5595 C   0  0  0  0  0  0  0  0  0  0  0  0
  -25.5469  -36.0644   21.7999 C   0  0  0  0  0  0  0  0  0  0  0  0
  -27.1352  -33.8215   22.2394 C   0  0  0  0  0  0  0  0  0  0  0  0
  -29.1645  -28.3055   20.5186 C   0  0  0  0  0  0  0  0  0  0  0  0
  -22.5467   -8.5067   20.6581 C   0  0  0  0  0  0  0  0  0  0  0  0
  -23.1569   -8.9341   22.9564 C   0  0  0  0  0  0  0  0  0  0  0  0
  -29.8917  -27.3226   21.1886 C   0  0  0  0  0  0  0  0  0  0  0  0
  -19.9454   -8.0382   23.5074 C   0  0  0  0  0  0  0  0  0  0  0  0
  -19.1185   -8.1399   24.6260 C   0  0  0  0  0  0  0  0  0  0  0  0
  -27.8358  -26.1909   21.7471 C   0  0  0  0  0  0  0  0  0  0  0  0
  -29.7724  -19.6197   22.3414 C   0  0  0  0  0  0  0  0  0  0  0  0
  -31.4923  -17.8194   21.0831 C   0  0  0  0  0  0  0  0  0  0  0  0
  -20.4144   -6.4314   25.7391 C   0  0  0  0  0  0  0  0  0  0  0  0
  -23.8931  -10.4348   21.2119 C   0  0  0  0  0  0  0  0  0  0  0  0
  -24.1034  -12.9238   20.6941 C   0  0  0  0  0  0  0  0  0  0  0  0
  -24.9347  -34.8278   22.0579 C   0  0  0  0  0  0  0  0  0  0  0  0
  -27.7645  -28.2442   20.4670 C   0  0  0  0  0  0  0  0  0  0  0  0
  -25.7366  -33.6941   22.2907 C   0  0  0  0  0  0  0  0  0  0  0  0
  -27.0934  -27.1729   21.0736 C   0  0  0  0  0  0  0  0  0  0  0  0
  -31.0545  -20.0239   21.9695 C   0  0  0  0  0  0  0  0  0  0  0  0
  -29.3502  -18.3154   22.0843 C   0  0  0  0  0  0  0  0  0  0  0  0
  -30.2101  -17.4152   21.4551 C   0  0  0  0  0  0  0  0  0  0  0  0
  -22.5047   -8.1490   22.0057 C   0  0  0  0  0  0  0  0  0  0  0  0
  -29.2272  -26.2666   21.8054 C   0  0  0  0  0  0  0  0  0  0  0  0
  -21.0067   -7.1331   23.5045 C   0  0  0  0  0  0  0  0  0  0  0  0
  -31.9145  -19.1238   21.3403 C   0  0  0  0  0  0  0  0  0  0  0  0
  -19.3530   -7.3365   25.7419 C   0  0  0  0  0  0  0  0  0  0  0  0
  -21.2412   -6.3297   24.6203 C   0  0  0  0  0  0  0  0  0  0  0  0
  -24.6108  -11.6152   20.8025 C   0  0  0  0  0  0  0  0  0  0  0  0
  -25.1739  -13.6733   20.2713 C   0  0  0  0  0  0  0  0  0  0  0  0
  -32.6064  -23.1462   23.0212 C   0  0  0  0  0  0  0  0  0  0  0  0
  -31.6058  -23.6152   22.2785 C   0  0  0  0  0  0  0  0  0  0  0  0
  -32.5388  -21.6780   23.0214 C   0  0  0  0  0  0  0  0  0  0  0  0
  -30.8503  -22.4652   21.7449 C   0  0  0  0  0  0  0  0  0  0  0  0
  -22.7824  -13.4178   20.9526 C   0  0  0  0  0  0  0  0  0  0  0  0
  -25.3986  -30.1019   21.4942 C   0  0  0  0  0  0  0  0  0  0  0  0
  -23.5528  -27.9824   19.8746 C   0  0  0  0  0  0  0  0  0  0  0  0
  -23.1956  -24.8407   18.5904 C   0  0  0  0  0  0  0  0  0  0  0  0
  -30.5524  -15.0833   20.5656 C   0  0  0  0  0  0  0  0  0  0  0  0
  -23.4303  -34.7666   22.1450 C   0  0  0  0  0  0  0  0  0  0  0  0
  -26.9963  -29.2980   19.7175 C   0  0  0  0  0  0  0  0  0  0  0  0
  -25.5929  -27.0502   21.0298 C   0  0  0  0  0  0  0  0  0  0  0  0
  -22.8725  -33.3480   22.0631 C   0  0  0  0  0  0  0  0  0  0  0  0
  -29.7252  -12.2509   18.5730 C   0  0  0  0  0  0  0  0  0  0  0  0
  -23.6557  -32.4128   22.9789 C   0  0  0  0  0  0  0  0  0  0  0  0
  -28.2791  -11.9407   18.9665 C   0  0  0  0  0  0  0  0  0  0  0  0
  -30.5478  -12.7299   19.7679 C   0  0  0  0  0  0  0  0  0  0  0  0
  -28.5197  -13.5442   20.9050 C   0  0  0  0  0  0  0  0  0  0  0  0
  -25.1284  -32.3346   22.5586 C   0  0  1  0  0  0  0  0  0  0  0  0
  -25.5431  -29.4116   20.1675 C   0  0  1  0  0  0  0  0  0  0  0  0
  -27.6351  -13.1201   19.7213 C   0  0  2  0  0  0  0  0  0  0  0  0
  -21.5616  -23.3920   17.3541 C   0  0  0  0  0  0  0  0  0  0  0  0
  -21.9375  -27.6212   22.4378 C   0  0  0  0  0  0  0  0  0  0  0  0
  -20.9714  -25.5324   21.4519 C   0  0  0  0  0  0  0  0  0  0  0  0
  -20.5676  -27.7328   20.3484 C   0  0  0  0  0  0  0  0  0  0  0  0
  -25.0491  -24.4970   16.3089 C   0  0  0  0  0  0  0  0  0  0  0  0
  -33.3246  -20.0446   19.6612 C   0  0  0  0  0  0  0  0  0  0  0  0
  -31.2483  -25.0254   21.9797 C   0  0  0  0  0  0  0  0  0  1  0  0
  -22.8642  -26.6836   20.2178 C   0  0  1  0  0  0  0  0  0  0  0  0
  -22.7312  -24.3559   17.2289 C   0  0  2  0  0  0  0  0  0  0  0  0
  -21.6133  -26.8955   21.1166 C   0  0  0  0  0  0  0  0  0  0  0  0
  -25.9032  -11.5345   20.4749 N   0  0  0  0  0  0  0  0  0  0  0  0
  -26.2168  -12.8019   20.1563 N   0  0  0  0  0  0  0  0  0  0  0  0
  -31.4621  -21.3268   22.2329 N   0  0  0  0  0  0  0  0  0  0  0  0
  -24.8859  -28.1088   20.2902 N   0  0  0  0  0  0  0  0  0  0  0  0
  -29.8784  -13.8511   20.4309 N   0  0  0  0  0  0  0  0  0  0  0  0
  -28.0473  -17.9265   22.4693 N   0  0  0  0  0  0  0  0  0  0  0  0
  -25.3154  -14.9861   19.9904 N   0  0  0  0  0  0  0  0  0  0  0  0
  -21.8022  -12.5120   21.3806 N   0  0  0  0  0  0  0  0  0  0  0  0
  -29.8045  -16.0851   21.1834 N   0  0  0  0  0  0  0  0  0  0  0  0
  -25.2794  -31.4756   21.4037 N   0  0  0  0  0  0  0  0  0  0  0  0
  -22.5825  -26.0229   18.9479 N   0  0  0  0  0  0  0  0  0  0  0  0
  -23.8416  -23.6579   16.5212 N   0  3  0  0  0  0  0  0  0  0  0  0
  -33.3219  -20.9638   23.6264 O   0  0  0  0  0  0  0  0  0  0  0  0
  -29.8754  -22.5614   21.0167 O   0  0  0  0  0  0  0  0  0  0  0  0
  -22.4760  -14.6236   20.7925 O   0  0  0  0  0  0  0  0  0  0  0  0
  -25.3940  -29.4373   22.5238 O   0  0  0  0  0  0  0  0  0  0  0  0
  -22.9331  -28.8499   19.2541 O   0  0  0  0  0  0  0  0  0  0  0  0
  -24.0171  -24.2298   19.2705 O   0  0  0  0  0  0  0  0  0  0  0  0
  -31.6981  -15.2464   20.1382 O   0  0  0  0  0  0  0  0  0  0  0  0
  -21.8272   -7.0339   22.3933 O   0  0  0  0  0  0  0  0  0  0  0  0
  -33.1713  -19.4988   20.9696 O   0  0  0  0  0  0  0  0  0  0  0  0
  -29.9345  -25.3063   22.4606 O   0  0  0  0  0  0  0  0  0  1  0  0
  -18.5598   -7.4353   26.8168 F   0  0  0  0  0  0  0  0  0  0  0  0
  -22.2600   -5.4592   24.6239 F   0  0  0  0  0  0  0  0  0  0  0  0
  1  2  1  0  0  0  0
  1  5  2  0  0  0  0
  2  6  2  0  0  0  0
  3  8  2  0  0  0  0
  3 17  1  0  0  0  0
  4  9  1  0  0  0  0
  4 17  2  0  0  0  0
  5 19  1  0  0  0  0
  6 21  1  0  0  0  0
  7 10  2  0  0  0  0
  7 20  1  0  0  0  0
  8 26  1  0  0  0  0
  9 26  2  0  0  0  0
 10 27  1  0  0  0  0
 11 12  2  0  0  0  0
 11 28  1  0  0  0  0
 12 30  1  0  0  0  0
 13 22  1  0  0  0  0
 13 27  2  0  0  0  0
 14 23  1  0  0  0  0
 14 24  2  0  0  0  0
 15 25  2  0  0  0  0
 15 29  1  0  0  0  0
 16 30  2  0  0  0  0
 16 31  1  0  0  0  0
 17 32  1  0  0  0  0
 18 32  1  0  0  0  0
 18 33  2  0  0  0  0
 18 38  1  0  0  0  0
 19 21  2  0  0  0  0
 19 43  1  0  0  0  0
 20 22  2  0  0  0  0
 20 44  1  0  0  0  0
 21 52  1  0  0  0  0
 22 45  1  0  0  0  0
 23 29  2  0  0  0  0
 23 67  1  0  0  0  0
 24 25  1  0  0  0  0
 24 70  1  0  0  0  0
 25 73  1  0  0  0  0
 26 84  1  0  0  0  0
 27 86  1  0  0  0  0
 28 31  2  0  0  0  0
 28 84  1  0  0  0  0
 29 85  1  0  0  0  0
 30 87  1  0  0  0  0
 31 88  1  0  0  0  0
 32 65  2  0  0  0  0
 33 66  1  0  0  0  0
 33 71  1  0  0  0  0
 34 35  2  0  0  0  0
 34 36  1  0  0  0  0
 35 37  1  0  0  0  0
 35 61  1  0  0  0  0
 36 67  1  0  0  0  0
 36 77  2  0  0  0  0
 37 67  1  0  0  0  0
 37 78  2  0  0  0  0
 38 72  1  0  0  0  0
 38 79  2  0  0  0  0
 39 53  1  0  0  0  0
 39 74  1  0  0  0  0
 39 80  2  0  0  0  0
 40 62  1  0  0  0  0
 40 68  1  0  0  0  0
 40 81  2  0  0  0  0
 41 63  1  0  0  0  0
 41 75  1  0  0  0  0
 41 82  2  0  0  0  0
 42 69  1  0  0  0  0
 42 73  1  0  0  0  0
 42 83  2  0  0  0  0
 43 46  1  0  0  0  0
 44 53  1  0  0  0  0
 45 68  1  0  0  0  0
 46 48  1  0  0  0  0
 47 49  1  0  0  0  0
 47 50  1  0  0  0  0
 48 52  1  0  0  0  0
 49 54  1  0  0  0  0
 50 69  1  0  0  0  0
 51 54  1  0  0  0  0
 51 69  1  0  0  0  0
 52 74  1  0  0  0  0
 53 68  1  0  0  0  0
 54 66  1  0  0  0  0
 55 63  1  0  0  0  0
 56 64  1  0  0  0  0
 57 64  1  0  0  0  0
 58 64  1  0  0  0  0
 59 76  1  0  0  0  0
 60 85  1  0  0  0  0
 61 86  1  0  0  0  0
 62 64  1  0  0  0  0
 62 75  1  0  0  0  0
 63 76  1  0  0  0  0
 65 66  1  0  0  0  0
M  CHG  1  76   1
M  ISO  4  42 100  61 101  73 100  86 101
M  END
> <Batch ID>
0088

> <Smiles>
CNC(C)C(=O)NC(C(=O)N1Cc2cc([101O:1][101CH2:1]C3=CC(=O)N(c4cc(N)c([100NH:0][100C:0](=O)N5CCCC(n6nc(-c7ccc(Oc8ccc(F)cc8F)cc7)c(C(N)=O)c6N)C5)cc4OC)C3=O)ccc2CC1C(=O)NC1CCCc2ccccc21)C(C)(C)C

> <Shape>
0.303

> <Color>
0.172

> <Negative vol penalty>
0.000

$$$$

  -OEChem-04052300233D

 84 92  0     1  0  0  0  0  0999 V2000
  -17.7558  -15.4471   15.1925 C   0  0  0  0  0  0  0  0  0  0  0  0
  -18.4867  -15.4688   16.3760 C   0  0  0  0  0  0  0  0  0  0  0  0
  -30.9387  -17.8019   25.5625 C   0  0  0  0  0  0  0  0  0  0  0  0
  -23.0691   -9.8742   19.9441 C   0  0  0  0  0  0  0  0  0  0  0  0
  -23.8340   -9.8792   22.2358 C   0  0  0  0  0  0  0  0  0  0  0  0
  -17.5914  -16.6185   14.4544 C   0  0  0  0  0  0  0  0  0  0  0  0
  -19.0547  -16.6619   16.8216 C   0  0  0  0  0  0  0  0  0  0  0  0
  -19.7406  -18.4678   22.6331 C   0  0  0  0  0  0  0  0  0  0  0  0
  -31.3290  -17.3817   24.2911 C   0  0  0  0  0  0  0  0  0  0  0  0
  -29.6166  -18.1802   25.7968 C   0  0  0  0  0  0  0  0  0  0  0  0
  -22.3247   -8.7216   20.1951 C   0  0  0  0  0  0  0  0  0  0  0  0
  -23.0896   -8.7266   22.4868 C   0  0  0  0  0  0  0  0  0  0  0  0
  -20.8271  -18.4276   23.5058 C   0  0  0  0  0  0  0  0  0  0  0  0
  -20.5077   -5.5722   20.1389 C   0  0  0  0  0  0  0  0  0  0  0  0
  -20.5680   -4.5422   19.2003 C   0  0  0  0  0  0  0  0  0  0  0  0
  -21.3704  -20.7050   22.9249 C   0  0  0  0  0  0  0  0  0  0  0  0
  -29.0753  -17.7182   23.4881 C   0  0  0  0  0  0  0  0  0  0  0  0
  -22.9534   -4.3698   19.5427 C   0  0  0  0  0  0  0  0  0  0  0  0
  -23.8237  -10.4530   20.9645 C   0  0  0  0  0  0  0  0  0  0  0  0
  -24.1675  -12.9779   20.8451 C   0  0  0  0  0  0  0  0  0  0  0  0
  -18.1495  -17.8285   14.8962 C   0  0  0  0  0  0  0  0  0  0  0  0
  -19.4668  -19.6252   21.8903 C   0  0  0  0  0  0  0  0  0  0  0  0
  -18.8988  -17.8503   16.0880 C   0  0  0  0  0  0  0  0  0  0  0  0
  -20.2783  -20.7582   22.0453 C   0  0  0  0  0  0  0  0  0  0  0  0
  -30.3973  -17.3399   23.2538 C   0  0  0  0  0  0  0  0  0  0  0  0
  -28.6850  -18.1384   24.7596 C   0  0  0  0  0  0  0  0  0  0  0  0
  -22.3350   -8.1478   21.4664 C   0  0  0  0  0  0  0  0  0  0  0  0
  -21.6439  -19.5453   23.6496 C   0  0  0  0  0  0  0  0  0  0  0  0
  -21.6702   -6.0010   20.7795 C   0  0  0  0  0  0  0  0  0  0  0  0
  -21.7908   -3.9410   18.9022 C   0  0  0  0  0  0  0  0  0  0  0  0
  -22.8930   -5.3998   20.4814 C   0  0  0  0  0  0  0  0  0  0  0  0
  -24.5933  -11.6434   20.7057 C   0  0  0  0  0  0  0  0  0  0  0  0
  -25.2596  -13.7266   20.4798 C   0  0  0  0  0  0  0  0  0  0  0  0
  -25.0340  -19.0070   24.7274 C   0  0  0  0  0  0  0  0  0  0  0  0
  -23.9105  -19.0924   24.0078 C   0  0  0  0  0  0  0  0  0  1  0  0
  -22.8984  -13.4946   21.2671 C   0  0  0  0  0  0  0  0  0  0  0  0
  -26.2966  -18.5390   24.0848 C   0  0  0  0  0  0  0  0  0  0  0  0
  -19.3507  -20.3272   18.7923 C   0  0  0  0  0  0  0  0  0  0  0  0
  -18.2670  -23.1851   19.8789 C   0  0  0  0  0  0  0  0  0  0  0  0
  -18.1101  -25.4429   22.4332 C   0  0  0  0  0  0  0  0  0  0  0  0
  -30.7446  -14.7407   20.6568 C   0  0  0  0  0  0  0  0  0  0  0  0
  -17.9849  -19.0592   14.0400 C   0  0  0  0  0  0  0  0  0  0  0  0
  -18.2751  -19.6615   20.9732 C   0  0  0  0  0  0  0  0  0  0  0  0
  -20.0151  -22.0320   21.2860 C   0  0  0  0  0  0  0  0  0  0  0  0
  -18.3026  -20.3591   14.7746 C   0  0  0  0  0  0  0  0  0  0  0  0
  -29.5997  -12.3585   18.2712 C   0  0  0  0  0  0  0  0  0  0  0  0
  -19.6090  -20.2279   15.5511 C   0  0  0  0  0  0  0  0  0  0  0  0
  -28.1629  -12.0659   18.7071 C   0  0  0  0  0  0  0  0  0  0  0  0
  -30.5196  -12.5779   19.4702 C   0  0  0  0  0  0  0  0  0  0  0  0
  -28.6216  -13.3099   20.8613 C   0  0  0  0  0  0  0  0  0  0  0  0
  -19.5093  -19.1299   16.6170 C   0  0  1  0  0  0  0  0  0  0  0  0
  -18.3933  -20.7207   19.8816 C   0  0  1  0  0  0  0  0  0  0  0  0
  -27.6447  -13.1368   19.6857 C   0  0  2  0  0  0  0  0  0  0  0  0
  -30.6111  -17.9692   20.8207 C   0  0  0  0  0  0  0  0  0  0  0  0
  -17.1845  -27.7028   23.0107 C   0  0  0  0  0  0  0  0  0  0  0  0
  -20.4678  -24.5055   18.2287 C   0  0  0  0  0  0  0  0  0  0  0  0
  -20.1130  -26.5975   19.5576 C   0  0  0  0  0  0  0  0  0  0  0  0
  -18.2622  -25.6823   18.1577 C   0  0  0  0  0  0  0  0  0  0  0  0
  -16.4554  -24.3342   24.6222 C   0  0  0  0  0  0  0  0  0  0  0  0
  -30.8151  -16.8906   21.8947 C   0  0  2  0  0  0  0  0  0  0  0  0
  -18.9117  -24.4872   20.2888 C   0  0  1  0  0  0  0  0  0  0  0  0
  -16.9419  -26.2017   23.0365 C   0  0  2  0  0  0  0  0  0  0  0  0
  -19.4450  -25.2936   19.0712 C   0  0  0  0  0  0  0  0  0  0  0  0
  -25.8572  -11.5466   20.2846 N   0  0  0  0  0  0  0  0  0  0  0  0
  -26.2349  -12.8299   20.1562 N   0  0  0  0  0  0  0  0  0  0  0  0
  -18.8418  -22.0159   20.3969 N   0  0  0  0  0  0  0  0  0  0  0  0
  -29.9719  -13.6064   20.3579 N   0  0  0  0  0  0  0  0  0  0  0  0
  -25.4710  -15.0580   20.4071 N   0  0  0  0  0  0  0  0  0  0  0  0
  -21.8865  -12.5862   21.6061 N   0  0  0  0  0  0  0  0  0  0  0  0
  -27.3423  -18.5220   24.9981 N   0  0  0  0  0  0  0  0  0  0  0  0
  -18.7700  -19.6067   17.7661 N   0  0  0  0  0  0  0  0  0  0  0  0
  -17.9212  -25.1988   21.0893 N   0  0  0  0  0  0  0  0  0  0  0  0
  -30.1481  -15.6696   21.5006 N   0  0  0  0  0  0  0  0  0  0  0  0
  -16.7283  -25.7844   24.4512 N   0  3  0  0  0  0  0  0  0  0  0  0
  -22.6634  -14.7254   21.3256 O   0  0  0  0  0  0  0  0  0  0  0  0
  -26.3287  -18.2274   22.9001 O   0  0  0  0  0  0  0  0  0  0  0  0
  -20.5286  -20.6545   18.8760 O   0  0  0  0  0  0  0  0  0  0  0  0
  -17.2852  -23.2051   19.1325 O   0  0  0  0  0  0  0  0  0  0  0  0
  -19.0936  -25.1041   23.0878 O   0  0  0  0  0  0  0  0  0  0  0  0
  -31.8797  -14.9154   20.2007 O   0  0  0  0  0  0  0  0  0  0  0  0
  -21.6085   -7.0232   21.7117 O   0  0  0  0  0  0  0  0  0  0  0  0
  -22.7055  -19.5085   24.5003 O   0  0  0  0  0  0  0  0  0  1  0  0
  -21.8483   -2.9509   18.0019 F   0  0  0  0  0  0  0  0  0  0  0  0
  -24.0131   -5.8067   21.0944 F   0  0  0  0  0  0  0  0  0  0  0  0
  1  2  1  0  0  0  0
  1  6  2  0  0  0  0
  2  7  2  0  0  0  0
  3  9  1  0  0  0  0
  3 10  2  0  0  0  0
  4 11  2  0  0  0  0
  4 19  1  0  0  0  0
  5 12  1  0  0  0  0
  5 19  2  0  0  0  0
  6 21  1  0  0  0  0
  7 23  1  0  0  0  0
  8 13  2  0  0  0  0
  8 22  1  0  0  0  0
  9 25  2  0  0  0  0
 10 26  1  0  0  0  0
 11 27  1  0  0  0  0
 12 27  2  0  0  0  0
 13 28  1  0  0  0  0
 14 15  2  0  0  0  0
 14 29  1  0  0  0  0
 15 30  1  0  0  0  0
 16 24  1  0  0  0  0
 16 28  2  0  0  0  0
 17 25  1  0  0  0  0
 17 26  2  0  0  0  0
 18 30  2  0  0  0  0
 18 31  1  0  0  0  0
 19 32  1  0  0  0  0
 20 32  1  0  0  0  0
 20 33  2  0  0  0  0
 20 36  1  0  0  0  0
 21 23  2  0  0  0  0
 21 42  1  0  0  0  0
 22 24  2  0  0  0  0
 22 43  1  0  0  0  0
 23 51  1  0  0  0  0
 24 44  1  0  0  0  0
 25 60  1  0  0  0  0
 26 70  1  0  0  0  0
 27 81  1  0  0  0  0
 28 82  1  0  0  0  0
 29 31  2  0  0  0  0
 29 81  1  0  0  0  0
 30 83  1  0  0  0  0
 31 84  1  0  0  0  0
 32 64  2  0  0  0  0
 33 65  1  0  0  0  0
 33 68  1  0  0  0  0
 34 35  2  0  0  0  0
 34 37  1  0  0  0  0
 35 82  1  0  0  0  0
 36 69  1  0  0  0  0
 36 75  2  0  0  0  0
 37 70  1  0  0  0  0
 37 76  2  0  0  0  0
 38 52  1  0  0  0  0
 38 71  1  0  0  0  0
 38 77  2  0  0  0  0
 39 61  1  0  0  0  0
 39 66  1  0  0  0  0
 39 78  2  0  0  0  0
 40 62  1  0  0  0  0
 40 72  1  0  0  0  0
 40 79  2  0  0  0  0
 41 67  1  0  0  0  0
 41 73  1  0  0  0  0
 41 80  2  0  0  0  0
 42 45  1  0  0  0  0
 43 52  1  0  0  0  0
 44 66  1  0  0  0  0
 45 47  1  0  0  0  0
 46 48  1  0  0  0  0
 46 49  1  0  0  0  0
 47 51  1  0  0  0  0
 48 53  1  0  0  0  0
 49 67  1  0  0  0  0
 50 53  1  0  0  0  0
 50 67  1  0  0  0  0
 51 71  1  0  0  0  0
 52 66  1  0  0  0  0
 53 65  1  0  0  0  0
 54 60  1  0  0  0  0
 55 62  1  0  0  0  0
 56 63  1  0  0  0  0
 57 63  1  0  0  0  0
 58 63  1  0  0  0  0
 59 74  1  0  0  0  0
 60 73  1  0  0  0  0
 61 63  1  0  0  0  0
 61 72  1  0  0  0  0
 62 74  1  0  0  0  0
 64 65  1  0  0  0  0
M  CHG  1  74   1
M  ISO  4  35 101  41 100  73 100  82 101
M  END
> <Batch ID>
0088

> <Smiles>
CNC(C)C(=O)NC(C(=O)N1Cc2cc([101O:1][101CH:1]=CC(=O)Nc3cccc(C(C)[100NH:0][100C:0](=O)N4CCCC(n5nc(-c6ccc(Oc7ccc(F)cc7F)cc6)c(C(N)=O)c5N)C4)c3)ccc2CC1C(=O)NC1CCCc2ccccc21)C(C)(C)C

> <Shape>
0.177

> <Color>
0.191

> <Negative vol penalty>
0.000

$$$$

  -OEChem-04052300233D

 84 92  0     1  0  0  0  0  0999 V2000
  -25.8985  -31.5351   34.2920 C   0  0  0  0  0  0  0  0  0  0  0  0
  -26.0672  -30.2233   33.8604 C   0  0  0  0  0  0  0  0  0  0  0  0
  -32.6551  -17.4736   23.4828 C   0  0  0  0  0  0  0  0  0  0  0  0
  -23.0764   -9.8734   19.9274 C   0  0  0  0  0  0  0  0  0  0  0  0
  -23.8428   -9.8595   22.2186 C   0  0  0  0  0  0  0  0  0  0  0  0
  -25.6526  -32.5467   33.3646 C   0  0  0  0  0  0  0  0  0  0  0  0
  -25.9889  -29.9222   32.5011 C   0  0  0  0  0  0  0  0  0  0  0  0
  -29.2034  -25.6739   29.4805 C   0  0  0  0  0  0  0  0  0  0  0  0
  -31.8609  -18.3331   24.2417 C   0  0  0  0  0  0  0  0  0  0  0  0
  -32.0628  -16.5986   22.5721 C   0  0  0  0  0  0  0  0  0  0  0  0
  -22.3347   -8.7170   20.1685 C   0  0  0  0  0  0  0  0  0  0  0  0
  -23.1010   -8.7031   22.4597 C   0  0  0  0  0  0  0  0  0  0  0  0
  -28.8970  -24.3737   29.0814 C   0  0  0  0  0  0  0  0  0  0  0  0
  -19.8756   -7.8955   23.0637 C   0  0  0  0  0  0  0  0  0  0  0  0
  -19.1220   -7.8435   24.2363 C   0  0  0  0  0  0  0  0  0  0  0  0
  -28.2782  -25.1957   26.8995 C   0  0  0  0  0  0  0  0  0  0  0  0
  -20.3679   -5.9007   24.9508 C   0  0  0  0  0  0  0  0  0  0  0  0
  -23.8305  -10.4447   20.9525 C   0  0  0  0  0  0  0  0  0  0  0  0
  -24.1689  -12.9713   20.8555 C   0  0  0  0  0  0  0  0  0  0  0  0
  -25.5809  -32.2594   31.9923 C   0  0  0  0  0  0  0  0  0  0  0  0
  -29.0389  -26.7480   28.5940 C   0  0  0  0  0  0  0  0  0  0  0  0
  -25.7405  -30.9307   31.5546 C   0  0  0  0  0  0  0  0  0  0  0  0
  -28.5857  -26.5082   27.2890 C   0  0  0  0  0  0  0  0  0  0  0  0
  -30.4744  -18.3176   24.0902 C   0  0  0  0  0  0  0  0  0  0  0  0
  -30.6763  -16.5831   22.4205 C   0  0  0  0  0  0  0  0  0  0  0  0
  -22.3470   -8.1319   21.4347 C   0  0  0  0  0  0  0  0  0  0  0  0
  -28.4316  -24.1347   27.7917 C   0  0  0  0  0  0  0  0  0  0  0  0
  -20.8753   -6.9501   22.8346 C   0  0  0  0  0  0  0  0  0  0  0  0
  -19.3682   -6.8461   25.1799 C   0  0  0  0  0  0  0  0  0  0  0  0
  -21.1215   -5.9527   23.7782 C   0  0  0  0  0  0  0  0  0  0  0  0
  -29.8821  -17.4426   23.1795 C   0  0  0  0  0  0  0  0  0  0  0  0
  -24.5974  -11.6389   20.7039 C   0  0  0  0  0  0  0  0  0  0  0  0
  -25.2591  -13.7256   20.4963 C   0  0  0  0  0  0  0  0  0  0  0  0
  -29.1230  -22.1163   26.8332 C   0  0  0  0  0  0  0  0  0  1  0  0
  -22.8989  -13.4815   21.2829 C   0  0  0  0  0  0  0  0  0  0  0  0
  -28.9392  -20.8592   26.4120 C   0  0  0  0  0  0  0  0  0  0  0  0
  -30.0933  -20.1195   25.8043 C   0  0  0  0  0  0  0  0  0  0  0  0
  -27.2523  -29.3768   28.5625 C   0  0  0  0  0  0  0  0  0  0  0  0
  -28.9814  -30.0506   25.9020 C   0  0  0  0  0  0  0  0  0  0  0  0
  -30.8583  -28.8945   23.2966 C   0  0  0  0  0  0  0  0  0  0  0  0
  -30.7244  -14.7764   20.6655 C   0  0  0  0  0  0  0  0  0  0  0  0
  -25.2661  -33.3787   31.0318 C   0  0  0  0  0  0  0  0  0  0  0  0
  -29.3993  -28.1413   29.0314 C   0  0  0  0  0  0  0  0  0  0  0  0
  -28.4110  -27.6242   26.2926 C   0  0  0  0  0  0  0  0  0  0  0  0
  -25.5705  -33.0355   29.5758 C   0  0  0  0  0  0  0  0  0  0  0  0
  -29.6063  -12.3838   18.2776 C   0  0  0  0  0  0  0  0  0  0  0  0
  -25.0263  -31.6536   29.2280 C   0  0  0  0  0  0  0  0  0  0  0  0
  -28.1683  -12.0863   18.7084 C   0  0  0  0  0  0  0  0  0  0  0  0
  -30.5245  -12.6023   19.4787 C   0  0  0  0  0  0  0  0  0  0  0  0
  -28.6206  -13.3112   20.8722 C   0  0  0  0  0  0  0  0  0  0  0  0
  -25.6873  -30.5683   30.0863 C   0  0  1  0  0  0  0  0  0  0  0  0
  -28.7049  -29.2236   28.2104 C   0  0  1  0  0  0  0  0  0  0  0  0
  -27.6447  -13.1479   19.6955 C   0  0  2  0  0  0  0  0  0  0  0  0
  -32.1039  -29.6804   21.2648 C   0  0  0  0  0  0  0  0  0  0  0  0
  -26.3356  -30.4349   24.4316 C   0  0  0  0  0  0  0  0  0  0  0  0
  -27.5919  -30.2709   22.2722 C   0  0  0  0  0  0  0  0  0  0  0  0
  -28.0960  -32.1198   23.8691 C   0  0  0  0  0  0  0  0  0  0  0  0
  -33.4294  -27.8517   24.3266 C   0  0  0  0  0  0  0  0  0  0  0  0
  -28.8292  -29.7655   24.4273 C   0  0  1  0  0  0  0  0  0  0  0  0
  -32.1995  -29.3426   22.7445 C   0  0  2  0  0  0  0  0  0  0  0  0
  -27.7145  -30.6268   23.7692 C   0  0  0  0  0  0  0  0  0  0  0  0
  -25.8612  -11.5487   20.2812 N   0  0  0  0  0  0  0  0  0  0  0  0
  -26.2361  -12.8339   20.1640 N   0  0  0  0  0  0  0  0  0  0  0  0
  -28.7707  -28.9697   26.7698 N   0  0  0  0  0  0  0  0  0  0  0  0
  -29.9668  -13.6241   20.3675 N   0  0  0  0  0  0  0  0  0  0  0  0
  -25.4676  -15.0579   20.4354 N   0  0  0  0  0  0  0  0  0  0  0  0
  -21.8891  -12.5678   21.6144 N   0  0  0  0  0  0  0  0  0  0  0  0
  -29.6714  -19.1915   24.8621 N   0  0  0  0  0  0  0  0  0  0  0  0
  -30.0782  -15.6928   21.4945 N   0  0  0  0  0  0  0  0  0  0  0  0
  -27.0135  -30.2694   29.5899 N   0  0  0  0  0  0  0  0  0  0  0  0
  -30.1512  -29.9473   23.8378 N   0  0  0  0  0  0  0  0  0  0  0  0
  -33.2160  -28.2665   22.9162 N   0  3  0  0  0  0  0  0  0  0  0  0
  -22.6613  -14.7112   21.3526 O   0  0  0  0  0  0  0  0  0  0  0  0
  -31.2460  -20.3590   26.1475 O   0  0  0  0  0  0  0  0  0  0  0  0
  -26.4103  -28.7339   27.9465 O   0  0  0  0  0  0  0  0  0  0  0  0
  -29.2835  -31.1886   26.2699 O   0  0  0  0  0  0  0  0  0  0  0  0
  -30.4746  -27.7279   23.2490 O   0  0  0  0  0  0  0  0  0  0  0  0
  -31.8520  -14.9510   20.1963 O   0  0  0  0  0  0  0  0  0  0  0  0
  -27.7249  -20.2116   26.5159 O   0  0  0  0  0  0  0  0  0  0  0  0
  -21.6231   -7.0036   21.6703 O   0  0  0  0  0  0  0  0  0  0  0  0
  -28.1312  -22.8667   27.3997 O   0  0  0  0  0  0  0  0  0  1  0  0
  -18.6455   -6.7972   26.3066 F   0  0  0  0  0  0  0  0  0  0  0  0
  -22.0813   -5.0424   23.5642 F   0  0  0  0  0  0  0  0  0  0  0  0
  -28.5480  -17.4271   23.0345 F   0  0  0  0  0  0  0  0  0  0  0  0
  1  2  1  0  0  0  0
  1  6  2  0  0  0  0
  2  7  2  0  0  0  0
  3  9  2  0  0  0  0
  3 10  1  0  0  0  0
  4 11  2  0  0  0  0
  4 18  1  0  0  0  0
  5 12  1  0  0  0  0
  5 18  2  0  0  0  0
  6 20  1  0  0  0  0
  7 22  1  0  0  0  0
  8 13  2  0  0  0  0
  8 21  1  0  0  0  0
  9 24  1  0  0  0  0
 10 25  2  0  0  0  0
 11 26  1  0  0  0  0
 12 26  2  0  0  0  0
 13 27  1  0  0  0  0
 14 15  2  0  0  0  0
 14 28  1  0  0  0  0
 15 29  1  0  0  0  0
 16 23  1  0  0  0  0
 16 27  2  0  0  0  0
 17 29  2  0  0  0  0
 17 30  1  0  0  0  0
 18 32  1  0  0  0  0
 19 32  1  0  0  0  0
 19 33  2  0  0  0  0
 19 35  1  0  0  0  0
 20 22  2  0  0  0  0
 20 42  1  0  0  0  0
 21 23  2  0  0  0  0
 21 43  1  0  0  0  0
 22 51  1  0  0  0  0
 23 44  1  0  0  0  0
 24 31  2  0  0  0  0
 24 68  1  0  0  0  0
 25 31  1  0  0  0  0
 25 69  1  0  0  0  0
 26 80  1  0  0  0  0
 27 81  1  0  0  0  0
 28 30  2  0  0  0  0
 28 80  1  0  0  0  0
 29 82  1  0  0  0  0
 30 83  1  0  0  0  0
 31 84  1  0  0  0  0
 32 62  2  0  0  0  0
 33 63  1  0  0  0  0
 33 66  1  0  0  0  0
 34 36  2  0  0  0  0
 34 81  1  0  0  0  0
 35 67  1  0  0  0  0
 35 73  2  0  0  0  0
 36 37  1  0  0  0  0
 36 79  1  0  0  0  0
 37 68  1  0  0  0  0
 37 74  2  0  0  0  0
 38 52  1  0  0  0  0
 38 70  1  0  0  0  0
 38 75  2  0  0  0  0
 39 59  1  0  0  0  0
 39 64  1  0  0  0  0
 39 76  2  0  0  0  0
 40 60  1  0  0  0  0
 40 71  1  0  0  0  0
 40 77  2  0  0  0  0
 41 65  1  0  0  0  0
 41 69  1  0  0  0  0
 41 78  2  0  0  0  0
 42 45  1  0  0  0  0
 43 52  1  0  0  0  0
 44 64  1  0  0  0  0
 45 47  1  0  0  0  0
 46 48  1  0  0  0  0
 46 49  1  0  0  0  0
 47 51  1  0  0  0  0
 48 53  1  0  0  0  0
 49 65  1  0  0  0  0
 50 53  1  0  0  0  0
 50 65  1  0  0  0  0
 51 70  1  0  0  0  0
 52 64  1  0  0  0  0
 53 63  1  0  0  0  0
 54 60  1  0  0  0  0
 55 61  1  0  0  0  0
 56 61  1  0  0  0  0
 57 61  1  0  0  0  0
 58 72  1  0  0  0  0
 59 61  1  0  0  0  0
 59 71  1  0  0  0  0
 60 72  1  0  0  0  0
 62 63  1  0  0  0  0
M  CHG  1  72   1
M  ISO  4  34 101  41 100  69 100  81 101
M  END
> <Batch ID>
0088

> <Smiles>
CNC(C)C(=O)NC(C(=O)N1Cc2cc([101O:1][101CH2:1]C(=O)C(=O)Nc3cccc([100NH:0][100C:0](=O)N4CCCC(n5nc(-c6ccc(Oc7ccc(F)cc7F)cc6)c(C(N)=O)c5N)C4)c3F)ccc2CC1C(=O)NC1CCCc2ccccc21)C(C)(C)C

> <Shape>
0.199

> <Color>
0.188

> <Negative vol penalty>
0.000

$$$$

  -OEChem-04052300233D

 86 95  0     1  0  0  0  0  0999 V2000
  -16.1580  -29.0838   26.5788 C   0  0  0  0  0  0  0  0  0  0  0  0
  -16.6573  -27.7861   26.5337 C   0  0  0  0  0  0  0  0  0  0  0  0
  -22.8716  -15.4876   20.7760 C   0  0  0  0  0  0  0  0  0  0  0  0
  -22.3513  -13.8929   19.0372 C   0  0  0  0  0  0  0  0  0  0  0  0
  -16.4488  -29.9776   25.5490 C   0  0  0  0  0  0  0  0  0  0  0  0
  -17.4469  -27.3811   25.4581 C   0  0  0  0  0  0  0  0  0  0  0  0
  -22.9417  -23.0646   23.8796 C   0  0  0  0  0  0  0  0  0  0  0  0
  -29.8340  -17.1619   18.4052 C   0  0  0  0  0  0  0  0  0  0  0  0
  -21.7420  -16.2305   20.4327 C   0  0  0  0  0  0  0  0  0  0  0  0
  -21.2217  -14.6358   18.6939 C   0  0  0  0  0  0  0  0  0  0  0  0
  -23.2929  -22.0491   22.9913 C   0  0  0  0  0  0  0  0  0  0  0  0
  -19.1924  -18.7392   19.7773 C   0  0  0  0  0  0  0  0  0  0  0  0
  -29.1593  -18.1187   17.6470 C   0  0  0  0  0  0  0  0  0  0  0  0
  -19.3299  -20.1238   19.6798 C   0  0  0  0  0  0  0  0  0  0  0  0
  -23.7956  -23.7030   21.3087 C   0  0  0  0  0  0  0  0  0  0  0  0
  -28.7710  -17.9987   20.4070 C   0  0  0  0  0  0  0  0  0  0  0  0
  -26.4517  -21.4498   21.6113 C   0  0  0  0  0  0  0  0  0  0  0  0
  -20.9881  -19.8372   17.9463 C   0  0  0  0  0  0  0  0  0  0  0  0
  -23.1762  -14.3189   20.0782 C   0  0  0  0  0  0  0  0  0  0  0  0
  -24.4198  -12.5039   21.3694 C   0  0  0  0  0  0  0  0  0  0  0  0
  -17.2504  -29.5863   24.4651 C   0  0  0  0  0  0  0  0  0  0  0  0
  -23.0045  -24.4088   23.4849 C   0  0  0  0  0  0  0  0  0  0  0  0
  -17.7477  -28.2701   24.4122 C   0  0  0  0  0  0  0  0  0  0  0  0
  -23.4471  -24.7338   22.1947 C   0  0  0  0  0  0  0  0  0  0  0  0
  -28.0964  -18.9556   19.6487 C   0  0  0  0  0  0  0  0  0  0  0  0
  -29.6398  -17.1019   19.7852 C   0  0  0  0  0  0  0  0  0  0  0  0
  -20.9171  -15.8046   19.3917 C   0  0  0  0  0  0  0  0  0  0  0  0
  -23.7172  -22.3680   21.7047 C   0  0  0  0  0  0  0  0  0  0  0  0
  -19.9528  -17.9035   18.9592 C   0  0  0  0  0  0  0  0  0  0  0  0
  -25.3814  -20.9645   20.8198 C   0  0  0  0  0  0  0  0  0  1  0  0
  -20.2277  -20.6728   18.7643 C   0  0  0  0  0  0  0  0  0  0  0  0
  -28.2905  -19.0156   18.2687 C   0  0  0  0  0  0  0  0  0  0  0  0
  -20.8507  -18.4525   18.0437 C   0  0  0  0  0  0  0  0  0  0  0  0
  -24.3432  -13.5514   20.4320 C   0  0  0  0  0  0  0  0  0  0  0  0
  -25.7350  -12.1093   21.3367 C   0  0  0  0  0  0  0  0  0  0  0  0
  -27.5801  -20.7453   21.2537 C   0  0  0  0  0  0  0  0  0  0  0  0
  -25.8885  -19.9785   20.0023 C   0  0  0  0  0  0  0  0  0  0  0  0
  -23.3938  -11.9382   22.1959 C   0  0  0  0  0  0  0  0  0  0  0  0
  -20.8854  -26.7580   23.1787 C   0  0  0  0  0  0  0  0  0  0  0  0
  -23.5288  -28.5386   22.5756 C   0  0  0  0  0  0  0  0  0  0  0  0
  -26.7739  -28.6429   21.5242 C   0  0  0  0  0  0  0  0  0  0  0  0
  -30.6959  -14.8612   20.0200 C   0  0  0  0  0  0  0  0  0  0  0  0
  -17.4986  -30.5734   23.3521 C   0  0  0  0  0  0  0  0  0  0  0  0
  -22.6478  -25.4937   24.4637 C   0  0  0  0  0  0  0  0  0  0  0  0
  -23.5515  -26.1622   21.7286 C   0  0  0  0  0  0  0  0  0  0  0  0
  -18.6524  -30.1787   22.4339 C   0  0  0  0  0  0  0  0  0  0  0  0
  -29.5204  -11.9058   18.4303 C   0  0  0  0  0  0  0  0  0  0  0  0
  -18.5436  -28.7087   22.0415 C   0  0  0  0  0  0  0  0  0  0  0  0
  -28.0512  -11.8988   18.8511 C   0  0  0  0  0  0  0  0  0  0  0  0
  -30.0179  -13.3162   18.1121 C   0  0  0  0  0  0  0  0  0  0  0  0
  -28.3129  -14.2889   19.6191 C   0  0  0  0  0  0  0  0  0  0  0  0
  -18.6283  -27.8008   23.2745 C   0  0  1  0  0  0  0  0  0  0  0  0
  -22.2584  -26.8044   23.7872 C   0  0  1  0  0  0  0  0  0  0  0  0
  -27.8012  -12.8911   20.0005 C   0  0  1  0  0  0  0  0  0  0  0  0
  -28.6575  -30.2465   21.1027 C   0  0  0  0  0  0  0  0  0  0  0  0
  -22.1768  -29.4445   19.9946 C   0  0  0  0  0  0  0  0  0  0  0  0
  -24.4084  -30.2426   19.1877 C   0  0  0  0  0  0  0  0  0  0  0  0
  -23.3878  -31.2520   21.2279 C   0  0  0  0  0  0  0  0  0  0  0  0
  -30.8886  -16.5090   21.8701 C   0  0  0  0  0  0  0  0  0  0  0  0
  -28.4995  -27.3256   23.5356 C   0  0  0  0  0  0  0  0  0  0  0  0
  -24.3137  -28.9019   21.3382 C   0  0  1  0  0  0  0  0  0  0  0  0
  -28.0017  -29.3158   22.1108 C   0  0  2  0  0  0  0  0  0  0  0  0
  -23.5680  -29.9332   20.4450 C   0  0  0  0  0  0  0  0  0  0  0  0
  -25.5164  -13.8062   19.8465 N   0  0  0  0  0  0  0  0  0  0  0  0
  -27.2259  -19.8538   20.2748 N   0  0  0  0  0  0  0  0  0  0  0  0
  -26.3426  -12.9132   20.4176 N   0  0  0  0  0  0  0  0  0  0  0  0
  -23.1855  -27.1870   22.7203 N   0  0  0  0  0  0  0  0  0  0  0  0
  -29.7213  -14.2356   19.2198 N   0  0  0  0  0  0  0  0  0  0  0  0
  -26.4193  -11.1565   22.0047 N   0  0  0  0  0  0  0  0  0  0  0  0
  -22.0972  -12.4624   22.1041 N   0  0  0  0  0  0  0  0  0  0  0  0
  -20.0009  -27.6741   23.7154 N   0  0  0  0  0  0  0  0  0  0  0  0
  -25.6227  -29.3491   21.8018 N   0  0  0  0  0  0  0  0  0  0  0  0
  -30.3386  -16.1112   20.5697 N   0  0  0  0  0  0  0  0  0  0  0  0
  -29.0031  -28.2938   22.5277 N   0  3  0  0  0  0  0  0  0  0  0  0
  -23.6237  -11.0068   23.0040 O   0  0  0  0  0  0  0  0  0  0  0  0
  -20.6465  -25.9519   22.2872 O   0  0  0  0  0  0  0  0  0  0  0  0
  -23.2374  -29.4204   23.3875 O   0  0  0  0  0  0  0  0  0  0  0  0
  -26.8309  -27.5974   20.8806 O   0  0  0  0  0  0  0  0  0  0  0  0
  -31.7906  -14.3322   20.2475 O   0  0  0  0  0  0  0  0  0  0  0  0
  -28.8260  -20.8297   21.7037 O   0  0  0  0  0  0  0  0  0  0  0  0
  -25.2921  -19.2249   19.0856 O   0  0  0  0  0  0  0  0  0  0  0  0
  -19.8146  -16.5291   19.0566 O   0  0  0  0  0  0  0  0  0  0  0  0
  -24.0600  -21.3787   20.8355 O   0  0  0  0  0  0  0  0  0  1  0  0
  -20.3585  -22.0025   18.6698 F   0  0  0  0  0  0  0  0  0  0  0  0
  -27.6480  -19.9299   17.5275 F   0  0  0  0  0  0  0  0  0  0  0  0
  -21.5831  -17.6548   17.2544 F   0  0  0  0  0  0  0  0  0  0  0  0
  1  2  1  0  0  0  0
  1  5  2  0  0  0  0
  2  6  2  0  0  0  0
  3  9  2  0  0  0  0
  3 19  1  0  0  0  0
  4 10  1  0  0  0  0
  4 19  2  0  0  0  0
  5 21  1  0  0  0  0
  6 23  1  0  0  0  0
  7 11  2  0  0  0  0
  7 22  1  0  0  0  0
  8 13  2  0  0  0  0
  8 26  1  0  0  0  0
  9 27  1  0  0  0  0
 10 27  2  0  0  0  0
 11 28  1  0  0  0  0
 12 14  2  0  0  0  0
 12 29  1  0  0  0  0
 13 32  1  0  0  0  0
 14 31  1  0  0  0  0
 15 24  1  0  0  0  0
 15 28  2  0  0  0  0
 16 25  1  0  0  0  0
 16 26  2  0  0  0  0
 17 30  1  0  0  0  0
 17 36  2  0  0  0  0
 18 31  2  0  0  0  0
 18 33  1  0  0  0  0
 19 34  1  0  0  0  0
 20 34  1  0  0  0  0
 20 35  2  0  0  0  0
 20 38  1  0  0  0  0
 21 23  2  0  0  0  0
 21 43  1  0  0  0  0
 22 24  2  0  0  0  0
 22 44  1  0  0  0  0
 23 52  1  0  0  0  0
 24 45  1  0  0  0  0
 25 32  2  0  0  0  0
 25 65  1  0  0  0  0
 26 73  1  0  0  0  0
 27 82  1  0  0  0  0
 28 83  1  0  0  0  0
 29 33  2  0  0  0  0
 29 82  1  0  0  0  0
 30 37  2  0  0  0  0
 30 83  1  0  0  0  0
 31 84  1  0  0  0  0
 32 85  1  0  0  0  0
 33 86  1  0  0  0  0
 34 64  2  0  0  0  0
 35 66  1  0  0  0  0
 35 69  1  0  0  0  0
 36 65  1  0  0  0  0
 36 80  1  0  0  0  0
 37 65  1  0  0  0  0
 37 81  1  0  0  0  0
 38 70  1  0  0  0  0
 38 75  2  0  0  0  0
 39 53  1  0  0  0  0
 39 71  1  0  0  0  0
 39 76  2  0  0  0  0
 40 61  1  0  0  0  0
 40 67  1  0  0  0  0
 40 77  2  0  0  0  0
 41 62  1  0  0  0  0
 41 72  1  0  0  0  0
 41 78  2  0  0  0  0
 42 68  1  0  0  0  0
 42 73  1  0  0  0  0
 42 79  2  0  0  0  0
 43 46  1  0  0  0  0
 44 53  1  0  0  0  0
 45 67  1  0  0  0  0
 46 48  1  0  0  0  0
 47 49  1  0  0  0  0
 47 50  1  0  0  0  0
 48 52  1  0  0  0  0
 49 54  1  0  0  0  0
 50 68  1  0  0  0  0
 51 54  1  0  0  0  0
 51 68  1  0  0  0  0
 52 71  1  0  0  0  0
 53 67  1  0  0  0  0
 54 66  1  0  0  0  0
 55 62  1  0  0  0  0
 56 63  1  0  0  0  0
 57 63  1  0  0  0  0
 58 63  1  0  0  0  0
 59 73  1  0  0  0  0
 60 74  1  0  0  0  0
 61 63  1  0  0  0  0
 61 72  1  0  0  0  0
 62 74  1  0  0  0  0
 64 66  1  0  0  0  0
M  CHG  1  74   1
M  ISO  4  30 101  42 100  73 100  83 101
M  END
> <Batch ID>
0088

> <Smiles>
CNC(C)C(=O)NC(C(=O)N1Cc2cc([101O:1][101CH:1]3CC(=O)N(c4cc([100N:0](C)[100C:0](=O)N5CCCC(n6nc(-c7ccc(Oc8ccc(F)cc8F)cc7)c(C(N)=O)c6N)C5)ccc4F)C3=O)ccc2CC1C(=O)NC1CCCc2ccccc21)C(C)(C)C

> <Shape>
0.251

> <Color>
0.096

> <Negative vol penalty>
0.000

$$$$

  -OEChem-04052300233D

 84 92  0     1  0  0  0  0  0999 V2000
  -33.4212  -20.1633   21.6510 C   0  0  0  0  0  0  0  0  0  0  0  0
  -32.4742  -20.5951   22.5741 C   0  0  0  0  0  0  0  0  0  0  0  0
  -30.3156  -27.3292   19.6311 C   0  0  0  0  0  0  0  0  0  0  0  0
  -30.0676  -27.0907   22.0225 C   0  0  0  0  0  0  0  0  0  0  0  0
  -33.0175  -19.7456   20.3835 C   0  0  0  0  0  0  0  0  0  0  0  0
  -31.1230  -20.6105   22.2299 C   0  0  0  0  0  0  0  0  0  0  0  0
  -24.6206  -19.7104   25.0979 C   0  0  0  0  0  0  0  0  0  0  0  0
  -31.7030  -27.3000   19.7720 C   0  0  0  0  0  0  0  0  0  0  0  0
  -31.4550  -27.0614   22.1634 C   0  0  0  0  0  0  0  0  0  0  0  0
  -23.3870  -20.3529   25.1929 C   0  0  0  0  0  0  0  0  0  0  0  0
  -33.9525  -24.8228   21.7488 C   0  0  0  0  0  0  0  0  0  0  0  0
  -34.4966  -23.8529   22.5907 C   0  0  0  0  0  0  0  0  0  0  0  0
  -20.2893  -27.0224   22.9614 C   0  0  0  0  0  0  0  0  0  0  0  0
  -22.7985  -19.5340   23.0015 C   0  0  0  0  0  0  0  0  0  0  0  0
  -19.4023  -28.9949   21.8846 C   0  0  0  0  0  0  0  0  0  0  0  0
  -35.4715  -25.5884   23.9600 C   0  0  0  0  0  0  0  0  0  0  0  0
  -29.4979  -27.2246   20.7564 C   0  0  0  0  0  0  0  0  0  0  0  0
  -19.0493  -26.3961   22.8355 C   0  0  0  0  0  0  0  0  0  0  0  0
  -27.2065  -26.1570   20.4132 C   0  0  0  0  0  0  0  0  0  0  0  0
  -31.6598  -19.7468   20.0268 C   0  0  0  0  0  0  0  0  0  0  0  0
  -24.9574  -18.9826   23.9475 C   0  0  0  0  0  0  0  0  0  0  0  0
  -30.7009  -20.1937   20.9560 C   0  0  0  0  0  0  0  0  0  0  0  0
  -24.0360  -18.8810   22.8954 C   0  0  0  0  0  0  0  0  0  0  0  0
  -20.4657  -28.3218   22.4860 C   0  0  0  0  0  0  0  0  0  0  0  0
  -18.1623  -28.3686   21.7587 C   0  0  0  0  0  0  0  0  0  0  0  0
  -17.9858  -27.0691   22.2342 C   0  0  0  0  0  0  0  0  0  0  0  0
  -32.2727  -27.1661   21.0382 C   0  0  0  0  0  0  0  0  0  0  0  0
  -22.4769  -20.2672   24.1434 C   0  0  0  0  0  0  0  0  0  0  0  0
  -34.1680  -26.1755   22.0124 C   0  0  0  0  0  0  0  0  0  0  0  0
  -35.2560  -24.2357   23.6964 C   0  0  0  0  0  0  0  0  0  0  0  0
  -34.9274  -26.5583   23.1180 C   0  0  0  0  0  0  0  0  0  0  0  0
  -28.0646  -27.2553   20.6115 C   0  0  0  0  0  0  0  0  0  0  0  0
  -25.9518  -26.7107   20.3392 C   0  0  0  0  0  0  0  0  0  0  0  0
  -20.0889  -22.9497   23.7870 C   0  0  0  0  0  0  0  0  0  0  0  0
  -21.1809  -22.1801   23.7803 C   0  0  0  0  0  0  0  0  0  1  0  0
  -18.8968  -25.0124   23.3541 C   0  0  0  0  0  0  0  0  0  0  0  0
  -27.5160  -24.7612   20.3056 C   0  0  0  0  0  0  0  0  0  0  0  0
  -27.2236  -19.2133   21.7306 C   0  0  0  0  0  0  0  0  0  0  0  0
  -25.9616  -16.4065   20.7051 C   0  0  0  0  0  0  0  0  0  0  0  0
  -23.2676  -14.3153   20.5798 C   0  0  0  0  0  0  0  0  0  0  0  0
  -22.0691  -30.2432   22.1964 C   0  0  0  0  0  0  0  0  0  0  0  0
  -31.2761  -19.3310   18.6288 C   0  0  0  0  0  0  0  0  0  0  0  0
  -26.2815  -18.2730   23.8717 C   0  0  0  0  0  0  0  0  0  0  0  0
  -24.3411  -18.0952   21.6473 C   0  0  0  0  0  0  0  0  0  0  0  0
  -29.7892  -19.0235   18.4712 C   0  0  0  0  0  0  0  0  0  0  0  0
  -24.5022  -31.5445   19.9461 C   0  0  0  0  0  0  0  0  0  0  0  0
  -28.9463  -20.1153   19.1227 C   0  0  0  0  0  0  0  0  0  0  0  0
  -25.5753  -30.4543   19.9023 C   0  0  0  0  0  0  0  0  0  0  0  0
  -23.8992  -31.6910   21.3421 C   0  0  0  0  0  0  0  0  0  0  0  0
  -24.4637  -29.3560   21.8885 C   0  0  0  0  0  0  0  0  0  0  0  0
  -29.2235  -20.2015   20.6285 C   0  0  1  0  0  0  0  0  0  0  0  0
  -26.7247  -17.9865   22.4403 C   0  0  1  0  0  0  0  0  0  0  0  0
  -25.0545  -29.1270   20.4878 C   0  0  2  0  0  0  0  0  0  0  0  0
  -22.5271  -12.1110   19.6364 C   0  0  0  0  0  0  0  0  0  0  0  0
  -25.6860  -17.6822   17.9471 C   0  0  0  0  0  0  0  0  0  0  0  0
  -24.1159  -15.8337   17.3258 C   0  0  0  0  0  0  0  0  0  0  0  0
  -26.4803  -15.3109   17.9250 C   0  0  0  0  0  0  0  0  0  0  0  0
  -22.7663  -13.1989   23.2745 C   0  0  0  0  0  0  0  0  0  0  0  0
  -24.8681  -16.0150   19.7408 C   0  0  1  0  0  0  0  0  0  0  0  0
  -23.1372  -12.8242   20.8330 C   0  0  2  0  0  0  0  0  0  0  0  0
  -25.2823  -16.2269   18.2573 C   0  0  0  0  0  0  0  0  0  0  0  0
  -27.4103  -28.4187   20.6602 N   0  0  0  0  0  0  0  0  0  0  0  0
  -26.1277  -28.0546   20.4913 N   0  0  0  0  0  0  0  0  0  0  0  0
  -25.6513  -17.4244   21.6180 N   0  0  0  0  0  0  0  0  0  0  0  0
  -23.4233  -30.3948   21.8303 N   0  0  0  0  0  0  0  0  0  0  0  0
  -17.0987  -29.0706   21.1475 N   0  0  0  0  0  0  0  0  0  0  0  0
  -16.7277  -26.4334   22.1079 N   0  0  0  0  0  0  0  0  0  0  0  0
  -24.7261  -26.1742   20.1593 N   0  0  0  0  0  0  0  0  0  0  0  0
  -28.8566  -24.3645   20.4043 N   0  0  0  0  0  0  0  0  0  0  0  0
  -21.7253  -28.9581   22.6145 N   0  0  0  0  0  0  0  0  0  0  0  0
  -20.0445  -24.2283   23.3242 N   0  0  0  0  0  0  0  0  0  0  0  0
  -28.5436  -19.1335   21.3295 N   0  0  0  0  0  0  0  0  0  0  0  0
  -24.5067  -14.6403   20.0698 N   0  0  0  0  0  0  0  0  0  0  0  0
  -22.2722  -12.5741   22.0204 N   0  3  0  0  0  0  0  0  0  0  0  0
  -17.8069  -24.6536   23.7926 O   0  0  0  0  0  0  0  0  0  0  0  0
  -26.6317  -23.8931   20.1109 O   0  0  0  0  0  0  0  0  0  0  0  0
  -26.4667  -20.1614   21.5583 O   0  0  0  0  0  0  0  0  0  0  0  0
  -27.0486  -15.8256   20.6550 O   0  0  0  0  0  0  0  0  0  0  0  0
  -22.3596  -15.1116   20.8079 O   0  0  0  0  0  0  0  0  0  0  0  0
  -21.2670  -31.1772   22.1172 O   0  0  0  0  0  0  0  0  0  0  0  0
  -33.6265  -27.1373   21.1760 O   0  0  0  0  0  0  0  0  0  0  0  0
  -21.2723  -20.8940   24.2332 O   0  0  0  0  0  0  0  0  0  1  0  0
  -35.7771  -23.3042   24.5057 F   0  0  0  0  0  0  0  0  0  0  0  0
  -35.1368  -27.8563   23.3770 F   0  0  0  0  0  0  0  0  0  0  0  0
  1  2  1  0  0  0  0
  1  5  2  0  0  0  0
  2  6  2  0  0  0  0
  3  8  2  0  0  0  0
  3 17  1  0  0  0  0
  4  9  1  0  0  0  0
  4 17  2  0  0  0  0
  5 20  1  0  0  0  0
  6 22  1  0  0  0  0
  7 10  2  0  0  0  0
  7 21  1  0  0  0  0
  8 27  1  0  0  0  0
  9 27  2  0  0  0  0
 10 28  1  0  0  0  0
 11 12  2  0  0  0  0
 11 29  1  0  0  0  0
 12 30  1  0  0  0  0
 13 18  1  0  0  0  0
 13 24  2  0  0  0  0
 14 23  1  0  0  0  0
 14 28  2  0  0  0  0
 15 24  1  0  0  0  0
 15 25  2  0  0  0  0
 16 30  2  0  0  0  0
 16 31  1  0  0  0  0
 17 32  1  0  0  0  0
 18 26  2  0  0  0  0
 18 36  1  0  0  0  0
 19 32  1  0  0  0  0
 19 33  2  0  0  0  0
 19 37  1  0  0  0  0
 20 22  2  0  0  0  0
 20 42  1  0  0  0  0
 21 23  2  0  0  0  0
 21 43  1  0  0  0  0
 22 51  1  0  0  0  0
 23 44  1  0  0  0  0
 24 70  1  0  0  0  0
 25 26  1  0  0  0  0
 25 66  1  0  0  0  0
 26 67  1  0  0  0  0
 27 81  1  0  0  0  0
 28 82  1  0  0  0  0
 29 31  2  0  0  0  0
 29 81  1  0  0  0  0
 30 83  1  0  0  0  0
 31 84  1  0  0  0  0
 32 62  2  0  0  0  0
 33 63  1  0  0  0  0
 33 68  1  0  0  0  0
 34 35  2  0  0  0  0
 34 71  1  0  0  0  0
 35 82  1  0  0  0  0
 36 71  1  0  0  0  0
 36 75  2  0  0  0  0
 37 69  1  0  0  0  0
 37 76  2  0  0  0  0
 38 52  1  0  0  0  0
 38 72  1  0  0  0  0
 38 77  2  0  0  0  0
 39 59  1  0  0  0  0
 39 64  1  0  0  0  0
 39 78  2  0  0  0  0
 40 60  1  0  0  0  0
 40 73  1  0  0  0  0
 40 79  2  0  0  0  0
 41 65  1  0  0  0  0
 41 70  1  0  0  0  0
 41 80  2  0  0  0  0
 42 45  1  0  0  0  0
 43 52  1  0  0  0  0
 44 64  1  0  0  0  0
 45 47  1  0  0  0  0
 46 48  1  0  0  0  0
 46 49  1  0  0  0  0
 47 51  1  0  0  0  0
 48 53  1  0  0  0  0
 49 65  1  0  0  0  0
 50 53  1  0  0  0  0
 50 65  1  0  0  0  0
 51 72  1  0  0  0  0
 52 64  1  0  0  0  0
 53 63  1  0  0  0  0
 54 60  1  0  0  0  0
 55 61  1  0  0  0  0
 56 61  1  0  0  0  0
 57 61  1  0  0  0  0
 58 74  1  0  0  0  0
 59 61  1  0  0  0  0
 59 73  1  0  0  0  0
 60 74  1  0  0  0  0
 62 63  1  0  0  0  0
M  CHG  1  74   1
M  ISO  4  35 101  41 100  70 100  82 101
M  END
> <Batch ID>
0088

> <Smiles>
CNC(C)C(=O)NC(C(=O)N1Cc2cc([101O:1][101CH:1]=CNC(=O)c3cc([100NH:0][100C:0](=O)N4CCCC(n5nc(-c6ccc(Oc7ccc(F)cc7F)cc6)c(C(N)=O)c5N)C4)cc(N)c3N)ccc2CC1C(=O)NC1CCCc2ccccc21)C(C)(C)C

> <Shape>
0.205

> <Color>
0.084

> <Negative vol penalty>
0.000

$$$$

  -OEChem-04052300233D

 86 95  0     1  0  0  0  0  0999 V2000
  -26.8495  -37.9393   22.2595 C   0  0  0  0  0  0  0  0  0  0  0  0
  -27.3910  -36.9636   21.4287 C   0  0  0  0  0  0  0  0  0  0  0  0
  -24.0593   -9.4238   21.8059 C   0  0  0  0  0  0  0  0  0  0  0  0
  -23.2606  -10.5522   19.8245 C   0  0  0  0  0  0  0  0  0  0  0  0
  -26.2212  -37.5708   23.4483 C   0  0  0  0  0  0  0  0  0  0  0  0
  -27.3054  -35.6187   21.7869 C   0  0  0  0  0  0  0  0  0  0  0  0
  -26.6554  -29.0999   18.8887 C   0  0  0  0  0  0  0  0  0  0  0  0
  -26.4843  -19.8763   17.0687 C   0  0  0  0  0  0  0  0  0  0  0  0
  -26.1895  -18.6177   16.5449 C   0  0  0  0  0  0  0  0  0  0  0  0
  -22.7490   -9.0802   22.1384 C   0  0  0  0  0  0  0  0  0  0  0  0
  -21.9503  -10.2085   20.1570 C   0  0  0  0  0  0  0  0  0  0  0  0
  -27.2627  -27.8451   18.9125 C   0  0  0  0  0  0  0  0  0  0  0  0
  -20.4642   -6.7717   21.1984 C   0  0  0  0  0  0  0  0  0  0  0  0
  -20.2228   -5.4619   21.6129 C   0  0  0  0  0  0  0  0  0  0  0  0
  -26.0845  -27.3203   20.9511 C   0  0  0  0  0  0  0  0  0  0  0  0
  -27.7405  -18.8396   18.8532 C   0  0  0  0  0  0  0  0  0  0  0  0
  -19.4053   -6.2834   23.7328 C   0  0  0  0  0  0  0  0  0  0  0  0
  -24.3151  -10.1599   20.6490 C   0  0  0  0  0  0  0  0  0  0  0  0
  -26.5691   -9.7726   19.5188 C   0  0  0  0  0  0  0  0  0  0  0  0
  -26.1194  -36.2200   23.8165 C   0  0  0  0  0  0  0  0  0  0  0  0
  -25.7649  -29.4790   19.9035 C   0  0  0  0  0  0  0  0  0  0  0  0
  -26.6763  -35.2318   22.9824 C   0  0  0  0  0  0  0  0  0  0  0  0
  -25.4653  -28.5794   20.9365 C   0  0  0  0  0  0  0  0  0  0  0  0
  -27.2598  -19.9873   18.2229 C   0  0  0  0  0  0  0  0  0  0  0  0
  -26.6702  -17.4699   17.1752 C   0  0  0  0  0  0  0  0  0  0  0  0
  -27.4457  -17.5808   18.3294 C   0  0  0  0  0  0  0  0  0  0  0  0
  -21.6945   -9.4725   21.3140 C   0  0  0  0  0  0  0  0  0  0  0  0
  -26.9795  -26.9562   19.9454 C   0  0  0  0  0  0  0  0  0  0  0  0
  -20.1763   -7.8374   22.0512 C   0  0  0  0  0  0  0  0  0  0  0  0
  -19.6933   -5.2177   22.8800 C   0  0  0  0  0  0  0  0  0  0  0  0
  -19.6468   -7.5932   23.3184 C   0  0  0  0  0  0  0  0  0  0  0  0
  -25.6684  -10.5156   20.3052 C   0  0  0  0  0  0  0  0  0  0  0  0
  -27.7112  -10.5352   19.4917 C   0  0  0  0  0  0  0  0  0  0  0  0
  -27.4252  -23.4568   19.3038 C   0  0  0  0  0  0  0  0  0  0  0  0
  -26.7270  -22.3481   18.6178 C   0  0  0  0  0  0  0  0  0  0  0  0
  -28.7208  -21.5360   19.4512 C   0  0  0  0  0  0  0  0  0  0  0  0
  -26.9377  -24.6969   19.3416 C   0  0  0  0  0  0  0  0  0  1  0  0
  -26.3895   -8.5064   18.8707 C   0  0  0  0  0  0  0  0  0  0  0  0
  -25.7150  -31.7744   22.1017 C   0  0  0  0  0  0  0  0  0  0  0  0
  -22.7393  -30.6193   22.6789 C   0  0  0  0  0  0  0  0  0  0  0  0
  -20.5648  -27.9952   22.4992 C   0  0  0  0  0  0  0  0  0  0  0  0
  -28.7283  -16.3876   20.1397 C   0  0  0  0  0  0  0  0  0  0  0  0
  -25.4727  -35.8735   25.1343 C   0  0  0  0  0  0  0  0  0  0  0  0
  -25.0976  -30.8259   19.8489 C   0  0  0  0  0  0  0  0  0  0  0  0
  -24.5009  -28.9304   22.0388 C   0  0  0  0  0  0  0  0  0  0  0  0
  -28.6917  -22.9745   19.9033 C   0  0  0  0  0  0  0  0  0  0  0  0
  -25.0938  -34.4000   25.2581 C   0  0  0  0  0  0  0  0  0  0  0  0
  -30.1266  -13.7548   22.0866 C   0  0  0  0  0  0  0  0  0  0  0  0
  -26.2464  -33.5120   24.8000 C   0  0  0  0  0  0  0  0  0  0  0  0
  -29.2277  -12.5562   21.7745 C   0  0  0  0  0  0  0  0  0  0  0  0
  -29.3323  -15.0581   22.1504 C   0  0  0  0  0  0  0  0  0  0  0  0
  -27.5991  -14.1364   20.6618 C   0  0  0  0  0  0  0  0  0  0  0  0
  -26.5816  -33.7606   23.3244 C   0  0  1  0  0  0  0  0  0  0  0  0
  -24.6012  -31.3024   21.2105 C   0  0  1  0  0  0  0  0  0  0  0  0
  -28.3643  -12.8101   20.5232 C   0  0  2  0  0  0  0  0  0  0  0  0
  -18.2142  -27.3409   23.0857 C   0  0  0  0  0  0  0  0  0  0  0  0
  -23.5477  -30.3507   25.6088 C   0  0  0  0  0  0  0  0  0  0  0  0
  -21.5715  -28.8506   25.9443 C   0  0  0  0  0  0  0  0  0  0  0  0
  -21.2317  -31.2197   25.2411 C   0  0  0  0  0  0  0  0  0  0  0  0
  -19.8771  -27.4833   19.6665 C   0  0  0  0  0  0  0  0  0  0  0  0
  -22.1618  -29.5553   23.5808 C   0  0  1  0  0  0  0  0  0  0  0  0
  -19.1298  -27.9076   22.0118 C   0  0  2  0  0  0  0  0  0  0  0  0
  -22.1479  -29.9879   25.0742 C   0  0  0  0  0  0  0  0  0  0  0  0
  -26.1931  -11.6621   20.7460 N   0  0  0  0  0  0  0  0  0  0  0  0
  -27.4359  -11.6452   20.2349 N   0  0  0  0  0  0  0  0  0  0  0  0
  -27.5566  -21.2445   18.7440 N   0  0  0  0  0  0  0  0  0  0  0  0
  -23.8789  -30.2615   21.9447 N   0  0  0  0  0  0  0  0  0  0  0  0
  -28.5420  -15.2336   20.9299 N   0  0  0  0  0  0  0  0  0  0  0  0
  -26.3575  -16.2050   16.6285 N   0  0  0  0  0  0  0  0  0  0  0  0
  -28.9139  -10.3577   18.9049 N   0  0  0  0  0  0  0  0  0  0  0  0
  -25.1535   -7.8586   19.0009 N   0  0  0  0  0  0  0  0  0  0  0  0
  -27.9454  -16.4292   18.9865 N   0  0  0  0  0  0  0  0  0  0  0  0
  -25.6169  -33.1029   22.4692 N   0  0  0  0  0  0  0  0  0  0  0  0
  -20.8460  -29.2319   23.0401 N   0  0  0  0  0  0  0  0  0  0  0  0
  -19.0435  -27.0307   20.8099 N   0  3  0  0  0  0  0  0  0  0  0  0
  -25.6447  -22.4327   18.0607 O   0  0  0  0  0  0  0  0  0  0  0  0
  -29.6459  -20.7716   19.7001 O   0  0  0  0  0  0  0  0  0  0  0  0
  -27.3035   -7.9577   18.2097 O   0  0  0  0  0  0  0  0  0  0  0  0
  -26.5972  -30.9910   22.4328 O   0  0  0  0  0  0  0  0  0  0  0  0
  -22.1949  -31.7248   22.6224 O   0  0  0  0  0  0  0  0  0  0  0  0
  -21.3561  -27.0587   22.4124 O   0  0  0  0  0  0  0  0  0  0  0  0
  -29.5436  -17.2606   20.4481 O   0  0  0  0  0  0  0  0  0  0  0  0
  -20.4158   -9.1372   21.6380 O   0  0  0  0  0  0  0  0  0  0  0  0
  -27.5714  -25.7311   19.9714 O   0  0  0  0  0  0  0  0  0  1  0  0
  -19.4601   -3.9600   23.2773 F   0  0  0  0  0  0  0  0  0  0  0  0
  -19.3670   -8.6129   24.1416 F   0  0  0  0  0  0  0  0  0  0  0  0
  1  2  1  0  0  0  0
  1  5  2  0  0  0  0
  2  6  2  0  0  0  0
  3 10  2  0  0  0  0
  3 18  1  0  0  0  0
  4 11  1  0  0  0  0
  4 18  2  0  0  0  0
  5 20  1  0  0  0  0
  6 22  1  0  0  0  0
  7 12  2  0  0  0  0
  7 21  1  0  0  0  0
  8  9  2  0  0  0  0
  8 24  1  0  0  0  0
  9 25  1  0  0  0  0
 10 27  1  0  0  0  0
 11 27  2  0  0  0  0
 12 28  1  0  0  0  0
 13 14  2  0  0  0  0
 13 29  1  0  0  0  0
 14 30  1  0  0  0  0
 15 23  1  0  0  0  0
 15 28  2  0  0  0  0
 16 24  2  0  0  0  0
 16 26  1  0  0  0  0
 17 30  2  0  0  0  0
 17 31  1  0  0  0  0
 18 32  1  0  0  0  0
 19 32  1  0  0  0  0
 19 33  2  0  0  0  0
 19 38  1  0  0  0  0
 20 22  2  0  0  0  0
 20 43  1  0  0  0  0
 21 23  2  0  0  0  0
 21 44  1  0  0  0  0
 22 53  1  0  0  0  0
 23 45  1  0  0  0  0
 24 66  1  0  0  0  0
 25 26  2  0  0  0  0
 25 69  1  0  0  0  0
 26 72  1  0  0  0  0
 27 83  1  0  0  0  0
 28 84  1  0  0  0  0
 29 31  2  0  0  0  0
 29 83  1  0  0  0  0
 30 85  1  0  0  0  0
 31 86  1  0  0  0  0
 32 64  2  0  0  0  0
 33 65  1  0  0  0  0
 33 70  1  0  0  0  0
 34 35  1  0  0  0  0
 34 37  2  0  0  0  0
 34 46  1  0  0  0  0
 35 66  1  0  0  0  0
 35 76  2  0  0  0  0
 36 46  1  0  0  0  0
 36 66  1  0  0  0  0
 36 77  2  0  0  0  0
 37 84  1  0  0  0  0
 38 71  1  0  0  0  0
 38 78  2  0  0  0  0
 39 54  1  0  0  0  0
 39 73  1  0  0  0  0
 39 79  2  0  0  0  0
 40 61  1  0  0  0  0
 40 67  1  0  0  0  0
 40 80  2  0  0  0  0
 41 62  1  0  0  0  0
 41 74  1  0  0  0  0
 41 81  2  0  0  0  0
 42 68  1  0  0  0  0
 42 72  1  0  0  0  0
 42 82  2  0  0  0  0
 43 47  1  0  0  0  0
 44 54  1  0  0  0  0
 45 67  1  0  0  0  0
 47 49  1  0  0  0  0
 48 50  1  0  0  0  0
 48 51  1  0  0  0  0
 49 53  1  0  0  0  0
 50 55  1  0  0  0  0
 51 68  1  0  0  0  0
 52 55  1  0  0  0  0
 52 68  1  0  0  0  0
 53 73  1  0  0  0  0
 54 67  1  0  0  0  0
 55 65  1  0  0  0  0
 56 62  1  0  0  0  0
 57 63  1  0  0  0  0
 58 63  1  0  0  0  0
 59 63  1  0  0  0  0
 60 75  1  0  0  0  0
 61 63  1  0  0  0  0
 61 74  1  0  0  0  0
 62 75  1  0  0  0  0
 64 65  1  0  0  0  0
M  CHG  1  75   1
M  ISO  4  37 101  42 100  72 100  84 101
M  END
> <Batch ID>
0088

> <Smiles>
CNC(C)C(=O)NC(C(=O)N1Cc2cc([101O:1][101CH:1]=C3CC(=O)N(c4ccc(N)c([100NH:0][100C:0](=O)N5CCCC(n6nc(-c7ccc(Oc8ccc(F)cc8F)cc7)c(C(N)=O)c6N)C5)c4)C3=O)ccc2CC1C(=O)NC1CCCc2ccccc21)C(C)(C)C

> <Shape>
0.296

> <Color>
0.097

> <Negative vol penalty>
0.000

$$$$

  -OEChem-04052300233D

 85 94  0     1  0  0  0  0  0999 V2000
  -28.9639  -36.9426   19.5723 C   0  0  0  0  0  0  0  0  0  0  0  0
  -29.2454  -35.5809   19.5283 C   0  0  0  0  0  0  0  0  0  0  0  0
  -23.7423   -8.7798   19.7191 C   0  0  0  0  0  0  0  0  0  0  0  0
  -23.3146  -10.2918   21.5543 C   0  0  0  0  0  0  0  0  0  0  0  0
  -28.0157  -37.4286   20.4715 C   0  0  0  0  0  0  0  0  0  0  0  0
  -28.5796  -34.7045   20.3844 C   0  0  0  0  0  0  0  0  0  0  0  0
  -26.8870  -28.9458   19.1687 C   0  0  0  0  0  0  0  0  0  0  0  0
  -30.3953  -19.5896   20.7444 C   0  0  0  0  0  0  0  0  0  0  0  0
  -30.3182  -18.2230   20.4760 C   0  0  0  0  0  0  0  0  0  0  0  0
  -22.9823   -7.7964   20.3522 C   0  0  0  0  0  0  0  0  0  0  0  0
  -22.5544   -9.3084   22.1873 C   0  0  0  0  0  0  0  0  0  0  0  0
  -27.4637  -27.7140   19.4752 C   0  0  0  0  0  0  0  0  0  0  0  0
  -19.4395   -8.0224   21.9340 C   0  0  0  0  0  0  0  0  0  0  0  0
  -18.2158   -8.4048   22.4833 C   0  0  0  0  0  0  0  0  0  0  0  0
  -26.0344  -27.5330   21.4100 C   0  0  0  0  0  0  0  0  0  0  0  0
  -29.9283  -23.7396   21.6188 C   0  0  0  0  0  0  0  0  0  0  0  0
  -28.1865  -19.8968   19.8150 C   0  0  0  0  0  0  0  0  0  0  0  0
  -18.9762   -7.7024   24.6664 C   0  0  0  0  0  0  0  0  0  0  0  0
  -28.7817  -22.7660   19.9433 C   0  0  0  0  0  0  0  0  0  0  0  0
  -23.9086  -10.0275   20.3202 C   0  0  0  0  0  0  0  0  0  0  0  0
  -24.2382  -12.0175   18.7585 C   0  0  0  0  0  0  0  0  0  0  0  0
  -27.3309  -36.5564   21.3323 C   0  0  0  0  0  0  0  0  0  0  0  0
  -25.8856  -29.4864   19.9880 C   0  0  0  0  0  0  0  0  0  0  0  0
  -27.6223  -35.1794   21.2969 C   0  0  0  0  0  0  0  0  0  0  0  0
  -25.4448  -28.7706   21.1103 C   0  0  0  0  0  0  0  0  0  0  0  0
  -29.0890  -23.9859   20.5043 C   0  0  0  0  0  0  0  0  0  0  0  0
  -29.3294  -20.4265   20.4140 C   0  0  0  0  0  0  0  0  0  0  0  0
  -29.1753  -17.6933   19.8770 C   0  0  0  0  0  0  0  0  0  0  0  0
  -22.3883   -8.0607   21.5862 C   0  0  0  0  0  0  0  0  0  0  0  0
  -27.0395  -27.0088   20.5976 C   0  0  0  0  0  0  0  0  0  0  0  0
  -20.4316   -7.4799   22.7509 C   0  0  0  0  0  0  0  0  0  0  0  0
  -17.9841   -8.2449   23.8495 C   0  0  0  0  0  0  0  0  0  0  0  0
  -28.1094  -18.5302   19.5465 C   0  0  0  0  0  0  0  0  0  0  0  0
  -20.1999   -7.3199   24.1170 C   0  0  0  0  0  0  0  0  0  0  0  0
  -24.6941  -11.0436   19.6670 C   0  0  0  0  0  0  0  0  0  0  0  0
  -25.3628  -12.7347   18.4309 C   0  0  0  0  0  0  0  0  0  0  0  0
  -30.1085  -22.3767   21.7048 C   0  0  0  0  0  0  0  0  0  0  0  0
  -22.9162  -12.2530   18.2558 C   0  0  0  0  0  0  0  0  0  0  0  0
  -25.6076  -32.1157   21.7525 C   0  0  0  0  0  0  0  0  0  0  0  0
  -22.5629  -31.0654   22.1384 C   0  0  0  0  0  0  0  0  0  0  0  0
  -20.3795  -28.4425   22.1266 C   0  0  0  0  0  0  0  0  0  0  0  0
  -30.0699  -15.3384   19.8685 C   0  0  0  0  0  0  0  0  0  0  0  0
  -26.3485  -37.1343   22.3201 C   0  0  0  0  0  0  0  0  0  0  0  0
  -25.2548  -30.8037   19.6287 C   0  0  0  0  0  0  0  0  0  0  0  0
  -24.3587  -29.2979   22.0108 C   0  0  0  0  0  0  0  0  0  0  0  0
  -25.4165  -36.0921   22.9329 C   0  0  0  0  0  0  0  0  0  0  0  0
  -30.2487  -11.8158   19.3824 C   0  0  0  0  0  0  0  0  0  0  0  0
  -26.2069  -34.8670   23.3814 C   0  0  0  0  0  0  0  0  0  0  0  0
  -28.7820  -11.3809   19.3384 C   0  0  0  0  0  0  0  0  0  0  0  0
  -30.4762  -12.9426   20.3884 C   0  0  0  0  0  0  0  0  0  0  0  0
  -28.1333  -13.6744   20.1786 C   0  0  0  0  0  0  0  0  0  0  0  0
  -26.9031  -34.1939   22.1923 C   0  0  1  0  0  0  0  0  0  0  0  0
  -24.6034  -31.4990   20.8202 C   0  0  1  0  0  0  0  0  0  0  0  0
  -27.8430  -12.5857   19.1326 C   0  0  2  0  0  0  0  0  0  0  0  0
  -17.9630  -27.8892   22.5165 C   0  0  0  0  0  0  0  0  0  0  0  0
  -22.9997  -31.2904   25.1498 C   0  0  0  0  0  0  0  0  0  0  0  0
  -20.9702  -29.8622   25.4806 C   0  0  0  0  0  0  0  0  0  0  0  0
  -20.7628  -32.0803   24.3583 C   0  0  0  0  0  0  0  0  0  0  0  0
  -20.0361  -27.4644   19.3546 C   0  0  0  0  0  0  0  0  0  0  0  0
  -28.6201  -25.3274   20.0228 C   0  0  0  0  0  0  0  0  0  1  0  0
  -21.8595  -30.1650   23.1251 C   0  0  1  0  0  0  0  0  0  0  0  0
  -19.0140  -28.2715   21.4859 C   0  0  2  0  0  0  0  0  0  0  0  0
  -21.6699  -30.8402   24.5128 C   0  0  0  0  0  0  0  0  0  0  0  0
  -26.0061  -11.1311   19.9014 N   0  0  0  0  0  0  0  0  0  0  0  0
  -29.4072  -21.7951   20.6810 N   0  0  0  0  0  0  0  0  0  0  0  0
  -26.3843  -12.1685   19.1353 N   0  0  0  0  0  0  0  0  0  0  0  0
  -23.7774  -30.5931   21.6210 N   0  0  0  0  0  0  0  0  0  0  0  0
  -29.5547  -14.0510   20.1293 N   0  0  0  0  0  0  0  0  0  0  0  0
  -25.5678  -13.7879   17.6117 N   0  0  0  0  0  0  0  0  0  0  0  0
  -21.8763  -11.4230   18.6962 N   0  0  0  0  0  0  0  0  0  0  0  0
  -29.1001  -16.3049   19.6043 N   0  0  0  0  0  0  0  0  0  0  0  0
  -25.9547  -33.4130   21.4273 N   0  0  0  0  0  0  0  0  0  0  0  0
  -20.6145  -29.7528   22.4860 N   0  0  0  0  0  0  0  0  0  0  0  0
  -19.0602  -27.2064   20.4445 N   0  3  0  0  0  0  0  0  0  0  0  0
  -22.6677  -13.1617   17.4276 O   0  0  0  0  0  0  0  0  0  0  0  0
  -26.0347  -31.4632   22.6978 O   0  0  0  0  0  0  0  0  0  0  0  0
  -22.0499  -32.1447   21.8324 O   0  0  0  0  0  0  0  0  0  0  0  0
  -21.1581  -27.5067   22.2951 O   0  0  0  0  0  0  0  0  0  0  0  0
  -31.2833  -15.5607   19.8520 O   0  0  0  0  0  0  0  0  0  0  0  0
  -30.8077  -21.6525   22.5703 O   0  0  0  0  0  0  0  0  0  0  0  0
  -21.6463   -7.1014   22.2042 O   0  0  0  0  0  0  0  0  0  0  0  0
  -27.6012  -25.8066   20.8994 O   0  0  0  0  0  0  0  0  0  1  0  0
  -16.8094   -8.6136   24.3771 F   0  0  0  0  0  0  0  0  0  0  0  0
  -27.0067  -18.0322   18.9690 F   0  0  0  0  0  0  0  0  0  0  0  0
  -21.1496   -6.8004   24.9070 F   0  0  0  0  0  0  0  0  0  0  0  0
  1  2  1  0  0  0  0
  1  5  2  0  0  0  0
  2  6  2  0  0  0  0
  3 10  2  0  0  0  0
  3 20  1  0  0  0  0
  4 11  1  0  0  0  0
  4 20  2  0  0  0  0
  5 22  1  0  0  0  0
  6 24  1  0  0  0  0
  7 12  2  0  0  0  0
  7 23  1  0  0  0  0
  8  9  2  0  0  0  0
  8 27  1  0  0  0  0
  9 28  1  0  0  0  0
 10 29  1  0  0  0  0
 11 29  2  0  0  0  0
 12 30  1  0  0  0  0
 13 14  2  0  0  0  0
 13 31  1  0  0  0  0
 14 32  1  0  0  0  0
 15 25  1  0  0  0  0
 15 30  2  0  0  0  0
 16 26  1  0  0  0  0
 16 37  2  0  0  0  0
 17 27  2  0  0  0  0
 17 33  1  0  0  0  0
 18 32  2  0  0  0  0
 18 34  1  0  0  0  0
 19 26  2  0  0  0  0
 19 65  1  0  0  0  0
 20 35  1  0  0  0  0
 21 35  1  0  0  0  0
 21 36  2  0  0  0  0
 21 38  1  0  0  0  0
 22 24  2  0  0  0  0
 22 43  1  0  0  0  0
 23 25  2  0  0  0  0
 23 44  1  0  0  0  0
 24 52  1  0  0  0  0
 25 45  1  0  0  0  0
 26 60  1  0  0  0  0
 27 65  1  0  0  0  0
 28 33  2  0  0  0  0
 28 71  1  0  0  0  0
 29 81  1  0  0  0  0
 30 82  1  0  0  0  0
 31 34  2  0  0  0  0
 31 81  1  0  0  0  0
 32 83  1  0  0  0  0
 33 84  1  0  0  0  0
 34 85  1  0  0  0  0
 35 64  2  0  0  0  0
 36 66  1  0  0  0  0
 36 69  1  0  0  0  0
 37 65  1  0  0  0  0
 37 80  1  0  0  0  0
 38 70  1  0  0  0  0
 38 75  2  0  0  0  0
 39 53  1  0  0  0  0
 39 72  1  0  0  0  0
 39 76  2  0  0  0  0
 40 61  1  0  0  0  0
 40 67  1  0  0  0  0
 40 77  2  0  0  0  0
 41 62  1  0  0  0  0
 41 73  1  0  0  0  0
 41 78  2  0  0  0  0
 42 68  1  0  0  0  0
 42 71  1  0  0  0  0
 42 79  2  0  0  0  0
 43 46  1  0  0  0  0
 44 53  1  0  0  0  0
 45 67  1  0  0  0  0
 46 48  1  0  0  0  0
 47 49  1  0  0  0  0
 47 50  1  0  0  0  0
 48 52  1  0  0  0  0
 49 54  1  0  0  0  0
 50 68  1  0  0  0  0
 51 54  1  0  0  0  0
 51 68  1  0  0  0  0
 52 72  1  0  0  0  0
 53 67  1  0  0  0  0
 54 66  1  0  0  0  0
 55 62  1  0  0  0  0
 56 63  1  0  0  0  0
 57 63  1  0  0  0  0
 58 63  1  0  0  0  0
 59 74  1  0  0  0  0
 60 82  1  0  0  0  0
 61 63  1  0  0  0  0
 61 73  1  0  0  0  0
 62 74  1  0  0  0  0
 64 66  1  0  0  0  0
M  CHG  1  74   1
M  ISO  4  42 100  60 101  71 100  82 101
M  END
> <Batch ID>
0088

> <Smiles>
CNC(C)C(=O)NC(C(=O)N1Cc2cc([101O:1][101CH2:1]C3=CN(c4ccc([100NH:0][100C:0](=O)N5CCCC(n6nc(-c7ccc(Oc8ccc(F)cc8F)cc7)c(C(N)=O)c6N)C5)c(F)c4)C(=O)C3)ccc2CC1C(=O)NC1CCCc2ccccc21)C(C)(C)C

> <Shape>
0.308

> <Color>
0.109

> <Negative vol penalty>
0.000

$$$$

  -OEChem-04052300233D

 85 94  0     1  0  0  0  0  0999 V2000
  -30.8159  -34.7872   18.9072 C   0  0  0  0  0  0  0  0  0  0  0  0
  -30.4718  -33.4611   18.6657 C   0  0  0  0  0  0  0  0  0  0  0  0
  -31.3523  -19.3327   21.0522 C   0  0  0  0  0  0  0  0  0  0  0  0
  -23.2416   -9.5202   20.7615 C   0  0  0  0  0  0  0  0  0  0  0  0
  -23.2828  -10.9970   22.6731 C   0  0  0  0  0  0  0  0  0  0  0  0
  -30.5429  -35.3622   20.1476 C   0  0  0  0  0  0  0  0  0  0  0  0
  -29.8553  -32.7088   19.6650 C   0  0  0  0  0  0  0  0  0  0  0  0
  -25.6183  -28.3520   18.9087 C   0  0  0  0  0  0  0  0  0  0  0  0
  -30.3718  -20.3131   20.9010 C   0  0  0  0  0  0  0  0  0  0  0  0
  -31.0562  -18.0001   20.7655 C   0  0  0  0  0  0  0  0  0  0  0  0
  -22.4547   -8.6171   21.4762 C   0  0  0  0  0  0  0  0  0  0  0  0
  -22.4958  -10.0939   23.3878 C   0  0  0  0  0  0  0  0  0  0  0  0
  -25.7000  -26.9607   18.8704 C   0  0  0  0  0  0  0  0  0  0  0  0
  -22.9074   -6.2576   23.8536 C   0  0  0  0  0  0  0  0  0  0  0  0
  -23.2491   -4.9069   23.7865 C   0  0  0  0  0  0  0  0  0  0  0  0
  -25.1160  -26.8681   21.2091 C   0  0  0  0  0  0  0  0  0  0  0  0
  -21.0783   -4.4042   22.8524 C   0  0  0  0  0  0  0  0  0  0  0  0
  -23.6557  -10.7102   21.3600 C   0  0  0  0  0  0  0  0  0  0  0  0
  -24.0229  -12.7046   19.8124 C   0  0  0  0  0  0  0  0  0  0  0  0
  -29.9140  -34.6195   21.1594 C   0  0  0  0  0  0  0  0  0  0  0  0
  -25.2950  -29.0134   20.1022 C   0  0  0  0  0  0  0  0  0  0  0  0
  -29.5748  -33.2741   20.9206 C   0  0  0  0  0  0  0  0  0  0  0  0
  -25.0284  -28.2677   21.2593 C   0  0  0  0  0  0  0  0  0  0  0  0
  -29.0951  -19.9610   20.4631 C   0  0  0  0  0  0  0  0  0  0  0  0
  -29.7795  -17.6479   20.3277 C   0  0  0  0  0  0  0  0  0  0  0  0
  -22.0818   -8.9039   22.7893 C   0  0  0  0  0  0  0  0  0  0  0  0
  -25.4517  -26.2187   20.0214 C   0  0  0  0  0  0  0  0  0  0  0  0
  -21.6511   -6.6816   23.4203 C   0  0  0  0  0  0  0  0  0  0  0  0
  -22.3346   -3.9803   23.2859 C   0  0  0  0  0  0  0  0  0  0  0  0
  -20.7366   -5.7549   22.9197 C   0  0  0  0  0  0  0  0  0  0  0  0
  -28.7989  -18.6284   20.1765 C   0  0  0  0  0  0  0  0  0  0  0  0
  -24.4691  -11.6432   20.6225 C   0  0  0  0  0  0  0  0  0  0  0  0
  -25.1752  -13.2844   19.3407 C   0  0  0  0  0  0  0  0  0  0  0  0
  -26.9305  -22.9586   20.2573 C   0  0  0  0  0  0  0  0  0  0  0  0
  -28.2482  -22.3383   20.5586 C   0  0  0  0  0  0  0  0  0  0  0  0
  -26.7374  -24.2797   20.2622 C   0  0  0  0  0  0  0  0  0  1  0  0
  -22.6864  -13.1285   19.5131 C   0  0  0  0  0  0  0  0  0  0  0  0
  -26.7795  -31.1031   21.9818 C   0  0  0  0  0  0  0  0  0  0  0  0
  -23.9311  -31.1405   23.5333 C   0  0  0  0  0  0  0  0  0  0  0  0
  -21.0109  -29.5344   24.2682 C   0  0  0  0  0  0  0  0  0  0  0  0
  -30.3426  -15.2000   20.1356 C   0  0  0  0  0  0  0  0  0  0  0  0
  -29.6820  -35.2702   22.5001 C   0  0  0  0  0  0  0  0  0  0  0  0
  -25.1848  -30.5134   20.1204 C   0  0  0  0  0  0  0  0  0  0  0  0
  -24.6574  -28.9288   22.5608 C   0  0  0  0  0  0  0  0  0  0  0  0
  -25.9254  -21.9069   19.9414 C   0  0  0  0  0  0  0  0  0  0  0  0
  -28.6873  -34.5163   23.3790 C   0  0  0  0  0  0  0  0  0  0  0  0
  -29.9804  -11.7069   19.5490 C   0  0  0  0  0  0  0  0  0  0  0  0
  -29.0012  -33.0236   23.3811 C   0  0  0  0  0  0  0  0  0  0  0  0
  -28.4776  -11.4662   19.7094 C   0  0  0  0  0  0  0  0  0  0  0  0
  -26.7725  -20.6549   19.7852 C   0  0  0  0  0  0  0  0  0  0  0  0
  -30.4959  -12.7524   20.5364 C   0  0  0  0  0  0  0  0  0  0  0  0
  -28.2652  -13.7871   20.6869 C   0  0  0  0  0  0  0  0  0  0  0  0
  -28.8825  -32.4329   21.9709 C   0  0  1  0  0  0  0  0  0  0  0  0
  -25.3512  -31.1079   21.5155 C   0  0  1  0  0  0  0  0  0  0  0  0
  -27.6877  -12.7891   19.6699 C   0  0  2  0  0  0  0  0  0  0  0  0
  -18.8961  -29.7998   25.5928 C   0  0  0  0  0  0  0  0  0  0  0  0
  -25.4616  -30.5145   26.0977 C   0  0  0  0  0  0  0  0  0  0  0  0
  -23.2873  -29.8618   27.1534 C   0  0  0  0  0  0  0  0  0  0  0  0
  -23.6335  -32.2010   26.3591 C   0  0  0  0  0  0  0  0  0  0  0  0
  -19.3318  -29.3900   21.8353 C   0  0  0  0  0  0  0  0  0  0  0  0
  -23.3198  -30.3505   24.6652 C   0  0  1  0  0  0  0  0  0  0  0  0
  -19.5682  -30.0062   24.2443 C   0  0  2  0  0  0  0  0  0  0  0  0
  -23.9344  -30.7193   26.0450 C   0  0  0  0  0  0  0  0  0  0  0  0
  -25.8009  -11.5517   20.6651 N   0  0  0  0  0  0  0  0  0  0  0  0
  -26.2015  -12.5629   19.8758 N   0  0  0  0  0  0  0  0  0  0  0  0
  -28.0927  -20.9685   20.3092 N   0  0  0  0  0  0  0  0  0  0  0  0
  -24.5687  -30.3980   22.5294 N   0  0  0  0  0  0  0  0  0  0  0  0
  -29.7028  -13.9797   20.4395 N   0  0  0  0  0  0  0  0  0  0  0  0
  -25.4005  -14.3358   18.5245 N   0  0  0  0  0  0  0  0  0  0  0  0
  -21.6180  -12.4214   20.0815 N   0  0  0  0  0  0  0  0  0  0  0  0
  -29.4824  -16.2932   20.0375 N   0  0  0  0  0  0  0  0  0  0  0  0
  -27.4923  -32.2312   21.6229 N   0  0  0  0  0  0  0  0  0  0  0  0
  -21.8787  -30.5603   24.5778 N   0  0  0  0  0  0  0  0  0  0  0  0
  -18.7951  -29.2565   23.2142 N   0  3  0  0  0  0  0  0  0  0  0  0
  -29.2177  -22.9754   20.9352 O   0  0  0  0  0  0  0  0  0  0  0  0
  -22.4463  -14.0953   18.7508 O   0  0  0  0  0  0  0  0  0  0  0  0
  -27.2032  -30.1475   22.6213 O   0  0  0  0  0  0  0  0  0  0  0  0
  -23.8398  -32.3707   23.5361 O   0  0  0  0  0  0  0  0  0  0  0  0
  -21.3353  -28.3713   24.0390 O   0  0  0  0  0  0  0  0  0  0  0  0
  -31.5601  -15.2651   19.9475 O   0  0  0  0  0  0  0  0  0  0  0  0
  -21.3137   -8.0230   23.4869 O   0  0  0  0  0  0  0  0  0  0  0  0
  -25.5314  -24.8606   19.9870 O   0  0  0  0  0  0  0  0  0  1  0  0
  -22.6634   -2.6834   23.2200 F   0  0  0  0  0  0  0  0  0  0  0  0
  -19.5287   -6.1565   22.5007 F   0  0  0  0  0  0  0  0  0  0  0  0
  -27.5703  -18.2896   19.7562 F   0  0  0  0  0  0  0  0  0  0  0  0
  1  2  1  0  0  0  0
  1  6  2  0  0  0  0
  2  7  2  0  0  0  0
  3  9  2  0  0  0  0
  3 10  1  0  0  0  0
  4 11  2  0  0  0  0
  4 18  1  0  0  0  0
  5 12  1  0  0  0  0
  5 18  2  0  0  0  0
  6 20  1  0  0  0  0
  7 22  1  0  0  0  0
  8 13  2  0  0  0  0
  8 21  1  0  0  0  0
  9 24  1  0  0  0  0
 10 25  2  0  0  0  0
 11 26  1  0  0  0  0
 12 26  2  0  0  0  0
 13 27  1  0  0  0  0
 14 15  2  0  0  0  0
 14 28  1  0  0  0  0
 15 29  1  0  0  0  0
 16 23  1  0  0  0  0
 16 27  2  0  0  0  0
 17 29  2  0  0  0  0
 17 30  1  0  0  0  0
 18 32  1  0  0  0  0
 19 32  1  0  0  0  0
 19 33  2  0  0  0  0
 19 37  1  0  0  0  0
 20 22  2  0  0  0  0
 20 42  1  0  0  0  0
 21 23  2  0  0  0  0
 21 43  1  0  0  0  0
 22 53  1  0  0  0  0
 23 44  1  0  0  0  0
 24 31  2  0  0  0  0
 24 66  1  0  0  0  0
 25 31  1  0  0  0  0
 25 71  1  0  0  0  0
 26 81  1  0  0  0  0
 27 82  1  0  0  0  0
 28 30  2  0  0  0  0
 28 81  1  0  0  0  0
 29 83  1  0  0  0  0
 30 84  1  0  0  0  0
 31 85  1  0  0  0  0
 32 64  2  0  0  0  0
 33 65  1  0  0  0  0
 33 69  1  0  0  0  0
 34 35  1  0  0  0  0
 34 36  2  0  0  0  0
 34 45  1  0  0  0  0
 35 66  1  0  0  0  0
 35 75  2  0  0  0  0
 36 82  1  0  0  0  0
 37 70  1  0  0  0  0
 37 76  2  0  0  0  0
 38 54  1  0  0  0  0
 38 72  1  0  0  0  0
 38 77  2  0  0  0  0
 39 61  1  0  0  0  0
 39 67  1  0  0  0  0
 39 78  2  0  0  0  0
 40 62  1  0  0  0  0
 40 73  1  0  0  0  0
 40 79  2  0  0  0  0
 41 68  1  0  0  0  0
 41 71  1  0  0  0  0
 41 80  2  0  0  0  0
 42 46  1  0  0  0  0
 43 54  1  0  0  0  0
 44 67  1  0  0  0  0
 45 50  1  0  0  0  0
 46 48  1  0  0  0  0
 47 49  1  0  0  0  0
 47 51  1  0  0  0  0
 48 53  1  0  0  0  0
 49 55  1  0  0  0  0
 50 66  1  0  0  0  0
 51 68  1  0  0  0  0
 52 55  1  0  0  0  0
 52 68  1  0  0  0  0
 53 72  1  0  0  0  0
 54 67  1  0  0  0  0
 55 65  1  0  0  0  0
 56 62  1  0  0  0  0
 57 63  1  0  0  0  0
 58 63  1  0  0  0  0
 59 63  1  0  0  0  0
 60 74  1  0  0  0  0
 61 63  1  0  0  0  0
 61 73  1  0  0  0  0
 62 74  1  0  0  0  0
 64 65  1  0  0  0  0
M  CHG  1  74   1
M  ISO  4  36 101  41 100  71 100  82 101
M  END
> <Batch ID>
0088

> <Smiles>
CNC(C)C(=O)NC(C(=O)N1Cc2cc([101O:1][101CH:1]=C3CCN(c4cccc([100NH:0][100C:0](=O)N5CCCC(n6nc(-c7ccc(Oc8ccc(F)cc8F)cc7)c(C(N)=O)c6N)C5)c4F)C3=O)ccc2CC1C(=O)NC1CCCc2ccccc21)C(C)(C)C

> <Shape>
0.307

> <Color>
0.124

> <Negative vol penalty>
0.000

$$$$

  -OEChem-04052300233D

 81 89  0     1  0  0  0  0  0999 V2000
  -26.8611   -8.7609   20.6674 C   0  0  0  0  0  0  0  0  0  0  0  0
  -27.2886   -9.7868   19.8306 C   0  0  0  0  0  0  0  0  0  0  0  0
  -22.9516  -29.2046   19.8129 C   0  0  0  0  0  0  0  0  0  0  0  0
  -23.1703  -28.5237   22.1206 C   0  0  0  0  0  0  0  0  0  0  0  0
  -25.8208   -8.9854   21.5681 C   0  0  0  0  0  0  0  0  0  0  0  0
  -26.6751  -11.0375   19.8932 C   0  0  0  0  0  0  0  0  0  0  0  0
  -30.4834  -16.9646   21.3958 C   0  0  0  0  0  0  0  0  0  0  0  0
  -21.7428  -29.8326   20.1128 C   0  0  0  0  0  0  0  0  0  0  0  0
  -21.9615  -29.1517   22.4205 C   0  0  0  0  0  0  0  0  0  0  0  0
  -31.1787  -18.1718   21.4692 C   0  0  0  0  0  0  0  0  0  0  0  0
  -18.6621  -28.5005   22.0730 C   0  0  0  0  0  0  0  0  0  0  0  0
  -17.7503  -27.8055   22.8674 C   0  0  0  0  0  0  0  0  0  0  0  0
  -31.6878  -24.9574   19.6048 C   0  0  0  0  0  0  0  0  0  0  0  0
  -30.1530  -23.4729   18.4746 C   0  0  0  0  0  0  0  0  0  0  0  0
  -29.0914  -19.3908   21.3952 C   0  0  0  0  0  0  0  0  0  0  0  0
  -30.7253  -25.6010   17.4843 C   0  0  0  0  0  0  0  0  0  0  0  0
  -17.8415  -29.5697   24.5155 C   0  0  0  0  0  0  0  0  0  0  0  0
  -23.6653  -28.5500   20.8168 C   0  0  0  0  0  0  0  0  0  0  0  0
  -30.9855  -23.7532   19.5581 C   0  0  0  0  0  0  0  0  0  0  0  0
  -26.2013  -28.4680   20.5531 C   0  0  0  0  0  0  0  0  0  0  0  0
  -25.2008  -10.2422   21.6486 C   0  0  0  0  0  0  0  0  0  0  0  0
  -29.0870  -16.9654   21.3372 C   0  0  0  0  0  0  0  0  0  0  0  0
  -25.6246  -11.2785   20.7949 C   0  0  0  0  0  0  0  0  0  0  0  0
  -28.3889  -18.1843   21.3341 C   0  0  0  0  0  0  0  0  0  0  0  0
  -31.5577  -25.8814   18.5679 C   0  0  0  0  0  0  0  0  0  0  0  0
  -30.0229  -24.3968   17.4376 C   0  0  0  0  0  0  0  0  0  0  0  0
  -21.2477  -29.8063   21.4166 C   0  0  0  0  0  0  0  0  0  0  0  0
  -30.4844  -19.3818   21.4687 C   0  0  0  0  0  0  0  0  0  0  0  0
  -19.1637  -29.7301   22.4998 C   0  0  0  0  0  0  0  0  0  0  0  0
  -17.3400  -28.3401   24.0887 C   0  0  0  0  0  0  0  0  0  0  0  0
  -18.7534  -30.2647   23.7211 C   0  0  0  0  0  0  0  0  0  0  0  0
  -24.9138  -27.9006   20.5076 C   0  0  0  0  0  0  0  0  0  0  0  0
  -27.0396  -27.4482   20.1737 C   0  0  0  0  0  0  0  0  0  0  0  0
  -31.1228  -22.7778   20.6529 C   0  0  0  0  0  0  0  0  0  0  0  0
  -31.0312  -21.4488   20.5192 C   0  0  0  0  0  0  0  0  0  1  0  0
  -26.6037  -29.7979   20.9070 C   0  0  0  0  0  0  0  0  0  0  0  0
  -25.9322  -14.9425   21.1600 C   0  0  0  0  0  0  0  0  0  0  0  0
  -25.3966  -17.2609   23.0962 C   0  0  0  0  0  0  0  0  0  0  0  0
  -25.3491  -19.7035   25.4771 C   0  0  0  0  0  0  0  0  0  0  0  0
  -28.0084  -23.3063   16.4162 C   0  0  0  0  0  0  0  0  0  0  0  0
  -24.0487  -10.4234   22.6049 C   0  0  0  0  0  0  0  0  0  0  0  0
  -28.2997  -15.6911   21.1950 C   0  0  0  0  0  0  0  0  0  0  0  0
  -26.8886  -18.1379   21.2348 C   0  0  0  0  0  0  0  0  0  0  0  0
  -23.7022  -11.8861   22.8709 C   0  0  0  0  0  0  0  0  0  0  0  0
  -26.2044  -22.5109   19.5477 C   0  0  0  0  0  0  0  0  0  0  0  0
  -23.6424  -12.6671   21.5620 C   0  0  0  0  0  0  0  0  0  0  0  0
  -25.7427  -23.8843   20.0314 C   0  0  0  0  0  0  0  0  0  0  0  0
  -26.3338  -22.4596   18.0284 C   0  0  0  0  0  0  0  0  0  0  0  0
  -26.7608  -24.8996   17.9544 C   0  0  0  0  0  0  0  0  0  0  0  0
  -25.0008  -12.6562   20.8505 C   0  0  1  0  0  0  0  0  0  0  0  0
  -26.9491  -15.7308   21.9321 C   0  0  1  0  0  0  0  0  0  0  0  0
  -26.6616  -24.9892   19.4846 C   0  0  1  0  0  0  0  0  0  0  0  0
  -23.8452  -20.7596   27.1860 C   0  0  0  0  0  0  0  0  0  0  0  0
  -23.9234  -18.7461   20.8764 C   0  0  0  0  0  0  0  0  0  0  0  0
  -23.1632  -20.4067   22.5890 C   0  0  0  0  0  0  0  0  0  0  0  0
  -22.4772  -18.0161   22.7817 C   0  0  0  0  0  0  0  0  0  0  0  0
  -29.6446  -24.4414   14.9789 C   0  0  0  0  0  0  0  0  0  0  0  0
  -27.1483  -18.9426   27.7004 C   0  0  0  0  0  0  0  0  0  0  0  0
  -24.8708  -18.6624   23.2767 C   0  0  1  0  0  0  0  0  0  0  0  0
  -24.8945  -19.6901   26.9254 C   0  0  2  0  0  0  0  0  0  0  0  0
  -23.6364  -18.9527   22.3771 C   0  0  0  0  0  0  0  0  0  0  0  0
  -24.9278  -26.6198   20.1288 N   0  0  0  0  0  0  0  0  0  0  0  0
  -26.2345  -26.3740   19.9329 N   0  0  0  0  0  0  0  0  0  0  0  0
  -26.3607  -17.0706   22.0989 N   0  0  0  0  0  0  0  0  0  0  0  0
  -27.1622  -23.5526   17.5169 N   0  0  0  0  0  0  0  0  0  0  0  0
  -32.2678  -27.0991   18.6150 N   0  0  0  0  0  0  0  0  0  0  0  0
  -28.3794  -27.3747   20.0257 N   0  0  0  0  0  0  0  0  0  0  0  0
  -25.6139  -30.7205   21.2722 N   0  0  0  0  0  0  0  0  0  0  0  0
  -25.9059  -13.5973   21.4747 N   0  0  0  0  0  0  0  0  0  0  0  0
  -24.6205  -18.8237   24.7049 N   0  0  0  0  0  0  0  0  0  0  0  0
  -29.1621  -24.1071   16.3170 N   0  0  0  0  0  0  0  0  0  0  0  0
  -26.0506  -19.9348   27.8335 N   0  3  0  0  0  0  0  0  0  0  0  0
  -27.8038  -30.1621   20.8836 O   0  0  0  0  0  0  0  0  0  0  0  0
  -25.2219  -15.5121   20.3398 O   0  0  0  0  0  0  0  0  0  0  0  0
  -24.9619  -16.3564   23.8147 O   0  0  0  0  0  0  0  0  0  0  0  0
  -26.2572  -20.4252   25.0707 O   0  0  0  0  0  0  0  0  0  0  0  0
  -27.7280  -22.4688   15.5498 O   0  0  0  0  0  0  0  0  0  0  0  0
  -20.0683  -30.4192   21.7096 O   0  0  0  0  0  0  0  0  0  0  0  0
  -31.1692  -20.5566   21.5452 O   0  0  0  0  0  0  0  0  0  1  0  0
  -16.4632  -27.6733   24.8507 F   0  0  0  0  0  0  0  0  0  0  0  0
  -19.2309  -31.4461   24.1359 F   0  0  0  0  0  0  0  0  0  0  0  0
  1  2  1  0  0  0  0
  1  5  2  0  0  0  0
  2  6  2  0  0  0  0
  3  8  2  0  0  0  0
  3 18  1  0  0  0  0
  4  9  1  0  0  0  0
  4 18  2  0  0  0  0
  5 21  1  0  0  0  0
  6 23  1  0  0  0  0
  7 10  2  0  0  0  0
  7 22  1  0  0  0  0
  8 27  1  0  0  0  0
  9 27  2  0  0  0  0
 10 28  1  0  0  0  0
 11 12  2  0  0  0  0
 11 29  1  0  0  0  0
 12 30  1  0  0  0  0
 13 19  1  0  0  0  0
 13 25  2  0  0  0  0
 14 19  2  0  0  0  0
 14 26  1  0  0  0  0
 15 24  1  0  0  0  0
 15 28  2  0  0  0  0
 16 25  1  0  0  0  0
 16 26  2  0  0  0  0
 17 30  2  0  0  0  0
 17 31  1  0  0  0  0
 18 32  1  0  0  0  0
 19 34  1  0  0  0  0
 20 32  1  0  0  0  0
 20 33  2  0  0  0  0
 20 36  1  0  0  0  0
 21 23  2  0  0  0  0
 21 41  1  0  0  0  0
 22 24  2  0  0  0  0
 22 42  1  0  0  0  0
 23 50  1  0  0  0  0
 24 43  1  0  0  0  0
 25 66  1  0  0  0  0
 26 71  1  0  0  0  0
 27 78  1  0  0  0  0
 28 79  1  0  0  0  0
 29 31  2  0  0  0  0
 29 78  1  0  0  0  0
 30 80  1  0  0  0  0
 31 81  1  0  0  0  0
 32 62  2  0  0  0  0
 33 63  1  0  0  0  0
 33 67  1  0  0  0  0
 34 35  2  0  0  0  0
 35 79  1  0  0  0  0
 36 68  1  0  0  0  0
 36 73  2  0  0  0  0
 37 51  1  0  0  0  0
 37 69  1  0  0  0  0
 37 74  2  0  0  0  0
 38 59  1  0  0  0  0
 38 64  1  0  0  0  0
 38 75  2  0  0  0  0
 39 60  1  0  0  0  0
 39 70  1  0  0  0  0
 39 76  2  0  0  0  0
 40 65  1  0  0  0  0
 40 71  1  0  0  0  0
 40 77  2  0  0  0  0
 41 44  1  0  0  0  0
 42 51  1  0  0  0  0
 43 64  1  0  0  0  0
 44 46  1  0  0  0  0
 45 47  1  0  0  0  0
 45 48  1  0  0  0  0
 46 50  1  0  0  0  0
 47 52  1  0  0  0  0
 48 65  1  0  0  0  0
 49 52  1  0  0  0  0
 49 65  1  0  0  0  0
 50 69  1  0  0  0  0
 51 64  1  0  0  0  0
 52 63  1  0  0  0  0
 53 60  1  0  0  0  0
 54 61  1  0  0  0  0
 55 61  1  0  0  0  0
 56 61  1  0  0  0  0
 57 71  1  0  0  0  0
 58 72  1  0  0  0  0
 59 61  1  0  0  0  0
 59 70  1  0  0  0  0
 60 72  1  0  0  0  0
 62 63  1  0  0  0  0
M  CHG  1  72   1
M  ISO  4  35 101  40 100  71 100  79 101
M  END
> <Batch ID>
0088

> <Smiles>
CNC(C)C(=O)NC(C(=O)N1Cc2cc([101O:1][101CH:1]=Cc3cc(N)cc([100N:0](C)[100C:0](=O)N4CCCC(n5nc(-c6ccc(Oc7ccc(F)cc7F)cc6)c(C(N)=O)c5N)C4)c3)ccc2CC1C(=O)NC1CCCc2ccccc21)C(C)(C)C

> <Shape>
0.237

> <Color>
0.053

> <Negative vol penalty>
0.000

$$$$

  -OEChem-04052300233D

 84 92  0     1  0  0  0  0  0999 V2000
  -26.4366  -32.8752   27.1922 C   0  0  0  0  0  0  0  0  0  0  0  0
  -26.9935  -32.0311   26.2368 C   0  0  0  0  0  0  0  0  0  0  0  0
  -22.8234  -11.4969   18.7241 C   0  0  0  0  0  0  0  0  0  0  0  0
  -22.8217  -10.3603   20.8561 C   0  0  0  0  0  0  0  0  0  0  0  0
  -30.4387  -19.5320   19.3289 C   0  0  0  0  0  0  0  0  0  0  0  0
  -25.1495  -32.6322   27.6700 C   0  0  0  0  0  0  0  0  0  0  0  0
  -26.2640  -30.9428   25.7594 C   0  0  0  0  0  0  0  0  0  0  0  0
  -26.3666  -28.6468   20.0829 C   0  0  0  0  0  0  0  0  0  0  0  0
  -29.6235  -20.6631   19.2864 C   0  0  0  0  0  0  0  0  0  0  0  0
  -21.8021  -10.6590   18.2765 C   0  0  0  0  0  0  0  0  0  0  0  0
  -21.8003   -9.5223   20.4085 C   0  0  0  0  0  0  0  0  0  0  0  0
  -27.0390  -27.5619   19.5219 C   0  0  0  0  0  0  0  0  0  0  0  0
  -21.5031   -6.7873   18.4433 C   0  0  0  0  0  0  0  0  0  0  0  0
  -21.6236   -5.4224   18.7040 C   0  0  0  0  0  0  0  0  0  0  0  0
  -28.5989  -18.2392   20.2125 C   0  0  0  0  0  0  0  0  0  0  0  0
  -25.0821  -26.1891   19.8463 C   0  0  0  0  0  0  0  0  0  0  0  0
  -19.5627   -5.4810   19.9634 C   0  0  0  0  0  0  0  0  0  0  0  0
  -23.3333  -11.3476   20.0139 C   0  0  0  0  0  0  0  0  0  0  0  0
  -29.9264  -18.3200   19.7919 C   0  0  0  0  0  0  0  0  0  0  0  0
  -24.2474  -13.4484   21.1357 C   0  0  0  0  0  0  0  0  0  0  0  0
  -24.4001  -31.5460   27.1912 C   0  0  0  0  0  0  0  0  0  0  0  0
  -25.0484  -28.5079   20.5405 C   0  0  0  0  0  0  0  0  0  0  0  0
  -24.9662  -30.6843   26.2323 C   0  0  0  0  0  0  0  0  0  0  0  0
  -24.3944  -27.2744   20.4104 C   0  0  0  0  0  0  0  0  0  0  0  0
  -28.2960  -20.5822   19.7071 C   0  0  0  0  0  0  0  0  0  0  0  0
  -27.7837  -19.3702   20.1701 C   0  0  0  0  0  0  0  0  0  0  0  0
  -21.2906   -9.6717   19.1187 C   0  0  0  0  0  0  0  0  0  0  0  0
  -26.3977  -26.3320   19.4062 C   0  0  0  0  0  0  0  0  0  0  0  0
  -20.4124   -7.4991   18.9427 C   0  0  0  0  0  0  0  0  0  0  0  0
  -20.6534   -4.7692   19.4640 C   0  0  0  0  0  0  0  0  0  0  0  0
  -19.4422   -6.8459   19.7027 C   0  0  0  0  0  0  0  0  0  0  0  0
  -24.3887  -12.2125   20.4767 C   0  0  0  0  0  0  0  0  0  0  0  0
  -25.5362  -13.8667   21.3608 C   0  0  0  0  0  0  0  0  0  0  0  0
  -30.7950  -17.1157   19.8366 C   0  0  0  0  0  0  0  0  0  0  0  0
  -23.0577  -14.1550   21.5110 C   0  0  0  0  0  0  0  0  0  0  0  0
  -23.6116  -28.7931   23.3615 C   0  0  0  0  0  0  0  0  0  0  0  0
  -20.9236  -28.3557   21.5991 C   0  0  0  0  0  0  0  0  0  0  0  0
  -27.8544  -23.0111   19.2177 C   0  0  0  0  0  0  0  0  0  0  0  0
  -19.4911  -27.1236   18.7572 C   0  0  0  0  0  0  0  0  0  0  0  0
  -30.7672  -14.6446   19.7088 C   0  0  0  0  0  0  0  0  0  0  0  0
  -23.0310  -31.2962   27.7723 C   0  0  0  0  0  0  0  0  0  0  0  0
  -24.3279  -29.6948   21.1188 C   0  0  0  0  0  0  0  0  0  0  0  0
  -22.9728  -27.0785   20.8678 C   0  0  0  0  0  0  0  0  0  0  0  0
  -22.1814  -30.3391   26.9401 C   0  0  0  0  0  0  0  0  0  0  0  0
  -29.9358  -11.4075   20.8610 C   0  0  0  0  0  0  0  0  0  0  0  0
  -22.9958  -29.1130   26.5396 C   0  0  0  0  0  0  0  0  0  0  0  0
  -28.4062  -11.4294   20.9267 C   0  0  0  0  0  0  0  0  0  0  0  0
  -30.4631  -12.1848   19.6557 C   0  0  0  0  0  0  0  0  0  0  0  0
  -28.4340  -13.5765   19.5950 C   0  0  0  0  0  0  0  0  0  0  0  0
  -24.1968  -29.5078   25.6718 C   0  0  1  0  0  0  0  0  0  0  0  0
  -23.1621  -29.3043   22.0220 C   0  0  1  0  0  0  0  0  0  0  0  0
  -27.8564  -12.8668   20.8302 C   0  0  1  0  0  0  0  0  0  0  0  0
  -17.2691  -26.8828   17.6161 C   0  0  0  0  0  0  0  0  0  0  0  0
  -20.1925  -26.0889   23.5062 C   0  0  0  0  0  0  0  0  0  0  0  0
  -18.5268  -25.2957   21.8138 C   0  0  0  0  0  0  0  0  0  0  0  0
  -18.2768  -27.5538   22.8439 C   0  0  0  0  0  0  0  0  0  0  0  0
  -20.3790  -28.7297   16.4353 C   0  0  0  0  0  0  0  0  0  0  0  0
  -26.6854  -23.9727   19.3240 C   0  0  0  0  0  0  0  0  0  1  0  0
  -20.1181  -27.1579   21.1572 C   0  0  1  0  0  0  0  0  0  0  0  0
  -18.5150  -27.7408   17.7720 C   0  0  2  0  0  0  0  0  0  0  0  0
  -19.3060  -26.5269   22.3233 C   0  0  0  0  0  0  0  0  0  0  0  0
  -25.6663  -11.8682   20.2947 N   0  0  0  0  0  0  0  0  0  0  0  0
  -26.3397  -12.8940   20.8427 N   0  0  0  0  0  0  0  0  0  0  0  0
  -22.3129  -28.2674   21.4322 N   0  0  0  0  0  0  0  0  0  0  0  0
  -29.9033  -13.5375   19.6425 N   0  0  0  0  0  0  0  0  0  0  0  0
  -26.4420  -19.2647   20.6002 N   0  0  0  0  0  0  0  0  0  0  0  0
  -26.0491  -14.9681   21.9492 N   0  0  0  0  0  0  0  0  0  0  0  0
  -21.8157  -13.5827   21.2040 N   0  0  0  0  0  0  0  0  0  0  0  0
  -27.4876  -21.7424   19.6537 N   0  0  0  0  0  0  0  0  0  0  0  0
  -30.1333  -15.8918   19.7333 N   0  0  0  0  0  0  0  0  0  0  0  0
  -23.7724  -29.7800   24.3152 N   0  0  0  0  0  0  0  0  0  0  0  0
  -19.3015  -27.6067   20.0347 N   0  0  0  0  0  0  0  0  0  0  0  0
  -19.1539  -27.8892   16.4338 N   0  3  0  0  0  0  0  0  0  0  0  0
  -32.0118  -17.2587   19.9191 O   0  0  0  0  0  0  0  0  0  0  0  0
  -23.0949  -15.2690   22.0865 O   0  0  0  0  0  0  0  0  0  0  0  0
  -23.7972  -27.5920   23.5185 O   0  0  0  0  0  0  0  0  0  0  0  0
  -20.3410  -29.3366   22.0683 O   0  0  0  0  0  0  0  0  0  0  0  0
  -28.9476  -23.3729   18.7953 O   0  0  0  0  0  0  0  0  0  0  0  0
  -20.3347  -26.2929   18.4273 O   0  0  0  0  0  0  0  0  0  0  0  0
  -31.9951  -14.5318   19.7789 O   0  0  0  0  0  0  0  0  0  0  0  0
  -20.2938   -8.8540   18.6823 O   0  0  0  0  0  0  0  0  0  0  0  0
  -27.0519  -25.2713   18.8596 O   0  0  0  0  0  0  0  0  0  1  0  0
  -20.7685   -3.4581   19.7130 F   0  0  0  0  0  0  0  0  0  0  0  0
  -18.3915   -7.5243   20.1842 F   0  0  0  0  0  0  0  0  0  0  0  0
  1  2  1  0  0  0  0
  1  6  2  0  0  0  0
  2  7  2  0  0  0  0
  3 10  2  0  0  0  0
  3 18  1  0  0  0  0
  4 11  1  0  0  0  0
  4 18  2  0  0  0  0
  5  9  2  0  0  0  0
  5 19  1  0  0  0  0
  6 21  1  0  0  0  0
  7 23  1  0  0  0  0
  8 12  2  0  0  0  0
  8 22  1  0  0  0  0
  9 25  1  0  0  0  0
 10 27  1  0  0  0  0
 11 27  2  0  0  0  0
 12 28  1  0  0  0  0
 13 14  2  0  0  0  0
 13 29  1  0  0  0  0
 14 30  1  0  0  0  0
 15 19  2  0  0  0  0
 15 26  1  0  0  0  0
 16 24  1  0  0  0  0
 16 28  2  0  0  0  0
 17 30  2  0  0  0  0
 17 31  1  0  0  0  0
 18 32  1  0  0  0  0
 19 34  1  0  0  0  0
 20 32  1  0  0  0  0
 20 33  2  0  0  0  0
 20 35  1  0  0  0  0
 21 23  2  0  0  0  0
 21 41  1  0  0  0  0
 22 24  2  0  0  0  0
 22 42  1  0  0  0  0
 23 50  1  0  0  0  0
 24 43  1  0  0  0  0
 25 26  2  0  0  0  0
 25 69  1  0  0  0  0
 26 66  1  0  0  0  0
 27 81  1  0  0  0  0
 28 82  1  0  0  0  0
 29 31  2  0  0  0  0
 29 81  1  0  0  0  0
 30 83  1  0  0  0  0
 31 84  1  0  0  0  0
 32 62  2  0  0  0  0
 33 63  1  0  0  0  0
 33 67  1  0  0  0  0
 34 70  1  0  0  0  0
 34 74  2  0  0  0  0
 35 68  1  0  0  0  0
 35 75  2  0  0  0  0
 36 51  1  0  0  0  0
 36 71  1  0  0  0  0
 36 76  2  0  0  0  0
 37 59  1  0  0  0  0
 37 64  1  0  0  0  0
 37 77  2  0  0  0  0
 38 58  1  0  0  0  0
 38 69  1  0  0  0  0
 38 78  2  0  0  0  0
 39 60  1  0  0  0  0
 39 72  1  0  0  0  0
 39 79  2  0  0  0  0
 40 65  1  0  0  0  0
 40 70  1  0  0  0  0
 40 80  2  0  0  0  0
 41 44  1  0  0  0  0
 42 51  1  0  0  0  0
 43 64  1  0  0  0  0
 44 46  1  0  0  0  0
 45 47  1  0  0  0  0
 45 48  1  0  0  0  0
 46 50  1  0  0  0  0
 47 52  1  0  0  0  0
 48 65  1  0  0  0  0
 49 52  1  0  0  0  0
 49 65  1  0  0  0  0
 50 71  1  0  0  0  0
 51 64  1  0  0  0  0
 52 63  1  0  0  0  0
 53 60  1  0  0  0  0
 54 61  1  0  0  0  0
 55 61  1  0  0  0  0
 56 61  1  0  0  0  0
 57 73  1  0  0  0  0
 58 82  1  0  0  0  0
 59 61  1  0  0  0  0
 59 72  1  0  0  0  0
 60 73  1  0  0  0  0
 62 63  1  0  0  0  0
M  CHG  1  73   1
M  ISO  4  40 100  58 101  70 100  82 101
M  END
> <Batch ID>
0088

> <Smiles>
CNC(C)C(=O)NC(C(=O)N1Cc2cc([101O:1][101CH2:1]C(=O)Nc3ccc(C(=O)[100NH:0][100C:0](=O)N4CCCC(n5nc(-c6ccc(Oc7ccc(F)cc7F)cc6)c(C(N)=O)c5N)C4)cc3N)ccc2CC1C(=O)NC1CCCc2ccccc21)C(C)(C)C

> <Shape>
0.296

> <Color>
0.097

> <Negative vol penalty>
0.000

$$$$

  -OEChem-04052300233D

 83 91  0     1  0  0  0  0  0999 V2000
  -25.7904  -23.2956   20.1893 C   0  0  0  0  0  0  0  0  0  0  0  0
  -28.9414  -37.4783   22.2050 C   0  0  0  0  0  0  0  0  0  0  0  0
  -29.1298  -36.4116   21.3320 C   0  0  0  0  0  0  0  0  0  0  0  0
  -24.6336   -8.5477   21.3016 C   0  0  0  0  0  0  0  0  0  0  0  0
  -23.3332  -10.5721   21.5204 C   0  0  0  0  0  0  0  0  0  0  0  0
  -26.4971  -19.4102   20.1307 C   0  0  0  0  0  0  0  0  0  0  0  0
  -28.4103  -37.2534   23.4743 C   0  0  0  0  0  0  0  0  0  0  0  0
  -28.7882  -35.1191   21.7284 C   0  0  0  0  0  0  0  0  0  0  0  0
  -26.2861  -28.9479   19.0879 C   0  0  0  0  0  0  0  0  0  0  0  0
  -26.7107  -18.0319   20.1106 C   0  0  0  0  0  0  0  0  0  0  0  0
  -23.8989   -7.9642   22.3337 C   0  0  0  0  0  0  0  0  0  0  0  0
  -22.5984   -9.9886   22.5525 C   0  0  0  0  0  0  0  0  0  0  0  0
  -26.5886  -27.5872   19.0594 C   0  0  0  0  0  0  0  0  0  0  0  0
  -20.8705   -6.5115   22.7230 C   0  0  0  0  0  0  0  0  0  0  0  0
  -20.4228   -5.2032   22.5406 C   0  0  0  0  0  0  0  0  0  0  0  0
  -25.6052  -27.3288   21.2469 C   0  0  0  0  0  0  0  0  0  0  0  0
  -29.0874  -18.4035   19.8863 C   0  0  0  0  0  0  0  0  0  0  0  0
  -21.6757   -4.5034   24.4842 C   0  0  0  0  0  0  0  0  0  0  0  0
  -24.3508   -9.8517   20.8949 C   0  0  0  0  0  0  0  0  0  0  0  0
  -27.5787  -20.2851   20.0284 C   0  0  0  0  0  0  0  0  0  0  0  0
  -24.8197  -10.4180   18.4522 C   0  0  0  0  0  0  0  0  0  0  0  0
  -28.0530  -35.9588   23.8829 C   0  0  0  0  0  0  0  0  0  0  0  0
  -25.6496  -29.5123   20.2027 C   0  0  0  0  0  0  0  0  0  0  0  0
  -28.2531  -34.8764   23.0048 C   0  0  0  0  0  0  0  0  0  0  0  0
  -25.2934  -28.6965   21.2860 C   0  0  0  0  0  0  0  0  0  0  0  0
  -28.0058  -17.5286   19.9885 C   0  0  0  0  0  0  0  0  0  0  0  0
  -22.8813   -8.6846   22.9591 C   0  0  0  0  0  0  0  0  0  0  0  0
  -26.2507  -26.7780   20.1402 C   0  0  0  0  0  0  0  0  0  0  0  0
  -21.7210   -6.8159   23.7859 C   0  0  0  0  0  0  0  0  0  0  0  0
  -20.8253   -4.1991   23.4212 C   0  0  0  0  0  0  0  0  0  0  0  0
  -28.8738  -19.7818   19.9063 C   0  0  0  0  0  0  0  0  0  0  0  0
  -22.1235   -5.8118   24.6666 C   0  0  0  0  0  0  0  0  0  0  0  0
  -25.1098  -10.4553   19.8292 C   0  0  0  0  0  0  0  0  0  0  0  0
  -25.8354  -11.1345   17.8678 C   0  0  0  0  0  0  0  0  0  0  0  0
  -25.5130  -24.5596   20.2128 C   0  0  0  0  0  0  0  0  0  1  0  0
  -27.3449  -21.7593   20.0475 C   0  0  0  0  0  0  0  0  0  0  0  0
  -23.7296   -9.7917   17.7629 C   0  0  0  0  0  0  0  0  0  0  0  0
  -26.4192  -31.7391   22.3364 C   0  0  0  0  0  0  0  0  0  0  0  0
  -23.3630  -31.2917   23.3272 C   0  0  0  0  0  0  0  0  0  0  0  0
  -20.6430  -29.2373   23.4950 C   0  0  0  0  0  0  0  0  0  0  0  0
  -29.4433  -15.4643   19.8530 C   0  0  0  0  0  0  0  0  0  0  0  0
  -27.5265  -35.7584   25.2819 C   0  0  0  0  0  0  0  0  0  0  0  0
  -25.3062  -30.9767   20.2066 C   0  0  0  0  0  0  0  0  0  0  0  0
  -24.5908  -29.2496   22.4980 C   0  0  0  0  0  0  0  0  0  0  0  0
  -26.8413  -34.4099   25.4876 C   0  0  0  0  0  0  0  0  0  0  0  0
  -30.4312  -12.3196   18.5069 C   0  0  0  0  0  0  0  0  0  0  0  0
  -27.6890  -33.2855   24.9012 C   0  0  0  0  0  0  0  0  0  0  0  0
  -29.1508  -11.4832   18.5623 C   0  0  0  0  0  0  0  0  0  0  0  0
  -30.5558  -13.2465   19.7148 C   0  0  0  0  0  0  0  0  0  0  0  0
  -28.1107  -13.2703   20.0153 C   0  0  0  0  0  0  0  0  0  0  0  0
  -27.8717  -33.4633   23.3891 C   0  0  1  0  0  0  0  0  0  0  0  0
  -25.1182  -31.5425   21.6108 C   0  0  1  0  0  0  0  0  0  0  0  0
  -27.9089  -12.3680   18.7870 C   0  0  2  0  0  0  0  0  0  0  0  0
  -18.3052  -29.1342   24.4013 C   0  0  0  0  0  0  0  0  0  0  0  0
  -24.4730  -30.8199   26.1299 C   0  0  0  0  0  0  0  0  0  0  0  0
  -22.2696  -29.8097   26.7569 C   0  0  0  0  0  0  0  0  0  0  0  0
  -22.3886  -32.1996   26.0520 C   0  0  0  0  0  0  0  0  0  0  0  0
  -19.4843  -28.9211   20.7901 C   0  0  0  0  0  0  0  0  0  0  0  0
  -22.6838  -30.3807   24.3210 C   0  0  1  0  0  0  0  0  0  0  0  0
  -19.1740  -29.4852   23.2034 C   0  0  2  0  0  0  0  0  0  0  0  0
  -22.9687  -30.7921   25.7931 C   0  0  0  0  0  0  0  0  0  0  0  0
  -26.2227  -11.1411   20.1033 N   0  0  0  0  0  0  0  0  0  0  0  0
  -26.0246  -22.1452   20.1696 N   0  0  0  0  0  0  0  0  0  0  0  0
  -26.6409  -11.5413   18.8905 N   0  0  0  0  0  0  0  0  0  0  0  0
  -24.2822  -30.6886   22.4571 N   0  0  0  0  0  0  0  0  0  0  0  0
  -29.3448  -14.0568   19.8625 N   0  0  0  0  0  0  0  0  0  0  0  0
  -26.1091  -11.4500   16.5841 N   0  0  0  0  0  0  0  0  0  0  0  0
  -22.7744   -9.0957   18.5162 N   0  0  0  0  0  0  0  0  0  0  0  0
  -28.2226  -16.1285   19.9682 N   0  0  0  0  0  0  0  0  0  0  0  0
  -26.6769  -33.0514   22.6838 N   0  0  0  0  0  0  0  0  0  0  0  0
  -21.2687  -30.3721   23.9662 N   0  0  0  0  0  0  0  0  0  0  0  0
  -18.7300  -28.6617   22.0434 N   0  3  0  0  0  0  0  0  0  0  0  0
  -28.3131  -22.5110   19.9563 O   0  0  0  0  0  0  0  0  0  0  0  0
  -23.6153   -9.8336   16.5144 O   0  0  0  0  0  0  0  0  0  0  0  0
  -27.1354  -30.7715   22.5654 O   0  0  0  0  0  0  0  0  0  0  0  0
  -23.0828  -32.4930   23.3183 O   0  0  0  0  0  0  0  0  0  0  0  0
  -21.1808  -28.1453   23.3254 O   0  0  0  0  0  0  0  0  0  0  0  0
  -30.5277  -16.0380   19.7231 O   0  0  0  0  0  0  0  0  0  0  0  0
  -22.1640   -8.1154   23.9661 O   0  0  0  0  0  0  0  0  0  0  0  0
  -26.5454  -25.4497   20.1152 O   0  0  0  0  0  0  0  0  0  1  0  0
  -20.3940   -2.9430   23.2468 F   0  0  0  0  0  0  0  0  0  0  0  0
  -29.9208  -20.6134   19.8069 F   0  0  0  0  0  0  0  0  0  0  0  0
  -22.9394   -6.0983   25.6903 F   0  0  0  0  0  0  0  0  0  0  0  0
  1 35  2  0  0  0  0
  1 63  2  0  0  0  0
  2  3  1  0  0  0  0
  2  7  2  0  0  0  0
  3  8  2  0  0  0  0
  4 11  2  0  0  0  0
  4 19  1  0  0  0  0
  5 12  1  0  0  0  0
  5 19  2  0  0  0  0
  6 10  2  0  0  0  0
  6 20  1  0  0  0  0
  7 22  1  0  0  0  0
  8 24  1  0  0  0  0
  9 13  2  0  0  0  0
  9 23  1  0  0  0  0
 10 26  1  0  0  0  0
 11 27  1  0  0  0  0
 12 27  2  0  0  0  0
 13 28  1  0  0  0  0
 14 15  2  0  0  0  0
 14 29  1  0  0  0  0
 15 30  1  0  0  0  0
 16 25  1  0  0  0  0
 16 28  2  0  0  0  0
 17 26  2  0  0  0  0
 17 31  1  0  0  0  0
 18 30  2  0  0  0  0
 18 32  1  0  0  0  0
 19 33  1  0  0  0  0
 20 31  2  0  0  0  0
 20 36  1  0  0  0  0
 21 33  1  0  0  0  0
 21 34  2  0  0  0  0
 21 37  1  0  0  0  0
 22 24  2  0  0  0  0
 22 42  1  0  0  0  0
 23 25  2  0  0  0  0
 23 43  1  0  0  0  0
 24 51  1  0  0  0  0
 25 44  1  0  0  0  0
 26 69  1  0  0  0  0
 27 79  1  0  0  0  0
 28 80  1  0  0  0  0
 29 32  2  0  0  0  0
 29 79  1  0  0  0  0
 30 81  1  0  0  0  0
 31 82  1  0  0  0  0
 32 83  1  0  0  0  0
 33 62  2  0  0  0  0
 34 64  1  0  0  0  0
 34 67  1  0  0  0  0
 35 80  1  0  0  0  0
 36 63  1  0  0  0  0
 36 73  2  0  0  0  0
 37 68  1  0  0  0  0
 37 74  2  0  0  0  0
 38 52  1  0  0  0  0
 38 70  1  0  0  0  0
 38 75  2  0  0  0  0
 39 59  1  0  0  0  0
 39 65  1  0  0  0  0
 39 76  2  0  0  0  0
 40 60  1  0  0  0  0
 40 71  1  0  0  0  0
 40 77  2  0  0  0  0
 41 66  1  0  0  0  0
 41 69  1  0  0  0  0
 41 78  2  0  0  0  0
 42 45  1  0  0  0  0
 43 52  1  0  0  0  0
 44 65  1  0  0  0  0
 45 47  1  0  0  0  0
 46 48  1  0  0  0  0
 46 49  1  0  0  0  0
 47 51  1  0  0  0  0
 48 53  1  0  0  0  0
 49 66  1  0  0  0  0
 50 53  1  0  0  0  0
 50 66  1  0  0  0  0
 51 70  1  0  0  0  0
 52 65  1  0  0  0  0
 53 64  1  0  0  0  0
 54 60  1  0  0  0  0
 55 61  1  0  0  0  0
 56 61  1  0  0  0  0
 57 61  1  0  0  0  0
 58 72  1  0  0  0  0
 59 61  1  0  0  0  0
 59 71  1  0  0  0  0
 60 72  1  0  0  0  0
 62 64  1  0  0  0  0
M  CHG  1  72   1
M  ISO  4  35 101  41 100  69 100  80 101
M  END
> <Batch ID>
0088

> <Smiles>
CNC(C)C(=O)NC(C(=O)N1Cc2cc([101O:1][101CH:1]=C=NC(=O)c3ccc([100NH:0][100C:0](=O)N4CCCC(n5nc(-c6ccc(Oc7ccc(F)cc7F)cc6)c(C(N)=O)c5N)C4)cc3F)ccc2CC1C(=O)NC1CCCc2ccccc21)C(C)(C)C

> <Shape>
0.305

> <Color>
0.103

> <Negative vol penalty>
0.000

$$$$

  -OEChem-04052300233D

 83 91  0     1  0  0  0  0  0999 V2000
  -28.8971  -33.0343   25.6085 C   0  0  0  0  0  0  0  0  0  0  0  0
  -28.6241  -31.6741   25.7118 C   0  0  0  0  0  0  0  0  0  0  0  0
  -32.3745  -17.7826   23.3010 C   0  0  0  0  0  0  0  0  0  0  0  0
  -23.0605   -9.7391   20.0299 C   0  0  0  0  0  0  0  0  0  0  0  0
  -23.6387  -10.0358   22.3569 C   0  0  0  0  0  0  0  0  0  0  0  0
  -27.9085  -33.9106   25.1626 C   0  0  0  0  0  0  0  0  0  0  0  0
  -27.3620  -31.1895   25.3703 C   0  0  0  0  0  0  0  0  0  0  0  0
  -27.5914  -26.9918   22.5468 C   0  0  0  0  0  0  0  0  0  0  0  0
  -31.8520  -16.7914   22.4703 C   0  0  0  0  0  0  0  0  0  0  0  0
  -31.5273  -18.7327   23.8714 C   0  0  0  0  0  0  0  0  0  0  0  0
  -22.2933   -8.6228   20.3628 C   0  0  0  0  0  0  0  0  0  0  0  0
  -22.8714   -8.9195   22.6898 C   0  0  0  0  0  0  0  0  0  0  0  0
  -27.8645  -25.7945   23.2070 C   0  0  0  0  0  0  0  0  0  0  0  0
  -23.1874   -5.5553   22.5760 C   0  0  0  0  0  0  0  0  0  0  0  0
  -23.7394   -4.6304   23.4622 C   0  0  0  0  0  0  0  0  0  0  0  0
  -25.5157  -25.2459   23.1710 C   0  0  0  0  0  0  0  0  0  0  0  0
  -21.9106   -5.0080   24.9953 C   0  0  0  0  0  0  0  0  0  0  0  0
  -23.7333  -10.4455   21.0269 C   0  0  0  0  0  0  0  0  0  0  0  0
  -24.0968  -12.9375   20.6198 C   0  0  0  0  0  0  0  0  0  0  0  0
  -26.6367  -33.4352   24.8062 C   0  0  0  0  0  0  0  0  0  0  0  0
  -26.2748  -27.3307   22.2029 C   0  0  0  0  0  0  0  0  0  0  0  0
  -26.3551  -32.0604   24.9204 C   0  0  0  0  0  0  0  0  0  0  0  0
  -25.2288  -26.4468   22.5043 C   0  0  0  0  0  0  0  0  0  0  0  0
  -30.4823  -16.7504   22.2098 C   0  0  0  0  0  0  0  0  0  0  0  0
  -22.1987   -8.2130   21.6927 C   0  0  0  0  0  0  0  0  0  0  0  0
  -26.8263  -24.9227   23.5218 C   0  0  0  0  0  0  0  0  0  0  0  0
  -21.9970   -6.2066   22.8993 C   0  0  0  0  0  0  0  0  0  0  0  0
  -30.1576  -18.6916   23.6109 C   0  0  0  0  0  0  0  0  0  0  0  0
  -23.1010   -4.3567   24.6719 C   0  0  0  0  0  0  0  0  0  0  0  0
  -21.3586   -5.9329   24.1090 C   0  0  0  0  0  0  0  0  0  0  0  0
  -29.6351  -17.7004   22.7801 C   0  0  0  0  0  0  0  0  0  0  0  0
  -24.5265  -11.5984   20.6836 C   0  0  0  0  0  0  0  0  0  0  0  0
  -25.2180  -13.6407   20.2524 C   0  0  0  0  0  0  0  0  0  0  0  0
  -28.2465  -21.6854   24.1094 C   0  0  0  0  0  0  0  0  0  0  0  0
  -27.9255  -22.8585   23.5600 C   0  0  0  0  0  0  0  0  0  1  0  0
  -22.8002  -13.4958   20.8703 C   0  0  0  0  0  0  0  0  0  0  0  0
  -29.1574  -20.7691   23.3900 C   0  0  0  0  0  0  0  0  0  0  0  0
  -24.2915  -29.6915   22.9755 C   0  0  0  0  0  0  0  0  0  0  0  0
  -22.3968  -28.3105   20.7338 C   0  0  0  0  0  0  0  0  0  0  0  0
  -21.5574  -25.5072   18.9778 C   0  0  0  0  0  0  0  0  0  0  0  0
  -30.6592  -14.7246   20.7227 C   0  0  0  0  0  0  0  0  0  0  0  0
  -25.5856  -34.4270   24.3745 C   0  0  0  0  0  0  0  0  0  0  0  0
  -26.0001  -28.6135   21.4672 C   0  0  0  0  0  0  0  0  0  0  0  0
  -23.8005  -26.7546   22.1388 C   0  0  0  0  0  0  0  0  0  0  0  0
  -24.3909  -33.7831   23.6758 C   0  0  0  0  0  0  0  0  0  0  0  0
  -29.7208  -12.0290   18.5943 C   0  0  0  0  0  0  0  0  0  0  0  0
  -23.9104  -32.5632   24.4553 C   0  0  0  0  0  0  0  0  0  0  0  0
  -28.2504  -11.7868   18.9429 C   0  0  0  0  0  0  0  0  0  0  0  0
  -30.5403  -12.4102   19.8259 C   0  0  0  0  0  0  0  0  0  0  0  0
  -28.5349  -13.2928   20.9524 C   0  0  0  0  0  0  0  0  0  0  0  0
  -25.0059  -31.4932   24.5357 C   0  0  1  0  0  0  0  0  0  0  0  0
  -24.5609  -29.0951   21.6229 C   0  0  1  0  0  0  0  0  0  0  0  0
  -27.6564  -12.9694   19.7329 C   0  0  2  0  0  0  0  0  0  0  0  0
  -19.9434  -24.6781   17.2444 C   0  0  0  0  0  0  0  0  0  0  0  0
  -20.1890  -28.2171   22.8378 C   0  0  0  0  0  0  0  0  0  0  0  0
  -18.9786  -26.5684   21.3938 C   0  0  0  0  0  0  0  0  0  0  0  0
  -19.4223  -28.8734   20.5496 C   0  0  0  0  0  0  0  0  0  0  0  0
  -23.7419  -24.8372   17.0969 C   0  0  0  0  0  0  0  0  0  0  0  0
  -21.3377  -27.2348   20.7446 C   0  0  1  0  0  0  0  0  0  0  0  0
  -21.3166  -25.2811   17.4962 C   0  0  2  0  0  0  0  0  0  0  0  0
  -20.0085  -27.7182   21.3902 C   0  0  0  0  0  0  0  0  0  0  0  0
  -25.8197  -11.4568   20.3808 N   0  0  0  0  0  0  0  0  0  0  0  0
  -26.2122  -12.7160   20.1232 N   0  0  0  0  0  0  0  0  0  0  0  0
  -23.5820  -28.0241   21.4259 N   0  0  0  0  0  0  0  0  0  0  0  0
  -29.9198  -13.5399   20.5213 N   0  0  0  0  0  0  0  0  0  0  0  0
  -25.4405  -14.9535   20.0305 N   0  0  0  0  0  0  0  0  0  0  0  0
  -21.7602  -12.6313   21.2381 N   0  0  0  0  0  0  0  0  0  0  0  0
  -29.9547  -15.7417   21.3660 N   0  0  0  0  0  0  0  0  0  0  0  0
  -25.0983  -30.7696   23.2858 N   0  0  0  0  0  0  0  0  0  0  0  0
  -21.2017  -26.7820   19.3644 N   0  0  0  0  0  0  0  0  0  0  0  0
  -22.3448  -24.3573   16.9393 N   0  3  0  0  0  0  0  0  0  0  0  0
  -22.5667  -14.7229   20.7549 O   0  0  0  0  0  0  0  0  0  0  0  0
  -29.6646  -20.9881   22.3007 O   0  0  0  0  0  0  0  0  0  0  0  0
  -23.4156  -29.2101   23.6845 O   0  0  0  0  0  0  0  0  0  0  0  0
  -22.1832  -29.3633   20.1274 O   0  0  0  0  0  0  0  0  0  0  0  0
  -22.0120  -24.6384   19.7189 O   0  0  0  0  0  0  0  0  0  0  0  0
  -31.8223  -14.8387   20.3275 O   0  0  0  0  0  0  0  0  0  0  0  0
  -21.4499   -7.1239   22.0180 O   0  0  0  0  0  0  0  0  0  0  0  0
  -27.0900  -23.7538   24.1667 O   0  0  0  0  0  0  0  0  0  1  0  0
  -29.3111  -19.6442   24.1841 O   0  0  0  0  0  0  0  0  0  0  0  0
  -23.6304   -3.4674   25.5222 F   0  0  0  0  0  0  0  0  0  0  0  0
  -20.2142   -6.5546   24.4246 F   0  0  0  0  0  0  0  0  0  0  0  0
  -28.3171  -17.6650   22.5332 F   0  0  0  0  0  0  0  0  0  0  0  0
  1  2  1  0  0  0  0
  1  6  2  0  0  0  0
  2  7  2  0  0  0  0
  3  9  1  0  0  0  0
  3 10  2  0  0  0  0
  4 11  2  0  0  0  0
  4 18  1  0  0  0  0
  5 12  1  0  0  0  0
  5 18  2  0  0  0  0
  6 20  1  0  0  0  0
  7 22  1  0  0  0  0
  8 13  2  0  0  0  0
  8 21  1  0  0  0  0
  9 24  2  0  0  0  0
 10 28  1  0  0  0  0
 11 25  1  0  0  0  0
 12 25  2  0  0  0  0
 13 26  1  0  0  0  0
 14 15  2  0  0  0  0
 14 27  1  0  0  0  0
 15 29  1  0  0  0  0
 16 23  1  0  0  0  0
 16 26  2  0  0  0  0
 17 29  2  0  0  0  0
 17 30  1  0  0  0  0
 18 32  1  0  0  0  0
 19 32  1  0  0  0  0
 19 33  2  0  0  0  0
 19 36  1  0  0  0  0
 20 22  2  0  0  0  0
 20 42  1  0  0  0  0
 21 23  2  0  0  0  0
 21 43  1  0  0  0  0
 22 51  1  0  0  0  0
 23 44  1  0  0  0  0
 24 31  1  0  0  0  0
 24 68  1  0  0  0  0
 25 78  1  0  0  0  0
 26 79  1  0  0  0  0
 27 30  2  0  0  0  0
 27 78  1  0  0  0  0
 28 31  2  0  0  0  0
 28 80  1  0  0  0  0
 29 81  1  0  0  0  0
 30 82  1  0  0  0  0
 31 83  1  0  0  0  0
 32 62  2  0  0  0  0
 33 63  1  0  0  0  0
 33 66  1  0  0  0  0
 34 35  2  0  0  0  0
 34 37  1  0  0  0  0
 35 79  1  0  0  0  0
 36 67  1  0  0  0  0
 36 72  2  0  0  0  0
 37 73  2  0  0  0  0
 37 80  1  0  0  0  0
 38 52  1  0  0  0  0
 38 69  1  0  0  0  0
 38 74  2  0  0  0  0
 39 59  1  0  0  0  0
 39 64  1  0  0  0  0
 39 75  2  0  0  0  0
 40 60  1  0  0  0  0
 40 70  1  0  0  0  0
 40 76  2  0  0  0  0
 41 65  1  0  0  0  0
 41 68  1  0  0  0  0
 41 77  2  0  0  0  0
 42 45  1  0  0  0  0
 43 52  1  0  0  0  0
 44 64  1  0  0  0  0
 45 47  1  0  0  0  0
 46 48  1  0  0  0  0
 46 49  1  0  0  0  0
 47 51  1  0  0  0  0
 48 53  1  0  0  0  0
 49 65  1  0  0  0  0
 50 53  1  0  0  0  0
 50 65  1  0  0  0  0
 51 69  1  0  0  0  0
 52 64  1  0  0  0  0
 53 63  1  0  0  0  0
 54 60  1  0  0  0  0
 55 61  1  0  0  0  0
 56 61  1  0  0  0  0
 57 61  1  0  0  0  0
 58 71  1  0  0  0  0
 59 61  1  0  0  0  0
 59 70  1  0  0  0  0
 60 71  1  0  0  0  0
 62 63  1  0  0  0  0
M  CHG  1  71   1
M  ISO  4  35 101  41 100  68 100  79 101
M  END
> <Batch ID>
0088

> <Smiles>
CNC(C)C(=O)NC(C(=O)N1Cc2cc([101O:1][101CH:1]=CC(=O)Oc3cccc([100NH:0][100C:0](=O)N4CCCC(n5nc(-c6ccc(Oc7ccc(F)cc7F)cc6)c(C(N)=O)c5N)C4)c3F)ccc2CC1C(=O)NC1CCCc2ccccc21)C(C)(C)C

> <Shape>
0.312

> <Color>
0.209

> <Negative vol penalty>
0.000

$$$$

  -OEChem-04052300233D

 87 96  0     1  0  0  0  0  0999 V2000
  -29.2461  -36.9793   23.4374 C   0  0  0  0  0  0  0  0  0  0  0  0
  -29.5236  -35.6907   22.9925 C   0  0  0  0  0  0  0  0  0  0  0  0
  -24.2475   -9.3654   21.5980 C   0  0  0  0  0  0  0  0  0  0  0  0
  -24.8008  -10.7020   23.5331 C   0  0  0  0  0  0  0  0  0  0  0  0
  -28.1094  -37.2198   24.2080 C   0  0  0  0  0  0  0  0  0  0  0  0
  -28.6650  -34.6416   23.3189 C   0  0  0  0  0  0  0  0  0  0  0  0
  -27.2938  -29.7892   19.8433 C   0  0  0  0  0  0  0  0  0  0  0  0
  -23.9107   -8.2986   22.4311 C   0  0  0  0  0  0  0  0  0  0  0  0
  -24.4639   -9.6352   24.3662 C   0  0  0  0  0  0  0  0  0  0  0  0
  -27.7727  -28.4799   19.8295 C   0  0  0  0  0  0  0  0  0  0  0  0
  -21.2974   -7.3817   24.3709 C   0  0  0  0  0  0  0  0  0  0  0  0
  -20.1163   -6.6925   24.0962 C   0  0  0  0  0  0  0  0  0  0  0  0
  -25.9137  -27.7919   21.2043 C   0  0  0  0  0  0  0  0  0  0  0  0
  -28.1612  -20.6531   20.5029 C   0  0  0  0  0  0  0  0  0  0  0  0
  -30.3085  -19.0025   19.8340 C   0  0  0  0  0  0  0  0  0  0  0  0
  -21.3769   -4.6545   23.7891 C   0  0  0  0  0  0  0  0  0  0  0  0
  -24.6926  -10.5671   22.1490 C   0  0  0  0  0  0  0  0  0  0  0  0
  -24.1888  -12.6903   20.8276 C   0  0  0  0  0  0  0  0  0  0  0  0
  -27.2313  -36.1748   24.5360 C   0  0  0  0  0  0  0  0  0  0  0  0
  -26.1252  -30.1123   20.5479 C   0  0  0  0  0  0  0  0  0  0  0  0
  -27.5162  -34.8681   24.0958 C   0  0  0  0  0  0  0  0  0  0  0  0
  -25.4207  -29.1056   21.2233 C   0  0  0  0  0  0  0  0  0  0  0  0
  -29.4578  -21.1669   20.4889 C   0  0  0  0  0  0  0  0  0  0  0  0
  -27.9381  -19.3139   20.1826 C   0  0  0  0  0  0  0  0  0  0  0  0
  -29.0118  -18.4886   19.8481 C   0  0  0  0  0  0  0  0  0  0  0  0
  -24.0188   -8.4335   23.8152 C   0  0  0  0  0  0  0  0  0  0  0  0
  -27.0842  -27.4816   20.5125 C   0  0  0  0  0  0  0  0  0  0  0  0
  -22.5183   -6.7073   24.3547 C   0  0  0  0  0  0  0  0  0  0  0  0
  -20.1560   -5.3289   23.8053 C   0  0  0  0  0  0  0  0  0  0  0  0
  -30.5315  -20.3417   20.1544 C   0  0  0  0  0  0  0  0  0  0  0  0
  -22.5581   -5.3437   24.0638 C   0  0  0  0  0  0  0  0  0  0  0  0
  -25.0412  -11.6693   21.2889 C   0  0  0  0  0  0  0  0  0  0  0  0
  -24.9947  -13.4849   20.0494 C   0  0  0  0  0  0  0  0  0  0  0  0
  -29.3525  -24.7567   21.0474 C   0  0  0  0  0  0  0  0  0  0  0  0
  -30.6867  -24.4472   21.5796 C   0  0  0  0  0  0  0  0  0  0  0  0
  -28.7210  -23.5131   20.5616 C   0  0  0  0  0  0  0  0  0  0  0  0
  -28.7971  -25.9679   21.0079 C   0  0  0  0  0  0  0  0  0  1  0  0
  -22.7934  -12.9016   21.0801 C   0  0  0  0  0  0  0  0  0  0  0  0
  -25.4372  -32.0178   22.9973 C   0  0  0  0  0  0  0  0  0  0  0  0
  -22.3856  -31.1718   22.2943 C   0  0  0  0  0  0  0  0  0  0  0  0
  -20.2590  -28.9059   20.8836 C   0  0  0  0  0  0  0  0  0  0  0  0
  -29.7827  -16.1879   19.1709 C   0  0  0  0  0  0  0  0  0  0  0  0
  -26.0402  -36.4750   25.4112 C   0  0  0  0  0  0  0  0  0  0  0  0
  -25.6072  -31.5243   20.5308 C   0  0  0  0  0  0  0  0  0  0  0  0
  -24.1502  -29.3965   21.9780 C   0  0  0  0  0  0  0  0  0  0  0  0
  -30.9282  -22.9735   21.4362 C   0  0  0  0  0  0  0  0  0  0  0  0
  -24.9821  -35.3748   25.3983 C   0  0  0  0  0  0  0  0  0  0  0  0
  -29.6958  -12.7288   18.3319 C   0  0  0  0  0  0  0  0  0  0  0  0
  -25.6336  -34.0056   25.5648 C   0  0  0  0  0  0  0  0  0  0  0  0
  -28.4070  -12.2287   18.9884 C   0  0  0  0  0  0  0  0  0  0  0  0
  -30.3979  -13.7804   19.1891 C   0  0  0  0  0  0  0  0  0  0  0  0
  -28.2674  -14.4129   20.2521 C   0  0  0  0  0  0  0  0  0  0  0  0
  -26.5957  -33.7082   24.4083 C   0  0  1  0  0  0  0  0  0  0  0  0
  -24.6880  -31.8378   21.7073 C   0  0  1  0  0  0  0  0  0  0  0  0
  -27.4909  -13.3995   19.3955 C   0  0  2  0  0  0  0  0  0  0  0  0
  -17.8180  -28.4697   20.4983 C   0  0  0  0  0  0  0  0  0  0  0  0
  -22.0755  -30.3420   25.2141 C   0  0  0  0  0  0  0  0  0  0  0  0
  -20.0201  -29.0700   24.5618 C   0  0  0  0  0  0  0  0  0  0  0  0
  -20.1029  -31.5443   24.2562 C   0  0  0  0  0  0  0  0  0  0  0  0
  -20.5979  -28.9408   17.9437 C   0  0  0  0  0  0  0  0  0  0  0  0
  -21.4586  -30.0600   22.7229 C   0  0  1  0  0  0  0  0  0  0  0  0
  -19.0903  -29.0790   19.9304 C   0  0  2  0  0  0  0  0  0  0  0  0
  -20.9393  -30.2486   24.1763 C   0  0  0  0  0  0  0  0  0  0  0  0
  -26.2927  -11.8007   20.8409 N   0  0  0  0  0  0  0  0  0  0  0  0
  -26.2325  -12.9136   20.0900 N   0  0  0  0  0  0  0  0  0  0  0  0
  -29.6782  -22.5043   20.8105 N   0  0  0  0  0  0  0  0  0  0  0  0
  -23.6875  -30.7936   21.9367 N   0  0  0  0  0  0  0  0  0  0  0  0
  -29.4702  -14.8603   19.5324 N   0  0  0  0  0  0  0  0  0  0  0  0
  -26.6167  -18.8142   20.2025 N   0  0  0  0  0  0  0  0  0  0  0  0
  -24.7582  -14.6095   19.3411 N   0  0  0  0  0  0  0  0  0  0  0  0
  -22.1176  -11.9896   21.9023 N   0  0  0  0  0  0  0  0  0  0  0  0
  -28.8109  -17.1247   19.5207 N   0  0  0  0  0  0  0  0  0  0  0  0
  -25.8591  -33.3135   23.2268 N   0  0  0  0  0  0  0  0  0  0  0  0
  -20.4053  -29.9956   21.7156 N   0  0  0  0  0  0  0  0  0  0  0  0
  -19.3844  -28.4218   18.6255 N   0  3  0  0  0  0  0  0  0  0  0  0
  -31.4670  -25.2526   22.0574 O   0  0  0  0  0  0  0  0  0  0  0  0
  -27.6136  -23.4199   20.0615 O   0  0  0  0  0  0  0  0  0  0  0  0
  -22.1606  -13.8612   20.5778 O   0  0  0  0  0  0  0  0  0  0  0  0
  -25.6178  -31.0529   23.7308 O   0  0  0  0  0  0  0  0  0  0  0  0
  -21.9677  -32.3322   22.2706 O   0  0  0  0  0  0  0  0  0  0  0  0
  -20.9688  -27.9025   20.8919 O   0  0  0  0  0  0  0  0  0  0  0  0
  -30.8224  -16.4690   18.5692 O   0  0  0  0  0  0  0  0  0  0  0  0
  -23.6900   -7.3928   24.6284 O   0  0  0  0  0  0  0  0  0  0  0  0
  -27.5498  -26.2029   20.5012 O   0  0  0  0  0  0  0  0  0  1  0  0
  -19.0215   -4.6669   23.5430 F   0  0  0  0  0  0  0  0  0  0  0  0
  -31.7820  -20.8248   20.1370 F   0  0  0  0  0  0  0  0  0  0  0  0
  -23.7279   -4.6902   24.0480 F   0  0  0  0  0  0  0  0  0  0  0  0
  1  2  1  0  0  0  0
  1  5  2  0  0  0  0
  2  6  2  0  0  0  0
  3  8  2  0  0  0  0
  3 17  1  0  0  0  0
  4  9  1  0  0  0  0
  4 17  2  0  0  0  0
  5 19  1  0  0  0  0
  6 21  1  0  0  0  0
  7 10  2  0  0  0  0
  7 20  1  0  0  0  0
  8 26  1  0  0  0  0
  9 26  2  0  0  0  0
 10 27  1  0  0  0  0
 11 12  2  0  0  0  0
 11 28  1  0  0  0  0
 12 29  1  0  0  0  0
 13 22  1  0  0  0  0
 13 27  2  0  0  0  0
 14 23  1  0  0  0  0
 14 24  2  0  0  0  0
 15 25  2  0  0  0  0
 15 30  1  0  0  0  0
 16 29  2  0  0  0  0
 16 31  1  0  0  0  0
 17 32  1  0  0  0  0
 18 32  1  0  0  0  0
 18 33  2  0  0  0  0
 18 38  1  0  0  0  0
 19 21  2  0  0  0  0
 19 43  1  0  0  0  0
 20 22  2  0  0  0  0
 20 44  1  0  0  0  0
 21 53  1  0  0  0  0
 22 45  1  0  0  0  0
 23 30  2  0  0  0  0
 23 66  1  0  0  0  0
 24 25  1  0  0  0  0
 24 69  1  0  0  0  0
 25 72  1  0  0  0  0
 26 83  1  0  0  0  0
 27 84  1  0  0  0  0
 28 31  2  0  0  0  0
 28 83  1  0  0  0  0
 29 85  1  0  0  0  0
 30 86  1  0  0  0  0
 31 87  1  0  0  0  0
 32 64  2  0  0  0  0
 33 65  1  0  0  0  0
 33 70  1  0  0  0  0
 34 35  1  0  0  0  0
 34 36  1  0  0  0  0
 34 37  2  0  0  0  0
 35 46  1  0  0  0  0
 35 76  2  0  0  0  0
 36 66  1  0  0  0  0
 36 77  2  0  0  0  0
 37 84  1  0  0  0  0
 38 71  1  0  0  0  0
 38 78  2  0  0  0  0
 39 54  1  0  0  0  0
 39 73  1  0  0  0  0
 39 79  2  0  0  0  0
 40 61  1  0  0  0  0
 40 67  1  0  0  0  0
 40 80  2  0  0  0  0
 41 62  1  0  0  0  0
 41 74  1  0  0  0  0
 41 81  2  0  0  0  0
 42 68  1  0  0  0  0
 42 72  1  0  0  0  0
 42 82  2  0  0  0  0
 43 47  1  0  0  0  0
 44 54  1  0  0  0  0
 45 67  1  0  0  0  0
 46 66  1  0  0  0  0
 47 49  1  0  0  0  0
 48 50  1  0  0  0  0
 48 51  1  0  0  0  0
 49 53  1  0  0  0  0
 50 55  1  0  0  0  0
 51 68  1  0  0  0  0
 52 55  1  0  0  0  0
 52 68  1  0  0  0  0
 53 73  1  0  0  0  0
 54 67  1  0  0  0  0
 55 65  1  0  0  0  0
 56 62  1  0  0  0  0
 57 63  1  0  0  0  0
 58 63  1  0  0  0  0
 59 63  1  0  0  0  0
 60 75  1  0  0  0  0
 61 63  1  0  0  0  0
 61 74  1  0  0  0  0
 62 75  1  0  0  0  0
 64 65  1  0  0  0  0
M  CHG  1  75   1
M  ISO  4  37 101  42 100  72 100  84 101
M  END
> <Batch ID>
0088

> <Smiles>
CNC(C)C(=O)NC(C(=O)N1Cc2cc([101O:1][101CH:1]=C3C(=O)CN(c4cc(N)c([100NH:0][100C:0](=O)N5CCCC(n6nc(-c7ccc(Oc8ccc(F)cc8F)cc7)c(C(N)=O)c6N)C5)cc4F)C3=O)ccc2CC1C(=O)NC1CCCc2ccccc21)C(C)(C)C

> <Shape>
0.352

> <Color>
0.114

> <Negative vol penalty>
0.000

$$$$

  -OEChem-04052300233D

 86 94  0     1  0  0  0  0  0999 V2000
  -20.3066  -27.7629   16.2877 C   0  0  0  0  0  0  0  0  0  0  0  0
  -21.2042  -27.1153   17.1304 C   0  0  0  0  0  0  0  0  0  0  0  0
  -29.8122  -19.8465   18.5601 C   0  0  0  0  0  0  0  0  0  0  0  0
  -24.1556   -8.5183   20.3233 C   0  0  0  0  0  0  0  0  0  0  0  0
  -22.9477  -10.4762   21.0613 C   0  0  0  0  0  0  0  0  0  0  0  0
  -20.2946  -29.1555   16.2219 C   0  0  0  0  0  0  0  0  0  0  0  0
  -22.0911  -27.8599   17.9071 C   0  0  0  0  0  0  0  0  0  0  0  0
  -22.3708  -26.1877   22.6790 C   0  0  0  0  0  0  0  0  0  0  0  0
  -29.1000  -20.5895   19.5016 C   0  0  0  0  0  0  0  0  0  0  0  0
  -29.9107  -18.4615   18.6943 C   0  0  0  0  0  0  0  0  0  0  0  0
  -23.1602   -7.7018   20.8602 C   0  0  0  0  0  0  0  0  0  0  0  0
  -21.9523   -9.6598   21.5982 C   0  0  0  0  0  0  0  0  0  0  0  0
  -23.1379  -25.0467   22.9099 C   0  0  0  0  0  0  0  0  0  0  0  0
  -22.2597   -6.5489   23.9072 C   0  0  0  0  0  0  0  0  0  0  0  0
  -22.6633   -5.4403   24.6513 C   0  0  0  0  0  0  0  0  0  0  0  0
  -24.9562  -26.4323   23.6799 C   0  0  0  0  0  0  0  0  0  0  0  0
  -21.5202   -3.9829   23.1000 C   0  0  0  0  0  0  0  0  0  0  0  0
  -24.0493   -9.9055   20.4238 C   0  0  0  0  0  0  0  0  0  0  0  0
  -25.1338  -11.2760   18.5656 C   0  0  0  0  0  0  0  0  0  0  0  0
  -21.1752  -29.9179   17.0053 C   0  0  0  0  0  0  0  0  0  0  0  0
  -22.8954  -27.4623   22.9369 C   0  0  0  0  0  0  0  0  0  0  0  0
  -22.0918  -29.2640   17.8507 C   0  0  0  0  0  0  0  0  0  0  0  0
  -24.1928  -27.5878   23.4538 C   0  0  0  0  0  0  0  0  0  0  0  0
  -28.4865  -19.9476   20.5773 C   0  0  0  0  0  0  0  0  0  0  0  0
  -29.2971  -17.8197   19.7700 C   0  0  0  0  0  0  0  0  0  0  0  0
  -22.0586   -8.2725   21.4977 C   0  0  0  0  0  0  0  0  0  0  0  0
  -24.4319  -25.1690   23.4076 C   0  0  0  0  0  0  0  0  0  0  0  0
  -21.4863   -6.3746   22.7596 C   0  0  0  0  0  0  0  0  0  0  0  0
  -22.2936   -4.1573   24.2477 C   0  0  0  0  0  0  0  0  0  0  0  0
  -21.1165   -5.0916   22.3559 C   0  0  0  0  0  0  0  0  0  0  0  0
  -28.5850  -18.5627   20.7115 C   0  0  0  0  0  0  0  0  0  0  0  0
  -25.0775  -10.7494   19.8699 C   0  0  0  0  0  0  0  0  0  0  0  0
  -26.2977  -12.0048   18.5395 C   0  0  0  0  0  0  0  0  0  0  0  0
  -30.1743  -14.3824   18.8473 C   0  0  0  0  0  0  0  0  0  0  0  0
  -29.5235  -15.5471   18.8068 C   0  0  0  0  0  0  0  0  0  0  0  0
  -25.9656  -23.5914   22.6142 C   0  0  0  0  0  0  0  0  0  1  0  0
  -24.2161  -11.1203   17.4750 C   0  0  0  0  0  0  0  0  0  0  0  0
  -26.7433  -22.5077   22.7254 C   0  0  0  0  0  0  0  0  0  0  0  0
  -27.5662  -22.0788   21.5477 C   0  0  0  0  0  0  0  0  0  0  0  0
  -23.5208  -30.0302   21.1710 C   0  0  0  0  0  0  0  0  0  0  0  0
  -24.1924  -31.3658   24.0497 C   0  0  0  0  0  0  0  0  0  0  0  0
  -25.1173  -30.9217   27.3046 C   0  0  0  0  0  0  0  0  0  0  0  0
  -29.5450  -15.8250   21.2041 C   0  0  0  0  0  0  0  0  0  0  0  0
  -21.1573  -31.4195   16.8650 C   0  0  0  0  0  0  0  0  0  0  0  0
  -22.0455  -28.6819   22.7078 C   0  0  0  0  0  0  0  0  0  0  0  0
  -24.7952  -28.9324   23.7665 C   0  0  0  0  0  0  0  0  0  0  0  0
  -21.8745  -32.1459   18.0000 C   0  0  0  0  0  0  0  0  0  0  0  0
  -30.1305  -12.2352   21.8181 C   0  0  0  0  0  0  0  0  0  0  0  0
  -23.2249  -31.4948   18.2814 C   0  0  0  0  0  0  0  0  0  0  0  0
  -28.8416  -11.5877   21.3146 C   0  0  0  0  0  0  0  0  0  0  0  0
  -29.8897  -13.6497   22.3371 C   0  0  0  0  0  0  0  0  0  0  0  0
  -27.9241  -13.8960   20.8531 C   0  0  0  0  0  0  0  0  0  0  0  0
  -23.0526  -30.0378   18.7273 C   0  0  1  0  0  0  0  0  0  0  0  0
  -22.8652  -29.9549   22.5209 C   0  0  1  0  0  0  0  0  0  0  0  0
  -28.1421  -12.4872   20.2808 C   0  0  2  0  0  0  0  0  0  0  0  0
  -25.6212  -32.2043   29.4018 C   0  0  0  0  0  0  0  0  0  0  0  0
  -26.9035  -32.1698   22.9037 C   0  0  0  0  0  0  0  0  0  0  0  0
  -27.6958  -32.5714   25.2445 C   0  0  0  0  0  0  0  0  0  0  0  0
  -25.8099  -33.9171   24.3199 C   0  0  0  0  0  0  0  0  0  0  0  0
  -22.9160  -29.6024   28.7786 C   0  0  0  0  0  0  0  0  0  0  0  0
  -25.4273  -31.4885   24.9094 C   0  0  1  0  0  0  0  0  0  0  0  0
  -24.5521  -31.4811   28.5977 C   0  0  2  0  0  0  0  0  0  0  0  0
  -26.4487  -32.5113   24.3368 C   0  0  0  0  0  0  0  0  0  0  0  0
  -26.1225  -11.1126   20.6182 N   0  0  0  0  0  0  0  0  0  0  0  0
  -26.8465  -11.8752   19.7813 N   0  0  0  0  0  0  0  0  0  0  0  0
  -23.9269  -30.0953   23.5195 N   0  0  0  0  0  0  0  0  0  0  0  0
  -29.1855  -14.4689   21.3498 N   0  0  0  0  0  0  0  0  0  0  0  0
  -26.8949  -12.7375   17.5757 N   0  0  0  0  0  0  0  0  0  0  0  0
  -23.0701  -10.3380   17.6726 N   0  0  0  0  0  0  0  0  0  0  0  0
  -27.7643  -20.7050   21.5309 N   0  0  0  0  0  0  0  0  0  0  0  0
  -22.6349  -29.9788   20.1117 N   0  0  0  0  0  0  0  0  0  0  0  0
  -24.9585  -31.8016   26.2549 N   0  0  0  0  0  0  0  0  0  0  0  0
  -29.4017  -16.3813   19.9060 N   0  0  0  0  0  0  0  0  0  0  0  0
  -23.9949  -30.3830   29.4372 N   0  3  0  0  0  0  0  0  0  0  0  0
  -24.4149  -11.6456   16.3534 O   0  0  0  0  0  0  0  0  0  0  0  0
  -27.9808  -22.8996   20.7364 O   0  0  0  0  0  0  0  0  0  0  0  0
  -24.7399  -30.1291   21.0960 O   0  0  0  0  0  0  0  0  0  0  0  0
  -23.4854  -32.3590   23.8616 O   0  0  0  0  0  0  0  0  0  0  0  0
  -25.6500  -29.8164   27.2336 O   0  0  0  0  0  0  0  0  0  0  0  0
  -29.9859  -16.4868   22.1526 O   0  0  0  0  0  0  0  0  0  0  0  0
  -26.8204  -21.7656   23.8864 O   0  0  0  0  0  0  0  0  0  0  0  0
  -21.0870   -7.4762   22.0215 O   0  0  0  0  0  0  0  0  0  0  0  0
  -25.1831  -24.0569   23.6333 O   0  0  0  0  0  0  0  0  0  1  0  0
  -22.6825   -3.0927   24.9614 F   0  0  0  0  0  0  0  0  0  0  0  0
  -20.3746   -4.9178   21.2536 F   0  0  0  0  0  0  0  0  0  0  0  0
  -27.9954  -17.9454   21.7470 F   0  0  0  0  0  0  0  0  0  0  0  0
  1  2  1  0  0  0  0
  1  6  2  0  0  0  0
  2  7  2  0  0  0  0
  3  9  1  0  0  0  0
  3 10  2  0  0  0  0
  4 11  2  0  0  0  0
  4 18  1  0  0  0  0
  5 12  1  0  0  0  0
  5 18  2  0  0  0  0
  6 20  1  0  0  0  0
  7 22  1  0  0  0  0
  8 13  2  0  0  0  0
  8 21  1  0  0  0  0
  9 24  2  0  0  0  0
 10 25  1  0  0  0  0
 11 26  1  0  0  0  0
 12 26  2  0  0  0  0
 13 27  1  0  0  0  0
 14 15  2  0  0  0  0
 14 28  1  0  0  0  0
 15 29  1  0  0  0  0
 16 23  1  0  0  0  0
 16 27  2  0  0  0  0
 17 29  2  0  0  0  0
 17 30  1  0  0  0  0
 18 32  1  0  0  0  0
 19 32  1  0  0  0  0
 19 33  2  0  0  0  0
 19 37  1  0  0  0  0
 20 22  2  0  0  0  0
 20 44  1  0  0  0  0
 21 23  2  0  0  0  0
 21 45  1  0  0  0  0
 22 53  1  0  0  0  0
 23 46  1  0  0  0  0
 24 31  1  0  0  0  0
 24 70  1  0  0  0  0
 25 31  2  0  0  0  0
 25 73  1  0  0  0  0
 26 82  1  0  0  0  0
 27 83  1  0  0  0  0
 28 30  2  0  0  0  0
 28 82  1  0  0  0  0
 29 84  1  0  0  0  0
 30 85  1  0  0  0  0
 31 86  1  0  0  0  0
 32 64  2  0  0  0  0
 33 65  1  0  0  0  0
 33 68  1  0  0  0  0
 34 35  2  0  0  0  0
 35 73  1  0  0  0  0
 36 38  2  0  0  0  0
 36 83  1  0  0  0  0
 37 69  1  0  0  0  0
 37 75  2  0  0  0  0
 38 39  1  0  0  0  0
 38 81  1  0  0  0  0
 39 70  1  0  0  0  0
 39 76  2  0  0  0  0
 40 54  1  0  0  0  0
 40 71  1  0  0  0  0
 40 77  2  0  0  0  0
 41 61  1  0  0  0  0
 41 66  1  0  0  0  0
 41 78  2  0  0  0  0
 42 62  1  0  0  0  0
 42 72  1  0  0  0  0
 42 79  2  0  0  0  0
 43 67  1  0  0  0  0
 43 73  1  0  0  0  0
 43 80  2  0  0  0  0
 44 47  1  0  0  0  0
 45 54  1  0  0  0  0
 46 66  1  0  0  0  0
 47 49  1  0  0  0  0
 48 50  1  0  0  0  0
 48 51  1  0  0  0  0
 49 53  1  0  0  0  0
 50 55  1  0  0  0  0
 51 67  1  0  0  0  0
 52 55  1  0  0  0  0
 52 67  1  0  0  0  0
 53 71  1  0  0  0  0
 54 66  1  0  0  0  0
 55 65  1  0  0  0  0
 56 62  1  0  0  0  0
 57 63  1  0  0  0  0
 58 63  1  0  0  0  0
 59 63  1  0  0  0  0
 60 74  1  0  0  0  0
 61 63  1  0  0  0  0
 61 72  1  0  0  0  0
 62 74  1  0  0  0  0
 64 65  1  0  0  0  0
M  CHG  1  74   1
M  ISO  4  36 101  43 100  73 100  83 101
M  END
> <Batch ID>
0088

> <Smiles>
C=C[100N:0](c1cccc(NC(=O)C(=O)[101CH2:1][101O:1]c2ccc3c(c2)CN(C(=O)C(NC(=O)C(C)NC)C(C)(C)C)C(C(=O)NC2CCCc4ccccc42)C3)c1F)[100C:0](=O)N1CCCC(n2nc(-c3ccc(Oc4ccc(F)cc4F)cc3)c(C(N)=O)c2N)C1

> <Shape>
0.281

> <Color>
0.076

> <Negative vol penalty>
0.000

$$$$

  -OEChem-04052300233D

 87 96  0     1  0  0  0  0  0999 V2000
  -23.1948  -33.4499   15.1429 C   0  0  0  0  0  0  0  0  0  0  0  0
  -23.9251  -32.2681   15.2165 C   0  0  0  0  0  0  0  0  0  0  0  0
  -23.2544   -9.5930   20.6378 C   0  0  0  0  0  0  0  0  0  0  0  0
  -23.2401  -11.2985   22.3490 C   0  0  0  0  0  0  0  0  0  0  0  0
  -23.2108  -34.3455   16.2113 C   0  0  0  0  0  0  0  0  0  0  0  0
  -24.6727  -31.9817   16.3582 C   0  0  0  0  0  0  0  0  0  0  0  0
  -25.6535  -26.4643   18.8285 C   0  0  0  0  0  0  0  0  0  0  0  0
  -31.8701  -18.9658   20.3566 C   0  0  0  0  0  0  0  0  0  0  0  0
  -31.5204  -17.6229   20.2152 C   0  0  0  0  0  0  0  0  0  0  0  0
  -22.3668   -8.8272   21.3937 C   0  0  0  0  0  0  0  0  0  0  0  0
  -22.3525  -10.5327   23.1049 C   0  0  0  0  0  0  0  0  0  0  0  0
  -26.7243  -25.5755   18.7435 C   0  0  0  0  0  0  0  0  0  0  0  0
  -22.5085   -6.7723   24.0736 C   0  0  0  0  0  0  0  0  0  0  0  0
  -22.7763   -5.4094   24.2017 C   0  0  0  0  0  0  0  0  0  0  0  0
  -27.6111  -26.4559   20.8069 C   0  0  0  0  0  0  0  0  0  0  0  0
  -29.7015  -19.6191   19.5155 C   0  0  0  0  0  0  0  0  0  0  0  0
  -20.6545   -4.8952   23.1669 C   0  0  0  0  0  0  0  0  0  0  0  0
  -23.6911  -10.8287   21.1155 C   0  0  0  0  0  0  0  0  0  0  0  0
  -24.2842  -12.5891   19.3671 C   0  0  0  0  0  0  0  0  0  0  0  0
  -23.9512  -34.0655   17.3706 C   0  0  0  0  0  0  0  0  0  0  0  0
  -25.5591  -27.3647   19.8995 C   0  0  0  0  0  0  0  0  0  0  0  0
  -24.6997  -32.8751   17.4426 C   0  0  0  0  0  0  0  0  0  0  0  0
  -26.5368  -27.3534   20.9045 C   0  0  0  0  0  0  0  0  0  0  0  0
  -30.9607  -19.9639   20.0067 C   0  0  0  0  0  0  0  0  0  0  0  0
  -30.2613  -17.2781   19.7240 C   0  0  0  0  0  0  0  0  0  0  0  0
  -21.9159   -9.2970   22.6272 C   0  0  0  0  0  0  0  0  0  0  0  0
  -27.7048  -25.5731   19.7313 C   0  0  0  0  0  0  0  0  0  0  0  0
  -21.3137   -7.1967   23.4922 C   0  0  0  0  0  0  0  0  0  0  0  0
  -21.8493   -4.4709   23.7483 C   0  0  0  0  0  0  0  0  0  0  0  0
  -29.3518  -18.2762   19.3741 C   0  0  0  0  0  0  0  0  0  0  0  0
  -20.3867   -6.2582   23.0388 C   0  0  0  0  0  0  0  0  0  0  0  0
  -24.6083  -11.6200   20.3354 C   0  0  0  0  0  0  0  0  0  0  0  0
  -25.4992  -13.0483   18.9207 C   0  0  0  0  0  0  0  0  0  0  0  0
  -32.0622  -24.0195   20.3286 C   0  0  0  0  0  0  0  0  0  0  0  0
  -32.6447  -21.7081   20.0199 C   0  0  0  0  0  0  0  0  0  0  0  0
  -30.7629  -23.7258   20.4732 C   0  0  0  0  0  0  0  0  0  0  0  0
  -33.0304  -22.9844   20.1068 C   0  0  0  0  0  0  0  0  0  0  0  0
  -30.3133  -22.2862   20.4225 C   0  0  0  0  0  0  0  0  0  0  0  0
  -22.9996  -13.0344   18.9119 C   0  0  0  0  0  0  0  0  0  0  0  0
  -25.5405  -30.5315   20.1727 C   0  0  0  0  0  0  0  0  0  0  0  0
  -24.9167  -29.8694   23.2864 C   0  0  0  0  0  0  0  0  0  0  0  0
  -25.1215  -27.6547   25.8748 C   0  0  0  0  0  0  0  0  0  0  0  0
  -30.6958  -14.8017   19.8821 C   0  0  0  0  0  0  0  0  0  0  0  0
  -23.9756  -35.0862   18.4807 C   0  0  0  0  0  0  0  0  0  0  0  0
  -24.3838  -28.2988   19.9906 C   0  0  0  0  0  0  0  0  0  0  0  0
  -26.4710  -28.2860   22.0854 C   0  0  0  0  0  0  0  0  0  0  0  0
  -24.4937  -34.5329   19.8057 C   0  0  0  0  0  0  0  0  0  0  0  0
  -30.1780  -11.2835   19.7056 C   0  0  0  0  0  0  0  0  0  0  0  0
  -25.7671  -33.7228   19.5845 C   0  0  0  0  0  0  0  0  0  0  0  0
  -28.6562  -11.1371   19.7741 C   0  0  0  0  0  0  0  0  0  0  0  0
  -30.6789  -12.4209   20.5939 C   0  0  0  0  0  0  0  0  0  0  0  0
  -28.5061  -13.5714   20.4365 C   0  0  0  0  0  0  0  0  0  0  0  0
  -25.5031  -32.5174   18.6742 C   0  0  1  0  0  0  0  0  0  0  0  0
  -24.6600  -29.5240   20.8565 C   0  0  1  0  0  0  0  0  0  0  0  0
  -27.9483  -12.4802   19.5082 C   0  0  2  0  0  0  0  0  0  0  0  0
  -24.5592  -27.4114   28.3083 C   0  0  0  0  0  0  0  0  0  0  0  0
  -27.2886  -31.6474   24.0097 C   0  0  0  0  0  0  0  0  0  0  0  0
  -27.2672  -30.6267   26.2957 C   0  0  0  0  0  0  0  0  0  0  0  0
  -25.2914  -31.9190   25.4903 C   0  0  0  0  0  0  0  0  0  0  0  0
  -23.3240  -25.3630   25.3495 C   0  0  0  0  0  0  0  0  0  0  0  0
  -29.7197  -24.7589   20.6972 C   0  0  0  0  0  0  0  0  0  1  0  0
  -25.7568  -29.6321   24.5180 C   0  0  1  0  0  0  0  0  0  0  0  0
  -24.0873  -27.1827   26.8808 C   0  0  2  0  0  0  0  0  0  0  0  0
  -26.4036  -30.9399   25.0553 C   0  0  0  0  0  0  0  0  0  0  0  0
  -25.9260  -11.4714   20.4952 N   0  0  0  0  0  0  0  0  0  0  0  0
  -26.4406  -12.3532   19.6212 N   0  0  0  0  0  0  0  0  0  0  0  0
  -31.3128  -21.3160   20.1484 N   0  0  0  0  0  0  0  0  0  0  0  0
  -25.3057  -29.1848   22.1263 N   0  0  0  0  0  0  0  0  0  0  0  0
  -29.9666  -13.6622   20.2827 N   0  0  0  0  0  0  0  0  0  0  0  0
  -25.8435  -13.9747   18.0012 N   0  0  0  0  0  0  0  0  0  0  0  0
  -21.8538  -12.4575   19.4764 N   0  0  0  0  0  0  0  0  0  0  0  0
  -29.9091  -15.9131   19.5810 N   0  0  0  0  0  0  0  0  0  0  0  0
  -24.8511  -31.4583   19.4143 N   0  0  0  0  0  0  0  0  0  0  0  0
  -24.8917  -28.9551   25.4780 N   0  0  0  0  0  0  0  0  0  0  0  0
  -23.8175  -25.7280   26.7024 N   0  3  0  0  0  0  0  0  0  0  0  0
  -29.1238  -22.0150   20.5968 O   0  0  0  0  0  0  0  0  0  0  0  0
  -22.8717  -13.9061   18.0190 O   0  0  0  0  0  0  0  0  0  0  0  0
  -26.7552  -30.4731   20.3233 O   0  0  0  0  0  0  0  0  0  0  0  0
  -23.9467  -30.6286   23.3531 O   0  0  0  0  0  0  0  0  0  0  0  0
  -26.0434  -26.9425   25.4832 O   0  0  0  0  0  0  0  0  0  0  0  0
  -31.9255  -14.7842   19.7851 O   0  0  0  0  0  0  0  0  0  0  0  0
  -34.3324  -23.4045   19.9846 O   0  0  0  0  0  0  0  0  0  0  0  0
  -21.0497   -8.5501   23.3650 O   0  0  0  0  0  0  0  0  0  0  0  0
  -28.7513  -24.7070   19.6504 O   0  0  0  0  0  0  0  0  0  1  0  0
  -22.1073   -3.1621   23.8700 F   0  0  0  0  0  0  0  0  0  0  0  0
  -28.1393  -17.9565   18.8994 F   0  0  0  0  0  0  0  0  0  0  0  0
  -19.2377   -6.6598   22.4783 F   0  0  0  0  0  0  0  0  0  0  0  0
  1  2  1  0  0  0  0
  1  5  2  0  0  0  0
  2  6  2  0  0  0  0
  3 10  2  0  0  0  0
  3 18  1  0  0  0  0
  4 11  1  0  0  0  0
  4 18  2  0  0  0  0
  5 20  1  0  0  0  0
  6 22  1  0  0  0  0
  7 12  2  0  0  0  0
  7 21  1  0  0  0  0
  8  9  2  0  0  0  0
  8 24  1  0  0  0  0
  9 25  1  0  0  0  0
 10 26  1  0  0  0  0
 11 26  2  0  0  0  0
 12 27  1  0  0  0  0
 13 14  2  0  0  0  0
 13 28  1  0  0  0  0
 14 29  1  0  0  0  0
 15 23  1  0  0  0  0
 15 27  2  0  0  0  0
 16 24  2  0  0  0  0
 16 30  1  0  0  0  0
 17 29  2  0  0  0  0
 17 31  1  0  0  0  0
 18 32  1  0  0  0  0
 19 32  1  0  0  0  0
 19 33  2  0  0  0  0
 19 39  1  0  0  0  0
 20 22  2  0  0  0  0
 20 44  1  0  0  0  0
 21 23  2  0  0  0  0
 21 45  1  0  0  0  0
 22 53  1  0  0  0  0
 23 46  1  0  0  0  0
 24 67  1  0  0  0  0
 25 30  2  0  0  0  0
 25 72  1  0  0  0  0
 26 83  1  0  0  0  0
 27 84  1  0  0  0  0
 28 31  2  0  0  0  0
 28 83  1  0  0  0  0
 29 85  1  0  0  0  0
 30 86  1  0  0  0  0
 31 87  1  0  0  0  0
 32 65  2  0  0  0  0
 33 66  1  0  0  0  0
 33 70  1  0  0  0  0
 34 36  2  0  0  0  0
 34 37  1  0  0  0  0
 35 37  2  0  0  0  0
 35 67  1  0  0  0  0
 36 38  1  0  0  0  0
 36 61  1  0  0  0  0
 37 82  1  0  0  0  0
 38 67  1  0  0  0  0
 38 76  2  0  0  0  0
 39 71  1  0  0  0  0
 39 77  2  0  0  0  0
 40 54  1  0  0  0  0
 40 73  1  0  0  0  0
 40 78  2  0  0  0  0
 41 62  1  0  0  0  0
 41 68  1  0  0  0  0
 41 79  2  0  0  0  0
 42 63  1  0  0  0  0
 42 74  1  0  0  0  0
 42 80  2  0  0  0  0
 43 69  1  0  0  0  0
 43 72  1  0  0  0  0
 43 81  2  0  0  0  0
 44 47  1  0  0  0  0
 45 54  1  0  0  0  0
 46 68  1  0  0  0  0
 47 49  1  0  0  0  0
 48 50  1  0  0  0  0
 48 51  1  0  0  0  0
 49 53  1  0  0  0  0
 50 55  1  0  0  0  0
 51 69  1  0  0  0  0
 52 55  1  0  0  0  0
 52 69  1  0  0  0  0
 53 73  1  0  0  0  0
 54 68  1  0  0  0  0
 55 66  1  0  0  0  0
 56 63  1  0  0  0  0
 57 64  1  0  0  0  0
 58 64  1  0  0  0  0
 59 64  1  0  0  0  0
 60 75  1  0  0  0  0
 61 84  1  0  0  0  0
 62 64  1  0  0  0  0
 62 74  1  0  0  0  0
 63 75  1  0  0  0  0
 65 66  1  0  0  0  0
M  CHG  1  75   1
M  ISO  4  43 100  61 101  72 100  84 101
M  END
> <Batch ID>
0088

> <Smiles>
CNC(C)C(=O)NC(C(=O)N1Cc2cc([101O:1][101CH2:1]C3=CC(=O)CN(c4ccc([100NH:0][100C:0](=O)N5CCCC(n6nc(-c7ccc(Oc8ccc(F)cc8F)cc7)c(C(N)=O)c6N)C5)c(F)c4)C3=O)ccc2CC1C(=O)NC1CCCc2ccccc21)C(C)(C)C

> <Shape>
0.271

> <Color>
0.102

> <Negative vol penalty>
0.000

$$$$

  -OEChem-04052300233D

 81 89  0     1  0  0  0  0  0999 V2000
  -38.9453  -32.7689   28.0858 C   0  0  0  0  0  0  0  0  0  0  0  0
  -38.4216  -31.4957   27.8859 C   0  0  0  0  0  0  0  0  0  0  0  0
  -23.0789   -9.8617   19.9422 C   0  0  0  0  0  0  0  0  0  0  0  0
  -23.8309   -9.8780   22.2382 C   0  0  0  0  0  0  0  0  0  0  0  0
  -38.0991  -33.8246   28.4224 C   0  0  0  0  0  0  0  0  0  0  0  0
  -37.0513  -31.2771   28.0236 C   0  0  0  0  0  0  0  0  0  0  0  0
  -33.6033  -27.3750   24.8002 C   0  0  0  0  0  0  0  0  0  0  0  0
  -22.3359   -8.7083   20.1938 C   0  0  0  0  0  0  0  0  0  0  0  0
  -23.0879   -8.7247   22.4898 C   0  0  0  0  0  0  0  0  0  0  0  0
  -33.1366  -26.0899   25.0731 C   0  0  0  0  0  0  0  0  0  0  0  0
  -20.5265   -5.5544   20.1407 C   0  0  0  0  0  0  0  0  0  0  0  0
  -20.5945   -4.5207   19.2066 C   0  0  0  0  0  0  0  0  0  0  0  0
  -31.8668  -18.8272   22.3681 C   0  0  0  0  0  0  0  0  0  0  0  0
  -31.7825  -17.5657   21.7110 C   0  0  0  0  0  0  0  0  0  0  0  0
  -31.0466  -27.0184   25.8406 C   0  0  0  0  0  0  0  0  0  0  0  0
  -22.9784   -4.3554   19.5632 C   0  0  0  0  0  0  0  0  0  0  0  0
  -23.8265  -10.4465   20.9644 C   0  0  0  0  0  0  0  0  0  0  0  0
  -24.1650  -12.9717   20.8364 C   0  0  0  0  0  0  0  0  0  0  0  0
  -36.7165  -33.6209   28.5549 C   0  0  0  0  0  0  0  0  0  0  0  0
  -32.7978  -28.4940   25.0562 C   0  0  0  0  0  0  0  0  0  0  0  0
  -36.1859  -32.3308   28.3637 C   0  0  0  0  0  0  0  0  0  0  0  0
  -31.5044  -28.3165   25.5677 C   0  0  0  0  0  0  0  0  0  0  0  0
  -22.3403   -8.1399   21.4676 C   0  0  0  0  0  0  0  0  0  0  0  0
  -31.8591  -25.9116   25.5960 C   0  0  0  0  0  0  0  0  0  0  0  0
  -21.6845   -5.9887   20.7859 C   0  0  0  0  0  0  0  0  0  0  0  0
  -21.8204   -3.9212   18.9179 C   0  0  0  0  0  0  0  0  0  0  0  0
  -22.9104   -5.3892   20.4972 C   0  0  0  0  0  0  0  0  0  0  0  0
  -24.5947  -11.6376   20.7050 C   0  0  0  0  0  0  0  0  0  0  0  0
  -30.7168  -19.1254   23.0652 C   0  0  0  0  0  0  0  0  0  0  0  0
  -25.2573  -13.7215   20.4742 C   0  0  0  0  0  0  0  0  0  0  0  0
  -30.5711  -16.9476   21.9312 C   0  0  0  0  0  0  0  0  0  0  0  0
  -30.4123  -20.3238   23.8668 C   0  0  0  0  0  0  0  0  0  0  0  0
  -31.2598  -21.3433   24.0637 C   0  0  0  0  0  0  0  0  0  0  0  0
  -22.8924  -13.4872   21.2491 C   0  0  0  0  0  0  0  0  0  0  0  0
  -30.8572  -22.5094   24.9025 C   0  0  0  0  0  0  0  0  0  0  0  0
  -33.0269  -31.0368   26.9497 C   0  0  0  0  0  0  0  0  0  0  0  0
  -30.3321  -31.9529   25.3938 C   0  0  0  0  0  0  0  0  0  0  0  0
  -27.5660  -31.0478   23.6116 C   0  0  0  0  0  0  0  0  0  0  0  0
  -30.7214  -14.7757   20.6638 C   0  0  0  0  0  0  0  0  0  0  0  0
  -35.8476  -34.7829   28.9666 C   0  0  0  0  0  0  0  0  0  0  0  0
  -33.3060  -29.8720   24.7313 C   0  0  0  0  0  0  0  0  0  0  0  0
  -30.5927  -29.4836   25.8413 C   0  0  0  0  0  0  0  0  0  0  0  0
  -34.3590  -34.5457   28.7260 C   0  0  0  0  0  0  0  0  0  0  0  0
  -29.6185  -12.3518   18.3003 C   0  0  0  0  0  0  0  0  0  0  0  0
  -33.9501  -33.1653   29.2300 C   0  0  0  0  0  0  0  0  0  0  0  0
  -28.1779  -12.0597   18.7260 C   0  0  0  0  0  0  0  0  0  0  0  0
  -30.5292  -12.5862   19.5043 C   0  0  0  0  0  0  0  0  0  0  0  0
  -28.6165  -13.3128   20.8765 C   0  0  0  0  0  0  0  0  0  0  0  0
  -34.7017  -32.0591   28.4797 C   0  0  1  0  0  0  0  0  0  0  0  0
  -32.5930  -30.9713   25.5127 C   0  0  1  0  0  0  0  0  0  0  0  0
  -27.6480  -13.1340   19.6960 C   0  0  2  0  0  0  0  0  0  0  0  0
  -25.5293  -32.0146   22.5095 C   0  0  0  0  0  0  0  0  0  0  0  0
  -29.0249  -32.3094   28.1277 C   0  0  0  0  0  0  0  0  0  0  0  0
  -26.7989  -32.3376   26.9822 C   0  0  0  0  0  0  0  0  0  0  0  0
  -28.4850  -34.1036   26.4713 C   0  0  0  0  0  0  0  0  0  0  0  0
  -28.3954  -30.0590   20.9482 C   0  0  0  0  0  0  0  0  0  0  0  0
  -31.9001  -23.5971   25.0506 C   0  0  0  0  0  0  0  0  0  1  0  0
  -28.8516  -31.7542   25.6122 C   0  0  1  0  0  0  0  0  0  0  0  0
  -26.9773  -31.5894   22.3214 C   0  0  2  0  0  0  0  0  0  0  0  0
  -28.3077  -32.6041   26.7951 C   0  0  0  0  0  0  0  0  0  0  0  0
  -25.8611  -11.5421   20.2914 N   0  0  0  0  0  0  0  0  0  0  0  0
  -26.2366  -12.8258   20.1597 N   0  0  0  0  0  0  0  0  0  0  0  0
  -31.1374  -30.8114   25.5130 N   0  0  0  0  0  0  0  0  0  0  0  0
  -29.9658  -13.6193   20.3761 N   0  0  0  0  0  0  0  0  0  0  0  0
  -25.4660  -15.0530   20.3971 N   0  0  0  0  0  0  0  0  0  0  0  0
  -21.8806  -12.5777   21.5862 N   0  0  0  0  0  0  0  0  0  0  0  0
  -30.0699  -15.7027   21.4767 N   0  0  0  0  0  0  0  0  0  0  0  0
  -34.1208  -31.8517   27.1705 N   0  0  0  0  0  0  0  0  0  0  0  0
  -28.2093  -32.0318   24.3321 N   0  0  0  0  0  0  0  0  0  0  0  0
  -27.0274  -30.5513   21.2533 N   0  3  0  0  0  0  0  0  0  0  0  0
  -22.6541  -14.7176   21.3012 O   0  0  0  0  0  0  0  0  0  0  0  0
  -29.7530  -22.5794   25.4354 O   0  0  0  0  0  0  0  0  0  0  0  0
  -32.4137  -30.3966   27.7958 O   0  0  0  0  0  0  0  0  0  0  0  0
  -30.7574  -33.0780   25.1203 O   0  0  0  0  0  0  0  0  0  0  0  0
  -27.4622  -29.8704   23.9484 O   0  0  0  0  0  0  0  0  0  0  0  0
  -31.8518  -14.9444   20.1994 O   0  0  0  0  0  0  0  0  0  0  0  0
  -21.6152   -7.0146   21.7135 O   0  0  0  0  0  0  0  0  0  0  0  0
  -31.4014  -24.6584   25.8639 O   0  0  0  0  0  0  0  0  0  1  0  0
  -21.8853   -2.9275   18.0221 F   0  0  0  0  0  0  0  0  0  0  0  0
  -24.0260   -5.8013   21.1147 F   0  0  0  0  0  0  0  0  0  0  0  0
  -29.5419  -17.8873   22.9262 S   0  0  0  0  0  0  0  0  0  0  0  0
  1  2  1  0  0  0  0
  1  5  2  0  0  0  0
  2  6  2  0  0  0  0
  3  8  2  0  0  0  0
  3 17  1  0  0  0  0
  4  9  1  0  0  0  0
  4 17  2  0  0  0  0
  5 19  1  0  0  0  0
  6 21  1  0  0  0  0
  7 10  2  0  0  0  0
  7 20  1  0  0  0  0
  8 23  1  0  0  0  0
  9 23  2  0  0  0  0
 10 24  1  0  0  0  0
 11 12  2  0  0  0  0
 11 25  1  0  0  0  0
 12 26  1  0  0  0  0
 13 14  1  0  0  0  0
 13 29  2  0  0  0  0
 14 31  2  0  0  0  0
 15 22  1  0  0  0  0
 15 24  2  0  0  0  0
 16 26  2  0  0  0  0
 16 27  1  0  0  0  0
 17 28  1  0  0  0  0
 18 28  1  0  0  0  0
 18 30  2  0  0  0  0
 18 34  1  0  0  0  0
 19 21  2  0  0  0  0
 19 40  1  0  0  0  0
 20 22  2  0  0  0  0
 20 41  1  0  0  0  0
 21 49  1  0  0  0  0
 22 42  1  0  0  0  0
 23 77  1  0  0  0  0
 24 78  1  0  0  0  0
 25 27  2  0  0  0  0
 25 77  1  0  0  0  0
 26 79  1  0  0  0  0
 27 80  1  0  0  0  0
 28 61  2  0  0  0  0
 29 32  1  0  0  0  0
 29 81  1  0  0  0  0
 30 62  1  0  0  0  0
 30 65  1  0  0  0  0
 31 67  1  0  0  0  0
 31 81  1  0  0  0  0
 32 33  2  0  0  0  0
 33 35  1  0  0  0  0
 34 66  1  0  0  0  0
 34 71  2  0  0  0  0
 35 57  1  0  0  0  0
 35 72  2  0  0  0  0
 36 50  1  0  0  0  0
 36 68  1  0  0  0  0
 36 73  2  0  0  0  0
 37 58  1  0  0  0  0
 37 63  1  0  0  0  0
 37 74  2  0  0  0  0
 38 59  1  0  0  0  0
 38 69  1  0  0  0  0
 38 75  2  0  0  0  0
 39 64  1  0  0  0  0
 39 67  1  0  0  0  0
 39 76  2  0  0  0  0
 40 43  1  0  0  0  0
 41 50  1  0  0  0  0
 42 63  1  0  0  0  0
 43 45  1  0  0  0  0
 44 46  1  0  0  0  0
 44 47  1  0  0  0  0
 45 49  1  0  0  0  0
 46 51  1  0  0  0  0
 47 64  1  0  0  0  0
 48 51  1  0  0  0  0
 48 64  1  0  0  0  0
 49 68  1  0  0  0  0
 50 63  1  0  0  0  0
 51 62  1  0  0  0  0
 52 59  1  0  0  0  0
 53 60  1  0  0  0  0
 54 60  1  0  0  0  0
 55 60  1  0  0  0  0
 56 70  1  0  0  0  0
 57 78  1  0  0  0  0
 58 60  1  0  0  0  0
 58 69  1  0  0  0  0
 59 70  1  0  0  0  0
 61 62  1  0  0  0  0
M  CHG  1  70   1
M  ISO  4  39 100  57 101  67 100  78 101
M  END
> <Batch ID>
0088

> <Smiles>
CNC(C)C(=O)NC(C(=O)N1Cc2cc([101O:1][101CH2:1]C(=O)C=Cc3ccc([100NH:0][100C:0](=O)N4CCCC(n5nc(-c6ccc(Oc7ccc(F)cc7F)cc6)c(C(N)=O)c5N)C4)s3)ccc2CC1C(=O)NC1CCCc2ccccc21)C(C)(C)C

> <Shape>
0.210

> <Color>
0.196

> <Negative vol penalty>
0.000

$$$$

  -OEChem-04052300233D

 84 92  0     1  0  0  0  0  0999 V2000
  -31.3444  -33.7943   23.8386 C   0  0  0  0  0  0  0  0  0  0  0  0
  -31.0741  -33.0900   22.6698 C   0  0  0  0  0  0  0  0  0  0  0  0
  -24.7749   -8.6120   21.5759 C   0  0  0  0  0  0  0  0  0  0  0  0
  -23.2400  -10.0715   20.4136 C   0  0  0  0  0  0  0  0  0  0  0  0
  -30.6601  -33.4829   25.0128 C   0  0  0  0  0  0  0  0  0  0  0  0
  -30.1202  -32.0730   22.6747 C   0  0  0  0  0  0  0  0  0  0  0  0
  -25.2079  -29.0057   18.4583 C   0  0  0  0  0  0  0  0  0  0  0  0
  -26.6325  -19.7454   18.8764 C   0  0  0  0  0  0  0  0  0  0  0  0
  -27.2890  -18.5222   19.0121 C   0  0  0  0  0  0  0  0  0  0  0  0
  -23.7371   -8.1769   22.4000 C   0  0  0  0  0  0  0  0  0  0  0  0
  -22.2021   -9.6363   21.2376 C   0  0  0  0  0  0  0  0  0  0  0  0
  -24.8210  -27.7498   17.9928 C   0  0  0  0  0  0  0  0  0  0  0  0
  -21.4167   -6.4145   24.5736 C   0  0  0  0  0  0  0  0  0  0  0  0
  -21.3092   -5.0445   24.8126 C   0  0  0  0  0  0  0  0  0  0  0  0
  -23.6445  -27.3523   20.0608 C   0  0  0  0  0  0  0  0  0  0  0  0
  -21.0288   -4.6535   22.4449 C   0  0  0  0  0  0  0  0  0  0  0  0
  -24.5264   -9.5594   20.5827 C   0  0  0  0  0  0  0  0  0  0  0  0
  -25.9988   -9.4526   18.5023 C   0  0  0  0  0  0  0  0  0  0  0  0
  -29.6904  -32.4681   25.0299 C   0  0  0  0  0  0  0  0  0  0  0  0
  -24.8244  -29.4407   19.7351 C   0  0  0  0  0  0  0  0  0  0  0  0
  -29.4232  -31.7468   23.8506 C   0  0  0  0  0  0  0  0  0  0  0  0
  -24.0256  -28.6152   20.5392 C   0  0  0  0  0  0  0  0  0  0  0  0
  -25.4151  -19.8121   18.1987 C   0  0  0  0  0  0  0  0  0  0  0  0
  -26.7283  -17.3658   18.4700 C   0  0  0  0  0  0  0  0  0  0  0  0
  -24.8543  -18.6557   17.6566 C   0  0  0  0  0  0  0  0  0  0  0  0
  -22.4507   -8.6890   22.2309 C   0  0  0  0  0  0  0  0  0  0  0  0
  -24.0416  -26.9217   18.7952 C   0  0  0  0  0  0  0  0  0  0  0  0
  -21.3301   -6.9041   23.2703 C   0  0  0  0  0  0  0  0  0  0  0  0
  -21.1153   -4.1640   23.7482 C   0  0  0  0  0  0  0  0  0  0  0  0
  -21.1362   -6.0236   22.2060 C   0  0  0  0  0  0  0  0  0  0  0  0
  -25.5109  -17.4325   17.7923 C   0  0  0  0  0  0  0  0  0  0  0  0
  -25.5981  -10.0097   19.7314 C   0  0  0  0  0  0  0  0  0  0  0  0
  -27.0507  -10.2370   18.0964 C   0  0  0  0  0  0  0  0  0  0  0  0
  -24.2375  -23.3756   18.2202 C   0  0  0  0  0  0  0  0  0  0  0  0
  -24.4832  -24.6329   18.6026 C   0  0  0  0  0  0  0  0  0  1  0  0
  -25.4676   -8.3268   17.7910 C   0  0  0  0  0  0  0  0  0  0  0  0
  -25.2049  -22.2913   18.5589 C   0  0  0  0  0  0  0  0  0  0  0  0
  -26.3758  -30.2554   22.3871 C   0  0  0  0  0  0  0  0  0  0  0  0
  -23.4059  -31.0649   23.4103 C   0  0  0  0  0  0  0  0  0  0  0  0
  -20.0309  -30.6394   23.1360 C   0  0  0  0  0  0  0  0  0  0  0  0
  -28.6128  -15.8878   19.2513 C   0  0  0  0  0  0  0  0  0  0  0  0
  -29.0105  -32.1355   26.3344 C   0  0  0  0  0  0  0  0  0  0  0  0
  -25.2276  -30.8090   20.2120 C   0  0  0  0  0  0  0  0  0  0  0  0
  -23.5705  -29.0435   21.9096 C   0  0  0  0  0  0  0  0  0  0  0  0
  -27.7467  -31.2960   26.1659 C   0  0  0  0  0  0  0  0  0  0  0  0
  -30.5723  -12.9740   19.8404 C   0  0  0  0  0  0  0  0  0  0  0  0
  -27.9986  -30.1392   25.2040 C   0  0  0  0  0  0  0  0  0  0  0  0
  -29.5566  -11.8319   19.7614 C   0  0  0  0  0  0  0  0  0  0  0  0
  -29.9750  -14.2202   20.4916 C   0  0  0  0  0  0  0  0  0  0  0  0
  -27.7031  -13.5490   19.8155 C   0  0  0  0  0  0  0  0  0  0  0  0
  -28.3777  -30.6535   23.8100 C   0  0  1  0  0  0  0  0  0  0  0  0
  -25.2105  -30.9412   21.7317 C   0  0  1  0  0  0  0  0  0  0  0  0
  -28.2392  -12.2937   19.1082 C   0  0  2  0  0  0  0  0  0  0  0  0
  -17.8608  -31.4103   24.1328 C   0  0  0  0  0  0  0  0  0  0  0  0
  -23.8990  -29.2952   25.8465 C   0  0  0  0  0  0  0  0  0  0  0  0
  -21.4355  -29.3399   26.2907 C   0  0  0  0  0  0  0  0  0  0  0  0
  -22.7495  -31.4596   26.3449 C   0  0  0  0  0  0  0  0  0  0  0  0
  -19.1082  -31.7554   20.5549 C   0  0  0  0  0  0  0  0  0  0  0  0
  -22.2875  -30.3442   24.1235 C   0  0  1  0  0  0  0  0  0  0  0  0
  -18.8939  -31.6406   23.0408 C   0  0  2  0  0  0  0  0  0  0  0  0
  -22.6029  -30.1006   25.6264 C   0  0  0  0  0  0  0  0  0  0  0  0
  -26.3355  -11.0663   20.0835 N   0  0  0  0  0  0  0  0  0  0  0  0
  -27.2102  -11.1794   19.0694 N   0  0  0  0  0  0  0  0  0  0  0  0
  -23.9957  -30.3877   22.3336 N   0  0  0  0  0  0  0  0  0  0  0  0
  -28.7317  -14.6011   19.8179 N   0  0  0  0  0  0  0  0  0  0  0  0
  -23.6228  -18.7037   16.9654 N   0  0  0  0  0  0  0  0  0  0  0  0
  -27.8457  -10.2056   17.0058 N   0  0  0  0  0  0  0  0  0  0  0  0
  -24.3858   -7.6330   18.3501 N   0  0  0  0  0  0  0  0  0  0  0  0
  -24.7676  -21.0659   18.0741 N   0  0  0  0  0  0  0  0  0  0  0  0
  -27.3980  -16.1249   18.6089 N   0  0  0  0  0  0  0  0  0  0  0  0
  -27.2000  -31.1048   23.1003 N   0  0  0  0  0  0  0  0  0  0  0  0
  -21.0800  -31.1277   23.8858 N   0  0  0  0  0  0  0  0  0  0  0  0
  -18.2140  -31.5283   21.7194 N   0  3  0  0  0  0  0  0  0  0  0  0
  -25.9490   -7.9372   16.7001 O   0  0  0  0  0  0  0  0  0  0  0  0
  -26.2306  -22.5283   19.1861 O   0  0  0  0  0  0  0  0  0  0  0  0
  -26.5158  -29.0450   22.2567 O   0  0  0  0  0  0  0  0  0  0  0  0
  -23.7390  -32.1903   23.7900 O   0  0  0  0  0  0  0  0  0  0  0  0
  -19.9909  -29.5332   22.6019 O   0  0  0  0  0  0  0  0  0  0  0  0
  -29.5320  -16.7087   19.3066 O   0  0  0  0  0  0  0  0  0  0  0  0
  -21.4377   -8.2644   23.0347 O   0  0  0  0  0  0  0  0  0  0  0  0
  -23.6632  -25.6950   18.3435 O   0  0  0  0  0  0  0  0  0  1  0  0
  -21.0137   -2.8482   23.9777 F   0  0  0  0  0  0  0  0  0  0  0  0
  -21.0534   -6.4879   20.9517 F   0  0  0  0  0  0  0  0  0  0  0  0
  -24.9727  -16.3198   17.2697 F   0  0  0  0  0  0  0  0  0  0  0  0
  1  2  1  0  0  0  0
  1  5  2  0  0  0  0
  2  6  2  0  0  0  0
  3 10  2  0  0  0  0
  3 17  1  0  0  0  0
  4 11  1  0  0  0  0
  4 17  2  0  0  0  0
  5 19  1  0  0  0  0
  6 21  1  0  0  0  0
  7 12  2  0  0  0  0
  7 20  1  0  0  0  0
  8  9  2  0  0  0  0
  8 23  1  0  0  0  0
  9 24  1  0  0  0  0
 10 26  1  0  0  0  0
 11 26  2  0  0  0  0
 12 27  1  0  0  0  0
 13 14  2  0  0  0  0
 13 28  1  0  0  0  0
 14 29  1  0  0  0  0
 15 22  1  0  0  0  0
 15 27  2  0  0  0  0
 16 29  2  0  0  0  0
 16 30  1  0  0  0  0
 17 32  1  0  0  0  0
 18 32  1  0  0  0  0
 18 33  2  0  0  0  0
 18 36  1  0  0  0  0
 19 21  2  0  0  0  0
 19 42  1  0  0  0  0
 20 22  2  0  0  0  0
 20 43  1  0  0  0  0
 21 51  1  0  0  0  0
 22 44  1  0  0  0  0
 23 25  2  0  0  0  0
 23 69  1  0  0  0  0
 24 31  2  0  0  0  0
 24 70  1  0  0  0  0
 25 31  1  0  0  0  0
 25 66  1  0  0  0  0
 26 80  1  0  0  0  0
 27 81  1  0  0  0  0
 28 30  2  0  0  0  0
 28 80  1  0  0  0  0
 29 82  1  0  0  0  0
 30 83  1  0  0  0  0
 31 84  1  0  0  0  0
 32 62  2  0  0  0  0
 33 63  1  0  0  0  0
 33 67  1  0  0  0  0
 34 35  2  0  0  0  0
 34 37  1  0  0  0  0
 35 81  1  0  0  0  0
 36 68  1  0  0  0  0
 36 74  2  0  0  0  0
 37 69  1  0  0  0  0
 37 75  2  0  0  0  0
 38 52  1  0  0  0  0
 38 71  1  0  0  0  0
 38 76  2  0  0  0  0
 39 59  1  0  0  0  0
 39 64  1  0  0  0  0
 39 77  2  0  0  0  0
 40 60  1  0  0  0  0
 40 72  1  0  0  0  0
 40 78  2  0  0  0  0
 41 65  1  0  0  0  0
 41 70  1  0  0  0  0
 41 79  2  0  0  0  0
 42 45  1  0  0  0  0
 43 52  1  0  0  0  0
 44 64  1  0  0  0  0
 45 47  1  0  0  0  0
 46 48  1  0  0  0  0
 46 49  1  0  0  0  0
 47 51  1  0  0  0  0
 48 53  1  0  0  0  0
 49 65  1  0  0  0  0
 50 53  1  0  0  0  0
 50 65  1  0  0  0  0
 51 71  1  0  0  0  0
 52 64  1  0  0  0  0
 53 63  1  0  0  0  0
 54 60  1  0  0  0  0
 55 61  1  0  0  0  0
 56 61  1  0  0  0  0
 57 61  1  0  0  0  0
 58 73  1  0  0  0  0
 59 61  1  0  0  0  0
 59 72  1  0  0  0  0
 60 73  1  0  0  0  0
 62 63  1  0  0  0  0
M  CHG  1  73   1
M  ISO  4  35 101  41 100  70 100  81 101
M  END
> <Batch ID>
0088

> <Smiles>
CNC(C)C(=O)NC(C(=O)N1Cc2cc([101O:1][101CH:1]=CC(=O)Nc3ccc([100NH:0][100C:0](=O)N4CCCC(n5nc(-c6ccc(Oc7ccc(F)cc7F)cc6)c(C(N)=O)c5N)C4)c(F)c3N)ccc2CC1C(=O)NC1CCCc2ccccc21)C(C)(C)C

> <Shape>
0.238

> <Color>
0.091

> <Negative vol penalty>
0.000

$$$$

  -OEChem-04052300233D

 87 96  0     1  0  0  0  0  0999 V2000
  -28.8267  -36.3623   17.4296 C   0  0  0  0  0  0  0  0  0  0  0  0
  -28.8473  -34.9742   17.3385 C   0  0  0  0  0  0  0  0  0  0  0  0
  -23.9959   -9.5538   21.7924 C   0  0  0  0  0  0  0  0  0  0  0  0
  -24.6578  -10.9171   23.6739 C   0  0  0  0  0  0  0  0  0  0  0  0
  -28.6057  -36.9756   18.6620 C   0  0  0  0  0  0  0  0  0  0  0  0
  -28.6482  -34.1987   18.4801 C   0  0  0  0  0  0  0  0  0  0  0  0
  -25.7935  -28.7903   18.8048 C   0  0  0  0  0  0  0  0  0  0  0  0
  -23.5888   -8.5456   22.6661 C   0  0  0  0  0  0  0  0  0  0  0  0
  -24.2506   -9.9090   24.5477 C   0  0  0  0  0  0  0  0  0  0  0  0
  -26.2678  -27.4796   18.8363 C   0  0  0  0  0  0  0  0  0  0  0  0
  -20.9297   -7.8925   24.6500 C   0  0  0  0  0  0  0  0  0  0  0  0
  -19.7000   -7.2811   24.4062 C   0  0  0  0  0  0  0  0  0  0  0  0
  -26.1275  -27.4932   21.2445 C   0  0  0  0  0  0  0  0  0  0  0  0
  -29.9946  -20.9072   20.2250 C   0  0  0  0  0  0  0  0  0  0  0  0
  -30.7183  -18.6751   19.6496 C   0  0  0  0  0  0  0  0  0  0  0  0
  -20.8079   -5.1471   24.1699 C   0  0  0  0  0  0  0  0  0  0  0  0
  -24.5305  -10.7395   22.2963 C   0  0  0  0  0  0  0  0  0  0  0  0
  -24.1722  -12.8435   20.8989 C   0  0  0  0  0  0  0  0  0  0  0  0
  -28.3942  -36.2072   19.8176 C   0  0  0  0  0  0  0  0  0  0  0  0
  -25.4923  -29.4671   19.9954 C   0  0  0  0  0  0  0  0  0  0  0  0
  -28.4256  -34.8023   19.7294 C   0  0  0  0  0  0  0  0  0  0  0  0
  -25.6470  -28.8114   21.2252 C   0  0  0  0  0  0  0  0  0  0  0  0
  -28.6707  -20.4693   20.2586 C   0  0  0  0  0  0  0  0  0  0  0  0
  -31.0184  -20.0100   19.9204 C   0  0  0  0  0  0  0  0  0  0  0  0
  -29.3943  -18.2372   19.6832 C   0  0  0  0  0  0  0  0  0  0  0  0
  -23.7161   -8.7232   24.0437 C   0  0  0  0  0  0  0  0  0  0  0  0
  -26.4377  -26.8319   20.0564 C   0  0  0  0  0  0  0  0  0  0  0  0
  -22.0986   -7.1313   24.6537 C   0  0  0  0  0  0  0  0  0  0  0  0
  -19.6391   -5.9083   24.1662 C   0  0  0  0  0  0  0  0  0  0  0  0
  -22.0377   -5.7586   24.4137 C   0  0  0  0  0  0  0  0  0  0  0  0
  -28.3706  -19.1343   19.9878 C   0  0  0  0  0  0  0  0  0  0  0  0
  -24.9518  -11.7811   21.3942 C   0  0  0  0  0  0  0  0  0  0  0  0
  -25.0279  -13.5484   20.0881 C   0  0  0  0  0  0  0  0  0  0  0  0
  -26.4589  -23.3125   20.7419 C   0  0  0  0  0  0  0  0  0  0  0  0
  -25.6459  -22.2432   21.3375 C   0  0  0  0  0  0  0  0  0  0  0  0
  -27.7308  -22.7430   20.2529 C   0  0  0  0  0  0  0  0  0  0  0  0
  -26.1065  -24.5952   20.6550 C   0  0  0  0  0  0  0  0  0  1  0  0
  -22.7974  -13.1645   21.1494 C   0  0  0  0  0  0  0  0  0  0  0  0
  -26.5939  -32.0810   21.4300 C   0  0  0  0  0  0  0  0  0  0  0  0
  -24.1517  -31.5090   23.4869 C   0  0  0  0  0  0  0  0  0  0  0  0
  -21.9849  -29.2563   24.8569 C   0  0  0  0  0  0  0  0  0  0  0  0
  -29.9923  -15.8633   19.0888 C   0  0  0  0  0  0  0  0  0  0  0  0
  -28.2064  -36.9153   21.1359 C   0  0  0  0  0  0  0  0  0  0  0  0
  -24.9562  -30.8714   19.9430 C   0  0  0  0  0  0  0  0  0  0  0  0
  -25.3188  -29.4869   22.5308 C   0  0  0  0  0  0  0  0  0  0  0  0
  -26.4044  -20.9530   21.2351 C   0  0  0  0  0  0  0  0  0  0  0  0
  -27.6314  -36.0209   22.2313 C   0  0  0  0  0  0  0  0  0  0  0  0
  -29.6499  -12.3910   18.3797 C   0  0  0  0  0  0  0  0  0  0  0  0
  -28.3608  -34.6816   22.2646 C   0  0  0  0  0  0  0  0  0  0  0  0
  -28.3330  -12.0101   19.0600 C   0  0  0  0  0  0  0  0  0  0  0  0
  -30.4322  -13.4198   19.1941 C   0  0  0  0  0  0  0  0  0  0  0  0
  -28.3604  -14.2438   20.2419 C   0  0  0  0  0  0  0  0  0  0  0  0
  -28.1890  -33.9268   20.9409 C   0  0  1  0  0  0  0  0  0  0  0  0
  -25.1693  -31.6413   21.2427 C   0  0  1  0  0  0  0  0  0  0  0  0
  -27.5067  -13.2584   19.4271 C   0  0  2  0  0  0  0  0  0  0  0  0
  -20.1311  -29.0779   26.5389 C   0  0  0  0  0  0  0  0  0  0  0  0
  -26.1967  -31.6186   25.7488 C   0  0  0  0  0  0  0  0  0  0  0  0
  -24.5091  -30.5170   27.2343 C   0  0  0  0  0  0  0  0  0  0  0  0
  -24.0267  -32.7571   26.2483 C   0  0  0  0  0  0  0  0  0  0  0  0
  -20.0448  -28.3848   22.7988 C   0  0  0  0  0  0  0  0  0  0  0  0
  -23.9901  -30.7137   24.7599 C   0  0  1  0  0  0  0  0  0  0  0  0
  -20.4839  -29.3083   25.0776 C   0  0  2  0  0  0  0  0  0  0  0  0
  -24.6888  -31.3893   25.9735 C   0  0  0  0  0  0  0  0  0  0  0  0
  -26.2063  -11.8050   20.9362 N   0  0  0  0  0  0  0  0  0  0  0  0
  -26.2214  -12.8909   20.1446 N   0  0  0  0  0  0  0  0  0  0  0  0
  -27.6502  -21.3671   20.5636 N   0  0  0  0  0  0  0  0  0  0  0  0
  -24.8037  -30.8623   22.4275 N   0  0  0  0  0  0  0  0  0  0  0  0
  -29.5873  -14.5761   19.5009 N   0  0  0  0  0  0  0  0  0  0  0  0
  -32.3575  -20.4521   19.8867 N   0  0  0  0  0  0  0  0  0  0  0  0
  -24.8682  -14.6604   19.3395 N   0  0  0  0  0  0  0  0  0  0  0  0
  -22.0633  -12.3348   22.0078 N   0  0  0  0  0  0  0  0  0  0  0  0
  -29.0931  -16.8803   19.4077 N   0  0  0  0  0  0  0  0  0  0  0  0
  -26.8797  -33.3137   20.8749 N   0  0  0  0  0  0  0  0  0  0  0  0
  -22.5562  -30.5089   24.9339 N   0  0  0  0  0  0  0  0  0  0  0  0
  -19.8035  -28.2647   24.2597 N   0  3  0  0  0  0  0  0  0  0  0  0
  -24.5405  -22.3810   21.8324 O   0  0  0  0  0  0  0  0  0  0  0  0
  -28.6286  -23.3594   19.7061 O   0  0  0  0  0  0  0  0  0  0  0  0
  -22.2321  -14.1482   20.6144 O   0  0  0  0  0  0  0  0  0  0  0  0
  -27.3754  -31.3562   22.0346 O   0  0  0  0  0  0  0  0  0  0  0  0
  -23.7092  -32.6592   23.4322 O   0  0  0  0  0  0  0  0  0  0  0  0
  -22.5906  -28.2087   24.6416 O   0  0  0  0  0  0  0  0  0  0  0  0
  -31.0454  -16.0460   18.4726 O   0  0  0  0  0  0  0  0  0  0  0  0
  -23.3186   -7.7397   24.8966 O   0  0  0  0  0  0  0  0  0  0  0  0
  -26.9011  -25.5528   20.0900 O   0  0  0  0  0  0  0  0  0  1  0  0
  -18.4579   -5.3210   23.9337 F   0  0  0  0  0  0  0  0  0  0  0  0
  -23.1571   -5.0219   24.4171 F   0  0  0  0  0  0  0  0  0  0  0  0
  -27.0972  -18.7124   20.0216 F   0  0  0  0  0  0  0  0  0  0  0  0
  1  2  1  0  0  0  0
  1  5  2  0  0  0  0
  2  6  2  0  0  0  0
  3  8  2  0  0  0  0
  3 17  1  0  0  0  0
  4  9  1  0  0  0  0
  4 17  2  0  0  0  0
  5 19  1  0  0  0  0
  6 21  1  0  0  0  0
  7 10  2  0  0  0  0
  7 20  1  0  0  0  0
  8 26  1  0  0  0  0
  9 26  2  0  0  0  0
 10 27  1  0  0  0  0
 11 12  2  0  0  0  0
 11 28  1  0  0  0  0
 12 29  1  0  0  0  0
 13 22  1  0  0  0  0
 13 27  2  0  0  0  0
 14 23  1  0  0  0  0
 14 24  2  0  0  0  0
 15 24  1  0  0  0  0
 15 25  2  0  0  0  0
 16 29  2  0  0  0  0
 16 30  1  0  0  0  0
 17 32  1  0  0  0  0
 18 32  1  0  0  0  0
 18 33  2  0  0  0  0
 18 38  1  0  0  0  0
 19 21  2  0  0  0  0
 19 43  1  0  0  0  0
 20 22  2  0  0  0  0
 20 44  1  0  0  0  0
 21 53  1  0  0  0  0
 22 45  1  0  0  0  0
 23 31  2  0  0  0  0
 23 66  1  0  0  0  0
 24 69  1  0  0  0  0
 25 31  1  0  0  0  0
 25 72  1  0  0  0  0
 26 83  1  0  0  0  0
 27 84  1  0  0  0  0
 28 30  2  0  0  0  0
 28 83  1  0  0  0  0
 29 85  1  0  0  0  0
 30 86  1  0  0  0  0
 31 87  1  0  0  0  0
 32 64  2  0  0  0  0
 33 65  1  0  0  0  0
 33 70  1  0  0  0  0
 34 35  1  0  0  0  0
 34 36  1  0  0  0  0
 34 37  2  0  0  0  0
 35 46  1  0  0  0  0
 35 76  2  0  0  0  0
 36 66  1  0  0  0  0
 36 77  2  0  0  0  0
 37 84  1  0  0  0  0
 38 71  1  0  0  0  0
 38 78  2  0  0  0  0
 39 54  1  0  0  0  0
 39 73  1  0  0  0  0
 39 79  2  0  0  0  0
 40 61  1  0  0  0  0
 40 67  1  0  0  0  0
 40 80  2  0  0  0  0
 41 62  1  0  0  0  0
 41 74  1  0  0  0  0
 41 81  2  0  0  0  0
 42 68  1  0  0  0  0
 42 72  1  0  0  0  0
 42 82  2  0  0  0  0
 43 47  1  0  0  0  0
 44 54  1  0  0  0  0
 45 67  1  0  0  0  0
 46 66  1  0  0  0  0
 47 49  1  0  0  0  0
 48 50  1  0  0  0  0
 48 51  1  0  0  0  0
 49 53  1  0  0  0  0
 50 55  1  0  0  0  0
 51 68  1  0  0  0  0
 52 55  1  0  0  0  0
 52 68  1  0  0  0  0
 53 73  1  0  0  0  0
 54 67  1  0  0  0  0
 55 65  1  0  0  0  0
 56 62  1  0  0  0  0
 57 63  1  0  0  0  0
 58 63  1  0  0  0  0
 59 63  1  0  0  0  0
 60 75  1  0  0  0  0
 61 63  1  0  0  0  0
 61 74  1  0  0  0  0
 62 75  1  0  0  0  0
 64 65  1  0  0  0  0
M  CHG  1  75   1
M  ISO  4  37 101  42 100  72 100  84 101
M  END
> <Batch ID>
0088

> <Smiles>
CNC(C)C(=O)NC(C(=O)N1Cc2cc([101O:1][101CH:1]=C3C(=O)CN(c4cc(N)cc([100NH:0][100C:0](=O)N5CCCC(n6nc(-c7ccc(Oc8ccc(F)cc8F)cc7)c(C(N)=O)c6N)C5)c4F)C3=O)ccc2CC1C(=O)NC1CCCc2ccccc21)C(C)(C)C

> <Shape>
0.294

> <Color>
0.143

> <Negative vol penalty>
0.000

$$$$

  -OEChem-04052300233D

 88 97  0     1  0  0  0  0  0999 V2000
  -27.2151  -34.9813   13.8196 C   0  0  0  0  0  0  0  0  0  0  0  0
  -26.9409  -33.6653   14.1781 C   0  0  0  0  0  0  0  0  0  0  0  0
  -22.9303  -10.9030   19.1730 C   0  0  0  0  0  0  0  0  0  0  0  0
  -23.2578   -9.7382   21.2642 C   0  0  0  0  0  0  0  0  0  0  0  0
  -29.4423  -19.7617   20.5277 C   0  0  0  0  0  0  0  0  0  0  0  0
  -27.9575  -35.7952   14.6743 C   0  0  0  0  0  0  0  0  0  0  0  0
  -27.4100  -33.1622   15.3911 C   0  0  0  0  0  0  0  0  0  0  0  0
  -24.6143  -29.0951   19.0172 C   0  0  0  0  0  0  0  0  0  0  0  0
  -28.4888  -20.7780   20.5877 C   0  0  0  0  0  0  0  0  0  0  0  0
  -21.9911   -9.9465   18.7873 C   0  0  0  0  0  0  0  0  0  0  0  0
  -22.3186   -8.7817   20.8786 C   0  0  0  0  0  0  0  0  0  0  0  0
  -24.7684  -27.7186   19.1764 C   0  0  0  0  0  0  0  0  0  0  0  0
  -22.2098   -6.0667   18.8668 C   0  0  0  0  0  0  0  0  0  0  0  0
  -22.5273   -4.7249   19.0773 C   0  0  0  0  0  0  0  0  0  0  0  0
  -26.2381  -28.1059   21.0497 C   0  0  0  0  0  0  0  0  0  0  0  0
  -24.4060  -22.7211   20.4407 C   0  0  0  0  0  0  0  0  0  0  0  0
  -26.9668  -19.4270   19.2856 C   0  0  0  0  0  0  0  0  0  0  0  0
  -20.5915   -4.4905   20.5038 C   0  0  0  0  0  0  0  0  0  0  0  0
  -23.5637  -10.7988   20.4115 C   0  0  0  0  0  0  0  0  0  0  0  0
  -29.1581  -18.5781   19.8465 C   0  0  0  0  0  0  0  0  0  0  0  0
  -24.2916  -12.9811   21.5139 C   0  0  0  0  0  0  0  0  0  0  0  0
  -28.4276  -35.3046   15.9027 C   0  0  0  0  0  0  0  0  0  0  0  0
  -25.2806  -29.9890   19.8677 C   0  0  0  0  0  0  0  0  0  0  0  0
  -28.1605  -33.9698   16.2623 C   0  0  0  0  0  0  0  0  0  0  0  0
  -26.0887  -29.4932   20.9009 C   0  0  0  0  0  0  0  0  0  0  0  0
  -25.3037  -23.6033   19.7903 C   0  0  0  0  0  0  0  0  0  0  0  0
  -27.2511  -20.6107   19.9667 C   0  0  0  0  0  0  0  0  0  0  0  0
  -21.6853   -8.8859   19.6401 C   0  0  0  0  0  0  0  0  0  0  0  0
  -25.5827  -27.2239   20.1909 C   0  0  0  0  0  0  0  0  0  0  0  0
  -21.0831   -6.6204   19.4748 C   0  0  0  0  0  0  0  0  0  0  0  0
  -21.7182   -3.9368   19.8957 C   0  0  0  0  0  0  0  0  0  0  0  0
  -27.9204  -18.4107   19.2255 C   0  0  0  0  0  0  0  0  0  0  0  0
  -20.2740   -5.8324   20.2933 C   0  0  0  0  0  0  0  0  0  0  0  0
  -24.5343  -11.7862   20.8102 C   0  0  0  0  0  0  0  0  0  0  0  0
  -26.4639  -22.9024   19.5452 C   0  0  0  0  0  0  0  0  0  0  0  0
  -25.5301  -13.5607   21.6438 C   0  0  0  0  0  0  0  0  0  0  0  0
  -25.0450  -21.5081   20.5734 C   0  0  0  0  0  0  0  0  0  0  0  0
  -30.1755  -17.4974   19.7847 C   0  0  0  0  0  0  0  0  0  0  0  0
  -23.0572  -13.5189   22.0063 C   0  0  0  0  0  0  0  0  0  0  0  0
  -27.4644  -32.2633   19.4649 C   0  0  0  0  0  0  0  0  0  0  0  0
  -26.9057  -32.8147   22.6123 C   0  0  0  0  0  0  0  0  0  0  0  0
  -25.8238  -31.6113   25.6170 C   0  0  0  0  0  0  0  0  0  0  0  0
  -30.4561  -15.0466   19.5886 C   0  0  0  0  0  0  0  0  0  0  0  0
  -29.2663  -36.2078   16.7719 C   0  0  0  0  0  0  0  0  0  0  0  0
  -25.0827  -31.4705   19.6997 C   0  0  0  0  0  0  0  0  0  0  0  0
  -26.8098  -30.4105   21.8533 C   0  0  0  0  0  0  0  0  0  0  0  0
  -29.4075  -35.7112   18.2085 C   0  0  0  0  0  0  0  0  0  0  0  0
  -30.1512  -11.7085   20.7118 C   0  0  0  0  0  0  0  0  0  0  0  0
  -29.7466  -34.2241   18.2284 C   0  0  0  0  0  0  0  0  0  0  0  0
  -28.6429  -11.5286   20.9042 C   0  0  0  0  0  0  0  0  0  0  0  0
  -30.4687  -12.5695   19.4900 C   0  0  0  0  0  0  0  0  0  0  0  0
  -28.2792  -13.6841   19.6371 C   0  0  0  0  0  0  0  0  0  0  0  0
  -28.6308  -33.3951   17.5809 C   0  0  1  0  0  0  0  0  0  0  0  0
  -26.2159  -32.2967   20.3003 C   0  0  1  0  0  0  0  0  0  0  0  0
  -27.9060  -12.8830   20.8949 C   0  0  1  0  0  0  0  0  0  0  0  0
  -27.7158  -23.3471   18.8922 C   0  0  0  0  0  0  0  0  0  0  0  0
  -25.5208  -32.2852   28.0152 C   0  0  0  0  0  0  0  0  0  0  0  0
  -29.9119  -32.5512   23.0636 C   0  0  0  0  0  0  0  0  0  0  0  0
  -29.4506  -32.2811   25.5095 C   0  0  0  0  0  0  0  0  0  0  0  0
  -28.8218  -34.3983   24.3499 C   0  0  0  0  0  0  0  0  0  0  0  0
  -22.9019  -31.1561   25.4967 C   0  0  0  0  0  0  0  0  0  0  0  0
  -25.0320  -25.0362   19.4380 C   0  0  0  0  0  0  0  0  0  1  0  0
  -27.4849  -32.2985   23.9073 C   0  0  1  0  0  0  0  0  0  0  0  0
  -24.8664  -32.1849   26.6460 C   0  0  2  0  0  0  0  0  0  0  0  0
  -28.9054  -32.8648   24.1886 C   0  0  0  0  0  0  0  0  0  0  0  0
  -25.8254  -11.6156   20.5135 N   0  0  0  0  0  0  0  0  0  0  0  0
  -26.2953  -21.6301   20.0258 N   0  0  0  0  0  0  0  0  0  0  0  0
  -26.4051  -12.7110   21.0333 N   0  0  0  0  0  0  0  0  0  0  0  0
  -26.5894  -31.8510   21.6442 N   0  0  0  0  0  0  0  0  0  0  0  0
  -29.7399  -13.8372   19.5620 N   0  0  0  0  0  0  0  0  0  0  0  0
  -25.9450  -14.7091   22.2193 N   0  0  0  0  0  0  0  0  0  0  0  0
  -21.8778  -12.7943   21.7866 N   0  0  0  0  0  0  0  0  0  0  0  0
  -29.6709  -16.1993   19.7012 N   0  0  0  0  0  0  0  0  0  0  0  0
  -27.5180  -33.2450   18.4938 N   0  0  0  0  0  0  0  0  0  0  0  0
  -26.5041  -32.6036   24.9434 N   0  0  0  0  0  0  0  0  0  0  0  0
  -23.6568  -31.3227   26.7653 N   0  3  0  0  0  0  0  0  0  0  0  0
  -31.3662  -17.7971   19.7705 O   0  0  0  0  0  0  0  0  0  0  0  0
  -22.9993  -14.6178   22.6086 O   0  0  0  0  0  0  0  0  0  0  0  0
  -28.3167  -31.4110   19.6859 O   0  0  0  0  0  0  0  0  0  0  0  0
  -26.7334  -34.0275   22.4678 O   0  0  0  0  0  0  0  0  0  0  0  0
  -25.9576  -30.4037   25.4319 O   0  0  0  0  0  0  0  0  0  0  0  0
  -31.6897  -15.0944   19.5538 O   0  0  0  0  0  0  0  0  0  0  0  0
  -24.6266  -20.3690   21.1121 O   0  0  0  0  0  0  0  0  0  0  0  0
  -20.7687   -7.9525   19.2642 O   0  0  0  0  0  0  0  0  0  0  0  0
  -25.7354  -25.8808   20.3481 O   0  0  0  0  0  0  0  0  0  1  0  0
  -22.0225   -2.6479   20.0966 F   0  0  0  0  0  0  0  0  0  0  0  0
  -27.6368  -17.2771   18.5686 F   0  0  0  0  0  0  0  0  0  0  0  0
  -19.1897   -6.3584   20.8792 F   0  0  0  0  0  0  0  0  0  0  0  0
  1  2  1  0  0  0  0
  1  6  2  0  0  0  0
  2  7  2  0  0  0  0
  3 10  2  0  0  0  0
  3 19  1  0  0  0  0
  4 11  1  0  0  0  0
  4 19  2  0  0  0  0
  5  9  2  0  0  0  0
  5 20  1  0  0  0  0
  6 22  1  0  0  0  0
  7 24  1  0  0  0  0
  8 12  2  0  0  0  0
  8 23  1  0  0  0  0
  9 27  1  0  0  0  0
 10 28  1  0  0  0  0
 11 28  2  0  0  0  0
 12 29  1  0  0  0  0
 13 14  2  0  0  0  0
 13 30  1  0  0  0  0
 14 31  1  0  0  0  0
 15 25  1  0  0  0  0
 15 29  2  0  0  0  0
 16 26  1  0  0  0  0
 16 37  2  0  0  0  0
 17 27  2  0  0  0  0
 17 32  1  0  0  0  0
 18 31  2  0  0  0  0
 18 33  1  0  0  0  0
 19 34  1  0  0  0  0
 20 32  2  0  0  0  0
 20 38  1  0  0  0  0
 21 34  1  0  0  0  0
 21 36  2  0  0  0  0
 21 39  1  0  0  0  0
 22 24  2  0  0  0  0
 22 44  1  0  0  0  0
 23 25  2  0  0  0  0
 23 45  1  0  0  0  0
 24 53  1  0  0  0  0
 25 46  1  0  0  0  0
 26 35  2  0  0  0  0
 26 62  1  0  0  0  0
 27 67  1  0  0  0  0
 28 84  1  0  0  0  0
 29 85  1  0  0  0  0
 30 33  2  0  0  0  0
 30 84  1  0  0  0  0
 31 86  1  0  0  0  0
 32 87  1  0  0  0  0
 33 88  1  0  0  0  0
 34 66  2  0  0  0  0
 35 56  1  0  0  0  0
 35 67  1  0  0  0  0
 36 68  1  0  0  0  0
 36 71  1  0  0  0  0
 37 67  1  0  0  0  0
 37 83  1  0  0  0  0
 38 73  1  0  0  0  0
 38 77  2  0  0  0  0
 39 72  1  0  0  0  0
 39 78  2  0  0  0  0
 40 54  1  0  0  0  0
 40 74  1  0  0  0  0
 40 79  2  0  0  0  0
 41 63  1  0  0  0  0
 41 69  1  0  0  0  0
 41 80  2  0  0  0  0
 42 64  1  0  0  0  0
 42 75  1  0  0  0  0
 42 81  2  0  0  0  0
 43 70  1  0  0  0  0
 43 73  1  0  0  0  0
 43 82  2  0  0  0  0
 44 47  1  0  0  0  0
 45 54  1  0  0  0  0
 46 69  1  0  0  0  0
 47 49  1  0  0  0  0
 48 50  1  0  0  0  0
 48 51  1  0  0  0  0
 49 53  1  0  0  0  0
 50 55  1  0  0  0  0
 51 70  1  0  0  0  0
 52 55  1  0  0  0  0
 52 70  1  0  0  0  0
 53 74  1  0  0  0  0
 54 69  1  0  0  0  0
 55 68  1  0  0  0  0
 57 64  1  0  0  0  0
 58 65  1  0  0  0  0
 59 65  1  0  0  0  0
 60 65  1  0  0  0  0
 61 76  1  0  0  0  0
 62 85  1  0  0  0  0
 63 65  1  0  0  0  0
 63 75  1  0  0  0  0
 64 76  1  0  0  0  0
 66 68  1  0  0  0  0
M  CHG  1  76   1
M  ISO  4  43 100  62 101  73 100  85 101
M  END
> <Batch ID>
0088

> <Smiles>
CNC(C)C(=O)NC(C(=O)N1Cc2cc([101O:1][101CH2:1]C3=C(C)N(c4ccc(C(=O)[100NH:0][100C:0](=O)N5CCCC(n6nc(-c7ccc(Oc8ccc(F)cc8F)cc7)c(C(N)=O)c6N)C5)c(F)c4)C(=O)C3)ccc2CC1C(=O)NC1CCCc2ccccc21)C(C)(C)C

> <Shape>
0.261

> <Color>
0.111

> <Negative vol penalty>
0.000

$$$$

  -OEChem-04052300233D

 85 94  0     1  0  0  0  0  0999 V2000
  -32.2562  -14.0733   21.2386 C   0  0  0  0  0  0  0  0  0  0  0  0
  -31.4054  -15.1713   21.3164 C   0  0  0  0  0  0  0  0  0  0  0  0
  -28.3614  -26.6056   20.3155 C   0  0  0  0  0  0  0  0  0  0  0  0
  -26.5530  -26.1947   18.7670 C   0  0  0  0  0  0  0  0  0  0  0  0
  -31.7859  -12.8630   20.7309 C   0  0  0  0  0  0  0  0  0  0  0  0
  -30.0840  -15.0598   20.8854 C   0  0  0  0  0  0  0  0  0  0  0  0
  -25.1843  -17.8505   23.2752 C   0  0  0  0  0  0  0  0  0  0  0  0
  -21.3070  -25.0169   21.0859 C   0  0  0  0  0  0  0  0  0  0  0  0
  -22.0657  -24.9634   23.3791 C   0  0  0  0  0  0  0  0  0  0  0  0
  -20.7281  -26.2667   21.3066 C   0  0  0  0  0  0  0  0  0  0  0  0
  -21.4869  -26.2131   23.5998 C   0  0  0  0  0  0  0  0  0  0  0  0
  -29.0062  -25.4524   19.8684 C   0  0  0  0  0  0  0  0  0  0  0  0
  -27.1978  -25.0416   18.3198 C   0  0  0  0  0  0  0  0  0  0  0  0
  -24.4838  -18.9972   22.9037 C   0  0  0  0  0  0  0  0  0  0  0  0
  -28.7578  -22.1157   20.3470 C   0  0  0  0  0  0  0  0  0  0  0  0
  -29.2948  -21.2601   21.3089 C   0  0  0  0  0  0  0  0  0  0  0  0
  -22.8958  -17.6320   21.7063 C   0  0  0  0  0  0  0  0  0  0  0  0
  -31.4924  -21.5638   20.3521 C   0  0  0  0  0  0  0  0  0  0  0  0
  -27.1347  -26.9768   19.7648 C   0  0  0  0  0  0  0  0  0  0  0  0
  -26.6077  -29.4723   19.7168 C   0  0  0  0  0  0  0  0  0  0  0  0
  -30.4553  -12.7339   20.3024 C   0  0  0  0  0  0  0  0  0  0  0  0
  -24.7512  -16.5846   22.8553 C   0  0  0  0  0  0  0  0  0  0  0  0
  -29.5958  -13.8470   20.3702 C   0  0  0  0  0  0  0  0  0  0  0  0
  -23.5911  -16.4705   22.0760 C   0  0  0  0  0  0  0  0  0  0  0  0
  -21.9757  -24.3652   22.1222 C   0  0  0  0  0  0  0  0  0  0  0  0
  -20.8181  -26.8648   22.5635 C   0  0  0  0  0  0  0  0  0  0  0  0
  -28.4245  -24.6704   18.8706 C   0  0  0  0  0  0  0  0  0  0  0  0
  -23.3410  -18.8883   22.1167 C   0  0  0  0  0  0  0  0  0  0  0  0
  -29.5881  -22.6953   19.3876 C   0  0  0  0  0  0  0  0  0  0  0  0
  -30.6621  -20.9842   21.3114 C   0  0  0  0  0  0  0  0  0  0  0  0
  -30.9554  -22.4194   19.3902 C   0  0  0  0  0  0  0  0  0  0  0  0
  -26.4678  -28.1676   20.2266 C   0  0  0  0  0  0  0  0  0  0  0  0
  -25.7694  -30.2356   20.4920 C   0  0  0  0  0  0  0  0  0  0  0  0
  -22.6103  -22.3292   20.7978 C   0  0  0  0  0  0  0  0  0  0  0  0
  -23.1960  -22.2585   22.7349 C   0  0  0  0  0  0  0  0  0  0  0  0
  -18.5220  -29.7742   22.3004 C   0  0  0  0  0  0  0  0  0  0  0  0
  -19.0913  -28.5829   22.1039 C   0  0  0  0  0  0  0  0  0  0  0  0
  -27.4226  -29.9514   18.6387 C   0  0  0  0  0  0  0  0  0  0  0  0
  -25.9913  -14.2696   21.0646 C   0  0  0  0  0  0  0  0  0  0  0  0
  -23.3399  -12.6547   22.0053 C   0  0  0  0  0  0  0  0  0  0  0  0
  -20.1256  -12.7767   23.1454 C   0  0  0  0  0  0  0  0  0  0  0  0
  -20.8904  -29.0891   23.6312 C   0  0  0  0  0  0  0  0  0  0  0  0
  -30.0056  -11.4188   19.7169 C   0  0  0  0  0  0  0  0  0  0  0  0
  -25.5028  -15.3552   23.2869 C   0  0  0  0  0  0  0  0  0  0  0  0
  -23.0730  -15.1332   21.6161 C   0  0  0  0  0  0  0  0  0  0  0  0
  -28.4881  -11.2781   19.6297 C   0  0  0  0  0  0  0  0  0  0  0  0
  -23.8587  -30.4527   24.8633 C   0  0  0  0  0  0  0  0  0  0  0  0
  -27.8674  -12.5427   19.0446 C   0  0  0  0  0  0  0  0  0  0  0  0
  -24.8857  -30.1465   23.7736 C   0  0  0  0  0  0  0  0  0  0  0  0
  -22.9077  -29.2783   25.0642 C   0  0  0  0  0  0  0  0  0  0  0  0
  -23.2107  -28.5498   22.7188 C   0  0  0  0  0  0  0  0  0  0  0  0
  -28.1489  -13.7585   19.9356 C   0  0  1  0  0  0  0  0  0  0  0  0
  -23.3724  -21.2521   21.5869 C   0  0  0  0  0  0  0  0  0  1  0  0
  -25.2628  -14.1568   22.3738 C   0  0  1  0  0  0  0  0  0  0  0  0
  -24.1942  -29.7109   22.4697 C   0  0  2  0  0  0  0  0  0  0  0  0
  -18.2048  -11.2940   23.7853 C   0  0  0  0  0  0  0  0  0  0  0  0
  -22.7649  -12.1305   19.0549 C   0  0  0  0  0  0  0  0  0  0  0  0
  -20.4249  -11.5097   19.6931 C   0  0  0  0  0  0  0  0  0  0  0  0
  -22.3476  -10.1788   20.5619 C   0  0  0  0  0  0  0  0  0  0  0  0
  -20.1077  -13.8022   25.9216 C   0  0  0  0  0  0  0  0  0  0  0  0
  -21.9360  -12.5015   21.4718 C   0  0  1  0  0  0  0  0  0  0  0  0
  -19.4308  -12.0456   24.2800 C   0  0  2  0  0  0  0  0  0  0  0  0
  -21.8790  -11.6056   20.2023 C   0  0  0  0  0  0  0  0  0  0  0  0
  -25.6083  -28.1021   21.2470 N   0  0  0  0  0  0  0  0  0  0  0  0
  -25.2007  -29.3753   21.3845 N   0  0  0  0  0  0  0  0  0  0  0  0
  -22.5460  -23.1333   21.9049 N   0  0  0  0  0  0  0  0  0  0  0  0
  -23.8462  -13.9611   22.0588 N   0  0  0  0  0  0  0  0  0  0  0  0
  -22.2750  -28.8918   23.8026 N   0  0  0  0  0  0  0  0  0  0  0  0
  -25.4706  -31.5521   20.4905 N   0  0  0  0  0  0  0  0  0  0  0  0
  -28.2241  -29.0325   17.9476 N   0  0  0  0  0  0  0  0  0  0  0  0
  -27.2733  -13.7543   21.0879 N   0  0  0  0  0  0  0  0  0  0  0  0
  -21.1277  -12.0138   22.5841 N   0  0  0  0  0  0  0  0  0  0  0  0
  -20.2172  -28.1625   22.7931 N   0  0  0  0  0  0  0  0  0  0  0  0
  -18.9985  -13.0106   25.3301 N   0  3  0  0  0  0  0  0  0  0  0  0
  -22.1985  -22.4521   19.6664 O   0  0  0  0  0  0  0  0  0  0  0  0
  -23.4814  -22.2973   23.9104 O   0  0  0  0  0  0  0  0  0  0  0  0
  -27.4518  -31.1613   18.3090 O   0  0  0  0  0  0  0  0  0  0  0  0
  -25.4313  -14.7845   20.1039 O   0  0  0  0  0  0  0  0  0  0  0  0
  -23.9617  -11.6530   22.3680 O   0  0  0  0  0  0  0  0  0  0  0  0
  -19.8084  -13.9097   22.7900 O   0  0  0  0  0  0  0  0  0  0  0  0
  -20.2887  -30.0100   24.1988 O   0  0  0  0  0  0  0  0  0  0  0  0
  -29.0536  -23.5452   18.4339 O   0  0  0  0  0  0  0  0  0  0  0  0
  -22.6558  -20.0061   21.7521 O   0  0  0  0  0  0  0  0  0  1  0  0
  -31.1779  -20.1637   22.2361 F   0  0  0  0  0  0  0  0  0  0  0  0
  -31.7583  -22.9742   18.4718 F   0  0  0  0  0  0  0  0  0  0  0  0
  1  2  1  0  0  0  0
  1  5  2  0  0  0  0
  2  6  2  0  0  0  0
  3 12  2  0  0  0  0
  3 19  1  0  0  0  0
  4 13  1  0  0  0  0
  4 19  2  0  0  0  0
  5 21  1  0  0  0  0
  6 23  1  0  0  0  0
  7 14  2  0  0  0  0
  7 22  1  0  0  0  0
  8 10  2  0  0  0  0
  8 25  1  0  0  0  0
  9 11  1  0  0  0  0
  9 25  2  0  0  0  0
 10 26  1  0  0  0  0
 11 26  2  0  0  0  0
 12 27  1  0  0  0  0
 13 27  2  0  0  0  0
 14 28  1  0  0  0  0
 15 16  2  0  0  0  0
 15 29  1  0  0  0  0
 16 30  1  0  0  0  0
 17 24  1  0  0  0  0
 17 28  2  0  0  0  0
 18 30  2  0  0  0  0
 18 31  1  0  0  0  0
 19 32  1  0  0  0  0
 20 32  1  0  0  0  0
 20 33  2  0  0  0  0
 20 38  1  0  0  0  0
 21 23  2  0  0  0  0
 21 43  1  0  0  0  0
 22 24  2  0  0  0  0
 22 44  1  0  0  0  0
 23 52  1  0  0  0  0
 24 45  1  0  0  0  0
 25 66  1  0  0  0  0
 26 73  1  0  0  0  0
 27 82  1  0  0  0  0
 28 83  1  0  0  0  0
 29 31  2  0  0  0  0
 29 82  1  0  0  0  0
 30 84  1  0  0  0  0
 31 85  1  0  0  0  0
 32 64  2  0  0  0  0
 33 65  1  0  0  0  0
 33 69  1  0  0  0  0
 34 53  1  0  0  0  0
 34 66  1  0  0  0  0
 34 75  2  0  0  0  0
 35 53  1  0  0  0  0
 35 66  1  0  0  0  0
 35 76  2  0  0  0  0
 36 37  2  0  0  0  0
 37 73  1  0  0  0  0
 38 70  1  0  0  0  0
 38 77  2  0  0  0  0
 39 54  1  0  0  0  0
 39 71  1  0  0  0  0
 39 78  2  0  0  0  0
 40 61  1  0  0  0  0
 40 67  1  0  0  0  0
 40 79  2  0  0  0  0
 41 62  1  0  0  0  0
 41 72  1  0  0  0  0
 41 80  2  0  0  0  0
 42 68  1  0  0  0  0
 42 73  1  0  0  0  0
 42 81  2  0  0  0  0
 43 46  1  0  0  0  0
 44 54  1  0  0  0  0
 45 67  1  0  0  0  0
 46 48  1  0  0  0  0
 47 49  1  0  0  0  0
 47 50  1  0  0  0  0
 48 52  1  0  0  0  0
 49 55  1  0  0  0  0
 50 68  1  0  0  0  0
 51 55  1  0  0  0  0
 51 68  1  0  0  0  0
 52 71  1  0  0  0  0
 53 83  1  0  0  0  0
 54 67  1  0  0  0  0
 55 65  1  0  0  0  0
 56 62  1  0  0  0  0
 57 63  1  0  0  0  0
 58 63  1  0  0  0  0
 59 63  1  0  0  0  0
 60 74  1  0  0  0  0
 61 63  1  0  0  0  0
 61 72  1  0  0  0  0
 62 74  1  0  0  0  0
 64 65  1  0  0  0  0
M  CHG  1  74   1
M  ISO  4  42 100  53 101  73 100  83 101
M  END
> <Batch ID>
0088

> <Smiles>
C=C[100N:0](c1ccc(N2C(=O)[101CH:1]([101O:1]c3ccc4c(c3)CN(C(=O)C(NC(=O)C(C)NC)C(C)(C)C)C(C(=O)NC3CCCc5ccccc53)C4)C2=O)cc1)[100C:0](=O)N1CCCC(n2nc(-c3ccc(Oc4ccc(F)cc4F)cc3)c(C(N)=O)c2N)C1

> <Shape>
0.255

> <Color>
0.054

> <Negative vol penalty>
0.000

$$$$

  -OEChem-04052300233D

 85 93  0     1  0  0  0  0  0999 V2000
  -23.3089  -36.4458   22.4645 C   0  0  0  0  0  0  0  0  0  0  0  0
  -24.2909  -35.5279   22.1060 C   0  0  0  0  0  0  0  0  0  0  0  0
  -25.0704   -8.7498   21.5177 C   0  0  0  0  0  0  0  0  0  0  0  0
  -23.5415  -10.5961   21.2164 C   0  0  0  0  0  0  0  0  0  0  0  0
  -22.2189  -36.0351   23.2308 C   0  0  0  0  0  0  0  0  0  0  0  0
  -24.1840  -34.1990   22.5144 C   0  0  0  0  0  0  0  0  0  0  0  0
  -25.9612  -29.2354   19.3983 C   0  0  0  0  0  0  0  0  0  0  0  0
  -23.9956   -7.8608   21.5240 C   0  0  0  0  0  0  0  0  0  0  0  0
  -22.4667   -9.7071   21.2227 C   0  0  0  0  0  0  0  0  0  0  0  0
  -27.1069  -28.4441   19.4688 C   0  0  0  0  0  0  0  0  0  0  0  0
  -21.6236   -6.8366   23.7034 C   0  0  0  0  0  0  0  0  0  0  0  0
  -21.6108   -5.8435   24.6827 C   0  0  0  0  0  0  0  0  0  0  0  0
  -25.9436  -26.8989   20.9105 C   0  0  0  0  0  0  0  0  0  0  0  0
  -29.1332  -19.3808   23.3808 C   0  0  0  0  0  0  0  0  0  0  0  0
  -28.9896  -20.0297   20.6714 C   0  0  0  0  0  0  0  0  0  0  0  0
  -21.6131   -4.1471   22.9624 C   0  0  0  0  0  0  0  0  0  0  0  0
  -24.8433  -10.1175   21.3639 C   0  0  0  0  0  0  0  0  0  0  0  0
  -26.6937  -11.4676   20.2409 C   0  0  0  0  0  0  0  0  0  0  0  0
  -22.0936  -34.6984   23.6407 C   0  0  0  0  0  0  0  0  0  0  0  0
  -24.7996  -28.8695   20.0933 C   0  0  0  0  0  0  0  0  0  0  0  0
  -23.0919  -33.7703   23.2880 C   0  0  0  0  0  0  0  0  0  0  0  0
  -24.7837  -27.6860   20.8451 C   0  0  0  0  0  0  0  0  0  0  0  0
  -29.1710  -20.7164   22.9806 C   0  0  0  0  0  0  0  0  0  0  0  0
  -29.0236  -18.3695   22.4262 C   0  0  0  0  0  0  0  0  0  0  0  0
  -29.0992  -21.0409   21.6259 C   0  0  0  0  0  0  0  0  0  0  0  0
  -22.6937   -8.3394   21.3765 C   0  0  0  0  0  0  0  0  0  0  0  0
  -27.0991  -27.2771   20.2273 C   0  0  0  0  0  0  0  0  0  0  0  0
  -21.6311   -6.4850   22.3535 C   0  0  0  0  0  0  0  0  0  0  0  0
  -21.6056   -4.4987   24.3122 C   0  0  0  0  0  0  0  0  0  0  0  0
  -28.9517  -18.6940   21.0715 C   0  0  0  0  0  0  0  0  0  0  0  0
  -21.6259   -5.1403   21.9831 C   0  0  0  0  0  0  0  0  0  0  0  0
  -25.9531  -11.0363   21.3579 C   0  0  0  0  0  0  0  0  0  0  0  0
  -27.6293  -12.3283   20.7608 C   0  0  0  0  0  0  0  0  0  0  0  0
  -26.5487  -11.1212   18.8572 C   0  0  0  0  0  0  0  0  0  0  0  0
  -29.1438  -24.3423   19.8208 C   0  0  0  0  0  0  0  0  0  0  0  0
  -29.0762  -22.8444   19.8969 C   0  0  0  0  0  0  0  0  0  0  0  0
  -23.0675  -30.1803   22.4140 C   0  0  0  0  0  0  0  0  0  0  0  0
  -21.0824  -27.6872   21.8087 C   0  0  0  0  0  0  0  0  0  0  0  0
  -20.6918  -24.5260   20.5837 C   0  0  0  0  0  0  0  0  0  0  0  0
  -29.0447  -16.5221   24.1388 C   0  0  0  0  0  0  0  0  0  0  0  0
  -20.9217  -34.3118   24.5078 C   0  0  0  0  0  0  0  0  0  0  0  0
  -23.5637  -29.7200   19.9855 C   0  0  0  0  0  0  0  0  0  0  0  0
  -23.5558  -27.2383   21.5936 C   0  0  0  0  0  0  0  0  0  0  0  0
  -20.6912  -32.8047   24.5837 C   0  0  0  0  0  0  0  0  0  0  0  0
  -28.9417  -13.2592   25.5601 C   0  0  0  0  0  0  0  0  0  0  0  0
  -22.0071  -32.0754   24.8360 C   0  0  0  0  0  0  0  0  0  0  0  0
  -28.2159  -12.4255   24.5016 C   0  0  0  0  0  0  0  0  0  0  0  0
  -28.3720  -14.6734   25.6569 C   0  0  0  0  0  0  0  0  0  0  0  0
  -27.5795  -14.5705   23.3265 C   0  0  0  0  0  0  0  0  0  0  0  0
  -22.9987  -32.3146   23.6910 C   0  0  1  0  0  0  0  0  0  0  0  0
  -22.5973  -29.5200   21.1489 C   0  0  1  0  0  0  0  0  0  0  0  0
  -28.1610  -13.1587   23.1470 C   0  0  2  0  0  0  0  0  0  0  0  0
  -18.9601  -22.7389   20.2595 C   0  0  0  0  0  0  0  0  0  0  0  0
  -21.2205  -27.0174   24.7823 C   0  0  0  0  0  0  0  0  0  0  0  0
  -20.2931  -24.7549   24.2446 C   0  0  0  0  0  0  0  0  0  0  0  0
  -18.9448  -26.7990   23.7684 C   0  0  0  0  0  0  0  0  0  0  0  0
  -21.0357  -24.5636   17.6444 C   0  0  0  0  0  0  0  0  0  0  0  0
  -28.0245  -25.1015   20.4843 C   0  0  0  0  0  0  0  0  0  1  0  0
  -20.9527  -26.2743   22.3243 C   0  0  1  0  0  0  0  0  0  0  0  0
  -19.6655  -23.9329   19.6353 C   0  0  2  0  0  0  0  0  0  0  0  0
  -20.3767  -26.2206   23.7675 C   0  0  0  0  0  0  0  0  0  0  0  0
  -26.3815  -11.5783   22.5010 N   0  0  0  0  0  0  0  0  0  0  0  0
  -27.4014  -12.3588   22.1052 N   0  0  0  0  0  0  0  0  0  0  0  0
  -22.3744  -28.1070   21.4620 N   0  0  0  0  0  0  0  0  0  0  0  0
  -28.3548  -15.3074   24.3368 N   0  0  0  0  0  0  0  0  0  0  0  0
  -29.2838  -21.7246   23.9642 N   0  0  0  0  0  0  0  0  0  0  0  0
  -28.6165  -13.0543   20.1946 N   0  0  0  0  0  0  0  0  0  0  0  0
  -25.5357  -10.2225   18.4961 N   0  0  0  0  0  0  0  0  0  0  0  0
  -29.1369  -22.3878   21.1958 N   0  0  0  0  0  0  0  0  0  0  0  0
  -28.9848  -17.0134   22.8351 N   0  0  0  0  0  0  0  0  0  0  0  0
  -22.6592  -31.4935   22.5486 N   0  0  0  0  0  0  0  0  0  0  0  0
  -20.1591  -25.5507   21.3369 N   0  0  0  0  0  0  0  0  0  0  0  0
  -20.3229  -23.4843   18.3753 N   0  3  0  0  0  0  0  0  0  0  0  0
  -27.3058  -11.5819   17.9695 O   0  0  0  0  0  0  0  0  0  0  0  0
  -30.0824  -24.8359   19.2142 O   0  0  0  0  0  0  0  0  0  0  0  0
  -29.0056  -22.2461   18.8362 O   0  0  0  0  0  0  0  0  0  0  0  0
  -23.7490  -29.5448   23.2100 O   0  0  0  0  0  0  0  0  0  0  0  0
  -20.0735  -28.3901   21.7103 O   0  0  0  0  0  0  0  0  0  0  0  0
  -21.8493  -24.1183   20.6523 O   0  0  0  0  0  0  0  0  0  0  0  0
  -29.6673  -17.0711   25.0516 O   0  0  0  0  0  0  0  0  0  0  0  0
  -21.6447   -7.4722   21.3824 O   0  0  0  0  0  0  0  0  0  0  0  0
  -28.2162  -26.5032   20.2983 O   0  0  0  0  0  0  0  0  0  1  0  0
  -21.5948   -3.5451   25.2528 F   0  0  0  0  0  0  0  0  0  0  0  0
  -28.8463  -17.7305   20.1453 F   0  0  0  0  0  0  0  0  0  0  0  0
  -21.6343   -4.7963   20.6879 F   0  0  0  0  0  0  0  0  0  0  0  0
  1  2  1  0  0  0  0
  1  5  2  0  0  0  0
  2  6  2  0  0  0  0
  3  8  2  0  0  0  0
  3 17  1  0  0  0  0
  4  9  1  0  0  0  0
  4 17  2  0  0  0  0
  5 19  1  0  0  0  0
  6 21  1  0  0  0  0
  7 10  2  0  0  0  0
  7 20  1  0  0  0  0
  8 26  1  0  0  0  0
  9 26  2  0  0  0  0
 10 27  1  0  0  0  0
 11 12  2  0  0  0  0
 11 28  1  0  0  0  0
 12 29  1  0  0  0  0
 13 22  1  0  0  0  0
 13 27  2  0  0  0  0
 14 23  1  0  0  0  0
 14 24  2  0  0  0  0
 15 25  1  0  0  0  0
 15 30  2  0  0  0  0
 16 29  2  0  0  0  0
 16 31  1  0  0  0  0
 17 32  1  0  0  0  0
 18 32  1  0  0  0  0
 18 33  2  0  0  0  0
 18 34  1  0  0  0  0
 19 21  2  0  0  0  0
 19 41  1  0  0  0  0
 20 22  2  0  0  0  0
 20 42  1  0  0  0  0
 21 50  1  0  0  0  0
 22 43  1  0  0  0  0
 23 25  2  0  0  0  0
 23 66  1  0  0  0  0
 24 30  1  0  0  0  0
 24 70  1  0  0  0  0
 25 69  1  0  0  0  0
 26 81  1  0  0  0  0
 27 82  1  0  0  0  0
 28 31  2  0  0  0  0
 28 81  1  0  0  0  0
 29 83  1  0  0  0  0
 30 84  1  0  0  0  0
 31 85  1  0  0  0  0
 32 62  2  0  0  0  0
 33 63  1  0  0  0  0
 33 67  1  0  0  0  0
 34 68  1  0  0  0  0
 34 74  2  0  0  0  0
 35 36  1  0  0  0  0
 35 58  1  0  0  0  0
 35 75  2  0  0  0  0
 36 69  1  0  0  0  0
 36 76  2  0  0  0  0
 37 51  1  0  0  0  0
 37 71  1  0  0  0  0
 37 77  2  0  0  0  0
 38 59  1  0  0  0  0
 38 64  1  0  0  0  0
 38 78  2  0  0  0  0
 39 60  1  0  0  0  0
 39 72  1  0  0  0  0
 39 79  2  0  0  0  0
 40 65  1  0  0  0  0
 40 70  1  0  0  0  0
 40 80  2  0  0  0  0
 41 44  1  0  0  0  0
 42 51  1  0  0  0  0
 43 64  1  0  0  0  0
 44 46  1  0  0  0  0
 45 47  1  0  0  0  0
 45 48  1  0  0  0  0
 46 50  1  0  0  0  0
 47 52  1  0  0  0  0
 48 65  1  0  0  0  0
 49 52  1  0  0  0  0
 49 65  1  0  0  0  0
 50 71  1  0  0  0  0
 51 64  1  0  0  0  0
 52 63  1  0  0  0  0
 53 60  1  0  0  0  0
 54 61  1  0  0  0  0
 55 61  1  0  0  0  0
 56 61  1  0  0  0  0
 57 73  1  0  0  0  0
 58 82  1  0  0  0  0
 59 61  1  0  0  0  0
 59 72  1  0  0  0  0
 60 73  1  0  0  0  0
 62 63  1  0  0  0  0
M  CHG  1  73   1
M  ISO  4  40 100  58 101  70 100  82 101
M  END
> <Batch ID>
0088

> <Smiles>
CNC(C)C(=O)NC(C(=O)N1Cc2cc([101O:1][101CH2:1]C(=O)C(=O)Nc3cc(F)c([100NH:0][100C:0](=O)N4CCCC(n5nc(-c6ccc(Oc7ccc(F)cc7F)cc6)c(C(N)=O)c5N)C4)cc3N)ccc2CC1C(=O)NC1CCCc2ccccc21)C(C)(C)C

> <Shape>
0.289

> <Color>
0.107

> <Negative vol penalty>
0.000

$$$$

  -OEChem-04052300233D

 87 96  0     1  0  0  0  0  0999 V2000
  -27.4969  -37.6495   21.1979 C   0  0  0  0  0  0  0  0  0  0  0  0
  -27.9512  -36.5799   20.4331 C   0  0  0  0  0  0  0  0  0  0  0  0
  -23.1494  -10.7277   21.4929 C   0  0  0  0  0  0  0  0  0  0  0  0
  -22.6267  -13.0286   20.9738 C   0  0  0  0  0  0  0  0  0  0  0  0
  -26.9110  -37.4167   22.4415 C   0  0  0  0  0  0  0  0  0  0  0  0
  -27.8208  -35.2768   20.9120 C   0  0  0  0  0  0  0  0  0  0  0  0
  -26.7280  -28.5743   18.6320 C   0  0  0  0  0  0  0  0  0  0  0  0
  -22.0861  -10.6896   22.3948 C   0  0  0  0  0  0  0  0  0  0  0  0
  -21.5633  -12.9905   21.8757 C   0  0  0  0  0  0  0  0  0  0  0  0
  -27.2769  -27.2972   18.7393 C   0  0  0  0  0  0  0  0  0  0  0  0
  -18.7226  -10.3674   22.2681 C   0  0  0  0  0  0  0  0  0  0  0  0
  -17.8834   -9.2537   22.2343 C   0  0  0  0  0  0  0  0  0  0  0  0
  -26.1767  -27.0096   20.8667 C   0  0  0  0  0  0  0  0  0  0  0  0
  -30.3097  -19.4453   21.2906 C   0  0  0  0  0  0  0  0  0  0  0  0
  -29.0028  -19.9185   19.3146 C   0  0  0  0  0  0  0  0  0  0  0  0
  -18.4451   -8.7607   24.5318 C   0  0  0  0  0  0  0  0  0  0  0  0
  -23.4197  -11.8972   20.7824 C   0  0  0  0  0  0  0  0  0  0  0  0
  -24.4824  -11.6202   18.4799 C   0  0  0  0  0  0  0  0  0  0  0  0
  -26.7647  -36.1094   22.9316 C   0  0  0  0  0  0  0  0  0  0  0  0
  -25.9068  -29.0837   19.6481 C   0  0  0  0  0  0  0  0  0  0  0  0
  -27.2337  -35.0263   22.1639 C   0  0  0  0  0  0  0  0  0  0  0  0
  -25.6166  -28.2925   20.7688 C   0  0  0  0  0  0  0  0  0  0  0  0
  -29.7170  -20.3656   20.4262 C   0  0  0  0  0  0  0  0  0  0  0  0
  -29.4741  -17.6307   19.9319 C   0  0  0  0  0  0  0  0  0  0  0  0
  -21.2930  -11.8210   22.5862 C   0  0  0  0  0  0  0  0  0  0  0  0
  -27.0036  -26.5157   19.8581 C   0  0  0  0  0  0  0  0  0  0  0  0
  -19.4231  -10.6777   23.4338 C   0  0  0  0  0  0  0  0  0  0  0  0
  -17.7446   -8.4504   23.3661 C   0  0  0  0  0  0  0  0  0  0  0  0
  -30.1883  -18.0778   21.0434 C   0  0  0  0  0  0  0  0  0  0  0  0
  -28.8813  -18.5510   19.0674 C   0  0  0  0  0  0  0  0  0  0  0  0
  -19.2843   -9.8743   24.5656 C   0  0  0  0  0  0  0  0  0  0  0  0
  -24.5183  -11.9374   19.8510 C   0  0  0  0  0  0  0  0  0  0  0  0
  -25.7715  -11.8165   18.0482 C   0  0  0  0  0  0  0  0  0  0  0  0
  -29.3723  -23.9706   20.7342 C   0  0  0  0  0  0  0  0  0  0  0  0
  -30.6779  -23.7756   21.3795 C   0  0  0  0  0  0  0  0  0  0  0  0
  -28.8485  -22.6633   20.2891 C   0  0  0  0  0  0  0  0  0  0  0  0
  -28.7555  -25.1414   20.5744 C   0  0  0  0  0  0  0  0  0  1  0  0
  -23.3823  -11.1869   17.6690 C   0  0  0  0  0  0  0  0  0  0  0  0
  -26.0711  -31.5591   21.6354 C   0  0  0  0  0  0  0  0  0  0  0  0
  -23.0767  -30.6096   22.4446 C   0  0  0  0  0  0  0  0  0  0  0  0
  -20.7766  -28.0928   22.5943 C   0  0  0  0  0  0  0  0  0  0  0  0
  -30.2584  -15.2381   20.0140 C   0  0  0  0  0  0  0  0  0  0  0  0
  -26.1679  -35.9106   24.3024 C   0  0  0  0  0  0  0  0  0  0  0  0
  -25.3009  -30.4529   19.5049 C   0  0  0  0  0  0  0  0  0  0  0  0
  -24.7246  -28.7851   21.8779 C   0  0  0  0  0  0  0  0  0  0  0  0
  -31.0105  -22.3129   21.3527 C   0  0  0  0  0  0  0  0  0  0  0  0
  -25.7275  -34.4741   24.5725 C   0  0  0  0  0  0  0  0  0  0  0  0
  -30.2997  -11.7017   19.6026 C   0  0  0  0  0  0  0  0  0  0  0  0
  -26.8139  -33.4930   24.1434 C   0  0  0  0  0  0  0  0  0  0  0  0
  -28.8188  -11.3327   19.4888 C   0  0  0  0  0  0  0  0  0  0  0  0
  -30.5261  -12.8378   20.5985 C   0  0  0  0  0  0  0  0  0  0  0  0
  -28.2335  -13.6700   20.2512 C   0  0  0  0  0  0  0  0  0  0  0  0
  -27.0876  -33.5967   22.6382 C   0  0  1  0  0  0  0  0  0  0  0  0
  -24.8943  -31.0691   20.8400 C   0  0  1  0  0  0  0  0  0  0  0  0
  -27.9484  -12.5741   19.2114 C   0  0  2  0  0  0  0  0  0  0  0  0
  -18.4297  -27.6109   23.3407 C   0  0  0  0  0  0  0  0  0  0  0  0
  -24.0141  -30.5532   25.3477 C   0  0  0  0  0  0  0  0  0  0  0  0
  -21.9892  -29.1892   25.9021 C   0  0  0  0  0  0  0  0  0  0  0  0
  -21.7257  -31.5033   25.0086 C   0  0  0  0  0  0  0  0  0  0  0  0
  -19.9282  -27.3749   19.8514 C   0  0  0  0  0  0  0  0  0  0  0  0
  -22.4953  -29.6575   23.4617 C   0  0  1  0  0  0  0  0  0  0  0  0
  -19.3170  -28.0363   22.1811 C   0  0  2  0  0  0  0  0  0  0  0  0
  -22.5745  -30.2170   24.9102 C   0  0  0  0  0  0  0  0  0  0  0  0
  -25.7339  -12.3070   20.2631 N   0  0  0  0  0  0  0  0  0  0  0  0
  -26.4738  -12.2232   19.1443 N   0  0  0  0  0  0  0  0  0  0  0  0
  -29.8386  -21.7313   20.6724 N   0  0  0  0  0  0  0  0  0  0  0  0
  -24.1612  -30.1329   21.6946 N   0  0  0  0  0  0  0  0  0  0  0  0
  -29.6715  -13.9810   20.2706 N   0  0  0  0  0  0  0  0  0  0  0  0
  -26.3613  -11.6791   16.8417 N   0  0  0  0  0  0  0  0  0  0  0  0
  -22.1261  -11.0368   18.2722 N   0  0  0  0  0  0  0  0  0  0  0  0
  -29.3493  -16.2417   19.6810 N   0  0  0  0  0  0  0  0  0  0  0  0
  -26.0529  -32.9174   21.8883 N   0  0  0  0  0  0  0  0  0  0  0  0
  -21.1410  -29.3558   23.0109 N   0  0  0  0  0  0  0  0  0  0  0  0
  -19.1314  -27.0649   21.0663 N   0  3  0  0  0  0  0  0  0  0  0  0
  -31.3747  -24.6547   21.8567 O   0  0  0  0  0  0  0  0  0  0  0  0
  -27.7885  -22.4728   19.7188 O   0  0  0  0  0  0  0  0  0  0  0  0
  -23.5130  -10.9243   16.4494 O   0  0  0  0  0  0  0  0  0  0  0  0
  -26.9311  -30.7634   21.9945 O   0  0  0  0  0  0  0  0  0  0  0  0
  -22.5822  -31.7322   22.3151 O   0  0  0  0  0  0  0  0  0  0  0  0
  -21.5184  -27.1136   22.5552 O   0  0  0  0  0  0  0  0  0  0  0  0
  -31.4800  -15.4051   20.0579 O   0  0  0  0  0  0  0  0  0  0  0  0
  -20.2552  -11.7841   23.4661 O   0  0  0  0  0  0  0  0  0  0  0  0
  -27.5386  -25.2691   19.9656 O   0  0  0  0  0  0  0  0  0  1  0  0
  -16.9375   -7.3818   23.3339 F   0  0  0  0  0  0  0  0  0  0  0  0
  -30.7627  -17.2024   21.8810 F   0  0  0  0  0  0  0  0  0  0  0  0
  -28.1928  -18.1330   17.9955 F   0  0  0  0  0  0  0  0  0  0  0  0
  -19.9537  -10.1680   25.6887 F   0  0  0  0  0  0  0  0  0  0  0  0
  1  2  1  0  0  0  0
  1  5  2  0  0  0  0
  2  6  2  0  0  0  0
  3  8  2  0  0  0  0
  3 17  1  0  0  0  0
  4  9  1  0  0  0  0
  4 17  2  0  0  0  0
  5 19  1  0  0  0  0
  6 21  1  0  0  0  0
  7 10  2  0  0  0  0
  7 20  1  0  0  0  0
  8 25  1  0  0  0  0
  9 25  2  0  0  0  0
 10 26  1  0  0  0  0
 11 12  2  0  0  0  0
 11 27  1  0  0  0  0
 12 28  1  0  0  0  0
 13 22  1  0  0  0  0
 13 26  2  0  0  0  0
 14 23  1  0  0  0  0
 14 29  2  0  0  0  0
 15 23  2  0  0  0  0
 15 30  1  0  0  0  0
 16 28  2  0  0  0  0
 16 31  1  0  0  0  0
 17 32  1  0  0  0  0
 18 32  1  0  0  0  0
 18 33  2  0  0  0  0
 18 38  1  0  0  0  0
 19 21  2  0  0  0  0
 19 43  1  0  0  0  0
 20 22  2  0  0  0  0
 20 44  1  0  0  0  0
 21 53  1  0  0  0  0
 22 45  1  0  0  0  0
 23 66  1  0  0  0  0
 24 29  1  0  0  0  0
 24 30  2  0  0  0  0
 24 71  1  0  0  0  0
 25 82  1  0  0  0  0
 26 83  1  0  0  0  0
 27 31  2  0  0  0  0
 27 82  1  0  0  0  0
 28 84  1  0  0  0  0
 29 85  1  0  0  0  0
 30 86  1  0  0  0  0
 31 87  1  0  0  0  0
 32 64  2  0  0  0  0
 33 65  1  0  0  0  0
 33 69  1  0  0  0  0
 34 35  1  0  0  0  0
 34 36  1  0  0  0  0
 34 37  2  0  0  0  0
 35 46  1  0  0  0  0
 35 75  2  0  0  0  0
 36 66  1  0  0  0  0
 36 76  2  0  0  0  0
 37 83  1  0  0  0  0
 38 70  1  0  0  0  0
 38 77  2  0  0  0  0
 39 54  1  0  0  0  0
 39 72  1  0  0  0  0
 39 78  2  0  0  0  0
 40 61  1  0  0  0  0
 40 67  1  0  0  0  0
 40 79  2  0  0  0  0
 41 62  1  0  0  0  0
 41 73  1  0  0  0  0
 41 80  2  0  0  0  0
 42 68  1  0  0  0  0
 42 71  1  0  0  0  0
 42 81  2  0  0  0  0
 43 47  1  0  0  0  0
 44 54  1  0  0  0  0
 45 67  1  0  0  0  0
 46 66  1  0  0  0  0
 47 49  1  0  0  0  0
 48 50  1  0  0  0  0
 48 51  1  0  0  0  0
 49 53  1  0  0  0  0
 50 55  1  0  0  0  0
 51 68  1  0  0  0  0
 52 55  1  0  0  0  0
 52 68  1  0  0  0  0
 53 72  1  0  0  0  0
 54 67  1  0  0  0  0
 55 65  1  0  0  0  0
 56 62  1  0  0  0  0
 57 63  1  0  0  0  0
 58 63  1  0  0  0  0
 59 63  1  0  0  0  0
 60 74  1  0  0  0  0
 61 63  1  0  0  0  0
 61 73  1  0  0  0  0
 62 74  1  0  0  0  0
 64 65  1  0  0  0  0
M  CHG  1  74   1
M  ISO  4  37 101  42 100  71 100  83 101
M  END
> <Batch ID>
0088

> <Smiles>
CNC(C)C(=O)NC(C(=O)N1Cc2cc([101O:1][101CH:1]=C3C(=O)CN(c4cc(F)c([100NH:0][100C:0](=O)N5CCCC(n6nc(-c7ccc(Oc8ccc(F)cc8F)cc7)c(C(N)=O)c6N)C5)c(F)c4)C3=O)ccc2CC1C(=O)NC1CCCc2ccccc21)C(C)(C)C

> <Shape>
0.329

> <Color>
0.078

> <Negative vol penalty>
0.000

$$$$

  -OEChem-04052300233D

 84 93  0     1  0  0  0  0  0999 V2000
  -30.1294  -36.4355   23.2827 C   0  0  0  0  0  0  0  0  0  0  0  0
  -30.2319  -35.3877   22.3733 C   0  0  0  0  0  0  0  0  0  0  0  0
  -24.1293   -8.9002   21.3216 C   0  0  0  0  0  0  0  0  0  0  0  0
  -22.9473  -10.9103   20.6892 C   0  0  0  0  0  0  0  0  0  0  0  0
  -29.3856  -36.2731   24.4508 C   0  0  0  0  0  0  0  0  0  0  0  0
  -29.5914  -34.1764   22.6319 C   0  0  0  0  0  0  0  0  0  0  0  0
  -26.3486  -28.7462   19.2683 C   0  0  0  0  0  0  0  0  0  0  0  0
  -23.1175   -8.5913   22.2307 C   0  0  0  0  0  0  0  0  0  0  0  0
  -21.9355  -10.6013   21.5983 C   0  0  0  0  0  0  0  0  0  0  0  0
  -26.3816  -27.3547   19.1892 C   0  0  0  0  0  0  0  0  0  0  0  0
  -20.0057   -7.2717   22.1410 C   0  0  0  0  0  0  0  0  0  0  0  0
  -19.5383   -5.9578   22.1689 C   0  0  0  0  0  0  0  0  0  0  0  0
  -25.0588  -27.2150   21.2016 C   0  0  0  0  0  0  0  0  0  0  0  0
  -26.6529  -19.1926   19.1452 C   0  0  0  0  0  0  0  0  0  0  0  0
  -20.1999   -5.7718   24.4851 C   0  0  0  0  0  0  0  0  0  0  0  0
  -29.0443  -18.1184   19.9871 C   0  0  0  0  0  0  0  0  0  0  0  0
  -24.0442  -10.0598   20.5509 C   0  0  0  0  0  0  0  0  0  0  0  0
  -25.1629   -9.9976   18.2591 C   0  0  0  0  0  0  0  0  0  0  0  0
  -28.7277  -35.0624   24.7192 C   0  0  0  0  0  0  0  0  0  0  0  0
  -25.6786  -29.3836   20.3224 C   0  0  0  0  0  0  0  0  0  0  0  0
  -28.8391  -33.9971   23.8053 C   0  0  0  0  0  0  0  0  0  0  0  0
  -25.0166  -28.6148   21.2904 C   0  0  0  0  0  0  0  0  0  0  0  0
  -26.9074  -17.8386   18.9491 C   0  0  0  0  0  0  0  0  0  0  0  0
  -28.1146  -17.2913   19.3730 C   0  0  0  0  0  0  0  0  0  0  0  0
  -22.0206   -9.4418   22.3691 C   0  0  0  0  0  0  0  0  0  0  0  0
  -25.7391  -26.5888   20.1575 C   0  0  0  0  0  0  0  0  0  0  0  0
  -20.5702   -7.8357   23.2851 C   0  0  0  0  0  0  0  0  0  0  0  0
  -19.6354   -5.2079   23.3410 C   0  0  0  0  0  0  0  0  0  0  0  0
  -20.6673   -7.0857   24.4571 C   0  0  0  0  0  0  0  0  0  0  0  0
  -25.0893  -10.3797   19.6120 C   0  0  0  0  0  0  0  0  0  0  0  0
  -26.3383  -10.5485   17.8102 C   0  0  0  0  0  0  0  0  0  0  0  0
  -27.6195  -19.9715   19.7652 C   0  0  0  0  0  0  0  0  0  0  0  0
  -27.1395  -23.2768   20.0488 C   0  0  0  0  0  0  0  0  0  0  0  0
  -28.2411  -22.3509   20.0574 C   0  0  0  0  0  0  0  0  0  0  0  0
  -29.5680  -22.5052   20.1064 C   0  0  0  0  0  0  0  0  0  0  0  0
  -26.9885  -24.6120   20.1153 C   0  0  0  0  0  0  0  0  0  1  0  0
  -24.2504   -9.2148   17.4780 C   0  0  0  0  0  0  0  0  0  0  0  0
  -26.5474  -31.3237   22.6856 C   0  0  0  0  0  0  0  0  0  0  0  0
  -23.3515  -31.4647   23.2226 C   0  0  0  0  0  0  0  0  0  0  0  0
  -20.2891  -29.9974   22.8830 C   0  0  0  0  0  0  0  0  0  0  0  0
  -29.5778  -15.2503   19.5721 C   0  0  0  0  0  0  0  0  0  0  0  0
  -27.9742  -34.9180   26.0177 C   0  0  0  0  0  0  0  0  0  0  0  0
  -25.6297  -30.8859   20.3787 C   0  0  0  0  0  0  0  0  0  0  0  0
  -24.2662  -29.2507   22.4309 C   0  0  0  0  0  0  0  0  0  0  0  0
  -26.2226  -22.1113   19.9270 C   0  0  0  0  0  0  0  0  0  0  0  0
  -27.0173  -33.7288   26.0377 C   0  0  0  0  0  0  0  0  0  0  0  0
  -30.6786  -11.8721   19.3411 C   0  0  0  0  0  0  0  0  0  0  0  0
  -27.7063  -32.4800   25.4967 C   0  0  0  0  0  0  0  0  0  0  0  0
  -29.3771  -11.0717   19.2551 C   0  0  0  0  0  0  0  0  0  0  0  0
  -30.5455  -13.0726   20.2765 C   0  0  0  0  0  0  0  0  0  0  0  0
  -28.1123  -13.1622   19.9011 C   0  0  0  0  0  0  0  0  0  0  0  0
  -28.1384  -32.6763   24.0385 C   0  0  1  0  0  0  0  0  0  0  0  0
  -25.3529  -31.4226   21.7796 C   0  0  1  0  0  0  0  0  0  0  0  0
  -28.1779  -11.9803   18.9201 C   0  0  2  0  0  0  0  0  0  0  0  0
  -17.8693  -30.3334   23.4566 C   0  0  0  0  0  0  0  0  0  0  0  0
  -23.9282  -30.6690   26.1112 C   0  0  0  0  0  0  0  0  0  0  0  0
  -21.5031  -30.1012   26.3657 C   0  0  0  0  0  0  0  0  0  0  0  0
  -22.1860  -32.4435   25.8460 C   0  0  0  0  0  0  0  0  0  0  0  0
  -19.4975  -30.0279   20.0315 C   0  0  0  0  0  0  0  0  0  0  0  0
  -22.3707  -30.6716   24.0520 C   0  0  1  0  0  0  0  0  0  0  0  0
  -18.9547  -30.5482   22.4134 C   0  0  2  0  0  0  0  0  0  0  0  0
  -22.5127  -30.9590   25.5734 C   0  0  0  0  0  0  0  0  0  0  0  0
  -26.1347  -11.1163   19.9974 N   0  0  0  0  0  0  0  0  0  0  0  0
  -26.8764  -11.2014   18.8799 N   0  0  0  0  0  0  0  0  0  0  0  0
  -28.7735  -19.4189   20.1635 N   0  3  0  0  0  0  0  0  0  0  0  0
  -27.4223  -21.3245   19.9873 N   0  0  0  0  0  0  0  0  0  0  0  0
  -24.2526  -30.7228   22.4458 N   0  0  0  0  0  0  0  0  0  0  0  0
  -29.3912  -13.8897   19.8959 N   0  0  0  0  0  0  0  0  0  0  0  0
  -25.9286  -17.0387   18.3186 N   0  0  0  0  0  0  0  0  0  0  0  0
  -26.9536  -10.5332   16.6087 N   0  0  0  0  0  0  0  0  0  0  0  0
  -23.0909   -8.7264   18.0956 N   0  0  0  0  0  0  0  0  0  0  0  0
  -28.4133  -15.9178   19.1939 N   0  0  0  0  0  0  0  0  0  0  0  0
  -27.0021  -32.5423   23.1523 N   0  0  0  0  0  0  0  0  0  0  0  0
  -21.0481  -30.9630   23.5098 N   0  0  0  0  0  0  0  0  0  0  0  0
  -18.5328  -29.8775   21.1512 N   0  3  0  0  0  0  0  0  0  0  0  0
  -24.4652   -8.9422   16.2726 O   0  0  0  0  0  0  0  0  0  0  0  0
  -27.0207  -30.2231   22.9435 O   0  0  0  0  0  0  0  0  0  0  0  0
  -23.3146  -32.6973   23.2570 O   0  0  0  0  0  0  0  0  0  0  0  0
  -20.6230  -28.8267   22.7144 O   0  0  0  0  0  0  0  0  0  0  0  0
  -30.6930  -15.7770   19.6000 O   0  0  0  0  0  0  0  0  0  0  0  0
  -21.0331   -9.1405   23.2559 O   0  0  0  0  0  0  0  0  0  0  0  0
  -25.7702  -25.2304   20.0830 O   0  0  0  0  0  0  0  0  0  1  0  0
  -19.1852   -3.9466   23.3681 F   0  0  0  0  0  0  0  0  0  0  0  0
  -21.2076   -7.6225   25.5598 F   0  0  0  0  0  0  0  0  0  0  0  0
  1  2  1  0  0  0  0
  1  5  2  0  0  0  0
  2  6  2  0  0  0  0
  3  8  2  0  0  0  0
  3 17  1  0  0  0  0
  4  9  1  0  0  0  0
  4 17  2  0  0  0  0
  5 19  1  0  0  0  0
  6 21  1  0  0  0  0
  7 10  2  0  0  0  0
  7 20  1  0  0  0  0
  8 25  1  0  0  0  0
  9 25  2  0  0  0  0
 10 26  1  0  0  0  0
 11 12  2  0  0  0  0
 11 27  1  0  0  0  0
 12 28  1  0  0  0  0
 13 22  1  0  0  0  0
 13 26  2  0  0  0  0
 14 23  2  0  0  0  0
 14 32  1  0  0  0  0
 15 28  2  0  0  0  0
 15 29  1  0  0  0  0
 16 24  2  0  0  0  0
 16 65  1  0  0  0  0
 17 30  1  0  0  0  0
 18 30  1  0  0  0  0
 18 31  2  0  0  0  0
 18 37  1  0  0  0  0
 19 21  2  0  0  0  0
 19 42  1  0  0  0  0
 20 22  2  0  0  0  0
 20 43  1  0  0  0  0
 21 52  1  0  0  0  0
 22 44  1  0  0  0  0
 23 24  1  0  0  0  0
 23 69  1  0  0  0  0
 24 72  1  0  0  0  0
 25 81  1  0  0  0  0
 26 82  1  0  0  0  0
 27 29  2  0  0  0  0
 27 81  1  0  0  0  0
 28 83  1  0  0  0  0
 29 84  1  0  0  0  0
 30 63  2  0  0  0  0
 31 64  1  0  0  0  0
 31 70  1  0  0  0  0
 32 65  2  0  0  0  0
 32 66  1  0  0  0  0
 33 34  1  0  0  0  0
 33 36  2  0  0  0  0
 33 45  1  0  0  0  0
 34 35  2  0  0  0  0
 34 66  1  0  0  0  0
 36 82  1  0  0  0  0
 37 71  1  0  0  0  0
 37 76  2  0  0  0  0
 38 53  1  0  0  0  0
 38 73  1  0  0  0  0
 38 77  2  0  0  0  0
 39 60  1  0  0  0  0
 39 67  1  0  0  0  0
 39 78  2  0  0  0  0
 40 61  1  0  0  0  0
 40 74  1  0  0  0  0
 40 79  2  0  0  0  0
 41 68  1  0  0  0  0
 41 72  1  0  0  0  0
 41 80  2  0  0  0  0
 42 46  1  0  0  0  0
 43 53  1  0  0  0  0
 44 67  1  0  0  0  0
 45 66  1  0  0  0  0
 46 48  1  0  0  0  0
 47 49  1  0  0  0  0
 47 50  1  0  0  0  0
 48 52  1  0  0  0  0
 49 54  1  0  0  0  0
 50 68  1  0  0  0  0
 51 54  1  0  0  0  0
 51 68  1  0  0  0  0
 52 73  1  0  0  0  0
 53 67  1  0  0  0  0
 54 64  1  0  0  0  0
 55 61  1  0  0  0  0
 56 62  1  0  0  0  0
 57 62  1  0  0  0  0
 58 62  1  0  0  0  0
 59 75  1  0  0  0  0
 60 62  1  0  0  0  0
 60 74  1  0  0  0  0
 61 75  1  0  0  0  0
 63 64  1  0  0  0  0
M  CHG  2  65   1  75   1
M  ISO  4  36 101  41 100  72 100  82 101
M  END
> <Batch ID>
0088

> <Smiles>
C=C1C(=[101CH:1][101O:1]c2ccc3c(c2)CN(C(=O)C(NC(=O)C(C)NC)C(C)(C)C)C(C(=O)NC2CCCc4ccccc42)C3)CN1c1cc(N)c([100NH:0][100C:0](=O)N2CCCC(n3nc(-c4ccc(Oc5ccc(F)cc5F)cc4)c(C(N)=O)c3N)C2)cn1

> <Shape>
0.272

> <Color>
0.079

> <Negative vol penalty>
0.000

$$$$

  -OEChem-04052300233D

 84 92  0     1  0  0  0  0  0999 V2000
  -26.6490  -21.8848   16.2821 C   0  0  0  0  0  0  0  0  0  0  0  0
  -27.1221  -20.7015   16.8377 C   0  0  0  0  0  0  0  0  0  0  0  0
  -22.9393  -29.8215   22.2238 C   0  0  0  0  0  0  0  0  0  0  0  0
  -23.8407  -28.5951   24.1001 C   0  0  0  0  0  0  0  0  0  0  0  0
  -29.4096  -21.3390   23.7453 C   0  0  0  0  0  0  0  0  0  0  0  0
  -25.4205  -22.3998   16.6905 C   0  0  0  0  0  0  0  0  0  0  0  0
  -26.3615  -20.0265   17.7931 C   0  0  0  0  0  0  0  0  0  0  0  0
  -27.9831  -15.6084   19.2266 C   0  0  0  0  0  0  0  0  0  0  0  0
  -29.1661  -22.5344   23.0692 C   0  0  0  0  0  0  0  0  0  0  0  0
  -21.7050  -29.9008   22.8687 C   0  0  0  0  0  0  0  0  0  0  0  0
  -22.6064  -28.6745   24.7450 C   0  0  0  0  0  0  0  0  0  0  0  0
  -29.1071  -15.4440   20.0349 C   0  0  0  0  0  0  0  0  0  0  0  0
  -19.0430  -27.8889   23.4076 C   0  0  0  0  0  0  0  0  0  0  0  0
  -17.9007  -27.6172   22.6547 C   0  0  0  0  0  0  0  0  0  0  0  0
  -27.6753  -15.0139   21.9281 C   0  0  0  0  0  0  0  0  0  0  0  0
  -29.0611  -21.3299   20.9775 C   0  0  0  0  0  0  0  0  0  0  0  0
  -17.0710  -29.8399   23.1112 C   0  0  0  0  0  0  0  0  0  0  0  0
  -24.0072  -29.1686   22.8395 C   0  0  0  0  0  0  0  0  0  0  0  0
  -29.4790  -20.1390   23.0376 C   0  0  0  0  0  0  0  0  0  0  0  0
  -26.3478  -30.0018   22.2607 C   0  0  0  0  0  0  0  0  0  0  0  0
  -24.6509  -21.7367   17.6606 C   0  0  0  0  0  0  0  0  0  0  0  0
  -26.6945  -15.4875   19.7663 C   0  0  0  0  0  0  0  0  0  0  0  0
  -25.1081  -20.5176   18.2009 C   0  0  0  0  0  0  0  0  0  0  0  0
  -26.5366  -15.1748   21.1240 C   0  0  0  0  0  0  0  0  0  0  0  0
  -28.9918  -22.5299   21.6852 C   0  0  0  0  0  0  0  0  0  0  0  0
  -21.5385  -29.3273   24.1292 C   0  0  0  0  0  0  0  0  0  0  0  0
  -28.9533  -15.1495   21.3865 C   0  0  0  0  0  0  0  0  0  0  0  0
  -19.1993  -29.1362   24.0124 C   0  0  0  0  0  0  0  0  0  0  0  0
  -16.9147  -28.5926   22.5065 C   0  0  0  0  0  0  0  0  0  0  0  0
  -29.3047  -20.1345   21.6537 C   0  0  0  0  0  0  0  0  0  0  0  0
  -18.2133  -30.1116   23.8641 C   0  0  0  0  0  0  0  0  0  0  0  0
  -25.2823  -29.0859   22.1737 C   0  0  0  0  0  0  0  0  0  0  0  0
  -27.3216  -29.4738   21.4488 C   0  0  0  0  0  0  0  0  0  0  0  0
  -29.7375  -18.8752   23.7563 C   0  0  0  0  0  0  0  0  0  0  0  0
  -26.4482  -31.2209   23.0087 C   0  0  0  0  0  0  0  0  0  0  0  0
  -24.2054  -17.4379   20.0886 C   0  0  0  0  0  0  0  0  0  0  0  0
  -22.7355  -14.7522   21.1604 C   0  0  0  0  0  0  0  0  0  0  0  0
  -23.0246  -11.6542   22.5625 C   0  0  0  0  0  0  0  0  0  0  0  0
  -28.5484  -23.9161   19.6290 C   0  0  0  0  0  0  0  0  0  0  0  0
  -23.3250  -22.3345   18.0602 C   0  0  0  0  0  0  0  0  0  0  0  0
  -25.4925  -15.6414   18.8753 C   0  0  0  0  0  0  0  0  0  0  0  0
  -25.1751  -15.0144   21.7478 C   0  0  0  0  0  0  0  0  0  0  0  0
  -22.8039  -21.7918   19.3870 C   0  0  0  0  0  0  0  0  0  0  0  0
  -27.8755  -26.7345   17.5599 C   0  0  0  0  0  0  0  0  0  0  0  0
  -22.8637  -20.2716   19.3861 C   0  0  0  0  0  0  0  0  0  0  0  0
  -27.2367  -27.7430   18.5175 C   0  0  0  0  0  0  0  0  0  0  0  0
  -27.4535  -25.3018   17.8808 C   0  0  0  0  0  0  0  0  0  0  0  0
  -27.0248  -25.8986   20.2322 C   0  0  0  0  0  0  0  0  0  0  0  0
  -24.3123  -19.7821   19.2640 C   0  0  1  0  0  0  0  0  0  0  0  0
  -24.2236  -16.0037   19.6410 C   0  0  1  0  0  0  0  0  0  0  0  0
  -27.4714  -27.3495   19.9891 C   0  0  2  0  0  0  0  0  0  0  0  0
  -21.6445   -9.7134   23.3536 C   0  0  0  0  0  0  0  0  0  0  0  0
  -21.9658  -16.3220   23.6611 C   0  0  0  0  0  0  0  0  0  0  0  0
  -21.4526  -14.1446   24.7853 C   0  0  0  0  0  0  0  0  0  0  0  0
  -20.1634  -14.8375   22.7653 C   0  0  0  0  0  0  0  0  0  0  0  0
  -24.2906   -9.8133   20.6216 C   0  0  0  0  0  0  0  0  0  0  0  0
  -31.9923  -16.0558   23.0959 C   0  0  0  0  0  0  0  0  0  0  0  0
  -31.1883  -16.9019   24.0690 C   0  0  0  0  0  0  0  0  0  0  0  0
  -31.2181  -15.7273   21.8257 C   0  0  0  0  0  0  0  0  0  1  0  0
  -22.5653  -14.0915   22.5071 C   0  0  1  0  0  0  0  0  0  0  0  0
  -22.4109  -10.3175   22.1872 C   0  0  2  0  0  0  0  0  0  0  0  0
  -21.5626  -14.8538   23.4187 C   0  0  0  0  0  0  0  0  0  0  0  0
  -25.5535  -28.0543   21.3698 N   0  0  0  0  0  0  0  0  0  0  0  0
  -26.8004  -28.3189   20.9442 N   0  0  0  0  0  0  0  0  0  0  0  0
  -24.0306  -15.1807   20.8367 N   0  0  0  0  0  0  0  0  0  0  0  0
  -27.7092  -24.9987   19.2906 N   0  0  0  0  0  0  0  0  0  0  0  0
  -28.5644  -29.8895   21.1243 N   0  0  0  0  0  0  0  0  0  0  0  0
  -28.8713  -18.4991   24.6972 N   0  0  0  0  0  0  0  0  0  0  0  0
  -25.3551  -31.6165   23.7915 N   0  0  0  0  0  0  0  0  0  0  0  0
  -28.7442  -23.7446   20.9989 N   0  0  0  0  0  0  0  0  0  0  0  0
  -24.3110  -18.3508   19.0566 N   0  0  0  0  0  0  0  0  0  0  0  0
  -22.1945  -12.7064   22.2383 N   0  0  0  0  0  0  0  0  0  0  0  0
  -30.8283  -18.1688   23.4318 N   0  3  0  0  0  0  0  0  0  0  0  0
  -23.4734   -9.3571   21.7753 N   0  3  0  0  0  0  0  0  0  0  0  0
  -27.4707  -31.9465   22.9708 O   0  0  0  0  0  0  0  0  0  0  0  0
  -24.1016  -17.6971   21.2818 O   0  0  0  0  0  0  0  0  0  0  0  0
  -21.7568  -14.8768   20.4200 O   0  0  0  0  0  0  0  0  0  0  0  0
  -24.1283  -11.7548   23.0939 O   0  0  0  0  0  0  0  0  0  0  0  0
  -29.0777  -23.2110   18.7661 O   0  0  0  0  0  0  0  0  0  0  0  0
  -20.3343  -29.4047   24.7588 O   0  0  0  0  0  0  0  0  0  0  0  0
  -30.0487  -14.9891   22.1778 O   0  0  0  0  0  0  0  0  0  1  0  0
  -15.8185  -28.3320   21.7822 F   0  0  0  0  0  0  0  0  0  0  0  0
  -29.3715  -18.9866   20.9647 F   0  0  0  0  0  0  0  0  0  0  0  0
  -18.3585  -31.3121   24.4417 F   0  0  0  0  0  0  0  0  0  0  0  0
  1  2  1  0  0  0  0
  1  6  2  0  0  0  0
  2  7  2  0  0  0  0
  3 10  2  0  0  0  0
  3 18  1  0  0  0  0
  4 11  1  0  0  0  0
  4 18  2  0  0  0  0
  5  9  2  0  0  0  0
  5 19  1  0  0  0  0
  6 21  1  0  0  0  0
  7 23  1  0  0  0  0
  8 12  2  0  0  0  0
  8 22  1  0  0  0  0
  9 25  1  0  0  0  0
 10 26  1  0  0  0  0
 11 26  2  0  0  0  0
 12 27  1  0  0  0  0
 13 14  2  0  0  0  0
 13 28  1  0  0  0  0
 14 29  1  0  0  0  0
 15 24  1  0  0  0  0
 15 27  2  0  0  0  0
 16 25  2  0  0  0  0
 16 30  1  0  0  0  0
 17 29  2  0  0  0  0
 17 31  1  0  0  0  0
 18 32  1  0  0  0  0
 19 30  2  0  0  0  0
 19 34  1  0  0  0  0
 20 32  1  0  0  0  0
 20 33  2  0  0  0  0
 20 35  1  0  0  0  0
 21 23  2  0  0  0  0
 21 40  1  0  0  0  0
 22 24  2  0  0  0  0
 22 41  1  0  0  0  0
 23 49  1  0  0  0  0
 24 42  1  0  0  0  0
 25 70  1  0  0  0  0
 26 80  1  0  0  0  0
 27 81  1  0  0  0  0
 28 31  2  0  0  0  0
 28 80  1  0  0  0  0
 29 82  1  0  0  0  0
 30 83  1  0  0  0  0
 31 84  1  0  0  0  0
 32 63  2  0  0  0  0
 33 64  1  0  0  0  0
 33 67  1  0  0  0  0
 34 68  1  0  0  0  0
 34 73  2  0  0  0  0
 35 69  1  0  0  0  0
 35 75  2  0  0  0  0
 36 50  1  0  0  0  0
 36 71  1  0  0  0  0
 36 76  2  0  0  0  0
 37 60  1  0  0  0  0
 37 65  1  0  0  0  0
 37 77  2  0  0  0  0
 38 61  1  0  0  0  0
 38 72  1  0  0  0  0
 38 78  2  0  0  0  0
 39 66  1  0  0  0  0
 39 70  1  0  0  0  0
 39 79  2  0  0  0  0
 40 43  1  0  0  0  0
 41 50  1  0  0  0  0
 42 65  1  0  0  0  0
 43 45  1  0  0  0  0
 44 46  1  0  0  0  0
 44 47  1  0  0  0  0
 45 49  1  0  0  0  0
 46 51  1  0  0  0  0
 47 66  1  0  0  0  0
 48 51  1  0  0  0  0
 48 66  1  0  0  0  0
 49 71  1  0  0  0  0
 50 65  1  0  0  0  0
 51 64  1  0  0  0  0
 52 61  1  0  0  0  0
 53 62  1  0  0  0  0
 54 62  1  0  0  0  0
 55 62  1  0  0  0  0
 56 74  1  0  0  0  0
 57 58  1  0  0  0  0
 57 59  1  0  0  0  0
 58 73  1  0  0  0  0
 59 81  1  0  0  0  0
 60 62  1  0  0  0  0
 60 72  1  0  0  0  0
 61 74  1  0  0  0  0
 63 64  1  0  0  0  0
M  CHG  2  73   1  74   1
M  ISO  4  39 100  59 101  70 100  81 101
M  END
> <Batch ID>
0088

> <Smiles>
CNC(C)C(=O)NC(C(=O)N1Cc2cc([101O:1][101CH2:1]CCNC(=N)c3ccc([100NH:0][100C:0](=O)N4CCCC(n5nc(-c6ccc(Oc7ccc(F)cc7F)cc6)c(C(N)=O)c5N)C4)cc3F)ccc2CC1C(=O)NC1CCCc2ccccc21)C(C)(C)C

> <Shape>
0.241

> <Color>
0.060

> <Negative vol penalty>
0.000

$$$$

  -OEChem-04052300233D

 86 95  0     1  0  0  0  0  0999 V2000
  -28.7496  -32.8384   20.9996 C   0  0  0  0  0  0  0  0  0  0  0  0
  -28.6409  -31.4680   21.2128 C   0  0  0  0  0  0  0  0  0  0  0  0
  -31.6163  -18.7360   24.6463 C   0  0  0  0  0  0  0  0  0  0  0  0
  -24.6176   -9.7584   21.5876 C   0  0  0  0  0  0  0  0  0  0  0  0
  -24.7241  -11.0632   23.6182 C   0  0  0  0  0  0  0  0  0  0  0  0
  -27.7300  -33.6913   21.4202 C   0  0  0  0  0  0  0  0  0  0  0  0
  -27.5128  -30.9497   21.8478 C   0  0  0  0  0  0  0  0  0  0  0  0
  -25.7032  -26.8252   19.5329 C   0  0  0  0  0  0  0  0  0  0  0  0
  -30.8870  -19.8452   24.2182 C   0  0  0  0  0  0  0  0  0  0  0  0
  -31.4701  -17.5113   23.9949 C   0  0  0  0  0  0  0  0  0  0  0  0
  -24.3927   -8.6057   22.3401 C   0  0  0  0  0  0  0  0  0  0  0  0
  -24.4991   -9.9105   24.3707 C   0  0  0  0  0  0  0  0  0  0  0  0
  -26.3731  -25.6234   19.7577 C   0  0  0  0  0  0  0  0  0  0  0  0
  -21.8000   -7.1464   23.9468 C   0  0  0  0  0  0  0  0  0  0  0  0
  -20.7945   -6.2793   23.5195 C   0  0  0  0  0  0  0  0  0  0  0  0
  -24.6965  -24.9985   21.3756 C   0  0  0  0  0  0  0  0  0  0  0  0
  -22.4221   -4.5098   23.2805 C   0  0  0  0  0  0  0  0  0  0  0  0
  -24.7834  -10.9872   22.2266 C   0  0  0  0  0  0  0  0  0  0  0  0
  -24.0476  -13.0599   20.9344 C   0  0  0  0  0  0  0  0  0  0  0  0
  -26.5845  -33.1822   22.0521 C   0  0  0  0  0  0  0  0  0  0  0  0
  -24.5288  -27.1281   20.2369 C   0  0  0  0  0  0  0  0  0  0  0  0
  -26.4775  -31.7967   22.2785 C   0  0  0  0  0  0  0  0  0  0  0  0
  -24.0122  -26.2038   21.1561 C   0  0  0  0  0  0  0  0  0  0  0  0
  -30.0113  -19.7297   23.1386 C   0  0  0  0  0  0  0  0  0  0  0  0
  -30.5945  -17.3958   22.9153 C   0  0  0  0  0  0  0  0  0  0  0  0
  -24.3334   -8.6817   23.7316 C   0  0  0  0  0  0  0  0  0  0  0  0
  -25.8713  -24.7110   20.6813 C   0  0  0  0  0  0  0  0  0  0  0  0
  -23.1166   -6.6953   24.0410 C   0  0  0  0  0  0  0  0  0  0  0  0
  -21.1056   -4.9609   23.1863 C   0  0  0  0  0  0  0  0  0  0  0  0
  -23.4276   -5.3769   23.7079 C   0  0  0  0  0  0  0  0  0  0  0  0
  -29.8651  -18.5049   22.4871 C   0  0  0  0  0  0  0  0  0  0  0  0
  -25.0164  -12.1782   21.4499 C   0  0  0  0  0  0  0  0  0  0  0  0
  -24.7745  -14.0231   20.2783 C   0  0  0  0  0  0  0  0  0  0  0  0
  -28.1872  -22.4044   22.1840 C   0  0  0  0  0  0  0  0  0  0  0  0
  -29.2400  -22.1081   23.1563 C   0  0  0  0  0  0  0  0  0  0  0  0
  -30.3437  -14.7586   24.2019 C   0  0  0  0  0  0  0  0  0  0  0  0
  -27.4802  -23.5075   21.8786 C   0  0  0  0  0  0  0  0  0  1  0  0
  -30.6111  -14.9169   22.9037 C   0  0  0  0  0  0  0  0  0  0  0  0
  -22.6185  -13.0126   21.0392 C   0  0  0  0  0  0  0  0  0  0  0  0
  -23.6614  -29.4045   22.2787 C   0  0  0  0  0  0  0  0  0  0  0  0
  -20.7462  -28.0117   21.9887 C   0  0  0  0  0  0  0  0  0  0  0  0
  -18.9302  -25.2217   21.2374 C   0  0  0  0  0  0  0  0  0  0  0  0
  -30.2801  -16.1100   20.8319 C   0  0  0  0  0  0  0  0  0  0  0  0
  -25.5301  -34.1481   22.5316 C   0  0  0  0  0  0  0  0  0  0  0  0
  -23.8035  -28.4171   19.9634 C   0  0  0  0  0  0  0  0  0  0  0  0
  -22.7440  -26.4722   21.9230 C   0  0  0  0  0  0  0  0  0  0  0  0
  -28.2587  -20.9707   21.7106 C   0  0  0  0  0  0  0  0  0  0  0  0
  -24.1973  -33.4807   22.8610 C   0  0  0  0  0  0  0  0  0  0  0  0
  -28.8965  -14.6867   17.9599 C   0  0  0  0  0  0  0  0  0  0  0  0
  -24.4210  -32.2287   23.7032 C   0  0  0  0  0  0  0  0  0  0  0  0
  -27.6531  -13.9594   18.4708 C   0  0  0  0  0  0  0  0  0  0  0  0
  -30.0603  -14.5289   18.9316 C   0  0  0  0  0  0  0  0  0  0  0  0
  -28.5114  -14.2718   20.8443 C   0  0  0  0  0  0  0  0  0  0  0  0
  -25.2581  -31.1939   22.9417 C   0  0  1  0  0  0  0  0  0  0  0  0
  -22.8962  -28.8474   21.1118 C   0  0  1  0  0  0  0  0  0  0  0  0
  -27.2998  -14.4067   19.9002 C   0  0  2  0  0  0  0  0  0  0  0  0
  -16.5692  -24.3784   21.1281 C   0  0  0  0  0  0  0  0  0  0  0  0
  -20.6838  -27.7991   25.0319 C   0  0  0  0  0  0  0  0  0  0  0  0
  -18.8189  -26.1437   24.8083 C   0  0  0  0  0  0  0  0  0  0  0  0
  -18.5151  -28.4801   23.9890 C   0  0  0  0  0  0  0  0  0  0  0  0
  -19.1402  -24.6658   18.3382 C   0  0  0  0  0  0  0  0  0  0  0  0
  -20.0157  -26.9016   22.7050 C   0  0  1  0  0  0  0  0  0  0  0  0
  -17.7110  -25.0206   20.3556 C   0  0  2  0  0  0  0  0  0  0  0  0
  -19.5333  -27.3266   24.1207 C   0  0  0  0  0  0  0  0  0  0  0  0
  -26.2636  -12.5483   21.1473 N   0  0  0  0  0  0  0  0  0  0  0  0
  -26.0834  -13.6732   20.4344 N   0  0  0  0  0  0  0  0  0  0  0  0
  -29.2937  -20.8256   22.7189 N   0  0  0  0  0  0  0  0  0  0  0  0
  -22.0747  -27.7492   21.6251 N   0  0  0  0  0  0  0  0  0  0  0  0
  -29.6836  -14.9596   20.2784 N   0  0  0  0  0  0  0  0  0  0  0  0
  -24.4152  -15.1268   19.5889 N   0  0  0  0  0  0  0  0  0  0  0  0
  -22.0353  -11.9541   21.7490 N   0  0  0  0  0  0  0  0  0  0  0  0
  -24.4419  -30.5015   21.9676 N   0  0  0  0  0  0  0  0  0  0  0  0
  -18.9441  -26.4752   21.8116 N   0  0  0  0  0  0  0  0  0  0  0  0
  -30.4453  -16.1224   22.2414 N   0  0  0  0  0  0  0  0  0  0  0  0
  -18.0475  -24.1437   19.1986 N   0  3  0  0  0  0  0  0  0  0  0  0
  -29.8211  -22.7400   24.0139 O   0  0  0  0  0  0  0  0  0  0  0  0
  -21.8797  -13.8742   20.5049 O   0  0  0  0  0  0  0  0  0  0  0  0
  -23.5507  -28.8789   23.3802 O   0  0  0  0  0  0  0  0  0  0  0  0
  -20.1576  -29.0700   21.7539 O   0  0  0  0  0  0  0  0  0  0  0  0
  -19.7828  -24.3522   21.4035 O   0  0  0  0  0  0  0  0  0  0  0  0
  -30.6595  -17.0516   20.1236 O   0  0  0  0  0  0  0  0  0  0  0  0
  -24.1136   -7.5571   24.4662 O   0  0  0  0  0  0  0  0  0  0  0  0
  -26.5236  -23.5375   20.9031 O   0  0  0  0  0  0  0  0  0  1  0  0
  -20.1396   -4.1279   22.7774 F   0  0  0  0  0  0  0  0  0  0  0  0
  -24.6904   -4.9375   23.7975 F   0  0  0  0  0  0  0  0  0  0  0  0
  -29.0219  -18.3938   21.4490 F   0  0  0  0  0  0  0  0  0  0  0  0
  1  2  1  0  0  0  0
  1  6  2  0  0  0  0
  2  7  2  0  0  0  0
  3  9  1  0  0  0  0
  3 10  2  0  0  0  0
  4 11  2  0  0  0  0
  4 18  1  0  0  0  0
  5 12  1  0  0  0  0
  5 18  2  0  0  0  0
  6 20  1  0  0  0  0
  7 22  1  0  0  0  0
  8 13  2  0  0  0  0
  8 21  1  0  0  0  0
  9 24  2  0  0  0  0
 10 25  1  0  0  0  0
 11 26  1  0  0  0  0
 12 26  2  0  0  0  0
 13 27  1  0  0  0  0
 14 15  2  0  0  0  0
 14 28  1  0  0  0  0
 15 29  1  0  0  0  0
 16 23  1  0  0  0  0
 16 27  2  0  0  0  0
 17 29  2  0  0  0  0
 17 30  1  0  0  0  0
 18 32  1  0  0  0  0
 19 32  1  0  0  0  0
 19 33  2  0  0  0  0
 19 39  1  0  0  0  0
 20 22  2  0  0  0  0
 20 44  1  0  0  0  0
 21 23  2  0  0  0  0
 21 45  1  0  0  0  0
 22 54  1  0  0  0  0
 23 46  1  0  0  0  0
 24 31  1  0  0  0  0
 24 67  1  0  0  0  0
 25 31  2  0  0  0  0
 25 74  1  0  0  0  0
 26 82  1  0  0  0  0
 27 83  1  0  0  0  0
 28 30  2  0  0  0  0
 28 82  1  0  0  0  0
 29 84  1  0  0  0  0
 30 85  1  0  0  0  0
 31 86  1  0  0  0  0
 32 65  2  0  0  0  0
 33 66  1  0  0  0  0
 33 70  1  0  0  0  0
 34 35  1  0  0  0  0
 34 37  2  0  0  0  0
 34 47  1  0  0  0  0
 35 67  1  0  0  0  0
 35 76  2  0  0  0  0
 36 38  2  0  0  0  0
 37 83  1  0  0  0  0
 38 74  1  0  0  0  0
 39 71  1  0  0  0  0
 39 77  2  0  0  0  0
 40 55  1  0  0  0  0
 40 72  1  0  0  0  0
 40 78  2  0  0  0  0
 41 62  1  0  0  0  0
 41 68  1  0  0  0  0
 41 79  2  0  0  0  0
 42 63  1  0  0  0  0
 42 73  1  0  0  0  0
 42 80  2  0  0  0  0
 43 69  1  0  0  0  0
 43 74  1  0  0  0  0
 43 81  2  0  0  0  0
 44 48  1  0  0  0  0
 45 55  1  0  0  0  0
 46 68  1  0  0  0  0
 47 67  1  0  0  0  0
 48 50  1  0  0  0  0
 49 51  1  0  0  0  0
 49 52  1  0  0  0  0
 50 54  1  0  0  0  0
 51 56  1  0  0  0  0
 52 69  1  0  0  0  0
 53 56  1  0  0  0  0
 53 69  1  0  0  0  0
 54 72  1  0  0  0  0
 55 68  1  0  0  0  0
 56 66  1  0  0  0  0
 57 63  1  0  0  0  0
 58 64  1  0  0  0  0
 59 64  1  0  0  0  0
 60 64  1  0  0  0  0
 61 75  1  0  0  0  0
 62 64  1  0  0  0  0
 62 73  1  0  0  0  0
 63 75  1  0  0  0  0
 65 66  1  0  0  0  0
M  CHG  1  75   1
M  ISO  4  37 101  43 100  74 100  83 101
M  END
> <Batch ID>
0088

> <Smiles>
C=C[100N:0](c1cccc(N2CC(=[101CH:1][101O:1]c3ccc4c(c3)CN(C(=O)C(NC(=O)C(C)NC)C(C)(C)C)C(C(=O)NC3CCCc5ccccc53)C4)C2=O)c1F)[100C:0](=O)N1CCCC(n2nc(-c3ccc(Oc4ccc(F)cc4F)cc3)c(C(N)=O)c2N)C1

> <Shape>
0.282

> <Color>
0.090

> <Negative vol penalty>
0.000

$$$$

  -OEChem-04052300233D

 87 96  0     1  0  0  0  0  0999 V2000
  -32.4112  -28.2192   15.4925 C   0  0  0  0  0  0  0  0  0  0  0  0
  -31.7183  -27.3617   16.3409 C   0  0  0  0  0  0  0  0  0  0  0  0
  -30.2888  -18.0254   22.0224 C   0  0  0  0  0  0  0  0  0  0  0  0
  -24.2546   -8.2252   20.5302 C   0  0  0  0  0  0  0  0  0  0  0  0
  -23.3364  -10.4550   20.6790 C   0  0  0  0  0  0  0  0  0  0  0  0
  -32.6168  -29.5478   15.8621 C   0  0  0  0  0  0  0  0  0  0  0  0
  -31.2316  -27.8319   17.5601 C   0  0  0  0  0  0  0  0  0  0  0  0
  -26.4840  -26.3220   18.4690 C   0  0  0  0  0  0  0  0  0  0  0  0
  -29.1270  -18.7894   21.9128 C   0  0  0  0  0  0  0  0  0  0  0  0
  -30.3594  -16.7722   21.4139 C   0  0  0  0  0  0  0  0  0  0  0  0
  -23.2868   -7.7670   21.4241 C   0  0  0  0  0  0  0  0  0  0  0  0
  -22.3685   -9.9968   21.5728 C   0  0  0  0  0  0  0  0  0  0  0  0
  -26.3063  -25.0119   18.9116 C   0  0  0  0  0  0  0  0  0  0  0  0
  -22.7599   -7.8112   24.7624 C   0  0  0  0  0  0  0  0  0  0  0  0
  -23.1773   -6.9685   25.7926 C   0  0  0  0  0  0  0  0  0  0  0  0
  -26.0923  -25.8127   21.1770 C   0  0  0  0  0  0  0  0  0  0  0  0
  -21.6987   -5.2402   24.9779 C   0  0  0  0  0  0  0  0  0  0  0  0
  -24.2795   -9.5692   20.1577 C   0  0  0  0  0  0  0  0  0  0  0  0
  -25.1833  -10.0976   17.8314 C   0  0  0  0  0  0  0  0  0  0  0  0
  -32.1239  -30.0371   17.0820 C   0  0  0  0  0  0  0  0  0  0  0  0
  -26.4782  -27.3881   19.3800 C   0  0  0  0  0  0  0  0  0  0  0  0
  -31.4319  -29.1679   17.9470 C   0  0  0  0  0  0  0  0  0  0  0  0
  -26.2677  -27.1356   20.7432 C   0  0  0  0  0  0  0  0  0  0  0  0
  -28.0357  -18.3002   21.1949 C   0  0  0  0  0  0  0  0  0  0  0  0
  -29.2682  -16.2830   20.6960 C   0  0  0  0  0  0  0  0  0  0  0  0
  -22.3438   -8.6528   21.9453 C   0  0  0  0  0  0  0  0  0  0  0  0
  -26.1133  -24.7568   20.2662 C   0  0  0  0  0  0  0  0  0  0  0  0
  -21.8118   -7.3684   23.8400 C   0  0  0  0  0  0  0  0  0  0  0  0
  -22.6468   -5.6830   25.9003 C   0  0  0  0  0  0  0  0  0  0  0  0
  -21.2813   -6.0829   23.9477 C   0  0  0  0  0  0  0  0  0  0  0  0
  -28.1063  -17.0470   20.5865 C   0  0  0  0  0  0  0  0  0  0  0  0
  -25.2794  -10.0433   19.2349 C   0  0  0  0  0  0  0  0  0  0  0  0
  -26.3863  -10.6210   17.4249 C   0  0  0  0  0  0  0  0  0  0  0  0
  -24.4583  -19.4333   21.4253 C   0  0  0  0  0  0  0  0  0  0  0  0
  -26.8881  -20.3344   20.5000 C   0  0  0  0  0  0  0  0  0  0  0  0
  -25.8049  -21.1222   20.3639 C   0  0  0  0  0  0  0  0  0  0  0  0
  -24.4992  -20.6542   20.8609 C   0  0  0  0  0  0  0  0  0  0  0  0
  -25.6476  -18.5425   21.5487 C   0  0  0  0  0  0  0  0  0  0  0  0
  -24.1032   -9.7096   16.9720 C   0  0  0  0  0  0  0  0  0  0  0  0
  -28.5935  -29.5851   20.2755 C   0  0  0  0  0  0  0  0  0  0  0  0
  -26.0802  -30.7573   21.9583 C   0  0  0  0  0  0  0  0  0  0  0  0
  -23.0717  -30.1704   23.4587 C   0  0  0  0  0  0  0  0  0  0  0  0
  -30.4231  -14.1268   20.0931 C   0  0  0  0  0  0  0  0  0  0  0  0
  -32.4120  -31.4686   17.4596 C   0  0  0  0  0  0  0  0  0  0  0  0
  -26.6446  -28.7980   18.8833 C   0  0  0  0  0  0  0  0  0  0  0  0
  -26.2326  -28.2468   21.7592 C   0  0  0  0  0  0  0  0  0  0  0  0
  -31.5389  -31.9851   18.6002 C   0  0  0  0  0  0  0  0  0  0  0  0
  -30.9867  -10.8867   18.7289 C   0  0  0  0  0  0  0  0  0  0  0  0
  -31.4880  -30.9683   19.7362 C   0  0  0  0  0  0  0  0  0  0  0  0
  -29.5780  -10.3100   18.5705 C   0  0  0  0  0  0  0  0  0  0  0  0
  -31.1112  -11.7413   19.9890 C   0  0  0  0  0  0  0  0  0  0  0  0
  -28.6958  -12.2255   19.9632 C   0  0  0  0  0  0  0  0  0  0  0  0
  -30.8670  -29.6472   19.2666 C   0  0  1  0  0  0  0  0  0  0  0  0
  -27.1340  -29.7581   19.9631 C   0  0  1  0  0  0  0  0  0  0  0  0
  -28.5037  -11.4103   18.6739 C   0  0  2  0  0  0  0  0  0  0  0  0
  -21.2759  -31.3150   24.7863 C   0  0  0  0  0  0  0  0  0  0  0  0
  -27.8584  -30.6679   24.4362 C   0  0  0  0  0  0  0  0  0  0  0  0
  -25.7968  -30.8946   25.8384 C   0  0  0  0  0  0  0  0  0  0  0  0
  -26.4294  -32.7118   24.2509 C   0  0  0  0  0  0  0  0  0  0  0  0
  -21.0309  -29.6270   21.3853 C   0  0  0  0  0  0  0  0  0  0  0  0
  -25.9676  -22.4480   19.7147 C   0  0  0  0  0  0  0  0  0  1  0  0
  -25.5231  -30.5331   23.3433 C   0  0  1  0  0  0  0  0  0  0  0  0
  -21.7525  -30.9190   23.3974 C   0  0  2  0  0  0  0  0  0  0  0  0
  -26.4045  -31.1805   24.4486 C   0  0  0  0  0  0  0  0  0  0  0  0
  -26.4509  -10.4959   19.6894 N   0  0  0  0  0  0  0  0  0  0  0  0
  -27.1021  -10.8396   18.5652 N   0  0  0  0  0  0  0  0  0  0  0  0
  -26.8680  -19.0720   21.0866 N   0  0  0  0  0  0  0  0  0  0  0  0
  -26.4065  -29.6077   21.2250 N   0  0  0  0  0  0  0  0  0  0  0  0
  -30.0638  -12.7646   20.0164 N   0  0  0  0  0  0  0  0  0  0  0  0
  -26.8912  -10.9109   16.2070 N   0  0  0  0  0  0  0  0  0  0  0  0
  -22.9391   -9.1905   17.5548 N   0  0  0  0  0  0  0  0  0  0  0  0
  -29.3436  -15.0095   20.0794 N   0  0  0  0  0  0  0  0  0  0  0  0
  -29.4268  -29.7654   19.1880 N   0  0  0  0  0  0  0  0  0  0  0  0
  -24.1482  -31.0199   23.3140 N   0  0  0  0  0  0  0  0  0  0  0  0
  -20.7038  -30.0696   22.7651 N   0  3  0  0  0  0  0  0  0  0  0  0
  -23.5652  -21.4848   20.6931 O   0  5  0  0  0  0  0  0  0  0  0  0
  -25.5071  -17.4266   22.0491 O   0  0  0  0  0  0  0  0  0  0  0  0
  -24.1748   -9.8047   15.7233 O   0  0  0  0  0  0  0  0  0  0  0  0
  -28.9382  -29.3101   21.4188 O   0  0  0  0  0  0  0  0  0  0  0  0
  -26.2140  -31.9099   21.5396 O   0  0  0  0  0  0  0  0  0  0  0  0
  -23.1405  -28.9543   23.6224 O   0  0  0  0  0  0  0  0  0  0  0  0
  -31.6027  -14.4853   20.1381 O   0  0  0  0  0  0  0  0  0  0  0  0
  -21.3990   -8.2059   22.8174 O   0  0  0  0  0  0  0  0  0  0  0  0
  -25.9401  -23.4790   20.7009 O   0  0  0  0  0  0  0  0  0  1  0  0
  -23.0488   -4.8733   26.8887 F   0  0  0  0  0  0  0  0  0  0  0  0
  -20.3711   -5.6515   23.0638 F   0  0  0  0  0  0  0  0  0  0  0  0
  -27.0559  -16.5761   19.8966 F   0  0  0  0  0  0  0  0  0  0  0  0
  1  2  1  0  0  0  0
  1  6  2  0  0  0  0
  2  7  2  0  0  0  0
  3  9  2  0  0  0  0
  3 10  1  0  0  0  0
  4 11  2  0  0  0  0
  4 18  1  0  0  0  0
  5 12  1  0  0  0  0
  5 18  2  0  0  0  0
  6 20  1  0  0  0  0
  7 22  1  0  0  0  0
  8 13  2  0  0  0  0
  8 21  1  0  0  0  0
  9 24  1  0  0  0  0
 10 25  2  0  0  0  0
 11 26  1  0  0  0  0
 12 26  2  0  0  0  0
 13 27  1  0  0  0  0
 14 15  2  0  0  0  0
 14 28  1  0  0  0  0
 15 29  1  0  0  0  0
 16 23  1  0  0  0  0
 16 27  2  0  0  0  0
 17 29  2  0  0  0  0
 17 30  1  0  0  0  0
 18 32  1  0  0  0  0
 19 32  1  0  0  0  0
 19 33  2  0  0  0  0
 19 39  1  0  0  0  0
 20 22  2  0  0  0  0
 20 44  1  0  0  0  0
 21 23  2  0  0  0  0
 21 45  1  0  0  0  0
 22 53  1  0  0  0  0
 23 46  1  0  0  0  0
 24 31  2  0  0  0  0
 24 67  1  0  0  0  0
 25 31  1  0  0  0  0
 25 72  1  0  0  0  0
 26 83  1  0  0  0  0
 27 84  1  0  0  0  0
 28 30  2  0  0  0  0
 28 83  1  0  0  0  0
 29 85  1  0  0  0  0
 30 86  1  0  0  0  0
 31 87  1  0  0  0  0
 32 65  2  0  0  0  0
 33 66  1  0  0  0  0
 33 70  1  0  0  0  0
 34 37  2  0  0  0  0
 34 38  1  0  0  0  0
 35 36  2  0  0  0  0
 35 67  1  0  0  0  0
 36 37  1  0  0  0  0
 36 61  1  0  0  0  0
 37 76  1  0  0  0  0
 38 67  1  0  0  0  0
 38 77  2  0  0  0  0
 39 71  1  0  0  0  0
 39 78  2  0  0  0  0
 40 54  1  0  0  0  0
 40 73  1  0  0  0  0
 40 79  2  0  0  0  0
 41 62  1  0  0  0  0
 41 68  1  0  0  0  0
 41 80  2  0  0  0  0
 42 63  1  0  0  0  0
 42 74  1  0  0  0  0
 42 81  2  0  0  0  0
 43 69  1  0  0  0  0
 43 72  1  0  0  0  0
 43 82  2  0  0  0  0
 44 47  1  0  0  0  0
 45 54  1  0  0  0  0
 46 68  1  0  0  0  0
 47 49  1  0  0  0  0
 48 50  1  0  0  0  0
 48 51  1  0  0  0  0
 49 53  1  0  0  0  0
 50 55  1  0  0  0  0
 51 69  1  0  0  0  0
 52 55  1  0  0  0  0
 52 69  1  0  0  0  0
 53 73  1  0  0  0  0
 54 68  1  0  0  0  0
 55 66  1  0  0  0  0
 56 63  1  0  0  0  0
 57 64  1  0  0  0  0
 58 64  1  0  0  0  0
 59 64  1  0  0  0  0
 60 75  1  0  0  0  0
 61 84  1  0  0  0  0
 62 64  1  0  0  0  0
 62 74  1  0  0  0  0
 63 75  1  0  0  0  0
 65 66  1  0  0  0  0
M  CHG  2  75   1  76  -1
M  ISO  4  43 100  61 101  72 100  84 101
M  END
> <Batch ID>
0088

> <Smiles>
CNC(C)C(=O)NC(C(=O)N1Cc2cc([101O:1][101CH2:1]C3=CN(c4cccc([100NH:0][100C:0](=O)N5CCCC(n6nc(-c7ccc(Oc8ccc(F)cc8F)cc7)c(C(N)=O)c6N)C5)c4F)C(=O)CC3=O)ccc2CC1C(=O)NC1CCCc2ccccc21)C(C)(C)C

> <Shape>
0.242

> <Color>
0.089

> <Negative vol penalty>
0.000

$$$$

  -OEChem-04052300233D

 85 93  0     1  0  0  0  0  0999 V2000
  -18.5518  -27.5732   23.6114 C   0  0  0  0  0  0  0  0  0  0  0  0
  -18.9765  -26.3649   23.0683 C   0  0  0  0  0  0  0  0  0  0  0  0
  -26.1598  -11.9537   19.4267 C   0  0  0  0  0  0  0  0  0  0  0  0
  -26.8614  -19.1778   25.4929 C   0  0  0  0  0  0  0  0  0  0  0  0
  -28.6664  -20.5921   26.2537 C   0  0  0  0  0  0  0  0  0  0  0  0
  -27.5433  -12.1245   19.3778 C   0  0  0  0  0  0  0  0  0  0  0  0
  -19.0555  -28.7747   23.1148 C   0  0  0  0  0  0  0  0  0  0  0  0
  -19.9045  -26.3574   22.0275 C   0  0  0  0  0  0  0  0  0  0  0  0
  -23.5478  -22.9046   22.6977 C   0  0  0  0  0  0  0  0  0  0  0  0
  -25.3352  -13.0305   19.7530 C   0  0  0  0  0  0  0  0  0  0  0  0
  -26.2882  -19.2257   26.7636 C   0  0  0  0  0  0  0  0  0  0  0  0
  -28.0932  -20.6400   27.5244 C   0  0  0  0  0  0  0  0  0  0  0  0
  -23.2280  -21.5779   22.4124 C   0  0  0  0  0  0  0  0  0  0  0  0
  -24.4279  -21.3899   28.5771 C   0  0  0  0  0  0  0  0  0  0  0  0
  -23.0531  -21.6105   28.6602 C   0  0  0  0  0  0  0  0  0  0  0  0
  -27.2777  -14.4487   19.9818 C   0  0  0  0  0  0  0  0  0  0  0  0
  -24.3248  -21.7797   20.2734 C   0  0  0  0  0  0  0  0  0  0  0  0
  -22.7820  -19.4939   29.7933 C   0  0  0  0  0  0  0  0  0  0  0  0
  -28.0505  -19.8609   25.2379 C   0  0  0  0  0  0  0  0  0  0  0  0
  -28.1023  -13.3719   19.6554 C   0  0  0  0  0  0  0  0  0  0  0  0
  -28.4070  -20.6909   22.8522 C   0  0  0  0  0  0  0  0  0  0  0  0
  -19.9973  -28.7816   22.0739 C   0  0  0  0  0  0  0  0  0  0  0  0
  -24.2502  -23.6834   21.7668 C   0  0  0  0  0  0  0  0  0  0  0  0
  -20.4202  -27.5602   21.5156 C   0  0  0  0  0  0  0  0  0  0  0  0
  -24.6546  -23.1153   20.5503 C   0  0  0  0  0  0  0  0  0  0  0  0
  -25.8942  -14.2779   20.0306 C   0  0  0  0  0  0  0  0  0  0  0  0
  -26.9041  -19.9569   27.7794 C   0  0  0  0  0  0  0  0  0  0  0  0
  -23.6139  -21.0161   21.1990 C   0  0  0  0  0  0  0  0  0  0  0  0
  -24.9798  -20.2212   29.1020 C   0  0  0  0  0  0  0  0  0  0  0  0
  -22.2302  -20.6625   29.2684 C   0  0  0  0  0  0  0  0  0  0  0  0
  -24.1568  -19.2733   29.7102 C   0  0  0  0  0  0  0  0  0  0  0  0
  -28.6434  -19.8113   23.9256 C   0  0  0  0  0  0  0  0  0  0  0  0
  -29.2051  -20.2186   21.8391 C   0  0  0  0  0  0  0  0  0  0  0  0
  -24.3280  -18.8503   20.6793 C   0  0  0  0  0  0  0  0  0  1  0  0
  -29.5759  -13.5523   19.6029 C   0  0  0  0  0  0  0  0  0  0  0  0
  -27.5431  -21.8328   22.7775 C   0  0  0  0  0  0  0  0  0  0  0  0
  -24.2581  -17.5436   20.9608 C   0  0  0  0  0  0  0  0  0  0  0  0
  -25.4400  -16.6708   20.6617 C   0  0  0  0  0  0  0  0  0  0  0  0
  -23.6235  -26.3392   20.1367 C   0  0  0  0  0  0  0  0  0  0  0  0
  -26.7231  -26.0471   19.2261 C   0  0  0  0  0  0  0  0  0  0  0  0
  -29.4234  -24.0155   18.7488 C   0  0  0  0  0  0  0  0  0  0  0  0
  -31.4477  -14.8679   20.5458 C   0  0  0  0  0  0  0  0  0  0  0  0
  -20.4777  -30.1072   21.5383 C   0  0  0  0  0  0  0  0  0  0  0  0
  -24.6108  -25.1050   22.1008 C   0  0  0  0  0  0  0  0  0  0  0  0
  -25.4280  -23.9027   19.5256 C   0  0  0  0  0  0  0  0  0  0  0  0
  -21.7398  -29.9986   20.6864 C   0  0  0  0  0  0  0  0  0  0  0  0
  -33.2950  -17.8314   21.0956 C   0  0  0  0  0  0  0  0  0  0  0  0
  -21.6113  -28.8550   19.6852 C   0  0  0  0  0  0  0  0  0  0  0  0
  -32.2874  -18.7646   21.7725 C   0  0  0  0  0  0  0  0  0  0  0  0
  -33.1275  -16.3846   21.5576 C   0  0  0  0  0  0  0  0  0  0  0  0
  -30.7640  -16.7790   22.1199 C   0  0  0  0  0  0  0  0  0  0  0  0
  -21.4441  -27.5100   20.4024 C   0  0  1  0  0  0  0  0  0  0  0  0
  -24.8810  -25.9588   20.8657 C   0  0  1  0  0  0  0  0  0  0  0  0
  -30.8456  -18.2356   21.6353 C   0  0  1  0  0  0  0  0  0  0  0  0
  -31.7951  -23.3774   18.2336 C   0  0  0  0  0  0  0  0  0  0  0  0
  -25.7604  -26.2239   16.3362 C   0  0  0  0  0  0  0  0  0  0  0  0
  -27.9821  -25.3233   15.6142 C   0  0  0  0  0  0  0  0  0  0  0  0
  -27.8538  -27.5042   16.8185 C   0  0  0  0  0  0  0  0  0  0  0  0
  -30.2499  -24.3545   21.5704 C   0  0  0  0  0  0  0  0  0  0  0  0
  -27.4440  -25.3590   18.0922 C   0  0  1  0  0  0  0  0  0  0  0  0
  -30.8774  -24.1593   19.1606 C   0  0  2  0  0  0  0  0  0  0  0  0
  -27.2438  -26.0881   16.7335 C   0  0  0  0  0  0  0  0  0  0  0  0
  -29.5228  -18.8527   23.6227 N   0  0  0  0  0  0  0  0  0  0  0  0
  -29.8459  -19.1272   22.3474 N   0  0  0  0  0  0  0  0  0  0  0  0
  -25.7512  -25.2905   19.8960 N   0  0  0  0  0  0  0  0  0  0  0  0
  -31.7379  -15.9569   21.3861 N   0  0  0  0  0  0  0  0  0  0  0  0
  -29.4143  -20.6345   20.5720 N   0  0  0  0  0  0  0  0  0  0  0  0
  -26.7937  -22.1788   23.9102 N   0  0  0  0  0  0  0  0  0  0  0  0
  -25.0571  -15.3707   20.3615 N   0  0  0  0  0  0  0  0  0  0  0  0
  -30.0879  -14.5648   20.4147 N   0  0  0  0  0  0  0  0  0  0  0  0
  -22.7182  -27.0444   20.9067 N   0  0  0  0  0  0  0  0  0  0  0  0
  -28.8376  -25.2401   18.5068 N   0  0  0  0  0  0  0  0  0  0  0  0
  -31.0744  -23.6574   20.5499 N   0  3  0  0  0  0  0  0  0  0  0  0
  -30.2460  -12.7992   18.9017 O   0  0  0  0  0  0  0  0  0  0  0  0
  -27.4266  -22.5161   21.7320 O   0  0  0  0  0  0  0  0  0  0  0  0
  -26.5803  -17.1205   20.6972 O   0  0  0  0  0  0  0  0  0  0  0  0
  -23.4854  -26.0182   18.9622 O   0  0  0  0  0  0  0  0  0  0  0  0
  -27.0168  -27.2107   19.5118 O   0  0  0  0  0  0  0  0  0  0  0  0
  -28.8643  -22.9257   18.6480 O   0  0  0  0  0  0  0  0  0  0  0  0
  -32.3205  -14.2432   19.9347 O   0  0  0  0  0  0  0  0  0  0  0  0
  -23.1372  -16.9637   21.5194 O   0  0  0  0  0  0  0  0  0  0  0  0
  -26.3449  -20.0041   29.0194 O   0  0  0  0  0  0  0  0  0  0  0  0
  -23.3025  -19.7216   20.9177 O   0  0  0  0  0  0  0  0  0  1  0  0
  -20.9102  -20.8752   29.3495 F   0  0  0  0  0  0  0  0  0  0  0  0
  -24.6814  -18.1493   30.2173 F   0  0  0  0  0  0  0  0  0  0  0  0
  1  2  1  0  0  0  0
  1  7  2  0  0  0  0
  2  8  2  0  0  0  0
  3  6  1  0  0  0  0
  3 10  2  0  0  0  0
  4 11  2  0  0  0  0
  4 19  1  0  0  0  0
  5 12  1  0  0  0  0
  5 19  2  0  0  0  0
  6 20  2  0  0  0  0
  7 22  1  0  0  0  0
  8 24  1  0  0  0  0
  9 13  2  0  0  0  0
  9 23  1  0  0  0  0
 10 26  1  0  0  0  0
 11 27  1  0  0  0  0
 12 27  2  0  0  0  0
 13 28  1  0  0  0  0
 14 15  2  0  0  0  0
 14 29  1  0  0  0  0
 15 30  1  0  0  0  0
 16 20  1  0  0  0  0
 16 26  2  0  0  0  0
 17 25  1  0  0  0  0
 17 28  2  0  0  0  0
 18 30  2  0  0  0  0
 18 31  1  0  0  0  0
 19 32  1  0  0  0  0
 20 35  1  0  0  0  0
 21 32  1  0  0  0  0
 21 33  2  0  0  0  0
 21 36  1  0  0  0  0
 22 24  2  0  0  0  0
 22 43  1  0  0  0  0
 23 25  2  0  0  0  0
 23 44  1  0  0  0  0
 24 52  1  0  0  0  0
 25 45  1  0  0  0  0
 26 69  1  0  0  0  0
 27 82  1  0  0  0  0
 28 83  1  0  0  0  0
 29 31  2  0  0  0  0
 29 82  1  0  0  0  0
 30 84  1  0  0  0  0
 31 85  1  0  0  0  0
 32 63  2  0  0  0  0
 33 64  1  0  0  0  0
 33 67  1  0  0  0  0
 34 37  2  0  0  0  0
 34 83  1  0  0  0  0
 35 70  1  0  0  0  0
 35 74  2  0  0  0  0
 36 68  1  0  0  0  0
 36 75  2  0  0  0  0
 37 38  1  0  0  0  0
 37 81  1  0  0  0  0
 38 69  1  0  0  0  0
 38 76  2  0  0  0  0
 39 53  1  0  0  0  0
 39 71  1  0  0  0  0
 39 77  2  0  0  0  0
 40 60  1  0  0  0  0
 40 65  1  0  0  0  0
 40 78  2  0  0  0  0
 41 61  1  0  0  0  0
 41 72  1  0  0  0  0
 41 79  2  0  0  0  0
 42 66  1  0  0  0  0
 42 70  1  0  0  0  0
 42 80  2  0  0  0  0
 43 46  1  0  0  0  0
 44 53  1  0  0  0  0
 45 65  1  0  0  0  0
 46 48  1  0  0  0  0
 47 49  1  0  0  0  0
 47 50  1  0  0  0  0
 48 52  1  0  0  0  0
 49 54  1  0  0  0  0
 50 66  1  0  0  0  0
 51 54  1  0  0  0  0
 51 66  1  0  0  0  0
 52 71  1  0  0  0  0
 53 65  1  0  0  0  0
 54 64  1  0  0  0  0
 55 61  1  0  0  0  0
 56 62  1  0  0  0  0
 57 62  1  0  0  0  0
 58 62  1  0  0  0  0
 59 73  1  0  0  0  0
 60 62  1  0  0  0  0
 60 72  1  0  0  0  0
 61 73  1  0  0  0  0
 63 64  1  0  0  0  0
M  CHG  1  73   1
M  ISO  4  34 101  42 100  70 100  83 101
M  END
> <Batch ID>
0088

> <Smiles>
CNC(C)C(=O)NC(C(=O)N1Cc2cc([101O:1][101CH2:1]C(=O)C(=O)Nc3cccc(C(=O)[100NH:0][100C:0](=O)N4CCCC(n5nc(-c6ccc(Oc7ccc(F)cc7F)cc6)c(C(N)=O)c5N)C4)c3)ccc2CC1C(=O)NC1CCCc2ccccc21)C(C)(C)C

> <Shape>
0.188

> <Color>
0.077

> <Negative vol penalty>
0.000

$$$$

  -OEChem-04052300233D

 86 95  0     1  0  0  0  0  0999 V2000
  -27.3630  -36.8595   23.7866 C   0  0  0  0  0  0  0  0  0  0  0  0
  -27.9350  -35.7141   23.2423 C   0  0  0  0  0  0  0  0  0  0  0  0
  -32.8773  -20.5084   18.3631 C   0  0  0  0  0  0  0  0  0  0  0  0
  -22.7063  -13.7513   21.9602 C   0  0  0  0  0  0  0  0  0  0  0  0
  -24.4443  -14.2584   23.5599 C   0  0  0  0  0  0  0  0  0  0  0  0
  -26.2011  -36.7614   24.5510 C   0  0  0  0  0  0  0  0  0  0  0  0
  -27.3460  -34.4696   23.4631 C   0  0  0  0  0  0  0  0  0  0  0  0
  -27.1519  -29.7459   19.5702 C   0  0  0  0  0  0  0  0  0  0  0  0
  -32.5484  -21.6591   19.0795 C   0  0  0  0  0  0  0  0  0  0  0  0
  -31.9125  -19.5260   18.1399 C   0  0  0  0  0  0  0  0  0  0  0  0
  -22.1563  -12.8287   22.8501 C   0  0  0  0  0  0  0  0  0  0  0  0
  -23.8943  -13.3358   24.4499 C   0  0  0  0  0  0  0  0  0  0  0  0
  -27.9242  -28.5907   19.4578 C   0  0  0  0  0  0  0  0  0  0  0  0
  -20.2142  -12.8897   25.6173 C   0  0  0  0  0  0  0  0  0  0  0  0
  -18.8312  -12.9080   25.7975 C   0  0  0  0  0  0  0  0  0  0  0  0
  -26.2775  -27.3730   20.7325 C   0  0  0  0  0  0  0  0  0  0  0  0
  -18.7006  -10.6222   25.0257 C   0  0  0  0  0  0  0  0  0  0  0  0
  -23.8504  -14.4661   22.3151 C   0  0  0  0  0  0  0  0  0  0  0  0
  -24.1133  -16.7892   21.2943 C   0  0  0  0  0  0  0  0  0  0  0  0
  -25.5922  -35.5162   24.7732 C   0  0  0  0  0  0  0  0  0  0  0  0
  -25.9398  -29.7260   20.2750 C   0  0  0  0  0  0  0  0  0  0  0  0
  -26.1756  -34.3546   24.2323 C   0  0  0  0  0  0  0  0  0  0  0  0
  -25.4904  -28.5288   20.8501 C   0  0  0  0  0  0  0  0  0  0  0  0
  -31.2547  -21.8274   19.5730 C   0  0  0  0  0  0  0  0  0  0  0  0
  -30.6187  -19.6944   18.6334 C   0  0  0  0  0  0  0  0  0  0  0  0
  -30.2898  -20.8450   19.3499 C   0  0  0  0  0  0  0  0  0  0  0  0
  -22.7503  -12.6210   24.0950 C   0  0  0  0  0  0  0  0  0  0  0  0
  -27.4885  -27.4047   20.0415 C   0  0  0  0  0  0  0  0  0  0  0  0
  -20.8405  -11.7378   25.1413 C   0  0  0  0  0  0  0  0  0  0  0  0
  -18.0744  -11.7742   25.5017 C   0  0  0  0  0  0  0  0  0  0  0  0
  -20.0836  -10.6040   24.8455 C   0  0  0  0  0  0  0  0  0  0  0  0
  -24.4193  -15.4188   21.3960 C   0  0  0  0  0  0  0  0  0  0  0  0
  -24.9166  -17.2459   20.2782 C   0  0  0  0  0  0  0  0  0  0  0  0
  -29.9658  -24.9575   20.8962 C   0  0  0  0  0  0  0  0  0  0  0  0
  -30.9845  -24.6445   21.9078 C   0  0  0  0  0  0  0  0  0  0  0  0
  -29.9545  -23.8947   19.8707 C   0  0  0  0  0  0  0  0  0  0  0  0
  -29.1748  -26.0305   20.9010 C   0  0  0  0  0  0  0  0  0  1  0  0
  -23.1860  -17.5787   22.0509 C   0  0  0  0  0  0  0  0  0  0  0  0
  -24.8231  -31.2021   22.8591 C   0  0  0  0  0  0  0  0  0  0  0  0
  -22.0550  -29.7303   22.0261 C   0  0  0  0  0  0  0  0  0  0  0  0
  -20.5194  -27.1594   20.3892 C   0  0  0  0  0  0  0  0  0  0  0  0
  -29.8452  -17.4865   17.6987 C   0  0  0  0  0  0  0  0  0  0  0  0
  -24.3635  -35.4544   25.6457 C   0  0  0  0  0  0  0  0  0  0  0  0
  -25.1053  -30.9742   20.3642 C   0  0  0  0  0  0  0  0  0  0  0  0
  -24.1866  -28.4496   21.6001 C   0  0  0  0  0  0  0  0  0  0  0  0
  -31.6500  -23.3535   21.5322 C   0  0  0  0  0  0  0  0  0  0  0  0
  -23.5927  -34.1428   25.5200 C   0  0  0  0  0  0  0  0  0  0  0  0
  -27.7433  -14.7189   16.9247 C   0  0  0  0  0  0  0  0  0  0  0  0
  -24.5468  -32.9544   25.5859 C   0  0  0  0  0  0  0  0  0  0  0  0
  -26.6659  -14.7670   18.0106 C   0  0  0  0  0  0  0  0  0  0  0  0
  -29.1132  -15.1232   17.4665 C   0  0  0  0  0  0  0  0  0  0  0  0
  -28.0704  -16.4616   19.2527 C   0  0  0  0  0  0  0  0  0  0  0  0
  -25.5524  -32.9896   24.4288 C   0  0  1  0  0  0  0  0  0  0  0  0
  -24.1376  -30.9630   21.5436 C   0  0  1  0  0  0  0  0  0  0  0  0
  -26.6608  -16.1250   18.7395 C   0  0  2  0  0  0  0  0  0  0  0  0
  -18.2487  -26.2000   19.9192 C   0  0  0  0  0  0  0  0  0  0  0  0
  -21.9465  -28.6051   24.8602 C   0  0  0  0  0  0  0  0  0  0  0  0
  -20.2467  -26.9488   24.0628 C   0  0  0  0  0  0  0  0  0  0  0  0
  -19.7476  -29.3909   23.9649 C   0  0  0  0  0  0  0  0  0  0  0  0
  -20.8422  -27.5231   17.4699 C   0  0  0  0  0  0  0  0  0  0  0  0
  -21.4142  -28.4005   22.3421 C   0  0  1  0  0  0  0  0  0  0  0  0
  -19.3432  -27.1357   19.4299 C   0  0  2  0  0  0  0  0  0  0  0  0
  -20.8643  -28.3379   23.7951 C   0  0  0  0  0  0  0  0  0  0  0  0
  -25.3446  -15.0304   20.5146 N   0  0  0  0  0  0  0  0  0  0  0  0
  -25.6269  -16.1635   19.8494 N   0  0  0  0  0  0  0  0  0  0  0  0
  -30.9524  -22.9851   20.2864 N   0  0  0  0  0  0  0  0  0  0  0  0
  -23.4095  -29.6984   21.6652 N   0  0  0  0  0  0  0  0  0  0  0  0
  -29.0321  -16.4212   18.1400 N   0  0  0  0  0  0  0  0  0  0  0  0
  -28.9765  -21.0154   19.8506 N   0  0  0  0  0  0  0  0  0  0  0  0
  -25.0774  -18.4638   19.7184 N   0  0  0  0  0  0  0  0  0  0  0  0
  -22.4407  -16.9511   23.0584 N   0  0  0  0  0  0  0  0  0  0  0  0
  -29.6578  -18.6810   18.3935 N   0  0  0  0  0  0  0  0  0  0  0  0
  -24.9295  -32.5360   23.2038 N   0  0  0  0  0  0  0  0  0  0  0  0
  -20.4058  -28.1781   21.3115 N   0  0  0  0  0  0  0  0  0  0  0  0
  -19.7837  -26.6790   18.0814 N   0  3  0  0  0  0  0  0  0  0  0  0
  -31.2459  -25.3205   22.8879 O   0  0  0  0  0  0  0  0  0  0  0  0
  -29.2273  -23.8494   18.8938 O   0  0  0  0  0  0  0  0  0  0  0  0
  -23.0111  -18.8008   21.8288 O   0  0  0  0  0  0  0  0  0  0  0  0
  -25.2243  -30.2471   23.5137 O   0  0  0  0  0  0  0  0  0  0  0  0
  -21.3769  -30.7588   22.0900 O   0  0  0  0  0  0  0  0  0  0  0  0
  -21.4445  -26.3525   20.3290 O   0  0  0  0  0  0  0  0  0  0  0  0
  -30.6291  -17.3568   16.7550 O   0  0  0  0  0  0  0  0  0  0  0  0
  -22.2137  -11.7210   24.9637 O   0  0  0  0  0  0  0  0  0  0  0  0
  -28.2408  -26.2758   19.9339 O   0  0  0  0  0  0  0  0  0  1  0  0
  -16.7464  -11.7913   25.6762 F   0  0  0  0  0  0  0  0  0  0  0  0
  -20.6798   -9.4941   24.3890 F   0  0  0  0  0  0  0  0  0  0  0  0
  1  2  1  0  0  0  0
  1  6  2  0  0  0  0
  2  7  2  0  0  0  0
  3  9  2  0  0  0  0
  3 10  1  0  0  0  0
  4 11  2  0  0  0  0
  4 18  1  0  0  0  0
  5 12  1  0  0  0  0
  5 18  2  0  0  0  0
  6 20  1  0  0  0  0
  7 22  1  0  0  0  0
  8 13  2  0  0  0  0
  8 21  1  0  0  0  0
  9 24  1  0  0  0  0
 10 25  2  0  0  0  0
 11 27  1  0  0  0  0
 12 27  2  0  0  0  0
 13 28  1  0  0  0  0
 14 15  2  0  0  0  0
 14 29  1  0  0  0  0
 15 30  1  0  0  0  0
 16 23  1  0  0  0  0
 16 28  2  0  0  0  0
 17 30  2  0  0  0  0
 17 31  1  0  0  0  0
 18 32  1  0  0  0  0
 19 32  1  0  0  0  0
 19 33  2  0  0  0  0
 19 38  1  0  0  0  0
 20 22  2  0  0  0  0
 20 43  1  0  0  0  0
 21 23  2  0  0  0  0
 21 44  1  0  0  0  0
 22 53  1  0  0  0  0
 23 45  1  0  0  0  0
 24 26  2  0  0  0  0
 24 66  1  0  0  0  0
 25 26  1  0  0  0  0
 25 72  1  0  0  0  0
 26 69  1  0  0  0  0
 27 83  1  0  0  0  0
 28 84  1  0  0  0  0
 29 31  2  0  0  0  0
 29 83  1  0  0  0  0
 30 85  1  0  0  0  0
 31 86  1  0  0  0  0
 32 64  2  0  0  0  0
 33 65  1  0  0  0  0
 33 70  1  0  0  0  0
 34 35  1  0  0  0  0
 34 36  1  0  0  0  0
 34 37  2  0  0  0  0
 35 46  1  0  0  0  0
 35 76  2  0  0  0  0
 36 66  1  0  0  0  0
 36 77  2  0  0  0  0
 37 84  1  0  0  0  0
 38 71  1  0  0  0  0
 38 78  2  0  0  0  0
 39 54  1  0  0  0  0
 39 73  1  0  0  0  0
 39 79  2  0  0  0  0
 40 61  1  0  0  0  0
 40 67  1  0  0  0  0
 40 80  2  0  0  0  0
 41 62  1  0  0  0  0
 41 74  1  0  0  0  0
 41 81  2  0  0  0  0
 42 68  1  0  0  0  0
 42 72  1  0  0  0  0
 42 82  2  0  0  0  0
 43 47  1  0  0  0  0
 44 54  1  0  0  0  0
 45 67  1  0  0  0  0
 46 66  1  0  0  0  0
 47 49  1  0  0  0  0
 48 50  1  0  0  0  0
 48 51  1  0  0  0  0
 49 53  1  0  0  0  0
 50 55  1  0  0  0  0
 51 68  1  0  0  0  0
 52 55  1  0  0  0  0
 52 68  1  0  0  0  0
 53 73  1  0  0  0  0
 54 67  1  0  0  0  0
 55 65  1  0  0  0  0
 56 62  1  0  0  0  0
 57 63  1  0  0  0  0
 58 63  1  0  0  0  0
 59 63  1  0  0  0  0
 60 75  1  0  0  0  0
 61 63  1  0  0  0  0
 61 74  1  0  0  0  0
 62 75  1  0  0  0  0
 64 65  1  0  0  0  0
M  CHG  1  75   1
M  ISO  4  37 101  42 100  72 100  84 101
M  END
> <Batch ID>
0088

> <Smiles>
CNC(C)C(=O)NC(C(=O)N1Cc2cc([101O:1][101CH:1]=C3C(=O)CN(c4cccc([100NH:0][100C:0](=O)N5CCCC(n6nc(-c7ccc(Oc8ccc(F)cc8F)cc7)c(C(N)=O)c6N)C5)c4N)C3=O)ccc2CC1C(=O)NC1CCCc2ccccc21)C(C)(C)C

> <Shape>
0.240

> <Color>
0.079

> <Negative vol penalty>
0.000

$$$$

  -OEChem-04052300233D

 87 96  0     1  0  0  0  0  0999 V2000
  -19.6711  -12.5847   20.4698 C   0  0  0  0  0  0  0  0  0  0  0  0
  -20.1689  -13.6768   21.1733 C   0  0  0  0  0  0  0  0  0  0  0  0
  -19.2215  -27.6266   21.1658 C   0  0  0  0  0  0  0  0  0  0  0  0
  -20.3566  -28.7951   22.9499 C   0  0  0  0  0  0  0  0  0  0  0  0
  -20.4562  -11.4437   20.3093 C   0  0  0  0  0  0  0  0  0  0  0  0
  -21.4517  -13.6282   21.7176 C   0  0  0  0  0  0  0  0  0  0  0  0
  -26.4590  -18.4572   19.8471 C   0  0  0  0  0  0  0  0  0  0  0  0
  -28.7961  -24.7757   21.1530 C   0  0  0  0  0  0  0  0  0  0  0  0
  -28.5231  -25.9982   21.7667 C   0  0  0  0  0  0  0  0  0  0  0  0
  -18.1942  -27.2827   22.0445 C   0  0  0  0  0  0  0  0  0  0  0  0
  -19.3293  -28.4513   23.8287 C   0  0  0  0  0  0  0  0  0  0  0  0
  -27.4078  -19.4693   19.6999 C   0  0  0  0  0  0  0  0  0  0  0  0
  -15.4789  -28.7685   23.4056 C   0  0  0  0  0  0  0  0  0  0  0  0
  -14.1662  -28.9217   22.9598 C   0  0  0  0  0  0  0  0  0  0  0  0
  -28.9469  -18.2458   21.1078 C   0  0  0  0  0  0  0  0  0  0  0  0
  -30.7115  -25.7552   20.0536 C   0  0  0  0  0  0  0  0  0  0  0  0
  -13.7802  -26.5589   23.2840 C   0  0  0  0  0  0  0  0  0  0  0  0
  -20.3027  -28.3827   21.6185 C   0  0  0  0  0  0  0  0  0  0  0  0
  -21.2548  -29.4919   19.5279 C   0  0  0  0  0  0  0  0  0  0  0  0
  -21.7530  -11.3848   20.8436 C   0  0  0  0  0  0  0  0  0  0  0  0
  -26.7567  -17.3270   20.6135 C   0  0  0  0  0  0  0  0  0  0  0  0
  -22.2544  -12.4849   21.5652 C   0  0  0  0  0  0  0  0  0  0  0  0
  -28.0052  -17.2230   21.2486 C   0  0  0  0  0  0  0  0  0  0  0  0
  -29.8903  -24.6542   20.2965 C   0  0  0  0  0  0  0  0  0  0  0  0
  -29.3443  -27.0992   21.5239 C   0  0  0  0  0  0  0  0  0  0  0  0
  -18.2481  -27.6951   23.3759 C   0  0  0  0  0  0  0  0  0  0  0  0
  -28.6486  -19.3639   20.3290 C   0  0  0  0  0  0  0  0  0  0  0  0
  -15.9424  -27.5104   23.7905 C   0  0  0  0  0  0  0  0  0  0  0  0
  -13.3168  -27.8170   22.8991 C   0  0  0  0  0  0  0  0  0  0  0  0
  -30.4385  -26.9778   20.6673 C   0  0  0  0  0  0  0  0  0  0  0  0
  -15.0930  -26.4056   23.7297 C   0  0  0  0  0  0  0  0  0  0  0  0
  -21.3645  -28.7377   20.7115 C   0  0  0  0  0  0  0  0  0  0  0  0
  -22.5360  -29.5473   19.0360 C   0  0  0  0  0  0  0  0  0  0  0  0
  -29.1354  -22.4892   19.3508 C   0  0  0  0  0  0  0  0  0  0  0  0
  -31.1610  -28.4640   23.2943 C   0  0  0  0  0  0  0  0  0  0  0  0
  -29.9661  -28.9850   23.0070 C   0  0  0  0  0  0  0  0  0  0  0  0
  -20.0981  -30.0891   18.9268 C   0  0  0  0  0  0  0  0  0  0  0  0
  -25.6012  -14.0083   21.9275 C   0  0  0  0  0  0  0  0  0  0  0  0
  -28.5417  -13.6723   21.1206 C   0  0  0  0  0  0  0  0  0  0  0  0
  -31.6526  -13.6064   19.7224 C   0  0  0  0  0  0  0  0  0  0  0  0
  -27.7524  -28.9130   22.0471 C   0  0  0  0  0  0  0  0  0  0  0  0
  -22.5464  -10.1120   20.6848 C   0  0  0  0  0  0  0  0  0  0  0  0
  -25.7425  -16.2410   20.8498 C   0  0  0  0  0  0  0  0  0  0  0  0
  -28.2687  -16.0053   22.0916 C   0  0  0  0  0  0  0  0  0  0  0  0
  -24.0360  -10.2831   20.9712 C   0  0  0  0  0  0  0  0  0  0  0  0
  -31.9395  -21.7095   19.0245 C   0  0  0  0  0  0  0  0  0  0  0  0
  -26.6435  -27.1110   18.9740 C   0  0  0  0  0  0  0  0  0  0  0  0
  -24.2447  -11.0705   22.2608 C   0  0  0  0  0  0  0  0  0  0  0  0
  -30.8748  -20.9726   18.2394 C   0  0  0  0  0  0  0  0  0  0  0  0
  -25.1354  -27.3529   19.0165 C   0  0  0  0  0  0  0  0  0  0  0  0
  -31.5450  -23.1695   19.1686 C   0  0  0  0  0  0  0  0  0  0  0  0
  -27.2358  -27.0669   20.3776 C   0  0  0  0  0  0  0  0  0  0  0  0
  -25.4402  -28.5361   21.2403 C   0  0  0  0  0  0  0  0  0  0  0  0
  -23.6505  -12.4797   22.1491 C   0  0  1  0  0  0  0  0  0  0  0  0
  -29.5451  -21.0810   18.9555 C   0  0  1  0  0  0  0  0  0  1  0  0
  -26.3704  -14.8388   20.9427 C   0  0  1  0  0  0  0  0  0  0  0  0
  -24.8012  -28.6064   19.8431 C   0  0  2  0  0  0  0  0  0  0  0  0
  -33.5983  -12.0741   19.3179 C   0  0  0  0  0  0  0  0  0  0  0  0
  -29.3532  -13.9357   24.0490 C   0  0  0  0  0  0  0  0  0  0  0  0
  -31.6707  -13.2507   23.3948 C   0  0  0  0  0  0  0  0  0  0  0  0
  -29.7639  -11.6796   23.0512 C   0  0  0  0  0  0  0  0  0  0  0  0
  -31.4157  -13.8914   16.7861 C   0  0  0  0  0  0  0  0  0  0  0  0
  -29.9847  -13.7064   21.5561 C   0  0  1  0  0  0  0  0  0  0  0  0
  -32.3016  -12.6340   18.7541 C   0  0  2  0  0  0  0  0  0  0  0  0
  -30.1807  -13.1656   23.0006 C   0  0  0  0  0  0  0  0  0  0  0  0
  -22.6164  -28.3422   20.9567 N   0  0  0  0  0  0  0  0  0  0  0  0
  -23.3052  -28.8497   19.9203 N   0  0  0  0  0  0  0  0  0  0  0  0
  -30.1733  -23.3863   19.6592 N   0  0  0  0  0  0  0  0  0  0  0  0
  -27.7673  -14.8029   21.4079 N   0  0  0  0  0  0  0  0  0  0  0  0
  -26.8769  -28.2643   21.1514 N   0  0  0  0  0  0  0  0  0  0  0  0
  -23.0683  -30.1240   17.9377 N   0  0  0  0  0  0  0  0  0  0  0  0
  -18.8594  -29.9355   19.5641 N   0  0  0  0  0  0  0  0  0  0  0  0
  -24.5252  -13.3373   21.3785 N   0  0  0  0  0  0  0  0  0  0  0  0
  -30.7355  -12.9787   20.5387 N   0  0  0  0  0  0  0  0  0  0  0  0
  -29.0579  -28.3677   22.1623 N   0  0  0  0  0  0  0  0  0  0  0  0
  -32.6052  -13.3136   17.4630 N   0  3  0  0  0  0  0  0  0  0  0  0
  -27.9290  -22.7415   19.4233 O   0  0  0  0  0  0  0  0  0  0  0  0
  -20.1586  -30.7258   17.8477 O   0  0  0  0  0  0  0  0  0  0  0  0
  -25.9576  -13.9765   23.0996 O   0  0  0  0  0  0  0  0  0  0  0  0
  -28.1086  -12.6694   20.5461 O   0  0  0  0  0  0  0  0  0  0  0  0
  -31.9339  -14.8024   19.7542 O   0  0  0  0  0  0  0  0  0  0  0  0
  -27.4075  -29.9201   22.6788 O   0  0  0  0  0  0  0  0  0  0  0  0
  -17.2458  -27.3600   24.2335 O   0  0  0  0  0  0  0  0  0  0  0  0
  -29.5719  -20.3535   20.1774 O   0  0  0  0  0  0  0  0  0  1  0  0
  -12.0557  -27.9646   22.4725 F   0  0  0  0  0  0  0  0  0  0  0  0
  -31.2338  -28.0297   20.4253 F   0  0  0  0  0  0  0  0  0  0  0  0
  -15.5322  -25.1947   24.0993 F   0  0  0  0  0  0  0  0  0  0  0  0
  1  2  1  0  0  0  0
  1  5  2  0  0  0  0
  2  6  2  0  0  0  0
  3 10  2  0  0  0  0
  3 18  1  0  0  0  0
  4 11  1  0  0  0  0
  4 18  2  0  0  0  0
  5 20  1  0  0  0  0
  6 22  1  0  0  0  0
  7 12  2  0  0  0  0
  7 21  1  0  0  0  0
  8  9  2  0  0  0  0
  8 24  1  0  0  0  0
  9 25  1  0  0  0  0
 10 26  1  0  0  0  0
 11 26  2  0  0  0  0
 12 27  1  0  0  0  0
 13 14  2  0  0  0  0
 13 28  1  0  0  0  0
 14 29  1  0  0  0  0
 15 23  1  0  0  0  0
 15 27  2  0  0  0  0
 16 24  2  0  0  0  0
 16 30  1  0  0  0  0
 17 29  2  0  0  0  0
 17 31  1  0  0  0  0
 18 32  1  0  0  0  0
 19 32  1  0  0  0  0
 19 33  2  0  0  0  0
 19 37  1  0  0  0  0
 20 22  2  0  0  0  0
 20 42  1  0  0  0  0
 21 23  2  0  0  0  0
 21 43  1  0  0  0  0
 22 54  1  0  0  0  0
 23 44  1  0  0  0  0
 24 68  1  0  0  0  0
 25 30  2  0  0  0  0
 25 75  1  0  0  0  0
 26 83  1  0  0  0  0
 27 84  1  0  0  0  0
 28 31  2  0  0  0  0
 28 83  1  0  0  0  0
 29 85  1  0  0  0  0
 30 86  1  0  0  0  0
 31 87  1  0  0  0  0
 32 66  2  0  0  0  0
 33 67  1  0  0  0  0
 33 71  1  0  0  0  0
 34 55  1  0  0  0  0
 34 68  1  0  0  0  0
 34 77  2  0  0  0  0
 35 36  2  0  0  0  0
 36 75  1  0  0  0  0
 37 72  1  0  0  0  0
 37 78  2  0  0  0  0
 38 56  1  0  0  0  0
 38 73  1  0  0  0  0
 38 79  2  0  0  0  0
 39 63  1  0  0  0  0
 39 69  1  0  0  0  0
 39 80  2  0  0  0  0
 40 64  1  0  0  0  0
 40 74  1  0  0  0  0
 40 81  2  0  0  0  0
 41 70  1  0  0  0  0
 41 75  1  0  0  0  0
 41 82  2  0  0  0  0
 42 45  1  0  0  0  0
 43 56  1  0  0  0  0
 44 69  1  0  0  0  0
 45 48  1  0  0  0  0
 46 49  1  0  0  0  0
 46 51  1  0  0  0  0
 47 50  1  0  0  0  0
 47 52  1  0  0  0  0
 48 54  1  0  0  0  0
 49 55  1  0  0  0  0
 50 57  1  0  0  0  0
 51 68  1  0  0  0  0
 52 70  1  0  0  0  0
 53 57  1  0  0  0  0
 53 70  1  0  0  0  0
 54 73  1  0  0  0  0
 55 84  1  0  0  0  0
 56 69  1  0  0  0  0
 57 67  1  0  0  0  0
 58 64  1  0  0  0  0
 59 65  1  0  0  0  0
 60 65  1  0  0  0  0
 61 65  1  0  0  0  0
 62 76  1  0  0  0  0
 63 65  1  0  0  0  0
 63 74  1  0  0  0  0
 64 76  1  0  0  0  0
 66 67  1  0  0  0  0
M  CHG  1  76   1
M  ISO  4  41 100  55 101  75 100  84 101
M  END
> <Batch ID>
0088

> <Smiles>
C=C[100N:0](c1ccc(N2CCC[101CH:1]([101O:1]c3ccc4c(c3)CN(C(=O)C(NC(=O)C(C)NC)C(C)(C)C)C(C(=O)NC3CCCc5ccccc53)C4)C2=O)cc1F)[100C:0](=O)N1CCCC(n2nc(-c3ccc(Oc4ccc(F)cc4F)cc3)c(C(N)=O)c2N)C1

> <Shape>
0.283

> <Color>
0.072

> <Negative vol penalty>
0.000

$$$$

  -OEChem-04052300233D

 86 95  0     1  0  0  0  0  0999 V2000
  -24.2984  -31.2919   22.2397 C   0  0  0  0  0  0  0  0  0  0  0  0
  -24.9580  -30.0698   22.3226 C   0  0  0  0  0  0  0  0  0  0  0  0
  -23.2566   -9.7338   19.9295 C   0  0  0  0  0  0  0  0  0  0  0  0
  -23.8139   -9.8913   22.2750 C   0  0  0  0  0  0  0  0  0  0  0  0
  -24.4285  -32.0766   21.0946 C   0  0  0  0  0  0  0  0  0  0  0  0
  -25.7472  -29.6312   21.2600 C   0  0  0  0  0  0  0  0  0  0  0  0
  -30.1945  -27.7529   22.7891 C   0  0  0  0  0  0  0  0  0  0  0  0
  -31.3933  -18.9847   23.3857 C   0  0  0  0  0  0  0  0  0  0  0  0
  -31.1799  -17.6080   23.3174 C   0  0  0  0  0  0  0  0  0  0  0  0
  -22.5253   -8.5730   20.1812 C   0  0  0  0  0  0  0  0  0  0  0  0
  -23.0825   -8.7305   22.5268 C   0  0  0  0  0  0  0  0  0  0  0  0
  -30.1938  -26.4607   23.3125 C   0  0  0  0  0  0  0  0  0  0  0  0
  -19.8370   -7.8645   22.8970 C   0  0  0  0  0  0  0  0  0  0  0  0
  -18.9825   -7.8650   23.9994 C   0  0  0  0  0  0  0  0  0  0  0  0
  -30.9813  -25.6098   21.1970 C   0  0  0  0  0  0  0  0  0  0  0  0
  -30.4962  -19.2344   21.1564 C   0  0  0  0  0  0  0  0  0  0  0  0
  -20.2072   -6.0117   24.9494 C   0  0  0  0  0  0  0  0  0  0  0  0
  -23.9010  -10.3929   20.9764 C   0  0  0  0  0  0  0  0  0  0  0  0
  -24.1835  -12.9172   20.7406 C   0  0  0  0  0  0  0  0  0  0  0  0
  -25.2275  -31.6519   20.0213 C   0  0  0  0  0  0  0  0  0  0  0  0
  -30.5789  -27.9823   21.4601 C   0  0  0  0  0  0  0  0  0  0  0  0
  -25.8870  -30.4103   20.0989 C   0  0  0  0  0  0  0  0  0  0  0  0
  -30.9885  -26.9062   20.6599 C   0  0  0  0  0  0  0  0  0  0  0  0
  -31.0514  -19.7979   22.3052 C   0  0  0  0  0  0  0  0  0  0  0  0
  -30.6247  -17.0444   22.1686 C   0  0  0  0  0  0  0  0  0  0  0  0
  -30.2828  -17.8576   21.0880 C   0  0  0  0  0  0  0  0  0  0  0  0
  -22.4382   -8.0714   21.4798 C   0  0  0  0  0  0  0  0  0  0  0  0
  -30.5845  -25.3885   22.5156 C   0  0  0  0  0  0  0  0  0  0  0  0
  -20.8765   -6.9375   22.8206 C   0  0  0  0  0  0  0  0  0  0  0  0
  -19.1676   -6.9386   25.0257 C   0  0  0  0  0  0  0  0  0  0  0  0
  -21.0616   -6.0112   23.8469 C   0  0  0  0  0  0  0  0  0  0  0  0
  -24.6570  -11.5917   20.7169 C   0  0  0  0  0  0  0  0  0  0  0  0
  -25.2824  -13.6800   20.4292 C   0  0  0  0  0  0  0  0  0  0  0  0
  -31.7787  -21.9601   23.3530 C   0  0  0  0  0  0  0  0  0  0  0  0
  -30.9735  -22.1772   21.5077 C   0  0  0  0  0  0  0  0  0  0  0  0
  -30.5055  -13.5927   23.3970 C   0  0  0  0  0  0  0  0  0  0  0  0
  -30.1474  -14.8715   23.2621 C   0  0  0  0  0  0  0  0  0  0  0  0
  -22.8680  -13.4145   21.0193 C   0  0  0  0  0  0  0  0  0  0  0  0
  -29.1383  -29.1489   18.8780 C   0  0  0  0  0  0  0  0  0  0  0  0
  -32.1022  -28.8901   17.5855 C   0  0  0  0  0  0  0  0  0  0  0  0
  -35.1662  -27.3881   17.6413 C   0  0  0  0  0  0  0  0  0  0  0  0
  -30.6375  -14.9274   20.8994 C   0  0  0  0  0  0  0  0  0  0  0  0
  -25.2998  -32.5126   18.7850 C   0  0  0  0  0  0  0  0  0  0  0  0
  -30.5997  -29.3854   20.9187 C   0  0  0  0  0  0  0  0  0  0  0  0
  -31.4295  -27.1018   19.2331 C   0  0  0  0  0  0  0  0  0  0  0  0
  -26.4552  -32.1486   17.8561 C   0  0  0  0  0  0  0  0  0  0  0  0
  -29.8306  -12.3582   18.6776 C   0  0  0  0  0  0  0  0  0  0  0  0
  -26.5197  -30.6385   17.6508 C   0  0  0  0  0  0  0  0  0  0  0  0
  -28.3758  -12.0271   19.0090 C   0  0  0  0  0  0  0  0  0  0  0  0
  -30.6306  -12.6366   19.9450 C   0  0  0  0  0  0  0  0  0  0  0  0
  -28.6014  -13.4085   21.1324 C   0  0  0  0  0  0  0  0  0  0  0  0
  -26.7721  -29.9117   18.9773 C   0  0  1  0  0  0  0  0  0  0  0  0
  -31.5419  -23.2117   22.4921 C   0  0  0  0  0  0  0  0  0  1  0  0
  -30.5184  -29.4397   19.3962 C   0  0  1  0  0  0  0  0  0  0  0  0
  -27.7444  -13.1258   19.8821 C   0  0  2  0  0  0  0  0  0  0  0  0
  -37.3673  -27.3575   16.4364 C   0  0  0  0  0  0  0  0  0  0  0  0
  -30.8385  -27.2795   15.3229 C   0  0  0  0  0  0  0  0  0  0  0  0
  -33.1309  -26.4909   14.6975 C   0  0  0  0  0  0  0  0  0  0  0  0
  -32.5773  -28.9208   14.5902 C   0  0  0  0  0  0  0  0  0  0  0  0
  -36.6355  -28.2466   20.0627 C   0  0  0  0  0  0  0  0  0  0  0  0
  -32.8551  -27.8113   16.8449 C   0  0  1  0  0  0  0  0  0  0  0  0
  -36.5704  -27.9618   17.5821 C   0  0  2  0  0  0  0  0  0  0  0  0
  -32.3404  -27.6214   15.3901 C   0  0  0  0  0  0  0  0  0  0  0  0
  -25.9556  -11.5134   20.4142 N   0  0  0  0  0  0  0  0  0  0  0  0
  -26.3074  -12.7993   20.2447 N   0  0  0  0  0  0  0  0  0  0  0  0
  -31.2616  -21.1548   22.3729 N   0  0  0  0  0  0  0  0  0  0  0  0
  -31.4266  -28.4916   18.7476 N   0  0  0  0  0  0  0  0  0  0  0  0
  -29.9962  -13.6818   20.7489 N   0  0  0  0  0  0  0  0  0  0  0  0
  -29.7189  -17.3077   19.9149 N   0  0  0  0  0  0  0  0  0  0  0  0
  -25.4623  -15.0115   20.2977 N   0  0  0  0  0  0  0  0  0  0  0  0
  -21.8555  -12.4935   21.3210 N   0  0  0  0  0  0  0  0  0  0  0  0
  -28.1669  -30.0107   19.3504 N   0  0  0  0  0  0  0  0  0  0  0  0
  -34.2681  -28.1625   16.9377 N   0  0  0  0  0  0  0  0  0  0  0  0
  -30.4125  -15.6124   22.1218 N   0  0  0  0  0  0  0  0  0  0  0  0
  -37.2959  -27.6882   18.8548 N   0  3  0  0  0  0  0  0  0  0  0  0
  -32.2208  -21.7331   24.4565 O   0  0  0  0  0  0  0  0  0  0  0  0
  -30.4565  -22.2085   20.4139 O   0  0  0  0  0  0  0  0  0  0  0  0
  -22.5944  -14.6383   20.9853 O   0  0  0  0  0  0  0  0  0  0  0  0
  -28.9678  -28.2131   18.1055 O   0  0  0  0  0  0  0  0  0  0  0  0
  -32.1191  -30.0451   17.1528 O   0  0  0  0  0  0  0  0  0  0  0  0
  -34.8940  -26.3544   18.2477 O   0  0  0  0  0  0  0  0  0  0  0  0
  -31.3756  -15.3903   20.0201 O   0  0  0  0  0  0  0  0  0  0  0  0
  -21.7245   -6.9388   21.7258 O   0  0  0  0  0  0  0  0  0  0  0  0
  -30.5841  -24.1262   23.0238 O   0  0  0  0  0  0  0  0  0  1  0  0
  -18.3480   -6.9402   26.0851 F   0  0  0  0  0  0  0  0  0  0  0  0
  -22.0593   -5.1190   23.7797 F   0  0  0  0  0  0  0  0  0  0  0  0
  1  2  1  0  0  0  0
  1  5  2  0  0  0  0
  2  6  2  0  0  0  0
  3 10  2  0  0  0  0
  3 18  1  0  0  0  0
  4 11  1  0  0  0  0
  4 18  2  0  0  0  0
  5 20  1  0  0  0  0
  6 22  1  0  0  0  0
  7 12  2  0  0  0  0
  7 21  1  0  0  0  0
  8  9  2  0  0  0  0
  8 24  1  0  0  0  0
  9 25  1  0  0  0  0
 10 27  1  0  0  0  0
 11 27  2  0  0  0  0
 12 28  1  0  0  0  0
 13 14  2  0  0  0  0
 13 29  1  0  0  0  0
 14 30  1  0  0  0  0
 15 23  1  0  0  0  0
 15 28  2  0  0  0  0
 16 24  2  0  0  0  0
 16 26  1  0  0  0  0
 17 30  2  0  0  0  0
 17 31  1  0  0  0  0
 18 32  1  0  0  0  0
 19 32  1  0  0  0  0
 19 33  2  0  0  0  0
 19 38  1  0  0  0  0
 20 22  2  0  0  0  0
 20 43  1  0  0  0  0
 21 23  2  0  0  0  0
 21 44  1  0  0  0  0
 22 52  1  0  0  0  0
 23 45  1  0  0  0  0
 24 66  1  0  0  0  0
 25 26  2  0  0  0  0
 25 74  1  0  0  0  0
 26 69  1  0  0  0  0
 27 83  1  0  0  0  0
 28 84  1  0  0  0  0
 29 31  2  0  0  0  0
 29 83  1  0  0  0  0
 30 85  1  0  0  0  0
 31 86  1  0  0  0  0
 32 64  2  0  0  0  0
 33 65  1  0  0  0  0
 33 70  1  0  0  0  0
 34 53  1  0  0  0  0
 34 66  1  0  0  0  0
 34 76  2  0  0  0  0
 35 53  1  0  0  0  0
 35 66  1  0  0  0  0
 35 77  2  0  0  0  0
 36 37  2  0  0  0  0
 37 74  1  0  0  0  0
 38 71  1  0  0  0  0
 38 78  2  0  0  0  0
 39 54  1  0  0  0  0
 39 72  1  0  0  0  0
 39 79  2  0  0  0  0
 40 61  1  0  0  0  0
 40 67  1  0  0  0  0
 40 80  2  0  0  0  0
 41 62  1  0  0  0  0
 41 73  1  0  0  0  0
 41 81  2  0  0  0  0
 42 68  1  0  0  0  0
 42 74  1  0  0  0  0
 42 82  2  0  0  0  0
 43 46  1  0  0  0  0
 44 54  1  0  0  0  0
 45 67  1  0  0  0  0
 46 48  1  0  0  0  0
 47 49  1  0  0  0  0
 47 50  1  0  0  0  0
 48 52  1  0  0  0  0
 49 55  1  0  0  0  0
 50 68  1  0  0  0  0
 51 55  1  0  0  0  0
 51 68  1  0  0  0  0
 52 72  1  0  0  0  0
 53 84  1  0  0  0  0
 54 67  1  0  0  0  0
 55 65  1  0  0  0  0
 56 62  1  0  0  0  0
 57 63  1  0  0  0  0
 58 63  1  0  0  0  0
 59 63  1  0  0  0  0
 60 75  1  0  0  0  0
 61 63  1  0  0  0  0
 61 73  1  0  0  0  0
 62 75  1  0  0  0  0
 64 65  1  0  0  0  0
M  CHG  1  75   1
M  ISO  4  42 100  53 101  74 100  84 101
M  END
> <Batch ID>
0088

> <Smiles>
C=C[100N:0](c1ccc(N2C(=O)[101CH:1]([101O:1]c3ccc4c(c3)CN(C(=O)C(NC(=O)C(C)NC)C(C)(C)C)C(C(=O)NC3CCCc5ccccc53)C4)C2=O)cc1N)[100C:0](=O)N1CCCC(n2nc(-c3ccc(Oc4ccc(F)cc4F)cc3)c(C(N)=O)c2N)C1

> <Shape>
0.252

> <Color>
0.195

> <Negative vol penalty>
0.000

$$$$

  -OEChem-04052300233D

 84 93  0     1  0  0  0  0  0999 V2000
  -27.1253  -24.2981   16.7598 C   0  0  0  0  0  0  0  0  0  0  0  0
  -26.0923  -25.1597   17.1114 C   0  0  0  0  0  0  0  0  0  0  0  0
  -24.4003  -13.9012   20.9778 C   0  0  0  0  0  0  0  0  0  0  0  0
  -26.7799  -13.4881   20.9174 C   0  0  0  0  0  0  0  0  0  0  0  0
  -28.2423  -24.1824   17.5844 C   0  0  0  0  0  0  0  0  0  0  0  0
  -26.1813  -25.9146   18.2814 C   0  0  0  0  0  0  0  0  0  0  0  0
  -22.6656  -29.2693   19.0495 C   0  0  0  0  0  0  0  0  0  0  0  0
  -24.1626  -12.5949   20.5506 C   0  0  0  0  0  0  0  0  0  0  0  0
  -26.5423  -12.1817   20.4902 C   0  0  0  0  0  0  0  0  0  0  0  0
  -21.3590  -28.9263   19.3945 C   0  0  0  0  0  0  0  0  0  0  0  0
  -22.9188   -9.2574   19.8228 C   0  0  0  0  0  0  0  0  0  0  0  0
  -21.9219   -8.5328   20.4760 C   0  0  0  0  0  0  0  0  0  0  0  0
  -22.5416  -25.0330   23.6031 C   0  0  0  0  0  0  0  0  0  0  0  0
  -23.5955  -24.0773   23.5239 C   0  0  0  0  0  0  0  0  0  0  0  0
  -21.8046  -29.5530   21.6810 C   0  0  0  0  0  0  0  0  0  0  0  0
  -23.1142   -8.7738   22.5634 C   0  0  0  0  0  0  0  0  0  0  0  0
  -25.7089  -14.3479   21.1611 C   0  0  0  0  0  0  0  0  0  0  0  0
  -26.0677  -16.1508   22.9298 C   0  0  0  0  0  0  0  0  0  0  0  0
  -28.3386  -24.9274   18.7714 C   0  0  0  0  0  0  0  0  0  0  0  0
  -23.5563  -29.7471   20.0215 C   0  0  0  0  0  0  0  0  0  0  0  0
  -27.3113  -25.8297   19.1147 C   0  0  0  0  0  0  0  0  0  0  0  0
  -23.1212  -29.9037   21.3453 C   0  0  0  0  0  0  0  0  0  0  0  0
  -25.2336  -11.7351   20.3068 C   0  0  0  0  0  0  0  0  0  0  0  0
  -20.9292  -29.0654   20.7109 C   0  0  0  0  0  0  0  0  0  0  0  0
  -24.0135   -9.7402   20.5399 C   0  0  0  0  0  0  0  0  0  0  0  0
  -22.0196   -8.2910   21.8463 C   0  0  0  0  0  0  0  0  0  0  0  0
  -24.1112   -9.4985   21.9102 C   0  0  0  0  0  0  0  0  0  0  0  0
  -25.9551  -15.6974   21.6019 C   0  0  0  0  0  0  0  0  0  0  0  0
  -26.2998  -17.4996   22.8137 C   0  0  0  0  0  0  0  0  0  0  0  0
  -21.9726  -25.2790   22.3730 C   0  0  0  0  0  0  0  0  0  0  0  0
  -23.7916  -23.6291   22.2360 C   0  0  0  0  0  0  0  0  0  0  0  0
  -20.3784  -26.3667   20.8077 C   0  0  0  0  0  0  0  0  0  0  0  0
  -20.1911  -26.9735   22.7326 C   0  0  0  0  0  0  0  0  0  0  0  0
  -25.9712  -15.4183   24.1586 C   0  0  0  0  0  0  0  0  0  0  0  0
  -26.3238  -28.7395   21.2171 C   0  0  0  0  0  0  0  0  0  0  0  0
  -26.2474  -31.5898   22.7639 C   0  0  0  0  0  0  0  0  0  0  0  0
  -24.3835  -34.1768   23.9807 C   0  0  0  0  0  0  0  0  0  0  0  0
  -24.7585  -22.3604   20.3253 C   0  0  0  0  0  0  0  0  0  0  0  0
  -29.5736  -24.7692   19.6229 C   0  0  0  0  0  0  0  0  0  0  0  0
  -24.9544  -30.1379   19.6280 C   0  0  0  0  0  0  0  0  0  0  0  0
  -24.0322  -30.4315   22.4223 C   0  0  0  0  0  0  0  0  0  0  0  0
  -29.3789  -25.2680   21.0510 C   0  0  0  0  0  0  0  0  0  0  0  0
  -27.4261  -20.3292   18.7865 C   0  0  0  0  0  0  0  0  0  0  0  0
  -28.7671  -26.6608   21.0363 C   0  0  0  0  0  0  0  0  0  0  0  0
  -27.2401  -18.9649   19.4484 C   0  0  0  0  0  0  0  0  0  0  0  0
  -26.1091  -21.0923   18.6808 C   0  0  0  0  0  0  0  0  0  0  0  0
  -25.2119  -19.8813   20.6451 C   0  0  0  0  0  0  0  0  0  0  0  0
  -27.3724  -26.6380   20.3981 C   0  0  1  0  0  0  0  0  0  0  0  0
  -25.9300  -30.1285   20.8009 C   0  0  1  0  0  0  0  0  0  0  0  0
  -26.5283  -19.1059   20.8051 C   0  0  1  0  0  0  0  0  0  0  0  0
  -19.4242  -27.3838   21.4613 C   0  0  0  0  0  0  0  0  0  1  0  0
  -17.9506  -27.0399   21.4206 C   0  0  0  0  0  0  0  0  0  0  0  0
  -24.5982  -36.3428   25.2295 C   0  0  0  0  0  0  0  0  0  0  0  0
  -26.6518  -30.0472   25.3652 C   0  0  0  0  0  0  0  0  0  0  0  0
  -25.9159  -32.0909   26.6102 C   0  0  0  0  0  0  0  0  0  0  0  0
  -27.9680  -32.1668   25.1939 C   0  0  0  0  0  0  0  0  0  0  0  0
  -25.8280  -22.2138   22.5624 C   0  0  0  0  0  0  0  0  0  0  0  0
  -23.2608  -35.7244   21.7216 C   0  0  0  0  0  0  0  0  0  0  0  0
  -25.6984  -32.0756   24.0836 C   0  0  1  0  0  0  0  0  0  0  0  0
  -24.5490  -35.6810   23.8611 C   0  0  2  0  0  0  0  0  0  0  0  0
  -26.5417  -31.5833   25.2935 C   0  0  0  0  0  0  0  0  0  0  0  0
  -26.1032  -16.6785   20.7077 N   0  0  0  0  0  0  0  0  0  0  0  0
  -26.3112  -17.7619   21.4753 N   0  0  0  0  0  0  0  0  0  0  0  0
  -20.9663  -26.0994   22.0164 N   0  0  0  0  0  0  0  0  0  0  0  0
  -25.3918  -30.7939   21.9891 N   0  0  0  0  0  0  0  0  0  0  0  0
  -25.4311  -21.1724   19.9752 N   0  0  0  0  0  0  0  0  0  0  0  0
  -26.4930  -18.4749   23.7268 N   0  0  0  0  0  0  0  0  0  0  0  0
  -25.7295  -14.0391   24.0970 N   0  0  0  0  0  0  0  0  0  0  0  0
  -26.9158  -27.9978   20.2128 N   0  0  0  0  0  0  0  0  0  0  0  0
  -25.5997  -33.5271   23.9752 N   0  0  0  0  0  0  0  0  0  0  0  0
  -24.7337  -22.6744   21.7015 N   0  0  0  0  0  0  0  0  0  0  0  0
  -23.4128  -36.2679   23.0959 N   0  3  0  0  0  0  0  0  0  0  0  0
  -20.5713  -25.9471   19.6888 O   0  0  0  0  0  0  0  0  0  0  0  0
  -20.1611  -27.2760   23.9042 O   0  0  0  0  0  0  0  0  0  0  0  0
  -26.0794  -15.9732   25.2783 O   0  0  0  0  0  0  0  0  0  0  0  0
  -26.1079  -28.3688   22.3650 O   0  0  0  0  0  0  0  0  0  0  0  0
  -27.3905  -31.9108   22.4295 O   0  0  0  0  0  0  0  0  0  0  0  0
  -23.2854  -33.6327   24.0736 O   0  0  0  0  0  0  0  0  0  0  0  0
  -24.2475  -23.0964   19.4728 O   0  0  0  0  0  0  0  0  0  0  0  0
  -25.0020  -10.4602   19.8902 O   0  0  0  0  0  0  0  0  0  0  0  0
  -19.6546  -28.7308   21.0504 O   0  0  0  0  0  0  0  0  0  1  0  0
  -21.0614   -7.5964   22.4736 F   0  0  0  0  0  0  0  0  0  0  0  0
  -25.1599   -9.9608   22.6047 F   0  0  0  0  0  0  0  0  0  0  0  0
  -22.7081  -24.3598   21.1294 S   0  0  0  0  0  0  0  0  0  0  0  0
  1  2  1  0  0  0  0
  1  5  2  0  0  0  0
  2  6  2  0  0  0  0
  3  8  2  0  0  0  0
  3 17  1  0  0  0  0
  4  9  1  0  0  0  0
  4 17  2  0  0  0  0
  5 19  1  0  0  0  0
  6 21  1  0  0  0  0
  7 10  2  0  0  0  0
  7 20  1  0  0  0  0
  8 23  1  0  0  0  0
  9 23  2  0  0  0  0
 10 24  1  0  0  0  0
 11 12  2  0  0  0  0
 11 25  1  0  0  0  0
 12 26  1  0  0  0  0
 13 14  1  0  0  0  0
 13 30  2  0  0  0  0
 14 31  2  0  0  0  0
 15 22  1  0  0  0  0
 15 24  2  0  0  0  0
 16 26  2  0  0  0  0
 16 27  1  0  0  0  0
 17 28  1  0  0  0  0
 18 28  1  0  0  0  0
 18 29  2  0  0  0  0
 18 34  1  0  0  0  0
 19 21  2  0  0  0  0
 19 39  1  0  0  0  0
 20 22  2  0  0  0  0
 20 40  1  0  0  0  0
 21 48  1  0  0  0  0
 22 41  1  0  0  0  0
 23 80  1  0  0  0  0
 24 81  1  0  0  0  0
 25 27  2  0  0  0  0
 25 80  1  0  0  0  0
 26 82  1  0  0  0  0
 27 83  1  0  0  0  0
 28 62  2  0  0  0  0
 29 63  1  0  0  0  0
 29 67  1  0  0  0  0
 30 64  1  0  0  0  0
 30 84  1  0  0  0  0
 31 71  1  0  0  0  0
 31 84  1  0  0  0  0
 32 51  1  0  0  0  0
 32 64  1  0  0  0  0
 32 73  2  0  0  0  0
 33 51  1  0  0  0  0
 33 64  1  0  0  0  0
 33 74  2  0  0  0  0
 34 68  1  0  0  0  0
 34 75  2  0  0  0  0
 35 49  1  0  0  0  0
 35 69  1  0  0  0  0
 35 76  2  0  0  0  0
 36 59  1  0  0  0  0
 36 65  1  0  0  0  0
 36 77  2  0  0  0  0
 37 60  1  0  0  0  0
 37 70  1  0  0  0  0
 37 78  2  0  0  0  0
 38 66  1  0  0  0  0
 38 71  1  0  0  0  0
 38 79  2  0  0  0  0
 39 42  1  0  0  0  0
 40 49  1  0  0  0  0
 41 65  1  0  0  0  0
 42 44  1  0  0  0  0
 43 45  1  0  0  0  0
 43 46  1  0  0  0  0
 44 48  1  0  0  0  0
 45 50  1  0  0  0  0
 46 66  1  0  0  0  0
 47 50  1  0  0  0  0
 47 66  1  0  0  0  0
 48 69  1  0  0  0  0
 49 65  1  0  0  0  0
 50 63  1  0  0  0  0
 51 52  1  0  0  0  0
 51 81  1  0  0  0  0
 53 60  1  0  0  0  0
 54 61  1  0  0  0  0
 55 61  1  0  0  0  0
 56 61  1  0  0  0  0
 57 71  1  0  0  0  0
 58 72  1  0  0  0  0
 59 61  1  0  0  0  0
 59 70  1  0  0  0  0
 60 72  1  0  0  0  0
 62 63  1  0  0  0  0
M  CHG  1  72   1
M  ISO  4  38 100  51 101  71 100  81 101
M  END
> <Batch ID>
0088

> <Smiles>
CNC(C)C(=O)NC(C(=O)N1Cc2cc([101O:1][101C:1]3(C)C(=O)N(c4ccc([100N:0](C)[100C:0](=O)N5CCCC(n6nc(-c7ccc(Oc8ccc(F)cc8F)cc7)c(C(N)=O)c6N)C5)s4)C3=O)ccc2CC1C(=O)NC1CCCc2ccccc21)C(C)(C)C

> <Shape>
0.307

> <Color>
0.093

> <Negative vol penalty>
0.000

$$$$

  -OEChem-04052300233D

 84 93  0     1  0  0  0  0  0999 V2000
  -29.8187  -31.5473   25.4918 C   0  0  0  0  0  0  0  0  0  0  0  0
  -29.4639  -30.4027   24.7850 C   0  0  0  0  0  0  0  0  0  0  0  0
  -24.5996   -9.3639   21.8335 C   0  0  0  0  0  0  0  0  0  0  0  0
  -23.3565  -10.6477   20.2075 C   0  0  0  0  0  0  0  0  0  0  0  0
  -28.8293  -32.3509   26.0569 C   0  0  0  0  0  0  0  0  0  0  0  0
  -28.1195  -30.0605   24.6439 C   0  0  0  0  0  0  0  0  0  0  0  0
  -26.9570  -28.6597   19.9183 C   0  0  0  0  0  0  0  0  0  0  0  0
  -23.5650   -8.4300   21.8871 C   0  0  0  0  0  0  0  0  0  0  0  0
  -22.3219   -9.7137   20.2611 C   0  0  0  0  0  0  0  0  0  0  0  0
  -27.3186  -27.3707   19.5291 C   0  0  0  0  0  0  0  0  0  0  0  0
  -20.5238   -8.1627   23.3376 C   0  0  0  0  0  0  0  0  0  0  0  0
  -20.1167   -7.7192   24.5958 C   0  0  0  0  0  0  0  0  0  0  0  0
  -28.9700  -19.5359   17.2305 C   0  0  0  0  0  0  0  0  0  0  0  0
  -25.0558  -26.6272   19.9113 C   0  0  0  0  0  0  0  0  0  0  0  0
  -28.0822  -20.1592   19.8061 C   0  0  0  0  0  0  0  0  0  0  0  0
  -20.6859   -5.4531   23.9812 C   0  0  0  0  0  0  0  0  0  0  0  0
  -24.4953  -10.4729   20.9937 C   0  0  0  0  0  0  0  0  0  0  0  0
  -28.7516  -20.8659   17.6014 C   0  0  0  0  0  0  0  0  0  0  0  0
  -26.6769  -11.4258   20.0770 C   0  0  0  0  0  0  0  0  0  0  0  0
  -27.4717  -32.0236   25.9144 C   0  0  0  0  0  0  0  0  0  0  0  0
  -25.6425  -28.9402   20.3180 C   0  0  0  0  0  0  0  0  0  0  0  0
  -27.1111  -30.8597   25.2088 C   0  0  0  0  0  0  0  0  0  0  0  0
  -24.6795  -27.9212   20.3027 C   0  0  0  0  0  0  0  0  0  0  0  0
  -28.7412  -18.5187   18.1556 C   0  0  0  0  0  0  0  0  0  0  0  0
  -28.3061  -21.1932   18.8909 C   0  0  0  0  0  0  0  0  0  0  0  0
  -28.2983  -18.8290   19.4407 C   0  0  0  0  0  0  0  0  0  0  0  0
  -22.4262   -8.6048   21.1009 C   0  0  0  0  0  0  0  0  0  0  0  0
  -26.3686  -26.3535   19.5284 C   0  0  0  0  0  0  0  0  0  0  0  0
  -21.0120   -7.2514   22.4011 C   0  0  0  0  0  0  0  0  0  0  0  0
  -20.1977   -6.3644   24.9176 C   0  0  0  0  0  0  0  0  0  0  0  0
  -21.0931   -5.8966   22.7229 C   0  0  0  0  0  0  0  0  0  0  0  0
  -25.5635  -11.4383   20.9384 C   0  0  0  0  0  0  0  0  0  0  0  0
  -27.3883  -12.5498   20.4192 C   0  0  0  0  0  0  0  0  0  0  0  0
  -28.9875  -21.9614   16.6362 C   0  0  0  0  0  0  0  0  0  0  0  0
  -28.2931  -23.4567   18.4237 C   0  0  0  0  0  0  0  0  0  0  0  0
  -27.0358  -10.4827   19.0586 C   0  0  0  0  0  0  0  0  0  0  0  0
  -24.2849  -29.9661   23.0028 C   0  0  0  0  0  0  0  0  0  0  0  0
  -21.6133  -30.0388   21.1644 C   0  0  0  0  0  0  0  0  0  0  0  0
  -19.9530  -28.8754   18.4191 C   0  0  0  0  0  0  0  0  0  0  0  0
  -27.6227  -17.9617   21.7073 C   0  0  0  0  0  0  0  0  0  0  0  0
  -26.4403  -32.8973   26.5833 C   0  0  0  0  0  0  0  0  0  0  0  0
  -25.2622  -30.3419   20.7094 C   0  0  0  0  0  0  0  0  0  0  0  0
  -23.2500  -28.1749   20.7035 C   0  0  0  0  0  0  0  0  0  0  0  0
  -25.0215  -32.6676   26.0689 C   0  0  0  0  0  0  0  0  0  0  0  0
  -26.8860  -15.6955   24.3529 C   0  0  0  0  0  0  0  0  0  0  0  0
  -24.7167  -31.1750   25.9918 C   0  0  0  0  0  0  0  0  0  0  0  0
  -26.5679  -14.3849   23.6295 C   0  0  0  0  0  0  0  0  0  0  0  0
  -26.3731  -16.9091   23.5796 C   0  0  0  0  0  0  0  0  0  0  0  0
  -26.4856  -15.6686   21.4541 C   0  0  0  0  0  0  0  0  0  0  0  0
  -25.6624  -30.4686   25.0129 C   0  0  1  0  0  0  0  0  0  0  0  0
  -24.0172  -30.3996   21.5892 C   0  0  1  0  0  0  0  0  0  0  0  0
  -27.0398  -14.4218   22.1627 C   0  0  2  0  0  0  0  0  0  0  0  0
  -28.9783  -17.1023   17.7418 C   0  0  0  0  0  0  0  0  0  0  0  0
  -17.7716  -29.0920   17.1977 C   0  0  0  0  0  0  0  0  0  0  0  0
  -20.2559  -28.3202   23.2890 C   0  0  0  0  0  0  0  0  0  0  0  0
  -18.4693  -27.7884   21.6176 C   0  0  0  0  0  0  0  0  0  0  0  0
  -18.8251  -30.1453   22.3530 C   0  0  0  0  0  0  0  0  0  0  0  0
  -21.2889  -29.8671   15.9715 C   0  0  0  0  0  0  0  0  0  0  0  0
  -28.0773  -24.8860   18.7651 C   0  0  0  0  0  0  0  0  0  1  0  0
  -20.5202  -29.0536   20.8276 C   0  0  1  0  0  0  0  0  0  0  0  0
  -19.2010  -29.5975   17.3157 C   0  0  2  0  0  0  0  0  0  0  0  0
  -19.5449  -28.8213   22.0160 C   0  0  0  0  0  0  0  0  0  0  0  0
  -25.5633  -12.4870   21.7657 N   0  0  0  0  0  0  0  0  0  0  0  0
  -28.0773  -22.5220   19.2943 N   0  0  0  0  0  0  0  0  0  0  0  0
  -26.6854  -13.1438   21.4257 N   0  0  0  0  0  0  0  0  0  0  0  0
  -28.7313  -23.2278   17.1359 N   0  0  0  0  0  0  0  0  0  0  0  0
  -22.9288  -29.5603   21.0841 N   0  0  0  0  0  0  0  0  0  0  0  0
  -26.8638  -16.8791   22.2000 N   0  0  0  0  0  0  0  0  0  0  0  0
  -28.5404  -13.0779   19.9543 N   0  0  0  0  0  0  0  0  0  0  0  0
  -26.1929   -9.3850   18.8374 N   0  0  0  0  0  0  0  0  0  0  0  0
  -28.0624  -17.8067   20.3930 N   0  0  0  0  0  0  0  0  0  0  0  0
  -25.2516  -30.7142   23.6471 N   0  0  0  0  0  0  0  0  0  0  0  0
  -19.8783  -29.5542   19.6169 N   0  0  0  0  0  0  0  0  0  0  0  0
  -19.8814  -29.3930   16.0056 N   0  3  0  0  0  0  0  0  0  0  0  0
  -29.3771  -21.7375   15.4961 O   0  0  0  0  0  0  0  0  0  0  0  0
  -28.0819  -10.6007   18.3763 O   0  0  0  0  0  0  0  0  0  0  0  0
  -23.6595  -29.0237   23.4745 O   0  0  0  0  0  0  0  0  0  0  0  0
  -21.3115  -31.1925   21.4799 O   0  0  0  0  0  0  0  0  0  0  0  0
  -20.5443  -27.8133   18.2375 O   0  0  0  0  0  0  0  0  0  0  0  0
  -27.8877  -18.9411   22.4091 O   0  0  0  0  0  0  0  0  0  0  0  0
  -21.4166   -7.6934   21.1527 O   0  0  0  0  0  0  0  0  0  0  0  0
  -26.7189  -25.0943   19.1496 O   0  0  0  0  0  0  0  0  0  1  0  0
  -19.8081   -5.9388   26.1264 F   0  0  0  0  0  0  0  0  0  0  0  0
  -21.5623   -5.0166   21.8279 F   0  0  0  0  0  0  0  0  0  0  0  0
  1  2  1  0  0  0  0
  1  5  2  0  0  0  0
  2  6  2  0  0  0  0
  3  8  2  0  0  0  0
  3 17  1  0  0  0  0
  4  9  1  0  0  0  0
  4 17  2  0  0  0  0
  5 20  1  0  0  0  0
  6 22  1  0  0  0  0
  7 10  2  0  0  0  0
  7 21  1  0  0  0  0
  8 27  1  0  0  0  0
  9 27  2  0  0  0  0
 10 28  1  0  0  0  0
 11 12  2  0  0  0  0
 11 29  1  0  0  0  0
 12 30  1  0  0  0  0
 13 18  1  0  0  0  0
 13 24  2  0  0  0  0
 14 23  1  0  0  0  0
 14 28  2  0  0  0  0
 15 25  1  0  0  0  0
 15 26  2  0  0  0  0
 16 30  2  0  0  0  0
 16 31  1  0  0  0  0
 17 32  1  0  0  0  0
 18 25  2  0  0  0  0
 18 34  1  0  0  0  0
 19 32  1  0  0  0  0
 19 33  2  0  0  0  0
 19 36  1  0  0  0  0
 20 22  2  0  0  0  0
 20 41  1  0  0  0  0
 21 23  2  0  0  0  0
 21 42  1  0  0  0  0
 22 50  1  0  0  0  0
 23 43  1  0  0  0  0
 24 26  1  0  0  0  0
 24 53  1  0  0  0  0
 25 64  1  0  0  0  0
 26 71  1  0  0  0  0
 27 81  1  0  0  0  0
 28 82  1  0  0  0  0
 29 31  2  0  0  0  0
 29 81  1  0  0  0  0
 30 83  1  0  0  0  0
 31 84  1  0  0  0  0
 32 63  2  0  0  0  0
 33 65  1  0  0  0  0
 33 69  1  0  0  0  0
 34 66  1  0  0  0  0
 34 75  2  0  0  0  0
 35 59  1  0  0  0  0
 35 64  2  0  0  0  0
 35 66  1  0  0  0  0
 36 70  1  0  0  0  0
 36 76  2  0  0  0  0
 37 51  1  0  0  0  0
 37 72  1  0  0  0  0
 37 77  2  0  0  0  0
 38 60  1  0  0  0  0
 38 67  1  0  0  0  0
 38 78  2  0  0  0  0
 39 61  1  0  0  0  0
 39 73  1  0  0  0  0
 39 79  2  0  0  0  0
 40 68  1  0  0  0  0
 40 71  1  0  0  0  0
 40 80  2  0  0  0  0
 41 44  1  0  0  0  0
 42 51  1  0  0  0  0
 43 67  1  0  0  0  0
 44 46  1  0  0  0  0
 45 47  1  0  0  0  0
 45 48  1  0  0  0  0
 46 50  1  0  0  0  0
 47 52  1  0  0  0  0
 48 68  1  0  0  0  0
 49 52  1  0  0  0  0
 49 68  1  0  0  0  0
 50 72  1  0  0  0  0
 51 67  1  0  0  0  0
 52 65  1  0  0  0  0
 54 61  1  0  0  0  0
 55 62  1  0  0  0  0
 56 62  1  0  0  0  0
 57 62  1  0  0  0  0
 58 74  1  0  0  0  0
 59 82  1  0  0  0  0
 60 62  1  0  0  0  0
 60 73  1  0  0  0  0
 61 74  1  0  0  0  0
 63 65  1  0  0  0  0
M  CHG  1  74   1
M  ISO  4  40 100  59 101  71 100  82 101
M  END
> <Batch ID>
0088

> <Smiles>
CNC(C)C(=O)NC(C(=O)N1Cc2cc([101O:1][101CH2:1]c3nc4cc([100NH:0][100C:0](=O)N5CCCC(n6nc(-c7ccc(Oc8ccc(F)cc8F)cc7)c(C(N)=O)c6N)C5)c(C)cc4c(=O)[nH]3)ccc2CC1C(=O)NC1CCCc2ccccc21)C(C)(C)C

> <Shape>
0.315

> <Color>
0.071

> <Negative vol penalty>
0.000

$$$$

  -OEChem-04052300233D

 87 96  0     1  0  0  0  0  0999 V2000
  -18.0111  -24.6056   24.7323 C   0  0  0  0  0  0  0  0  0  0  0  0
  -19.3255  -24.1513   24.7717 C   0  0  0  0  0  0  0  0  0  0  0  0
  -23.0366   -9.9934   19.9180 C   0  0  0  0  0  0  0  0  0  0  0  0
  -23.8692   -9.8761   22.1830 C   0  0  0  0  0  0  0  0  0  0  0  0
  -17.6803  -25.7118   23.9508 C   0  0  0  0  0  0  0  0  0  0  0  0
  -20.3096  -24.8023   24.0287 C   0  0  0  0  0  0  0  0  0  0  0  0
  -26.1798  -25.5909   25.5855 C   0  0  0  0  0  0  0  0  0  0  0  0
  -31.2937  -19.1703   20.8039 C   0  0  0  0  0  0  0  0  0  0  0  0
  -31.1128  -17.7886   20.7434 C   0  0  0  0  0  0  0  0  0  0  0  0
  -22.3041   -8.8248   20.1267 C   0  0  0  0  0  0  0  0  0  0  0  0
  -23.1367   -8.7076   22.3917 C   0  0  0  0  0  0  0  0  0  0  0  0
  -27.3429  -24.9060   25.2366 C   0  0  0  0  0  0  0  0  0  0  0  0
  -19.4058   -7.9357   21.6241 C   0  0  0  0  0  0  0  0  0  0  0  0
  -18.0843   -7.9107   21.1786 C   0  0  0  0  0  0  0  0  0  0  0  0
  -27.7729  -26.5301   23.5055 C   0  0  0  0  0  0  0  0  0  0  0  0
  -29.7251  -19.2955   22.6372 C   0  0  0  0  0  0  0  0  0  0  0  0
  -18.6067   -6.0467   19.7331 C   0  0  0  0  0  0  0  0  0  0  0  0
  -23.8192  -10.5190   20.9461 C   0  0  0  0  0  0  0  0  0  0  0  0
  -24.1503  -13.0484   20.9563 C   0  0  0  0  0  0  0  0  0  0  0  0
  -18.6626  -26.3826   23.2054 C   0  0  0  0  0  0  0  0  0  0  0  0
  -25.7981  -26.7464   24.8887 C   0  0  0  0  0  0  0  0  0  0  0  0
  -19.9913  -25.9177   23.2354 C   0  0  0  0  0  0  0  0  0  0  0  0
  -26.6058  -27.2293   23.8492 C   0  0  0  0  0  0  0  0  0  0  0  0
  -30.5999  -19.9238   21.7508 C   0  0  0  0  0  0  0  0  0  0  0  0
  -30.2380  -17.1603   21.6297 C   0  0  0  0  0  0  0  0  0  0  0  0
  -29.5441  -17.9137   22.5767 C   0  0  0  0  0  0  0  0  0  0  0  0
  -22.3542   -8.1819   21.3636 C   0  0  0  0  0  0  0  0  0  0  0  0
  -28.1381  -25.3739   24.1945 C   0  0  0  0  0  0  0  0  0  0  0  0
  -20.3279   -7.0162   21.1239 C   0  0  0  0  0  0  0  0  0  0  0  0
  -17.6847   -6.9662   20.2332 C   0  0  0  0  0  0  0  0  0  0  0  0
  -19.9283   -6.0717   20.1785 C   0  0  0  0  0  0  0  0  0  0  0  0
  -24.5765  -11.7258   20.7309 C   0  0  0  0  0  0  0  0  0  0  0  0
  -25.2283  -13.8218   20.6009 C   0  0  0  0  0  0  0  0  0  0  0  0
  -31.6931  -23.4058   21.6881 C   0  0  0  0  0  0  0  0  0  0  0  0
  -30.4384  -23.5515   22.1209 C   0  0  0  0  0  0  0  0  0  0  0  0
  -31.9412  -21.9645   21.4704 C   0  0  0  0  0  0  0  0  0  0  0  0
  -29.8262  -22.2093   22.2202 C   0  0  0  0  0  0  0  0  0  0  0  0
  -22.8924  -13.5345   21.4434 C   0  0  0  0  0  0  0  0  0  0  0  0
  -23.2937  -27.5707   23.1133 C   0  0  0  0  0  0  0  0  0  0  0  0
  -24.7223  -30.4828   23.1451 C   0  0  0  0  0  0  0  0  0  0  0  0
  -27.5898  -32.2994   23.4978 C   0  0  0  0  0  0  0  0  0  0  0  0
  -30.6944  -14.8803   20.6603 C   0  0  0  0  0  0  0  0  0  0  0  0
  -18.2483  -27.5450   22.3382 C   0  0  0  0  0  0  0  0  0  0  0  0
  -24.5546  -27.4889   25.2949 C   0  0  0  0  0  0  0  0  0  0  0  0
  -26.2509  -28.4765   23.0831 C   0  0  0  0  0  0  0  0  0  0  0  0
  -19.4197  -28.4069   21.8744 C   0  0  0  0  0  0  0  0  0  0  0  0
  -29.5115  -12.5971   18.1977 C   0  0  0  0  0  0  0  0  0  0  0  0
  -20.5557  -27.5301   21.3572 C   0  0  0  0  0  0  0  0  0  0  0  0
  -28.0871  -12.2757   18.6557 C   0  0  0  0  0  0  0  0  0  0  0  0
  -30.4639  -12.7628   19.3806 C   0  0  0  0  0  0  0  0  0  0  0  0
  -28.6000  -13.4008   20.8599 C   0  0  0  0  0  0  0  0  0  0  0  0
  -21.0916  -26.6124   22.4628 C   0  0  1  0  0  0  0  0  0  0  0  0
  -23.9913  -28.3655   24.1807 C   0  0  1  0  0  0  0  0  0  0  0  0
  -27.5906  -13.2890   19.7056 C   0  0  2  0  0  0  0  0  0  0  0  0
  -32.7455  -24.4175   21.4236 C   0  0  0  0  0  0  0  0  0  0  0  0
  -28.4490  -34.6563   23.4335 C   0  0  0  0  0  0  0  0  0  0  0  0
  -24.5638  -30.4550   20.0982 C   0  0  0  0  0  0  0  0  0  0  0  0
  -26.2411  -32.3134   20.0634 C   0  0  0  0  0  0  0  0  0  0  0  0
  -24.0227  -32.6581   21.1509 C   0  0  0  0  0  0  0  0  0  0  0  0
  -28.4931  -32.1699   26.3131 C   0  0  0  0  0  0  0  0  0  0  0  0
  -29.6792  -24.7750   22.4850 C   0  0  0  0  0  0  0  0  0  1  0  0
  -25.7399  -31.1839   22.2780 C   0  0  1  0  0  0  0  0  0  0  0  0
  -27.9011  -33.5423   24.3119 C   0  0  2  0  0  0  0  0  0  0  0  0
  -25.1478  -31.6280   20.9106 C   0  0  0  0  0  0  0  0  0  0  0  0
  -25.8276  -11.6590   20.2681 N   0  0  0  0  0  0  0  0  0  0  0  0
  -26.1968  -12.9494   20.1996 N   0  0  0  0  0  0  0  0  0  0  0  0
  -30.7806  -21.3012   21.8110 N   0  0  0  0  0  0  0  0  0  0  0  0
  -25.0220  -29.1636   23.5137 N   0  0  0  0  0  0  0  0  0  0  0  0
  -29.9304  -13.7407   20.3314 N   0  0  0  0  0  0  0  0  0  0  0  0
  -28.6534  -17.2976   23.4842 N   0  0  0  0  0  0  0  0  0  0  0  0
  -25.4327  -15.1562   20.5956 N   0  0  0  0  0  0  0  0  0  0  0  0
  -21.8942  -12.6035   21.7613 N   0  0  0  0  0  0  0  0  0  0  0  0
  -30.0710  -15.7555   21.5492 N   0  0  0  0  0  0  0  0  0  0  0  0
  -21.9519  -27.3524   23.3610 N   0  0  0  0  0  0  0  0  0  0  0  0
  -26.2757  -32.2780   23.0807 N   0  0  0  0  0  0  0  0  0  0  0  0
  -28.9109  -33.2332   25.3634 N   0  3  0  0  0  0  0  0  0  0  0  0
  -32.9967  -21.5035   21.0650 O   0  0  0  0  0  0  0  0  0  0  0  0
  -28.6839  -22.0027   22.5987 O   0  0  0  0  0  0  0  0  0  0  0  0
  -22.6548  -14.7590   21.5767 O   0  0  0  0  0  0  0  0  0  0  0  0
  -23.9256  -27.1854   22.1367 O   0  0  0  0  0  0  0  0  0  0  0  0
  -23.7026  -31.0858   23.4890 O   0  0  0  0  0  0  0  0  0  0  0  0
  -28.4294  -31.4359   23.2529 O   0  0  0  0  0  0  0  0  0  0  0  0
  -31.8076  -15.0798   20.1673 O   0  0  0  0  0  0  0  0  0  0  0  0
  -21.6394   -7.0418   21.5677 O   0  0  0  0  0  0  0  0  0  0  0  0
  -29.2736  -24.7068   23.8515 O   0  0  0  0  0  0  0  0  0  1  0  0
  -16.4152   -6.9414   19.8067 F   0  0  0  0  0  0  0  0  0  0  0  0
  -20.8093   -5.1851   19.6952 F   0  0  0  0  0  0  0  0  0  0  0  0
  1  2  1  0  0  0  0
  1  5  2  0  0  0  0
  2  6  2  0  0  0  0
  3 10  2  0  0  0  0
  3 18  1  0  0  0  0
  4 11  1  0  0  0  0
  4 18  2  0  0  0  0
  5 20  1  0  0  0  0
  6 22  1  0  0  0  0
  7 12  2  0  0  0  0
  7 21  1  0  0  0  0
  8  9  2  0  0  0  0
  8 24  1  0  0  0  0
  9 25  1  0  0  0  0
 10 27  1  0  0  0  0
 11 27  2  0  0  0  0
 12 28  1  0  0  0  0
 13 14  2  0  0  0  0
 13 29  1  0  0  0  0
 14 30  1  0  0  0  0
 15 23  1  0  0  0  0
 15 28  2  0  0  0  0
 16 24  2  0  0  0  0
 16 26  1  0  0  0  0
 17 30  2  0  0  0  0
 17 31  1  0  0  0  0
 18 32  1  0  0  0  0
 19 32  1  0  0  0  0
 19 33  2  0  0  0  0
 19 38  1  0  0  0  0
 20 22  2  0  0  0  0
 20 43  1  0  0  0  0
 21 23  2  0  0  0  0
 21 44  1  0  0  0  0
 22 52  1  0  0  0  0
 23 45  1  0  0  0  0
 24 67  1  0  0  0  0
 25 26  2  0  0  0  0
 25 73  1  0  0  0  0
 26 70  1  0  0  0  0
 27 84  1  0  0  0  0
 28 85  1  0  0  0  0
 29 31  2  0  0  0  0
 29 84  1  0  0  0  0
 30 86  1  0  0  0  0
 31 87  1  0  0  0  0
 32 65  2  0  0  0  0
 33 66  1  0  0  0  0
 33 71  1  0  0  0  0
 34 35  2  0  0  0  0
 34 36  1  0  0  0  0
 34 55  1  0  0  0  0
 35 37  1  0  0  0  0
 35 61  1  0  0  0  0
 36 67  1  0  0  0  0
 36 77  2  0  0  0  0
 37 67  1  0  0  0  0
 37 78  2  0  0  0  0
 38 72  1  0  0  0  0
 38 79  2  0  0  0  0
 39 53  1  0  0  0  0
 39 74  1  0  0  0  0
 39 80  2  0  0  0  0
 40 62  1  0  0  0  0
 40 68  1  0  0  0  0
 40 81  2  0  0  0  0
 41 63  1  0  0  0  0
 41 75  1  0  0  0  0
 41 82  2  0  0  0  0
 42 69  1  0  0  0  0
 42 73  1  0  0  0  0
 42 83  2  0  0  0  0
 43 46  1  0  0  0  0
 44 53  1  0  0  0  0
 45 68  1  0  0  0  0
 46 48  1  0  0  0  0
 47 49  1  0  0  0  0
 47 50  1  0  0  0  0
 48 52  1  0  0  0  0
 49 54  1  0  0  0  0
 50 69  1  0  0  0  0
 51 54  1  0  0  0  0
 51 69  1  0  0  0  0
 52 74  1  0  0  0  0
 53 68  1  0  0  0  0
 54 66  1  0  0  0  0
 56 63  1  0  0  0  0
 57 64  1  0  0  0  0
 58 64  1  0  0  0  0
 59 64  1  0  0  0  0
 60 76  1  0  0  0  0
 61 85  1  0  0  0  0
 62 64  1  0  0  0  0
 62 75  1  0  0  0  0
 63 76  1  0  0  0  0
 65 66  1  0  0  0  0
M  CHG  1  76   1
M  ISO  4  42 100  61 101  73 100  85 101
M  END
> <Batch ID>
0088

> <Smiles>
CNC(C)C(=O)NC(C(=O)N1Cc2cc([101O:1][101CH2:1]C3=C(C)C(=O)N(c4ccc([100NH:0][100C:0](=O)N5CCCC(n6nc(-c7ccc(Oc8ccc(F)cc8F)cc7)c(C(N)=O)c6N)C5)c(N)c4)C3=O)ccc2CC1C(=O)NC1CCCc2ccccc21)C(C)(C)C

> <Shape>
0.285

> <Color>
0.198

> <Negative vol penalty>
0.000

$$$$

  -OEChem-04052300233D

 89 98  0     1  0  0  0  0  0999 V2000
  -21.9440  -11.4340   19.8612 C   0  0  0  0  0  0  0  0  0  0  0  0
  -21.6846  -12.6320   20.5192 C   0  0  0  0  0  0  0  0  0  0  0  0
  -24.0807  -25.3220   14.3880 C   0  0  0  0  0  0  0  0  0  0  0  0
  -26.4837  -25.3211   14.6382 C   0  0  0  0  0  0  0  0  0  0  0  0
  -23.2606  -11.0226   19.6579 C   0  0  0  0  0  0  0  0  0  0  0  0
  -22.7417  -13.4188   20.9752 C   0  0  0  0  0  0  0  0  0  0  0  0
  -22.1038  -18.3305   19.9202 C   0  0  0  0  0  0  0  0  0  0  0  0
  -24.2251  -25.2866   13.0011 C   0  0  0  0  0  0  0  0  0  0  0  0
  -26.6282  -25.2857   13.2513 C   0  0  0  0  0  0  0  0  0  0  0  0
  -21.2282  -19.0481   20.7339 C   0  0  0  0  0  0  0  0  0  0  0  0
  -24.9219  -22.9817   10.6273 C   0  0  0  0  0  0  0  0  0  0  0  0
  -24.1192  -22.0910    9.9146 C   0  0  0  0  0  0  0  0  0  0  0  0
  -20.6498  -27.0360   22.6149 C   0  0  0  0  0  0  0  0  0  0  0  0
  -19.5033  -29.1604   22.7113 C   0  0  0  0  0  0  0  0  0  0  0  0
  -23.1057  -19.9354   21.9614 C   0  0  0  0  0  0  0  0  0  0  0  0
  -18.2444  -27.1018   22.8313 C   0  0  0  0  0  0  0  0  0  0  0  0
  -23.1569  -23.9381    8.6901 C   0  0  0  0  0  0  0  0  0  0  0  0
  -25.2101  -25.3394   15.2066 C   0  0  0  0  0  0  0  0  0  0  0  0
  -20.6872  -28.4303   22.6070 C   0  0  0  0  0  0  0  0  0  0  0  0
  -24.4128  -24.4273   17.4516 C   0  0  0  0  0  0  0  0  0  0  0  0
  -24.3345  -11.8094   20.1031 C   0  0  0  0  0  0  0  0  0  0  0  0
  -23.4888  -18.4017   20.1282 C   0  0  0  0  0  0  0  0  0  0  0  0
  -24.0739  -13.0169   20.7788 C   0  0  0  0  0  0  0  0  0  0  0  0
  -23.9969  -19.2198   21.1473 C   0  0  0  0  0  0  0  0  0  0  0  0
  -19.4284  -26.3717   22.7270 C   0  0  0  0  0  0  0  0  0  0  0  0
  -25.4988  -25.2684   12.4328 C   0  0  0  0  0  0  0  0  0  0  0  0
  -21.7289  -19.8484   21.7566 C   0  0  0  0  0  0  0  0  0  0  0  0
  -24.8420  -24.3506   10.3715 C   0  0  0  0  0  0  0  0  0  0  0  0
  -23.2368  -22.5692    8.9459 C   0  0  0  0  0  0  0  0  0  0  0  0
  -18.2818  -28.4961   22.8234 C   0  0  0  0  0  0  0  0  0  0  0  0
  -23.9595  -24.8288    9.4029 C   0  0  0  0  0  0  0  0  0  0  0  0
  -25.0616  -25.3765   16.6393 C   0  0  0  0  0  0  0  0  0  0  0  0
  -24.5470  -24.9181   18.7274 C   0  0  0  0  0  0  0  0  0  0  0  0
  -20.2090  -22.6995   23.3244 C   0  0  0  0  0  0  0  0  0  0  0  0
  -20.4598  -24.1672   23.2452 C   0  0  0  0  0  0  0  0  0  0  0  0
  -17.8056  -22.2989   23.6864 C   0  0  0  0  0  0  0  0  0  0  0  0
  -21.9771  -29.1327   22.4860 C   0  0  0  0  0  0  0  0  0  0  0  0
  -20.9931  -21.9107   22.5788 C   0  0  0  0  0  0  0  0  0  1  0  0
  -23.7482  -23.2107   17.0857 C   0  0  0  0  0  0  0  0  0  0  0  0
  -25.7519  -16.3067   20.8984 C   0  0  0  0  0  0  0  0  0  0  0  0
  -27.7215  -18.8294   20.3705 C   0  0  0  0  0  0  0  0  0  0  0  0
  -29.1954  -21.8805   19.9637 C   0  0  0  0  0  0  0  0  0  0  0  0
  -24.2666  -29.2148   22.2789 C   0  0  0  0  0  0  0  0  0  0  0  0
  -25.7398  -11.3002   19.9022 C   0  0  0  0  0  0  0  0  0  0  0  0
  -24.4213  -17.6424   19.2247 C   0  0  0  0  0  0  0  0  0  0  0  0
  -25.4765  -19.3464   21.3991 C   0  0  0  0  0  0  0  0  0  0  0  0
  -19.1852  -22.2227   24.3015 C   0  0  0  0  0  0  0  0  0  0  0  0
  -17.2964  -23.6588   23.2557 C   0  0  0  0  0  0  0  0  0  0  0  0
  -26.8089  -12.3745   20.0848 C   0  0  0  0  0  0  0  0  0  0  0  0
  -27.3802  -28.6879   20.5374 C   0  0  0  0  0  0  0  0  0  0  0  0
  -26.5420  -13.1836   21.3500 C   0  0  0  0  0  0  0  0  0  0  0  0
  -26.9910  -27.7280   19.4132 C   0  0  0  0  0  0  0  0  0  0  0  0
  -18.1845  -24.2702   22.1795 C   0  0  0  0  0  0  0  0  0  0  0  0
  -26.2571  -29.6731   20.8465 C   0  0  0  0  0  0  0  0  0  0  0  0
  -24.5582  -28.0567   20.0403 C   0  0  0  0  0  0  0  0  0  0  0  0
  -25.1941  -13.9099   21.2663 C   0  0  1  0  0  0  0  0  0  0  0  0
  -25.7871  -17.3868   19.8545 C   0  0  1  0  0  0  0  0  0  0  0  0
  -25.6560  -27.0272   19.7221 C   0  0  1  0  0  0  0  0  0  0  0  0
  -31.4325  -23.0144   20.0473 C   0  0  0  0  0  0  0  0  0  0  0  0
  -27.6415  -18.7570   23.4199 C   0  0  0  0  0  0  0  0  0  0  0  0
  -29.2880  -20.6430   23.4384 C   0  0  0  0  0  0  0  0  0  0  0  0
  -29.9169  -18.4505   22.4284 C   0  0  0  0  0  0  0  0  0  0  0  0
  -29.0261  -22.6801   17.1192 C   0  0  0  0  0  0  0  0  0  0  0  0
  -28.2775  -19.9475   21.2189 C   0  0  1  0  0  0  0  0  0  0  0  0
  -30.4116  -22.3131   19.1648 C   0  0  2  0  0  0  0  0  0  0  0  0
  -28.7562  -19.4521   22.6128 C   0  0  0  0  0  0  0  0  0  0  0  0
  -25.5701  -26.3935   17.3402 N   0  0  0  0  0  0  0  0  0  0  0  0
  -23.0949  -28.4905   22.3880 N   0  0  0  0  0  0  0  0  0  0  0  0
  -25.2408  -26.0861   18.6063 N   0  0  0  0  0  0  0  0  0  0  0  0
  -19.3892  -24.9266   22.7354 N   0  0  0  0  0  0  0  0  0  0  0  0
  -26.3473  -18.5796   20.4929 N   0  0  0  0  0  0  0  0  0  0  0  0
  -24.9979  -28.9721   21.1016 N   0  0  0  0  0  0  0  0  0  0  0  0
  -24.1381  -24.4603   19.9297 N   0  0  0  0  0  0  0  0  0  0  0  0
  -24.4978  -22.0273   17.0409 N   0  0  0  0  0  0  0  0  0  0  0  0
  -25.3048  -15.0859   20.4301 N   0  0  0  0  0  0  0  0  0  0  0  0
  -29.3192  -20.5857   20.4215 N   0  0  0  0  0  0  0  0  0  0  0  0
  -30.0103  -23.2483   18.0761 N   0  3  0  0  0  0  0  0  0  0  0  0
  -21.5262  -24.5874   23.6916 O   0  0  0  0  0  0  0  0  0  0  0  0
  -17.1002  -21.2943   23.5825 O   0  0  0  0  0  0  0  0  0  0  0  0
  -22.5294  -23.1770   16.7908 O   0  0  0  0  0  0  0  0  0  0  0  0
  -26.1056  -16.5616   22.0437 O   0  0  0  0  0  0  0  0  0  0  0  0
  -28.4773  -18.2055   19.6214 O   0  0  0  0  0  0  0  0  0  0  0  0
  -28.2335  -22.6186   20.1648 O   0  0  0  0  0  0  0  0  0  0  0  0
  -24.6591  -30.0191   23.1274 O   0  0  0  0  0  0  0  0  0  0  0  0
  -25.6401  -25.2336   11.0795 O   0  0  0  0  0  0  0  0  0  0  0  0
  -20.8765  -20.5493   22.5527 O   0  0  0  0  0  0  0  0  0  1  0  0
  -22.4672  -21.7136    8.2605 F   0  0  0  0  0  0  0  0  0  0  0  0
  -17.1446  -29.1971   22.9205 F   0  0  0  0  0  0  0  0  0  0  0  0
  -23.8792  -26.1427    9.1519 F   0  0  0  0  0  0  0  0  0  0  0  0
  1  2  1  0  0  0  0
  1  5  2  0  0  0  0
  2  6  2  0  0  0  0
  3  8  2  0  0  0  0
  3 18  1  0  0  0  0
  4  9  1  0  0  0  0
  4 18  2  0  0  0  0
  5 21  1  0  0  0  0
  6 23  1  0  0  0  0
  7 10  2  0  0  0  0
  7 22  1  0  0  0  0
  8 26  1  0  0  0  0
  9 26  2  0  0  0  0
 10 27  1  0  0  0  0
 11 12  2  0  0  0  0
 11 28  1  0  0  0  0
 12 29  1  0  0  0  0
 13 19  1  0  0  0  0
 13 25  2  0  0  0  0
 14 19  2  0  0  0  0
 14 30  1  0  0  0  0
 15 24  1  0  0  0  0
 15 27  2  0  0  0  0
 16 25  1  0  0  0  0
 16 30  2  0  0  0  0
 17 29  2  0  0  0  0
 17 31  1  0  0  0  0
 18 32  1  0  0  0  0
 19 37  1  0  0  0  0
 20 32  1  0  0  0  0
 20 33  2  0  0  0  0
 20 39  1  0  0  0  0
 21 23  2  0  0  0  0
 21 44  1  0  0  0  0
 22 24  2  0  0  0  0
 22 45  1  0  0  0  0
 23 56  1  0  0  0  0
 24 46  1  0  0  0  0
 25 70  1  0  0  0  0
 26 85  1  0  0  0  0
 27 86  1  0  0  0  0
 28 31  2  0  0  0  0
 28 85  1  0  0  0  0
 29 87  1  0  0  0  0
 30 88  1  0  0  0  0
 31 89  1  0  0  0  0
 32 67  2  0  0  0  0
 33 69  1  0  0  0  0
 33 73  1  0  0  0  0
 34 35  1  0  0  0  0
 34 38  2  0  0  0  0
 34 47  1  0  0  0  0
 35 70  1  0  0  0  0
 35 78  2  0  0  0  0
 36 47  1  0  0  0  0
 36 48  1  0  0  0  0
 36 79  2  0  0  0  0
 37 68  2  0  0  0  0
 38 86  1  0  0  0  0
 39 74  1  0  0  0  0
 39 80  2  0  0  0  0
 40 57  1  0  0  0  0
 40 75  1  0  0  0  0
 40 81  2  0  0  0  0
 41 64  1  0  0  0  0
 41 71  1  0  0  0  0
 41 82  2  0  0  0  0
 42 65  1  0  0  0  0
 42 76  1  0  0  0  0
 42 83  2  0  0  0  0
 43 68  1  0  0  0  0
 43 72  1  0  0  0  0
 43 84  2  0  0  0  0
 44 49  1  0  0  0  0
 45 57  1  0  0  0  0
 46 71  1  0  0  0  0
 48 53  1  0  0  0  0
 49 51  1  0  0  0  0
 50 52  1  0  0  0  0
 50 54  1  0  0  0  0
 51 56  1  0  0  0  0
 52 58  1  0  0  0  0
 53 70  1  0  0  0  0
 54 72  1  0  0  0  0
 55 58  1  0  0  0  0
 55 72  1  0  0  0  0
 56 75  1  0  0  0  0
 57 71  1  0  0  0  0
 58 69  1  0  0  0  0
 59 65  1  0  0  0  0
 60 66  1  0  0  0  0
 61 66  1  0  0  0  0
 62 66  1  0  0  0  0
 63 77  1  0  0  0  0
 64 66  1  0  0  0  0
 64 76  1  0  0  0  0
 65 77  1  0  0  0  0
 67 69  1  0  0  0  0
M  CHG  1  77   1
M  ISO  4  38 101  43 100  68 100  86 101
M  END
> <Batch ID>
0088

> <Smiles>
CNC(C)C(=O)NC(C(=O)N1Cc2cc([101O:1][101CH:1]=C3CC(=O)CCN(c4cc(F)cc(C=[100N:0][100C:0](=O)N5CCCC(n6nc(-c7ccc(Oc8ccc(F)cc8F)cc7)c(C(N)=O)c6N)C5)c4)C3=O)ccc2CC1C(=O)NC1CCCc2ccccc21)C(C)(C)C

> <Shape>
0.209

> <Color>
0.082

> <Negative vol penalty>
0.000

$$$$

  -OEChem-04052300233D

 84 93  0     1  0  0  0  0  0999 V2000
  -27.3760  -37.7449   23.8602 C   0  0  0  0  0  0  0  0  0  0  0  0
  -27.9646  -36.8012   23.0246 C   0  0  0  0  0  0  0  0  0  0  0  0
  -24.1838   -9.2870   22.1900 C   0  0  0  0  0  0  0  0  0  0  0  0
  -22.9184  -11.2676   21.6306 C   0  0  0  0  0  0  0  0  0  0  0  0
  -26.4881  -37.3366   24.8546 C   0  0  0  0  0  0  0  0  0  0  0  0
  -27.6666  -35.4483   23.1837 C   0  0  0  0  0  0  0  0  0  0  0  0
  -26.9147  -29.4144   19.3965 C   0  0  0  0  0  0  0  0  0  0  0  0
  -28.5675  -19.7717   19.8358 C   0  0  0  0  0  0  0  0  0  0  0  0
  -28.8333  -18.4103   19.6890 C   0  0  0  0  0  0  0  0  0  0  0  0
  -23.3139   -9.0306   23.2498 C   0  0  0  0  0  0  0  0  0  0  0  0
  -22.0485  -11.0112   22.6904 C   0  0  0  0  0  0  0  0  0  0  0  0
  -27.3679  -28.0962   19.3695 C   0  0  0  0  0  0  0  0  0  0  0  0
  -20.2247   -7.7239   23.6765 C   0  0  0  0  0  0  0  0  0  0  0  0
  -19.7694   -6.4156   23.8394 C   0  0  0  0  0  0  0  0  0  0  0  0
  -25.7587  -27.5146   21.0700 C   0  0  0  0  0  0  0  0  0  0  0  0
  -26.2900  -19.4044   19.1180 C   0  0  0  0  0  0  0  0  0  0  0  0
  -20.7574   -6.3460   26.0430 C   0  0  0  0  0  0  0  0  0  0  0  0
  -23.9860  -10.4056   21.3804 C   0  0  0  0  0  0  0  0  0  0  0  0
  -24.7639  -10.2195   18.9581 C   0  0  0  0  0  0  0  0  0  0  0  0
  -26.1716  -35.9789   25.0197 C   0  0  0  0  0  0  0  0  0  0  0  0
  -25.8859  -29.7956   20.2697 C   0  0  0  0  0  0  0  0  0  0  0  0
  -26.7747  -35.0213   24.1821 C   0  0  0  0  0  0  0  0  0  0  0  0
  -25.2926  -28.8377   21.1043 C   0  0  0  0  0  0  0  0  0  0  0  0
  -27.2958  -20.2688   19.5503 C   0  0  0  0  0  0  0  0  0  0  0  0
  -27.8275  -17.5460   19.2567 C   0  0  0  0  0  0  0  0  0  0  0  0
  -22.2463   -9.8926   23.5000 C   0  0  0  0  0  0  0  0  0  0  0  0
  -26.7918  -27.1467   20.2083 C   0  0  0  0  0  0  0  0  0  0  0  0
  -20.9465   -8.3433   24.6969 C   0  0  0  0  0  0  0  0  0  0  0  0
  -20.0357   -5.7266   25.0226 C   0  0  0  0  0  0  0  0  0  0  0  0
  -26.5558  -18.0430   18.9712 C   0  0  0  0  0  0  0  0  0  0  0  0
  -21.2128   -7.6544   25.8801 C   0  0  0  0  0  0  0  0  0  0  0  0
  -24.8846  -10.6713   20.2859 C   0  0  0  0  0  0  0  0  0  0  0  0
  -25.8612  -10.7405   18.3170 C   0  0  0  0  0  0  0  0  0  0  0  0
  -26.6615  -23.5741   19.8055 C   0  0  0  0  0  0  0  0  0  0  0  0
  -25.9167  -22.3537   19.4937 C   0  0  0  0  0  0  0  0  0  0  0  0
  -26.3377  -24.8788   19.8603 C   0  0  0  0  0  0  0  0  0  1  0  0
  -23.7505   -9.4020   18.3578 C   0  0  0  0  0  0  0  0  0  0  0  0
  -25.6448  -31.8311   22.6991 C   0  0  0  0  0  0  0  0  0  0  0  0
  -22.5079  -31.0167   22.5622 C   0  0  0  0  0  0  0  0  0  0  0  0
  -20.1455  -28.7306   21.6459 C   0  0  0  0  0  0  0  0  0  0  0  0
  -29.3089  -15.5105   19.3492 C   0  0  0  0  0  0  0  0  0  0  0  0
  -25.2427  -35.5810   26.1393 C   0  0  0  0  0  0  0  0  0  0  0  0
  -25.3902  -31.2158   20.2676 C   0  0  0  0  0  0  0  0  0  0  0  0
  -24.1713  -29.1915   22.0455 C   0  0  0  0  0  0  0  0  0  0  0  0
  -27.8975  -22.7317   20.0228 C   0  0  0  0  0  0  0  0  0  0  0  0
  -24.6918  -34.1643   25.9992 C   0  0  0  0  0  0  0  0  0  0  0  0
  -30.3733  -12.1194   19.1378 C   0  0  0  0  0  0  0  0  0  0  0  0
  -25.8111  -33.1882   25.6509 C   0  0  0  0  0  0  0  0  0  0  0  0
  -29.0748  -11.3223   19.2813 C   0  0  0  0  0  0  0  0  0  0  0  0
  -30.3731  -13.3672   20.0192 C   0  0  0  0  0  0  0  0  0  0  0  0
  -27.9110  -13.4497   19.9930 C   0  0  0  0  0  0  0  0  0  0  0  0
  -26.4576  -33.5469   24.3074 C   0  0  1  0  0  0  0  0  0  0  0  0
  -24.6866  -31.6050   21.5640 C   0  0  1  0  0  0  0  0  0  0  0  0
  -27.8378  -12.2183   19.0754 C   0  0  2  0  0  0  0  0  0  0  0  0
  -17.6691  -28.3279   21.6984 C   0  0  0  0  0  0  0  0  0  0  0  0
  -22.6841  -30.3354   25.5312 C   0  0  0  0  0  0  0  0  0  0  0  0
  -20.5322  -29.0770   25.2988 C   0  0  0  0  0  0  0  0  0  0  0  0
  -20.5935  -31.5314   24.8576 C   0  0  0  0  0  0  0  0  0  0  0  0
  -19.9842  -28.6165   18.6929 C   0  0  0  0  0  0  0  0  0  0  0  0
  -21.6525  -29.9466   23.1965 C   0  0  1  0  0  0  0  0  0  0  0  0
  -18.8351  -28.8822   20.8946 C   0  0  2  0  0  0  0  0  0  0  0  0
  -21.3880  -30.2160   24.7048 C   0  0  0  0  0  0  0  0  0  0  0  0
  -25.9728  -11.4216   20.4784 N   0  0  0  0  0  0  0  0  0  0  0  0
  -26.5459  -11.4450   19.2630 N   0  0  0  0  0  0  0  0  0  0  0  0
  -27.0337  -21.6114   19.6944 N   0  0  0  0  0  0  0  0  0  0  0  0
  -23.7259  -30.5943   22.0111 N   0  0  0  0  0  0  0  0  0  0  0  0
  -29.1742  -14.1695   19.7665 N   0  0  0  0  0  0  0  0  0  0  0  0
  -26.2976  -10.6601   17.0420 N   0  0  0  0  0  0  0  0  0  0  0  0
  -22.6930   -8.9520   19.1600 N   0  0  0  0  0  0  0  0  0  0  0  0
  -28.1006  -16.1636   19.1081 N   0  0  0  0  0  0  0  0  0  0  0  0
  -25.6178  -33.1144   23.2110 N   0  0  0  0  0  0  0  0  0  0  0  0
  -20.4436  -29.8559   22.3848 N   0  0  0  0  0  0  0  0  0  0  0  0
  -18.8966  -28.1567   19.5943 N   0  3  0  0  0  0  0  0  0  0  0  0
  -24.7738  -22.1021   19.1729 O   0  0  0  0  0  0  0  0  0  0  0  0
  -23.7905   -9.0664   17.1497 O   0  0  0  0  0  0  0  0  0  0  0  0
  -26.3549  -30.9092   23.0832 O   0  0  0  0  0  0  0  0  0  0  0  0
  -22.1067  -32.1831   22.5497 O   0  0  0  0  0  0  0  0  0  0  0  0
  -20.8337  -27.7141   21.5863 O   0  0  0  0  0  0  0  0  0  0  0  0
  -30.4153  -16.0323   19.1893 O   0  0  0  0  0  0  0  0  0  0  0  0
  -21.3971   -9.6425   24.5339 O   0  0  0  0  0  0  0  0  0  0  0  0
  -27.2326  -25.8594   20.1845 O   0  0  0  0  0  0  0  0  0  1  0  0
  -19.5971   -4.4708   25.1795 F   0  0  0  0  0  0  0  0  0  0  0  0
  -25.5817  -17.2218   18.5536 F   0  0  0  0  0  0  0  0  0  0  0  0
  -21.9047   -8.2446   26.8644 F   0  0  0  0  0  0  0  0  0  0  0  0
  1  2  1  0  0  0  0
  1  5  2  0  0  0  0
  2  6  2  0  0  0  0
  3 10  2  0  0  0  0
  3 18  1  0  0  0  0
  4 11  1  0  0  0  0
  4 18  2  0  0  0  0
  5 20  1  0  0  0  0
  6 22  1  0  0  0  0
  7 12  2  0  0  0  0
  7 21  1  0  0  0  0
  8  9  2  0  0  0  0
  8 24  1  0  0  0  0
  9 25  1  0  0  0  0
 10 26  1  0  0  0  0
 11 26  2  0  0  0  0
 12 27  1  0  0  0  0
 13 14  2  0  0  0  0
 13 28  1  0  0  0  0
 14 29  1  0  0  0  0
 15 23  1  0  0  0  0
 15 27  2  0  0  0  0
 16 24  2  0  0  0  0
 16 30  1  0  0  0  0
 17 29  2  0  0  0  0
 17 31  1  0  0  0  0
 18 32  1  0  0  0  0
 19 32  1  0  0  0  0
 19 33  2  0  0  0  0
 19 37  1  0  0  0  0
 20 22  2  0  0  0  0
 20 42  1  0  0  0  0
 21 23  2  0  0  0  0
 21 43  1  0  0  0  0
 22 52  1  0  0  0  0
 23 44  1  0  0  0  0
 24 65  1  0  0  0  0
 25 30  2  0  0  0  0
 25 70  1  0  0  0  0
 26 80  1  0  0  0  0
 27 81  1  0  0  0  0
 28 31  2  0  0  0  0
 28 80  1  0  0  0  0
 29 82  1  0  0  0  0
 30 83  1  0  0  0  0
 31 84  1  0  0  0  0
 32 63  2  0  0  0  0
 33 64  1  0  0  0  0
 33 68  1  0  0  0  0
 34 35  1  0  0  0  0
 34 36  2  0  0  0  0
 34 45  1  0  0  0  0
 35 65  1  0  0  0  0
 35 74  2  0  0  0  0
 36 81  1  0  0  0  0
 37 69  1  0  0  0  0
 37 75  2  0  0  0  0
 38 53  1  0  0  0  0
 38 71  1  0  0  0  0
 38 76  2  0  0  0  0
 39 60  1  0  0  0  0
 39 66  1  0  0  0  0
 39 77  2  0  0  0  0
 40 61  1  0  0  0  0
 40 72  1  0  0  0  0
 40 78  2  0  0  0  0
 41 67  1  0  0  0  0
 41 70  1  0  0  0  0
 41 79  2  0  0  0  0
 42 46  1  0  0  0  0
 43 53  1  0  0  0  0
 44 66  1  0  0  0  0
 45 65  1  0  0  0  0
 46 48  1  0  0  0  0
 47 49  1  0  0  0  0
 47 50  1  0  0  0  0
 48 52  1  0  0  0  0
 49 54  1  0  0  0  0
 50 67  1  0  0  0  0
 51 54  1  0  0  0  0
 51 67  1  0  0  0  0
 52 71  1  0  0  0  0
 53 66  1  0  0  0  0
 54 64  1  0  0  0  0
 55 61  1  0  0  0  0
 56 62  1  0  0  0  0
 57 62  1  0  0  0  0
 58 62  1  0  0  0  0
 59 73  1  0  0  0  0
 60 62  1  0  0  0  0
 60 72  1  0  0  0  0
 61 73  1  0  0  0  0
 63 64  1  0  0  0  0
M  CHG  1  73   1
M  ISO  4  36 101  41 100  70 100  81 101
M  END
> <Batch ID>
0088

> <Smiles>
CNC(C)C(=O)NC(C(=O)N1Cc2cc([101O:1][101CH:1]=C3CN(c4ccc([100NH:0][100C:0](=O)N5CCCC(n6nc(-c7ccc(Oc8ccc(F)cc8F)cc7)c(C(N)=O)c6N)C5)c(F)c4)C3=O)ccc2CC1C(=O)NC1CCCc2ccccc21)C(C)(C)C

> <Shape>
0.291

> <Color>
0.088

> <Negative vol penalty>
0.000

$$$$

  -OEChem-04052300233D

 79 87  0     1  0  0  0  0  0999 V2000
  -24.6233  -11.7815   20.2184 C   0  0  0  0  0  0  0  0  0  0  0  0
  -24.1409  -12.9915   19.7298 C   0  0  0  0  0  0  0  0  0  0  0  0
  -25.1099  -30.3339   20.3647 C   0  0  0  0  0  0  0  0  0  0  0  0
  -24.1723  -28.5839   21.7415 C   0  0  0  0  0  0  0  0  0  0  0  0
  -25.5861  -11.7723   21.2267 C   0  0  0  0  0  0  0  0  0  0  0  0
  -24.6204  -14.1931   20.2501 C   0  0  0  0  0  0  0  0  0  0  0  0
  -25.6814  -17.5859   16.6435 C   0  0  0  0  0  0  0  0  0  0  0  0
  -24.7043  -31.2865   21.2993 C   0  0  0  0  0  0  0  0  0  0  0  0
  -23.7668  -29.5366   22.6762 C   0  0  0  0  0  0  0  0  0  0  0  0
  -24.6066  -18.2689   16.0758 C   0  0  0  0  0  0  0  0  0  0  0  0
  -25.1767  -31.3479   25.1564 C   0  0  0  0  0  0  0  0  0  0  0  0
  -25.4148  -31.0744   26.5033 C   0  0  0  0  0  0  0  0  0  0  0  0
  -25.0779  -20.1693   17.4849 C   0  0  0  0  0  0  0  0  0  0  0  0
  -23.0431  -31.1981   26.9475 C   0  0  0  0  0  0  0  0  0  0  0  0
  -24.8438  -28.9826   20.5857 C   0  0  0  0  0  0  0  0  0  0  0  0
  -26.4903  -27.3112   19.5841 C   0  0  0  0  0  0  0  0  0  0  0  0
  -26.0847  -12.9745   21.7529 C   0  0  0  0  0  0  0  0  0  0  0  0
  -26.4570  -18.1864   17.6456 C   0  0  0  0  0  0  0  0  0  0  0  0
  -25.5898  -14.2000   21.2674 C   0  0  0  0  0  0  0  0  0  0  0  0
  -26.1635  -19.4928   18.0619 C   0  0  0  0  0  0  0  0  0  0  0  0
  -24.0328  -30.8879   22.4550 C   0  0  0  0  0  0  0  0  0  0  0  0
  -24.3029  -19.5597   16.4985 C   0  0  0  0  0  0  0  0  0  0  0  0
  -23.8719  -31.5466   24.7051 C   0  0  0  0  0  0  0  0  0  0  0  0
  -24.3480  -30.9995   27.3989 C   0  0  0  0  0  0  0  0  0  0  0  0
  -22.8051  -31.4716   25.6006 C   0  0  0  0  0  0  0  0  0  0  0  0
  -25.2620  -27.9980   19.6203 C   0  0  0  0  0  0  0  0  0  0  0  0
  -26.3949  -26.4951   18.4834 C   0  0  0  0  0  0  0  0  0  0  0  0
  -18.8357  -21.1450   13.2687 C   0  0  0  0  0  0  0  0  0  0  0  0
  -19.0405  -19.8232   13.7849 C   0  0  0  0  0  0  0  0  0  0  0  0
  -19.5124  -22.2647   13.5391 C   0  0  0  0  0  0  0  0  0  0  0  0
  -20.0595  -19.3361   14.4959 C   0  0  0  0  0  0  0  0  0  0  0  0
  -21.3842  -21.5105   15.0147 C   0  0  0  0  0  0  0  0  0  0  0  0
  -20.6433  -22.4562   14.4175 C   0  0  0  0  0  0  0  0  0  0  0  0
  -21.2640  -20.0292   15.0148 C   0  0  0  0  0  0  0  0  0  0  0  0
  -27.6166  -27.4025   20.4664 C   0  0  0  0  0  0  0  0  0  0  0  0
  -27.0893  -17.5273   20.6901 C   0  0  0  0  0  0  0  0  0  0  0  0
  -29.1471  -20.0176   20.3966 C   0  0  0  0  0  0  0  0  0  0  0  0
  -30.0029  -22.8924   18.7687 C   0  0  0  0  0  0  0  0  0  0  0  0
  -21.5848  -24.2326   15.7828 C   0  0  0  0  0  0  0  0  0  0  0  0
  -27.0906  -12.9139   22.8751 C   0  0  0  0  0  0  0  0  0  0  0  0
  -27.6294  -17.4464   18.2289 C   0  0  0  0  0  0  0  0  0  0  0  0
  -26.9777  -20.1898   19.1200 C   0  0  0  0  0  0  0  0  0  0  0  0
  -27.8203  -14.2338   23.1109 C   0  0  0  0  0  0  0  0  0  0  0  0
  -24.3041  -26.1813   14.2121 C   0  0  0  0  0  0  0  0  0  0  0  0
  -26.8307  -15.3944   23.1327 C   0  0  0  0  0  0  0  0  0  0  0  0
  -24.9304  -26.8475   15.4335 C   0  0  0  0  0  0  0  0  0  0  0  0
  -22.7940  -26.0045   14.3662 C   0  0  0  0  0  0  0  0  0  0  0  0
  -23.0318  -25.9462   16.8326 C   0  0  0  0  0  0  0  0  0  0  0  0
  -26.1033  -15.5245   21.7890 C   0  0  1  0  0  0  0  0  0  0  0  0
  -28.0354  -17.9611   19.6064 C   0  0  1  0  0  0  0  0  0  0  0  0
  -24.5573  -26.0879   16.7155 C   0  0  2  0  0  0  0  0  0  0  0  0
  -31.7148  -24.7272   18.7791 C   0  0  0  0  0  0  0  0  0  0  0  0
  -27.8048  -21.2528   22.8424 C   0  0  0  0  0  0  0  0  0  0  0  0
  -28.8698  -23.4364   22.2376 C   0  0  0  0  0  0  0  0  0  0  0  0
  -30.2960  -21.4684   22.7994 C   0  0  0  0  0  0  0  0  0  0  0  0
  -30.8911  -22.2374   16.0225 C   0  0  0  0  0  0  0  0  0  0  0  0
  -29.0540  -21.5109   20.5977 C   0  0  1  0  0  0  0  0  0  0  0  0
  -31.3270  -23.3740   18.2036 C   0  0  2  0  0  0  0  0  0  0  0  0
  -28.9894  -21.9035   22.1007 C   0  0  0  0  0  0  0  0  0  0  0  0
  -24.4463  -27.6489   18.6219 N   0  0  0  0  0  0  0  0  0  0  0  0
  -22.2414  -19.3440   15.5341 N   0  0  0  0  0  0  0  0  0  1  0  0
  -25.1635  -26.7338   17.9480 N   0  0  0  0  0  0  0  0  0  0  0  0
  -28.1101  -19.4223   19.6645 N   0  0  0  0  0  0  0  0  0  0  0  0
  -22.4533  -25.3322   15.6305 N   0  0  0  0  0  0  0  0  0  0  0  0
  -27.2453  -25.6039   17.9310 N   0  0  0  0  0  0  0  0  0  0  0  0
  -27.5478  -28.2913   21.5479 N   0  0  0  0  0  0  0  0  0  0  0  0
  -20.9981  -23.7617   14.6114 N   0  0  0  0  0  0  0  0  0  0  0  0
  -26.9607  -16.1566   20.8093 N   0  0  0  0  0  0  0  0  0  0  0  0
  -30.1816  -22.0910   19.8764 N   0  0  0  0  0  0  0  0  0  0  0  0
  -31.2421  -23.5007   16.7211 N   0  3  0  0  0  0  0  0  0  0  0  0
  -28.6599  -26.7284   20.2913 O   0  0  0  0  0  0  0  0  0  0  0  0
  -26.5194  -18.3735   21.3690 O   0  0  0  0  0  0  0  0  0  0  0  0
  -30.1084  -19.4031   20.8654 O   0  0  0  0  0  0  0  0  0  0  0  0
  -28.9184  -23.1996   18.2787 O   0  0  0  0  0  0  0  0  0  0  0  0
  -21.3494  -23.7225   16.8842 O   0  0  0  0  0  0  0  0  0  0  0  0
  -23.6372  -31.8172   23.3674 O   0  0  0  0  0  0  0  0  0  0  0  0
  -23.2541  -20.2284   15.9466 O   0  0  0  0  0  0  0  0  0  1  0  0
  -24.5766  -30.7353   28.6920 F   0  0  0  0  0  0  0  0  0  0  0  0
  -21.5493  -31.6604   25.1727 F   0  0  0  0  0  0  0  0  0  0  0  0
  1  2  1  0  0  0  0
  1  5  2  0  0  0  0
  2  6  2  0  0  0  0
  3  8  2  0  0  0  0
  3 15  1  0  0  0  0
  4  9  1  0  0  0  0
  4 15  2  0  0  0  0
  5 17  1  0  0  0  0
  6 19  1  0  0  0  0
  7 10  2  0  0  0  0
  7 18  1  0  0  0  0
  8 21  1  0  0  0  0
  9 21  2  0  0  0  0
 10 22  1  0  0  0  0
 11 12  2  0  0  0  0
 11 23  1  0  0  0  0
 12 24  1  0  0  0  0
 13 20  1  0  0  0  0
 13 22  2  0  0  0  0
 14 24  2  0  0  0  0
 14 25  1  0  0  0  0
 15 26  1  0  0  0  0
 16 26  1  0  0  0  0
 16 27  2  0  0  0  0
 16 35  1  0  0  0  0
 17 19  2  0  0  0  0
 17 40  1  0  0  0  0
 18 20  2  0  0  0  0
 18 41  1  0  0  0  0
 19 49  1  0  0  0  0
 20 42  1  0  0  0  0
 21 76  1  0  0  0  0
 22 77  1  0  0  0  0
 23 25  2  0  0  0  0
 23 76  1  0  0  0  0
 24 78  1  0  0  0  0
 25 79  1  0  0  0  0
 26 60  2  0  0  0  0
 27 62  1  0  0  0  0
 27 65  1  0  0  0  0
 28 29  1  0  0  0  0
 28 30  2  0  0  0  0
 29 31  2  0  0  0  0
 30 33  1  0  0  0  0
 31 34  1  0  0  0  0
 32 33  2  0  0  0  0
 32 34  1  0  0  0  0
 33 67  1  0  0  0  0
 34 61  2  0  0  0  0
 35 66  1  0  0  0  0
 35 71  2  0  0  0  0
 36 50  1  0  0  0  0
 36 68  1  0  0  0  0
 36 72  2  0  0  0  0
 37 57  1  0  0  0  0
 37 63  1  0  0  0  0
 37 73  2  0  0  0  0
 38 58  1  0  0  0  0
 38 69  1  0  0  0  0
 38 74  2  0  0  0  0
 39 64  1  0  0  0  0
 39 67  1  0  0  0  0
 39 75  2  0  0  0  0
 40 43  1  0  0  0  0
 41 50  1  0  0  0  0
 42 63  1  0  0  0  0
 43 45  1  0  0  0  0
 44 46  1  0  0  0  0
 44 47  1  0  0  0  0
 45 49  1  0  0  0  0
 46 51  1  0  0  0  0
 47 64  1  0  0  0  0
 48 51  1  0  0  0  0
 48 64  1  0  0  0  0
 49 68  1  0  0  0  0
 50 63  1  0  0  0  0
 51 62  1  0  0  0  0
 52 58  1  0  0  0  0
 53 59  1  0  0  0  0
 54 59  1  0  0  0  0
 55 59  1  0  0  0  0
 56 70  1  0  0  0  0
 57 59  1  0  0  0  0
 57 69  1  0  0  0  0
 58 70  1  0  0  0  0
 60 62  1  0  0  0  0
 61 77  1  0  0  0  0
M  CHG  1  70   1
M  ISO  4  39 100  61 101  67 100  77 101
M  END
> <Batch ID>
0088

> <Smiles>
CNC(C)C(=O)NC(C(=O)N1Cc2cc([101O:1][101NH:1]c3ccccc(=[100N:0][100C:0](=O)N4CCCC(n5nc(-c6ccc(Oc7ccc(F)cc7F)cc6)c(C(N)=O)c5N)C4)c3)ccc2CC1C(=O)NC1CCCc2ccccc21)C(C)(C)C

> <Shape>
0.199

> <Color>
0.081

> <Negative vol penalty>
0.000

$$$$

  -OEChem-04052300233D

 86 95  0     1  0  0  0  0  0999 V2000
  -32.8791  -36.5412   18.7654 C   0  0  0  0  0  0  0  0  0  0  0  0
  -32.7806  -35.1734   18.5311 C   0  0  0  0  0  0  0  0  0  0  0  0
  -23.8254   -9.7787   21.8935 C   0  0  0  0  0  0  0  0  0  0  0  0
  -24.7488  -11.0947   23.6970 C   0  0  0  0  0  0  0  0  0  0  0  0
  -32.3937  -37.0800   19.9562 C   0  0  0  0  0  0  0  0  0  0  0  0
  -32.1977  -34.3434   19.4880 C   0  0  0  0  0  0  0  0  0  0  0  0
  -28.8211  -29.3395   18.4558 C   0  0  0  0  0  0  0  0  0  0  0  0
  -29.1175  -20.3185   19.8555 C   0  0  0  0  0  0  0  0  0  0  0  0
  -28.7023  -19.0072   19.6235 C   0  0  0  0  0  0  0  0  0  0  0  0
  -23.4254   -8.8051   22.8088 C   0  0  0  0  0  0  0  0  0  0  0  0
  -24.3488  -10.1211   24.6123 C   0  0  0  0  0  0  0  0  0  0  0  0
  -29.1309  -27.9803   18.4666 C   0  0  0  0  0  0  0  0  0  0  0  0
  -20.9128   -8.3527   25.0258 C   0  0  0  0  0  0  0  0  0  0  0  0
  -19.6252   -7.8320   24.8971 C   0  0  0  0  0  0  0  0  0  0  0  0
  -28.3388  -27.8241   20.7398 C   0  0  0  0  0  0  0  0  0  0  0  0
  -30.9733  -18.3835   19.0844 C   0  0  0  0  0  0  0  0  0  0  0  0
  -20.5502   -5.6223   24.5829 C   0  0  0  0  0  0  0  0  0  0  0  0
  -24.4871  -10.9235   22.3376 C   0  0  0  0  0  0  0  0  0  0  0  0
  -24.1595  -13.0446   20.9587 C   0  0  0  0  0  0  0  0  0  0  0  0
  -31.7958  -36.2576   20.9241 C   0  0  0  0  0  0  0  0  0  0  0  0
  -28.2770  -29.9547   19.5924 C   0  0  0  0  0  0  0  0  0  0  0  0
  -31.7051  -34.8716   20.6935 C   0  0  0  0  0  0  0  0  0  0  0  0
  -28.0206  -29.1908   20.7400 C   0  0  0  0  0  0  0  0  0  0  0  0
  -30.4606  -20.6623   19.7019 C   0  0  0  0  0  0  0  0  0  0  0  0
  -29.6302  -18.0397   19.2380 C   0  0  0  0  0  0  0  0  0  0  0  0
  -23.6871   -8.9763   24.1682 C   0  0  0  0  0  0  0  0  0  0  0  0
  -28.8925  -27.2229   19.6097 C   0  0  0  0  0  0  0  0  0  0  0  0
  -22.0191   -7.5082   24.9329 C   0  0  0  0  0  0  0  0  0  0  0  0
  -19.4439   -6.4668   24.6757 C   0  0  0  0  0  0  0  0  0  0  0  0
  -31.3885  -19.6948   19.3164 C   0  0  0  0  0  0  0  0  0  0  0  0
  -21.8378   -6.1430   24.7115 C   0  0  0  0  0  0  0  0  0  0  0  0
  -24.9010  -11.9293   21.3926 C   0  0  0  0  0  0  0  0  0  0  0  0
  -24.9886  -13.6832   20.0692 C   0  0  0  0  0  0  0  0  0  0  0  0
  -30.8490  -24.2558   20.0832 C   0  0  0  0  0  0  0  0  0  0  0  0
  -32.1788  -23.8010   20.5121 C   0  0  0  0  0  0  0  0  0  0  0  0
  -30.0272  -23.0840   19.7187 C   0  0  0  0  0  0  0  0  0  0  0  0
  -30.4452  -25.5251   20.0305 C   0  0  0  0  0  0  0  0  0  1  0  0
  -22.8393  -13.4656   21.3268 C   0  0  0  0  0  0  0  0  0  0  0  0
  -29.2073  -32.2849   21.5439 C   0  0  0  0  0  0  0  0  0  0  0  0
  -26.2499  -31.8742   22.8118 C   0  0  0  0  0  0  0  0  0  0  0  0
  -23.5705  -29.8197   23.3087 C   0  0  0  0  0  0  0  0  0  0  0  0
  -29.9994  -15.6271   18.6143 C   0  0  0  0  0  0  0  0  0  0  0  0
  -31.3284  -36.8791   22.2163 C   0  0  0  0  0  0  0  0  0  0  0  0
  -27.9235  -31.4162   19.5556 C   0  0  0  0  0  0  0  0  0  0  0  0
  -27.4191  -29.7991   21.9795 C   0  0  0  0  0  0  0  0  0  0  0  0
  -32.2233  -22.3041   20.4237 C   0  0  0  0  0  0  0  0  0  0  0  0
  -30.3865  -35.9837   23.0171 C   0  0  0  0  0  0  0  0  0  0  0  0
  -29.3446  -12.1873   17.9692 C   0  0  0  0  0  0  0  0  0  0  0  0
  -30.9367  -34.5631   23.0935 C   0  0  0  0  0  0  0  0  0  0  0  0
  -28.0692  -11.9053   18.7666 C   0  0  0  0  0  0  0  0  0  0  0  0
  -30.2686  -13.1583   18.7020 C   0  0  0  0  0  0  0  0  0  0  0  0
  -28.3633  -14.1339   19.9216 C   0  0  0  0  0  0  0  0  0  0  0  0
  -31.0569  -33.9421   21.6966 C   0  0  1  0  0  0  0  0  0  0  0  0
  -27.8509  -32.0485   20.9421 C   0  0  1  0  0  0  0  0  0  0  0  0
  -27.3715  -13.2114   19.1942 C   0  0  2  0  0  0  0  0  0  0  0  0
  -21.3190  -29.7514   24.4148 C   0  0  0  0  0  0  0  0  0  0  0  0
  -27.5976  -31.5426   25.5291 C   0  0  0  0  0  0  0  0  0  0  0  0
  -25.4635  -30.5554   26.3891 C   0  0  0  0  0  0  0  0  0  0  0  0
  -25.5032  -32.9089   25.5632 C   0  0  0  0  0  0  0  0  0  0  0  0
  -22.1888  -29.3687   20.7306 C   0  0  0  0  0  0  0  0  0  0  0  0
  -25.6648  -31.0096   23.9023 C   0  0  1  0  0  0  0  0  0  0  0  0
  -22.0801  -30.0475   23.1319 C   0  0  2  0  0  0  0  0  0  0  0  0
  -26.0704  -31.4927   25.3234 C   0  0  0  0  0  0  0  0  0  0  0  0
  -26.1083  -11.8604   20.8253 N   0  0  0  0  0  0  0  0  0  0  0  0
  -26.1317  -12.9404   20.0258 N   0  0  0  0  0  0  0  0  0  0  0  0
  -30.8724  -21.9726   19.9343 N   0  0  0  0  0  0  0  0  0  0  0  0
  -27.0966  -31.2332   21.8963 N   0  0  0  0  0  0  0  0  0  0  0  0
  -29.5404  -14.3739   19.0721 N   0  0  0  0  0  0  0  0  0  0  0  0
  -24.8441  -14.8020   19.3277 N   0  0  0  0  0  0  0  0  0  0  0  0
  -22.1262  -12.6938   22.2542 N   0  0  0  0  0  0  0  0  0  0  0  0
  -29.2082  -16.7078   19.0023 N   0  0  0  0  0  0  0  0  0  0  0  0
  -29.7597  -33.5100   21.2222 N   0  0  0  0  0  0  0  0  0  0  0  0
  -24.2249  -30.9784   23.6701 N   0  0  0  0  0  0  0  0  0  0  0  0
  -21.5457  -29.1673   22.0546 N   0  3  0  0  0  0  0  0  0  0  0  0
  -33.0931  -24.5193   20.8781 O   0  0  0  0  0  0  0  0  0  0  0  0
  -28.8751  -23.1122   19.3226 O   0  0  0  0  0  0  0  0  0  0  0  0
  -22.3015  -14.4867   20.8351 O   0  0  0  0  0  0  0  0  0  0  0  0
  -29.7143  -31.4205   22.2492 O   0  0  0  0  0  0  0  0  0  0  0  0
  -25.9604  -33.0725   22.7694 O   0  0  0  0  0  0  0  0  0  0  0  0
  -24.1005  -28.7228   23.1464 O   0  0  0  0  0  0  0  0  0  0  0  0
  -31.0040  -15.7309   17.9058 O   0  0  0  0  0  0  0  0  0  0  0  0
  -23.2968   -8.0266   25.0616 O   0  0  0  0  0  0  0  0  0  0  0  0
  -29.1945  -25.8961   19.6233 O   0  0  0  0  0  0  0  0  0  1  0  0
  -18.2073   -5.9667   24.5537 F   0  0  0  0  0  0  0  0  0  0  0  0
  -32.6820  -20.0140   19.1651 F   0  0  0  0  0  0  0  0  0  0  0  0
  -22.8968   -5.3266   24.6225 F   0  0  0  0  0  0  0  0  0  0  0  0
  1  2  1  0  0  0  0
  1  5  2  0  0  0  0
  2  6  2  0  0  0  0
  3 10  2  0  0  0  0
  3 18  1  0  0  0  0
  4 11  1  0  0  0  0
  4 18  2  0  0  0  0
  5 20  1  0  0  0  0
  6 22  1  0  0  0  0
  7 12  2  0  0  0  0
  7 21  1  0  0  0  0
  8  9  2  0  0  0  0
  8 24  1  0  0  0  0
  9 25  1  0  0  0  0
 10 26  1  0  0  0  0
 11 26  2  0  0  0  0
 12 27  1  0  0  0  0
 13 14  2  0  0  0  0
 13 28  1  0  0  0  0
 14 29  1  0  0  0  0
 15 23  1  0  0  0  0
 15 27  2  0  0  0  0
 16 25  2  0  0  0  0
 16 30  1  0  0  0  0
 17 29  2  0  0  0  0
 17 31  1  0  0  0  0
 18 32  1  0  0  0  0
 19 32  1  0  0  0  0
 19 33  2  0  0  0  0
 19 38  1  0  0  0  0
 20 22  2  0  0  0  0
 20 43  1  0  0  0  0
 21 23  2  0  0  0  0
 21 44  1  0  0  0  0
 22 53  1  0  0  0  0
 23 45  1  0  0  0  0
 24 30  2  0  0  0  0
 24 66  1  0  0  0  0
 25 71  1  0  0  0  0
 26 82  1  0  0  0  0
 27 83  1  0  0  0  0
 28 31  2  0  0  0  0
 28 82  1  0  0  0  0
 29 84  1  0  0  0  0
 30 85  1  0  0  0  0
 31 86  1  0  0  0  0
 32 64  2  0  0  0  0
 33 65  1  0  0  0  0
 33 69  1  0  0  0  0
 34 35  1  0  0  0  0
 34 36  1  0  0  0  0
 34 37  2  0  0  0  0
 35 46  1  0  0  0  0
 35 75  2  0  0  0  0
 36 66  1  0  0  0  0
 36 76  2  0  0  0  0
 37 83  1  0  0  0  0
 38 70  1  0  0  0  0
 38 77  2  0  0  0  0
 39 54  1  0  0  0  0
 39 72  1  0  0  0  0
 39 78  2  0  0  0  0
 40 61  1  0  0  0  0
 40 67  1  0  0  0  0
 40 79  2  0  0  0  0
 41 62  1  0  0  0  0
 41 73  1  0  0  0  0
 41 80  2  0  0  0  0
 42 68  1  0  0  0  0
 42 71  1  0  0  0  0
 42 81  2  0  0  0  0
 43 47  1  0  0  0  0
 44 54  1  0  0  0  0
 45 67  1  0  0  0  0
 46 66  1  0  0  0  0
 47 49  1  0  0  0  0
 48 50  1  0  0  0  0
 48 51  1  0  0  0  0
 49 53  1  0  0  0  0
 50 55  1  0  0  0  0
 51 68  1  0  0  0  0
 52 55  1  0  0  0  0
 52 68  1  0  0  0  0
 53 72  1  0  0  0  0
 54 67  1  0  0  0  0
 55 65  1  0  0  0  0
 56 62  1  0  0  0  0
 57 63  1  0  0  0  0
 58 63  1  0  0  0  0
 59 63  1  0  0  0  0
 60 74  1  0  0  0  0
 61 63  1  0  0  0  0
 61 73  1  0  0  0  0
 62 74  1  0  0  0  0
 64 65  1  0  0  0  0
M  CHG  1  74   1
M  ISO  4  37 101  42 100  71 100  83 101
M  END
> <Batch ID>
0088

> <Smiles>
CNC(C)C(=O)NC(C(=O)N1Cc2cc([101O:1][101CH:1]=C3C(=O)CN(c4ccc([100NH:0][100C:0](=O)N5CCCC(n6nc(-c7ccc(Oc8ccc(F)cc8F)cc7)c(C(N)=O)c6N)C5)cc4F)C3=O)ccc2CC1C(=O)NC1CCCc2ccccc21)C(C)(C)C

> <Shape>
0.288

> <Color>
0.162

> <Negative vol penalty>
0.000

$$$$

  -OEChem-04052300233D

 89 98  0     1  0  0  0  0  0999 V2000
  -17.0449  -26.8929   22.3355 C   0  0  0  0  0  0  0  0  0  0  0  0
  -18.2660  -26.2746   22.5841 C   0  0  0  0  0  0  0  0  0  0  0  0
  -24.2497   -9.5700   21.6226 C   0  0  0  0  0  0  0  0  0  0  0  0
  -24.7095  -10.7960   23.6531 C   0  0  0  0  0  0  0  0  0  0  0  0
  -17.0120  -28.1620   21.7590 C   0  0  0  0  0  0  0  0  0  0  0  0
  -19.4551  -26.9245   22.2552 C   0  0  0  0  0  0  0  0  0  0  0  0
  -24.7677  -26.6383   25.2884 C   0  0  0  0  0  0  0  0  0  0  0  0
  -23.8465   -8.4692   22.3785 C   0  0  0  0  0  0  0  0  0  0  0  0
  -24.3062   -9.6952   24.4090 C   0  0  0  0  0  0  0  0  0  0  0  0
  -25.9258  -25.8896   25.0832 C   0  0  0  0  0  0  0  0  0  0  0  0
  -21.1081   -7.5068   24.1128 C   0  0  0  0  0  0  0  0  0  0  0  0
  -19.9341   -6.8556   23.7345 C   0  0  0  0  0  0  0  0  0  0  0  0
  -28.5283  -20.9735   20.7629 C   0  0  0  0  0  0  0  0  0  0  0  0
  -26.9100  -27.7474   23.9004 C   0  0  0  0  0  0  0  0  0  0  0  0
  -30.6480  -20.3214   21.7214 C   0  0  0  0  0  0  0  0  0  0  0  0
  -21.1768   -4.8114   23.3968 C   0  0  0  0  0  0  0  0  0  0  0  0
  -24.6813  -10.7333   22.2599 C   0  0  0  0  0  0  0  0  0  0  0  0
  -28.3094  -19.6585   20.3525 C   0  0  0  0  0  0  0  0  0  0  0  0
  -24.2919  -12.9300   21.0227 C   0  0  0  0  0  0  0  0  0  0  0  0
  -18.2015  -28.8318   21.4317 C   0  0  0  0  0  0  0  0  0  0  0  0
  -24.6678  -27.9455   24.7908 C   0  0  0  0  0  0  0  0  0  0  0  0
  -19.4381  -28.2031   21.6725 C   0  0  0  0  0  0  0  0  0  0  0  0
  -25.7505  -28.5115   24.1028 C   0  0  0  0  0  0  0  0  0  0  0  0
  -29.6976  -21.3050   21.4474 C   0  0  0  0  0  0  0  0  0  0  0  0
  -29.2597  -18.6750   20.6265 C   0  0  0  0  0  0  0  0  0  0  0  0
  -23.8748   -8.5318   23.7717 C   0  0  0  0  0  0  0  0  0  0  0  0
  -26.9961  -26.4431   24.3866 C   0  0  0  0  0  0  0  0  0  0  0  0
  -22.3166   -6.8103   24.1331 C   0  0  0  0  0  0  0  0  0  0  0  0
  -19.9684   -5.5079   23.3765 C   0  0  0  0  0  0  0  0  0  0  0  0
  -30.4291  -19.0064   21.3110 C   0  0  0  0  0  0  0  0  0  0  0  0
  -22.3508   -5.4626   23.7751 C   0  0  0  0  0  0  0  0  0  0  0  0
  -25.0984  -11.8705   21.4796 C   0  0  0  0  0  0  0  0  0  0  0  0
  -25.1555  -13.7470   20.3348 C   0  0  0  0  0  0  0  0  0  0  0  0
  -30.9196  -24.5905   22.4350 C   0  0  0  0  0  0  0  0  0  0  0  0
  -29.6076  -24.7736   22.5686 C   0  0  0  0  0  0  0  0  0  0  0  0
  -31.1548  -23.2105   21.9872 C   0  0  0  0  0  0  0  0  0  0  0  0
  -28.9271  -23.5189   22.1935 C   0  0  0  0  0  0  0  0  0  0  0  0
  -27.0771  -19.3454   19.6395 C   0  0  0  0  0  0  0  0  0  0  0  0
  -22.8876  -13.1555   21.2040 C   0  0  0  0  0  0  0  0  0  0  0  0
  -22.7762  -29.4106   22.6981 C   0  0  0  0  0  0  0  0  0  0  0  0
  -24.3658  -32.0541   23.7017 C   0  0  0  0  0  0  0  0  0  0  0  0
  -27.1751  -33.3853   25.1097 C   0  0  0  0  0  0  0  0  0  0  0  0
  -30.0312  -16.3968   19.8775 C   0  0  0  0  0  0  0  0  0  0  0  0
  -18.1145  -30.1827   20.7667 C   0  0  0  0  0  0  0  0  0  0  0  0
  -23.4219  -28.7494   25.0437 C   0  0  0  0  0  0  0  0  0  0  0  0
  -25.7013  -29.9178   23.5659 C   0  0  0  0  0  0  0  0  0  0  0  0
  -19.4281  -30.9600   20.7925 C   0  0  0  0  0  0  0  0  0  0  0  0
  -29.9368  -12.9868   18.8575 C   0  0  0  0  0  0  0  0  0  0  0  0
  -20.5889  -30.0605   20.3797 C   0  0  0  0  0  0  0  0  0  0  0  0
  -28.6033  -12.4796   19.4112 C   0  0  0  0  0  0  0  0  0  0  0  0
  -30.6043  -13.9798   19.8073 C   0  0  0  0  0  0  0  0  0  0  0  0
  -28.4253  -14.5994   20.7755 C   0  0  0  0  0  0  0  0  0  0  0  0
  -20.7500  -28.8862   21.3526 C   0  0  1  0  0  0  0  0  0  0  0  0
  -23.2334  -29.8889   24.0471 C   0  0  1  0  0  0  0  0  0  0  0  0
  -27.6843  -13.6460   19.8240 C   0  0  2  0  0  0  0  0  0  0  0  0
  -25.8661  -20.1699   19.9596 C   0  0  0  0  0  0  0  0  0  0  0  0
  -28.1988  -35.5803   25.7666 C   0  0  0  0  0  0  0  0  0  0  0  0
  -24.9968  -32.6335   20.7732 C   0  0  0  0  0  0  0  0  0  0  0  0
  -26.7628  -34.2328   21.5424 C   0  0  0  0  0  0  0  0  0  0  0  0
  -24.3719  -34.6438   22.1232 C   0  0  0  0  0  0  0  0  0  0  0  0
  -27.3093  -32.6018   27.9605 C   0  0  0  0  0  0  0  0  0  0  0  0
  -28.8756  -25.9914   23.0013 C   0  0  0  0  0  0  0  0  0  1  0  0
  -25.6229  -32.7723   23.2741 C   0  0  1  0  0  0  0  0  0  0  0  0
  -27.3597  -34.3979   26.2255 C   0  0  2  0  0  0  0  0  0  0  0  0
  -25.4391  -33.5434   21.9366 C   0  0  0  0  0  0  0  0  0  0  0  0
  -26.3762  -11.9999   21.1127 N   0  0  0  0  0  0  0  0  0  0  0  0
  -26.3791  -13.1503   20.4180 N   0  0  0  0  0  0  0  0  0  0  0  0
  -29.9164  -22.6156   21.8565 N   0  0  0  0  0  0  0  0  0  0  0  0
  -24.4590  -30.6613   23.8334 N   0  0  0  0  0  0  0  0  0  0  0  0
  -29.6759  -15.0590   20.1513 N   0  0  0  0  0  0  0  0  0  0  0  0
  -24.9799  -14.9104   19.6730 N   0  0  0  0  0  0  0  0  0  0  0  0
  -22.1493  -12.2166   21.9372 N   0  0  0  0  0  0  0  0  0  0  0  0
  -29.0560  -17.3336   20.2180 N   0  0  0  0  0  0  0  0  0  0  0  0
  -21.4033  -29.3228   22.5679 N   0  0  0  0  0  0  0  0  0  0  0  0
  -26.0154  -33.6135   24.3997 N   0  0  0  0  0  0  0  0  0  0  0  0
  -28.0376  -33.7653   27.3922 N   0  3  0  0  0  0  0  0  0  0  0  0
  -32.2640  -22.7433   21.7861 O   0  0  0  0  0  0  0  0  0  0  0  0
  -27.7162  -23.3648   22.2010 O   0  0  0  0  0  0  0  0  0  0  0  0
  -26.9577  -18.4531   18.8001 O   0  0  0  0  0  0  0  0  0  0  0  0
  -22.3017  -14.1515   20.7159 O   0  0  0  0  0  0  0  0  0  0  0  0
  -23.6074  -29.1424   21.8385 O   0  0  0  0  0  0  0  0  0  0  0  0
  -23.3410  -32.7056   23.9180 O   0  0  0  0  0  0  0  0  0  0  0  0
  -27.9812  -32.4845   24.8877 O   0  0  0  0  0  0  0  0  0  0  0  0
  -31.1092  -16.6875   19.3528 O   0  0  0  0  0  0  0  0  0  0  0  0
  -23.4812   -7.4580   24.5096 O   0  0  0  0  0  0  0  0  0  0  0  0
  -28.1274  -25.7143   24.1843 O   0  0  0  0  0  0  0  0  0  1  0  0
  -18.8406   -4.8823   23.0147 F   0  0  0  0  0  0  0  0  0  0  0  0
  -31.3501  -18.0700   21.5802 F   0  0  0  0  0  0  0  0  0  0  0  0
  -23.5086   -4.7879   23.7937 F   0  0  0  0  0  0  0  0  0  0  0  0
  1  2  1  0  0  0  0
  1  5  2  0  0  0  0
  2  6  2  0  0  0  0
  3  8  2  0  0  0  0
  3 17  1  0  0  0  0
  4  9  1  0  0  0  0
  4 17  2  0  0  0  0
  5 20  1  0  0  0  0
  6 22  1  0  0  0  0
  7 10  2  0  0  0  0
  7 21  1  0  0  0  0
  8 26  1  0  0  0  0
  9 26  2  0  0  0  0
 10 27  1  0  0  0  0
 11 12  2  0  0  0  0
 11 28  1  0  0  0  0
 12 29  1  0  0  0  0
 13 18  1  0  0  0  0
 13 24  2  0  0  0  0
 14 23  1  0  0  0  0
 14 27  2  0  0  0  0
 15 24  1  0  0  0  0
 15 30  2  0  0  0  0
 16 29  2  0  0  0  0
 16 31  1  0  0  0  0
 17 32  1  0  0  0  0
 18 25  2  0  0  0  0
 18 38  1  0  0  0  0
 19 32  1  0  0  0  0
 19 33  2  0  0  0  0
 19 39  1  0  0  0  0
 20 22  2  0  0  0  0
 20 44  1  0  0  0  0
 21 23  2  0  0  0  0
 21 45  1  0  0  0  0
 22 53  1  0  0  0  0
 23 46  1  0  0  0  0
 24 68  1  0  0  0  0
 25 30  1  0  0  0  0
 25 73  1  0  0  0  0
 26 85  1  0  0  0  0
 27 86  1  0  0  0  0
 28 31  2  0  0  0  0
 28 85  1  0  0  0  0
 29 87  1  0  0  0  0
 30 88  1  0  0  0  0
 31 89  1  0  0  0  0
 32 66  2  0  0  0  0
 33 67  1  0  0  0  0
 33 71  1  0  0  0  0
 34 35  2  0  0  0  0
 34 36  1  0  0  0  0
 35 37  1  0  0  0  0
 35 62  1  0  0  0  0
 36 68  1  0  0  0  0
 36 77  2  0  0  0  0
 37 68  1  0  0  0  0
 37 78  2  0  0  0  0
 38 56  1  0  0  0  0
 38 79  2  0  0  0  0
 39 72  1  0  0  0  0
 39 80  2  0  0  0  0
 40 54  1  0  0  0  0
 40 74  1  0  0  0  0
 40 81  2  0  0  0  0
 41 63  1  0  0  0  0
 41 69  1  0  0  0  0
 41 82  2  0  0  0  0
 42 64  1  0  0  0  0
 42 75  1  0  0  0  0
 42 83  2  0  0  0  0
 43 70  1  0  0  0  0
 43 73  1  0  0  0  0
 43 84  2  0  0  0  0
 44 47  1  0  0  0  0
 45 54  1  0  0  0  0
 46 69  1  0  0  0  0
 47 49  1  0  0  0  0
 48 50  1  0  0  0  0
 48 51  1  0  0  0  0
 49 53  1  0  0  0  0
 50 55  1  0  0  0  0
 51 70  1  0  0  0  0
 52 55  1  0  0  0  0
 52 70  1  0  0  0  0
 53 74  1  0  0  0  0
 54 69  1  0  0  0  0
 55 67  1  0  0  0  0
 57 64  1  0  0  0  0
 58 65  1  0  0  0  0
 59 65  1  0  0  0  0
 60 65  1  0  0  0  0
 61 76  1  0  0  0  0
 62 86  1  0  0  0  0
 63 65  1  0  0  0  0
 63 75  1  0  0  0  0
 64 76  1  0  0  0  0
 66 67  1  0  0  0  0
M  CHG  1  76   1
M  ISO  4  43 100  62 101  73 100  86 101
M  END
> <Batch ID>
0088

> <Smiles>
CNC(C)C(=O)NC(C(=O)N1Cc2cc([101O:1][101CH2:1]C3=CC(=O)N(c4cc(F)c([100NH:0][100C:0](=O)N5CCCC(n6nc(-c7ccc(Oc8ccc(F)cc8F)cc7)c(C(N)=O)c6N)C5)c(C(C)=O)c4)C3=O)ccc2CC1C(=O)NC1CCCc2ccccc21)C(C)(C)C

> <Shape>
0.310

> <Color>
0.146

> <Negative vol penalty>
0.000

$$$$

  -OEChem-04052300233D

 86 95  0     1  0  0  0  0  0999 V2000
  -26.9314  -37.9353   21.7221 C   0  0  0  0  0  0  0  0  0  0  0  0
  -27.1825  -36.5676   21.7643 C   0  0  0  0  0  0  0  0  0  0  0  0
  -24.6323   -8.8007   21.9493 C   0  0  0  0  0  0  0  0  0  0  0  0
  -23.2471   -9.5118   20.1019 C   0  0  0  0  0  0  0  0  0  0  0  0
  -25.8120  -38.4577   22.3686 C   0  0  0  0  0  0  0  0  0  0  0  0
  -26.3147  -35.7215   22.4540 C   0  0  0  0  0  0  0  0  0  0  0  0
  -25.2130  -31.5231   19.8456 C   0  0  0  0  0  0  0  0  0  0  0  0
  -23.5325   -8.1705   22.5314 C   0  0  0  0  0  0  0  0  0  0  0  0
  -22.1473   -8.8815   20.6840 C   0  0  0  0  0  0  0  0  0  0  0  0
  -26.1738  -30.5129   19.8296 C   0  0  0  0  0  0  0  0  0  0  0  0
  -21.8107   -5.2886   22.1271 C   0  0  0  0  0  0  0  0  0  0  0  0
  -21.9943   -4.0024   22.6346 C   0  0  0  0  0  0  0  0  0  0  0  0
  -24.9485  -29.3290   21.5374 C   0  0  0  0  0  0  0  0  0  0  0  0
  -21.3544   -4.7779   24.8315 C   0  0  0  0  0  0  0  0  0  0  0  0
  -28.7456  -20.2696   19.8091 C   0  0  0  0  0  0  0  0  0  0  0  0
  -24.4896   -9.4714   20.7346 C   0  0  0  0  0  0  0  0  0  0  0  0
  -26.5455   -9.5627   19.2270 C   0  0  0  0  0  0  0  0  0  0  0  0
  -24.9248  -37.6164   23.0584 C   0  0  0  0  0  0  0  0  0  0  0  0
  -24.1167  -31.4490   20.7168 C   0  0  0  0  0  0  0  0  0  0  0  0
  -25.1831  -36.2333   23.1115 C   0  0  0  0  0  0  0  0  0  0  0  0
  -23.9739  -30.3383   21.5606 C   0  0  0  0  0  0  0  0  0  0  0  0
  -22.2900   -8.2109   21.8988 C   0  0  0  0  0  0  0  0  0  0  0  0
  -26.0431  -29.4170   20.6777 C   0  0  0  0  0  0  0  0  0  0  0  0
  -21.3991   -6.3195   22.9719 C   0  0  0  0  0  0  0  0  0  0  0  0
  -21.7661   -3.7470   23.9868 C   0  0  0  0  0  0  0  0  0  0  0  0
  -21.1709   -6.0641   24.3240 C   0  0  0  0  0  0  0  0  0  0  0  0
  -29.1391  -21.5997   20.1349 C   0  0  0  0  0  0  0  0  0  0  0  0
  -25.6252  -10.1231   20.1330 C   0  0  0  0  0  0  0  0  0  0  0  0
  -27.4312  -20.2037   19.4023 C   0  0  0  0  0  0  0  0  0  0  0  0
  -27.4261  -10.5818   18.9578 C   0  0  0  0  0  0  0  0  0  0  0  0
  -28.1103  -22.4999   19.9645 C   0  0  0  0  0  0  0  0  0  0  0  0
  -27.4067  -26.1194   20.3071 C   0  0  0  0  0  0  0  0  0  0  0  0
  -26.9540  -24.7451   19.9636 C   0  0  0  0  0  0  0  0  0  0  0  0
  -26.5750  -27.1630   20.3503 C   0  0  0  0  0  0  0  0  0  1  0  0
  -26.5994   -8.2394   18.6778 C   0  0  0  0  0  0  0  0  0  0  0  0
  -26.7467  -18.9569   19.0010 C   0  0  0  0  0  0  0  0  0  0  0  0
  -23.0443  -33.2203   23.1284 C   0  0  0  0  0  0  0  0  0  0  0  0
  -20.5313  -31.1730   23.0030 C   0  0  0  0  0  0  0  0  0  0  0  0
  -19.3370  -28.1033   22.1101 C   0  0  0  0  0  0  0  0  0  0  0  0
  -26.6005  -16.4945   19.3041 C   0  0  0  0  0  0  0  0  0  0  0  0
  -23.7539  -38.2330   23.7818 C   0  0  0  0  0  0  0  0  0  0  0  0
  -23.0750  -32.5339   20.7028 C   0  0  0  0  0  0  0  0  0  0  0  0
  -22.8048  -30.2013   22.5002 C   0  0  0  0  0  0  0  0  0  0  0  0
  -28.8656  -26.1231   20.6033 C   0  0  0  0  0  0  0  0  0  0  0  0
  -22.6799  -37.2220   24.1752 C   0  0  0  0  0  0  0  0  0  0  0  0
  -29.3228  -14.5128   20.8598 C   0  0  0  0  0  0  0  0  0  0  0  0
  -23.3145  -35.9901   24.8129 C   0  0  0  0  0  0  0  0  0  0  0  0
  -28.7113  -13.1164   20.8312 C   0  0  0  0  0  0  0  0  0  0  0  0
  -29.2017  -24.6443   20.7031 C   0  0  0  0  0  0  0  0  0  0  0  0
  -28.2649  -15.6036   21.0221 C   0  0  0  0  0  0  0  0  0  0  0  0
  -26.5668  -14.1257   19.9694 C   0  0  0  0  0  0  0  0  0  0  0  0
  -24.2517  -35.2802   23.8285 C   0  0  1  0  0  0  0  0  0  0  0  0
  -22.2700  -32.6061   21.9967 C   0  0  1  0  0  0  0  0  0  0  0  0
  -27.6213  -13.0308   19.7533 C   0  0  2  0  0  0  0  0  0  0  0  0
  -17.2528  -26.7069   22.1695 C   0  0  0  0  0  0  0  0  0  0  0  0
  -20.9678  -30.6525   25.9776 C   0  0  0  0  0  0  0  0  0  0  0  0
  -19.5355  -28.6106   25.7593 C   0  0  0  0  0  0  0  0  0  0  0  0
  -18.5709  -30.8640   25.2963 C   0  0  0  0  0  0  0  0  0  0  0  0
  -19.2452  -27.9070   19.1585 C   0  0  0  0  0  0  0  0  0  0  0  0
  -20.1974  -29.8495   23.6479 C   0  0  1  0  0  0  0  0  0  0  0  0
  -18.0843  -27.6892   21.3593 C   0  0  2  0  0  0  0  0  0  0  0  0
  -19.8411  -29.9974   25.1541 C   0  0  0  0  0  0  0  0  0  0  0  0
  -25.8962  -11.3991   20.4203 N   0  0  0  0  0  0  0  0  0  0  0  0
  -26.9967  -11.6489   19.6907 N   0  0  0  0  0  0  0  0  0  0  0  0
  -28.0629  -23.9140   20.1688 N   0  0  0  0  0  0  0  0  0  0  0  0
  -21.8160  -31.2912   22.4540 N   0  0  0  0  0  0  0  0  0  0  0  0
  -27.1702  -15.4601   20.0525 N   0  0  0  0  0  0  0  0  0  0  0  0
  -28.5182  -10.6601   18.1682 N   0  0  0  0  0  0  0  0  0  0  0  0
  -25.6164   -7.3166   19.0606 N   0  0  0  0  0  0  0  0  0  0  0  0
  -27.1469  -17.8082   19.5680 N   0  0  0  0  0  0  0  0  0  0  0  0
  -23.4888  -34.5039   22.8747 N   0  0  0  0  0  0  0  0  0  0  0  0
  -19.1380  -29.2569   22.8386 N   0  0  0  0  0  0  0  0  0  0  0  0
  -25.7750  -19.0514   18.0937 N   0  3  0  0  0  0  0  0  0  0  0  0
  -18.4453  -27.0440   20.0654 N   0  3  0  0  0  0  0  0  0  0  0  0
  -25.8209  -24.4864   19.5933 O   0  0  0  0  0  0  0  0  0  0  0  0
  -27.5022   -7.8810   17.8842 O   0  0  0  0  0  0  0  0  0  0  0  0
  -23.2239  -32.5779   24.1564 O   0  0  0  0  0  0  0  0  0  0  0  0
  -19.6811  -32.0665   22.9807 O   0  0  0  0  0  0  0  0  0  0  0  0
  -20.3861  -27.4650   22.0586 O   0  0  0  0  0  0  0  0  0  0  0  0
  -25.6868  -16.3705   18.4957 O   0  0  0  0  0  0  0  0  0  0  0  0
  -21.2166   -7.5958   22.4664 O   0  0  0  0  0  0  0  0  0  0  0  0
  -26.9798  -28.4299   20.6646 O   0  0  0  0  0  0  0  0  0  1  0  0
  -21.9408   -2.5115   24.4737 F   0  0  0  0  0  0  0  0  0  0  0  0
  -20.7742   -7.0502   25.1402 F   0  0  0  0  0  0  0  0  0  0  0  0
  -30.3621  -21.9302   20.5551 F   0  0  0  0  0  0  0  0  0  0  0  0
  -26.6772  -21.7412   19.4142 S   0  0  0  0  0  0  0  0  0  0  0  0
  1  2  1  0  0  0  0
  1  5  2  0  0  0  0
  2  6  2  0  0  0  0
  3  8  2  0  0  0  0
  3 16  1  0  0  0  0
  4  9  1  0  0  0  0
  4 16  2  0  0  0  0
  5 18  1  0  0  0  0
  6 20  1  0  0  0  0
  7 10  2  0  0  0  0
  7 19  1  0  0  0  0
  8 22  1  0  0  0  0
  9 22  2  0  0  0  0
 10 23  1  0  0  0  0
 11 12  2  0  0  0  0
 11 24  1  0  0  0  0
 12 25  1  0  0  0  0
 13 21  1  0  0  0  0
 13 23  2  0  0  0  0
 14 25  2  0  0  0  0
 14 26  1  0  0  0  0
 15 27  1  0  0  0  0
 15 29  2  0  0  0  0
 16 28  1  0  0  0  0
 17 28  1  0  0  0  0
 17 30  2  0  0  0  0
 17 35  1  0  0  0  0
 18 20  2  0  0  0  0
 18 41  1  0  0  0  0
 19 21  2  0  0  0  0
 19 42  1  0  0  0  0
 20 52  1  0  0  0  0
 21 43  1  0  0  0  0
 22 81  1  0  0  0  0
 23 82  1  0  0  0  0
 24 26  2  0  0  0  0
 24 81  1  0  0  0  0
 25 83  1  0  0  0  0
 26 84  1  0  0  0  0
 27 31  2  0  0  0  0
 27 85  1  0  0  0  0
 28 63  2  0  0  0  0
 29 36  1  0  0  0  0
 29 86  1  0  0  0  0
 30 64  1  0  0  0  0
 30 68  1  0  0  0  0
 31 65  1  0  0  0  0
 31 86  1  0  0  0  0
 32 33  1  0  0  0  0
 32 34  2  0  0  0  0
 32 44  1  0  0  0  0
 33 65  1  0  0  0  0
 33 75  2  0  0  0  0
 34 82  1  0  0  0  0
 35 69  1  0  0  0  0
 35 76  2  0  0  0  0
 36 70  1  0  0  0  0
 36 73  2  0  0  0  0
 37 53  1  0  0  0  0
 37 71  1  0  0  0  0
 37 77  2  0  0  0  0
 38 60  1  0  0  0  0
 38 66  1  0  0  0  0
 38 78  2  0  0  0  0
 39 61  1  0  0  0  0
 39 72  1  0  0  0  0
 39 79  2  0  0  0  0
 40 67  1  0  0  0  0
 40 70  1  0  0  0  0
 40 80  2  0  0  0  0
 41 45  1  0  0  0  0
 42 53  1  0  0  0  0
 43 66  1  0  0  0  0
 44 49  1  0  0  0  0
 45 47  1  0  0  0  0
 46 48  1  0  0  0  0
 46 50  1  0  0  0  0
 47 52  1  0  0  0  0
 48 54  1  0  0  0  0
 49 65  1  0  0  0  0
 50 67  1  0  0  0  0
 51 54  1  0  0  0  0
 51 67  1  0  0  0  0
 52 71  1  0  0  0  0
 53 66  1  0  0  0  0
 54 64  1  0  0  0  0
 55 61  1  0  0  0  0
 56 62  1  0  0  0  0
 57 62  1  0  0  0  0
 58 62  1  0  0  0  0
 59 74  1  0  0  0  0
 60 62  1  0  0  0  0
 60 72  1  0  0  0  0
 61 74  1  0  0  0  0
 63 64  1  0  0  0  0
M  CHG  2  73   1  74   1
M  ISO  4  34 101  40 100  70 100  82 101
M  END
> <Batch ID>
0088

> <Smiles>
CNC(C)C(=O)NC(C(=O)N1Cc2cc([101O:1][101CH:1]=C3CCN(c4sc(C(=N)[100NH:0][100C:0](=O)N5CCCC(n6nc(-c7ccc(Oc8ccc(F)cc8F)cc7)c(C(N)=O)c6N)C5)cc4F)C3=O)ccc2CC1C(=O)NC1CCCc2ccccc21)C(C)(C)C

> <Shape>
0.328

> <Color>
0.081

> <Negative vol penalty>
0.000

$$$$

  -OEChem-04052300233D

 88 97  0     1  0  0  0  0  0999 V2000
  -22.8402  -12.6508   17.7365 C   0  0  0  0  0  0  0  0  0  0  0  0
  -23.0495  -14.0228   17.8318 C   0  0  0  0  0  0  0  0  0  0  0  0
  -21.2782  -24.0942   21.7386 C   0  0  0  0  0  0  0  0  0  0  0  0
  -19.9223  -24.8451   19.8854 C   0  0  0  0  0  0  0  0  0  0  0  0
  -23.4756  -11.7863   18.6269 C   0  0  0  0  0  0  0  0  0  0  0  0
  -23.8937  -14.5313   18.8183 C   0  0  0  0  0  0  0  0  0  0  0  0
  -27.5688  -19.4090   18.3632 C   0  0  0  0  0  0  0  0  0  0  0  0
  -20.2681  -23.2110   22.1199 C   0  0  0  0  0  0  0  0  0  0  0  0
  -18.9122  -23.9619   20.2665 C   0  0  0  0  0  0  0  0  0  0  0  0
  -27.4251  -20.7334   18.7746 C   0  0  0  0  0  0  0  0  0  0  0  0
  -16.1222  -21.6469   20.5400 C   0  0  0  0  0  0  0  0  0  0  0  0
  -15.5111  -20.8892   19.5410 C   0  0  0  0  0  0  0  0  0  0  0  0
  -28.6433  -20.2315   20.7953 C   0  0  0  0  0  0  0  0  0  0  0  0
  -25.9486  -27.4335   22.0384 C   0  0  0  0  0  0  0  0  0  0  0  0
  -27.2123  -29.6023   23.2559 C   0  0  0  0  0  0  0  0  0  0  0  0
  -17.6442  -19.8988   18.9874 C   0  0  0  0  0  0  0  0  0  0  0  0
  -21.1053  -24.9112   20.6214 C   0  0  0  0  0  0  0  0  0  0  0  0
  -23.2135  -25.5675   19.3437 C   0  0  0  0  0  0  0  0  0  0  0  0
  -24.3355  -12.2837   19.6188 C   0  0  0  0  0  0  0  0  0  0  0  0
  -28.2425  -18.4818   19.1712 C   0  0  0  0  0  0  0  0  0  0  0  0
  -24.5402  -13.6728   19.7237 C   0  0  0  0  0  0  0  0  0  0  0  0
  -28.7964  -18.8966   20.3907 C   0  0  0  0  0  0  0  0  0  0  0  0
  -27.3350  -27.5661   21.9612 C   0  0  0  0  0  0  0  0  0  0  0  0
  -25.1940  -28.3853   22.7243 C   0  0  0  0  0  0  0  0  0  0  0  0
  -25.8259  -29.4697   23.3330 C   0  0  0  0  0  0  0  0  0  0  0  0
  -19.0851  -23.1449   21.3838 C   0  0  0  0  0  0  0  0  0  0  0  0
  -27.9598  -21.1441   19.9921 C   0  0  0  0  0  0  0  0  0  0  0  0
  -17.4943  -21.5306   20.7627 C   0  0  0  0  0  0  0  0  0  0  0  0
  -16.2721  -20.0151   18.7647 C   0  0  0  0  0  0  0  0  0  0  0  0
  -27.9669  -28.6504   22.5700 C   0  0  0  0  0  0  0  0  0  0  0  0
  -18.2552  -20.6566   19.9864 C   0  0  0  0  0  0  0  0  0  0  0  0
  -22.1481  -25.8241   20.2274 C   0  0  0  0  0  0  0  0  0  0  0  0
  -23.9183  -26.7457   19.3043 C   0  0  0  0  0  0  0  0  0  0  0  0
  -28.7550  -24.6191   20.3776 C   0  0  0  0  0  0  0  0  0  0  0  0
  -29.7668  -25.6227   20.0197 C   0  0  0  0  0  0  0  0  0  0  0  0
  -27.6912  -25.2622   21.1751 C   0  0  0  0  0  0  0  0  0  0  0  0
  -28.7892  -23.3306   20.0373 C   0  0  0  0  0  0  0  0  0  1  0  0
  -23.5370  -24.3711   18.6229 C   0  0  0  0  0  0  0  0  0  0  0  0
  -27.4341  -15.7803   20.6382 C   0  0  0  0  0  0  0  0  0  0  0  0
  -30.6045  -15.6549   21.3129 C   0  0  0  0  0  0  0  0  0  0  0  0
  -33.5478  -17.3327   21.7233 C   0  0  0  0  0  0  0  0  0  0  0  0
  -24.0648  -31.2521   23.4450 C   0  0  0  0  0  0  0  0  0  0  0  0
  -24.9630  -11.3139   20.5885 C   0  0  0  0  0  0  0  0  0  0  0  0
  -28.4121  -17.0633   18.7008 C   0  0  0  0  0  0  0  0  0  0  0  0
  -29.5463  -17.9451   21.2855 C   0  0  0  0  0  0  0  0  0  0  0  0
  -29.3538  -26.9444   20.5968 C   0  0  0  0  0  0  0  0  0  0  0  0
  -26.1355  -11.9044   21.3676 C   0  0  0  0  0  0  0  0  0  0  0  0
  -23.3935  -31.4695   19.8125 C   0  0  0  0  0  0  0  0  0  0  0  0
  -25.7766  -13.2853   21.9070 C   0  0  0  0  0  0  0  0  0  0  0  0
  -23.0064  -30.0363   19.4526 C   0  0  0  0  0  0  0  0  0  0  0  0
  -23.0449  -31.8039   21.2596 C   0  0  0  0  0  0  0  0  0  0  0  0
  -23.2468  -29.4157   21.8895 C   0  0  0  0  0  0  0  0  0  0  0  0
  -25.4680  -14.2607   20.7647 C   0  0  1  0  0  0  0  0  0  0  0  0
  -28.6710  -16.0827   19.8405 C   0  0  1  0  0  0  0  0  0  0  0  0
  -23.6245  -29.0412   20.4485 C   0  0  1  0  0  0  0  0  0  0  0  0
  -35.9599  -16.9647   22.3099 C   0  0  0  0  0  0  0  0  0  0  0  0
  -29.8394  -15.3376   24.2496 C   0  0  0  0  0  0  0  0  0  0  0  0
  -32.1962  -15.9263   24.8552 C   0  0  0  0  0  0  0  0  0  0  0  0
  -31.7313  -13.8832   23.5015 C   0  0  0  0  0  0  0  0  0  0  0  0
  -25.5332  -30.8616   25.3745 C   0  0  0  0  0  0  0  0  0  0  0  0
  -34.4624  -18.3641   19.1043 C   0  0  0  0  0  0  0  0  0  0  0  0
  -31.4798  -16.1612   22.4339 C   0  0  1  0  0  0  0  0  0  0  0  0
  -34.9421  -17.0675   21.1846 C   0  0  2  0  0  0  0  0  0  0  0  0
  -31.2959  -15.3448   23.7443 C   0  0  0  0  0  0  0  0  0  0  0  0
  -22.1703  -27.0677   20.7144 N   0  0  0  0  0  0  0  0  0  0  0  0
  -23.2582  -27.6029   20.1348 N   0  0  0  0  0  0  0  0  0  0  0  0
  -28.0863  -26.6150   21.2746 N   0  0  0  0  0  0  0  0  0  0  0  0
  -29.6801  -16.5671   20.7846 N   0  0  0  0  0  0  0  0  0  0  0  0
  -23.5893  -30.8151   22.1915 N   0  0  0  0  0  0  0  0  0  0  0  0
  -23.7911  -28.2313   22.7906 N   0  0  0  0  0  0  0  0  0  0  0  0
  -25.0322  -27.1217   18.6408 N   0  0  0  0  0  0  0  0  0  0  0  0
  -22.7070  -23.2525   18.7779 N   0  0  0  0  0  0  0  0  0  0  0  0
  -26.6937  -14.7213   20.1484 N   0  0  0  0  0  0  0  0  0  0  0  0
  -32.8442  -16.1629   21.9174 N   0  0  0  0  0  0  0  0  0  0  0  0
  -25.0676  -30.4680   24.0465 N   0  0  0  0  0  0  0  0  0  0  0  0
  -35.3619  -18.1667   20.2701 N   0  3  0  0  0  0  0  0  0  0  0  0
  -30.7736  -25.4163   19.3641 O   0  0  0  0  0  0  0  0  0  0  0  0
  -26.7041  -24.7109   21.6298 O   0  0  0  0  0  0  0  0  0  0  0  0
  -24.5420  -24.2911   17.8765 O   0  0  0  0  0  0  0  0  0  0  0  0
  -27.1717  -16.4567   21.6258 O   0  0  0  0  0  0  0  0  0  0  0  0
  -30.7410  -14.4950   20.9158 O   0  0  0  0  0  0  0  0  0  0  0  0
  -33.1265  -18.4643   21.9527 O   0  0  0  0  0  0  0  0  0  0  0  0
  -23.5901  -32.2416   24.0161 O   0  0  0  0  0  0  0  0  0  0  0  0
  -18.0993  -22.2830   21.7554 O   0  0  0  0  0  0  0  0  0  0  0  0
  -27.8204  -22.4360   20.3964 O   0  0  0  0  0  0  0  0  0  1  0  0
  -15.6849  -19.2864   17.8064 F   0  0  0  0  0  0  0  0  0  0  0  0
  -29.2988  -28.7878   22.5028 F   0  0  0  0  0  0  0  0  0  0  0  0
  -19.5736  -20.5397   20.1965 F   0  0  0  0  0  0  0  0  0  0  0  0
  1  2  1  0  0  0  0
  1  5  2  0  0  0  0
  2  6  2  0  0  0  0
  3  8  2  0  0  0  0
  3 17  1  0  0  0  0
  4  9  1  0  0  0  0
  4 17  2  0  0  0  0
  5 19  1  0  0  0  0
  6 21  1  0  0  0  0
  7 10  2  0  0  0  0
  7 20  1  0  0  0  0
  8 26  1  0  0  0  0
  9 26  2  0  0  0  0
 10 27  1  0  0  0  0
 11 12  2  0  0  0  0
 11 28  1  0  0  0  0
 12 29  1  0  0  0  0
 13 22  1  0  0  0  0
 13 27  2  0  0  0  0
 14 23  1  0  0  0  0
 14 24  2  0  0  0  0
 15 25  2  0  0  0  0
 15 30  1  0  0  0  0
 16 29  2  0  0  0  0
 16 31  1  0  0  0  0
 17 32  1  0  0  0  0
 18 32  1  0  0  0  0
 18 33  2  0  0  0  0
 18 38  1  0  0  0  0
 19 21  2  0  0  0  0
 19 43  1  0  0  0  0
 20 22  2  0  0  0  0
 20 44  1  0  0  0  0
 21 53  1  0  0  0  0
 22 45  1  0  0  0  0
 23 30  2  0  0  0  0
 23 67  1  0  0  0  0
 24 25  1  0  0  0  0
 24 70  1  0  0  0  0
 25 75  1  0  0  0  0
 26 84  1  0  0  0  0
 27 85  1  0  0  0  0
 28 31  2  0  0  0  0
 28 84  1  0  0  0  0
 29 86  1  0  0  0  0
 30 87  1  0  0  0  0
 31 88  1  0  0  0  0
 32 65  2  0  0  0  0
 33 66  1  0  0  0  0
 33 71  1  0  0  0  0
 34 35  1  0  0  0  0
 34 36  1  0  0  0  0
 34 37  2  0  0  0  0
 35 46  1  0  0  0  0
 35 77  2  0  0  0  0
 36 67  1  0  0  0  0
 36 78  2  0  0  0  0
 37 85  1  0  0  0  0
 38 72  1  0  0  0  0
 38 79  2  0  0  0  0
 39 54  1  0  0  0  0
 39 73  1  0  0  0  0
 39 80  2  0  0  0  0
 40 62  1  0  0  0  0
 40 68  1  0  0  0  0
 40 81  2  0  0  0  0
 41 63  1  0  0  0  0
 41 74  1  0  0  0  0
 41 82  2  0  0  0  0
 42 69  1  0  0  0  0
 42 75  1  0  0  0  0
 42 83  2  0  0  0  0
 43 47  1  0  0  0  0
 44 54  1  0  0  0  0
 45 68  1  0  0  0  0
 46 67  1  0  0  0  0
 47 49  1  0  0  0  0
 48 50  1  0  0  0  0
 48 51  1  0  0  0  0
 49 53  1  0  0  0  0
 50 55  1  0  0  0  0
 51 69  1  0  0  0  0
 52 55  1  0  0  0  0
 52 69  1  0  0  0  0
 53 73  1  0  0  0  0
 54 68  1  0  0  0  0
 55 66  1  0  0  0  0
 56 63  1  0  0  0  0
 57 64  1  0  0  0  0
 58 64  1  0  0  0  0
 59 64  1  0  0  0  0
 60 75  1  0  0  0  0
 61 76  1  0  0  0  0
 62 64  1  0  0  0  0
 62 74  1  0  0  0  0
 63 76  1  0  0  0  0
 65 66  1  0  0  0  0
M  CHG  1  76   1
M  ISO  4  37 101  42 100  75 100  85 101
M  END
> <Batch ID>
0088

> <Smiles>
CNC(C)C(=O)NC(C(=O)N1Cc2cc([101O:1][101CH:1]=C3C(=O)CN(c4cc(N)c([100N:0](C)[100C:0](=O)N5CCCC(n6nc(-c7ccc(Oc8ccc(F)cc8F)cc7)c(C(N)=O)c6N)C5)cc4F)C3=O)ccc2CC1C(=O)NC1CCCc2ccccc21)C(C)(C)C

> <Shape>
0.221

> <Color>
0.070

> <Negative vol penalty>
0.000

$$$$
