
  -OEChem-04052300263D

 87 96  0     1  0  0  0  0  0999 V2000
  -28.2541  -32.3109   26.6726 C   0  0  0  0  0  0  0  0  0  0  0  0
  -28.1837  -31.0616   26.0648 C   0  0  0  0  0  0  0  0  0  0  0  0
  -23.6984  -17.2871   21.6949 C   0  0  0  0  0  0  0  0  0  0  0  0
  -22.6967  -16.5461   19.6249 C   0  0  0  0  0  0  0  0  0  0  0  0
  -27.1078  -33.0968   26.7830 C   0  0  0  0  0  0  0  0  0  0  0  0
  -26.9665  -30.5968   25.5679 C   0  0  0  0  0  0  0  0  0  0  0  0
  -27.4102  -28.5225   20.9695 C   0  0  0  0  0  0  0  0  0  0  0  0
  -30.4071  -19.0007   18.8152 C   0  0  0  0  0  0  0  0  0  0  0  0
  -29.6800  -19.3931   21.0856 C   0  0  0  0  0  0  0  0  0  0  0  0
  -30.7908  -17.7053   19.1619 C   0  0  0  0  0  0  0  0  0  0  0  0
  -30.0637  -18.0976   21.4323 C   0  0  0  0  0  0  0  0  0  0  0  0
  -22.8270  -18.3758   21.7268 C   0  0  0  0  0  0  0  0  0  0  0  0
  -21.8253  -17.6349   19.6569 C   0  0  0  0  0  0  0  0  0  0  0  0
  -27.9238  -27.2281   20.9017 C   0  0  0  0  0  0  0  0  0  0  0  0
  -22.5692  -21.4035   20.2466 C   0  0  0  0  0  0  0  0  0  0  0  0
  -23.1053  -22.6528   20.5589 C   0  0  0  0  0  0  0  0  0  0  0  0
  -25.6854  -26.3584   20.6723 C   0  0  0  0  0  0  0  0  0  0  0  0
  -21.6444  -22.8001   22.4775 C   0  0  0  0  0  0  0  0  0  0  0  0
  -23.6333  -16.3723   20.6439 C   0  0  0  0  0  0  0  0  0  0  0  0
  -24.3224  -13.9728   21.1683 C   0  0  0  0  0  0  0  0  0  0  0  0
  -25.8779  -32.6456   26.2786 C   0  0  0  0  0  0  0  0  0  0  0  0
  -26.0272  -28.7440   20.9000 C   0  0  0  0  0  0  0  0  0  0  0  0
  -25.8023  -31.3768   25.6728 C   0  0  0  0  0  0  0  0  0  0  0  0
  -25.1570  -27.6567   20.7369 C   0  0  0  0  0  0  0  0  0  0  0  0
  -29.8518  -19.8447   19.7771 C   0  0  0  0  0  0  0  0  0  0  0  0
  -30.6191  -17.2537   20.4704 C   0  0  0  0  0  0  0  0  0  0  0  0
  -21.8905  -18.5497   20.7079 C   0  0  0  0  0  0  0  0  0  0  0  0
  -27.0612  -26.1456   20.7560 C   0  0  0  0  0  0  0  0  0  0  0  0
  -21.5706  -20.8525   21.0498 C   0  0  0  0  0  0  0  0  0  0  0  0
  -22.6429  -23.3510   21.6743 C   0  0  0  0  0  0  0  0  0  0  0  0
  -21.1083  -21.5508   22.1652 C   0  0  0  0  0  0  0  0  0  0  0  0
  -24.5335  -15.2477   20.6100 C   0  0  0  0  0  0  0  0  0  0  0  0
  -25.4643  -13.2721   20.8655 C   0  0  0  0  0  0  0  0  0  0  0  0
  -28.7383  -22.9737   18.2631 C   0  0  0  0  0  0  0  0  0  0  0  0
  -28.9892  -23.3813   19.5096 C   0  0  0  0  0  0  0  0  0  0  0  0
  -29.0304  -21.5264   18.1836 C   0  0  0  0  0  0  0  0  0  0  0  0
  -29.4727  -22.2194   20.2859 C   0  0  0  0  0  0  0  0  0  0  0  0
  -23.1950  -13.4670   21.8954 C   0  0  0  0  0  0  0  0  0  0  0  0
  -23.8535  -29.9870   22.8580 C   0  0  0  0  0  0  0  0  0  0  0  0
  -21.8991  -29.6114   20.2964 C   0  0  0  0  0  0  0  0  0  0  0  0
  -21.2361  -27.9811   17.3725 C   0  0  0  0  0  0  0  0  0  0  0  0
  -30.9810  -14.8619   19.8879 C   0  0  0  0  0  0  0  0  0  0  0  0
  -24.6562  -33.5104   26.4634 C   0  0  0  0  0  0  0  0  0  0  0  0
  -25.4909  -30.1485   20.9478 C   0  0  0  0  0  0  0  0  0  0  0  0
  -23.6657  -27.8426   20.6370 C   0  0  0  0  0  0  0  0  0  0  0  0
  -23.4823  -33.1039   25.5762 C   0  0  0  0  0  0  0  0  0  0  0  0
  -28.9594  -13.0149   17.6197 C   0  0  0  0  0  0  0  0  0  0  0  0
  -23.2732  -31.5937   25.6263 C   0  0  0  0  0  0  0  0  0  0  0  0
  -27.5619  -13.2666   18.1846 C   0  0  0  0  0  0  0  0  0  0  0  0
  -29.8393  -14.2633   17.6913 C   0  0  0  0  0  0  0  0  0  0  0  0
  -28.5263  -15.1138   19.6089 C   0  0  0  0  0  0  0  0  0  0  0  0
  -24.5054  -30.8484   25.0994 C   0  0  1  0  0  0  0  0  0  0  0  0
  -24.0304  -30.2158   21.3835 C   0  0  1  0  0  0  0  0  0  0  0  0
  -27.6381  -13.8599   19.6025 C   0  0  1  0  0  0  0  0  0  0  0  0
  -28.2465  -23.7266   17.0831 C   0  0  0  0  0  0  0  0  0  0  0  0
  -19.5460  -27.8652   15.5211 C   0  0  0  0  0  0  0  0  0  0  0  0
  -20.0047  -28.0703   22.1255 C   0  0  0  0  0  0  0  0  0  0  0  0
  -18.8590  -27.1895   20.0810 C   0  0  0  0  0  0  0  0  0  0  0  0
  -18.8762  -29.6413   20.5403 C   0  0  0  0  0  0  0  0  0  0  0  0
  -31.6875  -15.7028   22.1170 C   0  0  0  0  0  0  0  0  0  0  0  0
  -23.2392  -28.7612   15.3383 C   0  0  0  0  0  0  0  0  0  0  0  0
  -28.8627  -24.7251   20.1294 C   0  0  0  0  0  0  0  0  0  1  0  0
  -21.0059  -28.5066   19.7860 C   0  0  1  0  0  0  0  0  0  0  0  0
  -20.8451  -28.4953   15.9987 C   0  0  2  0  0  0  0  0  0  0  0  0
  -19.7144  -28.3479   20.6370 C   0  0  0  0  0  0  0  0  0  0  0  0
  -25.7165  -15.3537   19.9990 N   0  0  0  0  0  0  0  0  0  0  0  0
  -26.2591  -14.1364   20.1717 N   0  0  0  0  0  0  0  0  0  0  0  0
  -29.4696  -21.1362   19.4318 N   0  0  0  0  0  0  0  0  0  0  0  0
  -23.1894  -29.2345   20.6952 N   0  0  0  0  0  0  0  0  0  0  0  0
  -29.8486  -14.8167   19.0529 N   0  0  0  0  0  0  0  0  0  0  0  0
  -25.8561  -12.0071   21.1279 N   0  0  0  0  0  0  0  0  0  0  0  0
  -22.1058  -14.3206   22.1178 N   0  0  0  0  0  0  0  0  0  0  0  0
  -24.5385  -30.8860   23.6530 N   0  0  0  0  0  0  0  0  0  0  0  0
  -20.7614  -28.7972   18.3774 N   0  0  0  0  0  0  0  0  0  0  0  0
  -31.0162  -15.9126   20.8297 N   0  0  0  0  0  0  0  0  0  0  0  0
  -21.9117  -28.1830   15.0059 N   0  3  0  0  0  0  0  0  0  0  0  0
  -28.8922  -20.8530   17.1746 O   0  0  0  0  0  0  0  0  0  0  0  0
  -29.7983  -22.2677   21.4616 O   0  0  0  0  0  0  0  0  0  0  0  0
  -23.1615  -12.2980   22.3491 O   0  0  0  0  0  0  0  0  0  0  0  0
  -23.1465  -29.0642   23.2456 O   0  0  0  0  0  0  0  0  0  0  0  0
  -21.4704  -30.7675   20.3329 O   0  0  0  0  0  0  0  0  0  0  0  0
  -21.8935  -26.9558   17.5377 O   0  0  0  0  0  0  0  0  0  0  0  0
  -31.8788  -14.0140   19.8157 O   0  0  0  0  0  0  0  0  0  0  0  0
  -21.0399  -19.6118   20.7389 O   0  0  0  0  0  0  0  0  0  0  0  0
  -27.5599  -24.8811   20.6903 O   0  0  0  0  0  0  0  0  0  1  0  0
  -23.1590  -24.5500   21.9750 F   0  0  0  0  0  0  0  0  0  0  0  0
  -20.1500  -21.0261   22.9412 F   0  0  0  0  0  0  0  0  0  0  0  0
  1  2  1  0  0  0  0
  1  5  2  0  0  0  0
  2  6  2  0  0  0  0
  3 12  2  0  0  0  0
  3 19  1  0  0  0  0
  4 13  1  0  0  0  0
  4 19  2  0  0  0  0
  5 21  1  0  0  0  0
  6 23  1  0  0  0  0
  7 14  2  0  0  0  0
  7 22  1  0  0  0  0
  8 10  2  0  0  0  0
  8 25  1  0  0  0  0
  9 11  1  0  0  0  0
  9 25  2  0  0  0  0
 10 26  1  0  0  0  0
 11 26  2  0  0  0  0
 12 27  1  0  0  0  0
 13 27  2  0  0  0  0
 14 28  1  0  0  0  0
 15 16  2  0  0  0  0
 15 29  1  0  0  0  0
 16 30  1  0  0  0  0
 17 24  1  0  0  0  0
 17 28  2  0  0  0  0
 18 30  2  0  0  0  0
 18 31  1  0  0  0  0
 19 32  1  0  0  0  0
 20 32  1  0  0  0  0
 20 33  2  0  0  0  0
 20 38  1  0  0  0  0
 21 23  2  0  0  0  0
 21 43  1  0  0  0  0
 22 24  2  0  0  0  0
 22 44  1  0  0  0  0
 23 52  1  0  0  0  0
 24 45  1  0  0  0  0
 25 68  1  0  0  0  0
 26 75  1  0  0  0  0
 27 84  1  0  0  0  0
 28 85  1  0  0  0  0
 29 31  2  0  0  0  0
 29 84  1  0  0  0  0
 30 86  1  0  0  0  0
 31 87  1  0  0  0  0
 32 66  2  0  0  0  0
 33 67  1  0  0  0  0
 33 71  1  0  0  0  0
 34 35  2  0  0  0  0
 34 36  1  0  0  0  0
 34 55  1  0  0  0  0
 35 37  1  0  0  0  0
 35 62  1  0  0  0  0
 36 68  1  0  0  0  0
 36 77  2  0  0  0  0
 37 68  1  0  0  0  0
 37 78  2  0  0  0  0
 38 72  1  0  0  0  0
 38 79  2  0  0  0  0
 39 53  1  0  0  0  0
 39 73  1  0  0  0  0
 39 80  2  0  0  0  0
 40 63  1  0  0  0  0
 40 69  1  0  0  0  0
 40 81  2  0  0  0  0
 41 64  1  0  0  0  0
 41 74  1  0  0  0  0
 41 82  2  0  0  0  0
 42 70  1  0  0  0  0
 42 75  1  0  0  0  0
 42 83  2  0  0  0  0
 43 46  1  0  0  0  0
 44 53  1  0  0  0  0
 45 69  1  0  0  0  0
 46 48  1  0  0  0  0
 47 49  1  0  0  0  0
 47 50  1  0  0  0  0
 48 52  1  0  0  0  0
 49 54  1  0  0  0  0
 50 70  1  0  0  0  0
 51 54  1  0  0  0  0
 51 70  1  0  0  0  0
 52 73  1  0  0  0  0
 53 69  1  0  0  0  0
 54 67  1  0  0  0  0
 56 64  1  0  0  0  0
 57 65  1  0  0  0  0
 58 65  1  0  0  0  0
 59 65  1  0  0  0  0
 60 75  1  0  0  0  0
 61 76  1  0  0  0  0
 62 85  1  0  0  0  0
 63 65  1  0  0  0  0
 63 74  1  0  0  0  0
 64 76  1  0  0  0  0
 66 67  1  0  0  0  0
M  CHG  1  76   1
M  ISO  4  42 100  62 101  75 100  85 101
M  END
> <Batch ID>
0089

> <Smiles>
CNC(C)C(=O)NC(C(=O)N1Cc2cc([101O:1][101CH2:1]C3=C(C)C(=O)N(c4ccc([100N:0](C)[100C:0](=O)N5CCCC(n6nc(-c7ccc(Oc8ccc(F)cc8F)cc7)c(C(N)=O)c6N)C5)cc4)C3=O)ccc2CC1C(=O)NC1CCCc2ccccc21)C(C)(C)C

> <Shape>
0.283

> <Color>
0.070

> <Negative vol penalty>
0.000

$$$$

  -OEChem-04052300263D

 84 92  0     1  0  0  0  0  0999 V2000
  -28.3493  -30.2268   27.5629 C   0  0  0  0  0  0  0  0  0  0  0  0
  -28.0596  -29.3638   26.5108 C   0  0  0  0  0  0  0  0  0  0  0  0
  -22.4482   -9.0606   19.8361 C   0  0  0  0  0  0  0  0  0  0  0  0
  -23.4751   -9.1338   22.0217 C   0  0  0  0  0  0  0  0  0  0  0  0
  -27.4193  -31.1915   27.9480 C   0  0  0  0  0  0  0  0  0  0  0  0
  -26.8391  -29.4644   25.8440 C   0  0  0  0  0  0  0  0  0  0  0  0
  -27.3493  -29.2224   20.8115 C   0  0  0  0  0  0  0  0  0  0  0  0
  -27.3003  -19.4212   19.8385 C   0  0  0  0  0  0  0  0  0  0  0  0
  -27.2778  -20.8126   19.7437 C   0  0  0  0  0  0  0  0  0  0  0  0
  -22.3108   -7.6770   19.9469 C   0  0  0  0  0  0  0  0  0  0  0  0
  -23.3377   -7.7501   22.1326 C   0  0  0  0  0  0  0  0  0  0  0  0
  -27.5433  -27.9606   20.2511 C   0  0  0  0  0  0  0  0  0  0  0  0
  -20.8858   -5.5431   22.8659 C   0  0  0  0  0  0  0  0  0  0  0  0
  -20.4063   -5.0358   24.0735 C   0  0  0  0  0  0  0  0  0  0  0  0
  -25.2092  -27.8763   19.6478 C   0  0  0  0  0  0  0  0  0  0  0  0
  -29.4305  -19.5329   20.9729 C   0  0  0  0  0  0  0  0  0  0  0  0
  -22.4481   -3.7751   24.3545 C   0  0  0  0  0  0  0  0  0  0  0  0
  -23.0304   -9.7890   20.8734 C   0  0  0  0  0  0  0  0  0  0  0  0
  -22.2477  -12.1998   21.1614 C   0  0  0  0  0  0  0  0  0  0  0  0
  -26.1908  -31.3102   27.2793 C   0  0  0  0  0  0  0  0  0  0  0  0
  -26.0793  -29.8169   20.8039 C   0  0  0  0  0  0  0  0  0  0  0  0
  -25.8912  -30.4307   26.2214 C   0  0  0  0  0  0  0  0  0  0  0  0
  -25.0022  -29.1468   20.2064 C   0  0  0  0  0  0  0  0  0  0  0  0
  -28.3766  -18.7813   20.4532 C   0  0  0  0  0  0  0  0  0  0  0  0
  -28.3316  -21.5642   20.2634 C   0  0  0  0  0  0  0  0  0  0  0  0
  -22.7555   -7.0217   21.0952 C   0  0  0  0  0  0  0  0  0  0  0  0
  -26.4725  -27.2861   19.6717 C   0  0  0  0  0  0  0  0  0  0  0  0
  -22.1464   -5.1665   22.4026 C   0  0  0  0  0  0  0  0  0  0  0  0
  -21.1875   -4.1518   24.8178 C   0  0  0  0  0  0  0  0  0  0  0  0
  -29.4080  -20.9244   20.8780 C   0  0  0  0  0  0  0  0  0  0  0  0
  -22.9276   -4.2825   23.1469 C   0  0  0  0  0  0  0  0  0  0  0  0
  -23.1732  -11.2182   20.7592 C   0  0  0  0  0  0  0  0  0  0  0  0
  -22.8497  -13.3917   20.8396 C   0  0  0  0  0  0  0  0  0  0  0  0
  -29.5771  -16.7482   20.5529 C   0  0  0  0  0  0  0  0  0  0  0  0
  -20.9591  -12.0479   21.7714 C   0  0  0  0  0  0  0  0  0  0  0  0
  -24.0368  -30.7732   23.0438 C   0  0  0  0  0  0  0  0  0  0  0  0
  -22.3875  -31.9229   20.4982 C   0  0  0  0  0  0  0  0  0  0  0  0
  -27.3178  -23.7672   19.5906 C   0  0  0  0  0  0  0  0  0  0  0  0
  -21.7275  -31.7468   17.1545 C   0  0  0  0  0  0  0  0  0  0  0  0
  -27.1291  -16.6982   20.7421 C   0  0  0  0  0  0  0  0  0  0  0  0
  -25.1977  -32.3375   27.7622 C   0  0  0  0  0  0  0  0  0  0  0  0
  -25.8923  -31.1900   21.3887 C   0  0  0  0  0  0  0  0  0  0  0  0
  -23.6233  -29.7503   20.1544 C   0  0  0  0  0  0  0  0  0  0  0  0
  -24.0819  -32.6239   26.7606 C   0  0  0  0  0  0  0  0  0  0  0  0
  -26.9564  -14.3729   18.0670 C   0  0  0  0  0  0  0  0  0  0  0  0
  -23.5136  -31.3209   26.2074 C   0  0  0  0  0  0  0  0  0  0  0  0
  -25.8796  -13.4117   18.5701 C   0  0  0  0  0  0  0  0  0  0  0  0
  -27.8787  -14.8344   19.1951 C   0  0  0  0  0  0  0  0  0  0  0  0
  -26.0847  -14.4621   20.8586 C   0  0  0  0  0  0  0  0  0  0  0  0
  -24.5884  -30.5248   25.4573 C   0  0  1  0  0  0  0  0  0  0  0  0
  -24.4473  -31.4798   21.7829 C   0  0  1  0  0  0  0  0  0  0  0  0
  -25.1093  -14.0161   19.7577 C   0  0  2  0  0  0  0  0  0  0  0  0
  -20.3053  -32.7904   15.3697 C   0  0  0  0  0  0  0  0  0  0  0  0
  -19.9653  -30.3808   21.5299 C   0  0  0  0  0  0  0  0  0  0  0  0
  -18.9089  -30.6712   19.2787 C   0  0  0  0  0  0  0  0  0  0  0  0
  -19.4533  -32.6713   20.6665 C   0  0  0  0  0  0  0  0  0  0  0  0
  -24.0985  -32.6607   15.6372 C   0  0  0  0  0  0  0  0  0  0  0  0
  -27.6795  -25.2371   19.6968 C   0  0  0  0  0  0  0  0  0  1  0  0
  -21.3278  -31.3731   19.5742 C   0  0  1  0  0  0  0  0  0  0  0  0
  -21.6466  -32.8218   16.0858 C   0  0  2  0  0  0  0  0  0  0  0  0
  -19.9393  -31.2616   20.2649 C   0  0  0  0  0  0  0  0  0  0  0  0
  -24.2790  -11.7411   20.2227 N   0  0  0  0  0  0  0  0  0  0  0  0
  -24.0522  -13.0643   20.2854 N   0  0  0  0  0  0  0  0  0  0  0  0
  -23.4897  -31.0922   20.7452 N   0  0  0  0  0  0  0  0  0  0  0  0
  -27.0976  -15.3685   20.3168 N   0  0  0  0  0  0  0  0  0  0  0  0
  -22.4624  -14.6773   20.9792 N   0  0  0  0  0  0  0  0  0  0  0  0
  -20.4924  -10.7525   22.0333 N   0  0  0  0  0  0  0  0  0  0  0  0
  -28.3060  -22.9757   20.1659 N   0  0  0  0  0  0  0  0  0  0  0  0
  -24.8111  -31.0898   24.1437 N   0  0  0  0  0  0  0  0  0  0  0  0
  -21.3389  -32.2233   18.3887 N   0  0  0  0  0  0  0  0  0  0  0  0
  -28.3986  -17.3923   20.5471 N   0  0  0  0  0  0  0  0  0  0  0  0
  -29.7957  -15.4422   20.6484 N   0  3  0  0  0  0  0  0  0  0  0  0
  -22.7240  -32.6288   15.0743 N   0  3  0  0  0  0  0  0  0  0  0  0
  -20.2358  -13.0311   22.0603 O   0  0  0  0  0  0  0  0  0  0  0  0
  -23.0870  -29.9993   23.0209 O   0  0  0  0  0  0  0  0  0  0  0  0
  -22.2462  -33.0508   20.9773 O   0  0  0  0  0  0  0  0  0  0  0  0
  -26.2773  -23.3987   19.0558 O   0  0  0  0  0  0  0  0  0  0  0  0
  -22.0949  -30.5981   16.9174 O   0  0  0  0  0  0  0  0  0  0  0  0
  -26.1998  -17.3035   21.2687 O   0  0  0  0  0  0  0  0  0  0  0  0
  -22.6213   -5.6717   21.2039 O   0  0  0  0  0  0  0  0  0  0  0  0
  -26.6590  -26.0541   19.1246 O   0  0  0  0  0  0  0  0  0  1  0  0
  -20.7276   -3.6659   25.9782 F   0  0  0  0  0  0  0  0  0  0  0  0
  -30.4263  -21.6368   21.3810 F   0  0  0  0  0  0  0  0  0  0  0  0
  -24.1399   -3.9179   22.7075 F   0  0  0  0  0  0  0  0  0  0  0  0
  1  2  1  0  0  0  0
  1  5  2  0  0  0  0
  2  6  2  0  0  0  0
  3 10  2  0  0  0  0
  3 18  1  0  0  0  0
  4 11  1  0  0  0  0
  4 18  2  0  0  0  0
  5 20  1  0  0  0  0
  6 22  1  0  0  0  0
  7 12  2  0  0  0  0
  7 21  1  0  0  0  0
  8  9  2  0  0  0  0
  8 24  1  0  0  0  0
  9 25  1  0  0  0  0
 10 26  1  0  0  0  0
 11 26  2  0  0  0  0
 12 27  1  0  0  0  0
 13 14  2  0  0  0  0
 13 28  1  0  0  0  0
 14 29  1  0  0  0  0
 15 23  1  0  0  0  0
 15 27  2  0  0  0  0
 16 24  2  0  0  0  0
 16 30  1  0  0  0  0
 17 29  2  0  0  0  0
 17 31  1  0  0  0  0
 18 32  1  0  0  0  0
 19 32  1  0  0  0  0
 19 33  2  0  0  0  0
 19 35  1  0  0  0  0
 20 22  2  0  0  0  0
 20 41  1  0  0  0  0
 21 23  2  0  0  0  0
 21 42  1  0  0  0  0
 22 50  1  0  0  0  0
 23 43  1  0  0  0  0
 24 71  1  0  0  0  0
 25 30  2  0  0  0  0
 25 68  1  0  0  0  0
 26 80  1  0  0  0  0
 27 81  1  0  0  0  0
 28 31  2  0  0  0  0
 28 80  1  0  0  0  0
 29 82  1  0  0  0  0
 30 83  1  0  0  0  0
 31 84  1  0  0  0  0
 32 62  2  0  0  0  0
 33 63  1  0  0  0  0
 33 66  1  0  0  0  0
 34 71  1  0  0  0  0
 34 72  2  0  0  0  0
 35 67  1  0  0  0  0
 35 74  2  0  0  0  0
 36 51  1  0  0  0  0
 36 69  1  0  0  0  0
 36 75  2  0  0  0  0
 37 59  1  0  0  0  0
 37 64  1  0  0  0  0
 37 76  2  0  0  0  0
 38 58  1  0  0  0  0
 38 68  1  0  0  0  0
 38 77  2  0  0  0  0
 39 60  1  0  0  0  0
 39 70  1  0  0  0  0
 39 78  2  0  0  0  0
 40 65  1  0  0  0  0
 40 71  1  0  0  0  0
 40 79  2  0  0  0  0
 41 44  1  0  0  0  0
 42 51  1  0  0  0  0
 43 64  1  0  0  0  0
 44 46  1  0  0  0  0
 45 47  1  0  0  0  0
 45 48  1  0  0  0  0
 46 50  1  0  0  0  0
 47 52  1  0  0  0  0
 48 65  1  0  0  0  0
 49 52  1  0  0  0  0
 49 65  1  0  0  0  0
 50 69  1  0  0  0  0
 51 64  1  0  0  0  0
 52 63  1  0  0  0  0
 53 60  1  0  0  0  0
 54 61  1  0  0  0  0
 55 61  1  0  0  0  0
 56 61  1  0  0  0  0
 57 73  1  0  0  0  0
 58 81  1  0  0  0  0
 59 61  1  0  0  0  0
 59 70  1  0  0  0  0
 60 73  1  0  0  0  0
 62 63  1  0  0  0  0
M  CHG  2  72   1  73   1
M  ISO  4  40 100  58 101  71 100  81 101
M  END
> <Batch ID>
0089

> <Smiles>
CNC(C)C(=O)NC(C(=O)N1Cc2cc([101O:1][101CH2:1]C(=O)Nc3ccc([100N:0](C=N)[100C:0](=O)N4CCCC(n5nc(-c6ccc(Oc7ccc(F)cc7F)cc6)c(C(N)=O)c5N)C4)cc3F)ccc2CC1C(=O)NC1CCCc2ccccc21)C(C)(C)C

> <Shape>
0.304

> <Color>
0.082

> <Negative vol penalty>
0.000

$$$$

  -OEChem-04052300263D

 87 96  0     1  0  0  0  0  0999 V2000
  -19.4632  -34.1695   21.0389 C   0  0  0  0  0  0  0  0  0  0  0  0
  -20.7140  -33.7145   20.6339 C   0  0  0  0  0  0  0  0  0  0  0  0
  -33.7111  -21.7021   18.7847 C   0  0  0  0  0  0  0  0  0  0  0  0
  -26.2202  -13.5069   21.5346 C   0  0  0  0  0  0  0  0  0  0  0  0
  -26.1324  -14.9875   19.6275 C   0  0  0  0  0  0  0  0  0  0  0  0
  -18.8593  -33.6279   22.1728 C   0  0  0  0  0  0  0  0  0  0  0  0
  -21.3620  -32.7183   21.3633 C   0  0  0  0  0  0  0  0  0  0  0  0
  -24.9651  -28.2884   19.1499 C   0  0  0  0  0  0  0  0  0  0  0  0
  -33.2247  -22.9824   18.5201 C   0  0  0  0  0  0  0  0  0  0  0  0
  -33.0714  -20.8933   19.7240 C   0  0  0  0  0  0  0  0  0  0  0  0
  -24.8368  -13.3411   21.4697 C   0  0  0  0  0  0  0  0  0  0  0  0
  -24.7490  -14.8217   19.5625 C   0  0  0  0  0  0  0  0  0  0  0  0
  -26.3509  -28.1632   19.0610 C   0  0  0  0  0  0  0  0  0  0  0  0
  -22.6243  -11.5680   19.6275 C   0  0  0  0  0  0  0  0  0  0  0  0
  -22.1201  -10.2732   19.7500 C   0  0  0  0  0  0  0  0  0  0  0  0
  -26.3619  -26.8961   21.1138 C   0  0  0  0  0  0  0  0  0  0  0  0
  -31.4590  -22.6451   20.1343 C   0  0  0  0  0  0  0  0  0  0  0  0
  -20.8680  -10.9456   21.7038 C   0  0  0  0  0  0  0  0  0  0  0  0
  -26.8681  -14.3301   20.6136 C   0  0  0  0  0  0  0  0  0  0  0  0
  -29.2779  -13.7270   20.0333 C   0  0  0  0  0  0  0  0  0  0  0  0
  -19.4960  -32.6177   22.9110 C   0  0  0  0  0  0  0  0  0  0  0  0
  -24.2675  -27.7268   20.2289 C   0  0  0  0  0  0  0  0  0  0  0  0
  -20.7666  -32.1636   22.5090 C   0  0  0  0  0  0  0  0  0  0  0  0
  -24.9671  -27.0135   21.2127 C   0  0  0  0  0  0  0  0  0  0  0  0
  -32.0987  -23.4539   19.1949 C   0  0  0  0  0  0  0  0  0  0  0  0
  -31.9454  -21.3648   20.3989 C   0  0  0  0  0  0  0  0  0  0  0  0
  -24.1012  -13.9985   20.4836 C   0  0  0  0  0  0  0  0  0  0  0  0
  -27.0498  -27.4694   20.0446 C   0  0  0  0  0  0  0  0  0  0  0  0
  -22.2504  -12.5516   20.5432 C   0  0  0  0  0  0  0  0  0  0  0  0
  -21.2420   -9.9621   20.7881 C   0  0  0  0  0  0  0  0  0  0  0  0
  -21.3723  -12.2404   21.5813 C   0  0  0  0  0  0  0  0  0  0  0  0
  -28.2970  -14.5022   20.6805 C   0  0  0  0  0  0  0  0  0  0  0  0
  -30.4698  -14.2921   20.4160 C   0  0  0  0  0  0  0  0  0  0  0  0
  -31.4688  -26.9429   18.3624 C   0  0  0  0  0  0  0  0  0  0  0  0
  -30.2352  -26.5428   18.6636 C   0  0  0  0  0  0  0  0  0  0  0  0
  -32.3829  -25.8045   18.5320 C   0  0  0  0  0  0  0  0  0  0  0  0
  -30.2905  -25.1134   19.0265 C   0  0  0  0  0  0  0  0  0  0  0  0
  -29.0390  -20.9877   20.6882 C   0  0  0  0  0  0  0  0  0  0  0  0
  -29.9212  -20.6175   21.6192 C   0  0  0  0  0  0  0  0  0  0  0  0
  -29.1252  -12.5973   19.1638 C   0  0  0  0  0  0  0  0  0  0  0  0
  -22.4597  -28.8800   22.5754 C   0  0  0  0  0  0  0  0  0  0  0  0
  -21.9684  -25.7381   23.2151 C   0  0  0  0  0  0  0  0  0  0  0  0
  -23.0817  -22.5218   22.9643 C   0  0  0  0  0  0  0  0  0  0  0  0
  -32.0712  -19.6944   22.2117 C   0  0  0  0  0  0  0  0  0  0  0  0
  -18.8247  -32.0962   24.1568 C   0  0  0  0  0  0  0  0  0  0  0  0
  -22.7697  -27.8479   20.2962 C   0  0  0  0  0  0  0  0  0  0  0  0
  -24.2628  -26.3745   22.3806 C   0  0  0  0  0  0  0  0  0  0  0  0
  -19.4120  -30.7799   24.6596 C   0  0  0  0  0  0  0  0  0  0  0  0
  -32.4948  -16.7223   23.9937 C   0  0  0  0  0  0  0  0  0  0  0  0
  -20.9359  -30.8456   24.6723 C   0  0  0  0  0  0  0  0  0  0  0  0
  -31.5598  -15.7362   23.2943 C   0  0  0  0  0  0  0  0  0  0  0  0
  -31.8538  -18.1011   24.1020 C   0  0  0  0  0  0  0  0  0  0  0  0
  -30.4909  -17.6964   22.0766 C   0  0  0  0  0  0  0  0  0  0  0  0
  -21.4904  -31.0670   23.2598 C   0  0  1  0  0  0  0  0  0  0  0  0
  -22.2192  -27.6764   21.7086 C   0  0  1  0  0  0  0  0  0  0  0  0
  -31.0957  -16.2853   21.9337 C   0  0  2  0  0  0  0  0  0  0  0  0
  -22.4837  -20.1737   23.6170 C   0  0  0  0  0  0  0  0  0  0  0  0
  -22.8518  -26.3117   26.0787 C   0  0  0  0  0  0  0  0  0  0  0  0
  -23.1482  -23.8474   26.4070 C   0  0  0  0  0  0  0  0  0  0  0  0
  -20.8916  -24.7713   25.8804 C   0  0  0  0  0  0  0  0  0  0  0  0
  -22.9351  -21.6504   20.1397 C   0  0  0  0  0  0  0  0  0  0  0  0
  -28.9728  -27.3252   18.6527 C   0  0  0  0  0  0  0  0  0  1  0  0
  -22.6554  -24.7011   24.0704 C   0  0  1  0  0  0  0  0  0  0  0  0
  -22.3810  -21.2434   22.5410 C   0  0  2  0  0  0  0  0  0  0  0  0
  -22.4005  -24.9214   25.5883 C   0  0  0  0  0  0  0  0  0  0  0  0
  -28.8205  -15.4848   21.4185 N   0  0  0  0  0  0  0  0  0  0  0  0
  -30.1432  -15.3307   21.2375 N   0  0  0  0  0  0  0  0  0  0  0  0
  -31.6141  -24.7299   18.9304 N   0  0  0  0  0  0  0  0  0  0  0  0
  -22.7985  -26.5260   22.4052 N   0  0  0  0  0  0  0  0  0  0  0  0
  -31.4224  -18.5854   22.7903 N   0  0  0  0  0  0  0  0  0  0  0  0
  -31.7549  -13.9969   20.1268 N   0  0  0  0  0  0  0  0  0  0  0  0
  -27.8299  -12.1469   18.8748 N   0  0  0  0  0  0  0  0  0  0  0  0
  -21.4605  -29.8321   22.5058 N   0  0  0  0  0  0  0  0  0  0  0  0
  -22.2130  -23.4031   23.5725 N   0  0  0  0  0  0  0  0  0  0  0  0
  -31.2816  -20.5245   21.3741 N   0  0  0  0  0  0  0  0  0  0  0  0
  -22.9880  -20.7102   21.2887 N   0  3  0  0  0  0  0  0  0  0  0  0
  -33.5861  -25.8670   18.3382 O   0  0  0  0  0  0  0  0  0  0  0  0
  -29.3188  -24.4471   19.3457 O   0  0  0  0  0  0  0  0  0  0  0  0
  -30.1089  -11.9946   18.6713 O   0  0  0  0  0  0  0  0  0  0  0  0
  -23.4757  -28.9398   23.2579 O   0  0  0  0  0  0  0  0  0  0  0  0
  -20.7399  -25.8403   23.2584 O   0  0  0  0  0  0  0  0  0  0  0  0
  -24.2807  -22.7174   22.7777 O   0  0  0  0  0  0  0  0  0  0  0  0
  -33.2622  -19.9436   22.4391 O   0  0  0  0  0  0  0  0  0  0  0  0
  -22.7512  -13.8367   20.4198 O   0  0  0  0  0  0  0  0  0  0  0  0
  -28.4024  -27.3462   19.9606 O   0  0  0  0  0  0  0  0  0  1  0  0
  -20.7567   -8.7191   20.9047 F   0  0  0  0  0  0  0  0  0  0  0  0
  -21.0085  -13.1814   22.4633 F   0  0  0  0  0  0  0  0  0  0  0  0
  1  2  1  0  0  0  0
  1  6  2  0  0  0  0
  2  7  2  0  0  0  0
  3  9  1  0  0  0  0
  3 10  2  0  0  0  0
  4 11  2  0  0  0  0
  4 19  1  0  0  0  0
  5 12  1  0  0  0  0
  5 19  2  0  0  0  0
  6 21  1  0  0  0  0
  7 23  1  0  0  0  0
  8 13  2  0  0  0  0
  8 22  1  0  0  0  0
  9 25  2  0  0  0  0
 10 26  1  0  0  0  0
 11 27  1  0  0  0  0
 12 27  2  0  0  0  0
 13 28  1  0  0  0  0
 14 15  2  0  0  0  0
 14 29  1  0  0  0  0
 15 30  1  0  0  0  0
 16 24  1  0  0  0  0
 16 28  2  0  0  0  0
 17 25  1  0  0  0  0
 17 26  2  0  0  0  0
 18 30  2  0  0  0  0
 18 31  1  0  0  0  0
 19 32  1  0  0  0  0
 20 32  1  0  0  0  0
 20 33  2  0  0  0  0
 20 40  1  0  0  0  0
 21 23  2  0  0  0  0
 21 45  1  0  0  0  0
 22 24  2  0  0  0  0
 22 46  1  0  0  0  0
 23 54  1  0  0  0  0
 24 47  1  0  0  0  0
 25 68  1  0  0  0  0
 26 75  1  0  0  0  0
 27 84  1  0  0  0  0
 28 85  1  0  0  0  0
 29 31  2  0  0  0  0
 29 84  1  0  0  0  0
 30 86  1  0  0  0  0
 31 87  1  0  0  0  0
 32 66  2  0  0  0  0
 33 67  1  0  0  0  0
 33 71  1  0  0  0  0
 34 35  2  0  0  0  0
 34 36  1  0  0  0  0
 35 37  1  0  0  0  0
 35 62  1  0  0  0  0
 36 68  1  0  0  0  0
 36 77  2  0  0  0  0
 37 68  1  0  0  0  0
 37 78  2  0  0  0  0
 38 39  2  0  0  0  0
 39 75  1  0  0  0  0
 40 72  1  0  0  0  0
 40 79  2  0  0  0  0
 41 55  1  0  0  0  0
 41 73  1  0  0  0  0
 41 80  2  0  0  0  0
 42 63  1  0  0  0  0
 42 69  1  0  0  0  0
 42 81  2  0  0  0  0
 43 64  1  0  0  0  0
 43 74  1  0  0  0  0
 43 82  2  0  0  0  0
 44 70  1  0  0  0  0
 44 75  1  0  0  0  0
 44 83  2  0  0  0  0
 45 48  1  0  0  0  0
 46 55  1  0  0  0  0
 47 69  1  0  0  0  0
 48 50  1  0  0  0  0
 49 51  1  0  0  0  0
 49 52  1  0  0  0  0
 50 54  1  0  0  0  0
 51 56  1  0  0  0  0
 52 70  1  0  0  0  0
 53 56  1  0  0  0  0
 53 70  1  0  0  0  0
 54 73  1  0  0  0  0
 55 69  1  0  0  0  0
 56 67  1  0  0  0  0
 57 64  1  0  0  0  0
 58 65  1  0  0  0  0
 59 65  1  0  0  0  0
 60 65  1  0  0  0  0
 61 76  1  0  0  0  0
 62 85  1  0  0  0  0
 63 65  1  0  0  0  0
 63 74  1  0  0  0  0
 64 76  1  0  0  0  0
 66 67  1  0  0  0  0
M  CHG  1  76   1
M  ISO  4  44 100  62 101  75 100  85 101
M  END
> <Batch ID>
0089

> <Smiles>
C=C[100N:0](c1cccc(N2C(=O)C=C([101CH2:1][101O:1]c3ccc4c(c3)CN(C(=O)C(NC(=O)C(C)NC)C(C)(C)C)C(C(=O)NC3CCCc5ccccc53)C4)C2=O)c1)[100C:0](=O)N1CCCC(n2nc(-c3ccc(Oc4ccc(F)cc4F)cc3)c(C(N)=O)c2N)C1

> <Shape>
0.237

> <Color>
0.085

> <Negative vol penalty>
0.000

$$$$

  -OEChem-04052300263D

 87 96  0     1  0  0  0  0  0999 V2000
  -27.6369  -36.3411   18.3885 C   0  0  0  0  0  0  0  0  0  0  0  0
  -28.3841  -35.1812   18.2102 C   0  0  0  0  0  0  0  0  0  0  0  0
  -27.6409  -20.2595   20.2542 C   0  0  0  0  0  0  0  0  0  0  0  0
  -22.6834  -10.1377   20.4045 C   0  0  0  0  0  0  0  0  0  0  0  0
  -24.5355   -9.0314   21.4921 C   0  0  0  0  0  0  0  0  0  0  0  0
  -26.7628  -36.4465   19.4696 C   0  0  0  0  0  0  0  0  0  0  0  0
  -28.2584  -34.1264   19.1136 C   0  0  0  0  0  0  0  0  0  0  0  0
  -26.4018  -26.6457   17.8416 C   0  0  0  0  0  0  0  0  0  0  0  0
  -26.3092  -20.6242   20.0567 C   0  0  0  0  0  0  0  0  0  0  0  0
  -27.9907  -18.9115   20.3319 C   0  0  0  0  0  0  0  0  0  0  0  0
  -21.7931   -9.4872   21.2587 C   0  0  0  0  0  0  0  0  0  0  0  0
  -23.6452   -8.3809   22.3464 C   0  0  0  0  0  0  0  0  0  0  0  0
  -25.9299  -25.3353   17.7620 C   0  0  0  0  0  0  0  0  0  0  0  0
  -21.5544   -5.7272   22.2144 C   0  0  0  0  0  0  0  0  0  0  0  0
  -21.7477   -4.3637   22.4356 C   0  0  0  0  0  0  0  0  0  0  0  0
  -25.1415  -25.4692   20.0442 C   0  0  0  0  0  0  0  0  0  0  0  0
  -22.0290   -4.7868   24.7976 C   0  0  0  0  0  0  0  0  0  0  0  0
  -24.0546   -9.9098   20.5211 C   0  0  0  0  0  0  0  0  0  0  0  0
  -25.0191  -10.4984   18.2340 C   0  0  0  0  0  0  0  0  0  0  0  0
  -26.6192  -35.3888   20.3813 C   0  0  0  0  0  0  0  0  0  0  0  0
  -26.2314  -27.3789   19.0191 C   0  0  0  0  0  0  0  0  0  0  0  0
  -27.3826  -34.2184   20.2087 C   0  0  0  0  0  0  0  0  0  0  0  0
  -25.6010  -26.7864   20.1256 C   0  0  0  0  0  0  0  0  0  0  0  0
  -25.3272  -19.6409   19.9369 C   0  0  0  0  0  0  0  0  0  0  0  0
  -27.0088  -17.9281   20.2122 C   0  0  0  0  0  0  0  0  0  0  0  0
  -22.2740   -8.6088   22.2297 C   0  0  0  0  0  0  0  0  0  0  0  0
  -25.3016  -24.7484   18.8606 C   0  0  0  0  0  0  0  0  0  0  0  0
  -21.5984   -6.6206   23.2847 C   0  0  0  0  0  0  0  0  0  0  0  0
  -21.9849   -3.8935   23.7272 C   0  0  0  0  0  0  0  0  0  0  0  0
  -21.8357   -6.1504   24.5763 C   0  0  0  0  0  0  0  0  0  0  0  0
  -25.6770  -18.2928   20.0147 C   0  0  0  0  0  0  0  0  0  0  0  0
  -24.9748  -10.5811   19.6386 C   0  0  0  0  0  0  0  0  0  0  0  0
  -26.0636  -11.3148   17.8748 C   0  0  0  0  0  0  0  0  0  0  0  0
  -22.9387  -22.0419   18.9052 C   0  0  0  0  0  0  0  0  0  0  0  0
  -21.4678  -21.9524   19.1349 C   0  0  0  0  0  0  0  0  0  0  0  0
  -23.5033  -23.2559   18.9664 C   0  0  0  0  0  0  0  0  0  1  0  0
  -24.1903   -9.7504   17.3344 C   0  0  0  0  0  0  0  0  0  0  0  0
  -26.7537  -30.6289   20.8194 C   0  0  0  0  0  0  0  0  0  0  0  0
  -23.9531  -29.6313   21.5758 C   0  0  0  0  0  0  0  0  0  0  0  0
  -20.7815  -28.3999   21.8233 C   0  0  0  0  0  0  0  0  0  0  0  0
  -28.6432  -16.0305   20.4848 C   0  0  0  0  0  0  0  0  0  0  0  0
  -25.6969  -35.5676   21.5612 C   0  0  0  0  0  0  0  0  0  0  0  0
  -26.7785  -28.7723   19.1704 C   0  0  0  0  0  0  0  0  0  0  0  0
  -25.4705  -27.6013   21.3833 C   0  0  0  0  0  0  0  0  0  0  0  0
  -23.6803  -20.7928   18.5365 C   0  0  0  0  0  0  0  0  0  0  0  0
  -20.9078  -20.6601   19.6919 C   0  0  0  0  0  0  0  0  0  0  0  0
  -25.3438  -34.2583   22.2621 C   0  0  0  0  0  0  0  0  0  0  0  0
  -21.7420  -20.0637   20.8192 C   0  0  0  0  0  0  0  0  0  0  0  0
  -30.2364  -12.9979   19.5145 C   0  0  0  0  0  0  0  0  0  0  0  0
  -26.5969  -33.4179   22.4864 C   0  0  0  0  0  0  0  0  0  0  0  0
  -29.0716  -12.0281   19.3025 C   0  0  0  0  0  0  0  0  0  0  0  0
  -22.9236  -19.2107   20.3498 C   0  0  0  0  0  0  0  0  0  0  0  0
  -29.9798  -13.9453   20.6851 C   0  0  0  0  0  0  0  0  0  0  0  0
  -27.5430  -13.7068   20.4126 C   0  0  0  0  0  0  0  0  0  0  0  0
  -27.2555  -33.0429   21.1533 C   0  0  1  0  0  0  0  0  0  0  0  0
  -25.8910  -29.6777   20.0432 C   0  0  1  0  0  0  0  0  0  0  0  0
  -27.7272  -12.7753   19.2034 C   0  0  2  0  0  0  0  0  0  0  0  0
  -18.5698  -28.8591   22.9164 C   0  0  0  0  0  0  0  0  0  0  0  0
  -25.0570  -28.6104   24.2297 C   0  0  0  0  0  0  0  0  0  0  0  0
  -22.7014  -28.1914   24.9671 C   0  0  0  0  0  0  0  0  0  0  0  0
  -23.4450  -30.5117   24.4322 C   0  0  0  0  0  0  0  0  0  0  0  0
  -19.4160  -28.6719   19.2117 C   0  0  0  0  0  0  0  0  0  0  0  0
  -23.1086  -28.8538   22.5533 C   0  0  1  0  0  0  0  0  0  0  0  0
  -19.4266  -29.0690   21.6776 C   0  0  2  0  0  0  0  0  0  0  0  0
  -23.5881  -29.0299   24.0218 C   0  0  0  0  0  0  0  0  0  0  0  0
  -25.9163  -11.3864   20.1377 N   0  0  0  0  0  0  0  0  0  0  0  0
  -26.5621  -11.8171   19.0407 N   0  0  0  0  0  0  0  0  0  0  0  0
  -23.9904  -20.0102   19.7381 N   0  0  1  0  0  0  0  0  0  0  0  0
  -25.0751  -28.9789   21.0506 N   0  0  0  0  0  0  0  0  0  0  0  0
  -28.6908  -14.6209   20.5209 N   0  0  0  0  0  0  0  0  0  0  0  0
  -26.5950  -11.6448   16.6785 N   0  0  0  0  0  0  0  0  0  0  0  0
  -23.1627   -8.9628   17.8711 N   0  0  0  0  0  0  0  0  0  0  0  0
  -27.3675  -16.5596   20.2918 N   0  0  0  0  0  0  0  0  0  0  0  0
  -26.5340  -31.9599   20.5201 N   0  0  0  0  0  0  0  0  0  0  0  0
  -21.7293  -29.2687   22.3213 N   0  0  0  0  0  0  0  0  0  0  0  0
  -18.6980  -28.5130   20.5025 N   0  3  0  0  0  0  0  0  0  0  0  0
  -20.7201  -22.8847   18.8391 O   0  0  0  0  0  0  0  0  0  0  0  0
  -24.3664   -9.7669   16.0925 O   0  0  0  0  0  0  0  0  0  0  0  0
  -27.5588  -30.1889   21.6317 O   0  0  0  0  0  0  0  0  0  0  0  0
  -23.6323  -30.7879   21.2883 O   0  0  0  0  0  0  0  0  0  0  0  0
  -20.9783  -27.2230   21.5285 O   0  0  0  0  0  0  0  0  0  0  0  0
  -29.6629  -16.7172   20.5883 O   0  0  0  0  0  0  0  0  0  0  0  0
  -21.4056   -7.9740   23.0636 O   0  0  0  0  0  0  0  0  0  0  0  0
  -24.8393  -23.4703   18.7746 O   0  0  0  0  0  0  0  0  0  1  0  0
  -22.1690   -2.5838   23.9397 F   0  0  0  0  0  0  0  0  0  0  0  0
  -21.8780   -7.0037   25.6088 F   0  0  0  0  0  0  0  0  0  0  0  0
  -24.7320  -17.3471   19.8991 F   0  0  0  0  0  0  0  0  0  0  0  0
  1  2  1  0  0  0  0
  1  6  2  0  0  0  0
  2  7  2  0  0  0  0
  3  9  2  0  0  0  0
  3 10  1  0  0  0  0
  4 11  2  0  0  0  0
  4 18  1  0  0  0  0
  5 12  1  0  0  0  0
  5 18  2  0  0  0  0
  6 20  1  0  0  0  0
  7 22  1  0  0  0  0
  8 13  2  0  0  0  0
  8 21  1  0  0  0  0
  9 24  1  0  0  0  0
 10 25  2  0  0  0  0
 11 26  1  0  0  0  0
 12 26  2  0  0  0  0
 13 27  1  0  0  0  0
 14 15  2  0  0  0  0
 14 28  1  0  0  0  0
 15 29  1  0  0  0  0
 16 23  1  0  0  0  0
 16 27  2  0  0  0  0
 17 29  2  0  0  0  0
 17 30  1  0  0  0  0
 18 32  1  0  0  0  0
 19 32  1  0  0  0  0
 19 33  2  0  0  0  0
 19 37  1  0  0  0  0
 20 22  2  0  0  0  0
 20 42  1  0  0  0  0
 21 23  2  0  0  0  0
 21 43  1  0  0  0  0
 22 55  1  0  0  0  0
 23 44  1  0  0  0  0
 24 31  2  0  0  0  0
 24 68  1  0  0  0  0
 25 31  1  0  0  0  0
 25 73  1  0  0  0  0
 26 83  1  0  0  0  0
 27 84  1  0  0  0  0
 28 30  2  0  0  0  0
 28 83  1  0  0  0  0
 29 85  1  0  0  0  0
 30 86  1  0  0  0  0
 31 87  1  0  0  0  0
 32 66  2  0  0  0  0
 33 67  1  0  0  0  0
 33 71  1  0  0  0  0
 34 35  1  0  0  0  0
 34 36  2  0  0  0  0
 34 45  1  0  0  0  0
 35 46  1  0  0  0  0
 35 77  2  0  0  0  0
 36 84  1  0  0  0  0
 37 72  1  0  0  0  0
 37 78  2  0  0  0  0
 38 56  1  0  0  0  0
 38 74  1  0  0  0  0
 38 79  2  0  0  0  0
 39 63  1  0  0  0  0
 39 69  1  0  0  0  0
 39 80  2  0  0  0  0
 40 64  1  0  0  0  0
 40 75  1  0  0  0  0
 40 81  2  0  0  0  0
 41 70  1  0  0  0  0
 41 73  1  0  0  0  0
 41 82  2  0  0  0  0
 42 47  1  0  0  0  0
 43 56  1  0  0  0  0
 44 69  1  0  0  0  0
 45 68  1  0  0  0  0
 46 48  1  0  0  0  0
 47 50  1  0  0  0  0
 48 52  1  0  0  0  0
 49 51  1  0  0  0  0
 49 53  1  0  0  0  0
 50 55  1  0  0  0  0
 51 57  1  0  0  0  0
 52 68  1  0  0  0  0
 53 70  1  0  0  0  0
 54 57  1  0  0  0  0
 54 70  1  0  0  0  0
 55 74  1  0  0  0  0
 56 69  1  0  0  0  0
 57 67  1  0  0  0  0
 58 64  1  0  0  0  0
 59 65  1  0  0  0  0
 60 65  1  0  0  0  0
 61 65  1  0  0  0  0
 62 76  1  0  0  0  0
 63 65  1  0  0  0  0
 63 75  1  0  0  0  0
 64 76  1  0  0  0  0
 66 67  1  0  0  0  0
M  CHG  1  76   1
M  ISO  4  36 101  41 100  73 100  84 101
M  END
> <Batch ID>
0089

> <Smiles>
CNC(C)C(=O)NC(C(=O)N1Cc2cc([101O:1][101CH:1]=C3CN(c4cccc([100NH:0][100C:0](=O)N5CCCC(n6nc(-c7ccc(Oc8ccc(F)cc8F)cc7)c(C(N)=O)c6N)C5)c4F)CCCC3=O)ccc2CC1C(=O)NC1CCCc2ccccc21)C(C)(C)C

> <Shape>
0.256

> <Color>
0.106

> <Negative vol penalty>
0.000

$$$$

  -OEChem-04052300263D

 86 94  0     1  0  0  0  0  0999 V2000
  -29.5464  -37.6682   22.6544 C   0  0  0  0  0  0  0  0  0  0  0  0
  -29.3430  -36.3935   22.1356 C   0  0  0  0  0  0  0  0  0  0  0  0
  -24.4444   -9.3569   21.5977 C   0  0  0  0  0  0  0  0  0  0  0  0
  -24.6092  -10.6700   23.6190 C   0  0  0  0  0  0  0  0  0  0  0  0
  -29.8514  -20.8818   21.2795 C   0  0  0  0  0  0  0  0  0  0  0  0
  -28.9750  -38.0217   23.8760 C   0  0  0  0  0  0  0  0  0  0  0  0
  -28.5691  -35.4711   22.8389 C   0  0  0  0  0  0  0  0  0  0  0  0
  -24.8673  -31.2059   20.4702 C   0  0  0  0  0  0  0  0  0  0  0  0
  -29.8142  -19.5388   20.9049 C   0  0  0  0  0  0  0  0  0  0  0  0
  -24.0914   -8.2387   22.3529 C   0  0  0  0  0  0  0  0  0  0  0  0
  -24.2561   -9.5517   24.3743 C   0  0  0  0  0  0  0  0  0  0  0  0
  -25.0381  -29.8428   20.2325 C   0  0  0  0  0  0  0  0  0  0  0  0
  -21.3277   -7.0427   23.8906 C   0  0  0  0  0  0  0  0  0  0  0  0
  -20.2599   -6.2667   23.4397 C   0  0  0  0  0  0  0  0  0  0  0  0
  -27.4363  -20.9461   21.2894 C   0  0  0  0  0  0  0  0  0  0  0  0
  -23.9637  -29.3477   22.3348 C   0  0  0  0  0  0  0  0  0  0  0  0
  -21.7238   -4.3525   23.2675 C   0  0  0  0  0  0  0  0  0  0  0  0
  -24.7034  -10.5727   22.2308 C   0  0  0  0  0  0  0  0  0  0  0  0
  -28.6625  -21.5855   21.4718 C   0  0  0  0  0  0  0  0  0  0  0  0
  -24.2015  -12.6890   20.8979 C   0  0  0  0  0  0  0  0  0  0  0  0
  -28.1857  -37.1064   24.5900 C   0  0  0  0  0  0  0  0  0  0  0  0
  -24.2521  -31.6513   21.6490 C   0  0  0  0  0  0  0  0  0  0  0  0
  -27.9877  -35.8123   24.0719 C   0  0  0  0  0  0  0  0  0  0  0  0
  -23.7839  -30.7169   22.5838 C   0  0  0  0  0  0  0  0  0  0  0  0
  -28.5880  -18.8994   20.7224 C   0  0  0  0  0  0  0  0  0  0  0  0
  -23.9972   -8.3360   23.7412 C   0  0  0  0  0  0  0  0  0  0  0  0
  -24.5889  -28.9135   21.1662 C   0  0  0  0  0  0  0  0  0  0  0  0
  -22.5936   -6.4736   24.0299 C   0  0  0  0  0  0  0  0  0  0  0  0
  -20.4580   -4.9216   23.1282 C   0  0  0  0  0  0  0  0  0  0  0  0
  -27.3991  -19.6030   20.9146 C   0  0  0  0  0  0  0  0  0  0  0  0
  -22.7916   -5.1285   23.7183 C   0  0  0  0  0  0  0  0  0  0  0  0
  -25.0687  -11.7281   21.4512 C   0  0  0  0  0  0  0  0  0  0  0  0
  -25.0336  -13.5736   20.2564 C   0  0  0  0  0  0  0  0  0  0  0  0
  -25.9042  -26.9915   21.3819 C   0  0  0  0  0  0  0  0  0  1  0  0
  -28.7023  -23.0156   21.8706 C   0  0  0  0  0  0  0  0  0  0  0  0
  -22.7715  -12.7745   20.9584 C   0  0  0  0  0  0  0  0  0  0  0  0
  -26.1713  -25.6912   21.2114 C   0  0  0  0  0  0  0  0  0  0  0  0
  -27.4594  -25.1433   21.7367 C   0  0  0  0  0  0  0  0  0  0  0  0
  -25.1626  -33.4313   24.1200 C   0  0  0  0  0  0  0  0  0  0  0  0
  -22.0468  -33.1440   24.9756 C   0  0  0  0  0  0  0  0  0  0  0  0
  -19.1377  -31.3714   24.7708 C   0  0  0  0  0  0  0  0  0  0  0  0
  -29.6422  -16.6949   20.1098 C   0  0  0  0  0  0  0  0  0  0  0  0
  -27.6279  -37.5187   25.9292 C   0  0  0  0  0  0  0  0  0  0  0  0
  -24.0513  -33.1242   21.8780 C   0  0  0  0  0  0  0  0  0  0  0  0
  -23.0987  -31.1428   23.8557 C   0  0  0  0  0  0  0  0  0  0  0  0
  -26.5119  -36.6061   26.4312 C   0  0  0  0  0  0  0  0  0  0  0  0
  -29.9732  -13.2704   19.1932 C   0  0  0  0  0  0  0  0  0  0  0  0
  -26.9062  -35.1415   26.2687 C   0  0  0  0  0  0  0  0  0  0  0  0
  -28.6554  -12.6429   19.6534 C   0  0  0  0  0  0  0  0  0  0  0  0
  -30.4571  -14.3479   20.1619 C   0  0  0  0  0  0  0  0  0  0  0  0
  -28.1543  -14.7646   20.9317 C   0  0  0  0  0  0  0  0  0  0  0  0
  -27.1339  -34.7920   24.7931 C   0  0  1  0  0  0  0  0  0  0  0  0
  -23.8730  -33.4811   23.3505 C   0  0  1  0  0  0  0  0  0  0  0  0
  -27.5936  -13.7189   19.9541 C   0  0  2  0  0  0  0  0  0  0  0  0
  -16.7726  -31.3635   25.6095 C   0  0  0  0  0  0  0  0  0  0  0  0
  -23.0143  -32.1338   27.6873 C   0  0  0  0  0  0  0  0  0  0  0  0
  -20.7047  -31.2645   28.1094 C   0  0  0  0  0  0  0  0  0  0  0  0
  -21.0761  -33.7108   27.7925 C   0  0  0  0  0  0  0  0  0  0  0  0
  -18.0426  -31.5967   22.0305 C   0  0  0  0  0  0  0  0  0  0  0  0
  -21.2511  -32.1623   25.8015 C   0  0  1  0  0  0  0  0  0  0  0  0
  -17.7097  -31.8074   24.4970 C   0  0  2  0  0  0  0  0  0  0  0  0
  -21.5262  -32.3096   27.3247 C   0  0  0  0  0  0  0  0  0  0  0  0
  -26.3533  -11.9784   21.1845 N   0  0  0  0  0  0  0  0  0  0  0  0
  -26.2994  -13.1067   20.4564 N   0  0  0  0  0  0  0  0  0  0  0  0
  -22.9315  -32.5942   24.0370 N   0  0  0  0  0  0  0  0  0  0  0  0
  -29.4004  -15.3346   20.3960 N   0  0  0  0  0  0  0  0  0  0  0  0
  -24.7988  -14.6975   19.5463 N   0  0  0  0  0  0  0  0  0  0  0  0
  -22.0720  -11.7825   21.6590 N   0  0  0  0  0  0  0  0  0  0  0  0
  -28.5536  -17.5351   20.3411 N   0  0  0  0  0  0  0  0  0  0  0  0
  -27.6008  -23.7796   21.4874 N   0  0  0  0  0  0  0  0  0  0  0  0
  -25.8680  -34.6195   24.1134 N   0  0  0  0  0  0  0  0  0  0  0  0
  -19.8541  -32.3508   25.4257 N   0  0  0  0  0  0  0  0  0  0  0  0
  -17.2265  -31.2228   23.2142 N   0  3  0  0  0  0  0  0  0  0  0  0
  -29.6840  -23.4412   22.4732 O   0  0  0  0  0  0  0  0  0  0  0  0
  -22.1319  -13.6940   20.3937 O   0  0  0  0  0  0  0  0  0  0  0  0
  -28.2777  -25.8473   22.3214 O   0  0  0  0  0  0  0  0  0  0  0  0
  -25.4924  -32.3922   24.6797 O   0  0  0  0  0  0  0  0  0  0  0  0
  -21.8840  -34.3540   25.1516 O   0  0  0  0  0  0  0  0  0  0  0  0
  -19.5731  -30.2706   24.4403 O   0  0  0  0  0  0  0  0  0  0  0  0
  -30.7258  -17.0817   19.6647 O   0  0  0  0  0  0  0  0  0  0  0  0
  -25.3052  -24.8308   20.5689 O   0  0  0  0  0  0  0  0  0  0  0  0
  -23.6525   -7.2451   24.4784 O   0  0  0  0  0  0  0  0  0  0  0  0
  -24.7550  -27.5825   20.9370 O   0  0  0  0  0  0  0  0  0  1  0  0
  -19.4321   -4.1762   22.6966 F   0  0  0  0  0  0  0  0  0  0  0  0
  -26.2145  -18.9990   20.7416 F   0  0  0  0  0  0  0  0  0  0  0  0
  -24.0052   -4.5758   23.8512 F   0  0  0  0  0  0  0  0  0  0  0  0
  1  2  1  0  0  0  0
  1  6  2  0  0  0  0
  2  7  2  0  0  0  0
  3 10  2  0  0  0  0
  3 18  1  0  0  0  0
  4 11  1  0  0  0  0
  4 18  2  0  0  0  0
  5  9  2  0  0  0  0
  5 19  1  0  0  0  0
  6 21  1  0  0  0  0
  7 23  1  0  0  0  0
  8 12  2  0  0  0  0
  8 22  1  0  0  0  0
  9 25  1  0  0  0  0
 10 26  1  0  0  0  0
 11 26  2  0  0  0  0
 12 27  1  0  0  0  0
 13 14  2  0  0  0  0
 13 28  1  0  0  0  0
 14 29  1  0  0  0  0
 15 19  2  0  0  0  0
 15 30  1  0  0  0  0
 16 24  1  0  0  0  0
 16 27  2  0  0  0  0
 17 29  2  0  0  0  0
 17 31  1  0  0  0  0
 18 32  1  0  0  0  0
 19 35  1  0  0  0  0
 20 32  1  0  0  0  0
 20 33  2  0  0  0  0
 20 36  1  0  0  0  0
 21 23  2  0  0  0  0
 21 43  1  0  0  0  0
 22 24  2  0  0  0  0
 22 44  1  0  0  0  0
 23 52  1  0  0  0  0
 24 45  1  0  0  0  0
 25 30  2  0  0  0  0
 25 69  1  0  0  0  0
 26 82  1  0  0  0  0
 27 83  1  0  0  0  0
 28 31  2  0  0  0  0
 28 82  1  0  0  0  0
 29 84  1  0  0  0  0
 30 85  1  0  0  0  0
 31 86  1  0  0  0  0
 32 63  2  0  0  0  0
 33 64  1  0  0  0  0
 33 67  1  0  0  0  0
 34 37  2  0  0  0  0
 34 83  1  0  0  0  0
 35 70  1  0  0  0  0
 35 74  2  0  0  0  0
 36 68  1  0  0  0  0
 36 75  2  0  0  0  0
 37 38  1  0  0  0  0
 37 81  1  0  0  0  0
 38 70  1  0  0  0  0
 38 76  2  0  0  0  0
 39 53  1  0  0  0  0
 39 71  1  0  0  0  0
 39 77  2  0  0  0  0
 40 60  1  0  0  0  0
 40 65  1  0  0  0  0
 40 78  2  0  0  0  0
 41 61  1  0  0  0  0
 41 72  1  0  0  0  0
 41 79  2  0  0  0  0
 42 66  1  0  0  0  0
 42 69  1  0  0  0  0
 42 80  2  0  0  0  0
 43 46  1  0  0  0  0
 44 53  1  0  0  0  0
 45 65  1  0  0  0  0
 46 48  1  0  0  0  0
 47 49  1  0  0  0  0
 47 50  1  0  0  0  0
 48 52  1  0  0  0  0
 49 54  1  0  0  0  0
 50 66  1  0  0  0  0
 51 54  1  0  0  0  0
 51 66  1  0  0  0  0
 52 71  1  0  0  0  0
 53 65  1  0  0  0  0
 54 64  1  0  0  0  0
 55 61  1  0  0  0  0
 56 62  1  0  0  0  0
 57 62  1  0  0  0  0
 58 62  1  0  0  0  0
 59 73  1  0  0  0  0
 60 62  1  0  0  0  0
 60 72  1  0  0  0  0
 61 73  1  0  0  0  0
 63 64  1  0  0  0  0
M  CHG  1  73   1
M  ISO  4  34 101  42 100  69 100  83 101
M  END
> <Batch ID>
0089

> <Smiles>
CNC(C)C(=O)NC(C(=O)N1Cc2cc([101O:1][101CH2:1]C(=O)C(=O)NC(=O)c3ccc([100NH:0][100C:0](=O)N4CCCC(n5nc(-c6ccc(Oc7ccc(F)cc7F)cc6)c(C(N)=O)c5N)C4)c(F)c3)ccc2CC1C(=O)NC1CCCc2ccccc21)C(C)(C)C

> <Shape>
0.289

> <Color>
0.105

> <Negative vol penalty>
0.000

$$$$

  -OEChem-04052300263D

 90 99  0     1  0  0  0  0  0999 V2000
  -20.1124  -24.1223   23.3219 C   0  0  0  0  0  0  0  0  0  0  0  0
  -21.3996  -24.5536   23.0177 C   0  0  0  0  0  0  0  0  0  0  0  0
  -23.9713   -8.5522   19.4211 C   0  0  0  0  0  0  0  0  0  0  0  0
  -24.4662   -9.1411   21.7113 C   0  0  0  0  0  0  0  0  0  0  0  0
  -19.0358  -24.9987   23.1917 C   0  0  0  0  0  0  0  0  0  0  0  0
  -21.6108  -25.8613   22.5821 C   0  0  0  0  0  0  0  0  0  0  0  0
  -25.5748  -28.0484   24.8512 C   0  0  0  0  0  0  0  0  0  0  0  0
  -22.8308   -7.8691   19.8431 C   0  0  0  0  0  0  0  0  0  0  0  0
  -23.3256   -8.4581   22.1334 C   0  0  0  0  0  0  0  0  0  0  0  0
  -26.8439  -27.6983   24.3925 C   0  0  0  0  0  0  0  0  0  0  0  0
  -22.4027   -5.2527   22.6854 C   0  0  0  0  0  0  0  0  0  0  0  0
  -22.5219   -4.4158   23.7949 C   0  0  0  0  0  0  0  0  0  0  0  0
  -26.9317  -29.7332   23.1000 C   0  0  0  0  0  0  0  0  0  0  0  0
  -26.8252  -22.2864   19.6401 C   0  0  0  0  0  0  0  0  0  0  0  0
  -29.0761  -21.4832   19.2865 C   0  0  0  0  0  0  0  0  0  0  0  0
  -20.8609   -5.7260   24.9617 C   0  0  0  0  0  0  0  0  0  0  0  0
  -24.7891   -9.1881   20.3552 C   0  0  0  0  0  0  0  0  0  0  0  0
  -27.1937  -20.0313   18.8559 C   0  0  0  0  0  0  0  0  0  0  0  0
  -27.0710   -9.3591   19.2276 C   0  0  0  0  0  0  0  0  0  0  0  0
  -19.2352  -26.3206   22.7635 C   0  0  0  0  0  0  0  0  0  0  0  0
  -24.9690  -29.2404   24.4285 C   0  0  0  0  0  0  0  0  0  0  0  0
  -20.5357  -26.7558   22.4448 C   0  0  0  0  0  0  0  0  0  0  0  0
  -25.6558  -30.0975   23.5568 C   0  0  0  0  0  0  0  0  0  0  0  0
  -26.3205  -21.0508   19.2351 C   0  0  0  0  0  0  0  0  0  0  0  0
  -28.2030  -22.5027   19.6658 C   0  0  0  0  0  0  0  0  0  0  0  0
  -22.5079   -7.8221   21.1993 C   0  0  0  0  0  0  0  0  0  0  0  0
  -27.5214  -28.5393   23.5145 C   0  0  0  0  0  0  0  0  0  0  0  0
  -21.5126   -6.3263   22.7140 C   0  0  0  0  0  0  0  0  0  0  0  0
  -21.7510   -4.6524   24.9330 C   0  0  0  0  0  0  0  0  0  0  0  0
  -28.5715  -20.2474   18.8815 C   0  0  0  0  0  0  0  0  0  0  0  0
  -20.7417   -6.5630   23.8522 C   0  0  0  0  0  0  0  0  0  0  0  0
  -25.9677   -9.8934   19.9199 C   0  0  0  0  0  0  0  0  0  0  0  0
  -27.9152  -10.4279   19.0500 C   0  0  0  0  0  0  0  0  0  0  0  0
  -29.9797  -23.8834   20.7124 C   0  0  0  0  0  0  0  0  0  0  0  0
  -26.6772  -18.7156   18.4241 C   0  0  0  0  0  0  0  0  0  0  0  0
  -27.3111   -8.0168   18.7847 C   0  0  0  0  0  0  0  0  0  0  0  0
  -22.3315  -29.9644   22.8088 C   0  0  0  0  0  0  0  0  0  0  0  0
  -23.1717  -33.0056   23.5623 C   0  0  0  0  0  0  0  0  0  0  0  0
  -26.2134  -34.9417   23.6928 C   0  0  0  0  0  0  0  0  0  0  0  0
  -26.6452  -16.2686   18.8580 C   0  0  0  0  0  0  0  0  0  0  0  0
  -18.0345  -27.2173   22.5928 C   0  0  0  0  0  0  0  0  0  0  0  0
  -23.6105  -29.6166   24.9534 C   0  0  0  0  0  0  0  0  0  0  0  0
  -25.0578  -31.3981   23.0889 C   0  0  0  0  0  0  0  0  0  0  0  0
  -30.5547  -25.2729   20.8706 C   0  0  0  0  0  0  0  0  0  0  0  0
  -18.3905  -28.6977   22.4839 C   0  0  0  0  0  0  0  0  0  0  0  0
  -29.1729  -14.5894   20.9906 C   0  0  0  0  0  0  0  0  0  0  0  0
  -19.5464  -28.8985   21.5091 C   0  0  0  0  0  0  0  0  0  0  0  0
  -28.6716  -13.1501   20.9476 C   0  0  0  0  0  0  0  0  0  0  0  0
  -28.0322  -15.6016   20.8943 C   0  0  0  0  0  0  0  0  0  0  0  0
  -27.8207  -24.9402   20.0272 C   0  0  0  0  0  0  0  0  0  0  0  0
  -26.6525  -13.9428   19.6611 C   0  0  0  0  0  0  0  0  0  0  0  0
  -28.5322  -26.2721   19.9137 C   0  0  0  0  0  0  0  0  0  0  0  0
  -20.8084  -28.1741   21.9930 C   0  0  1  0  0  0  0  0  0  0  0  0
  -22.8754  -30.6057   24.0541 C   0  0  1  0  0  0  0  0  0  0  0  0
  -27.7998  -12.9233   19.7043 C   0  0  2  0  0  0  0  0  0  0  0  0
  -24.8413  -20.8436   19.2158 C   0  0  0  0  0  0  0  0  0  0  0  0
  -26.8151  -36.9430   25.0821 C   0  0  0  0  0  0  0  0  0  0  0  0
  -22.2248  -34.6072   21.1440 C   0  0  0  0  0  0  0  0  0  0  0  0
  -24.1007  -36.2122   21.5599 C   0  0  0  0  0  0  0  0  0  0  0  0
  -22.3214  -35.9032   23.2807 C   0  0  0  0  0  0  0  0  0  0  0  0
  -28.6255  -33.6108   24.7740 C   0  0  0  0  0  0  0  0  0  0  0  0
  -30.1394  -27.7096   21.1570 C   0  0  0  0  0  0  0  0  0  0  0  0
  -29.1285  -28.6612   21.7658 C   0  0  0  0  0  0  0  0  0  1  0  0
  -24.0244  -34.0705   22.9158 C   0  0  1  0  0  0  0  0  0  0  0  0
  -26.9252  -35.4328   24.9404 C   0  0  2  0  0  0  0  0  0  0  0  0
  -23.1731  -35.1706   22.2212 C   0  0  0  0  0  0  0  0  0  0  0  0
  -26.0966  -11.2000   20.1654 N   0  0  0  0  0  0  0  0  0  0  0  0
  -27.2908  -11.4957   19.6246 N   0  0  0  0  0  0  0  0  0  0  0  0
  -28.7265  -23.7835   20.0858 N   0  0  0  0  0  0  0  0  0  0  0  0
  -23.7247  -31.7188   23.6252 N   0  0  0  0  0  0  0  0  0  0  0  0
  -27.1403  -15.3226   19.7604 N   0  0  0  0  0  0  0  0  0  0  0  0
  -29.1234  -10.5490   18.4600 N   0  0  0  0  0  0  0  0  0  0  0  0
  -27.9723   -7.1356   19.6510 N   0  0  0  0  0  0  0  0  0  0  0  0
  -27.0461  -17.6330   19.1263 N   0  0  0  0  0  0  0  0  0  0  0  0
  -21.4502  -28.9276   23.0489 N   0  0  0  0  0  0  0  0  0  0  0  0
  -24.9120  -34.5719   23.9594 N   0  0  0  0  0  0  0  0  0  0  0  0
  -25.8790  -18.6863   17.3571 N   0  3  0  0  0  0  0  0  0  0  0  0
  -29.5227  -26.3455   21.0304 N   0  3  2  0  0  0  0  0  0  0  0  0
  -28.3696  -35.0696   24.8896 N   0  3  0  0  0  0  0  0  0  0  0  0
  -30.6679  -22.9310   21.0908 O   0  0  0  0  0  0  0  0  0  0  0  0
  -26.9647   -7.6156   17.6478 O   0  0  0  0  0  0  0  0  0  0  0  0
  -22.6841  -30.3806   21.7115 O   0  0  0  0  0  0  0  0  0  0  0  0
  -22.0590  -33.3061   24.0018 O   0  0  0  0  0  0  0  0  0  0  0  0
  -26.7562  -34.8946   22.5912 O   0  0  0  0  0  0  0  0  0  0  0  0
  -25.9008  -16.0316   17.9126 O   0  0  0  0  0  0  0  0  0  0  0  0
  -21.3949   -7.1558   21.6115 O   0  0  0  0  0  0  0  0  0  0  0  0
  -28.7600  -28.1996   23.0648 O   0  0  0  0  0  0  0  0  0  1  0  0
  -21.8645   -3.8477   25.9978 F   0  0  0  0  0  0  0  0  0  0  0  0
  -29.4192  -19.2743   18.5191 F   0  0  0  0  0  0  0  0  0  0  0  0
  -19.8841   -7.5921   23.8852 F   0  0  0  0  0  0  0  0  0  0  0  0
  1  2  1  0  0  0  0
  1  5  2  0  0  0  0
  2  6  2  0  0  0  0
  3  8  2  0  0  0  0
  3 17  1  0  0  0  0
  4  9  1  0  0  0  0
  4 17  2  0  0  0  0
  5 20  1  0  0  0  0
  6 22  1  0  0  0  0
  7 10  2  0  0  0  0
  7 21  1  0  0  0  0
  8 26  1  0  0  0  0
  9 26  2  0  0  0  0
 10 27  1  0  0  0  0
 11 12  2  0  0  0  0
 11 28  1  0  0  0  0
 12 29  1  0  0  0  0
 13 23  1  0  0  0  0
 13 27  2  0  0  0  0
 14 24  2  0  0  0  0
 14 25  1  0  0  0  0
 15 25  2  0  0  0  0
 15 30  1  0  0  0  0
 16 29  2  0  0  0  0
 16 31  1  0  0  0  0
 17 32  1  0  0  0  0
 18 24  1  0  0  0  0
 18 30  2  0  0  0  0
 18 35  1  0  0  0  0
 19 32  1  0  0  0  0
 19 33  2  0  0  0  0
 19 36  1  0  0  0  0
 20 22  2  0  0  0  0
 20 41  1  0  0  0  0
 21 23  2  0  0  0  0
 21 42  1  0  0  0  0
 22 53  1  0  0  0  0
 23 43  1  0  0  0  0
 24 56  1  0  0  0  0
 25 69  1  0  0  0  0
 26 86  1  0  0  0  0
 27 87  1  0  0  0  0
 28 31  2  0  0  0  0
 28 86  1  0  0  0  0
 29 88  1  0  0  0  0
 30 89  1  0  0  0  0
 31 90  1  0  0  0  0
 32 67  2  0  0  0  0
 33 68  1  0  0  0  0
 33 72  1  0  0  0  0
 34 44  1  0  0  0  0
 34 69  1  0  0  0  0
 34 80  2  0  0  0  0
 35 74  1  0  0  0  0
 35 77  2  0  0  0  0
 36 73  1  0  0  0  0
 36 81  2  0  0  0  0
 37 54  1  0  0  0  0
 37 75  1  0  0  0  0
 37 82  2  0  0  0  0
 38 64  1  0  0  0  0
 38 70  1  0  0  0  0
 38 83  2  0  0  0  0
 39 65  1  0  0  0  0
 39 76  1  0  0  0  0
 39 84  2  0  0  0  0
 40 71  1  0  0  0  0
 40 74  1  0  0  0  0
 40 85  2  0  0  0  0
 41 45  1  0  0  0  0
 42 54  1  0  0  0  0
 43 70  1  0  0  0  0
 44 78  1  0  0  0  0
 45 47  1  0  0  0  0
 46 48  1  0  0  0  0
 46 49  1  0  0  0  0
 47 53  1  0  0  0  0
 48 55  1  0  0  0  0
 49 71  1  0  0  0  0
 50 52  1  0  0  0  0
 50 69  1  0  0  0  0
 51 55  1  0  0  0  0
 51 71  1  0  0  0  0
 52 78  1  0  0  0  0
 53 75  1  0  0  0  0
 54 70  1  0  0  0  0
 55 68  1  0  0  0  0
 57 65  1  0  0  0  0
 58 66  1  0  0  0  0
 59 66  1  0  0  0  0
 60 66  1  0  0  0  0
 61 79  1  0  0  0  0
 62 63  1  0  0  0  0
 62 78  1  0  0  0  0
 63 87  1  0  0  0  0
 64 66  1  0  0  0  0
 64 76  1  0  0  0  0
 65 79  1  0  0  0  0
 67 68  1  0  0  0  0
M  CHG  3  77   1  78   1  79   1
M  ISO  4  40 100  63 101  74 100  87 101
M  END
> <Batch ID>
0089

> <Smiles>
CNC(C)C(=O)NC(C(=O)N1Cc2cc([101O:1][101CH2:1]CN3CCN(c4cc(C)c(C(=N)[100NH:0][100C:0](=O)N5CCCC(n6nc(-c7ccc(Oc8ccc(F)cc8F)cc7)c(C(N)=O)c6N)C5)c(F)c4)C(=O)C3)ccc2CC1C(=O)NC1CCCc2ccccc21)C(C)(C)C

> <Shape>
0.315

> <Color>
0.105

> <Negative vol penalty>
0.000

$$$$

  -OEChem-04052300263D

 86 94  0     1  0  0  0  0  0999 V2000
  -29.6958  -35.9449   24.1048 C   0  0  0  0  0  0  0  0  0  0  0  0
  -29.7963  -35.0191   23.0714 C   0  0  0  0  0  0  0  0  0  0  0  0
  -24.3571   -9.2395   22.4685 C   0  0  0  0  0  0  0  0  0  0  0  0
  -23.8675  -10.0084   20.2310 C   0  0  0  0  0  0  0  0  0  0  0  0
  -30.4006  -20.6678   21.8669 C   0  0  0  0  0  0  0  0  0  0  0  0
  -28.9518  -35.6388   25.2435 C   0  0  0  0  0  0  0  0  0  0  0  0
  -29.1538  -33.7860   23.1765 C   0  0  0  0  0  0  0  0  0  0  0  0
  -26.6021  -30.5651   18.6355 C   0  0  0  0  0  0  0  0  0  0  0  0
  -30.4731  -21.9743   22.3497 C   0  0  0  0  0  0  0  0  0  0  0  0
  -23.1663   -8.5132   22.4795 C   0  0  0  0  0  0  0  0  0  0  0  0
  -22.6767   -9.2821   20.2420 C   0  0  0  0  0  0  0  0  0  0  0  0
  -27.0582  -29.4861   17.8795 C   0  0  0  0  0  0  0  0  0  0  0  0
  -22.0246   -5.5825   21.2383 C   0  0  0  0  0  0  0  0  0  0  0  0
  -22.0676   -4.2745   21.7208 C   0  0  0  0  0  0  0  0  0  0  0  0
  -29.5619  -21.4939   19.7571 C   0  0  0  0  0  0  0  0  0  0  0  0
  -25.9045  -27.9697   19.3590 C   0  0  0  0  0  0  0  0  0  0  0  0
  -20.4740   -4.8565   23.4409 C   0  0  0  0  0  0  0  0  0  0  0  0
  -24.7077   -9.9872   21.3443 C   0  0  0  0  0  0  0  0  0  0  0  0
  -29.9451  -20.4275   20.5705 C   0  0  0  0  0  0  0  0  0  0  0  0
  -27.2015  -10.2924   20.9025 C   0  0  0  0  0  0  0  0  0  0  0  0
  -28.2918  -34.4052   25.3585 C   0  0  0  0  0  0  0  0  0  0  0  0
  -25.8015  -30.3536   19.7671 C   0  0  0  0  0  0  0  0  0  0  0  0
  -28.4013  -33.4625   24.3184 C   0  0  0  0  0  0  0  0  0  0  0  0
  -25.4375  -29.0479   20.1261 C   0  0  0  0  0  0  0  0  0  0  0  0
  -30.0899  -23.0407   21.5363 C   0  0  0  0  0  0  0  0  0  0  0  0
  -29.6343  -22.8005   20.2400 C   0  0  0  0  0  0  0  0  0  0  0  0
  -22.3261   -8.5344   21.3662 C   0  0  0  0  0  0  0  0  0  0  0  0
  -26.7118  -28.1880   18.2429 C   0  0  0  0  0  0  0  0  0  0  0  0
  -21.2064   -6.5276   21.8572 C   0  0  0  0  0  0  0  0  0  0  0  0
  -21.2923   -3.9115   22.8220 C   0  0  0  0  0  0  0  0  0  0  0  0
  -20.4310   -6.1646   22.9584 C   0  0  0  0  0  0  0  0  0  0  0  0
  -25.9373  -10.7381   21.3325 C   0  0  0  0  0  0  0  0  0  0  0  0
  -28.0289  -11.3723   21.0916 C   0  0  0  0  0  0  0  0  0  0  0  0
  -29.8685  -19.0430   20.0594 C   0  0  0  0  0  0  0  0  0  0  0  0
  -27.5929   -9.0164   20.3788 C   0  0  0  0  0  0  0  0  0  0  0  0
  -28.4523  -25.1135   17.5174 C   0  0  0  0  0  0  0  0  0  0  0  0
  -28.7744  -23.7694   18.1035 C   0  0  0  0  0  0  0  0  0  0  0  0
  -26.1049  -30.9541   22.8737 C   0  0  0  0  0  0  0  0  0  0  0  0
  -23.0380  -29.9027   22.9793 C   0  0  0  0  0  0  0  0  0  0  0  0
  -20.5650  -28.0345   21.5508 C   0  0  0  0  0  0  0  0  0  0  0  0
  -28.8782  -16.7838   20.3630 C   0  0  0  0  0  0  0  0  0  0  0  0
  -27.5382  -34.1007   26.6290 C   0  0  0  0  0  0  0  0  0  0  0  0
  -25.2955  -31.5297   20.5565 C   0  0  0  0  0  0  0  0  0  0  0  0
  -24.5634  -28.7684   21.3205 C   0  0  0  0  0  0  0  0  0  0  0  0
  -26.5793  -32.9200   26.5003 C   0  0  0  0  0  0  0  0  0  0  0  0
  -27.3064  -15.7079   23.5456 C   0  0  0  0  0  0  0  0  0  0  0  0
  -27.2661  -31.7476   25.8070 C   0  0  0  0  0  0  0  0  0  0  0  0
  -26.8476  -14.3016   23.1761 C   0  0  0  0  0  0  0  0  0  0  0  0
  -27.2794  -16.6576   22.3487 C   0  0  0  0  0  0  0  0  0  0  0  0
  -27.5892  -14.7349   20.8049 C   0  0  0  0  0  0  0  0  0  0  0  0
  -27.6983  -32.1241   24.3847 C   0  0  1  0  0  0  0  0  0  0  0  0
  -24.9104  -31.1677   21.9876 C   0  0  1  0  0  0  0  0  0  0  0  0
  -27.6654  -13.7649   21.9927 C   0  0  2  0  0  0  0  0  0  0  0  0
  -18.1777  -27.3384   21.8880 C   0  0  0  0  0  0  0  0  0  0  0  0
  -23.9196  -27.9324   25.1358 C   0  0  0  0  0  0  0  0  0  0  0  0
  -21.7949  -26.6659   24.7490 C   0  0  0  0  0  0  0  0  0  0  0  0
  -21.7095  -29.0233   25.5600 C   0  0  0  0  0  0  0  0  0  0  0  0
  -19.7151  -29.3051   19.0167 C   0  0  0  0  0  0  0  0  0  0  0  0
  -27.3627  -25.9010   18.1972 C   0  0  0  0  0  0  0  0  0  1  0  0
  -22.3741  -28.5598   23.1651 C   0  0  1  0  0  0  0  0  0  0  0  0
  -19.1122  -28.3513   21.2450 C   0  0  2  0  0  0  0  0  0  0  0  0
  -22.4676  -28.0502   24.6310 C   0  0  0  0  0  0  0  0  0  0  0  0
  -25.9552  -12.0025   21.7626 N   0  0  0  0  0  0  0  0  0  0  0  0
  -27.2408  -12.3606   21.6038 N   0  0  0  0  0  0  0  0  0  0  0  0
  -24.0991  -29.9511   22.0640 N   0  0  0  0  0  0  0  0  0  0  0  0
  -27.9779  -16.0978   21.1835 N   0  0  0  0  0  0  0  0  0  0  0  0
  -30.1716  -24.3560   22.0460 N   0  0  0  0  0  0  0  0  0  0  0  0
  -29.3465  -11.5634   20.8682 N   0  0  0  0  0  0  0  0  0  0  0  0
  -26.6167   -8.0189   20.2504 N   0  0  0  0  0  0  0  0  0  0  0  0
  -29.2404  -23.8657   19.3969 N   0  0  0  0  0  0  0  0  0  0  0  0
  -29.0806  -18.1737   20.7111 N   0  0  0  0  0  0  0  0  0  0  0  0
  -26.5617  -32.1040   23.4891 N   0  0  0  0  0  0  0  0  0  0  0  0
  -21.0098  -28.7068   22.6695 N   0  0  0  0  0  0  0  0  0  0  0  0
  -30.5940  -18.7422   18.9825 N   0  3  0  0  0  0  0  0  0  0  0  0
  -18.8781  -28.3388   19.7733 N   0  3  0  0  0  0  0  0  0  0  0  0
  -28.7767   -8.7628   20.0502 O   0  0  0  0  0  0  0  0  0  0  0  0
  -29.0767  -25.4629   16.5271 O   0  0  0  0  0  0  0  0  0  0  0  0
  -28.6127  -22.8033   17.3764 O   0  0  0  0  0  0  0  0  0  0  0  0
  -26.5763  -29.8291   22.9916 O   0  0  0  0  0  0  0  0  0  0  0  0
  -22.6257  -30.8746   23.6172 O   0  0  0  0  0  0  0  0  0  0  0  0
  -21.2368  -27.2644   20.8680 O   0  0  0  0  0  0  0  0  0  0  0  0
  -29.4592  -16.3127   19.3911 O   0  0  0  0  0  0  0  0  0  0  0  0
  -21.1642   -7.8256   21.3765 O   0  0  0  0  0  0  0  0  0  0  0  0
  -27.1562  -27.1330   17.5072 O   0  0  0  0  0  0  0  0  0  1  0  0
  -21.3325   -2.6549   23.2843 F   0  0  0  0  0  0  0  0  0  0  0  0
  -19.6421   -7.0679   23.5563 F   0  0  0  0  0  0  0  0  0  0  0  0
  1  2  1  0  0  0  0
  1  6  2  0  0  0  0
  2  7  2  0  0  0  0
  3 10  2  0  0  0  0
  3 18  1  0  0  0  0
  4 11  1  0  0  0  0
  4 18  2  0  0  0  0
  5  9  2  0  0  0  0
  5 19  1  0  0  0  0
  6 21  1  0  0  0  0
  7 23  1  0  0  0  0
  8 12  2  0  0  0  0
  8 22  1  0  0  0  0
  9 25  1  0  0  0  0
 10 27  1  0  0  0  0
 11 27  2  0  0  0  0
 12 28  1  0  0  0  0
 13 14  2  0  0  0  0
 13 29  1  0  0  0  0
 14 30  1  0  0  0  0
 15 19  2  0  0  0  0
 15 26  1  0  0  0  0
 16 24  1  0  0  0  0
 16 28  2  0  0  0  0
 17 30  2  0  0  0  0
 17 31  1  0  0  0  0
 18 32  1  0  0  0  0
 19 34  1  0  0  0  0
 20 32  1  0  0  0  0
 20 33  2  0  0  0  0
 20 35  1  0  0  0  0
 21 23  2  0  0  0  0
 21 42  1  0  0  0  0
 22 24  2  0  0  0  0
 22 43  1  0  0  0  0
 23 51  1  0  0  0  0
 24 44  1  0  0  0  0
 25 26  2  0  0  0  0
 25 67  1  0  0  0  0
 26 70  1  0  0  0  0
 27 83  1  0  0  0  0
 28 84  1  0  0  0  0
 29 31  2  0  0  0  0
 29 83  1  0  0  0  0
 30 85  1  0  0  0  0
 31 86  1  0  0  0  0
 32 63  2  0  0  0  0
 33 64  1  0  0  0  0
 33 68  1  0  0  0  0
 34 71  1  0  0  0  0
 34 74  2  0  0  0  0
 35 69  1  0  0  0  0
 35 76  2  0  0  0  0
 36 37  1  0  0  0  0
 36 59  1  0  0  0  0
 36 77  2  0  0  0  0
 37 70  1  0  0  0  0
 37 78  2  0  0  0  0
 38 52  1  0  0  0  0
 38 72  1  0  0  0  0
 38 79  2  0  0  0  0
 39 60  1  0  0  0  0
 39 65  1  0  0  0  0
 39 80  2  0  0  0  0
 40 61  1  0  0  0  0
 40 73  1  0  0  0  0
 40 81  2  0  0  0  0
 41 66  1  0  0  0  0
 41 71  1  0  0  0  0
 41 82  2  0  0  0  0
 42 45  1  0  0  0  0
 43 52  1  0  0  0  0
 44 65  1  0  0  0  0
 45 47  1  0  0  0  0
 46 48  1  0  0  0  0
 46 49  1  0  0  0  0
 47 51  1  0  0  0  0
 48 53  1  0  0  0  0
 49 66  1  0  0  0  0
 50 53  1  0  0  0  0
 50 66  1  0  0  0  0
 51 72  1  0  0  0  0
 52 65  1  0  0  0  0
 53 64  1  0  0  0  0
 54 61  1  0  0  0  0
 55 62  1  0  0  0  0
 56 62  1  0  0  0  0
 57 62  1  0  0  0  0
 58 75  1  0  0  0  0
 59 84  1  0  0  0  0
 60 62  1  0  0  0  0
 60 73  1  0  0  0  0
 61 75  1  0  0  0  0
 63 64  1  0  0  0  0
M  CHG  2  74   1  75   1
M  ISO  4  41 100  59 101  71 100  84 101
M  END
> <Batch ID>
0089

> <Smiles>
CNC(C)C(=O)NC(C(=O)N1Cc2cc([101O:1][101CH2:1]C(=O)C(=O)Nc3cc(C(=N)[100NH:0][100C:0](=O)N4CCCC(n5nc(-c6ccc(Oc7ccc(F)cc7F)cc6)c(C(N)=O)c5N)C4)ccc3N)ccc2CC1C(=O)NC1CCCc2ccccc21)C(C)(C)C

> <Shape>
0.298

> <Color>
0.060

> <Negative vol penalty>
0.000

$$$$

  -OEChem-04052300263D

 82 90  0     1  0  0  0  0  0999 V2000
  -23.5557  -35.9475   16.2963 C   0  0  0  0  0  0  0  0  0  0  0  0
  -24.0542  -34.6602   16.1238 C   0  0  0  0  0  0  0  0  0  0  0  0
  -23.9607  -10.1874   22.2031 C   0  0  0  0  0  0  0  0  0  0  0  0
  -24.3710   -9.3271   19.9830 C   0  0  0  0  0  0  0  0  0  0  0  0
  -23.7342  -36.6059   17.5122 C   0  0  0  0  0  0  0  0  0  0  0  0
  -24.7325  -34.0309   17.1671 C   0  0  0  0  0  0  0  0  0  0  0  0
  -24.6668  -28.0603   18.5288 C   0  0  0  0  0  0  0  0  0  0  0  0
  -22.9109   -9.2824   22.3597 C   0  0  0  0  0  0  0  0  0  0  0  0
  -23.3213   -8.4221   20.1397 C   0  0  0  0  0  0  0  0  0  0  0  0
  -25.5545  -27.0236   18.2444 C   0  0  0  0  0  0  0  0  0  0  0  0
  -20.3551   -6.9537   23.4822 C   0  0  0  0  0  0  0  0  0  0  0  0
  -20.2734   -6.2578   24.6882 C   0  0  0  0  0  0  0  0  0  0  0  0
  -31.9461  -23.4620   19.4085 C   0  0  0  0  0  0  0  0  0  0  0  0
  -29.5732  -23.8975   19.5373 C   0  0  0  0  0  0  0  0  0  0  0  0
  -26.5831  -27.3195   20.4063 C   0  0  0  0  0  0  0  0  0  0  0  0
  -31.0829  -25.6374   18.8089 C   0  0  0  0  0  0  0  0  0  0  0  0
  -22.4558   -5.3029   24.2851 C   0  0  0  0  0  0  0  0  0  0  0  0
  -24.6907  -10.2098   21.0146 C   0  0  0  0  0  0  0  0  0  0  0  0
  -30.6519  -23.0272   19.6943 C   0  0  0  0  0  0  0  0  0  0  0  0
  -27.1287  -10.9423   21.1805 C   0  0  0  0  0  0  0  0  0  0  0  0
  -24.4066  -35.9806   18.5741 C   0  0  0  0  0  0  0  0  0  0  0  0
  -24.7377  -28.7428   19.7517 C   0  0  0  0  0  0  0  0  0  0  0  0
  -24.9213  -34.6820   18.3980 C   0  0  0  0  0  0  0  0  0  0  0  0
  -25.6934  -28.3629   20.7048 C   0  0  0  0  0  0  0  0  0  0  0  0
  -32.1616  -24.7671   18.9659 C   0  0  0  0  0  0  0  0  0  0  0  0
  -29.7887  -25.2027   19.0947 C   0  0  0  0  0  0  0  0  0  0  0  0
  -22.5912   -8.3997   21.3281 C   0  0  0  0  0  0  0  0  0  0  0  0
  -26.5147  -26.6549   19.1821 C   0  0  0  0  0  0  0  0  0  0  0  0
  -21.4872   -6.8242   22.6775 C   0  0  0  0  0  0  0  0  0  0  0  0
  -21.3238   -5.4324   25.0898 C   0  0  0  0  0  0  0  0  0  0  0  0
  -22.5375   -5.9988   23.0790 C   0  0  0  0  0  0  0  0  0  0  0  0
  -25.7749  -11.1448   20.8520 C   0  0  0  0  0  0  0  0  0  0  0  0
  -27.7454  -12.1205   20.8370 C   0  0  0  0  0  0  0  0  0  0  0  0
  -30.4272  -21.6665   20.1558 C   0  0  0  0  0  0  0  0  0  0  0  0
  -29.2500  -21.0006   20.1051 C   0  0  0  0  0  0  0  0  0  0  0  0
  -29.0822  -19.6408   20.5719 C   0  0  0  0  0  0  0  0  0  0  0  0
  -27.9108  -18.9961   20.5148 C   0  0  0  0  0  0  0  0  0  0  0  0
  -27.7714   -9.7919   21.7455 C   0  0  0  0  0  0  0  0  0  0  0  0
  -27.8405  -17.6090   21.0166 C   0  0  0  0  0  0  0  0  0  0  0  0
  -25.3053  -31.7495   20.6129 C   0  0  0  0  0  0  0  0  0  0  0  0
  -24.5606  -30.6337   23.5663 C   0  0  0  0  0  0  0  0  0  0  0  0
  -24.3439  -27.9685   25.6868 C   0  0  0  0  0  0  0  0  0  0  0  0
  -24.6164  -36.7502   19.8541 C   0  0  0  0  0  0  0  0  0  0  0  0
  -23.7555  -29.8412   20.0539 C   0  0  0  0  0  0  0  0  0  0  0  0
  -25.7980  -29.0504   22.0407 C   0  0  0  0  0  0  0  0  0  0  0  0
  -25.0191  -35.8704   21.0348 C   0  0  0  0  0  0  0  0  0  0  0  0
  -26.0760  -16.0771   18.1932 C   0  0  0  0  0  0  0  0  0  0  0  0
  -26.1211  -34.8985   20.6249 C   0  0  0  0  0  0  0  0  0  0  0  0
  -25.9126  -14.6438   18.6919 C   0  0  0  0  0  0  0  0  0  0  0  0
  -25.9932  -17.0918   19.3326 C   0  0  0  0  0  0  0  0  0  0  0  0
  -26.7842  -15.3838   20.9442 C   0  0  0  0  0  0  0  0  0  0  0  0
  -25.6409  -33.9566   19.5142 C   0  0  1  0  0  0  0  0  0  0  0  0
  -24.2515  -30.8085   21.1243 C   0  0  1  0  0  0  0  0  0  0  0  0
  -26.9112  -14.3430   19.8208 C   0  0  1  0  0  0  0  0  0  0  0  0
  -23.7392  -27.3745   28.0488 C   0  0  0  0  0  0  0  0  0  0  0  0
  -27.2187  -31.7788   24.5323 C   0  0  0  0  0  0  0  0  0  0  0  0
  -27.0019  -30.3642   26.5866 C   0  0  0  0  0  0  0  0  0  0  0  0
  -25.3021  -32.1243   26.1014 C   0  0  0  0  0  0  0  0  0  0  0  0
  -22.1545  -26.1853   24.8006 C   0  0  0  0  0  0  0  0  0  0  0  0
  -25.3386  -30.0176   24.7040 C   0  0  1  0  0  0  0  0  0  0  0  0
  -23.2372  -27.5109   26.6197 C   0  0  2  0  0  0  0  0  0  0  0  0
  -26.2148  -31.0594   25.4552 C   0  0  0  0  0  0  0  0  0  0  0  0
  -25.5444  -12.3565   20.3393 N   0  0  0  0  0  0  0  0  0  0  0  0
  -26.7617  -12.9259   20.3431 N   0  0  0  0  0  0  0  0  0  0  0  0
  -26.9155  -16.7500   20.4259 N   0  0  0  0  0  0  0  0  0  0  0  0
  -24.8193  -30.1224   22.2867 N   0  0  0  0  0  0  0  0  0  0  0  0
  -33.4702  -25.2066   18.6770 N   0  0  0  0  0  0  0  0  0  0  0  0
  -29.0277  -12.5358   20.9123 N   0  0  0  0  0  0  0  0  0  0  0  0
  -26.9895   -8.6661   22.0381 N   0  0  0  0  0  0  0  0  0  0  0  0
  -28.7054  -26.0768   18.9367 N   0  0  0  0  0  0  0  0  0  1  0  0
  -24.8018  -32.9134   20.0639 N   0  0  0  0  0  0  0  0  0  0  0  0
  -24.3601  -29.3402   25.5479 N   0  0  0  0  0  0  0  0  0  0  0  0
  -22.7030  -26.1905   26.1812 N   0  3  0  0  0  0  0  0  0  0  0  0
  -28.9996   -9.7691   21.9992 O   0  0  0  0  0  0  0  0  0  0  0  0
  -28.6030  -17.2965   21.9330 O   0  0  0  0  0  0  0  0  0  0  0  0
  -26.4878  -31.4430   20.7105 O   0  0  0  0  0  0  0  0  0  0  0  0
  -23.7479  -31.5304   23.8052 O   0  0  0  0  0  0  0  0  0  0  0  0
  -25.1190  -27.1875   25.1393 O   0  0  0  0  0  0  0  0  0  0  0  0
  -21.5671   -7.5163   21.4808 O   0  0  0  0  0  0  0  0  0  0  0  0
  -27.3829  -25.6438   18.9069 O   0  0  0  0  0  0  0  0  0  1  0  0
  -21.2458   -4.7654   26.2487 F   0  0  0  0  0  0  0  0  0  0  0  0
  -23.6281   -5.8713   22.3108 F   0  0  0  0  0  0  0  0  0  0  0  0
  1  2  1  0  0  0  0
  1  5  2  0  0  0  0
  2  6  2  0  0  0  0
  3  8  2  0  0  0  0
  3 18  1  0  0  0  0
  4  9  1  0  0  0  0
  4 18  2  0  0  0  0
  5 21  1  0  0  0  0
  6 23  1  0  0  0  0
  7 10  2  0  0  0  0
  7 22  1  0  0  0  0
  8 27  1  0  0  0  0
  9 27  2  0  0  0  0
 10 28  1  0  0  0  0
 11 12  2  0  0  0  0
 11 29  1  0  0  0  0
 12 30  1  0  0  0  0
 13 19  2  0  0  0  0
 13 25  1  0  0  0  0
 14 19  1  0  0  0  0
 14 26  2  0  0  0  0
 15 24  1  0  0  0  0
 15 28  2  0  0  0  0
 16 25  2  0  0  0  0
 16 26  1  0  0  0  0
 17 30  2  0  0  0  0
 17 31  1  0  0  0  0
 18 32  1  0  0  0  0
 19 34  1  0  0  0  0
 20 32  1  0  0  0  0
 20 33  2  0  0  0  0
 20 38  1  0  0  0  0
 21 23  2  0  0  0  0
 21 43  1  0  0  0  0
 22 24  2  0  0  0  0
 22 44  1  0  0  0  0
 23 52  1  0  0  0  0
 24 45  1  0  0  0  0
 25 67  1  0  0  0  0
 26 70  1  0  0  0  0
 27 79  1  0  0  0  0
 28 80  1  0  0  0  0
 29 31  2  0  0  0  0
 29 79  1  0  0  0  0
 30 81  1  0  0  0  0
 31 82  1  0  0  0  0
 32 63  2  0  0  0  0
 33 64  1  0  0  0  0
 33 68  1  0  0  0  0
 34 35  2  0  0  0  0
 35 36  1  0  0  0  0
 36 37  2  0  0  0  0
 37 39  1  0  0  0  0
 38 69  1  0  0  0  0
 38 74  2  0  0  0  0
 39 65  1  0  0  0  0
 39 75  2  0  0  0  0
 40 53  1  0  0  0  0
 40 71  1  0  0  0  0
 40 76  2  0  0  0  0
 41 60  1  0  0  0  0
 41 66  1  0  0  0  0
 41 77  2  0  0  0  0
 42 61  1  0  0  0  0
 42 72  1  0  0  0  0
 42 78  2  0  0  0  0
 43 46  1  0  0  0  0
 44 53  1  0  0  0  0
 45 66  1  0  0  0  0
 46 48  1  0  0  0  0
 47 49  1  0  0  0  0
 47 50  1  0  0  0  0
 48 52  1  0  0  0  0
 49 54  1  0  0  0  0
 50 65  1  0  0  0  0
 51 54  1  0  0  0  0
 51 65  1  0  0  0  0
 52 71  1  0  0  0  0
 53 66  1  0  0  0  0
 54 64  1  0  0  0  0
 55 61  1  0  0  0  0
 56 62  1  0  0  0  0
 57 62  1  0  0  0  0
 58 62  1  0  0  0  0
 59 73  1  0  0  0  0
 60 62  1  0  0  0  0
 60 72  1  0  0  0  0
 61 73  1  0  0  0  0
 63 64  1  0  0  0  0
 70 80  1  0  0  0  0
M  CHG  1  73   1
M  ISO  4  37 100  39 100  70 101  80 101
M  END
> <Batch ID>
0089

> <Smiles>
CNC(C)C(=O)NC(C(=O)N1Cc2cc([101O:1][101NH:1]c3cc(N)cc(C=CC=[100CH:0][100C:0](=O)N4CCCC(n5nc(-c6ccc(Oc7ccc(F)cc7F)cc6)c(C(N)=O)c5N)C4)c3)ccc2CC1C(=O)NC1CCCc2ccccc21)C(C)(C)C

> <Shape>
0.280

> <Color>
0.102

> <Negative vol penalty>
0.000

$$$$

  -OEChem-04052300263D

 86 95  0     1  0  0  0  0  0999 V2000
  -20.6343  -12.3135   24.4941 C   0  0  0  0  0  0  0  0  0  0  0  0
  -21.5959  -13.3067   24.6496 C   0  0  0  0  0  0  0  0  0  0  0  0
  -23.0736   -9.8698   19.9416 C   0  0  0  0  0  0  0  0  0  0  0  0
  -23.8316   -9.8780   22.2356 C   0  0  0  0  0  0  0  0  0  0  0  0
  -19.2874  -12.6588   24.3911 C   0  0  0  0  0  0  0  0  0  0  0  0
  -21.2112  -14.6460   24.7011 C   0  0  0  0  0  0  0  0  0  0  0  0
  -23.5471  -17.1974   28.3997 C   0  0  0  0  0  0  0  0  0  0  0  0
  -22.3285   -8.7175   20.1919 C   0  0  0  0  0  0  0  0  0  0  0  0
  -23.0865   -8.7256   22.4859 C   0  0  0  0  0  0  0  0  0  0  0  0
  -24.8640  -17.5920   28.1675 C   0  0  0  0  0  0  0  0  0  0  0  0
  -19.3784   -7.9245   21.6413 C   0  0  0  0  0  0  0  0  0  0  0  0
  -18.0719   -7.8790   21.1550 C   0  0  0  0  0  0  0  0  0  0  0  0
  -24.0962  -19.8134   27.6245 C   0  0  0  0  0  0  0  0  0  0  0  0
  -31.8598  -18.3551   24.2010 C   0  0  0  0  0  0  0  0  0  0  0  0
  -32.0645  -16.6033   22.5499 C   0  0  0  0  0  0  0  0  0  0  0  0
  -18.6311   -5.9344   19.8348 C   0  0  0  0  0  0  0  0  0  0  0  0
  -23.8251  -10.4500   20.9635 C   0  0  0  0  0  0  0  0  0  0  0  0
  -24.1692  -12.9748   20.8417 C   0  0  0  0  0  0  0  0  0  0  0  0
  -18.8851  -14.0024   24.4510 C   0  0  0  0  0  0  0  0  0  0  0  0
  -22.4922  -18.1064   28.2351 C   0  0  0  0  0  0  0  0  0  0  0  0
  -19.8578  -15.0097   24.5975 C   0  0  0  0  0  0  0  0  0  0  0  0
  -22.7671  -19.4285   27.8577 C   0  0  0  0  0  0  0  0  0  0  0  0
  -30.4739  -18.3409   24.0444 C   0  0  0  0  0  0  0  0  0  0  0  0
  -32.6552  -17.4864   23.4537 C   0  0  0  0  0  0  0  0  0  0  0  0
  -30.6785  -16.5890   22.3933 C   0  0  0  0  0  0  0  0  0  0  0  0
  -22.3349   -8.1454   21.4640 C   0  0  0  0  0  0  0  0  0  0  0  0
  -25.1385  -18.8994   27.7771 C   0  0  0  0  0  0  0  0  0  0  0  0
  -20.3113   -6.9750   21.2243 C   0  0  0  0  0  0  0  0  0  0  0  0
  -17.6982   -6.8839   20.2518 C   0  0  0  0  0  0  0  0  0  0  0  0
  -19.9376   -5.9800   20.3211 C   0  0  0  0  0  0  0  0  0  0  0  0
  -29.8832  -17.4578   23.1406 C   0  0  0  0  0  0  0  0  0  0  0  0
  -24.5954  -11.6401   20.7054 C   0  0  0  0  0  0  0  0  0  0  0  0
  -25.2623  -13.7231   20.4788 C   0  0  0  0  0  0  0  0  0  0  0  0
  -28.9627  -21.0520   25.9860 C   0  0  0  0  0  0  0  0  0  0  0  0
  -27.9686  -20.1616   25.9579 C   0  0  0  0  0  0  0  0  0  0  0  0
  -30.0944  -20.4686   25.2383 C   0  0  0  0  0  0  0  0  0  0  0  0
  -22.8988  -13.4920   21.2592 C   0  0  0  0  0  0  0  0  0  0  0  0
  -19.9414  -18.2642   26.3451 C   0  0  0  0  0  0  0  0  0  0  0  0
  -19.2290  -20.8461   28.1751 C   0  0  0  0  0  0  0  0  0  0  0  0
  -20.3378  -23.3388   30.2254 C   0  0  0  0  0  0  0  0  0  0  0  0
  -30.7292  -14.7642   20.6572 C   0  0  0  0  0  0  0  0  0  0  0  0
  -17.4220  -14.3301   24.2877 C   0  0  0  0  0  0  0  0  0  0  0  0
  -21.0796  -17.6723   28.5153 C   0  0  0  0  0  0  0  0  0  0  0  0
  -21.6721  -20.4485   27.6867 C   0  0  0  0  0  0  0  0  0  0  0  0
  -28.3260  -18.9245   25.2084 C   0  0  0  0  0  0  0  0  0  0  0  0
  -17.0624  -15.7469   24.7276 C   0  0  0  0  0  0  0  0  0  0  0  0
  -29.6147  -12.3495   18.2899 C   0  0  0  0  0  0  0  0  0  0  0  0
  -18.0621  -16.7512   24.1631 C   0  0  0  0  0  0  0  0  0  0  0  0
  -28.1745  -12.0594   18.7185 C   0  0  0  0  0  0  0  0  0  0  0  0
  -30.5290  -12.5785   19.4921 C   0  0  0  0  0  0  0  0  0  0  0  0
  -28.6215  -13.3056   20.8712 C   0  0  0  0  0  0  0  0  0  0  0  0
  -19.4776  -16.4720   24.6826 C   0  0  1  0  0  0  0  0  0  0  0  0
  -20.0378  -18.5421   27.8185 C   0  0  1  0  0  0  0  0  0  0  0  0
  -27.6495  -13.1322   19.6927 C   0  0  2  0  0  0  0  0  0  0  0  0
  -19.5258  -25.3182   31.5369 C   0  0  0  0  0  0  0  0  0  0  0  0
  -18.9748  -22.4502   25.5920 C   0  0  0  0  0  0  0  0  0  0  0  0
  -19.1129  -24.5426   26.9598 C   0  0  0  0  0  0  0  0  0  0  0  0
  -17.2245  -22.9501   27.3070 C   0  0  0  0  0  0  0  0  0  0  0  0
  -21.2585  -22.1684   32.7830 C   0  0  0  0  0  0  0  0  0  0  0  0
  -26.6291  -20.3147   26.5810 C   0  0  0  0  0  0  0  0  0  1  0  0
  -19.5387  -22.3221   28.1083 C   0  0  1  0  0  0  0  0  0  0  0  0
  -19.8406  -23.8308   31.5727 C   0  0  2  0  0  0  0  0  0  0  0  0
  -18.7334  -23.0467   26.9930 C   0  0  0  0  0  0  0  0  0  0  0  0
  -25.8606  -11.5428   20.2883 N   0  0  0  0  0  0  0  0  0  0  0  0
  -26.2386  -12.8260   20.1593 N   0  0  0  0  0  0  0  0  0  0  0  0
  -29.6838  -19.2068   24.7905 N   0  0  0  0  0  0  0  0  0  0  0  0
  -20.3068  -19.9739   27.9663 N   0  0  0  0  0  0  0  0  0  0  0  0
  -29.9702  -13.6105   20.3682 N   0  0  0  0  0  0  0  0  0  0  0  0
  -34.0567  -17.5000   23.6120 N   0  0  0  0  0  0  0  0  0  0  0  0
  -25.4739  -15.0543   20.4049 N   0  0  0  0  0  0  0  0  0  0  0  0
  -21.8858  -12.5840   21.5964 N   0  0  0  0  0  0  0  0  0  0  0  0
  -30.0819  -15.6905   21.4743 N   0  0  0  0  0  0  0  0  0  0  0  0
  -19.6225  -16.9550   26.0392 N   0  0  0  0  0  0  0  0  0  0  0  0
  -19.3089  -22.8485   29.4493 N   0  0  0  0  0  0  0  0  0  0  0  0
  -20.8708  -23.5936   32.6231 N   0  3  0  0  0  0  0  0  0  0  0  0
  -31.1645  -21.0320   25.0754 O   0  0  0  0  0  0  0  0  0  0  0  0
  -22.6635  -14.7229   21.3154 O   0  0  0  0  0  0  0  0  0  0  0  0
  -20.1400  -19.1709   25.5450 O   0  0  0  0  0  0  0  0  0  0  0  0
  -18.0748  -20.4805   28.4111 O   0  0  0  0  0  0  0  0  0  0  0  0
  -21.5200  -23.3881   29.8931 O   0  0  0  0  0  0  0  0  0  0  0  0
  -31.8588  -14.9316   20.1904 O   0  0  0  0  0  0  0  0  0  0  0  0
  -21.6078   -7.0211   21.7086 O   0  0  0  0  0  0  0  0  0  0  0  0
  -26.4229  -19.2870   27.5492 O   0  0  0  0  0  0  0  0  0  1  0  0
  -16.4431   -6.8394   19.7861 F   0  0  0  0  0  0  0  0  0  0  0  0
  -20.8291   -5.0644   19.9177 F   0  0  0  0  0  0  0  0  0  0  0  0
  -28.5498  -17.4427   22.9908 F   0  0  0  0  0  0  0  0  0  0  0  0
  1  2  1  0  0  0  0
  1  5  2  0  0  0  0
  2  6  2  0  0  0  0
  3  8  2  0  0  0  0
  3 17  1  0  0  0  0
  4  9  1  0  0  0  0
  4 17  2  0  0  0  0
  5 19  1  0  0  0  0
  6 21  1  0  0  0  0
  7 10  2  0  0  0  0
  7 20  1  0  0  0  0
  8 26  1  0  0  0  0
  9 26  2  0  0  0  0
 10 27  1  0  0  0  0
 11 12  2  0  0  0  0
 11 28  1  0  0  0  0
 12 29  1  0  0  0  0
 13 22  1  0  0  0  0
 13 27  2  0  0  0  0
 14 23  1  0  0  0  0
 14 24  2  0  0  0  0
 15 24  1  0  0  0  0
 15 25  2  0  0  0  0
 16 29  2  0  0  0  0
 16 30  1  0  0  0  0
 17 32  1  0  0  0  0
 18 32  1  0  0  0  0
 18 33  2  0  0  0  0
 18 37  1  0  0  0  0
 19 21  2  0  0  0  0
 19 42  1  0  0  0  0
 20 22  2  0  0  0  0
 20 43  1  0  0  0  0
 21 52  1  0  0  0  0
 22 44  1  0  0  0  0
 23 31  2  0  0  0  0
 23 66  1  0  0  0  0
 24 69  1  0  0  0  0
 25 31  1  0  0  0  0
 25 72  1  0  0  0  0
 26 82  1  0  0  0  0
 27 83  1  0  0  0  0
 28 30  2  0  0  0  0
 28 82  1  0  0  0  0
 29 84  1  0  0  0  0
 30 85  1  0  0  0  0
 31 86  1  0  0  0  0
 32 64  2  0  0  0  0
 33 65  1  0  0  0  0
 33 70  1  0  0  0  0
 34 35  2  0  0  0  0
 34 36  1  0  0  0  0
 35 45  1  0  0  0  0
 35 60  1  0  0  0  0
 36 66  1  0  0  0  0
 36 76  2  0  0  0  0
 37 71  1  0  0  0  0
 37 77  2  0  0  0  0
 38 53  1  0  0  0  0
 38 73  1  0  0  0  0
 38 78  2  0  0  0  0
 39 61  1  0  0  0  0
 39 67  1  0  0  0  0
 39 79  2  0  0  0  0
 40 62  1  0  0  0  0
 40 74  1  0  0  0  0
 40 80  2  0  0  0  0
 41 68  1  0  0  0  0
 41 72  1  0  0  0  0
 41 81  2  0  0  0  0
 42 46  1  0  0  0  0
 43 53  1  0  0  0  0
 44 67  1  0  0  0  0
 45 66  1  0  0  0  0
 46 48  1  0  0  0  0
 47 49  1  0  0  0  0
 47 50  1  0  0  0  0
 48 52  1  0  0  0  0
 49 54  1  0  0  0  0
 50 68  1  0  0  0  0
 51 54  1  0  0  0  0
 51 68  1  0  0  0  0
 52 73  1  0  0  0  0
 53 67  1  0  0  0  0
 54 65  1  0  0  0  0
 55 62  1  0  0  0  0
 56 63  1  0  0  0  0
 57 63  1  0  0  0  0
 58 63  1  0  0  0  0
 59 75  1  0  0  0  0
 60 83  1  0  0  0  0
 61 63  1  0  0  0  0
 61 74  1  0  0  0  0
 62 75  1  0  0  0  0
 64 65  1  0  0  0  0
M  CHG  1  75   1
M  ISO  4  41 100  60 101  72 100  83 101
M  END
> <Batch ID>
0089

> <Smiles>
CNC(C)C(=O)NC(C(=O)N1Cc2cc([101O:1][101CH2:1]C3=CC(=O)N(c4cc(N)cc([100NH:0][100C:0](=O)N5CCCC(n6nc(-c7ccc(Oc8ccc(F)cc8F)cc7)c(C(N)=O)c6N)C5)c4F)C3)ccc2CC1C(=O)NC1CCCc2ccccc21)C(C)(C)C

> <Shape>
0.147

> <Color>
0.184

> <Negative vol penalty>
0.000

$$$$

  -OEChem-04052300263D

 84 92  0     1  0  0  0  0  0999 V2000
  -24.6709  -37.1973   18.7994 C   0  0  0  0  0  0  0  0  0  0  0  0
  -25.3806  -36.0335   18.5212 C   0  0  0  0  0  0  0  0  0  0  0  0
  -23.8285   -8.9561   19.9868 C   0  0  0  0  0  0  0  0  0  0  0  0
  -23.1828  -10.7346   21.4891 C   0  0  0  0  0  0  0  0  0  0  0  0
  -24.1792  -37.4222   20.0846 C   0  0  0  0  0  0  0  0  0  0  0  0
  -25.6000  -35.0944   19.5284 C   0  0  0  0  0  0  0  0  0  0  0  0
  -25.8242  -29.0066   18.9003 C   0  0  0  0  0  0  0  0  0  0  0  0
  -30.4756  -19.8151   20.2272 C   0  0  0  0  0  0  0  0  0  0  0  0
  -30.4110  -18.4231   20.1651 C   0  0  0  0  0  0  0  0  0  0  0  0
  -22.9717   -8.0810   20.6544 C   0  0  0  0  0  0  0  0  0  0  0  0
  -22.3259   -9.8595   22.1567 C   0  0  0  0  0  0  0  0  0  0  0  0
  -26.8891  -28.1139   18.7871 C   0  0  0  0  0  0  0  0  0  0  0  0
  -19.6571   -7.4178   20.7353 C   0  0  0  0  0  0  0  0  0  0  0  0
  -18.8424   -6.5916   19.9611 C   0  0  0  0  0  0  0  0  0  0  0  0
  -26.7718  -27.6828   21.1577 C   0  0  0  0  0  0  0  0  0  0  0  0
  -28.4193  -19.9667   18.9679 C   0  0  0  0  0  0  0  0  0  0  0  0
  -19.8661   -4.6451   20.9612 C   0  0  0  0  0  0  0  0  0  0  0  0
  -23.9341  -10.2828   20.4042 C   0  0  0  0  0  0  0  0  0  0  0  0
  -24.5091  -12.0058   18.6130 C   0  0  0  0  0  0  0  0  0  0  0  0
  -24.3844  -36.4809   21.1056 C   0  0  0  0  0  0  0  0  0  0  0  0
  -25.2312  -29.2528   20.1470 C   0  0  0  0  0  0  0  0  0  0  0  0
  -25.1118  -35.3076   20.8288 C   0  0  0  0  0  0  0  0  0  0  0  0
  -25.6978  -28.5772   21.2836 C   0  0  0  0  0  0  0  0  0  0  0  0
  -29.4797  -20.5869   19.6286 C   0  0  0  0  0  0  0  0  0  0  0  0
  -29.3506  -17.8029   19.5044 C   0  0  0  0  0  0  0  0  0  0  0  0
  -22.2203   -8.5327   21.7393 C   0  0  0  0  0  0  0  0  0  0  0  0
  -27.3650  -27.4541   19.9164 C   0  0  0  0  0  0  0  0  0  0  0  0
  -20.5764   -6.8576   21.6224 C   0  0  0  0  0  0  0  0  0  0  0  0
  -18.9469   -5.2053   20.0741 C   0  0  0  0  0  0  0  0  0  0  0  0
  -28.3547  -18.5747   18.9058 C   0  0  0  0  0  0  0  0  0  0  0  0
  -20.6809   -5.4713   21.7353 C   0  0  0  0  0  0  0  0  0  0  0  0
  -24.8195  -11.1871   19.7154 C   0  0  0  0  0  0  0  0  0  0  0  0
  -25.6807  -12.6668   18.3355 C   0  0  0  0  0  0  0  0  0  0  0  0
  -28.1204  -25.2696   19.5583 C   0  0  0  0  0  0  0  0  0  1  0  0
  -23.2723  -12.1556   17.9034 C   0  0  0  0  0  0  0  0  0  0  0  0
  -29.0635  -24.3280   19.4334 C   0  0  0  0  0  0  0  0  0  0  0  0
  -28.6476  -22.9141   19.1573 C   0  0  0  0  0  0  0  0  0  0  0  0
  -24.8891  -31.8110   22.0023 C   0  0  0  0  0  0  0  0  0  0  0  0
  -23.0670  -29.7978   23.7770 C   0  0  0  0  0  0  0  0  0  0  0  0
  -22.3186  -26.5883   24.6634 C   0  0  0  0  0  0  0  0  0  0  0  0
  -30.1952  -15.4785   19.9839 C   0  0  0  0  0  0  0  0  0  0  0  0
  -23.8746  -36.7899   22.4910 C   0  0  0  0  0  0  0  0  0  0  0  0
  -24.0659  -30.1985   20.2479 C   0  0  0  0  0  0  0  0  0  0  0  0
  -25.0826  -28.7910   22.6416 C   0  0  0  0  0  0  0  0  0  0  0  0
  -23.8273  -35.5709   23.4086 C   0  0  0  0  0  0  0  0  0  0  0  0
  -30.3744  -11.9237   20.0789 C   0  0  0  0  0  0  0  0  0  0  0  0
  -25.1275  -34.7792   23.3120 C   0  0  0  0  0  0  0  0  0  0  0  0
  -28.9196  -11.4826   19.9021 C   0  0  0  0  0  0  0  0  0  0  0  0
  -30.4834  -13.1946   20.9197 C   0  0  0  0  0  0  0  0  0  0  0  0
  -28.2044  -13.8769   20.2796 C   0  0  0  0  0  0  0  0  0  0  0  0
  -25.3489  -34.2536   21.8885 C   0  0  1  0  0  0  0  0  0  0  0  0
  -23.8727  -30.7610   21.6527 C   0  0  1  0  0  0  0  0  0  0  0  0
  -28.0394  -12.6374   19.3852 C   0  0  2  0  0  0  0  0  0  0  0  0
  -20.8086  -25.2604   26.1647 C   0  0  0  0  0  0  0  0  0  0  0  0
  -24.7954  -30.5496   26.1765 C   0  0  0  0  0  0  0  0  0  0  0  0
  -23.8889  -28.5439   27.3697 C   0  0  0  0  0  0  0  0  0  0  0  0
  -22.3491  -30.3762   26.6664 C   0  0  0  0  0  0  0  0  0  0  0  0
  -21.0621  -25.2045   22.3688 C   0  0  0  0  0  0  0  0  0  0  0  0
  -23.3294  -28.8400   24.9140 C   0  0  1  0  0  0  0  0  0  0  0  0
  -20.9927  -25.8582   24.7785 C   0  0  2  0  0  0  0  0  0  0  0  0
  -23.6038  -29.5746   26.2565 C   0  0  0  0  0  0  0  0  0  0  0  0
  -26.0888  -11.3145   20.1110 N   0  0  0  0  0  0  0  0  0  0  0  0
  -26.5864  -12.2209   19.2526 N   0  0  0  0  0  0  0  0  0  0  0  0
  -23.9498  -29.7301   22.6899 N   0  0  0  0  0  0  0  0  0  0  0  0
  -29.6260  -14.2459   20.3679 N   0  0  0  0  0  0  0  0  0  0  0  0
  -26.0142  -13.5800   17.3989 N   0  0  0  0  0  0  0  0  0  0  0  0
  -22.1672  -11.4011   18.3203 N   0  0  0  0  0  0  0  0  0  0  0  0
  -29.5455  -21.9998   19.6910 N   0  0  0  0  0  0  0  0  0  0  0  0
  -29.2880  -16.3887   19.4425 N   0  0  0  0  0  0  0  0  0  0  0  0
  -24.5195  -33.0932   21.6435 N   0  0  0  0  0  0  0  0  0  0  0  0
  -22.1895  -27.9303   24.9527 N   0  0  0  0  0  0  0  0  0  0  0  0
  -20.9196  -24.7562   23.7780 N   0  3  0  0  0  0  0  0  0  0  0  0
  -23.1552  -12.9231   16.9182 O   0  0  0  0  0  0  0  0  0  0  0  0
  -27.6235  -22.6700   18.5285 O   0  0  0  0  0  0  0  0  0  0  0  0
  -25.9307  -31.4824   22.5579 O   0  0  0  0  0  0  0  0  0  0  0  0
  -22.1097  -30.5725   23.8477 O   0  0  0  0  0  0  0  0  0  0  0  0
  -23.3650  -26.0238   24.3520 O   0  0  0  0  0  0  0  0  0  0  0  0
  -31.4034  -15.6995   20.0996 O   0  0  0  0  0  0  0  0  0  0  0  0
  -30.4103  -24.6067   19.5476 O   0  0  0  0  0  0  0  0  0  0  0  0
  -21.3839   -7.6792   22.3908 O   0  0  0  0  0  0  0  0  0  0  0  0
  -28.4047  -26.5827   19.8088 O   0  0  0  0  0  0  0  0  0  1  0  0
  -18.1634   -4.4120   19.3317 F   0  0  0  0  0  0  0  0  0  0  0  0
  -27.3316  -17.9895   18.2667 F   0  0  0  0  0  0  0  0  0  0  0  0
  -21.5613   -4.9273   22.5866 F   0  0  0  0  0  0  0  0  0  0  0  0
  1  2  1  0  0  0  0
  1  5  2  0  0  0  0
  2  6  2  0  0  0  0
  3 10  2  0  0  0  0
  3 18  1  0  0  0  0
  4 11  1  0  0  0  0
  4 18  2  0  0  0  0
  5 20  1  0  0  0  0
  6 22  1  0  0  0  0
  7 12  2  0  0  0  0
  7 21  1  0  0  0  0
  8  9  2  0  0  0  0
  8 24  1  0  0  0  0
  9 25  1  0  0  0  0
 10 26  1  0  0  0  0
 11 26  2  0  0  0  0
 12 27  1  0  0  0  0
 13 14  2  0  0  0  0
 13 28  1  0  0  0  0
 14 29  1  0  0  0  0
 15 23  1  0  0  0  0
 15 27  2  0  0  0  0
 16 24  2  0  0  0  0
 16 30  1  0  0  0  0
 17 29  2  0  0  0  0
 17 31  1  0  0  0  0
 18 32  1  0  0  0  0
 19 32  1  0  0  0  0
 19 33  2  0  0  0  0
 19 35  1  0  0  0  0
 20 22  2  0  0  0  0
 20 42  1  0  0  0  0
 21 23  2  0  0  0  0
 21 43  1  0  0  0  0
 22 51  1  0  0  0  0
 23 44  1  0  0  0  0
 24 68  1  0  0  0  0
 25 30  2  0  0  0  0
 25 69  1  0  0  0  0
 26 80  1  0  0  0  0
 27 81  1  0  0  0  0
 28 31  2  0  0  0  0
 28 80  1  0  0  0  0
 29 82  1  0  0  0  0
 30 83  1  0  0  0  0
 31 84  1  0  0  0  0
 32 62  2  0  0  0  0
 33 63  1  0  0  0  0
 33 66  1  0  0  0  0
 34 36  2  0  0  0  0
 34 81  1  0  0  0  0
 35 67  1  0  0  0  0
 35 73  2  0  0  0  0
 36 37  1  0  0  0  0
 36 79  1  0  0  0  0
 37 68  1  0  0  0  0
 37 74  2  0  0  0  0
 38 52  1  0  0  0  0
 38 70  1  0  0  0  0
 38 75  2  0  0  0  0
 39 59  1  0  0  0  0
 39 64  1  0  0  0  0
 39 76  2  0  0  0  0
 40 60  1  0  0  0  0
 40 71  1  0  0  0  0
 40 77  2  0  0  0  0
 41 65  1  0  0  0  0
 41 69  1  0  0  0  0
 41 78  2  0  0  0  0
 42 45  1  0  0  0  0
 43 52  1  0  0  0  0
 44 64  1  0  0  0  0
 45 47  1  0  0  0  0
 46 48  1  0  0  0  0
 46 49  1  0  0  0  0
 47 51  1  0  0  0  0
 48 53  1  0  0  0  0
 49 65  1  0  0  0  0
 50 53  1  0  0  0  0
 50 65  1  0  0  0  0
 51 70  1  0  0  0  0
 52 64  1  0  0  0  0
 53 63  1  0  0  0  0
 54 60  1  0  0  0  0
 55 61  1  0  0  0  0
 56 61  1  0  0  0  0
 57 61  1  0  0  0  0
 58 72  1  0  0  0  0
 59 61  1  0  0  0  0
 59 71  1  0  0  0  0
 60 72  1  0  0  0  0
 62 63  1  0  0  0  0
M  CHG  1  72   1
M  ISO  4  34 101  41 100  69 100  81 101
M  END
> <Batch ID>
0089

> <Smiles>
CNC(C)C(=O)NC(C(=O)N1Cc2cc([101O:1][101CH2:1]C(=O)C(=O)Nc3ccc([100NH:0][100C:0](=O)N4CCCC(n5nc(-c6ccc(Oc7ccc(F)cc7F)cc6)c(C(N)=O)c5N)C4)c(F)c3)ccc2CC1C(=O)NC1CCCc2ccccc21)C(C)(C)C

> <Shape>
0.275

> <Color>
0.106

> <Negative vol penalty>
0.000

$$$$

  -OEChem-04052300263D

 85 93  0     1  0  0  0  0  0999 V2000
  -31.8026  -34.1121   22.8567 C   0  0  0  0  0  0  0  0  0  0  0  0
  -31.4331  -33.0450   22.0441 C   0  0  0  0  0  0  0  0  0  0  0  0
  -22.9812  -11.1786   17.5263 C   0  0  0  0  0  0  0  0  0  0  0  0
  -22.6550  -10.2063   19.7138 C   0  0  0  0  0  0  0  0  0  0  0  0
  -30.0271  -19.4210   19.7950 C   0  0  0  0  0  0  0  0  0  0  0  0
  -31.1299  -34.3386   24.0567 C   0  0  0  0  0  0  0  0  0  0  0  0
  -30.3912  -32.2031   22.4317 C   0  0  0  0  0  0  0  0  0  0  0  0
  -26.3299  -29.4455   18.7702 C   0  0  0  0  0  0  0  0  0  0  0  0
  -29.2225  -20.5314   19.5396 C   0  0  0  0  0  0  0  0  0  0  0  0
  -22.0503  -10.2882   16.9916 C   0  0  0  0  0  0  0  0  0  0  0  0
  -21.7239   -9.3158   19.1791 C   0  0  0  0  0  0  0  0  0  0  0  0
  -26.2611  -28.1536   18.2506 C   0  0  0  0  0  0  0  0  0  0  0  0
  -18.4810   -9.3770   18.2304 C   0  0  0  0  0  0  0  0  0  0  0  0
  -17.2910   -9.1866   18.9328 C   0  0  0  0  0  0  0  0  0  0  0  0
  -24.7957  -27.5120   20.0562 C   0  0  0  0  0  0  0  0  0  0  0  0
  -27.8998  -19.2191   18.0015 C   0  0  0  0  0  0  0  0  0  0  0  0
  -17.8021   -6.8364   19.1614 C   0  0  0  0  0  0  0  0  0  0  0  0
  -23.2836  -11.1377   18.8874 C   0  0  0  0  0  0  0  0  0  0  0  0
  -29.7682  -18.2097   19.1536 C   0  0  0  0  0  0  0  0  0  0  0  0
  -23.9919  -13.3358   19.9711 C   0  0  0  0  0  0  0  0  0  0  0  0
  -30.0729  -33.5049   24.4545 C   0  0  0  0  0  0  0  0  0  0  0  0
  -25.6397  -29.7781   19.9446 C   0  0  0  0  0  0  0  0  0  0  0  0
  -29.7046  -32.4179   23.6389 C   0  0  0  0  0  0  0  0  0  0  0  0
  -24.8553  -28.8096   20.5872 C   0  0  0  0  0  0  0  0  0  0  0  0
  -28.1589  -20.4305   18.6429 C   0  0  0  0  0  0  0  0  0  0  0  0
  -21.4216   -9.3568   17.8180 C   0  0  0  0  0  0  0  0  0  0  0  0
  -25.4962  -27.1858   18.8953 C   0  0  0  0  0  0  0  0  0  0  0  0
  -19.3315   -8.2971   17.9934 C   0  0  0  0  0  0  0  0  0  0  0  0
  -16.9516   -7.9163   19.3983 C   0  0  0  0  0  0  0  0  0  0  0  0
  -28.7045  -18.1088   18.2569 C   0  0  0  0  0  0  0  0  0  0  0  0
  -18.9920   -7.0268   18.4590 C   0  0  0  0  0  0  0  0  0  0  0  0
  -24.2457  -12.0569   19.4402 C   0  0  0  0  0  0  0  0  0  0  0  0
  -25.2256  -13.7968   20.3609 C   0  0  0  0  0  0  0  0  0  0  0  0
  -26.4049  -23.7397   18.4026 C   0  0  0  0  0  0  0  0  0  0  0  0
  -26.3530  -25.0110   18.8133 C   0  0  0  0  0  0  0  0  0  1  0  0
  -30.6296  -17.0306   19.4266 C   0  0  0  0  0  0  0  0  0  0  0  0
  -22.7518  -14.0437   20.1003 C   0  0  0  0  0  0  0  0  0  0  0  0
  -27.4609  -22.8283   18.9321 C   0  0  0  0  0  0  0  0  0  0  0  0
  -26.4900  -30.7813   22.8385 C   0  0  0  0  0  0  0  0  0  0  0  0
  -23.2849  -31.0484   23.2612 C   0  0  0  0  0  0  0  0  0  0  0  0
  -20.1495  -30.0609   22.3443 C   0  0  0  0  0  0  0  0  0  0  0  0
  -30.6440  -14.5568   19.4886 C   0  0  0  0  0  0  0  0  0  0  0  0
  -29.4067  -33.7612   25.7831 C   0  0  0  0  0  0  0  0  0  0  0  0
  -25.7027  -31.1833   20.4774 C   0  0  0  0  0  0  0  0  0  0  0  0
  -24.0791  -29.1211   21.8397 C   0  0  0  0  0  0  0  0  0  0  0  0
  -28.0672  -33.0462   25.9408 C   0  0  0  0  0  0  0  0  0  0  0  0
  -29.6706  -11.3993   20.7454 C   0  0  0  0  0  0  0  0  0  0  0  0
  -28.1827  -31.5919   25.4955 C   0  0  0  0  0  0  0  0  0  0  0  0
  -28.1496  -11.3941   20.5702 C   0  0  0  0  0  0  0  0  0  0  0  0
  -30.3737  -12.0942   19.5803 C   0  0  0  0  0  0  0  0  0  0  0  0
  -28.3670  -13.4347   19.0962 C   0  0  0  0  0  0  0  0  0  0  0  0
  -28.5633  -31.4974   24.0130 C   0  0  1  0  0  0  0  0  0  0  0  0
  -25.3720  -31.2741   21.9639 C   0  0  1  0  0  0  0  0  0  0  0  0
  -27.6091  -12.8083   20.2778 C   0  0  1  0  0  0  0  0  0  0  0  0
  -17.7289  -30.4267   22.8958 C   0  0  0  0  0  0  0  0  0  0  0  0
  -23.5980  -29.3306   25.7634 C   0  0  0  0  0  0  0  0  0  0  0  0
  -21.1246  -28.9444   25.7230 C   0  0  0  0  0  0  0  0  0  0  0  0
  -22.0199  -31.2550   26.0098 C   0  0  0  0  0  0  0  0  0  0  0  0
  -19.5614  -31.0650   19.6231 C   0  0  0  0  0  0  0  0  0  0  0  0
  -22.1912  -30.1308   23.7518 C   0  0  1  0  0  0  0  0  0  0  0  0
  -18.8971  -30.8558   22.0218 C   0  0  2  0  0  0  0  0  0  0  0  0
  -22.2495  -29.9085   25.2895 C   0  0  0  0  0  0  0  0  0  0  0  0
  -25.5390  -11.7266   19.4869 N   0  0  0  0  0  0  0  0  0  0  0  0
  -26.1090  -12.8047   20.0516 N   0  0  0  0  0  0  0  0  0  0  0  0
  -24.1777  -30.5076   22.3251 N   0  0  0  0  0  0  0  0  0  0  0  0
  -29.8110  -13.4301   19.3748 N   0  0  0  0  0  0  0  0  0  0  0  0
  -25.6301  -14.9499   20.9346 N   0  0  0  0  0  0  0  0  0  0  0  0
  -21.5785  -13.4240   19.6490 N   0  0  0  0  0  0  0  0  0  0  0  0
  -27.3418  -21.5582   18.3836 N   0  0  0  0  0  0  0  0  0  0  0  0
  -30.0031  -15.7888   19.3170 N   0  0  0  0  0  0  0  0  0  0  0  0
  -27.4099  -31.7551   23.1777 N   0  0  0  0  0  0  0  0  0  0  0  0
  -20.9355  -30.7027   23.2779 N   0  0  0  0  0  0  0  0  0  0  0  0
  -18.5130  -30.6611   20.5951 N   0  3  0  0  0  0  0  0  0  0  0  0
  -31.8171  -17.2047   19.6862 O   0  0  0  0  0  0  0  0  0  0  0  0
  -22.6884  -15.1985   20.5861 O   0  0  0  0  0  0  0  0  0  0  0  0
  -28.2909  -23.2214   19.7433 O   0  0  0  0  0  0  0  0  0  0  0  0
  -26.5153  -29.6051   23.1814 O   0  0  0  0  0  0  0  0  0  0  0  0
  -23.3407  -32.2047   23.6872 O   0  0  0  0  0  0  0  0  0  0  0  0
  -20.4032  -28.9772   21.8231 O   0  0  0  0  0  0  0  0  0  0  0  0
  -31.8466  -14.4753   19.7577 O   0  0  0  0  0  0  0  0  0  0  0  0
  -20.5129   -8.4879   17.2966 O   0  0  0  0  0  0  0  0  0  0  0  0
  -25.4279  -25.9238   18.3907 O   0  0  0  0  0  0  0  0  0  1  0  0
  -15.8096   -7.7339   20.0741 F   0  0  0  0  0  0  0  0  0  0  0  0
  -28.4466  -16.9497   17.6344 F   0  0  0  0  0  0  0  0  0  0  0  0
  -19.8056   -5.9857   18.2354 F   0  0  0  0  0  0  0  0  0  0  0  0
  1  2  1  0  0  0  0
  1  6  2  0  0  0  0
  2  7  2  0  0  0  0
  3 10  2  0  0  0  0
  3 18  1  0  0  0  0
  4 11  1  0  0  0  0
  4 18  2  0  0  0  0
  5  9  2  0  0  0  0
  5 19  1  0  0  0  0
  6 21  1  0  0  0  0
  7 23  1  0  0  0  0
  8 12  2  0  0  0  0
  8 22  1  0  0  0  0
  9 25  1  0  0  0  0
 10 26  1  0  0  0  0
 11 26  2  0  0  0  0
 12 27  1  0  0  0  0
 13 14  2  0  0  0  0
 13 28  1  0  0  0  0
 14 29  1  0  0  0  0
 15 24  1  0  0  0  0
 15 27  2  0  0  0  0
 16 25  2  0  0  0  0
 16 30  1  0  0  0  0
 17 29  2  0  0  0  0
 17 31  1  0  0  0  0
 18 32  1  0  0  0  0
 19 30  2  0  0  0  0
 19 36  1  0  0  0  0
 20 32  1  0  0  0  0
 20 33  2  0  0  0  0
 20 37  1  0  0  0  0
 21 23  2  0  0  0  0
 21 43  1  0  0  0  0
 22 24  2  0  0  0  0
 22 44  1  0  0  0  0
 23 52  1  0  0  0  0
 24 45  1  0  0  0  0
 25 69  1  0  0  0  0
 26 81  1  0  0  0  0
 27 82  1  0  0  0  0
 28 31  2  0  0  0  0
 28 81  1  0  0  0  0
 29 83  1  0  0  0  0
 30 84  1  0  0  0  0
 31 85  1  0  0  0  0
 32 63  2  0  0  0  0
 33 64  1  0  0  0  0
 33 67  1  0  0  0  0
 34 35  2  0  0  0  0
 34 38  1  0  0  0  0
 35 82  1  0  0  0  0
 36 70  1  0  0  0  0
 36 74  2  0  0  0  0
 37 68  1  0  0  0  0
 37 75  2  0  0  0  0
 38 69  1  0  0  0  0
 38 76  2  0  0  0  0
 39 53  1  0  0  0  0
 39 71  1  0  0  0  0
 39 77  2  0  0  0  0
 40 60  1  0  0  0  0
 40 65  1  0  0  0  0
 40 78  2  0  0  0  0
 41 61  1  0  0  0  0
 41 72  1  0  0  0  0
 41 79  2  0  0  0  0
 42 66  1  0  0  0  0
 42 70  1  0  0  0  0
 42 80  2  0  0  0  0
 43 46  1  0  0  0  0
 44 53  1  0  0  0  0
 45 65  1  0  0  0  0
 46 48  1  0  0  0  0
 47 49  1  0  0  0  0
 47 50  1  0  0  0  0
 48 52  1  0  0  0  0
 49 54  1  0  0  0  0
 50 66  1  0  0  0  0
 51 54  1  0  0  0  0
 51 66  1  0  0  0  0
 52 71  1  0  0  0  0
 53 65  1  0  0  0  0
 54 64  1  0  0  0  0
 55 61  1  0  0  0  0
 56 62  1  0  0  0  0
 57 62  1  0  0  0  0
 58 62  1  0  0  0  0
 59 73  1  0  0  0  0
 60 62  1  0  0  0  0
 60 72  1  0  0  0  0
 61 73  1  0  0  0  0
 63 64  1  0  0  0  0
M  CHG  1  73   1
M  ISO  4  35 101  42 100  70 100  82 101
M  END
> <Batch ID>
0089

> <Smiles>
CNC(C)C(=O)NC(C(=O)N1Cc2cc([101O:1][101CH:1]=CC(=O)Nc3ccc(C(=O)[100NH:0][100C:0](=O)N4CCCC(n5nc(-c6ccc(Oc7ccc(F)cc7F)cc6)c(C(N)=O)c5N)C4)c(F)c3)ccc2CC1C(=O)NC1CCCc2ccccc21)C(C)(C)C

> <Shape>
0.247

> <Color>
0.143

> <Negative vol penalty>
0.000

$$$$

  -OEChem-04052300263D

 84 92  0     1  0  0  0  0  0999 V2000
  -29.3738  -35.7417   26.0476 C   0  0  0  0  0  0  0  0  0  0  0  0
  -29.8261  -34.9820   24.9735 C   0  0  0  0  0  0  0  0  0  0  0  0
  -22.3592  -10.1281   20.5048 C   0  0  0  0  0  0  0  0  0  0  0  0
  -24.2697   -9.3571   21.7667 C   0  0  0  0  0  0  0  0  0  0  0  0
  -28.3949  -35.2302   26.8985 C   0  0  0  0  0  0  0  0  0  0  0  0
  -29.3006  -33.7098   24.7504 C   0  0  0  0  0  0  0  0  0  0  0  0
  -27.6875  -29.1896   19.4323 C   0  0  0  0  0  0  0  0  0  0  0  0
  -29.9643  -19.4642   20.0929 C   0  0  0  0  0  0  0  0  0  0  0  0
  -29.3445  -20.7114   20.0155 C   0  0  0  0  0  0  0  0  0  0  0  0
  -21.8190   -8.8426   20.5371 C   0  0  0  0  0  0  0  0  0  0  0  0
  -23.7295   -8.0715   21.7991 C   0  0  0  0  0  0  0  0  0  0  0  0
  -27.9146  -27.8739   19.0309 C   0  0  0  0  0  0  0  0  0  0  0  0
  -21.3504   -6.4142   23.5351 C   0  0  0  0  0  0  0  0  0  0  0  0
  -21.3760   -5.7326   24.7517 C   0  0  0  0  0  0  0  0  0  0  0  0
  -26.1706  -27.1251   20.5199 C   0  0  0  0  0  0  0  0  0  0  0  0
  -22.7066   -3.9853   23.7448 C   0  0  0  0  0  0  0  0  0  0  0  0
  -23.5846  -10.3854   21.1195 C   0  0  0  0  0  0  0  0  0  0  0  0
  -23.9413  -12.7444   22.0226 C   0  0  0  0  0  0  0  0  0  0  0  0
  -27.8502  -33.9550   26.6801 C   0  0  0  0  0  0  0  0  0  0  0  0
  -26.7061  -29.4822   20.3901 C   0  0  0  0  0  0  0  0  0  0  0  0
  -28.3145  -33.1802   25.6000 C   0  0  0  0  0  0  0  0  0  0  0  0
  -25.9313  -28.4456   20.9298 C   0  0  0  0  0  0  0  0  0  0  0  0
  -29.5842  -18.5566   21.0816 C   0  0  0  0  0  0  0  0  0  0  0  0
  -28.3448  -21.0511   20.9270 C   0  0  0  0  0  0  0  0  0  0  0  0
  -27.9647  -20.1436   21.9158 C   0  0  0  0  0  0  0  0  0  0  0  0
  -22.5041   -7.8142   21.1843 C   0  0  0  0  0  0  0  0  0  0  0  0
  -27.1581  -26.8411   19.5769 C   0  0  0  0  0  0  0  0  0  0  0  0
  -22.0028   -5.8814   22.4232 C   0  0  0  0  0  0  0  0  0  0  0  0
  -22.0541   -4.5181   24.8566 C   0  0  0  0  0  0  0  0  0  0  0  0
  -22.6809   -4.6670   22.5281 C   0  0  0  0  0  0  0  0  0  0  0  0
  -28.5845  -18.8963   21.9931 C   0  0  0  0  0  0  0  0  0  0  0  0
  -24.1435  -11.7130   21.0860 C   0  0  0  0  0  0  0  0  0  0  0  0
  -24.6839  -13.7951   21.5420 C   0  0  0  0  0  0  0  0  0  0  0  0
  -23.1529  -12.7519   23.2201 C   0  0  0  0  0  0  0  0  0  0  0  0
  -26.7213  -30.7707   23.2959 C   0  0  0  0  0  0  0  0  0  0  0  0
  -23.4994  -30.5740   22.9752 C   0  0  0  0  0  0  0  0  0  0  0  0
  -28.0016  -23.3242   19.9026 C   0  0  0  0  0  0  0  0  0  0  0  0
  -20.8226  -29.0714   21.4840 C   0  0  0  0  0  0  0  0  0  0  0  0
  -29.3837  -15.8146   19.3106 C   0  0  0  0  0  0  0  0  0  0  0  0
  -26.8281  -33.4255   27.6546 C   0  0  0  0  0  0  0  0  0  0  0  0
  -26.4552  -30.9096   20.7927 C   0  0  0  0  0  0  0  0  0  0  0  0
  -24.8518  -28.7091   21.9465 C   0  0  0  0  0  0  0  0  0  0  0  0
  -26.0535  -32.2195   27.1295 C   0  0  0  0  0  0  0  0  0  0  0  0
  -26.9758  -14.4372   17.0786 C   0  0  0  0  0  0  0  0  0  0  0  0
  -27.0057  -31.2030   26.5075 C   0  0  0  0  0  0  0  0  0  0  0  0
  -26.0118  -13.6861   17.9987 C   0  0  0  0  0  0  0  0  0  0  0  0
  -28.4180  -14.3388   17.5710 C   0  0  0  0  0  0  0  0  0  0  0  0
  -27.6598  -14.0015   19.8916 C   0  0  0  0  0  0  0  0  0  0  0  0
  -27.7510  -31.8059   25.3106 C   0  0  1  0  0  0  0  0  0  0  0  0
  -25.7803  -31.0365   22.1550 C   0  0  1  0  0  0  0  0  0  0  0  0
  -26.1860  -14.1189   19.4669 C   0  0  2  0  0  0  0  0  0  0  0  0
  -18.3135  -29.0985   21.4523 C   0  0  0  0  0  0  0  0  0  0  0  0
  -23.4521  -29.0732   25.6314 C   0  0  0  0  0  0  0  0  0  0  0  0
  -21.1299  -28.3155   25.0823 C   0  0  0  0  0  0  0  0  0  0  0  0
  -21.6166  -30.7478   25.3466 C   0  0  0  0  0  0  0  0  0  0  0  0
  -20.7511  -29.8134   18.6198 C   0  0  0  0  0  0  0  0  0  0  0  0
  -30.2493  -17.2240   21.1608 C   0  0  0  0  0  0  0  0  0  0  0  0
  -27.1170  -24.5326   20.1471 C   0  0  0  0  0  0  0  0  0  1  0  0
  -22.4548  -29.5319   23.2945 C   0  0  1  0  0  0  0  0  0  0  0  0
  -19.5839  -29.6473   20.8218 C   0  0  2  0  0  0  0  0  0  0  0  0
  -22.1850  -29.4116   24.8210 C   0  0  0  0  0  0  0  0  0  0  0  0
  -24.9511  -12.0758   20.0859 N   0  0  0  0  0  0  0  0  0  0  0  0
  -25.2629  -13.3468   20.3913 N   0  0  0  0  0  0  0  0  0  0  0  0
  -24.6487  -30.1205   22.3126 N   0  0  0  0  0  0  0  0  0  0  0  0
  -28.5148  -14.7650   18.9692 N   0  0  0  0  0  0  0  0  0  0  0  0
  -26.9540  -20.4696   22.8480 N   0  0  0  0  0  0  0  0  0  0  0  0
  -24.8915  -15.0495   21.9956 N   0  0  0  0  0  0  0  0  0  0  0  0
  -22.4532  -11.5880   23.5667 N   0  0  0  0  0  0  0  0  0  0  0  0
  -27.7309  -22.3223   20.8283 N   0  0  0  0  0  0  0  0  0  0  0  0
  -26.8908  -31.8457   24.1474 N   0  0  0  0  0  0  0  0  0  0  0  0
  -21.2779  -29.8784   22.5051 N   0  0  0  0  0  0  0  0  0  0  0  0
  -29.4102  -16.1600   20.6562 N   0  0  0  0  0  0  0  0  0  0  0  0
  -19.5701  -29.3133   19.3696 N   0  3  0  0  0  0  0  0  0  0  0  0
  -23.0581  -13.7661   23.9521 O   0  0  0  0  0  0  0  0  0  0  0  0
  -27.2530  -29.6712   23.3970 O   0  0  0  0  0  0  0  0  0  0  0  0
  -23.2995  -31.7484   23.2954 O   0  0  0  0  0  0  0  0  0  0  0  0
  -28.8236  -23.3032   18.9924 O   0  0  0  0  0  0  0  0  0  0  0  0
  -21.3329  -28.0098   21.1330 O   0  0  0  0  0  0  0  0  0  0  0  0
  -30.0800  -16.4039   18.4770 O   0  0  0  0  0  0  0  0  0  0  0  0
  -21.9771   -6.5597   21.2162 O   0  0  0  0  0  0  0  0  0  0  0  0
  -27.3781  -25.5559   19.1873 O   0  0  0  0  0  0  0  0  0  1  0  0
  -22.0799   -3.8644   26.0255 F   0  0  0  0  0  0  0  0  0  0  0  0
  -23.3105   -4.1507   21.4638 F   0  0  0  0  0  0  0  0  0  0  0  0
  -28.2208  -18.0216   22.9432 F   0  0  0  0  0  0  0  0  0  0  0  0
  1  2  1  0  0  0  0
  1  5  2  0  0  0  0
  2  6  2  0  0  0  0
  3 10  2  0  0  0  0
  3 17  1  0  0  0  0
  4 11  1  0  0  0  0
  4 17  2  0  0  0  0
  5 19  1  0  0  0  0
  6 21  1  0  0  0  0
  7 12  2  0  0  0  0
  7 20  1  0  0  0  0
  8  9  2  0  0  0  0
  8 23  1  0  0  0  0
  9 24  1  0  0  0  0
 10 26  1  0  0  0  0
 11 26  2  0  0  0  0
 12 27  1  0  0  0  0
 13 14  2  0  0  0  0
 13 28  1  0  0  0  0
 14 29  1  0  0  0  0
 15 22  1  0  0  0  0
 15 27  2  0  0  0  0
 16 29  2  0  0  0  0
 16 30  1  0  0  0  0
 17 32  1  0  0  0  0
 18 32  1  0  0  0  0
 18 33  2  0  0  0  0
 18 34  1  0  0  0  0
 19 21  2  0  0  0  0
 19 40  1  0  0  0  0
 20 22  2  0  0  0  0
 20 41  1  0  0  0  0
 21 49  1  0  0  0  0
 22 42  1  0  0  0  0
 23 31  2  0  0  0  0
 23 57  1  0  0  0  0
 24 25  2  0  0  0  0
 24 69  1  0  0  0  0
 25 31  1  0  0  0  0
 25 66  1  0  0  0  0
 26 80  1  0  0  0  0
 27 81  1  0  0  0  0
 28 30  2  0  0  0  0
 28 80  1  0  0  0  0
 29 82  1  0  0  0  0
 30 83  1  0  0  0  0
 31 84  1  0  0  0  0
 32 62  2  0  0  0  0
 33 63  1  0  0  0  0
 33 67  1  0  0  0  0
 34 68  1  0  0  0  0
 34 74  2  0  0  0  0
 35 50  1  0  0  0  0
 35 70  1  0  0  0  0
 35 75  2  0  0  0  0
 36 59  1  0  0  0  0
 36 64  1  0  0  0  0
 36 76  2  0  0  0  0
 37 58  1  0  0  0  0
 37 69  1  0  0  0  0
 37 77  2  0  0  0  0
 38 60  1  0  0  0  0
 38 71  1  0  0  0  0
 38 78  2  0  0  0  0
 39 65  1  0  0  0  0
 39 72  1  0  0  0  0
 39 79  2  0  0  0  0
 40 43  1  0  0  0  0
 41 50  1  0  0  0  0
 42 64  1  0  0  0  0
 43 45  1  0  0  0  0
 44 46  1  0  0  0  0
 44 47  1  0  0  0  0
 45 49  1  0  0  0  0
 46 51  1  0  0  0  0
 47 65  1  0  0  0  0
 48 51  1  0  0  0  0
 48 65  1  0  0  0  0
 49 70  1  0  0  0  0
 50 64  1  0  0  0  0
 51 63  1  0  0  0  0
 52 60  1  0  0  0  0
 53 61  1  0  0  0  0
 54 61  1  0  0  0  0
 55 61  1  0  0  0  0
 56 73  1  0  0  0  0
 57 72  1  0  0  0  0
 58 81  1  0  0  0  0
 59 61  1  0  0  0  0
 59 71  1  0  0  0  0
 60 73  1  0  0  0  0
 62 63  1  0  0  0  0
M  CHG  1  73   1
M  ISO  4  39 100  58 101  72 100  81 101
M  END
> <Batch ID>
0089

> <Smiles>
CNC(C)C(=O)NC(C(=O)N1Cc2cc([101O:1][101CH2:1]C(=O)Nc3ccc(C[100NH:0][100C:0](=O)N4CCCC(n5nc(-c6ccc(Oc7ccc(F)cc7F)cc6)c(C(N)=O)c5N)C4)c(F)c3N)ccc2CC1C(=O)NC1CCCc2ccccc21)C(C)(C)C

> <Shape>
0.335

> <Color>
0.128

> <Negative vol penalty>
0.000

$$$$

  -OEChem-04052300263D

 88 97  0     1  0  0  0  0  0999 V2000
  -27.1464  -38.4538   23.1408 C   0  0  0  0  0  0  0  0  0  0  0  0
  -27.2624  -37.3442   22.3097 C   0  0  0  0  0  0  0  0  0  0  0  0
  -24.5045   -9.1779   22.1000 C   0  0  0  0  0  0  0  0  0  0  0  0
  -23.3978   -9.6132   19.9970 C   0  0  0  0  0  0  0  0  0  0  0  0
  -29.8066  -20.8406   17.4454 C   0  0  0  0  0  0  0  0  0  0  0  0
  -26.9071  -38.2807   24.5034 C   0  0  0  0  0  0  0  0  0  0  0  0
  -27.1402  -36.0607   22.8410 C   0  0  0  0  0  0  0  0  0  0  0  0
  -24.6777  -31.1642   20.1086 C   0  0  0  0  0  0  0  0  0  0  0  0
  -29.9058  -22.2029   17.7282 C   0  0  0  0  0  0  0  0  0  0  0  0
  -23.4148   -8.4124   22.5150 C   0  0  0  0  0  0  0  0  0  0  0  0
  -22.3081   -8.8477   20.4119 C   0  0  0  0  0  0  0  0  0  0  0  0
  -25.2431  -30.0841   19.4324 C   0  0  0  0  0  0  0  0  0  0  0  0
  -22.2145   -5.2958   21.9868 C   0  0  0  0  0  0  0  0  0  0  0  0
  -22.4784   -4.0688   22.5954 C   0  0  0  0  0  0  0  0  0  0  0  0
  -25.1489  -28.7753   21.4566 C   0  0  0  0  0  0  0  0  0  0  0  0
  -27.5087  -22.3195   18.0069 C   0  0  0  0  0  0  0  0  0  0  0  0
  -21.3436   -4.8158   24.5933 C   0  0  0  0  0  0  0  0  0  0  0  0
  -24.4960   -9.7783   20.8410 C   0  0  0  0  0  0  0  0  0  0  0  0
  -28.5585  -20.2178   17.4433 C   0  0  0  0  0  0  0  0  0  0  0  0
  -26.7612  -10.1208   19.7189 C   0  0  0  0  0  0  0  0  0  0  0  0
  -26.7722  -36.9948   25.0500 C   0  0  0  0  0  0  0  0  0  0  0  0
  -24.3531  -31.0614   21.4689 C   0  0  0  0  0  0  0  0  0  0  0  0
  -26.9001  -35.8703   24.2125 C   0  0  0  0  0  0  0  0  0  0  0  0
  -24.5771  -29.8548   22.1471 C   0  0  0  0  0  0  0  0  0  0  0  0
  -28.7569  -22.9423   18.0090 C   0  0  0  0  0  0  0  0  0  0  0  0
  -22.3166   -8.2473   21.6709 C   0  0  0  0  0  0  0  0  0  0  0  0
  -25.4815  -28.8903   20.1070 C   0  0  0  0  0  0  0  0  0  0  0  0
  -21.5152   -6.2828   22.6814 C   0  0  0  0  0  0  0  0  0  0  0  0
  -22.0430   -3.8288   23.8987 C   0  0  0  0  0  0  0  0  0  0  0  0
  -27.4095  -20.9572   17.7241 C   0  0  0  0  0  0  0  0  0  0  0  0
  -21.0797   -6.0428   23.9846 C   0  0  0  0  0  0  0  0  0  0  0  0
  -25.6211  -10.5697   20.4120 C   0  0  0  0  0  0  0  0  0  0  0  0
  -27.5261  -11.2489   19.5490 C   0  0  0  0  0  0  0  0  0  0  0  0
  -27.9425  -24.9779   19.1505 C   0  0  0  0  0  0  0  0  0  0  0  0
  -27.8736  -26.3043   19.3416 C   0  0  0  0  0  0  0  0  0  0  0  0
  -29.8775  -25.1271   17.6882 C   0  0  0  0  0  0  0  0  0  0  0  0
  -28.4566  -18.7744   17.1427 C   0  0  0  0  0  0  0  0  0  0  0  0
  -27.0987   -8.8020   19.2689 C   0  0  0  0  0  0  0  0  0  0  0  0
  -25.2967  -32.5427   24.1183 C   0  0  0  0  0  0  0  0  0  0  0  0
  -22.9409  -30.7761   25.4792 C   0  0  0  0  0  0  0  0  0  0  0  0
  -20.9640  -27.9970   25.3553 C   0  0  0  0  0  0  0  0  0  0  0  0
  -27.7505  -16.5398   17.9701 C   0  0  0  0  0  0  0  0  0  0  0  0
  -26.5610  -36.8565   26.5370 C   0  0  0  0  0  0  0  0  0  0  0  0
  -23.7191  -32.2270   22.1773 C   0  0  0  0  0  0  0  0  0  0  0  0
  -24.2279  -29.6865   23.6025 C   0  0  0  0  0  0  0  0  0  0  0  0
  -28.8370  -27.2204   18.6554 C   0  0  0  0  0  0  0  0  0  0  0  0
  -30.1213  -26.4856   18.3207 C   0  0  0  0  0  0  0  0  0  0  0  0
  -26.0714  -35.4729   26.9565 C   0  0  0  0  0  0  0  0  0  0  0  0
  -27.1384  -15.8466   21.5621 C   0  0  0  0  0  0  0  0  0  0  0  0
  -26.8932  -34.3854   26.2718 C   0  0  0  0  0  0  0  0  0  0  0  0
  -26.7066  -14.3856   21.5012 C   0  0  0  0  0  0  0  0  0  0  0  0
  -26.7323  -16.6218   20.3094 C   0  0  0  0  0  0  0  0  0  0  0  0
  -26.7765  -14.5202   18.9837 C   0  0  0  0  0  0  0  0  0  0  0  0
  -26.7490  -34.4626   24.7471 C   0  0  1  0  0  0  0  0  0  0  0  0
  -23.9030  -32.1783   23.6909 C   0  0  1  0  0  0  0  0  0  0  0  0
  -27.2291  -13.7256   20.2172 C   0  0  2  0  0  0  0  0  0  0  0  0
  -19.1603  -26.8043   26.6286 C   0  0  0  0  0  0  0  0  0  0  0  0
  -25.0168  -29.7786   27.4806 C   0  0  0  0  0  0  0  0  0  0  0  0
  -23.4396  -27.9323   28.0905 C   0  0  0  0  0  0  0  0  0  0  0  0
  -22.7825  -30.3084   28.4716 C   0  0  0  0  0  0  0  0  0  0  0  0
  -19.0501  -28.2538   23.1125 C   0  0  0  0  0  0  0  0  0  0  0  0
  -26.8370  -26.9394   20.2175 C   0  0  0  0  0  0  0  0  0  1  0  0
  -22.8601  -29.4073   26.1106 C   0  0  1  0  0  0  0  0  0  0  0  0
  -19.4676  -27.8165   25.5360 C   0  0  2  0  0  0  0  0  0  0  0  0
  -23.5332  -29.3601   27.5114 C   0  0  0  0  0  0  0  0  0  0  0  0
  -25.6545  -11.8807   20.6652 N   0  0  0  0  0  0  0  0  0  0  0  0
  -26.8250  -12.2653   20.1284 N   0  0  0  0  0  0  0  0  0  0  0  0
  -28.8607  -24.3582   18.3031 N   0  0  0  0  0  0  0  0  0  0  0  0
  -23.6159  -30.8569   24.2529 N   0  0  0  0  0  0  0  0  0  0  0  0
  -27.1464  -15.9366   19.0773 N   0  0  0  0  0  0  0  0  0  0  0  0
  -28.7232  -11.4607   18.9621 N   0  0  0  0  0  0  0  0  0  0  0  0
  -26.2001   -7.7577   19.5264 N   0  0  0  0  0  0  0  0  0  0  0  0
  -27.9310  -17.9713   18.0807 N   0  0  0  0  0  0  0  0  0  0  0  0
  -25.4848  -33.8952   24.3296 N   0  0  0  0  0  0  0  0  0  0  0  0
  -21.4476  -29.0420   26.1138 N   0  0  0  0  0  0  0  0  0  0  0  0
  -28.9001  -18.3587   15.9565 N   0  3  0  0  0  0  0  0  0  0  0  0
  -18.8462  -27.3418   24.2673 N   0  3  0  0  0  0  0  0  0  0  0  0
  -30.5846  -24.7740   16.7426 O   0  0  0  0  0  0  0  0  0  0  0  0
  -28.1732   -8.5539   18.6709 O   0  0  0  0  0  0  0  0  0  0  0  0
  -26.1386  -31.6618   24.2482 O   0  0  0  0  0  0  0  0  0  0  0  0
  -22.4181  -31.7369   26.0493 O   0  0  0  0  0  0  0  0  0  0  0  0
  -21.6372  -27.2802   24.6181 O   0  0  0  0  0  0  0  0  0  0  0  0
  -28.0946  -15.9641   16.9434 O   0  0  0  0  0  0  0  0  0  0  0  0
  -21.2533   -7.5002   22.0754 O   0  0  0  0  0  0  0  0  0  0  0  0
  -26.0339  -27.8346   19.4496 O   0  0  0  0  0  0  0  0  0  1  0  0
  -22.2952   -2.6500   24.4825 F   0  0  0  0  0  0  0  0  0  0  0  0
  -26.2056  -20.3680   17.7226 F   0  0  0  0  0  0  0  0  0  0  0  0
  -20.4064   -6.9868   24.6565 F   0  0  0  0  0  0  0  0  0  0  0  0
  1  2  1  0  0  0  0
  1  6  2  0  0  0  0
  2  7  2  0  0  0  0
  3 10  2  0  0  0  0
  3 18  1  0  0  0  0
  4 11  1  0  0  0  0
  4 18  2  0  0  0  0
  5  9  2  0  0  0  0
  5 19  1  0  0  0  0
  6 21  1  0  0  0  0
  7 23  1  0  0  0  0
  8 12  2  0  0  0  0
  8 22  1  0  0  0  0
  9 25  1  0  0  0  0
 10 26  1  0  0  0  0
 11 26  2  0  0  0  0
 12 27  1  0  0  0  0
 13 14  2  0  0  0  0
 13 28  1  0  0  0  0
 14 29  1  0  0  0  0
 15 24  1  0  0  0  0
 15 27  2  0  0  0  0
 16 25  2  0  0  0  0
 16 30  1  0  0  0  0
 17 29  2  0  0  0  0
 17 31  1  0  0  0  0
 18 32  1  0  0  0  0
 19 30  2  0  0  0  0
 19 37  1  0  0  0  0
 20 32  1  0  0  0  0
 20 33  2  0  0  0  0
 20 38  1  0  0  0  0
 21 23  2  0  0  0  0
 21 43  1  0  0  0  0
 22 24  2  0  0  0  0
 22 44  1  0  0  0  0
 23 54  1  0  0  0  0
 24 45  1  0  0  0  0
 25 68  1  0  0  0  0
 26 84  1  0  0  0  0
 27 85  1  0  0  0  0
 28 31  2  0  0  0  0
 28 84  1  0  0  0  0
 29 86  1  0  0  0  0
 30 87  1  0  0  0  0
 31 88  1  0  0  0  0
 32 66  2  0  0  0  0
 33 67  1  0  0  0  0
 33 71  1  0  0  0  0
 34 35  2  0  0  0  0
 34 68  1  0  0  0  0
 35 46  1  0  0  0  0
 35 62  1  0  0  0  0
 36 47  1  0  0  0  0
 36 68  1  0  0  0  0
 36 78  2  0  0  0  0
 37 73  1  0  0  0  0
 37 76  2  0  0  0  0
 38 72  1  0  0  0  0
 38 79  2  0  0  0  0
 39 55  1  0  0  0  0
 39 74  1  0  0  0  0
 39 80  2  0  0  0  0
 40 63  1  0  0  0  0
 40 69  1  0  0  0  0
 40 81  2  0  0  0  0
 41 64  1  0  0  0  0
 41 75  1  0  0  0  0
 41 82  2  0  0  0  0
 42 70  1  0  0  0  0
 42 73  1  0  0  0  0
 42 83  2  0  0  0  0
 43 48  1  0  0  0  0
 44 55  1  0  0  0  0
 45 69  1  0  0  0  0
 46 47  1  0  0  0  0
 48 50  1  0  0  0  0
 49 51  1  0  0  0  0
 49 52  1  0  0  0  0
 50 54  1  0  0  0  0
 51 56  1  0  0  0  0
 52 70  1  0  0  0  0
 53 56  1  0  0  0  0
 53 70  1  0  0  0  0
 54 74  1  0  0  0  0
 55 69  1  0  0  0  0
 56 67  1  0  0  0  0
 57 64  1  0  0  0  0
 58 65  1  0  0  0  0
 59 65  1  0  0  0  0
 60 65  1  0  0  0  0
 61 77  1  0  0  0  0
 62 85  1  0  0  0  0
 63 65  1  0  0  0  0
 63 75  1  0  0  0  0
 64 77  1  0  0  0  0
 66 67  1  0  0  0  0
M  CHG  2  76   1  77   1
M  ISO  4  42 100  62 101  73 100  85 101
M  END
> <Batch ID>
0089

> <Smiles>
CNC(C)C(=O)NC(C(=O)N1Cc2cc([101O:1][101CH2:1]C3=CN(c4ccc(C(=N)[100NH:0][100C:0](=O)N5CCCC(n6nc(-c7ccc(Oc8ccc(F)cc8F)cc7)c(C(N)=O)c6N)C5)c(F)c4)C(=O)CC3)ccc2CC1C(=O)NC1CCCc2ccccc21)C(C)(C)C

> <Shape>
0.301

> <Color>
0.096

> <Negative vol penalty>
0.000

$$$$

  -OEChem-04052300263D

 88 97  0     1  0  0  0  0  0999 V2000
  -15.3779  -26.1052   25.9310 C   0  0  0  0  0  0  0  0  0  0  0  0
  -16.5859  -25.4374   25.7572 C   0  0  0  0  0  0  0  0  0  0  0  0
  -22.8866  -11.1474   19.0699 C   0  0  0  0  0  0  0  0  0  0  0  0
  -23.0715   -9.9638   21.1680 C   0  0  0  0  0  0  0  0  0  0  0  0
  -14.8509  -26.8720   24.8926 C   0  0  0  0  0  0  0  0  0  0  0  0
  -17.2671  -25.5352   24.5444 C   0  0  0  0  0  0  0  0  0  0  0  0
  -23.3360  -25.6171   23.7270 C   0  0  0  0  0  0  0  0  0  0  0  0
  -21.8705  -10.2797   18.6698 C   0  0  0  0  0  0  0  0  0  0  0  0
  -22.0553   -9.0960   20.7679 C   0  0  0  0  0  0  0  0  0  0  0  0
  -24.2477  -24.6249   23.3692 C   0  0  0  0  0  0  0  0  0  0  0  0
  -21.7322   -6.3963   18.7584 C   0  0  0  0  0  0  0  0  0  0  0  0
  -21.9222   -5.0318   18.9761 C   0  0  0  0  0  0  0  0  0  0  0  0
  -24.1110  -25.3372   21.0685 C   0  0  0  0  0  0  0  0  0  0  0  0
  -27.9864  -19.4717   20.8711 C   0  0  0  0  0  0  0  0  0  0  0  0
  -29.0241  -20.2959   18.8511 C   0  0  0  0  0  0  0  0  0  0  0  0
  -19.9496   -4.9795   20.3701 C   0  0  0  0  0  0  0  0  0  0  0  0
  -23.4871  -10.9895   20.3190 C   0  0  0  0  0  0  0  0  0  0  0  0
  -29.7780  -18.2232   19.8373 C   0  0  0  0  0  0  0  0  0  0  0  0
  -24.3931  -13.0993   21.4305 C   0  0  0  0  0  0  0  0  0  0  0  0
  -15.5308  -26.9870   23.6698 C   0  0  0  0  0  0  0  0  0  0  0  0
  -22.7957  -26.4713   22.7549 C   0  0  0  0  0  0  0  0  0  0  0  0
  -16.7481  -26.3031   23.4882 C   0  0  0  0  0  0  0  0  0  0  0  0
  -23.1945  -26.3411   21.4169 C   0  0  0  0  0  0  0  0  0  0  0  0
  -28.0810  -20.4373   19.8691 C   0  0  0  0  0  0  0  0  0  0  0  0
  -28.8349  -18.3646   20.8553 C   0  0  0  0  0  0  0  0  0  0  0  0
  -21.4548   -9.2540   19.5188 C   0  0  0  0  0  0  0  0  0  0  0  0
  -24.6332  -24.4830   22.0394 C   0  0  0  0  0  0  0  0  0  0  0  0
  -20.6509   -7.0525   19.3466 C   0  0  0  0  0  0  0  0  0  0  0  0
  -21.0310   -4.3233   19.7819 C   0  0  0  0  0  0  0  0  0  0  0  0
  -29.8726  -19.1889   18.8352 C   0  0  0  0  0  0  0  0  0  0  0  0
  -19.7596   -6.3441   20.1524 C   0  0  0  0  0  0  0  0  0  0  0  0
  -24.5372  -11.8852   20.7326 C   0  0  0  0  0  0  0  0  0  0  0  0
  -25.6770  -13.5637   21.5803 C   0  0  0  0  0  0  0  0  0  0  0  0
  -27.5513  -22.8221   19.3763 C   0  0  0  0  0  0  0  0  0  0  0  0
  -25.9273  -21.5658   20.4195 C   0  0  0  0  0  0  0  0  0  0  0  0
  -30.6932  -17.0539   19.7941 C   0  0  0  0  0  0  0  0  0  0  0  0
  -23.2050  -13.7492   21.9013 C   0  0  0  0  0  0  0  0  0  0  0  0
  -19.8695  -27.0574   21.6605 C   0  0  0  0  0  0  0  0  0  0  0  0
  -21.3821  -29.3945   19.9954 C   0  0  0  0  0  0  0  0  0  0  0  0
  -24.2830  -30.5679   18.6334 C   0  0  0  0  0  0  0  0  0  0  0  0
  -30.7518  -14.5871   19.6062 C   0  0  0  0  0  0  0  0  0  0  0  0
  -14.8983  -27.7891   22.5602 C   0  0  0  0  0  0  0  0  0  0  0  0
  -21.8336  -27.5538   23.1611 C   0  0  0  0  0  0  0  0  0  0  0  0
  -22.6592  -27.2458   20.3383 C   0  0  0  0  0  0  0  0  0  0  0  0
  -26.3288  -23.6958   19.4300 C   0  0  0  0  0  0  0  0  0  0  0  0
  -15.8682  -28.1443   21.4362 C   0  0  0  0  0  0  0  0  0  0  0  0
  -30.1244  -11.2943   20.7288 C   0  0  0  0  0  0  0  0  0  0  0  0
  -16.6818  -26.9207   21.0265 C   0  0  0  0  0  0  0  0  0  0  0  0
  -28.6030  -11.2535   20.8961 C   0  0  0  0  0  0  0  0  0  0  0  0
  -30.5395  -12.1190   19.5113 C   0  0  0  0  0  0  0  0  0  0  0  0
  -28.4589  -13.4295   19.6200 C   0  0  0  0  0  0  0  0  0  0  0  0
  -17.5290  -26.4047   22.1959 C   0  0  1  0  0  0  0  0  0  0  0  0
  -25.4046  -22.9753   20.3858 C   0  0  2  0  0  0  0  0  0  1  0  0
  -20.9554  -28.0353   22.0103 C   0  0  1  0  0  0  0  0  0  0  0  0
  -27.9932  -12.6695   20.8725 C   0  0  1  0  0  0  0  0  0  0  0  0
  -25.1984  -32.4869   17.3005 C   0  0  0  0  0  0  0  0  0  0  0  0
  -20.1189  -28.2395   17.4695 C   0  0  0  0  0  0  0  0  0  0  0  0
  -21.7752  -29.5505   16.1256 C   0  0  0  0  0  0  0  0  0  0  0  0
  -20.1330  -30.7379   17.5802 C   0  0  0  0  0  0  0  0  0  0  0  0
  -26.1439  -31.3377   20.8021 C   0  0  0  0  0  0  0  0  0  0  0  0
  -22.0520  -29.4830   18.6454 C   0  0  1  0  0  0  0  0  0  0  0  0
  -24.9442  -31.9330   18.6938 C   0  0  2  0  0  0  0  0  0  0  0  0
  -21.0285  -29.4843   17.4750 C   0  0  0  0  0  0  0  0  0  0  0  0
  -25.8120  -11.5965   20.4579 N   0  0  0  0  0  0  0  0  0  0  0  0
  -26.4807  -12.6358   20.9859 N   0  0  0  0  0  0  0  0  0  0  0  0
  -27.2105  -21.5751   19.8859 N   0  0  0  0  0  0  0  0  0  0  0  0
  -21.7165  -28.2848   20.7845 N   0  0  0  0  0  0  0  0  0  0  0  0
  -29.9286  -13.4482   19.5692 N   0  0  0  0  0  0  0  0  0  0  0  0
  -28.7228  -17.3979   21.8796 N   0  0  0  0  0  0  0  0  0  0  0  0
  -26.1856  -14.6711   22.1611 N   0  0  0  0  0  0  0  0  0  0  0  0
  -21.9681  -13.1347   21.6627 N   0  0  0  0  0  0  0  0  0  0  0  0
  -30.0735  -15.8072   19.7040 N   0  0  0  0  0  0  0  0  0  0  0  0
  -18.7008  -27.2347   22.3760 N   0  0  0  0  0  0  0  0  0  0  0  0
  -22.9086  -30.6630   18.6914 N   0  0  0  0  0  0  0  0  0  0  0  0
  -26.2482  -31.8457   19.4100 N   0  3  0  0  0  0  0  0  0  0  0  0
  -28.6224  -23.2272   18.9447 O   0  0  0  0  0  0  0  0  0  0  0  0
  -25.2669  -20.6352   20.8617 O   0  0  0  0  0  0  0  0  0  0  0  0
  -31.9064  -17.2435   19.7995 O   0  0  0  0  0  0  0  0  0  0  0  0
  -23.2379  -14.8505   22.5009 O   0  0  0  0  0  0  0  0  0  0  0  0
  -20.0762  -26.2061   20.8037 O   0  0  0  0  0  0  0  0  0  0  0  0
  -20.5968  -30.2811   20.3401 O   0  0  0  0  0  0  0  0  0  0  0  0
  -24.9217  -29.5219   18.5401 O   0  0  0  0  0  0  0  0  0  0  0  0
  -31.9850  -14.5220   19.5921 O   0  0  0  0  0  0  0  0  0  0  0  0
  -20.4632   -8.4071   19.1288 O   0  0  0  0  0  0  0  0  0  0  0  0
  -25.5225  -23.5149   21.6874 O   0  0  0  0  0  0  0  0  0  1  0  0
  -21.2127   -3.0126   19.9896 F   0  0  0  0  0  0  0  0  0  0  0  0
  -30.7740  -19.0636   17.8507 F   0  0  0  0  0  0  0  0  0  0  0  0
  -18.7184   -6.9688   20.7193 F   0  0  0  0  0  0  0  0  0  0  0  0
  1  2  1  0  0  0  0
  1  5  2  0  0  0  0
  2  6  2  0  0  0  0
  3  8  2  0  0  0  0
  3 17  1  0  0  0  0
  4  9  1  0  0  0  0
  4 17  2  0  0  0  0
  5 20  1  0  0  0  0
  6 22  1  0  0  0  0
  7 10  2  0  0  0  0
  7 21  1  0  0  0  0
  8 26  1  0  0  0  0
  9 26  2  0  0  0  0
 10 27  1  0  0  0  0
 11 12  2  0  0  0  0
 11 28  1  0  0  0  0
 12 29  1  0  0  0  0
 13 23  1  0  0  0  0
 13 27  2  0  0  0  0
 14 24  1  0  0  0  0
 14 25  2  0  0  0  0
 15 24  2  0  0  0  0
 15 30  1  0  0  0  0
 16 29  2  0  0  0  0
 16 31  1  0  0  0  0
 17 32  1  0  0  0  0
 18 25  1  0  0  0  0
 18 30  2  0  0  0  0
 18 36  1  0  0  0  0
 19 32  1  0  0  0  0
 19 33  2  0  0  0  0
 19 37  1  0  0  0  0
 20 22  2  0  0  0  0
 20 42  1  0  0  0  0
 21 23  2  0  0  0  0
 21 43  1  0  0  0  0
 22 52  1  0  0  0  0
 23 44  1  0  0  0  0
 24 66  1  0  0  0  0
 25 69  1  0  0  0  0
 26 84  1  0  0  0  0
 27 85  1  0  0  0  0
 28 31  2  0  0  0  0
 28 84  1  0  0  0  0
 29 86  1  0  0  0  0
 30 87  1  0  0  0  0
 31 88  1  0  0  0  0
 32 64  2  0  0  0  0
 33 65  1  0  0  0  0
 33 70  1  0  0  0  0
 34 45  1  0  0  0  0
 34 66  1  0  0  0  0
 34 76  2  0  0  0  0
 35 53  1  0  0  0  0
 35 66  1  0  0  0  0
 35 77  2  0  0  0  0
 36 72  1  0  0  0  0
 36 78  2  0  0  0  0
 37 71  1  0  0  0  0
 37 79  2  0  0  0  0
 38 54  1  0  0  0  0
 38 73  1  0  0  0  0
 38 80  2  0  0  0  0
 39 61  1  0  0  0  0
 39 67  1  0  0  0  0
 39 81  2  0  0  0  0
 40 62  1  0  0  0  0
 40 74  1  0  0  0  0
 40 82  2  0  0  0  0
 41 68  1  0  0  0  0
 41 72  1  0  0  0  0
 41 83  2  0  0  0  0
 42 46  1  0  0  0  0
 43 54  1  0  0  0  0
 44 67  1  0  0  0  0
 45 53  1  0  0  0  0
 46 48  1  0  0  0  0
 47 49  1  0  0  0  0
 47 50  1  0  0  0  0
 48 52  1  0  0  0  0
 49 55  1  0  0  0  0
 50 68  1  0  0  0  0
 51 55  1  0  0  0  0
 51 68  1  0  0  0  0
 52 73  1  0  0  0  0
 53 85  1  0  0  0  0
 54 67  1  0  0  0  0
 55 65  1  0  0  0  0
 56 62  1  0  0  0  0
 57 63  1  0  0  0  0
 58 63  1  0  0  0  0
 59 63  1  0  0  0  0
 60 75  1  0  0  0  0
 61 63  1  0  0  0  0
 61 74  1  0  0  0  0
 62 75  1  0  0  0  0
 64 65  1  0  0  0  0
M  CHG  1  75   1
M  ISO  4  41 100  53 101  72 100  85 101
M  END
> <Batch ID>
0089

> <Smiles>
CNC(C)C(=O)NC(C(=O)N1Cc2cc([101O:1][101CH:1]3CC(=O)N(c4cc(N)c(C(=O)[100NH:0][100C:0](=O)N5CCCC(n6nc(-c7ccc(Oc8ccc(F)cc8F)cc7)c(C(N)=O)c6N)C5)c(F)c4)C3=O)ccc2CC1C(=O)NC1CCCc2ccccc21)C(C)(C)C

> <Shape>
0.236

> <Color>
0.090

> <Negative vol penalty>
0.000

$$$$

  -OEChem-04052300263D

 91100  0     1  0  0  0  0  0999 V2000
  -18.1879  -16.0383   22.3872 C   0  0  0  0  0  0  0  0  0  0  0  0
  -19.4016  -16.6965   22.5582 C   0  0  0  0  0  0  0  0  0  0  0  0
  -23.7176  -28.0053   23.2429 C   0  0  0  0  0  0  0  0  0  0  0  0
  -22.7776  -29.1824   21.3540 C   0  0  0  0  0  0  0  0  0  0  0  0
  -18.1323  -14.6477   22.4720 C   0  0  0  0  0  0  0  0  0  0  0  0
  -20.5602  -15.9645   22.8153 C   0  0  0  0  0  0  0  0  0  0  0  0
  -24.5059  -17.5418   20.0604 C   0  0  0  0  0  0  0  0  0  0  0  0
  -22.6831  -28.4763   24.0513 C   0  0  0  0  0  0  0  0  0  0  0  0
  -21.7430  -29.6534   22.1623 C   0  0  0  0  0  0  0  0  0  0  0  0
  -25.1539  -18.7019   20.4823 C   0  0  0  0  0  0  0  0  0  0  0  0
  -18.6552  -30.8726   23.6445 C   0  0  0  0  0  0  0  0  0  0  0  0
  -17.3572  -30.8152   23.1371 C   0  0  0  0  0  0  0  0  0  0  0  0
  -26.8776  -17.3598   21.5055 C   0  0  0  0  0  0  0  0  0  0  0  0
  -29.8470  -25.5697   20.4189 C   0  0  0  0  0  0  0  0  0  0  0  0
  -30.4935  -26.3751   23.0105 C   0  0  0  0  0  0  0  0  0  0  0  0
  -17.5442  -28.4153   22.9303 C   0  0  0  0  0  0  0  0  0  0  0  0
  -23.7649  -28.3584   21.8943 C   0  0  0  0  0  0  0  0  0  0  0  0
  -24.8516  -26.6820   20.3078 C   0  0  0  0  0  0  0  0  0  0  0  0
  -19.2926  -13.8977   22.7206 C   0  0  0  0  0  0  0  0  0  0  0  0
  -25.0340  -16.2797   20.3678 C   0  0  0  0  0  0  0  0  0  0  0  0
  -20.5199  -14.5627   22.9048 C   0  0  0  0  0  0  0  0  0  0  0  0
  -26.2358  -16.1853   21.0841 C   0  0  0  0  0  0  0  0  0  0  0  0
  -30.4489  -26.8095   20.6342 C   0  0  0  0  0  0  0  0  0  0  0  0
  -29.5683  -24.7327   21.4994 C   0  0  0  0  0  0  0  0  0  0  0  0
  -30.7722  -27.2122   21.9300 C   0  0  0  0  0  0  0  0  0  0  0  0
  -21.6958  -29.3003   23.5110 C   0  0  0  0  0  0  0  0  0  0  0  0
  -26.3384  -18.6110   21.2074 C   0  0  0  0  0  0  0  0  0  0  0  0
  -19.3977  -29.7014   23.7948 C   0  0  0  0  0  0  0  0  0  0  0  0
  -16.8017  -29.5865   22.7800 C   0  0  0  0  0  0  0  0  0  0  0  0
  -29.8915  -25.1354   22.7952 C   0  0  0  0  0  0  0  0  0  0  0  0
  -18.8422  -28.4727   23.4377 C   0  0  0  0  0  0  0  0  0  0  0  0
  -24.8337  -27.8726   21.0589 C   0  0  0  0  0  0  0  0  0  0  0  0
  -26.0806  -26.6813   19.6947 C   0  0  0  0  0  0  0  0  0  0  0  0
  -28.0243  -21.7796   20.9625 C   0  0  0  0  0  0  0  0  0  0  0  0
  -28.5620  -22.8777   20.1584 C   0  0  0  0  0  0  0  0  0  0  0  0
  -27.3883  -20.6308   20.6699 C   0  0  0  0  0  0  0  0  0  1  0  0
  -23.8470  -25.6675   20.1762 C   0  0  0  0  0  0  0  0  0  0  0  0
  -31.8638  -27.5320   18.9289 C   0  0  0  0  0  0  0  0  0  0  0  0
  -32.0702  -28.4553   17.7586 C   0  0  0  0  0  0  0  0  0  0  0  0
  -24.0242  -13.7721   22.0399 C   0  0  0  0  0  0  0  0  0  0  0  0
  -26.7180  -12.3973   20.8672 C   0  0  0  0  0  0  0  0  0  0  0  0
  -29.8595  -12.8011   19.5962 C   0  0  0  0  0  0  0  0  0  0  0  0
  -31.1854  -29.6200   21.3619 C   0  0  0  0  0  0  0  0  0  0  0  0
  -19.1747  -12.3997   22.8504 C   0  0  0  0  0  0  0  0  0  0  0  0
  -24.3371  -15.0383   19.8824 C   0  0  0  0  0  0  0  0  0  0  0  0
  -26.8549  -14.8546   21.4224 C   0  0  0  0  0  0  0  0  0  0  0  0
  -28.4890  -22.5000   22.2074 C   0  0  0  0  0  0  0  0  0  0  0  0
  -20.5135  -11.6727   22.7538 C   0  0  0  0  0  0  0  0  0  0  0  0
  -29.4854  -29.6193   18.0750 C   0  0  0  0  0  0  0  0  0  0  0  0
  -21.5590  -12.3612   23.6255 C   0  0  0  0  0  0  0  0  0  0  0  0
  -28.0744  -29.1489   18.4230 C   0  0  0  0  0  0  0  0  0  0  0  0
  -30.1421  -30.3516   19.2414 C   0  0  0  0  0  0  0  0  0  0  0  0
  -28.7527  -29.0845   20.8555 C   0  0  0  0  0  0  0  0  0  0  0  0
  -21.8029  -13.8019   23.1605 C   0  0  1  0  0  0  0  0  0  0  0  0
  -24.6930  -13.7969   20.6947 C   0  0  1  0  0  0  0  0  0  0  0  0
  -28.0848  -28.3085   19.7105 C   0  0  1  0  0  0  0  0  0  0  0  0
  -33.0155  -26.6402   19.2994 C   0  0  0  0  0  0  0  0  0  0  0  0
  -33.1851  -29.4501   17.8691 C   0  0  0  0  0  0  0  0  0  0  0  0
  -31.8318  -11.4907   18.7654 C   0  0  0  0  0  0  0  0  0  0  0  0
  -27.4676  -11.7067   23.7431 C   0  0  0  0  0  0  0  0  0  0  0  0
  -29.8064  -11.2808   22.9577 C   0  0  0  0  0  0  0  0  0  0  0  0
  -27.9265   -9.8947   22.0817 C   0  0  0  0  0  0  0  0  0  0  0  0
  -32.4824  -28.5459   23.1495 C   0  0  0  0  0  0  0  0  0  0  0  0
  -29.6796  -14.0161   16.9036 C   0  0  0  0  0  0  0  0  0  0  0  0
  -28.1531  -12.2964   21.3248 C   0  0  1  0  0  0  0  0  0  0  0  0
  -30.5402  -12.1959   18.3818 C   0  0  2  0  0  0  0  0  0  0  0  0
  -28.3260  -11.3199   22.5223 C   0  0  0  0  0  0  0  0  0  0  0  0
  -25.9618  -28.5769   20.9357 N   0  0  0  0  0  0  0  0  0  0  0  0
  -30.7207  -27.6337   19.5344 N   0  0  0  0  0  0  0  0  0  0  0  0
  -26.7002  -27.8267   20.1002 N   0  0  0  0  0  0  0  0  0  0  0  0
  -28.9748  -23.5105   21.2844 N   0  0  0  0  0  0  0  0  0  0  0  0
  -26.1325  -13.6697   20.9311 N   0  0  0  0  0  0  0  0  0  0  0  0
  -30.0911  -29.5644   20.4744 N   0  0  0  0  0  0  0  0  0  0  0  0
  -26.6810  -25.8126   18.8537 N   0  0  0  0  0  0  0  0  0  0  0  0
  -22.6424  -25.8254   20.8749 N   0  0  0  0  0  0  0  0  0  0  0  0
  -22.6442  -13.8174   21.9831 N   0  0  0  0  0  0  0  0  0  0  0  0
  -28.9336  -11.9393   20.1451 N   0  0  0  0  0  0  0  0  0  0  0  0
  -31.3946  -28.4901   22.1754 N   0  0  0  0  0  0  0  0  0  0  0  0
  -30.8619  -13.2570   17.3859 N   0  3  0  0  0  0  0  0  0  0  0  0
  -28.6100  -23.1319   18.9728 O   0  0  0  0  0  0  0  0  0  0  0  0
  -24.0192  -24.6431   19.4730 O   0  0  0  0  0  0  0  0  0  0  0  0
  -31.3249  -28.3432   16.7970 O   0  0  0  0  0  0  0  0  0  0  0  0
  -24.7093  -13.7145   23.0543 O   0  0  0  0  0  0  0  0  0  0  0  0
  -26.1402  -11.3860   20.4610 O   0  0  0  0  0  0  0  0  0  0  0  0
  -30.1253  -13.9244   20.0181 O   0  0  0  0  0  0  0  0  0  0  0  0
  -31.8948  -30.6285   21.4636 O   0  0  0  0  0  0  0  0  0  0  0  0
  -20.6860  -29.7599   24.2994 O   0  0  0  0  0  0  0  0  0  0  0  0
  -26.9725  -19.7418   21.6210 O   0  0  0  0  0  0  0  0  0  1  0  0
  -15.5546  -29.5314   22.2941 F   0  0  0  0  0  0  0  0  0  0  0  0
  -29.6287  -24.3391   23.8413 F   0  0  0  0  0  0  0  0  0  0  0  0
  -19.5503  -27.3440   23.5809 F   0  0  0  0  0  0  0  0  0  0  0  0
  1  2  1  0  0  0  0
  1  5  2  0  0  0  0
  2  6  2  0  0  0  0
  3  8  2  0  0  0  0
  3 17  1  0  0  0  0
  4  9  1  0  0  0  0
  4 17  2  0  0  0  0
  5 19  1  0  0  0  0
  6 21  1  0  0  0  0
  7 10  2  0  0  0  0
  7 20  1  0  0  0  0
  8 26  1  0  0  0  0
  9 26  2  0  0  0  0
 10 27  1  0  0  0  0
 11 12  2  0  0  0  0
 11 28  1  0  0  0  0
 12 29  1  0  0  0  0
 13 22  1  0  0  0  0
 13 27  2  0  0  0  0
 14 23  2  0  0  0  0
 14 24  1  0  0  0  0
 15 25  2  0  0  0  0
 15 30  1  0  0  0  0
 16 29  2  0  0  0  0
 16 31  1  0  0  0  0
 17 32  1  0  0  0  0
 18 32  1  0  0  0  0
 18 33  2  0  0  0  0
 18 37  1  0  0  0  0
 19 21  2  0  0  0  0
 19 44  1  0  0  0  0
 20 22  2  0  0  0  0
 20 45  1  0  0  0  0
 21 54  1  0  0  0  0
 22 46  1  0  0  0  0
 23 25  1  0  0  0  0
 23 69  1  0  0  0  0
 24 30  2  0  0  0  0
 24 71  1  0  0  0  0
 25 78  1  0  0  0  0
 26 87  1  0  0  0  0
 27 88  1  0  0  0  0
 28 31  2  0  0  0  0
 28 87  1  0  0  0  0
 29 89  1  0  0  0  0
 30 90  1  0  0  0  0
 31 91  1  0  0  0  0
 32 68  2  0  0  0  0
 33 70  1  0  0  0  0
 33 74  1  0  0  0  0
 34 35  1  0  0  0  0
 34 36  2  0  0  0  0
 34 47  1  0  0  0  0
 35 71  1  0  0  0  0
 35 80  2  0  0  0  0
 36 88  1  0  0  0  0
 37 75  1  0  0  0  0
 37 81  2  0  0  0  0
 38 39  1  0  0  0  0
 38 57  1  0  0  0  0
 38 69  2  0  0  0  0
 39 58  1  0  0  0  0
 39 82  2  0  0  0  0
 40 55  1  0  0  0  0
 40 76  1  0  0  0  0
 40 83  2  0  0  0  0
 41 65  1  0  0  0  0
 41 72  1  0  0  0  0
 41 84  2  0  0  0  0
 42 66  1  0  0  0  0
 42 77  1  0  0  0  0
 42 85  2  0  0  0  0
 43 73  1  0  0  0  0
 43 78  1  0  0  0  0
 43 86  2  0  0  0  0
 44 48  1  0  0  0  0
 45 55  1  0  0  0  0
 46 72  1  0  0  0  0
 47 71  1  0  0  0  0
 48 50  1  0  0  0  0
 49 51  1  0  0  0  0
 49 52  1  0  0  0  0
 50 54  1  0  0  0  0
 51 56  1  0  0  0  0
 52 73  1  0  0  0  0
 53 56  1  0  0  0  0
 53 73  1  0  0  0  0
 54 76  1  0  0  0  0
 55 72  1  0  0  0  0
 56 70  1  0  0  0  0
 59 66  1  0  0  0  0
 60 67  1  0  0  0  0
 61 67  1  0  0  0  0
 62 67  1  0  0  0  0
 63 78  1  0  0  0  0
 64 79  1  0  0  0  0
 65 67  1  0  0  0  0
 65 77  1  0  0  0  0
 66 79  1  0  0  0  0
 68 70  1  0  0  0  0
M  CHG  1  79   1
M  ISO  4  36 101  43 100  78 100  88 101
M  END
> <Batch ID>
0089

> <Smiles>
CNC(C)C(=O)NC(C(=O)N1Cc2cc([101O:1][101CH:1]=C3CN(c4cc(N=C(C)C(C)=O)c([100N:0](C)[100C:0](=O)N5CCCC(n6nc(-c7ccc(Oc8ccc(F)cc8F)cc7)c(C(N)=O)c6N)C5)cc4F)C3=O)ccc2CC1C(=O)NC1CCCc2ccccc21)C(C)(C)C

> <Shape>
0.253

> <Color>
0.062

> <Negative vol penalty>
0.000

$$$$

  -OEChem-04052300263D

 80 88  0     1  0  0  0  0  0999 V2000
  -19.4579  -27.6723   26.6174 C   0  0  0  0  0  0  0  0  0  0  0  0
  -20.7785  -27.4157   26.2632 C   0  0  0  0  0  0  0  0  0  0  0  0
  -31.5384  -25.8373   17.6997 C   0  0  0  0  0  0  0  0  0  0  0  0
  -26.3679  -12.9239   21.0616 C   0  0  0  0  0  0  0  0  0  0  0  0
  -26.5040  -12.9821   18.6501 C   0  0  0  0  0  0  0  0  0  0  0  0
  -31.2873  -24.5133   17.3397 C   0  0  0  0  0  0  0  0  0  0  0  0
  -18.5224  -27.9889   25.6333 C   0  0  0  0  0  0  0  0  0  0  0  0
  -21.1642  -27.4745   24.9244 C   0  0  0  0  0  0  0  0  0  0  0  0
  -26.5593  -29.3639   22.7269 C   0  0  0  0  0  0  0  0  0  0  0  0
  -30.6624  -26.5056   18.5552 C   0  0  0  0  0  0  0  0  0  0  0  0
  -25.1516  -12.2465   20.9766 C   0  0  0  0  0  0  0  0  0  0  0  0
  -25.2877  -12.3046   18.5651 C   0  0  0  0  0  0  0  0  0  0  0  0
  -27.6955  -28.6728   22.3083 C   0  0  0  0  0  0  0  0  0  0  0  0
  -24.0949   -9.0883   20.3919 C   0  0  0  0  0  0  0  0  0  0  0  0
  -23.9059   -7.9880   21.2281 C   0  0  0  0  0  0  0  0  0  0  0  0
  -29.2842  -24.5259   18.6905 C   0  0  0  0  0  0  0  0  0  0  0  0
  -26.9260  -28.8025   20.0257 C   0  0  0  0  0  0  0  0  0  0  0  0
  -21.9995   -9.0797   22.2336 C   0  0  0  0  0  0  0  0  0  0  0  0
  -27.0441  -13.2918   19.8983 C   0  0  0  0  0  0  0  0  0  0  0  0
  -30.1602  -23.8576   17.8350 C   0  0  0  0  0  0  0  0  0  0  0  0
  -29.5874  -13.4250   20.0442 C   0  0  0  0  0  0  0  0  0  0  0  0
  -18.8988  -28.0611   24.2829 C   0  0  0  0  0  0  0  0  0  0  0  0
  -25.5909  -29.7705   21.7978 C   0  0  0  0  0  0  0  0  0  0  0  0
  -20.2325  -27.7910   23.9212 C   0  0  0  0  0  0  0  0  0  0  0  0
  -25.7796  -29.5007   20.4348 C   0  0  0  0  0  0  0  0  0  0  0  0
  -29.5353  -25.8499   19.0505 C   0  0  0  0  0  0  0  0  0  0  0  0
  -24.6115  -11.9368   19.7284 C   0  0  0  0  0  0  0  0  0  0  0  0
  -27.8776  -28.3895   20.9578 C   0  0  0  0  0  0  0  0  0  0  0  0
  -23.2363  -10.1843   20.4766 C   0  0  0  0  0  0  0  0  0  0  0  0
  -22.8582   -7.9837   22.1490 C   0  0  0  0  0  0  0  0  0  0  0  0
  -22.1885  -10.1800   21.3974 C   0  0  0  0  0  0  0  0  0  0  0  0
  -28.3003  -13.9921   19.9855 C   0  0  0  0  0  0  0  0  0  0  0  0
  -30.4348  -14.5035   20.1172 C   0  0  0  0  0  0  0  0  0  0  0  0
  -29.8951  -22.4547   17.4532 C   0  0  0  0  0  0  0  0  0  0  0  0
  -29.9818  -12.0466   20.0337 C   0  0  0  0  0  0  0  0  0  0  0  0
  -22.5129  -29.1242   21.3375 C   0  0  0  0  0  0  0  0  0  0  0  0
  -22.7709  -31.4237   19.0641 C   0  0  0  0  0  0  0  0  0  0  0  0
  -24.7748  -33.1684   16.9224 C   0  0  0  0  0  0  0  0  0  0  0  0
  -29.5858  -20.1222   18.2535 C   0  0  0  0  0  0  0  0  0  0  0  0
  -17.8418  -28.3608   23.2496 C   0  0  0  0  0  0  0  0  0  0  0  0
  -24.3839  -30.5384   22.2623 C   0  0  0  0  0  0  0  0  0  0  0  0
  -24.7796  -29.9333   19.3949 C   0  0  0  0  0  0  0  0  0  0  0  0
  -18.4134  -28.7699   21.8945 C   0  0  0  0  0  0  0  0  0  0  0  0
  -30.6600  -19.0134   21.6261 C   0  0  0  0  0  0  0  0  0  0  0  0
  -19.5350  -27.8227   21.4803 C   0  0  0  0  0  0  0  0  0  0  0  0
  -30.2100  -17.5567   21.6041 C   0  0  0  0  0  0  0  0  0  0  0  0
  -29.7480  -19.9123   20.7922 C   0  0  0  0  0  0  0  0  0  0  0  0
  -29.1286  -17.9748   19.3645 C   0  0  0  0  0  0  0  0  0  0  0  0
  -20.6948  -27.8693   22.4824 C   0  0  1  0  0  0  0  0  0  0  0  0
  -23.2112  -30.4537   21.2901 C   0  0  1  0  0  0  0  0  0  0  0  0
  -30.0728  -17.0601   20.1579 C   0  0  2  0  0  0  0  0  0  0  0  0
  -24.6931  -34.9569   15.1641 C   0  0  0  0  0  0  0  0  0  0  0  0
  -21.6098  -29.4170   17.0805 C   0  0  0  0  0  0  0  0  0  0  0  0
  -22.4262  -30.8852   15.2241 C   0  0  0  0  0  0  0  0  0  0  0  0
  -20.7334  -31.7470   16.8410 C   0  0  0  0  0  0  0  0  0  0  0  0
  -26.5638  -34.9409   18.4771 C   0  0  0  0  0  0  0  0  0  0  0  0
  -23.1265  -31.4415   17.5971 C   0  0  1  0  0  0  0  0  0  0  0  0
  -24.8948  -34.6553   16.6409 C   0  0  2  0  0  0  0  0  0  0  0  0
  -21.9920  -30.8627   16.7052 C   0  0  0  0  0  0  0  0  0  0  0  0
  -28.3231  -15.3272   20.0185 N   0  0  0  0  0  0  0  0  0  0  0  0
  -29.6349  -15.6080   20.0988 N   0  0  0  0  0  0  0  0  0  0  0  0
  -23.6127  -30.6758   19.8995 N   0  0  0  0  0  0  0  0  0  0  0  0
  -29.5372  -19.3817   19.4383 N   0  0  0  0  0  0  0  0  0  0  0  0
  -31.7787  -14.6053   20.1948 N   0  0  0  0  0  0  0  0  0  0  0  0
  -28.9831  -11.0665   19.9544 N   0  0  0  0  0  0  0  0  0  0  0  0
  -28.6559  -26.5217   19.9096 N   0  0  0  0  0  0  0  0  0  1  0  0
  -29.8340  -21.5369   18.4304 N   0  0  0  0  0  0  0  0  0  0  0  0
  -21.4972  -29.0552   22.2719 N   0  0  0  0  0  0  0  0  0  0  0  0
  -23.4904  -32.8187   17.2820 N   0  0  0  0  0  0  0  0  0  0  0  0
  -29.7384  -22.1875   16.1569 N   0  3  0  0  0  0  0  0  0  0  0  0
  -26.2415  -35.1515   17.0423 N   0  3  0  0  0  0  0  0  0  0  0  0
  -31.1833  -11.6941   20.1093 O   0  0  0  0  0  0  0  0  0  0  0  0
  -22.8682  -28.2278   20.5813 O   0  0  0  0  0  0  0  0  0  0  0  0
  -21.7867  -32.0560   19.4556 O   0  0  0  0  0  0  0  0  0  0  0  0
  -25.7246  -32.3940   16.8289 O   0  0  0  0  0  0  0  0  0  0  0  0
  -29.4092  -19.6754   17.1252 O   0  0  0  0  0  0  0  0  0  0  0  0
  -23.4247  -11.2755   19.6451 O   0  0  0  0  0  0  0  0  0  0  0  0
  -28.9854  -27.7146   20.5466 O   0  0  0  0  0  0  0  0  0  1  0  0
  -22.6759   -6.9264   22.9509 F   0  0  0  0  0  0  0  0  0  0  0  0
  -21.3597  -11.2295   21.4825 F   0  0  0  0  0  0  0  0  0  0  0  0
  1  2  1  0  0  0  0
  1  7  2  0  0  0  0
  2  8  2  0  0  0  0
  3  6  1  0  0  0  0
  3 10  2  0  0  0  0
  4 11  2  0  0  0  0
  4 19  1  0  0  0  0
  5 12  1  0  0  0  0
  5 19  2  0  0  0  0
  6 20  2  0  0  0  0
  7 22  1  0  0  0  0
  8 24  1  0  0  0  0
  9 13  2  0  0  0  0
  9 23  1  0  0  0  0
 10 26  1  0  0  0  0
 11 27  1  0  0  0  0
 12 27  2  0  0  0  0
 13 28  1  0  0  0  0
 14 15  2  0  0  0  0
 14 29  1  0  0  0  0
 15 30  1  0  0  0  0
 16 20  1  0  0  0  0
 16 26  2  0  0  0  0
 17 25  1  0  0  0  0
 17 28  2  0  0  0  0
 18 30  2  0  0  0  0
 18 31  1  0  0  0  0
 19 32  1  0  0  0  0
 20 34  1  0  0  0  0
 21 32  1  0  0  0  0
 21 33  2  0  0  0  0
 21 35  1  0  0  0  0
 22 24  2  0  0  0  0
 22 40  1  0  0  0  0
 23 25  2  0  0  0  0
 23 41  1  0  0  0  0
 24 49  1  0  0  0  0
 25 42  1  0  0  0  0
 26 66  1  0  0  0  0
 27 77  1  0  0  0  0
 28 78  1  0  0  0  0
 29 31  2  0  0  0  0
 29 77  1  0  0  0  0
 30 79  1  0  0  0  0
 31 80  1  0  0  0  0
 32 60  2  0  0  0  0
 33 61  1  0  0  0  0
 33 64  1  0  0  0  0
 34 67  1  0  0  0  0
 34 70  2  0  0  0  0
 35 65  1  0  0  0  0
 35 72  2  0  0  0  0
 36 50  1  0  0  0  0
 36 68  1  0  0  0  0
 36 73  2  0  0  0  0
 37 57  1  0  0  0  0
 37 62  1  0  0  0  0
 37 74  2  0  0  0  0
 38 58  1  0  0  0  0
 38 69  1  0  0  0  0
 38 75  2  0  0  0  0
 39 63  1  0  0  0  0
 39 67  1  0  0  0  0
 39 76  2  0  0  0  0
 40 43  1  0  0  0  0
 41 50  1  0  0  0  0
 42 62  1  0  0  0  0
 43 45  1  0  0  0  0
 44 46  1  0  0  0  0
 44 47  1  0  0  0  0
 45 49  1  0  0  0  0
 46 51  1  0  0  0  0
 47 63  1  0  0  0  0
 48 51  1  0  0  0  0
 48 63  1  0  0  0  0
 49 68  1  0  0  0  0
 50 62  1  0  0  0  0
 51 61  1  0  0  0  0
 52 58  1  0  0  0  0
 53 59  1  0  0  0  0
 54 59  1  0  0  0  0
 55 59  1  0  0  0  0
 56 71  1  0  0  0  0
 57 59  1  0  0  0  0
 57 69  1  0  0  0  0
 58 71  1  0  0  0  0
 60 61  1  0  0  0  0
 66 78  1  0  0  0  0
M  CHG  2  70   1  71   1
M  ISO  4  39 100  66 101  67 100  78 101
M  END
> <Batch ID>
0089

> <Smiles>
CNC(C)C(=O)NC(C(=O)N1Cc2cc([101O:1][101NH:1]c3cccc(C(=N)[100NH:0][100C:0](=O)N4CCCC(n5nc(-c6ccc(Oc7ccc(F)cc7F)cc6)c(C(N)=O)c5N)C4)c3)ccc2CC1C(=O)NC1CCCc2ccccc21)C(C)(C)C

> <Shape>
0.315

> <Color>
0.099

> <Negative vol penalty>
0.000

$$$$

  -OEChem-04052300263D

 88 97  0     1  0  0  0  0  0999 V2000
  -28.6227  -31.4741   26.6650 C   0  0  0  0  0  0  0  0  0  0  0  0
  -28.5489  -30.4228   25.7569 C   0  0  0  0  0  0  0  0  0  0  0  0
  -23.9907   -9.4562   20.0541 C   0  0  0  0  0  0  0  0  0  0  0  0
  -22.9858  -10.8328   21.7664 C   0  0  0  0  0  0  0  0  0  0  0  0
  -27.4540  -32.0202   27.1940 C   0  0  0  0  0  0  0  0  0  0  0  0
  -27.3062  -29.9162   25.3781 C   0  0  0  0  0  0  0  0  0  0  0  0
  -26.9568  -29.1615   20.3828 C   0  0  0  0  0  0  0  0  0  0  0  0
  -23.1794   -8.3880   20.4366 C   0  0  0  0  0  0  0  0  0  0  0  0
  -22.1744   -9.7646   22.1490 C   0  0  0  0  0  0  0  0  0  0  0  0
  -27.5709  -28.0212   19.8666 C   0  0  0  0  0  0  0  0  0  0  0  0
  -22.4782   -6.9337   23.9723 C   0  0  0  0  0  0  0  0  0  0  0  0
  -22.3499   -6.6736   25.3366 C   0  0  0  0  0  0  0  0  0  0  0  0
  -25.4342  -26.9028   19.8115 C   0  0  0  0  0  0  0  0  0  0  0  0
  -30.1432  -19.8051   19.2973 C   0  0  0  0  0  0  0  0  0  0  0  0
  -28.1583  -20.7907   20.2593 C   0  0  0  0  0  0  0  0  0  0  0  0
  -19.9657   -7.0318   25.1806 C   0  0  0  0  0  0  0  0  0  0  0  0
  -23.8939  -10.6786   20.7190 C   0  0  0  0  0  0  0  0  0  0  0  0
  -24.4426  -12.7682   19.3624 C   0  0  0  0  0  0  0  0  0  0  0  0
  -26.1961  -31.5265   26.8141 C   0  0  0  0  0  0  0  0  0  0  0  0
  -25.5762  -29.1773   20.6278 C   0  0  0  0  0  0  0  0  0  0  0  0
  -26.1196  -30.4553   25.9035 C   0  0  0  0  0  0  0  0  0  0  0  0
  -24.8046  -28.0454   20.3284 C   0  0  0  0  0  0  0  0  0  0  0  0
  -29.2694  -20.8852   19.4213 C   0  0  0  0  0  0  0  0  0  0  0  0
  -29.9060  -18.6305   20.0112 C   0  0  0  0  0  0  0  0  0  0  0  0
  -27.9211  -19.6161   20.9733 C   0  0  0  0  0  0  0  0  0  0  0  0
  -28.7950  -18.5360   20.8492 C   0  0  0  0  0  0  0  0  0  0  0  0
  -22.2713   -8.5422   21.4841 C   0  0  0  0  0  0  0  0  0  0  0  0
  -26.8101  -26.8906   19.5836 C   0  0  0  0  0  0  0  0  0  0  0  0
  -21.3503   -7.2429   23.2121 C   0  0  0  0  0  0  0  0  0  0  0  0
  -21.0936   -6.7226   25.9408 C   0  0  0  0  0  0  0  0  0  0  0  0
  -20.0941   -7.2919   23.8162 C   0  0  0  0  0  0  0  0  0  0  0  0
  -24.7321  -11.7823   20.3246 C   0  0  0  0  0  0  0  0  0  0  0  0
  -25.5497  -13.5811   19.3598 C   0  0  0  0  0  0  0  0  0  0  0  0
  -29.9291  -24.3920   17.1782 C   0  0  0  0  0  0  0  0  0  0  0  0
  -30.1577  -22.0172   17.4699 C   0  0  0  0  0  0  0  0  0  0  0  0
  -29.3059  -24.5284   18.3564 C   0  0  0  0  0  0  0  0  0  0  0  0
  -30.3764  -23.1059   16.7268 C   0  0  0  0  0  0  0  0  0  0  0  0
  -29.0891  -23.3175   19.2304 C   0  0  0  0  0  0  0  0  0  0  0  0
  -23.2771  -12.9344   18.5441 C   0  0  0  0  0  0  0  0  0  0  0  0
  -23.7606  -29.5361   23.2122 C   0  0  0  0  0  0  0  0  0  0  0  0
  -21.3492  -29.5212   21.0426 C   0  0  0  0  0  0  0  0  0  0  0  0
  -20.2400  -28.5980   17.9500 C   0  0  0  0  0  0  0  0  0  0  0  0
  -29.5024  -16.4363   22.0481 C   0  0  0  0  0  0  0  0  0  0  0  0
  -24.9623  -32.1177   27.4488 C   0  0  0  0  0  0  0  0  0  0  0  0
  -24.9247  -30.4242   21.1598 C   0  0  0  0  0  0  0  0  0  0  0  0
  -23.3158  -28.0181   20.5544 C   0  0  0  0  0  0  0  0  0  0  0  0
  -23.6719  -31.7718   26.7101 C   0  0  0  0  0  0  0  0  0  0  0  0
  -30.0921  -12.9669   21.5071 C   0  0  0  0  0  0  0  0  0  0  0  0
  -23.6309  -30.2841   26.3753 C   0  0  0  0  0  0  0  0  0  0  0  0
  -28.7264  -12.4305   21.0721 C   0  0  0  0  0  0  0  0  0  0  0  0
  -29.9615  -14.0516   22.5749 C   0  0  0  0  0  0  0  0  0  0  0  0
  -27.6963  -14.6229   21.7928 C   0  0  0  0  0  0  0  0  0  0  0  0
  -24.7893  -29.8949   25.4491 C   0  0  1  0  0  0  0  0  0  0  0  0
  -23.5927  -30.1535   21.8526 C   0  0  1  0  0  0  0  0  0  0  0  0
  -27.7735  -13.5738   20.6716 C   0  0  2  0  0  0  0  0  0  0  0  0
  -18.2119  -28.6931   16.4752 C   0  0  0  0  0  0  0  0  0  0  0  0
  -20.0562  -27.2957   22.6814 C   0  0  0  0  0  0  0  0  0  0  0  0
  -18.5921  -26.7927   20.7138 C   0  0  0  0  0  0  0  0  0  0  0  0
  -18.4619  -29.0220   21.8255 C   0  0  0  0  0  0  0  0  0  0  0  0
  -21.6707  -30.1648   15.8867 C   0  0  0  0  0  0  0  0  0  0  0  0
  -28.8168  -25.8346   18.8669 C   0  0  0  0  0  0  0  0  0  1  0  0
  -20.4824  -28.4565   20.4149 C   0  0  1  0  0  0  0  0  0  0  0  0
  -19.5134  -29.3751   16.8671 C   0  0  2  0  0  0  0  0  0  0  0  0
  -19.4265  -27.8913   21.4063 C   0  0  0  0  0  0  0  0  0  0  0  0
  -25.9294  -11.9514   20.8920 N   0  0  0  0  0  0  0  0  0  0  0  0
  -26.4020  -13.0530   20.2844 N   0  0  0  0  0  0  0  0  0  0  0  0
  -29.5083  -22.0679   18.7028 N   0  0  0  0  0  0  0  0  0  0  0  0
  -22.7261  -29.2597   21.0818 N   0  0  0  0  0  0  0  0  0  0  0  0
  -29.0470  -15.1030   22.1242 N   0  0  0  0  0  0  0  0  0  0  0  0
  -30.8050  -17.5493   19.8685 N   0  0  0  0  0  0  0  0  0  0  0  0
  -26.7886  -19.5442   21.8157 N   0  0  0  0  0  0  0  0  0  0  0  0
  -25.8676  -14.6888   18.6568 N   0  0  0  0  0  0  0  0  0  0  0  0
  -22.2323  -12.0092   18.6736 N   0  0  0  0  0  0  0  0  0  0  0  0
  -28.5544  -17.3432   21.5753 N   0  0  0  0  0  0  0  0  0  0  0  0
  -24.5069  -30.3003   24.0888 N   0  0  0  0  0  0  0  0  0  0  0  0
  -19.9131  -29.0513   19.2105 N   0  0  0  0  0  0  0  0  0  0  0  0
  -20.3676  -29.4915   15.6514 N   0  3  0  0  0  0  0  0  0  0  0  0
  -28.5527  -23.4516   20.3317 O   0  0  0  0  0  0  0  0  0  0  0  0
  -23.1723  -13.8660   17.7106 O   0  0  0  0  0  0  0  0  0  0  0  0
  -23.2496  -28.4478   23.4488 O   0  0  0  0  0  0  0  0  0  0  0  0
  -20.8247  -30.5503   21.4756 O   0  0  0  0  0  0  0  0  0  0  0  0
  -21.0169  -27.6783   17.7026 O   0  0  0  0  0  0  0  0  0  0  0  0
  -30.6571  -16.7460   22.3523 O   0  0  0  0  0  0  0  0  0  0  0  0
  -31.0117  -23.0910   15.5091 O   0  0  0  0  0  0  0  0  0  0  0  0
  -21.4793   -7.5002   21.8575 O   0  0  0  0  0  0  0  0  0  0  0  0
  -27.4071  -25.7761   19.0804 O   0  0  0  0  0  0  0  0  0  1  0  0
  -20.9703   -6.4712   27.2507 F   0  0  0  0  0  0  0  0  0  0  0  0
  -19.0067   -7.5873   23.0909 F   0  0  0  0  0  0  0  0  0  0  0  0
  1  2  1  0  0  0  0
  1  5  2  0  0  0  0
  2  6  2  0  0  0  0
  3  8  2  0  0  0  0
  3 17  1  0  0  0  0
  4  9  1  0  0  0  0
  4 17  2  0  0  0  0
  5 19  1  0  0  0  0
  6 21  1  0  0  0  0
  7 10  2  0  0  0  0
  7 20  1  0  0  0  0
  8 27  1  0  0  0  0
  9 27  2  0  0  0  0
 10 28  1  0  0  0  0
 11 12  2  0  0  0  0
 11 29  1  0  0  0  0
 12 30  1  0  0  0  0
 13 22  1  0  0  0  0
 13 28  2  0  0  0  0
 14 23  1  0  0  0  0
 14 24  2  0  0  0  0
 15 23  2  0  0  0  0
 15 25  1  0  0  0  0
 16 30  2  0  0  0  0
 16 31  1  0  0  0  0
 17 32  1  0  0  0  0
 18 32  1  0  0  0  0
 18 33  2  0  0  0  0
 18 39  1  0  0  0  0
 19 21  2  0  0  0  0
 19 44  1  0  0  0  0
 20 22  2  0  0  0  0
 20 45  1  0  0  0  0
 21 53  1  0  0  0  0
 22 46  1  0  0  0  0
 23 67  1  0  0  0  0
 24 26  1  0  0  0  0
 24 70  1  0  0  0  0
 25 26  2  0  0  0  0
 25 71  1  0  0  0  0
 26 74  1  0  0  0  0
 27 85  1  0  0  0  0
 28 86  1  0  0  0  0
 29 31  2  0  0  0  0
 29 85  1  0  0  0  0
 30 87  1  0  0  0  0
 31 88  1  0  0  0  0
 32 65  2  0  0  0  0
 33 66  1  0  0  0  0
 33 72  1  0  0  0  0
 34 36  2  0  0  0  0
 34 37  1  0  0  0  0
 35 37  2  0  0  0  0
 35 67  1  0  0  0  0
 36 38  1  0  0  0  0
 36 61  1  0  0  0  0
 37 84  1  0  0  0  0
 38 67  1  0  0  0  0
 38 78  2  0  0  0  0
 39 73  1  0  0  0  0
 39 79  2  0  0  0  0
 40 54  1  0  0  0  0
 40 75  1  0  0  0  0
 40 80  2  0  0  0  0
 41 62  1  0  0  0  0
 41 68  1  0  0  0  0
 41 81  2  0  0  0  0
 42 63  1  0  0  0  0
 42 76  1  0  0  0  0
 42 82  2  0  0  0  0
 43 69  1  0  0  0  0
 43 74  1  0  0  0  0
 43 83  2  0  0  0  0
 44 47  1  0  0  0  0
 45 54  1  0  0  0  0
 46 68  1  0  0  0  0
 47 49  1  0  0  0  0
 48 50  1  0  0  0  0
 48 51  1  0  0  0  0
 49 53  1  0  0  0  0
 50 55  1  0  0  0  0
 51 69  1  0  0  0  0
 52 55  1  0  0  0  0
 52 69  1  0  0  0  0
 53 75  1  0  0  0  0
 54 68  1  0  0  0  0
 55 66  1  0  0  0  0
 56 63  1  0  0  0  0
 57 64  1  0  0  0  0
 58 64  1  0  0  0  0
 59 64  1  0  0  0  0
 60 77  1  0  0  0  0
 61 86  1  0  0  0  0
 62 64  1  0  0  0  0
 62 76  1  0  0  0  0
 63 77  1  0  0  0  0
 65 66  1  0  0  0  0
M  CHG  1  77   1
M  ISO  4  43 100  61 101  74 100  86 101
M  END
> <Batch ID>
0089

> <Smiles>
CNC(C)C(=O)NC(C(=O)N1Cc2cc([101O:1][101CH2:1]C3=CC(=O)CN(c4cc(N)c([100NH:0][100C:0](=O)N5CCCC(n6nc(-c7ccc(Oc8ccc(F)cc8F)cc7)c(C(N)=O)c6N)C5)c(N)c4)C3=O)ccc2CC1C(=O)NC1CCCc2ccccc21)C(C)(C)C

> <Shape>
0.350

> <Color>
0.107

> <Negative vol penalty>
0.000

$$$$

  -OEChem-04052300263D

 88 97  0     1  0  0  0  0  0999 V2000
  -16.4791  -29.0634   23.1085 C   0  0  0  0  0  0  0  0  0  0  0  0
  -17.1340  -29.4858   21.9561 C   0  0  0  0  0  0  0  0  0  0  0  0
  -22.4440  -13.4588   22.0007 C   0  0  0  0  0  0  0  0  0  0  0  0
  -23.0360  -15.6612   22.7983 C   0  0  0  0  0  0  0  0  0  0  0  0
  -17.0868  -29.2244   24.3530 C   0  0  0  0  0  0  0  0  0  0  0  0
  -18.3966  -30.0705   22.0476 C   0  0  0  0  0  0  0  0  0  0  0  0
  -25.1072  -28.0479   18.5974 C   0  0  0  0  0  0  0  0  0  0  0  0
  -21.6702  -13.2532   23.1428 C   0  0  0  0  0  0  0  0  0  0  0  0
  -22.2621  -15.4556   23.9404 C   0  0  0  0  0  0  0  0  0  0  0  0
  -26.3869  -27.6937   18.1695 C   0  0  0  0  0  0  0  0  0  0  0  0
  -22.1799  -12.4330   26.3819 C   0  0  0  0  0  0  0  0  0  0  0  0
  -22.3021  -11.2062   27.0344 C   0  0  0  0  0  0  0  0  0  0  0  0
  -27.3459  -28.7734   20.1093 C   0  0  0  0  0  0  0  0  0  0  0  0
  -28.5075  -22.6925   19.9376 C   0  0  0  0  0  0  0  0  0  0  0  0
  -30.4914  -20.7627   19.5879 C   0  0  0  0  0  0  0  0  0  0  0  0
  -19.9514  -10.7802   26.6737 C   0  0  0  0  0  0  0  0  0  0  0  0
  -23.1270  -14.6628   21.8285 C   0  0  0  0  0  0  0  0  0  0  0  0
  -23.4893  -14.8626   19.3112 C   0  0  0  0  0  0  0  0  0  0  0  0
  -18.3616  -29.8025   24.4589 C   0  0  0  0  0  0  0  0  0  0  0  0
  -24.9408  -28.7537   19.7922 C   0  0  0  0  0  0  0  0  0  0  0  0
  -19.0214  -30.2406   23.2948 C   0  0  0  0  0  0  0  0  0  0  0  0
  -26.0657  -29.1201   20.5493 C   0  0  0  0  0  0  0  0  0  0  0  0
  -29.8178  -23.0818   19.6598 C   0  0  0  0  0  0  0  0  0  0  0  0
  -29.1811  -20.3734   19.8657 C   0  0  0  0  0  0  0  0  0  0  0  0
  -21.5792  -14.2515   24.1127 C   0  0  0  0  0  0  0  0  0  0  0  0
  -27.5035  -28.0558   18.9235 C   0  0  0  0  0  0  0  0  0  0  0  0
  -20.9434  -12.8334   25.8754 C   0  0  0  0  0  0  0  0  0  0  0  0
  -28.1891  -21.3384   20.0406 C   0  0  0  0  0  0  0  0  0  0  0  0
  -21.1879  -10.3798   27.1803 C   0  0  0  0  0  0  0  0  0  0  0  0
  -30.8098  -22.1168   19.4849 C   0  0  0  0  0  0  0  0  0  0  0  0
  -19.8292  -12.0070   26.0212 C   0  0  0  0  0  0  0  0  0  0  0  0
  -23.9270  -14.8757   20.6492 C   0  0  0  0  0  0  0  0  0  0  0  0
  -24.6222  -15.1153   18.5769 C   0  0  0  0  0  0  0  0  0  0  0  0
  -29.1881  -25.4168   19.1054 C   0  0  0  0  0  0  0  0  0  0  0  0
  -25.3190  -20.4991   22.0436 C   0  0  0  0  0  0  0  0  0  0  0  0
  -26.5373  -20.8437   21.6212 C   0  0  0  0  0  0  0  0  0  0  0  0
  -22.1761  -14.6419   18.7798 C   0  0  0  0  0  0  0  0  0  0  0  0
  -22.5571  -30.3268   22.2252 C   0  0  0  0  0  0  0  0  0  0  0  0
  -24.7336  -28.9378   23.8816 C   0  0  0  0  0  0  0  0  0  0  0  0
  -27.0790  -26.9312   25.3342 C   0  0  0  0  0  0  0  0  0  0  0  0
  -29.7504  -17.9199   19.8181 C   0  0  0  0  0  0  0  0  0  0  0  0
  -18.9580  -29.9988   25.8302 C   0  0  0  0  0  0  0  0  0  0  0  0
  -23.5854  -29.2096   20.2602 C   0  0  0  0  0  0  0  0  0  0  0  0
  -25.8410  -29.9091   21.8102 C   0  0  0  0  0  0  0  0  0  0  0  0
  -20.4571  -30.2860   25.8071 C   0  0  0  0  0  0  0  0  0  0  0  0
  -31.8038  -26.3224   20.0690 C   0  0  0  0  0  0  0  0  0  0  0  0
  -29.3764  -14.5556   18.7143 C   0  0  0  0  0  0  0  0  0  0  0  0
  -20.7821  -31.3419   24.7552 C   0  0  0  0  0  0  0  0  0  0  0  0
  -30.9780  -27.2158   19.1719 C   0  0  0  0  0  0  0  0  0  0  0  0
  -27.8953  -14.2567   18.9578 C   0  0  0  0  0  0  0  0  0  0  0  0
  -31.5627  -24.8652   19.7085 C   0  0  0  0  0  0  0  0  0  0  0  0
  -29.9632  -15.4441   19.8097 C   0  0  0  0  0  0  0  0  0  0  0  0
  -27.7427  -16.3883   20.3068 C   0  0  0  0  0  0  0  0  0  0  0  0
  -20.4024  -30.8568   23.3509 C   0  0  1  0  0  0  0  0  0  0  0  0
  -29.5151  -26.8828   19.3701 C   0  0  1  0  0  0  0  0  0  1  0  0
  -23.4388  -29.1925   21.7923 C   0  0  1  0  0  0  0  0  0  0  0  0
  -27.0910  -15.5499   19.1950 C   0  0  2  0  0  0  0  0  0  0  0  0
  -27.8927  -26.1584   27.5787 C   0  0  0  0  0  0  0  0  0  0  0  0
  -26.0963  -31.6326   24.3113 C   0  0  0  0  0  0  0  0  0  0  0  0
  -27.5998  -30.5264   25.9798 C   0  0  0  0  0  0  0  0  0  0  0  0
  -25.1389  -30.6056   26.3809 C   0  0  0  0  0  0  0  0  0  0  0  0
  -26.4744  -24.1024   24.7087 C   0  0  0  0  0  0  0  0  0  0  0  0
  -26.0550  -29.0669   24.5961 C   0  0  1  0  0  0  0  0  0  0  0  0
  -26.9666  -25.8648   26.4088 C   0  0  2  0  0  0  0  0  0  0  0  0
  -26.2209  -30.4482   25.2903 C   0  0  0  0  0  0  0  0  0  0  0  0
  -25.2359  -15.1174   20.7612 N   0  0  0  0  0  0  0  0  0  0  0  0
  -25.6304  -15.2585   19.4842 N   0  0  0  0  0  0  0  0  0  0  0  0
  -30.1463  -24.4873   19.5542 N   0  0  0  0  0  0  0  0  0  0  0  0
  -24.6918  -29.3611   22.5477 N   0  0  0  0  0  0  0  0  0  0  0  0
  -29.1518  -16.6520   19.9754 N   0  0  0  0  0  0  0  0  0  0  0  0
  -24.8443  -15.2268   17.2500 N   0  0  0  0  0  0  0  0  0  0  0  0
  -21.1257  -14.3965   19.6746 N   0  0  0  0  0  0  0  0  0  0  0  0
  -28.8736  -18.9940   19.9668 N   0  0  0  0  0  0  0  0  0  0  0  0
  -21.3928  -29.9266   22.8526 N   0  0  0  0  0  0  0  0  0  0  0  0
  -26.1413  -27.9279   25.5037 N   0  0  0  0  0  0  0  0  0  0  0  0
  -27.3218  -24.5289   25.8519 N   0  3  0  0  0  0  0  0  0  0  0  0
  -28.1144  -25.1282   18.5705 O   0  0  0  0  0  0  0  0  0  0  0  0
  -21.9442  -14.6454   17.5470 O   0  0  0  0  0  0  0  0  0  0  0  0
  -22.9070  -31.4809   22.0079 O   0  0  0  0  0  0  0  0  0  0  0  0
  -23.7617  -28.4797   24.4890 O   0  0  0  0  0  0  0  0  0  0  0  0
  -27.9173  -26.8865   24.4365 O   0  0  0  0  0  0  0  0  0  0  0  0
  -30.9467  -18.0431   19.5429 O   0  0  0  0  0  0  0  0  0  0  0  0
  -20.8239  -14.0513   25.2271 O   0  0  0  0  0  0  0  0  0  0  0  0
  -26.9026  -20.9792   20.3123 O   0  0  0  0  0  0  0  0  0  0  0  0
  -28.7496  -27.7029   18.5023 O   0  0  0  0  0  0  0  0  0  1  0  0
  -21.3057   -9.2011   27.8055 F   0  0  0  0  0  0  0  0  0  0  0  0
  -32.0729  -22.4795   19.2196 F   0  0  0  0  0  0  0  0  0  0  0  0
  -18.6390  -12.3858   25.5356 F   0  0  0  0  0  0  0  0  0  0  0  0
  1  2  1  0  0  0  0
  1  5  2  0  0  0  0
  2  6  2  0  0  0  0
  3  8  2  0  0  0  0
  3 17  1  0  0  0  0
  4  9  1  0  0  0  0
  4 17  2  0  0  0  0
  5 19  1  0  0  0  0
  6 21  1  0  0  0  0
  7 10  2  0  0  0  0
  7 20  1  0  0  0  0
  8 25  1  0  0  0  0
  9 25  2  0  0  0  0
 10 26  1  0  0  0  0
 11 12  2  0  0  0  0
 11 27  1  0  0  0  0
 12 29  1  0  0  0  0
 13 22  1  0  0  0  0
 13 26  2  0  0  0  0
 14 23  2  0  0  0  0
 14 28  1  0  0  0  0
 15 24  1  0  0  0  0
 15 30  2  0  0  0  0
 16 29  2  0  0  0  0
 16 31  1  0  0  0  0
 17 32  1  0  0  0  0
 18 32  1  0  0  0  0
 18 33  2  0  0  0  0
 18 37  1  0  0  0  0
 19 21  2  0  0  0  0
 19 42  1  0  0  0  0
 20 22  2  0  0  0  0
 20 43  1  0  0  0  0
 21 54  1  0  0  0  0
 22 44  1  0  0  0  0
 23 30  1  0  0  0  0
 23 68  1  0  0  0  0
 24 28  2  0  0  0  0
 24 73  1  0  0  0  0
 25 83  1  0  0  0  0
 26 85  1  0  0  0  0
 27 31  2  0  0  0  0
 27 83  1  0  0  0  0
 28 84  1  0  0  0  0
 29 86  1  0  0  0  0
 30 87  1  0  0  0  0
 31 88  1  0  0  0  0
 32 66  2  0  0  0  0
 33 67  1  0  0  0  0
 33 71  1  0  0  0  0
 34 55  1  0  0  0  0
 34 68  1  0  0  0  0
 34 77  2  0  0  0  0
 35 36  2  0  0  0  0
 36 84  1  0  0  0  0
 37 72  1  0  0  0  0
 37 78  2  0  0  0  0
 38 56  1  0  0  0  0
 38 74  1  0  0  0  0
 38 79  2  0  0  0  0
 39 63  1  0  0  0  0
 39 69  1  0  0  0  0
 39 80  2  0  0  0  0
 40 64  1  0  0  0  0
 40 75  1  0  0  0  0
 40 81  2  0  0  0  0
 41 70  1  0  0  0  0
 41 73  1  0  0  0  0
 41 82  2  0  0  0  0
 42 45  1  0  0  0  0
 43 56  1  0  0  0  0
 44 69  1  0  0  0  0
 45 48  1  0  0  0  0
 46 49  1  0  0  0  0
 46 51  1  0  0  0  0
 47 50  1  0  0  0  0
 47 52  1  0  0  0  0
 48 54  1  0  0  0  0
 49 55  1  0  0  0  0
 50 57  1  0  0  0  0
 51 68  1  0  0  0  0
 52 70  1  0  0  0  0
 53 57  1  0  0  0  0
 53 70  1  0  0  0  0
 54 74  1  0  0  0  0
 55 85  1  0  0  0  0
 56 69  1  0  0  0  0
 57 67  1  0  0  0  0
 58 64  1  0  0  0  0
 59 65  1  0  0  0  0
 60 65  1  0  0  0  0
 61 65  1  0  0  0  0
 62 76  1  0  0  0  0
 63 65  1  0  0  0  0
 63 75  1  0  0  0  0
 64 76  1  0  0  0  0
 66 67  1  0  0  0  0
M  CHG  1  76   1
M  ISO  4  41 100  55 101  73 100  85 101
M  END
> <Batch ID>
0089

> <Smiles>
C=COc1cc(N2CCC[101CH:1]([101O:1]c3ccc4c(c3)CN(C(=O)C(NC(=O)C(C)NC)C(C)(C)C)C(C(=O)NC3CCCc5ccccc53)C4)C2=O)c(F)cc1[100NH:0][100C:0](=O)N1CCCC(n2nc(-c3ccc(Oc4ccc(F)cc4F)cc3)c(C(N)=O)c2N)C1

> <Shape>
0.260

> <Color>
0.089

> <Negative vol penalty>
0.000

$$$$

  -OEChem-04052300263D

 84 92  0     1  0  0  0  0  0999 V2000
  -21.6792  -11.0617   19.9793 C   0  0  0  0  0  0  0  0  0  0  0  0
  -21.4870  -12.2890   20.6056 C   0  0  0  0  0  0  0  0  0  0  0  0
  -18.1427  -27.4870   24.8459 C   0  0  0  0  0  0  0  0  0  0  0  0
  -27.3939  -25.3434   24.3319 C   0  0  0  0  0  0  0  0  0  0  0  0
  -29.3140  -26.4378   23.3560 C   0  0  0  0  0  0  0  0  0  0  0  0
  -18.5255  -28.4681   23.9313 C   0  0  0  0  0  0  0  0  0  0  0  0
  -22.9710  -10.5764   19.7808 C   0  0  0  0  0  0  0  0  0  0  0  0
  -22.5867  -13.0312   21.0348 C   0  0  0  0  0  0  0  0  0  0  0  0
  -23.1171  -19.1322   21.0872 C   0  0  0  0  0  0  0  0  0  0  0  0
  -18.9340  -26.3520   25.0232 C   0  0  0  0  0  0  0  0  0  0  0  0
  -28.0297  -24.1091   24.1987 C   0  0  0  0  0  0  0  0  0  0  0  0
  -29.9498  -25.2035   23.2228 C   0  0  0  0  0  0  0  0  0  0  0  0
  -22.9547  -20.0791   22.0974 C   0  0  0  0  0  0  0  0  0  0  0  0
  -29.2931  -20.7095   24.4472 C   0  0  0  0  0  0  0  0  0  0  0  0
  -29.2433  -19.8339   25.5319 C   0  0  0  0  0  0  0  0  0  0  0  0
  -20.4907  -27.1792   23.3711 C   0  0  0  0  0  0  0  0  0  0  0  0
  -25.3334  -20.0508   22.4979 C   0  0  0  0  0  0  0  0  0  0  0  0
  -30.3682  -21.4722   26.9059 C   0  0  0  0  0  0  0  0  0  0  0  0
  -28.0360  -26.5078   23.9105 C   0  0  0  0  0  0  0  0  0  0  0  0
  -19.6995  -28.3142   23.1939 C   0  0  0  0  0  0  0  0  0  0  0  0
  -27.4415  -28.6572   25.1491 C   0  0  0  0  0  0  0  0  0  0  0  0
  -24.0875  -11.3174   20.1992 C   0  0  0  0  0  0  0  0  0  0  0  0
  -24.3896  -18.6284   20.7816 C   0  0  0  0  0  0  0  0  0  0  0  0
  -23.8947  -12.5546   20.8430 C   0  0  0  0  0  0  0  0  0  0  0  0
  -25.5095  -19.0993   21.4816 C   0  0  0  0  0  0  0  0  0  0  0  0
  -20.1080  -26.1981   24.2858 C   0  0  0  0  0  0  0  0  0  0  0  0
  -29.3076  -24.0391   23.6442 C   0  0  0  0  0  0  0  0  0  0  0  0
  -24.0626  -20.5365   22.8049 C   0  0  0  0  0  0  0  0  0  0  0  0
  -29.8805  -21.9664   24.5918 C   0  0  0  0  0  0  0  0  0  0  0  0
  -29.7808  -20.2153   26.7612 C   0  0  0  0  0  0  0  0  0  0  0  0
  -30.4180  -22.3477   25.8212 C   0  0  0  0  0  0  0  0  0  0  0  0
  -27.3795  -27.7831   24.0474 C   0  0  0  0  0  0  0  0  0  0  0  0
  -26.6522  -29.7216   24.7877 C   0  0  0  0  0  0  0  0  0  0  0  0
  -22.6419  -23.4297   24.2883 C   0  0  0  0  0  0  0  0  0  0  0  0
  -23.3678  -22.6715   23.4603 C   0  0  0  0  0  0  0  0  0  1  0  0
  -20.1059  -29.3599   22.2202 C   0  0  0  0  0  0  0  0  0  0  0  0
  -28.1493  -28.5195   26.3883 C   0  0  0  0  0  0  0  0  0  0  0  0
  -22.1007  -24.7384   23.8186 C   0  0  0  0  0  0  0  0  0  0  0  0
  -25.7435  -15.7538   20.8647 C   0  0  0  0  0  0  0  0  0  0  0  0
  -28.2213  -17.3096   19.4638 C   0  0  0  0  0  0  0  0  0  0  0  0
  -29.8514  -20.2564   18.9113 C   0  0  0  0  0  0  0  0  0  0  0  0
  -22.0615  -30.3397   21.0628 C   0  0  0  0  0  0  0  0  0  0  0  0
  -25.4629  -10.7298   20.0054 C   0  0  0  0  0  0  0  0  0  0  0  0
  -24.5512  -17.6270   19.6709 C   0  0  0  0  0  0  0  0  0  0  0  0
  -26.8996  -18.6053   21.1784 C   0  0  0  0  0  0  0  0  0  0  0  0
  -26.5879  -11.7509   20.1534 C   0  0  0  0  0  0  0  0  0  0  0  0
  -25.1199  -32.1068   20.9224 C   0  0  0  0  0  0  0  0  0  0  0  0
  -26.3718  -12.6068   21.3974 C   0  0  0  0  0  0  0  0  0  0  0  0
  -26.0514  -31.2886   21.8209 C   0  0  0  0  0  0  0  0  0  0  0  0
  -24.1797  -31.2124   20.1156 C   0  0  0  0  0  0  0  0  0  0  0  0
  -24.3458  -29.4246   21.7991 C   0  0  0  0  0  0  0  0  0  0  0  0
  -25.0632  -13.4004   21.3005 C   0  0  1  0  0  0  0  0  0  0  0  0
  -25.8287  -16.8020   19.7915 C   0  0  1  0  0  0  0  0  0  0  0  0
  -25.2643  -30.2824   22.6843 C   0  0  1  0  0  0  0  0  0  0  0  0
  -31.8681  -21.2060   17.7586 C   0  0  0  0  0  0  0  0  0  0  0  0
  -30.0052  -16.2018   21.6775 C   0  0  0  0  0  0  0  0  0  0  0  0
  -31.7296  -17.9026   21.0434 C   0  0  0  0  0  0  0  0  0  0  0  0
  -31.0291  -16.1652   19.3962 C   0  0  0  0  0  0  0  0  0  0  0  0
  -28.1898  -21.9866   17.1779 C   0  0  0  0  0  0  0  0  0  0  0  0
  -29.4397  -18.0478   19.9633 C   0  0  1  0  0  0  0  0  0  0  0  0
  -30.3856  -20.8889   17.6388 C   0  0  2  0  0  0  0  0  0  0  0  0
  -30.5246  -17.0874   20.5274 C   0  0  0  0  0  0  0  0  0  0  0  0
  -26.6114  -28.2515   23.0601 N   0  0  0  0  0  0  0  0  0  0  0  0
  -26.1834  -29.4315   23.5402 N   0  0  0  0  0  0  0  0  0  0  0  0
  -27.0052  -17.6218   20.0879 N   0  0  0  0  0  0  0  0  0  0  0  0
  -23.4655  -30.2963   21.0066 N   0  0  0  0  0  0  0  0  0  0  0  0
  -26.3203  -30.8681   25.4186 N   0  0  0  0  0  0  0  0  0  0  0  0
  -28.9133  -27.3630   26.5964 N   0  0  0  0  0  0  0  0  0  0  0  0
  -20.9115  -25.0455   24.4662 N   0  0  0  0  0  0  0  0  0  0  0  0
  -21.4761  -29.4549   21.9753 N   0  0  0  0  0  0  0  0  0  0  0  0
  -25.2301  -14.5460   20.4320 N   0  0  0  0  0  0  0  0  0  0  0  0
  -29.8959  -18.8795   18.8548 N   0  0  0  0  0  0  0  0  0  0  0  0
  -29.6565  -22.1548   17.3440 N   0  3  0  0  0  0  0  0  0  0  0  0
  -19.2395  -30.0352   21.6714 O   0  0  0  0  0  0  0  0  0  0  0  0
  -28.0924  -29.3884   27.2912 O   0  0  0  0  0  0  0  0  0  0  0  0
  -22.6860  -25.3995   22.9689 O   0  0  0  0  0  0  0  0  0  0  0  0
  -26.1173  -16.0205   22.0008 O   0  0  0  0  0  0  0  0  0  0  0  0
  -28.3428  -16.4914   18.5487 O   0  0  0  0  0  0  0  0  0  0  0  0
  -29.4397  -20.9178   19.8618 O   0  0  0  0  0  0  0  0  0  0  0  0
  -21.3888  -31.1247   20.3872 O   0  0  0  0  0  0  0  0  0  0  0  0
  -29.9285  -22.8348   23.5142 O   0  0  0  0  0  0  0  0  0  0  0  0
  -23.9069  -21.4603   23.7919 O   0  0  0  0  0  0  0  0  0  1  0  0
  -29.7315  -19.3750   27.8032 F   0  0  0  0  0  0  0  0  0  0  0  0
  -30.9825  -23.5544   25.9665 F   0  0  0  0  0  0  0  0  0  0  0  0
  1  2  1  0  0  0  0
  1  7  2  0  0  0  0
  2  8  2  0  0  0  0
  3  6  1  0  0  0  0
  3 10  2  0  0  0  0
  4 11  2  0  0  0  0
  4 19  1  0  0  0  0
  5 12  1  0  0  0  0
  5 19  2  0  0  0  0
  6 20  2  0  0  0  0
  7 22  1  0  0  0  0
  8 24  1  0  0  0  0
  9 13  2  0  0  0  0
  9 23  1  0  0  0  0
 10 26  1  0  0  0  0
 11 27  1  0  0  0  0
 12 27  2  0  0  0  0
 13 28  1  0  0  0  0
 14 15  2  0  0  0  0
 14 29  1  0  0  0  0
 15 30  1  0  0  0  0
 16 20  1  0  0  0  0
 16 26  2  0  0  0  0
 17 25  1  0  0  0  0
 17 28  2  0  0  0  0
 18 30  2  0  0  0  0
 18 31  1  0  0  0  0
 19 32  1  0  0  0  0
 20 36  1  0  0  0  0
 21 32  1  0  0  0  0
 21 33  2  0  0  0  0
 21 37  1  0  0  0  0
 22 24  2  0  0  0  0
 22 43  1  0  0  0  0
 23 25  2  0  0  0  0
 23 44  1  0  0  0  0
 24 52  1  0  0  0  0
 25 45  1  0  0  0  0
 26 69  1  0  0  0  0
 27 81  1  0  0  0  0
 28 82  1  0  0  0  0
 29 31  2  0  0  0  0
 29 81  1  0  0  0  0
 30 83  1  0  0  0  0
 31 84  1  0  0  0  0
 32 63  2  0  0  0  0
 33 64  1  0  0  0  0
 33 67  1  0  0  0  0
 34 35  2  0  0  0  0
 34 38  1  0  0  0  0
 35 82  1  0  0  0  0
 36 70  1  0  0  0  0
 36 74  2  0  0  0  0
 37 68  1  0  0  0  0
 37 75  2  0  0  0  0
 38 69  1  0  0  0  0
 38 76  2  0  0  0  0
 39 53  1  0  0  0  0
 39 71  1  0  0  0  0
 39 77  2  0  0  0  0
 40 60  1  0  0  0  0
 40 65  1  0  0  0  0
 40 78  2  0  0  0  0
 41 61  1  0  0  0  0
 41 72  1  0  0  0  0
 41 79  2  0  0  0  0
 42 66  1  0  0  0  0
 42 70  1  0  0  0  0
 42 80  2  0  0  0  0
 43 46  1  0  0  0  0
 44 53  1  0  0  0  0
 45 65  1  0  0  0  0
 46 48  1  0  0  0  0
 47 49  1  0  0  0  0
 47 50  1  0  0  0  0
 48 52  1  0  0  0  0
 49 54  1  0  0  0  0
 50 66  1  0  0  0  0
 51 54  1  0  0  0  0
 51 66  1  0  0  0  0
 52 71  1  0  0  0  0
 53 65  1  0  0  0  0
 54 64  1  0  0  0  0
 55 61  1  0  0  0  0
 56 62  1  0  0  0  0
 57 62  1  0  0  0  0
 58 62  1  0  0  0  0
 59 73  1  0  0  0  0
 60 62  1  0  0  0  0
 60 72  1  0  0  0  0
 61 73  1  0  0  0  0
 63 64  1  0  0  0  0
M  CHG  1  73   1
M  ISO  4  35 101  42 100  70 100  82 101
M  END
> <Batch ID>
0089

> <Smiles>
CNC(C)C(=O)NC(C(=O)N1Cc2cc([101O:1][101CH:1]=CC(=O)Nc3cccc(C(=O)[100NH:0][100C:0](=O)N4CCCC(n5nc(-c6ccc(Oc7ccc(F)cc7F)cc6)c(C(N)=O)c5N)C4)c3)ccc2CC1C(=O)NC1CCCc2ccccc21)C(C)(C)C

> <Shape>
0.205

> <Color>
0.069

> <Negative vol penalty>
0.000

$$$$

  -OEChem-04052300263D

 86 95  0     1  0  0  0  0  0999 V2000
  -26.7820  -37.4561   24.2185 C   0  0  0  0  0  0  0  0  0  0  0  0
  -27.3866  -36.6702   23.2428 C   0  0  0  0  0  0  0  0  0  0  0  0
  -23.5063   -9.4249   20.3170 C   0  0  0  0  0  0  0  0  0  0  0  0
  -23.1734  -11.1147   22.0114 C   0  0  0  0  0  0  0  0  0  0  0  0
  -26.0858  -36.8530   25.2652 C   0  0  0  0  0  0  0  0  0  0  0  0
  -27.2963  -35.2805   23.3137 C   0  0  0  0  0  0  0  0  0  0  0  0
  -26.9122  -29.4894   19.1146 C   0  0  0  0  0  0  0  0  0  0  0  0
  -30.9539  -19.7472   20.5514 C   0  0  0  0  0  0  0  0  0  0  0  0
  -30.7633  -18.3752   20.3876 C   0  0  0  0  0  0  0  0  0  0  0  0
  -22.6689   -8.5571   21.0179 C   0  0  0  0  0  0  0  0  0  0  0  0
  -22.3360  -10.2469   22.7123 C   0  0  0  0  0  0  0  0  0  0  0  0
  -27.5330  -28.2562   18.9212 C   0  0  0  0  0  0  0  0  0  0  0  0
  -19.3454   -8.1095   21.4501 C   0  0  0  0  0  0  0  0  0  0  0  0
  -18.3872   -7.4043   20.7220 C   0  0  0  0  0  0  0  0  0  0  0  0
  -26.2373  -27.3268   20.7313 C   0  0  0  0  0  0  0  0  0  0  0  0
  -28.7864  -20.1656   19.5695 C   0  0  0  0  0  0  0  0  0  0  0  0
  -19.3704   -5.3199   21.4472 C   0  0  0  0  0  0  0  0  0  0  0  0
  -23.7586  -10.7037   20.8138 C   0  0  0  0  0  0  0  0  0  0  0  0
  -24.2510  -12.5243   19.0961 C   0  0  0  0  0  0  0  0  0  0  0  0
  -25.9787  -35.4555   25.3436 C   0  0  0  0  0  0  0  0  0  0  0  0
  -25.9555  -29.6538   20.1266 C   0  0  0  0  0  0  0  0  0  0  0  0
  -26.5991  -34.6581   24.3631 C   0  0  0  0  0  0  0  0  0  0  0  0
  -25.6039  -28.5625   20.9338 C   0  0  0  0  0  0  0  0  0  0  0  0
  -28.5959  -18.7935   19.4056 C   0  0  0  0  0  0  0  0  0  0  0  0
  -29.9654  -20.6424   20.1424 C   0  0  0  0  0  0  0  0  0  0  0  0
  -29.5843  -17.8984   19.8147 C   0  0  0  0  0  0  0  0  0  0  0  0
  -22.0837   -8.9681   22.2155 C   0  0  0  0  0  0  0  0  0  0  0  0
  -27.1977  -27.1754   19.7315 C   0  0  0  0  0  0  0  0  0  0  0  0
  -20.3162   -7.4200   22.1766 C   0  0  0  0  0  0  0  0  0  0  0  0
  -18.3997   -6.0095   20.7206 C   0  0  0  0  0  0  0  0  0  0  0  0
  -20.3286   -6.0252   22.1752 C   0  0  0  0  0  0  0  0  0  0  0  0
  -24.6240  -11.6004   20.0905 C   0  0  0  0  0  0  0  0  0  0  0  0
  -25.4290  -13.1269   18.7279 C   0  0  0  0  0  0  0  0  0  0  0  0
  -29.0749  -22.9171   20.5201 C   0  0  0  0  0  0  0  0  0  0  0  0
  -29.1585  -24.2564   20.5257 C   0  0  0  0  0  0  0  0  0  0  0  0
  -31.4680  -22.6088   20.2309 C   0  0  0  0  0  0  0  0  0  0  0  0
  -22.9553  -12.8123   18.5537 C   0  0  0  0  0  0  0  0  0  0  0  0
  -25.7393  -31.4528   22.7382 C   0  0  0  0  0  0  0  0  0  0  0  0
  -22.7486  -30.2044   22.8781 C   0  0  0  0  0  0  0  0  0  0  0  0
  -20.6237  -27.6720   22.0305 C   0  0  0  0  0  0  0  0  0  0  0  0
  -30.3017  -15.4921   20.0187 C   0  0  0  0  0  0  0  0  0  0  0  0
  -25.2559  -34.8477   26.5196 C   0  0  0  0  0  0  0  0  0  0  0  0
  -25.2756  -30.9835   20.3050 C   0  0  0  0  0  0  0  0  0  0  0  0
  -24.5683  -28.6814   22.0210 C   0  0  0  0  0  0  0  0  0  0  0  0
  -30.4788  -24.9347   20.3392 C   0  0  0  0  0  0  0  0  0  0  0  0
  -31.6104  -24.0209   20.7702 C   0  0  0  0  0  0  0  0  0  0  0  0
  -24.8891  -33.3799   26.3167 C   0  0  0  0  0  0  0  0  0  0  0  0
  -30.2233  -11.9373   19.8332 C   0  0  0  0  0  0  0  0  0  0  0  0
  -26.0793  -32.6040   25.7617 C   0  0  0  0  0  0  0  0  0  0  0  0
  -28.7289  -11.6088   19.8018 C   0  0  0  0  0  0  0  0  0  0  0  0
  -30.5236  -13.1259   20.7446 C   0  0  0  0  0  0  0  0  0  0  0  0
  -28.2437  -14.0066   20.4356 C   0  0  0  0  0  0  0  0  0  0  0  0
  -26.5024  -33.1481   24.3919 C   0  0  1  0  0  0  0  0  0  0  0  0
  -24.6893  -31.1724   21.7007 C   0  0  1  0  0  0  0  0  0  0  0  0
  -27.8841  -12.8571   19.4802 C   0  0  2  0  0  0  0  0  0  0  0  0
  -27.3225  -18.3105   18.7909 C   0  0  0  0  0  0  0  0  0  0  0  0
  -18.2499  -26.9119   22.3211 C   0  0  0  0  0  0  0  0  0  0  0  0
  -23.3766  -29.3441   25.7373 C   0  0  0  0  0  0  0  0  0  0  0  0
  -21.4030  -27.8072   25.6344 C   0  0  0  0  0  0  0  0  0  0  0  0
  -21.0769  -30.2699   25.4078 C   0  0  0  0  0  0  0  0  0  0  0  0
  -20.1201  -27.7483   19.1151 C   0  0  0  0  0  0  0  0  0  0  0  0
  -27.9584  -25.1378   20.6935 C   0  0  0  0  0  0  0  0  0  1  0  0
  -22.1300  -28.9789   23.5061 C   0  0  1  0  0  0  0  0  0  0  0  0
  -19.2230  -27.6856   21.4453 C   0  0  2  0  0  0  0  0  0  0  0  0
  -22.0176  -29.0980   25.0523 C   0  0  0  0  0  0  0  0  0  0  0  0
  -25.9365  -11.6113   20.3382 N   0  0  0  0  0  0  0  0  0  0  0  0
  -26.3984  -12.5494   19.4940 N   0  0  0  0  0  0  0  0  0  0  0  0
  -30.1626  -22.0683   20.3154 N   0  0  0  0  0  0  0  0  0  0  0  0
  -23.9362  -30.0037   22.1603 N   0  0  0  0  0  0  0  0  0  0  0  0
  -29.6896  -14.2727   20.3782 N   0  0  0  0  0  0  0  0  0  0  0  0
  -25.7199  -14.0889   17.8266 N   0  0  0  0  0  0  0  0  0  0  0  0
  -21.8522  -12.1011   19.0452 N   0  0  0  0  0  0  0  0  0  0  0  0
  -29.4090  -16.5010   19.6584 N   0  0  0  0  0  0  0  0  0  0  0  0
  -25.6014  -32.6785   23.3613 N   0  0  0  0  0  0  0  0  0  0  0  0
  -20.8546  -28.7725   22.8284 N   0  0  0  0  0  0  0  0  0  0  0  0
  -19.2231  -27.0721   20.0872 N   0  3  0  0  0  0  0  0  0  0  0  0
  -32.4698  -22.0271   19.8104 O   0  0  0  0  0  0  0  0  0  0  0  0
  -22.7833  -13.6631   17.6482 O   0  0  0  0  0  0  0  0  0  0  0  0
  -26.6093  -30.6183   22.9583 O   0  0  0  0  0  0  0  0  0  0  0  0
  -22.1946  -31.2982   23.0131 O   0  0  0  0  0  0  0  0  0  0  0  0
  -21.4309  -26.7729   21.8054 O   0  0  0  0  0  0  0  0  0  0  0  0
  -31.5283  -15.6228   20.0035 O   0  0  0  0  0  0  0  0  0  0  0  0
  -21.2663   -8.1216   22.8996 O   0  0  0  0  0  0  0  0  0  0  0  0
  -27.8027  -25.9707   19.5453 O   0  0  0  0  0  0  0  0  0  1  0  0
  -17.4785   -5.3323   20.0227 F   0  0  0  0  0  0  0  0  0  0  0  0
  -21.2580   -5.3572   22.8723 F   0  0  0  0  0  0  0  0  0  0  0  0
  1  2  1  0  0  0  0
  1  5  2  0  0  0  0
  2  6  2  0  0  0  0
  3 10  2  0  0  0  0
  3 18  1  0  0  0  0
  4 11  1  0  0  0  0
  4 18  2  0  0  0  0
  5 20  1  0  0  0  0
  6 22  1  0  0  0  0
  7 12  2  0  0  0  0
  7 21  1  0  0  0  0
  8  9  2  0  0  0  0
  8 25  1  0  0  0  0
  9 26  1  0  0  0  0
 10 27  1  0  0  0  0
 11 27  2  0  0  0  0
 12 28  1  0  0  0  0
 13 14  2  0  0  0  0
 13 29  1  0  0  0  0
 14 30  1  0  0  0  0
 15 23  1  0  0  0  0
 15 28  2  0  0  0  0
 16 24  1  0  0  0  0
 16 25  2  0  0  0  0
 17 30  2  0  0  0  0
 17 31  1  0  0  0  0
 18 32  1  0  0  0  0
 19 32  1  0  0  0  0
 19 33  2  0  0  0  0
 19 37  1  0  0  0  0
 20 22  2  0  0  0  0
 20 42  1  0  0  0  0
 21 23  2  0  0  0  0
 21 43  1  0  0  0  0
 22 53  1  0  0  0  0
 23 44  1  0  0  0  0
 24 26  2  0  0  0  0
 24 56  1  0  0  0  0
 25 68  1  0  0  0  0
 26 73  1  0  0  0  0
 27 83  1  0  0  0  0
 28 84  1  0  0  0  0
 29 31  2  0  0  0  0
 29 83  1  0  0  0  0
 30 85  1  0  0  0  0
 31 86  1  0  0  0  0
 32 66  2  0  0  0  0
 33 67  1  0  0  0  0
 33 71  1  0  0  0  0
 34 35  2  0  0  0  0
 34 68  1  0  0  0  0
 35 45  1  0  0  0  0
 35 62  1  0  0  0  0
 36 46  1  0  0  0  0
 36 68  1  0  0  0  0
 36 77  2  0  0  0  0
 37 72  1  0  0  0  0
 37 78  2  0  0  0  0
 38 54  1  0  0  0  0
 38 74  1  0  0  0  0
 38 79  2  0  0  0  0
 39 63  1  0  0  0  0
 39 69  1  0  0  0  0
 39 80  2  0  0  0  0
 40 64  1  0  0  0  0
 40 75  1  0  0  0  0
 40 81  2  0  0  0  0
 41 70  1  0  0  0  0
 41 73  1  0  0  0  0
 41 82  2  0  0  0  0
 42 47  1  0  0  0  0
 43 54  1  0  0  0  0
 44 69  1  0  0  0  0
 45 46  1  0  0  0  0
 47 49  1  0  0  0  0
 48 50  1  0  0  0  0
 48 51  1  0  0  0  0
 49 53  1  0  0  0  0
 50 55  1  0  0  0  0
 51 70  1  0  0  0  0
 52 55  1  0  0  0  0
 52 70  1  0  0  0  0
 53 74  1  0  0  0  0
 54 69  1  0  0  0  0
 55 67  1  0  0  0  0
 57 64  1  0  0  0  0
 58 65  1  0  0  0  0
 59 65  1  0  0  0  0
 60 65  1  0  0  0  0
 61 76  1  0  0  0  0
 62 84  1  0  0  0  0
 63 65  1  0  0  0  0
 63 75  1  0  0  0  0
 64 76  1  0  0  0  0
 66 67  1  0  0  0  0
M  CHG  1  76   1
M  ISO  4  41 100  62 101  73 100  84 101
M  END
> <Batch ID>
0089

> <Smiles>
CNC(C)C(=O)NC(C(=O)N1Cc2cc([101O:1][101CH2:1]C3=CN(c4ccc([100NH:0][100C:0](=O)N5CCCC(n6nc(-c7ccc(Oc8ccc(F)cc8F)cc7)c(C(N)=O)c6N)C5)c(C)c4)C(=O)CC3)ccc2CC1C(=O)NC1CCCc2ccccc21)C(C)(C)C

> <Shape>
0.356

> <Color>
0.105

> <Negative vol penalty>
0.000

$$$$

  -OEChem-04052300263D

 82 90  0     1  0  0  0  0  0999 V2000
  -14.3740  -31.8358   14.1170 C   0  0  0  0  0  0  0  0  0  0  0  0
  -15.4405  -31.0750   13.6487 C   0  0  0  0  0  0  0  0  0  0  0  0
  -23.1743   -9.9627   19.8720 C   0  0  0  0  0  0  0  0  0  0  0  0
  -23.9293   -9.7638   22.1584 C   0  0  0  0  0  0  0  0  0  0  0  0
  -27.4332  -19.7818   16.9188 C   0  0  0  0  0  0  0  0  0  0  0  0
  -26.1732  -17.7525   16.5563 C   0  0  0  0  0  0  0  0  0  0  0  0
  -14.5217  -32.6055   15.2702 C   0  0  0  0  0  0  0  0  0  0  0  0
  -16.6556  -31.0843   14.3327 C   0  0  0  0  0  0  0  0  0  0  0  0
  -19.4985  -24.9943   16.9251 C   0  0  0  0  0  0  0  0  0  0  0  0
  -26.2673  -20.5326   16.7682 C   0  0  0  0  0  0  0  0  0  0  0  0
  -25.0073  -18.5033   16.4058 C   0  0  0  0  0  0  0  0  0  0  0  0
  -22.4694   -8.7660   20.0007 C   0  0  0  0  0  0  0  0  0  0  0  0
  -23.2242   -8.5672   22.2871 C   0  0  0  0  0  0  0  0  0  0  0  0
  -20.2103  -23.8442   17.2667 C   0  0  0  0  0  0  0  0  0  0  0  0
  -20.0237   -7.6053   22.7892 C   0  0  0  0  0  0  0  0  0  0  0  0
  -19.2663   -7.4223   23.9461 C   0  0  0  0  0  0  0  0  0  0  0  0
  -21.9819  -25.2035   18.1951 C   0  0  0  0  0  0  0  0  0  0  0  0
  -20.5711   -5.4630   24.4903 C   0  0  0  0  0  0  0  0  0  0  0  0
  -23.9044  -10.4616   20.9509 C   0  0  0  0  0  0  0  0  0  0  0  0
  -27.3861  -18.3917   16.8127 C   0  0  0  0  0  0  0  0  0  0  0  0
  -24.1610  -12.9960   21.0875 C   0  0  0  0  0  0  0  0  0  0  0  0
  -15.7362  -32.6167   15.9741 C   0  0  0  0  0  0  0  0  0  0  0  0
  -20.0192  -26.2546   17.2315 C   0  0  0  0  0  0  0  0  0  0  0  0
  -16.8200  -31.8559   15.4956 C   0  0  0  0  0  0  0  0  0  0  0  0
  -21.2676  -26.3588   17.8666 C   0  0  0  0  0  0  0  0  0  0  0  0
  -25.0544  -19.8934   16.5118 C   0  0  0  0  0  0  0  0  0  0  0  0
  -22.4943   -8.0683   21.2082 C   0  0  0  0  0  0  0  0  0  0  0  0
  -21.4490  -23.9486   17.8999 C   0  0  0  0  0  0  0  0  0  0  0  0
  -21.0547   -6.7171   22.4827 C   0  0  0  0  0  0  0  0  0  0  0  0
  -19.5400   -6.3512   24.7967 C   0  0  0  0  0  0  0  0  0  0  0  0
  -21.3284   -5.6460   23.3333 C   0  0  0  0  0  0  0  0  0  0  0  0
  -24.6333  -11.6974   20.8184 C   0  0  0  0  0  0  0  0  0  0  0  0
  -25.2279  -13.8143   20.8073 C   0  0  0  0  0  0  0  0  0  0  0  0
  -23.2105  -20.8721   17.4434 C   0  0  0  0  0  0  0  0  0  0  0  0
  -28.6278  -17.5922   16.9730 C   0  0  0  0  0  0  0  0  0  0  0  0
  -22.8730  -13.4242   21.5495 C   0  0  0  0  0  0  0  0  0  0  0  0
  -19.5541  -29.9758   17.1213 C   0  0  0  0  0  0  0  0  0  0  0  0
  -20.7767  -29.3113   19.8551 C   0  0  0  0  0  0  0  0  0  0  0  0
  -21.7291  -28.1197   22.9064 C   0  0  0  0  0  0  0  0  0  0  0  0
  -29.4793  -15.3568   17.6067 C   0  0  0  0  0  0  0  0  0  0  0  0
  -15.8629  -33.5012   17.1891 C   0  0  0  0  0  0  0  0  0  0  0  0
  -19.3157  -27.5216   16.8270 C   0  0  0  0  0  0  0  0  0  0  0  0
  -21.8046  -27.7360   18.1456 C   0  0  0  0  0  0  0  0  0  0  0  0
  -17.0663  -33.1635   18.0655 C   0  0  0  0  0  0  0  0  0  0  0  0
  -30.0779  -12.7014   19.8623 C   0  0  0  0  0  0  0  0  0  0  0  0
  -18.3160  -32.9827   17.2097 C   0  0  0  0  0  0  0  0  0  0  0  0
  -28.6769  -12.3129   20.3426 C   0  0  0  0  0  0  0  0  0  0  0  0
  -30.0852  -13.0814   18.3823 C   0  0  0  0  0  0  0  0  0  0  0  0
  -27.7079  -13.7120   18.4752 C   0  0  0  0  0  0  0  0  0  0  0  0
  -18.1461  -31.8205   16.2238 C   0  0  1  0  0  0  0  0  0  0  0  0
  -19.4948  -28.6626   17.8446 C   0  0  1  0  0  0  0  0  0  0  0  0
  -27.6348  -13.3886   19.9763 C   0  0  1  0  0  0  0  0  0  0  0  0
  -22.3602  -28.8864   25.2110 C   0  0  0  0  0  0  0  0  0  0  0  0
  -23.5130  -30.1697   18.8161 C   0  0  0  0  0  0  0  0  0  0  0  0
  -24.3756  -30.0071   21.1609 C   0  0  0  0  0  0  0  0  0  0  0  0
  -22.5699  -31.6371   20.6082 C   0  0  0  0  0  0  0  0  0  0  0  0
  -19.4704  -26.6564   24.1377 C   0  0  0  0  0  0  0  0  0  0  0  0
  -21.9447  -21.6750   17.4071 C   0  0  0  0  0  0  0  0  0  1  0  0
  -22.0317  -29.1678   20.6783 C   0  0  1  0  0  0  0  0  0  0  0  0
  -21.2286  -28.4224   24.3073 C   0  0  2  0  0  0  0  0  0  0  0  0
  -23.1103  -30.2230   20.3034 C   0  0  0  0  0  0  0  0  0  0  0  0
  -25.9014  -11.6865   20.3993 N   0  0  0  0  0  0  0  0  0  0  0  0
  -23.8799  -20.6497   16.3599 N   0  0  0  0  0  0  0  0  0  0  0  0
  -26.2350  -12.9883   20.4028 N   0  0  0  0  0  0  0  0  0  0  0  0
  -20.7274  -28.6029   18.6484 N   0  0  0  0  0  0  0  0  0  0  0  0
  -29.0781  -14.1111   18.1200 N   0  0  0  0  0  0  0  0  0  0  0  0
  -25.3933  -15.1526   20.8698 N   0  0  0  0  0  0  0  0  0  0  0  0
  -21.8917  -12.4524   21.7882 N   0  0  0  0  0  0  0  0  0  0  0  0
  -28.4485  -16.2867   17.4312 N   0  0  0  0  0  0  0  0  0  0  0  0
  -18.3182  -30.5535   16.9016 N   0  0  0  0  0  0  0  0  0  0  0  0
  -21.6114  -29.2131   22.0747 N   0  0  0  0  0  0  0  0  0  0  0  0
  -20.6129  -27.2070   24.9113 N   0  3  0  0  0  0  0  0  0  0  0  0
  -29.7058  -18.0935   16.6655 O   0  0  0  0  0  0  0  0  0  0  0  0
  -22.5952  -14.6342   21.7292 O   0  0  0  0  0  0  0  0  0  0  0  0
  -20.6409  -30.4334   16.7878 O   0  0  0  0  0  0  0  0  0  0  0  0
  -19.8656  -30.0355   20.2657 O   0  0  0  0  0  0  0  0  0  0  0  0
  -22.1827  -27.0241   22.5834 O   0  0  0  0  0  0  0  0  0  0  0  0
  -30.6584  -15.6310   17.3618 O   0  0  0  0  0  0  0  0  0  0  0  0
  -21.8062   -6.9007   21.3342 O   0  0  0  0  0  0  0  0  0  0  0  0
  -22.1366  -22.8216   18.2347 O   0  0  0  0  0  0  0  0  0  1  0  0
  -18.8136   -6.1764   25.9084 F   0  0  0  0  0  0  0  0  0  0  0  0
  -22.3184   -4.7902   23.0448 F   0  0  0  0  0  0  0  0  0  0  0  0
  1  2  1  0  0  0  0
  1  7  2  0  0  0  0
  2  8  2  0  0  0  0
  3 12  2  0  0  0  0
  3 19  1  0  0  0  0
  4 13  1  0  0  0  0
  4 19  2  0  0  0  0
  5 10  2  0  0  0  0
  5 20  1  0  0  0  0
  6 11  1  0  0  0  0
  6 20  2  0  0  0  0
  7 22  1  0  0  0  0
  8 24  1  0  0  0  0
  9 14  2  0  0  0  0
  9 23  1  0  0  0  0
 10 26  1  0  0  0  0
 11 26  2  0  0  0  0
 12 27  1  0  0  0  0
 13 27  2  0  0  0  0
 14 28  1  0  0  0  0
 15 16  2  0  0  0  0
 15 29  1  0  0  0  0
 16 30  1  0  0  0  0
 17 25  1  0  0  0  0
 17 28  2  0  0  0  0
 18 30  2  0  0  0  0
 18 31  1  0  0  0  0
 19 32  1  0  0  0  0
 20 35  1  0  0  0  0
 21 32  1  0  0  0  0
 21 33  2  0  0  0  0
 21 36  1  0  0  0  0
 22 24  2  0  0  0  0
 22 41  1  0  0  0  0
 23 25  2  0  0  0  0
 23 42  1  0  0  0  0
 24 50  1  0  0  0  0
 25 43  1  0  0  0  0
 26 63  1  0  0  0  0
 27 79  1  0  0  0  0
 28 80  1  0  0  0  0
 29 31  2  0  0  0  0
 29 79  1  0  0  0  0
 30 81  1  0  0  0  0
 31 82  1  0  0  0  0
 32 62  2  0  0  0  0
 33 64  1  0  0  0  0
 33 67  1  0  0  0  0
 34 58  1  0  0  0  0
 34 63  2  0  0  0  0
 35 69  1  0  0  0  0
 35 73  2  0  0  0  0
 36 68  1  0  0  0  0
 36 74  2  0  0  0  0
 37 51  1  0  0  0  0
 37 70  1  0  0  0  0
 37 75  2  0  0  0  0
 38 59  1  0  0  0  0
 38 65  1  0  0  0  0
 38 76  2  0  0  0  0
 39 60  1  0  0  0  0
 39 71  1  0  0  0  0
 39 77  2  0  0  0  0
 40 66  1  0  0  0  0
 40 69  1  0  0  0  0
 40 78  2  0  0  0  0
 41 44  1  0  0  0  0
 42 51  1  0  0  0  0
 43 65  1  0  0  0  0
 44 46  1  0  0  0  0
 45 47  1  0  0  0  0
 45 48  1  0  0  0  0
 46 50  1  0  0  0  0
 47 52  1  0  0  0  0
 48 66  1  0  0  0  0
 49 52  1  0  0  0  0
 49 66  1  0  0  0  0
 50 70  1  0  0  0  0
 51 65  1  0  0  0  0
 52 64  1  0  0  0  0
 53 60  1  0  0  0  0
 54 61  1  0  0  0  0
 55 61  1  0  0  0  0
 56 61  1  0  0  0  0
 57 72  1  0  0  0  0
 58 80  1  0  0  0  0
 59 61  1  0  0  0  0
 59 71  1  0  0  0  0
 60 72  1  0  0  0  0
 62 64  1  0  0  0  0
M  CHG  1  72   1
M  ISO  4  40 100  58 101  69 100  80 101
M  END
> <Batch ID>
0089

> <Smiles>
CNC(C)C(=O)NC(C(=O)N1Cc2cc([101O:1][101CH:1]=CNc3ccc(C(=O)[100NH:0][100C:0](=O)N4CCCC(n5nc(-c6ccc(Oc7ccc(F)cc7F)cc6)c(C(N)=O)c5N)C4)cc3)ccc2CC1C(=O)NC1CCCc2ccccc21)C(C)(C)C

> <Shape>
0.195

> <Color>
0.172

> <Negative vol penalty>
0.000

$$$$

  -OEChem-04052300263D

 90 99  0     1  0  0  0  0  0999 V2000
  -23.9825  -32.9253   24.5384 C   0  0  0  0  0  0  0  0  0  0  0  0
  -23.6998  -31.6319   24.9656 C   0  0  0  0  0  0  0  0  0  0  0  0
  -23.0099   -9.9949   20.6330 C   0  0  0  0  0  0  0  0  0  0  0  0
  -24.4549   -8.8376   22.1854 C   0  0  0  0  0  0  0  0  0  0  0  0
  -24.2491  -33.1709   23.1921 C   0  0  0  0  0  0  0  0  0  0  0  0
  -23.6824  -30.5834   24.0464 C   0  0  0  0  0  0  0  0  0  0  0  0
  -25.1356  -23.5879   23.5293 C   0  0  0  0  0  0  0  0  0  0  0  0
  -22.1643   -8.8863   20.5937 C   0  0  0  0  0  0  0  0  0  0  0  0
  -23.6093   -7.7290   22.1461 C   0  0  0  0  0  0  0  0  0  0  0  0
  -24.5482  -22.3936   23.1140 C   0  0  0  0  0  0  0  0  0  0  0  0
  -21.6403   -4.7296   22.7336 C   0  0  0  0  0  0  0  0  0  0  0  0
  -21.3122   -4.1200   23.9445 C   0  0  0  0  0  0  0  0  0  0  0  0
  -26.9113  -16.4540   19.0637 C   0  0  0  0  0  0  0  0  0  0  0  0
  -25.1019  -22.9237   20.8267 C   0  0  0  0  0  0  0  0  0  0  0  0
  -24.9218  -15.3820   18.2095 C   0  0  0  0  0  0  0  0  0  0  0  0
  -20.3295   -6.1870   24.7187 C   0  0  0  0  0  0  0  0  0  0  0  0
  -24.1552   -9.9705   21.4289 C   0  0  0  0  0  0  0  0  0  0  0  0
  -27.6830  -15.7710   18.1236 C   0  0  0  0  0  0  0  0  0  0  0  0
  -24.9571  -12.2091   22.3526 C   0  0  0  0  0  0  0  0  0  0  0  0
  -24.2446  -32.1234   22.2576 C   0  0  0  0  0  0  0  0  0  0  0  0
  -25.7019  -24.4657   22.5937 C   0  0  0  0  0  0  0  0  0  0  0  0
  -23.9479  -30.8154   22.6861 C   0  0  0  0  0  0  0  0  0  0  0  0
  -25.6982  -24.1273   21.2330 C   0  0  0  0  0  0  0  0  0  0  0  0
  -25.5307  -16.2594   19.1066 C   0  0  0  0  0  0  0  0  0  0  0  0
  -25.6934  -14.6990   17.2693 C   0  0  0  0  0  0  0  0  0  0  0  0
  -27.0740  -14.8936   17.2264 C   0  0  0  0  0  0  0  0  0  0  0  0
  -22.4640   -7.7533   21.3502 C   0  0  0  0  0  0  0  0  0  0  0  0
  -24.5287  -22.0628   21.7623 C   0  0  0  0  0  0  0  0  0  0  0  0
  -21.3132   -6.0679   22.5152 C   0  0  0  0  0  0  0  0  0  0  0  0
  -20.6568   -4.8487   24.9370 C   0  0  0  0  0  0  0  0  0  0  0  0
  -20.6578   -6.7966   23.5078 C   0  0  0  0  0  0  0  0  0  0  0  0
  -25.0294  -11.1152   21.4695 C   0  0  0  0  0  0  0  0  0  0  0  0
  -26.0035  -13.0184   21.9832 C   0  0  0  0  0  0  0  0  0  0  0  0
  -23.1096  -17.5100   21.5351 C   0  0  0  0  0  0  0  0  0  0  0  0
  -23.9836  -18.5193   21.5197 C   0  0  0  0  0  0  0  0  0  0  0  0
  -23.5890  -16.4706   20.5990 C   0  0  0  0  0  0  0  0  0  0  0  0
  -25.0566  -18.1852   20.5588 C   0  0  0  0  0  0  0  0  0  0  0  0
  -29.7042  -16.9669   17.4167 C   0  0  0  0  0  0  0  0  0  0  0  0
  -29.1230  -16.0020   18.1121 C   0  0  0  0  0  0  0  0  0  0  0  0
  -24.0272  -12.4703   23.4123 C   0  0  0  0  0  0  0  0  0  0  0  0
  -25.1242  -27.4576   21.6891 C   0  0  0  0  0  0  0  0  0  0  0  0
  -27.8165  -27.0331   19.9302 C   0  0  0  0  0  0  0  0  0  0  0  0
  -29.9567  -24.8701   18.3850 C   0  0  0  0  0  0  0  0  0  0  0  0
  -28.9040  -13.2969   16.5995 C   0  0  0  0  0  0  0  0  0  0  0  0
  -24.4922  -32.4452   20.8051 C   0  0  0  0  0  0  0  0  0  0  0  0
  -26.3554  -25.7374   23.0607 C   0  0  0  0  0  0  0  0  0  0  0  0
  -26.3106  -25.0257   20.1908 C   0  0  0  0  0  0  0  0  0  0  0  0
  -24.8228  -31.2195   19.9574 C   0  0  0  0  0  0  0  0  0  0  0  0
  -30.3434  -12.8893   19.9840 C   0  0  0  0  0  0  0  0  0  0  0  0
  -23.8483  -30.0848   20.2567 C   0  0  0  0  0  0  0  0  0  0  0  0
  -29.1509  -12.3992   20.8032 C   0  0  0  0  0  0  0  0  0  0  0  0
  -30.2320  -12.4775   18.5192 C   0  0  0  0  0  0  0  0  0  0  0  0
  -27.7607  -12.4211   18.6940 C   0  0  0  0  0  0  0  0  0  0  0  0
  -23.9441  -29.6478   21.7235 C   0  0  1  0  0  0  0  0  0  0  0  0
  -26.4454  -26.7988   21.9685 C   0  0  1  0  0  0  0  0  0  0  0  0
  -27.8293  -12.8579   20.1651 C   0  0  1  0  0  0  0  0  0  0  0  0
  -21.8551  -17.3325   22.3070 C   0  0  0  0  0  0  0  0  0  0  0  0
  -32.0461  -24.8217   16.9960 C   0  0  0  0  0  0  0  0  0  0  0  0
  -26.2123  -27.9188   17.4906 C   0  0  0  0  0  0  0  0  0  0  0  0
  -28.0148  -26.9578   16.0431 C   0  0  0  0  0  0  0  0  0  0  0  0
  -28.5364  -28.8358   17.5999 C   0  0  0  0  0  0  0  0  0  0  0  0
  -27.7618  -14.5934   14.8542 C   0  0  0  0  0  0  0  0  0  0  0  0
  -31.4189  -23.3083   20.4300 C   0  0  0  0  0  0  0  0  0  0  0  0
  -23.9893  -19.8024   22.2678 C   0  0  0  0  0  0  0  0  0  1  0  0
  -28.1166  -26.5267   18.5401 C   0  0  1  0  0  0  0  0  0  0  0  0
  -31.4711  -24.7665   18.4028 C   0  0  2  0  0  0  0  0  0  0  0  0
  -27.7067  -27.5435   17.4376 C   0  0  0  0  0  0  0  0  0  0  0  0
  -26.0417  -11.2172   20.6041 N   0  0  0  0  0  0  0  0  0  0  0  0
  -26.6150  -12.3849   20.9416 N   0  0  0  0  0  0  0  0  0  0  0  0
  -24.7616  -16.9398   20.0441 N   0  0  0  0  0  0  0  0  0  0  0  0
  -26.9319  -26.2610   20.6964 N   0  0  0  0  0  0  0  0  0  0  0  0
  -28.9447  -12.8677   17.9420 N   0  0  0  0  0  0  0  0  0  0  0  0
  -25.0534  -13.8144   16.3723 N   0  0  0  0  0  0  0  0  0  0  0  0
  -26.4510  -14.2031   22.4509 N   0  0  0  0  0  0  0  0  0  0  0  0
  -23.0132  -11.5343   23.6572 N   0  0  0  0  0  0  0  0  0  0  0  0
  -25.1123  -28.8185   21.9284 N   0  0  0  0  0  0  0  0  0  0  0  0
  -29.5322  -26.1738   18.5309 N   0  0  0  0  0  0  0  0  0  0  0  0
  -27.8663  -14.1829   16.2527 N   0  0  0  0  0  0  0  0  0  0  0  0
  -31.8953  -23.4849   19.0340 N   0  3  0  0  0  0  0  0  0  0  0  0
  -23.0129  -15.4139   20.3936 O   0  0  0  0  0  0  0  0  0  0  0  0
  -26.0041  -18.9134   20.3083 O   0  0  0  0  0  0  0  0  0  0  0  0
  -24.0836  -13.5111   24.1102 O   0  0  0  0  0  0  0  0  0  0  0  0
  -24.1855  -26.7815   21.2848 O   0  0  0  0  0  0  0  0  0  0  0  0
  -28.3530  -28.0716   20.3245 O   0  0  0  0  0  0  0  0  0  0  0  0
  -29.2237  -23.8926   18.2511 O   0  0  0  0  0  0  0  0  0  0  0  0
  -29.7032  -12.8767   15.7537 O   0  0  0  0  0  0  0  0  0  0  0  0
  -21.6389   -6.6715   21.3122 O   0  0  0  0  0  0  0  0  0  0  0  0
  -23.9555  -20.8980   21.3541 O   0  0  0  0  0  0  0  0  0  1  0  0
  -20.3403   -4.2627   26.0992 F   0  0  0  0  0  0  0  0  0  0  0  0
  -20.3398   -8.0822   23.3033 F   0  0  0  0  0  0  0  0  0  0  0  0
  1  2  1  0  0  0  0
  1  5  2  0  0  0  0
  2  6  2  0  0  0  0
  3  8  2  0  0  0  0
  3 17  1  0  0  0  0
  4  9  1  0  0  0  0
  4 17  2  0  0  0  0
  5 20  1  0  0  0  0
  6 22  1  0  0  0  0
  7 10  2  0  0  0  0
  7 21  1  0  0  0  0
  8 27  1  0  0  0  0
  9 27  2  0  0  0  0
 10 28  1  0  0  0  0
 11 12  2  0  0  0  0
 11 29  1  0  0  0  0
 12 30  1  0  0  0  0
 13 18  1  0  0  0  0
 13 24  2  0  0  0  0
 14 23  1  0  0  0  0
 14 28  2  0  0  0  0
 15 24  1  0  0  0  0
 15 25  2  0  0  0  0
 16 30  2  0  0  0  0
 16 31  1  0  0  0  0
 17 32  1  0  0  0  0
 18 26  2  0  0  0  0
 18 39  1  0  0  0  0
 19 32  1  0  0  0  0
 19 33  2  0  0  0  0
 19 40  1  0  0  0  0
 20 22  2  0  0  0  0
 20 45  1  0  0  0  0
 21 23  2  0  0  0  0
 21 46  1  0  0  0  0
 22 54  1  0  0  0  0
 23 47  1  0  0  0  0
 24 70  1  0  0  0  0
 25 26  1  0  0  0  0
 25 73  1  0  0  0  0
 26 78  1  0  0  0  0
 27 87  1  0  0  0  0
 28 88  1  0  0  0  0
 29 31  2  0  0  0  0
 29 87  1  0  0  0  0
 30 89  1  0  0  0  0
 31 90  1  0  0  0  0
 32 68  2  0  0  0  0
 33 69  1  0  0  0  0
 33 74  1  0  0  0  0
 34 35  2  0  0  0  0
 34 36  1  0  0  0  0
 34 57  1  0  0  0  0
 35 37  1  0  0  0  0
 35 64  1  0  0  0  0
 36 70  1  0  0  0  0
 36 80  2  0  0  0  0
 37 70  1  0  0  0  0
 37 81  2  0  0  0  0
 38 39  2  0  0  0  0
 40 75  1  0  0  0  0
 40 82  2  0  0  0  0
 41 55  1  0  0  0  0
 41 76  1  0  0  0  0
 41 83  2  0  0  0  0
 42 65  1  0  0  0  0
 42 71  1  0  0  0  0
 42 84  2  0  0  0  0
 43 66  1  0  0  0  0
 43 77  1  0  0  0  0
 43 85  2  0  0  0  0
 44 72  1  0  0  0  0
 44 78  1  0  0  0  0
 44 86  2  0  0  0  0
 45 48  1  0  0  0  0
 46 55  1  0  0  0  0
 47 71  1  0  0  0  0
 48 50  1  0  0  0  0
 49 51  1  0  0  0  0
 49 52  1  0  0  0  0
 50 54  1  0  0  0  0
 51 56  1  0  0  0  0
 52 72  1  0  0  0  0
 53 56  1  0  0  0  0
 53 72  1  0  0  0  0
 54 76  1  0  0  0  0
 55 71  1  0  0  0  0
 56 69  1  0  0  0  0
 58 66  1  0  0  0  0
 59 67  1  0  0  0  0
 60 67  1  0  0  0  0
 61 67  1  0  0  0  0
 62 78  1  0  0  0  0
 63 79  1  0  0  0  0
 64 88  1  0  0  0  0
 65 67  1  0  0  0  0
 65 77  1  0  0  0  0
 66 79  1  0  0  0  0
 68 69  1  0  0  0  0
M  CHG  1  79   1
M  ISO  4  44 100  64 101  78 100  88 101
M  END
> <Batch ID>
0089

> <Smiles>
C=Cc1cc(N2C(=O)C(C)=C([101CH2:1][101O:1]c3ccc4c(c3)CN(C(=O)C(NC(=O)C(C)NC)C(C)(C)C)C(C(=O)NC3CCCc5ccccc53)C4)C2=O)cc(N)c1[100N:0](C)[100C:0](=O)N1CCCC(n2nc(-c3ccc(Oc4ccc(F)cc4F)cc3)c(C(N)=O)c2N)C1

> <Shape>
0.245

> <Color>
0.101

> <Negative vol penalty>
0.000

$$$$

  -OEChem-04052300263D

 86 95  0     1  0  0  0  0  0999 V2000
  -23.4865  -35.5276   15.5853 C   0  0  0  0  0  0  0  0  0  0  0  0
  -23.8987  -34.1989   15.5983 C   0  0  0  0  0  0  0  0  0  0  0  0
  -23.8187   -8.8113   20.1326 C   0  0  0  0  0  0  0  0  0  0  0  0
  -22.9789  -10.6254   21.4893 C   0  0  0  0  0  0  0  0  0  0  0  0
  -23.7856  -36.3596   16.6634 C   0  0  0  0  0  0  0  0  0  0  0  0
  -24.6111  -33.7018   16.6891 C   0  0  0  0  0  0  0  0  0  0  0  0
  -24.3043  -28.0460   19.0179 C   0  0  0  0  0  0  0  0  0  0  0  0
  -30.1663  -19.8348   20.6359 C   0  0  0  0  0  0  0  0  0  0  0  0
  -30.1245  -18.4409   20.6094 C   0  0  0  0  0  0  0  0  0  0  0  0
  -22.9193   -7.9378   20.7438 C   0  0  0  0  0  0  0  0  0  0  0  0
  -22.0794   -9.7519   22.1005 C   0  0  0  0  0  0  0  0  0  0  0  0
  -25.1106  -26.9201   18.8564 C   0  0  0  0  0  0  0  0  0  0  0  0
  -22.6837   -6.2434   23.6589 C   0  0  0  0  0  0  0  0  0  0  0  0
  -23.1649   -4.9991   24.0661 C   0  0  0  0  0  0  0  0  0  0  0  0
  -26.3014  -27.4906   20.8752 C   0  0  0  0  0  0  0  0  0  0  0  0
  -29.9896  -24.0604   19.7103 C   0  0  0  0  0  0  0  0  0  0  0  0
  -28.2481  -19.9203   19.1695 C   0  0  0  0  0  0  0  0  0  0  0  0
  -21.5743   -3.9079   22.6113 C   0  0  0  0  0  0  0  0  0  0  0  0
  -23.8485  -10.1551   20.5054 C   0  0  0  0  0  0  0  0  0  0  0  0
  -24.5626  -11.8259   18.7149 C   0  0  0  0  0  0  0  0  0  0  0  0
  -24.4936  -35.8698   17.7722 C   0  0  0  0  0  0  0  0  0  0  0  0
  -24.4981  -28.9101   20.1052 C   0  0  0  0  0  0  0  0  0  0  0  0
  -24.9210  -34.5284   17.7824 C   0  0  0  0  0  0  0  0  0  0  0  0
  -25.4946  -28.6254   21.0496 C   0  0  0  0  0  0  0  0  0  0  0  0
  -28.6820  -24.0911   20.2546 C   0  0  0  0  0  0  0  0  0  0  0  0
  -29.2280  -20.5745   19.9160 C   0  0  0  0  0  0  0  0  0  0  0  0
  -29.1446  -17.7866   19.8629 C   0  0  0  0  0  0  0  0  0  0  0  0
  -28.2063  -18.5263   19.1429 C   0  0  0  0  0  0  0  0  0  0  0  0
  -22.0496   -8.4081   21.7278 C   0  0  0  0  0  0  0  0  0  0  0  0
  -26.1112  -26.6438   19.7835 C   0  0  0  0  0  0  0  0  0  0  0  0
  -21.6477   -6.3200   22.7280 C   0  0  0  0  0  0  0  0  0  0  0  0
  -22.6102   -3.8314   23.5423 C   0  0  0  0  0  0  0  0  0  0  0  0
  -21.0930   -5.1522   22.2042 C   0  0  0  0  0  0  0  0  0  0  0  0
  -24.7778  -11.0578   19.8748 C   0  0  0  0  0  0  0  0  0  0  0  0
  -28.2613  -22.7863   20.3881 C   0  0  0  0  0  0  0  0  0  0  0  0
  -25.7402  -12.5089   18.5320 C   0  0  0  0  0  0  0  0  0  0  0  0
  -30.3281  -22.7377   19.5276 C   0  0  0  0  0  0  0  0  0  0  0  0
  -23.4021  -11.9142   17.8776 C   0  0  0  0  0  0  0  0  0  0  0  0
  -25.2921  -31.9714   20.4238 C   0  0  0  0  0  0  0  0  0  0  0  0
  -24.6922  -31.3975   23.5596 C   0  0  0  0  0  0  0  0  0  0  0  0
  -24.4734  -29.1287   26.0996 C   0  0  0  0  0  0  0  0  0  0  0  0
  -29.9916  -15.5063   20.5181 C   0  0  0  0  0  0  0  0  0  0  0  0
  -24.8345  -36.8196   18.8931 C   0  0  0  0  0  0  0  0  0  0  0  0
  -23.6025  -30.1058   20.2798 C   0  0  0  0  0  0  0  0  0  0  0  0
  -25.7300  -29.5104   22.2454 C   0  0  0  0  0  0  0  0  0  0  0  0
  -25.2679  -36.1163   20.1768 C   0  0  0  0  0  0  0  0  0  0  0  0
  -30.2463  -11.9640   20.7724 C   0  0  0  0  0  0  0  0  0  0  0  0
  -26.2825  -35.0198   19.8683 C   0  0  0  0  0  0  0  0  0  0  0  0
  -28.8286  -11.4757   20.4661 C   0  0  0  0  0  0  0  0  0  0  0  0
  -30.2375  -13.2678   21.5686 C   0  0  0  0  0  0  0  0  0  0  0  0
  -28.0204  -13.8613   20.6732 C   0  0  0  0  0  0  0  0  0  0  0  0
  -25.6743  -33.9456   18.9585 C   0  0  1  0  0  0  0  0  0  0  0  0
  -24.2250  -31.1974   21.1448 C   0  0  1  0  0  0  0  0  0  0  0  0
  -27.9784  -12.5852   19.8167 C   0  0  2  0  0  0  0  0  0  0  0  0
  -26.9793  -22.2555   20.9039 C   0  0  0  0  0  0  0  0  0  0  0  0
  -24.0013  -28.9641   28.5587 C   0  0  0  0  0  0  0  0  0  0  0  0
  -27.4710  -32.5031   24.1646 C   0  0  0  0  0  0  0  0  0  0  0  0
  -27.3178  -31.4550   26.4332 C   0  0  0  0  0  0  0  0  0  0  0  0
  -25.6902  -33.2237   25.7658 C   0  0  0  0  0  0  0  0  0  0  0  0
  -22.1311  -27.3764   25.6506 C   0  0  0  0  0  0  0  0  0  0  0  0
  -27.9057  -25.3234   20.6154 C   0  0  0  0  0  0  0  0  0  1  0  0
  -25.5112  -30.9220   24.7352 C   0  0  1  0  0  0  0  0  0  0  0  0
  -23.4100  -28.9021   27.1590 C   0  0  2  0  0  0  0  0  0  0  0  0
  -26.4946  -32.0101   25.2512 C   0  0  0  0  0  0  0  0  0  0  0  0
  -25.9963  -11.2356   20.3923 N   0  0  0  0  0  0  0  0  0  0  0  0
  -29.2699  -21.9723   19.9428 N   0  0  0  0  0  0  0  0  0  0  0  0
  -26.5574  -12.1232   19.5535 N   0  0  0  0  0  0  0  0  0  0  0  0
  -24.8325  -30.6709   22.3687 N   0  0  0  0  0  0  0  0  0  0  0  0
  -29.4160  -14.2732   20.8910 N   0  0  0  0  0  0  0  0  0  0  0  0
  -27.2050  -17.8836   18.3807 N   0  0  0  0  0  0  0  0  0  0  0  0
  -26.1459  -13.3958   17.5986 N   0  0  0  0  0  0  0  0  0  0  0  0
  -22.2786  -11.1449   18.2096 N   0  0  0  0  0  0  0  0  0  0  0  0
  -29.1230  -16.3698   19.8513 N   0  0  0  0  0  0  0  0  0  0  0  0
  -24.8180  -33.0628   19.7213 N   0  0  0  0  0  0  0  0  0  0  0  0
  -24.5571  -30.4560   25.7357 N   0  0  0  0  0  0  0  0  0  0  0  0
  -22.7734  -27.5670   26.9765 N   0  3  0  0  0  0  0  0  0  0  0  0
  -23.3683  -12.6410   16.8558 O   0  0  0  0  0  0  0  0  0  0  0  0
  -26.4594  -31.6063   20.5005 O   0  0  0  0  0  0  0  0  0  0  0  0
  -23.9497  -32.3732   23.6950 O   0  0  0  0  0  0  0  0  0  0  0  0
  -25.1636  -28.2198   25.6434 O   0  0  0  0  0  0  0  0  0  0  0  0
  -31.1757  -15.7655   20.7473 O   0  0  0  0  0  0  0  0  0  0  0  0
  -31.4394  -22.1917   19.0485 O   0  0  0  0  0  0  0  0  0  0  0  0
  -21.1716   -7.5560   22.3242 O   0  0  0  0  0  0  0  0  0  0  0  0
  -26.9000  -25.5458   19.6279 O   0  0  0  0  0  0  0  0  0  1  0  0
  -23.0735   -2.6366   23.9322 F   0  0  0  0  0  0  0  0  0  0  0  0
  -20.0984   -5.2195   21.3087 F   0  0  0  0  0  0  0  0  0  0  0  0
  1  2  1  0  0  0  0
  1  5  2  0  0  0  0
  2  6  2  0  0  0  0
  3 10  2  0  0  0  0
  3 19  1  0  0  0  0
  4 11  1  0  0  0  0
  4 19  2  0  0  0  0
  5 21  1  0  0  0  0
  6 23  1  0  0  0  0
  7 12  2  0  0  0  0
  7 22  1  0  0  0  0
  8  9  2  0  0  0  0
  8 26  1  0  0  0  0
  9 27  1  0  0  0  0
 10 29  1  0  0  0  0
 11 29  2  0  0  0  0
 12 30  1  0  0  0  0
 13 14  2  0  0  0  0
 13 31  1  0  0  0  0
 14 32  1  0  0  0  0
 15 24  1  0  0  0  0
 15 30  2  0  0  0  0
 16 25  1  0  0  0  0
 16 37  2  0  0  0  0
 17 26  2  0  0  0  0
 17 28  1  0  0  0  0
 18 32  2  0  0  0  0
 18 33  1  0  0  0  0
 19 34  1  0  0  0  0
 20 34  1  0  0  0  0
 20 36  2  0  0  0  0
 20 38  1  0  0  0  0
 21 23  2  0  0  0  0
 21 43  1  0  0  0  0
 22 24  2  0  0  0  0
 22 44  1  0  0  0  0
 23 52  1  0  0  0  0
 24 45  1  0  0  0  0
 25 35  2  0  0  0  0
 25 61  1  0  0  0  0
 26 66  1  0  0  0  0
 27 28  2  0  0  0  0
 27 73  1  0  0  0  0
 28 70  1  0  0  0  0
 29 83  1  0  0  0  0
 30 84  1  0  0  0  0
 31 33  2  0  0  0  0
 31 83  1  0  0  0  0
 32 85  1  0  0  0  0
 33 86  1  0  0  0  0
 34 65  2  0  0  0  0
 35 55  1  0  0  0  0
 35 66  1  0  0  0  0
 36 67  1  0  0  0  0
 36 71  1  0  0  0  0
 37 66  1  0  0  0  0
 37 82  1  0  0  0  0
 38 72  1  0  0  0  0
 38 77  2  0  0  0  0
 39 53  1  0  0  0  0
 39 74  1  0  0  0  0
 39 78  2  0  0  0  0
 40 62  1  0  0  0  0
 40 68  1  0  0  0  0
 40 79  2  0  0  0  0
 41 63  1  0  0  0  0
 41 75  1  0  0  0  0
 41 80  2  0  0  0  0
 42 69  1  0  0  0  0
 42 73  1  0  0  0  0
 42 81  2  0  0  0  0
 43 46  1  0  0  0  0
 44 53  1  0  0  0  0
 45 68  1  0  0  0  0
 46 48  1  0  0  0  0
 47 49  1  0  0  0  0
 47 50  1  0  0  0  0
 48 52  1  0  0  0  0
 49 54  1  0  0  0  0
 50 69  1  0  0  0  0
 51 54  1  0  0  0  0
 51 69  1  0  0  0  0
 52 74  1  0  0  0  0
 53 68  1  0  0  0  0
 54 67  1  0  0  0  0
 56 63  1  0  0  0  0
 57 64  1  0  0  0  0
 58 64  1  0  0  0  0
 59 64  1  0  0  0  0
 60 76  1  0  0  0  0
 61 84  1  0  0  0  0
 62 64  1  0  0  0  0
 62 75  1  0  0  0  0
 63 76  1  0  0  0  0
 65 67  1  0  0  0  0
M  CHG  1  76   1
M  ISO  4  42 100  61 101  73 100  84 101
M  END
> <Batch ID>
0089

> <Smiles>
CNC(C)C(=O)NC(C(=O)N1Cc2cc([101O:1][101CH2:1]C3=C(C)N(c4ccc([100NH:0][100C:0](=O)N5CCCC(n6nc(-c7ccc(Oc8ccc(F)cc8F)cc7)c(C(N)=O)c6N)C5)c(N)c4)C(=O)C3)ccc2CC1C(=O)NC1CCCc2ccccc21)C(C)(C)C

> <Shape>
0.314

> <Color>
0.107

> <Negative vol penalty>
0.000

$$$$

  -OEChem-04052300263D

 86 95  0     1  0  0  0  0  0999 V2000
  -28.8544  -31.1625   26.9656 C   0  0  0  0  0  0  0  0  0  0  0  0
  -28.6137  -30.0441   26.1739 C   0  0  0  0  0  0  0  0  0  0  0  0
  -30.8517  -19.9633   15.4915 C   0  0  0  0  0  0  0  0  0  0  0  0
  -25.1855   -8.4184   21.7683 C   0  0  0  0  0  0  0  0  0  0  0  0
  -24.4572   -8.3521   19.4656 C   0  0  0  0  0  0  0  0  0  0  0  0
  -30.2750  -18.6980   15.3812 C   0  0  0  0  0  0  0  0  0  0  0  0
  -27.8221  -32.0605   27.2337 C   0  0  0  0  0  0  0  0  0  0  0  0
  -27.3402  -29.8226   25.6507 C   0  0  0  0  0  0  0  0  0  0  0  0
  -27.4532  -28.4617   20.7742 C   0  0  0  0  0  0  0  0  0  0  0  0
  -30.4621  -20.8200   16.5210 C   0  0  0  0  0  0  0  0  0  0  0  0
  -23.9259   -7.9823   22.1792 C   0  0  0  0  0  0  0  0  0  0  0  0
  -23.1976   -7.9159   19.8766 C   0  0  0  0  0  0  0  0  0  0  0  0
  -27.7921  -27.1396   20.4898 C   0  0  0  0  0  0  0  0  0  0  0  0
  -22.2278   -5.0623   22.3303 C   0  0  0  0  0  0  0  0  0  0  0  0
  -22.1731   -4.0529   23.2915 C   0  0  0  0  0  0  0  0  0  0  0  0
  -28.9191  -19.1463   17.3300 C   0  0  0  0  0  0  0  0  0  0  0  0
  -25.4565  -26.6094   20.2011 C   0  0  0  0  0  0  0  0  0  0  0  0
  -28.3841  -22.0297   20.4290 C   0  0  0  0  0  0  0  0  0  0  0  0
  -20.9592   -5.5276   24.7710 C   0  0  0  0  0  0  0  0  0  0  0  0
  -29.1099  -22.6368   18.3858 C   0  0  0  0  0  0  0  0  0  0  0  0
  -25.4511   -8.6033   20.4115 C   0  0  0  0  0  0  0  0  0  0  0  0
  -29.3087  -18.2895   16.3005 C   0  0  0  0  0  0  0  0  0  0  0  0
  -27.8633   -8.2552   19.6577 C   0  0  0  0  0  0  0  0  0  0  0  0
  -26.5378  -31.8551   26.7056 C   0  0  0  0  0  0  0  0  0  0  0  0
  -26.1104  -28.8658   20.7849 C   0  0  0  0  0  0  0  0  0  0  0  0
  -26.2895  -30.7181   25.9131 C   0  0  0  0  0  0  0  0  0  0  0  0
  -25.1034  -27.9378   20.4834 C   0  0  0  0  0  0  0  0  0  0  0  0
  -28.6654  -23.1362   19.5901 C   0  0  0  0  0  0  0  0  0  0  0  0
  -29.4958  -20.4115   17.4403 C   0  0  0  0  0  0  0  0  0  0  0  0
  -22.9320   -7.7310   21.2334 C   0  0  0  0  0  0  0  0  0  0  0  0
  -26.7935  -26.2125   20.2061 C   0  0  0  0  0  0  0  0  0  0  0  0
  -21.6483   -6.3043   22.5895 C   0  0  0  0  0  0  0  0  0  0  0  0
  -21.5387   -4.2855   24.5118 C   0  0  0  0  0  0  0  0  0  0  0  0
  -21.0140   -6.5370   23.8098 C   0  0  0  0  0  0  0  0  0  0  0  0
  -26.7519   -9.0544   19.9864 C   0  0  0  0  0  0  0  0  0  0  0  0
  -28.8451   -9.1545   19.3204 C   0  0  0  0  0  0  0  0  0  0  0  0
  -28.6655  -20.8878   19.7118 C   0  0  0  0  0  0  0  0  0  0  0  0
  -28.6985  -16.9486   16.1833 C   0  0  0  0  0  0  0  0  0  0  0  0
  -27.9962   -6.8276   19.6573 C   0  0  0  0  0  0  0  0  0  0  0  0
  -24.1418  -30.0504   22.9815 C   0  0  0  0  0  0  0  0  0  0  0  0
  -22.1244  -30.3364   20.4575 C   0  0  0  0  0  0  0  0  0  0  0  0
  -21.2185  -29.2866   17.3391 C   0  0  0  0  0  0  0  0  0  0  0  0
  -28.3183  -14.7521   17.2822 C   0  0  0  0  0  0  0  0  0  0  0  0
  -25.4422  -32.8284   27.0619 C   0  0  0  0  0  0  0  0  0  0  0  0
  -25.7631  -30.3018   21.0674 C   0  0  0  0  0  0  0  0  0  0  0  0
  -23.6482  -28.3256   20.4620 C   0  0  0  0  0  0  0  0  0  0  0  0
  -24.2146  -32.7201   26.1610 C   0  0  0  0  0  0  0  0  0  0  0  0
  -30.3309  -13.5961   20.1754 C   0  0  0  0  0  0  0  0  0  0  0  0
  -23.8102  -31.2601   25.9830 C   0  0  0  0  0  0  0  0  0  0  0  0
  -29.6708  -12.2522   20.4633 C   0  0  0  0  0  0  0  0  0  0  0  0
  -29.3415  -14.6179   19.6168 C   0  0  0  0  0  0  0  0  0  0  0  0
  -27.9437  -12.7778   18.7022 C   0  0  0  0  0  0  0  0  0  0  0  0
  -24.9278  -30.4566   25.3070 C   0  0  1  0  0  0  0  0  0  0  0  0
  -24.3294  -30.4849   21.5555 C   0  0  1  0  0  0  0  0  0  0  0  0
  -28.9457  -11.7327   19.2136 C   0  0  2  0  0  0  0  0  0  0  0  0
  -19.5057  -29.6810   15.5481 C   0  0  0  0  0  0  0  0  0  0  0  0
  -20.0667  -28.7796   22.0859 C   0  0  0  0  0  0  0  0  0  0  0  0
  -18.7910  -28.3863   19.9679 C   0  0  0  0  0  0  0  0  0  0  0  0
  -19.1346  -30.7122   20.8011 C   0  0  0  0  0  0  0  0  0  0  0  0
  -23.2820  -30.1167   15.3867 C   0  0  0  0  0  0  0  0  0  0  0  0
  -28.5083  -24.5853   19.9460 C   0  0  0  0  0  0  0  0  0  1  0  0
  -21.0882  -29.4490   19.8112 C   0  0  1  0  0  0  0  0  0  0  0  0
  -20.8817  -30.0570   16.0752 C   0  0  2  0  0  0  0  0  0  0  0  0
  -19.7973  -29.3237   20.6688 C   0  0  0  0  0  0  0  0  0  0  0  0
  -27.0034  -10.3609   19.8687 N   0  0  0  0  0  0  0  0  0  0  0  0
  -29.1062  -21.2690   18.4714 N   0  0  0  0  0  0  0  0  0  0  0  0
  -28.2841  -10.3896   19.4624 N   0  0  0  0  0  0  0  0  0  0  0  0
  -23.3589  -29.7399   20.7509 N   0  0  0  0  0  0  0  0  0  0  0  0
  -28.5763  -14.0829   18.4822 N   0  0  0  0  0  0  0  0  0  0  0  0
  -30.1249   -9.0014   18.9193 N   0  0  0  0  0  0  0  0  0  0  0  0
  -26.8891   -6.0534   20.0305 N   0  0  0  0  0  0  0  0  0  0  0  0
  -28.8416  -16.0995   17.2127 N   0  0  0  0  0  0  0  0  0  0  0  0
  -24.9481  -30.7177   23.8837 N   0  0  0  0  0  0  0  0  0  0  0  0
  -20.8669  -29.9873   18.4734 N   0  0  0  0  0  0  0  0  0  0  0  0
  -28.0468  -16.6640   15.0561 N   0  3  0  0  0  0  0  0  0  0  0  0
  -21.8863  -29.7723   15.0119 N   0  3  0  0  0  0  0  0  0  0  0  0
  -29.0700   -6.2560   19.3512 O   0  0  0  0  0  0  0  0  0  0  0  0
  -23.3248  -29.1755   23.2441 O   0  0  0  0  0  0  0  0  0  0  0  0
  -21.8512  -31.5173   20.6868 O   0  0  0  0  0  0  0  0  0  0  0  0
  -21.7380  -28.1728   17.3219 O   0  0  0  0  0  0  0  0  0  0  0  0
  -27.6790  -14.3018   16.3374 O   0  0  0  0  0  0  0  0  0  0  0  0
  -28.5683  -19.6089   20.0543 O   0  0  0  0  0  0  0  0  0  0  0  0
  -21.7029   -7.3052   21.6340 O   0  0  0  0  0  0  0  0  0  0  0  0
  -27.1215  -24.9212   19.9288 O   0  0  0  0  0  0  0  0  0  1  0  0
  -21.4848   -3.3156   25.4340 F   0  0  0  0  0  0  0  0  0  0  0  0
  -20.4545   -7.7278   24.0641 F   0  0  0  0  0  0  0  0  0  0  0  0
  1  2  1  0  0  0  0
  1  7  2  0  0  0  0
  2  8  2  0  0  0  0
  3  6  1  0  0  0  0
  3 10  2  0  0  0  0
  4 11  2  0  0  0  0
  4 21  1  0  0  0  0
  5 12  1  0  0  0  0
  5 21  2  0  0  0  0
  6 22  2  0  0  0  0
  7 24  1  0  0  0  0
  8 26  1  0  0  0  0
  9 13  2  0  0  0  0
  9 25  1  0  0  0  0
 10 29  1  0  0  0  0
 11 30  1  0  0  0  0
 12 30  2  0  0  0  0
 13 31  1  0  0  0  0
 14 15  2  0  0  0  0
 14 32  1  0  0  0  0
 15 33  1  0  0  0  0
 16 22  1  0  0  0  0
 16 29  2  0  0  0  0
 17 27  1  0  0  0  0
 17 31  2  0  0  0  0
 18 28  1  0  0  0  0
 18 37  2  0  0  0  0
 19 33  2  0  0  0  0
 19 34  1  0  0  0  0
 20 28  2  0  0  0  0
 20 66  1  0  0  0  0
 21 35  1  0  0  0  0
 22 38  1  0  0  0  0
 23 35  1  0  0  0  0
 23 36  2  0  0  0  0
 23 39  1  0  0  0  0
 24 26  2  0  0  0  0
 24 44  1  0  0  0  0
 25 27  2  0  0  0  0
 25 45  1  0  0  0  0
 26 53  1  0  0  0  0
 27 46  1  0  0  0  0
 28 61  1  0  0  0  0
 29 66  1  0  0  0  0
 30 83  1  0  0  0  0
 31 84  1  0  0  0  0
 32 34  2  0  0  0  0
 32 83  1  0  0  0  0
 33 85  1  0  0  0  0
 34 86  1  0  0  0  0
 35 65  2  0  0  0  0
 36 67  1  0  0  0  0
 36 70  1  0  0  0  0
 37 66  1  0  0  0  0
 37 82  1  0  0  0  0
 38 72  1  0  0  0  0
 38 75  2  0  0  0  0
 39 71  1  0  0  0  0
 39 77  2  0  0  0  0
 40 54  1  0  0  0  0
 40 73  1  0  0  0  0
 40 78  2  0  0  0  0
 41 62  1  0  0  0  0
 41 68  1  0  0  0  0
 41 79  2  0  0  0  0
 42 63  1  0  0  0  0
 42 74  1  0  0  0  0
 42 80  2  0  0  0  0
 43 69  1  0  0  0  0
 43 72  1  0  0  0  0
 43 81  2  0  0  0  0
 44 47  1  0  0  0  0
 45 54  1  0  0  0  0
 46 68  1  0  0  0  0
 47 49  1  0  0  0  0
 48 50  1  0  0  0  0
 48 51  1  0  0  0  0
 49 53  1  0  0  0  0
 50 55  1  0  0  0  0
 51 69  1  0  0  0  0
 52 55  1  0  0  0  0
 52 69  1  0  0  0  0
 53 73  1  0  0  0  0
 54 68  1  0  0  0  0
 55 67  1  0  0  0  0
 56 63  1  0  0  0  0
 57 64  1  0  0  0  0
 58 64  1  0  0  0  0
 59 64  1  0  0  0  0
 60 76  1  0  0  0  0
 61 84  1  0  0  0  0
 62 64  1  0  0  0  0
 62 74  1  0  0  0  0
 63 76  1  0  0  0  0
 65 67  1  0  0  0  0
M  CHG  2  75   1  76   1
M  ISO  4  43 100  61 101  72 100  84 101
M  END
> <Batch ID>
0089

> <Smiles>
CNC(C)C(=O)NC(C(=O)N1Cc2cc([101O:1][101CH2:1]C3=CN(c4cccc(C(=N)[100NH:0][100C:0](=O)N5CCCC(n6nc(-c7ccc(Oc8ccc(F)cc8F)cc7)c(C(N)=O)c6N)C5)c4)C(=O)C3)ccc2CC1C(=O)NC1CCCc2ccccc21)C(C)(C)C

> <Shape>
0.270

> <Color>
0.092

> <Negative vol penalty>
0.000

$$$$

  -OEChem-04052300263D

 86 95  0     1  0  0  0  0  0999 V2000
  -17.7499  -26.0098   23.2217 C   0  0  0  0  0  0  0  0  0  0  0  0
  -19.0333  -25.6304   22.8416 C   0  0  0  0  0  0  0  0  0  0  0  0
  -28.3565  -20.5169   14.8683 C   0  0  0  0  0  0  0  0  0  0  0  0
  -26.5612  -11.3171   21.0260 C   0  0  0  0  0  0  0  0  0  0  0  0
  -25.5180  -13.1181   19.7991 C   0  0  0  0  0  0  0  0  0  0  0  0
  -29.0312  -21.7370   14.9084 C   0  0  0  0  0  0  0  0  0  0  0  0
  -17.3351  -27.3298   23.0503 C   0  0  0  0  0  0  0  0  0  0  0  0
  -19.9022  -26.5706   22.2889 C   0  0  0  0  0  0  0  0  0  0  0  0
  -25.9774  -26.8417   23.0128 C   0  0  0  0  0  0  0  0  0  0  0  0
  -28.5132  -19.5988   15.9067 C   0  0  0  0  0  0  0  0  0  0  0  0
  -25.3037  -10.8444   21.4015 C   0  0  0  0  0  0  0  0  0  0  0  0
  -24.2605  -12.6454   20.1745 C   0  0  0  0  0  0  0  0  0  0  0  0
  -27.0371  -26.4122   22.2151 C   0  0  0  0  0  0  0  0  0  0  0  0
  -22.8005   -9.0474   20.0095 C   0  0  0  0  0  0  0  0  0  0  0  0
  -22.5676   -7.6757   19.9108 C   0  0  0  0  0  0  0  0  0  0  0  0
  -30.0194  -21.1210   17.0253 C   0  0  0  0  0  0  0  0  0  0  0  0
  -27.2311  -28.6311   21.2888 C   0  0  0  0  0  0  0  0  0  0  0  0
  -22.1240   -7.5802   22.2838 C   0  0  0  0  0  0  0  0  0  0  0  0
  -26.6684  -12.4539   20.2249 C   0  0  0  0  0  0  0  0  0  0  0  0
  -29.8626  -22.0391   15.9869 C   0  0  0  0  0  0  0  0  0  0  0  0
  -28.9485  -12.2555   19.0982 C   0  0  0  0  0  0  0  0  0  0  0  0
  -18.2026  -28.2889   22.5042 C   0  0  0  0  0  0  0  0  0  0  0  0
  -25.5287  -28.1686   22.9463 C   0  0  0  0  0  0  0  0  0  0  0  0
  -19.4980  -27.9043   22.1088 C   0  0  0  0  0  0  0  0  0  0  0  0
  -26.1671  -29.0755   22.0885 C   0  0  0  0  0  0  0  0  0  0  0  0
  -29.3446  -19.9009   16.9852 C   0  0  0  0  0  0  0  0  0  0  0  0
  -24.1534  -11.5086   20.9757 C   0  0  0  0  0  0  0  0  0  0  0  0
  -27.6623  -27.3063   21.3508 C   0  0  0  0  0  0  0  0  0  0  0  0
  -22.6953   -9.6855   21.2454 C   0  0  0  0  0  0  0  0  0  0  0  0
  -22.2293   -6.9421   21.0479 C   0  0  0  0  0  0  0  0  0  0  0  0
  -22.3570   -8.9520   22.3826 C   0  0  0  0  0  0  0  0  0  0  0  0
  -27.9671  -12.9429   19.8372 C   0  0  0  0  0  0  0  0  0  0  0  0
  -29.9892  -13.1462   18.9978 C   0  0  0  0  0  0  0  0  0  0  0  0
  -29.4033  -25.3925   18.8659 C   0  0  0  0  0  0  0  0  0  0  0  0
  -29.1310  -24.3092   17.8851 C   0  0  0  0  0  0  0  0  0  0  0  0
  -28.4640  -25.8798   19.6796 C   0  0  0  0  0  0  0  0  0  1  0  0
  -30.5742  -23.3276   16.0279 C   0  0  0  0  0  0  0  0  0  0  0  0
  -28.9216  -10.9305   18.5512 C   0  0  0  0  0  0  0  0  0  0  0  0
  -22.7941  -29.5740   22.1397 C   0  0  0  0  0  0  0  0  0  0  0  0
  -24.3200  -32.2493   23.1581 C   0  0  0  0  0  0  0  0  0  0  0  0
  -27.2744  -33.8501   23.7544 C   0  0  0  0  0  0  0  0  0  0  0  0
  -30.2899  -19.1111   19.1827 C   0  0  0  0  0  0  0  0  0  0  0  0
  -17.6932  -29.6929   22.2946 C   0  0  0  0  0  0  0  0  0  0  0  0
  -24.4017  -28.6228   23.8329 C   0  0  0  0  0  0  0  0  0  0  0  0
  -25.7366  -30.5158   21.9946 C   0  0  0  0  0  0  0  0  0  0  0  0
  -30.8236  -25.8321   18.7569 C   0  0  0  0  0  0  0  0  0  0  0  0
  -18.8020  -30.7127   22.0479 C   0  0  0  0  0  0  0  0  0  0  0  0
  -32.0051  -16.8257   21.3068 C   0  0  0  0  0  0  0  0  0  0  0  0
  -19.7991  -30.1798   21.0238 C   0  0  0  0  0  0  0  0  0  0  0  0
  -31.2574  -15.5066   21.0992 C   0  0  0  0  0  0  0  0  0  0  0  0
  -31.2507  -25.2467   17.4249 C   0  0  0  0  0  0  0  0  0  0  0  0
  -31.0585  -18.0244   21.2811 C   0  0  0  0  0  0  0  0  0  0  0  0
  -29.4447  -16.7872   19.8904 C   0  0  0  0  0  0  0  0  0  0  0  0
  -20.4781  -28.9009   21.5286 C   0  0  1  0  0  0  0  0  0  0  0  0
  -23.6927  -29.8673   23.3077 C   0  0  1  0  0  0  0  0  0  0  0  0
  -30.3648  -15.5565   19.8436 C   0  0  2  0  0  0  0  0  0  0  0  0
  -28.2016  -36.0424   24.5490 C   0  0  0  0  0  0  0  0  0  0  0  0
  -23.6475  -33.5083   20.4613 C   0  0  0  0  0  0  0  0  0  0  0  0
  -25.3660  -35.2670   20.9324 C   0  0  0  0  0  0  0  0  0  0  0  0
  -23.3785  -35.0368   22.4223 C   0  0  0  0  0  0  0  0  0  0  0  0
  -28.6351  -32.5742   26.0522 C   0  0  0  0  0  0  0  0  0  0  0  0
  -25.2028  -33.2886   22.5104 C   0  0  1  0  0  0  0  0  0  0  0  0
  -27.7672  -34.6419   24.9522 C   0  0  2  0  0  0  0  0  0  0  0  0
  -24.4058  -34.2476   21.5817 C   0  0  0  0  0  0  0  0  0  0  0  0
  -28.3502  -14.1751   20.1821 N   0  0  0  0  0  0  0  0  0  0  0  0
  -29.5839  -14.2690   19.6575 N   0  0  0  0  0  0  0  0  0  0  0  0
  -30.3093  -24.1844   17.1114 N   0  0  0  0  0  0  0  0  0  0  0  0
  -24.6261  -30.9102   22.8770 N   0  0  0  0  0  0  0  0  0  0  0  0
  -30.2482  -18.0079   20.0613 N   0  0  0  0  0  0  0  0  0  0  0  0
  -31.2025  -13.0705   18.4106 N   0  0  0  0  0  0  0  0  0  0  0  0
  -27.7740  -10.1500   18.7468 N   0  0  0  0  0  0  0  0  0  0  0  0
  -29.5034  -18.9683   18.0401 N   0  0  0  0  0  0  0  0  0  0  0  0
  -21.5060  -29.2221   22.4953 N   0  0  0  0  0  0  0  0  0  0  0  0
  -25.9089  -33.9588   23.5970 N   0  0  0  0  0  0  0  0  0  0  0  0
  -28.9274  -33.9542   25.5861 N   0  3  0  0  0  0  0  0  0  0  0  0
  -28.0807  -23.6940   17.8063 O   0  0  0  0  0  0  0  0  0  0  0  0
  -31.3387  -23.5855   15.0999 O   0  0  0  0  0  0  0  0  0  0  0  0
  -29.8932  -10.4468   17.9222 O   0  0  0  0  0  0  0  0  0  0  0  0
  -23.2363  -29.6620   21.0002 O   0  0  0  0  0  0  0  0  0  0  0  0
  -23.3974  -32.6120   23.8922 O   0  0  0  0  0  0  0  0  0  0  0  0
  -28.0262  -33.2031   23.0287 O   0  0  0  0  0  0  0  0  0  0  0  0
  -30.9941  -20.0976   19.4127 O   0  0  0  0  0  0  0  0  0  0  0  0
  -22.9261  -11.0476   21.3417 O   0  0  0  0  0  0  0  0  0  0  0  0
  -28.6965  -26.8896   20.5706 O   0  0  0  0  0  0  0  0  0  1  0  0
  -22.0041   -5.6251   20.9527 F   0  0  0  0  0  0  0  0  0  0  0  0
  -22.2533   -9.5597   23.5724 F   0  0  0  0  0  0  0  0  0  0  0  0
  1  2  1  0  0  0  0
  1  7  2  0  0  0  0
  2  8  2  0  0  0  0
  3  6  2  0  0  0  0
  3 10  1  0  0  0  0
  4 11  2  0  0  0  0
  4 19  1  0  0  0  0
  5 12  1  0  0  0  0
  5 19  2  0  0  0  0
  6 20  1  0  0  0  0
  7 22  1  0  0  0  0
  8 24  1  0  0  0  0
  9 13  2  0  0  0  0
  9 23  1  0  0  0  0
 10 26  2  0  0  0  0
 11 27  1  0  0  0  0
 12 27  2  0  0  0  0
 13 28  1  0  0  0  0
 14 15  2  0  0  0  0
 14 29  1  0  0  0  0
 15 30  1  0  0  0  0
 16 20  2  0  0  0  0
 16 26  1  0  0  0  0
 17 25  1  0  0  0  0
 17 28  2  0  0  0  0
 18 30  2  0  0  0  0
 18 31  1  0  0  0  0
 19 32  1  0  0  0  0
 20 37  1  0  0  0  0
 21 32  1  0  0  0  0
 21 33  2  0  0  0  0
 21 38  1  0  0  0  0
 22 24  2  0  0  0  0
 22 43  1  0  0  0  0
 23 25  2  0  0  0  0
 23 44  1  0  0  0  0
 24 54  1  0  0  0  0
 25 45  1  0  0  0  0
 26 72  1  0  0  0  0
 27 83  1  0  0  0  0
 28 84  1  0  0  0  0
 29 31  2  0  0  0  0
 29 83  1  0  0  0  0
 30 85  1  0  0  0  0
 31 86  1  0  0  0  0
 32 65  2  0  0  0  0
 33 66  1  0  0  0  0
 33 70  1  0  0  0  0
 34 35  1  0  0  0  0
 34 36  2  0  0  0  0
 34 46  1  0  0  0  0
 35 67  1  0  0  0  0
 35 76  2  0  0  0  0
 36 84  1  0  0  0  0
 37 67  1  0  0  0  0
 37 77  2  0  0  0  0
 38 71  1  0  0  0  0
 38 78  2  0  0  0  0
 39 55  1  0  0  0  0
 39 73  1  0  0  0  0
 39 79  2  0  0  0  0
 40 62  1  0  0  0  0
 40 68  1  0  0  0  0
 40 80  2  0  0  0  0
 41 63  1  0  0  0  0
 41 74  1  0  0  0  0
 41 81  2  0  0  0  0
 42 69  1  0  0  0  0
 42 72  1  0  0  0  0
 42 82  2  0  0  0  0
 43 47  1  0  0  0  0
 44 55  1  0  0  0  0
 45 68  1  0  0  0  0
 46 51  1  0  0  0  0
 47 49  1  0  0  0  0
 48 50  1  0  0  0  0
 48 52  1  0  0  0  0
 49 54  1  0  0  0  0
 50 56  1  0  0  0  0
 51 67  1  0  0  0  0
 52 69  1  0  0  0  0
 53 56  1  0  0  0  0
 53 69  1  0  0  0  0
 54 73  1  0  0  0  0
 55 68  1  0  0  0  0
 56 66  1  0  0  0  0
 57 63  1  0  0  0  0
 58 64  1  0  0  0  0
 59 64  1  0  0  0  0
 60 64  1  0  0  0  0
 61 75  1  0  0  0  0
 62 64  1  0  0  0  0
 62 74  1  0  0  0  0
 63 75  1  0  0  0  0
 65 66  1  0  0  0  0
M  CHG  1  75   1
M  ISO  4  36 101  42 100  72 100  84 101
M  END
> <Batch ID>
0089

> <Smiles>
CNC(C)C(=O)NC(C(=O)N1Cc2cc([101O:1][101CH:1]=C3CCN(C(=O)c4cccc([100NH:0][100C:0](=O)N5CCCC(n6nc(-c7ccc(Oc8ccc(F)cc8F)cc7)c(C(N)=O)c6N)C5)c4)C3=O)ccc2CC1C(=O)NC1CCCc2ccccc21)C(C)(C)C

> <Shape>
0.345

> <Color>
0.100

> <Negative vol penalty>
0.000

$$$$

  -OEChem-04052300263D

 84 92  0     1  0  0  0  0  0999 V2000
  -26.4366  -32.8752   27.1922 C   0  0  0  0  0  0  0  0  0  0  0  0
  -26.9935  -32.0311   26.2368 C   0  0  0  0  0  0  0  0  0  0  0  0
  -22.8234  -11.4969   18.7241 C   0  0  0  0  0  0  0  0  0  0  0  0
  -22.8217  -10.3603   20.8561 C   0  0  0  0  0  0  0  0  0  0  0  0
  -30.4387  -19.5320   19.3289 C   0  0  0  0  0  0  0  0  0  0  0  0
  -25.1495  -32.6322   27.6700 C   0  0  0  0  0  0  0  0  0  0  0  0
  -26.2640  -30.9428   25.7594 C   0  0  0  0  0  0  0  0  0  0  0  0
  -26.3666  -28.6468   20.0829 C   0  0  0  0  0  0  0  0  0  0  0  0
  -29.6235  -20.6631   19.2864 C   0  0  0  0  0  0  0  0  0  0  0  0
  -21.8021  -10.6590   18.2765 C   0  0  0  0  0  0  0  0  0  0  0  0
  -21.8003   -9.5223   20.4085 C   0  0  0  0  0  0  0  0  0  0  0  0
  -27.0390  -27.5619   19.5219 C   0  0  0  0  0  0  0  0  0  0  0  0
  -21.5031   -6.7873   18.4433 C   0  0  0  0  0  0  0  0  0  0  0  0
  -21.6236   -5.4224   18.7040 C   0  0  0  0  0  0  0  0  0  0  0  0
  -28.5989  -18.2392   20.2125 C   0  0  0  0  0  0  0  0  0  0  0  0
  -25.0821  -26.1891   19.8463 C   0  0  0  0  0  0  0  0  0  0  0  0
  -19.5627   -5.4810   19.9634 C   0  0  0  0  0  0  0  0  0  0  0  0
  -23.3333  -11.3476   20.0139 C   0  0  0  0  0  0  0  0  0  0  0  0
  -29.9264  -18.3200   19.7919 C   0  0  0  0  0  0  0  0  0  0  0  0
  -24.2474  -13.4484   21.1357 C   0  0  0  0  0  0  0  0  0  0  0  0
  -24.4001  -31.5460   27.1912 C   0  0  0  0  0  0  0  0  0  0  0  0
  -25.0484  -28.5079   20.5405 C   0  0  0  0  0  0  0  0  0  0  0  0
  -24.9662  -30.6843   26.2323 C   0  0  0  0  0  0  0  0  0  0  0  0
  -24.3944  -27.2744   20.4104 C   0  0  0  0  0  0  0  0  0  0  0  0
  -28.2960  -20.5822   19.7071 C   0  0  0  0  0  0  0  0  0  0  0  0
  -27.7837  -19.3702   20.1701 C   0  0  0  0  0  0  0  0  0  0  0  0
  -21.2906   -9.6717   19.1187 C   0  0  0  0  0  0  0  0  0  0  0  0
  -26.3977  -26.3320   19.4062 C   0  0  0  0  0  0  0  0  0  0  0  0
  -20.4124   -7.4991   18.9427 C   0  0  0  0  0  0  0  0  0  0  0  0
  -20.6534   -4.7692   19.4640 C   0  0  0  0  0  0  0  0  0  0  0  0
  -19.4422   -6.8459   19.7027 C   0  0  0  0  0  0  0  0  0  0  0  0
  -24.3887  -12.2125   20.4767 C   0  0  0  0  0  0  0  0  0  0  0  0
  -25.5362  -13.8667   21.3608 C   0  0  0  0  0  0  0  0  0  0  0  0
  -30.7950  -17.1157   19.8366 C   0  0  0  0  0  0  0  0  0  0  0  0
  -23.0577  -14.1550   21.5110 C   0  0  0  0  0  0  0  0  0  0  0  0
  -23.6116  -28.7931   23.3615 C   0  0  0  0  0  0  0  0  0  0  0  0
  -20.9236  -28.3557   21.5991 C   0  0  0  0  0  0  0  0  0  0  0  0
  -27.8544  -23.0111   19.2177 C   0  0  0  0  0  0  0  0  0  0  0  0
  -19.4911  -27.1236   18.7572 C   0  0  0  0  0  0  0  0  0  0  0  0
  -30.7672  -14.6446   19.7088 C   0  0  0  0  0  0  0  0  0  0  0  0
  -23.0310  -31.2962   27.7723 C   0  0  0  0  0  0  0  0  0  0  0  0
  -24.3279  -29.6948   21.1188 C   0  0  0  0  0  0  0  0  0  0  0  0
  -22.9728  -27.0785   20.8678 C   0  0  0  0  0  0  0  0  0  0  0  0
  -22.1814  -30.3391   26.9401 C   0  0  0  0  0  0  0  0  0  0  0  0
  -29.9358  -11.4075   20.8610 C   0  0  0  0  0  0  0  0  0  0  0  0
  -22.9958  -29.1130   26.5396 C   0  0  0  0  0  0  0  0  0  0  0  0
  -28.4062  -11.4294   20.9267 C   0  0  0  0  0  0  0  0  0  0  0  0
  -30.4631  -12.1848   19.6557 C   0  0  0  0  0  0  0  0  0  0  0  0
  -28.4340  -13.5765   19.5950 C   0  0  0  0  0  0  0  0  0  0  0  0
  -24.1968  -29.5078   25.6718 C   0  0  1  0  0  0  0  0  0  0  0  0
  -23.1621  -29.3043   22.0220 C   0  0  1  0  0  0  0  0  0  0  0  0
  -27.8564  -12.8668   20.8302 C   0  0  1  0  0  0  0  0  0  0  0  0
  -17.2691  -26.8828   17.6161 C   0  0  0  0  0  0  0  0  0  0  0  0
  -20.1925  -26.0889   23.5062 C   0  0  0  0  0  0  0  0  0  0  0  0
  -18.5268  -25.2957   21.8138 C   0  0  0  0  0  0  0  0  0  0  0  0
  -18.2768  -27.5538   22.8439 C   0  0  0  0  0  0  0  0  0  0  0  0
  -20.3790  -28.7297   16.4353 C   0  0  0  0  0  0  0  0  0  0  0  0
  -26.6854  -23.9727   19.3240 C   0  0  0  0  0  0  0  0  0  1  0  0
  -20.1181  -27.1579   21.1572 C   0  0  1  0  0  0  0  0  0  0  0  0
  -18.5150  -27.7408   17.7720 C   0  0  2  0  0  0  0  0  0  0  0  0
  -19.3060  -26.5269   22.3233 C   0  0  0  0  0  0  0  0  0  0  0  0
  -25.6663  -11.8682   20.2947 N   0  0  0  0  0  0  0  0  0  0  0  0
  -26.3397  -12.8940   20.8427 N   0  0  0  0  0  0  0  0  0  0  0  0
  -22.3129  -28.2674   21.4322 N   0  0  0  0  0  0  0  0  0  0  0  0
  -29.9033  -13.5375   19.6425 N   0  0  0  0  0  0  0  0  0  0  0  0
  -26.4420  -19.2647   20.6002 N   0  0  0  0  0  0  0  0  0  0  0  0
  -26.0491  -14.9681   21.9492 N   0  0  0  0  0  0  0  0  0  0  0  0
  -21.8157  -13.5827   21.2040 N   0  0  0  0  0  0  0  0  0  0  0  0
  -27.4876  -21.7424   19.6537 N   0  0  0  0  0  0  0  0  0  0  0  0
  -30.1333  -15.8918   19.7333 N   0  0  0  0  0  0  0  0  0  0  0  0
  -23.7724  -29.7800   24.3152 N   0  0  0  0  0  0  0  0  0  0  0  0
  -19.3015  -27.6067   20.0347 N   0  0  0  0  0  0  0  0  0  0  0  0
  -19.1539  -27.8892   16.4338 N   0  3  0  0  0  0  0  0  0  0  0  0
  -32.0118  -17.2587   19.9191 O   0  0  0  0  0  0  0  0  0  0  0  0
  -23.0949  -15.2690   22.0865 O   0  0  0  0  0  0  0  0  0  0  0  0
  -23.7972  -27.5920   23.5185 O   0  0  0  0  0  0  0  0  0  0  0  0
  -20.3410  -29.3366   22.0683 O   0  0  0  0  0  0  0  0  0  0  0  0
  -28.9476  -23.3729   18.7953 O   0  0  0  0  0  0  0  0  0  0  0  0
  -20.3347  -26.2929   18.4273 O   0  0  0  0  0  0  0  0  0  0  0  0
  -31.9951  -14.5318   19.7789 O   0  0  0  0  0  0  0  0  0  0  0  0
  -20.2938   -8.8540   18.6823 O   0  0  0  0  0  0  0  0  0  0  0  0
  -27.0519  -25.2713   18.8596 O   0  0  0  0  0  0  0  0  0  1  0  0
  -20.7685   -3.4581   19.7130 F   0  0  0  0  0  0  0  0  0  0  0  0
  -18.3915   -7.5243   20.1842 F   0  0  0  0  0  0  0  0  0  0  0  0
  1  2  1  0  0  0  0
  1  6  2  0  0  0  0
  2  7  2  0  0  0  0
  3 10  2  0  0  0  0
  3 18  1  0  0  0  0
  4 11  1  0  0  0  0
  4 18  2  0  0  0  0
  5  9  2  0  0  0  0
  5 19  1  0  0  0  0
  6 21  1  0  0  0  0
  7 23  1  0  0  0  0
  8 12  2  0  0  0  0
  8 22  1  0  0  0  0
  9 25  1  0  0  0  0
 10 27  1  0  0  0  0
 11 27  2  0  0  0  0
 12 28  1  0  0  0  0
 13 14  2  0  0  0  0
 13 29  1  0  0  0  0
 14 30  1  0  0  0  0
 15 19  2  0  0  0  0
 15 26  1  0  0  0  0
 16 24  1  0  0  0  0
 16 28  2  0  0  0  0
 17 30  2  0  0  0  0
 17 31  1  0  0  0  0
 18 32  1  0  0  0  0
 19 34  1  0  0  0  0
 20 32  1  0  0  0  0
 20 33  2  0  0  0  0
 20 35  1  0  0  0  0
 21 23  2  0  0  0  0
 21 41  1  0  0  0  0
 22 24  2  0  0  0  0
 22 42  1  0  0  0  0
 23 50  1  0  0  0  0
 24 43  1  0  0  0  0
 25 26  2  0  0  0  0
 25 69  1  0  0  0  0
 26 66  1  0  0  0  0
 27 81  1  0  0  0  0
 28 82  1  0  0  0  0
 29 31  2  0  0  0  0
 29 81  1  0  0  0  0
 30 83  1  0  0  0  0
 31 84  1  0  0  0  0
 32 62  2  0  0  0  0
 33 63  1  0  0  0  0
 33 67  1  0  0  0  0
 34 70  1  0  0  0  0
 34 74  2  0  0  0  0
 35 68  1  0  0  0  0
 35 75  2  0  0  0  0
 36 51  1  0  0  0  0
 36 71  1  0  0  0  0
 36 76  2  0  0  0  0
 37 59  1  0  0  0  0
 37 64  1  0  0  0  0
 37 77  2  0  0  0  0
 38 58  1  0  0  0  0
 38 69  1  0  0  0  0
 38 78  2  0  0  0  0
 39 60  1  0  0  0  0
 39 72  1  0  0  0  0
 39 79  2  0  0  0  0
 40 65  1  0  0  0  0
 40 70  1  0  0  0  0
 40 80  2  0  0  0  0
 41 44  1  0  0  0  0
 42 51  1  0  0  0  0
 43 64  1  0  0  0  0
 44 46  1  0  0  0  0
 45 47  1  0  0  0  0
 45 48  1  0  0  0  0
 46 50  1  0  0  0  0
 47 52  1  0  0  0  0
 48 65  1  0  0  0  0
 49 52  1  0  0  0  0
 49 65  1  0  0  0  0
 50 71  1  0  0  0  0
 51 64  1  0  0  0  0
 52 63  1  0  0  0  0
 53 60  1  0  0  0  0
 54 61  1  0  0  0  0
 55 61  1  0  0  0  0
 56 61  1  0  0  0  0
 57 73  1  0  0  0  0
 58 82  1  0  0  0  0
 59 61  1  0  0  0  0
 59 72  1  0  0  0  0
 60 73  1  0  0  0  0
 62 63  1  0  0  0  0
M  CHG  1  73   1
M  ISO  4  40 100  58 101  70 100  82 101
M  END
> <Batch ID>
0089

> <Smiles>
CNC(C)C(=O)NC(C(=O)N1Cc2cc([101O:1][101CH2:1]C(=O)Nc3ccc(C(=O)[100NH:0][100C:0](=O)N4CCCC(n5nc(-c6ccc(Oc7ccc(F)cc7F)cc6)c(C(N)=O)c5N)C4)cc3N)ccc2CC1C(=O)NC1CCCc2ccccc21)C(C)(C)C

> <Shape>
0.296

> <Color>
0.097

> <Negative vol penalty>
0.000

$$$$

  -OEChem-04052300263D

 85 93  0     1  0  0  0  0  0999 V2000
  -20.0953  -12.9986   20.7008 C   0  0  0  0  0  0  0  0  0  0  0  0
  -20.5594  -13.9055   19.7534 C   0  0  0  0  0  0  0  0  0  0  0  0
  -23.3077  -24.4838   20.9680 C   0  0  0  0  0  0  0  0  0  0  0  0
  -23.5871  -24.5238   23.3675 C   0  0  0  0  0  0  0  0  0  0  0  0
  -20.8046  -12.8057   21.8855 C   0  0  0  0  0  0  0  0  0  0  0  0
  -21.7327  -14.6208   19.9907 C   0  0  0  0  0  0  0  0  0  0  0  0
  -27.3521  -17.4292   16.5482 C   0  0  0  0  0  0  0  0  0  0  0  0
  -23.6766  -23.1388   20.9475 C   0  0  0  0  0  0  0  0  0  0  0  0
  -23.9560  -23.1788   23.3469 C   0  0  0  0  0  0  0  0  0  0  0  0
  -28.0461  -18.6317   16.4207 C   0  0  0  0  0  0  0  0  0  0  0  0
  -24.1958  -19.5986   20.3054 C   0  0  0  0  0  0  0  0  0  0  0  0
  -23.4313  -18.7282   19.5286 C   0  0  0  0  0  0  0  0  0  0  0  0
  -29.2308  -18.1580   18.4680 C   0  0  0  0  0  0  0  0  0  0  0  0
  -29.6030  -25.2552   19.1612 C   0  0  0  0  0  0  0  0  0  0  0  0
  -29.4265  -27.1156   17.6300 C   0  0  0  0  0  0  0  0  0  0  0  0
  -28.8625  -24.8854   16.8914 C   0  0  0  0  0  0  0  0  0  0  0  0
  -21.4756  -19.2796   20.8357 C   0  0  0  0  0  0  0  0  0  0  0  0
  -23.2630  -25.1764   22.1780 C   0  0  0  0  0  0  0  0  0  0  0  0
  -21.5835  -27.0895   22.3425 C   0  0  0  0  0  0  0  0  0  0  0  0
  -21.9923  -13.5118   22.1332 C   0  0  0  0  0  0  0  0  0  0  0  0
  -27.5848  -16.5859   17.6441 C   0  0  0  0  0  0  0  0  0  0  0  0
  -22.4578  -14.4381   21.1804 C   0  0  0  0  0  0  0  0  0  0  0  0
  -28.5403  -16.9442   18.6057 C   0  0  0  0  0  0  0  0  0  0  0  0
  -29.7322  -26.6186   18.8970 C   0  0  0  0  0  0  0  0  0  0  0  0
  -29.1682  -24.3885   18.1584 C   0  0  0  0  0  0  0  0  0  0  0  0
  -28.9916  -26.2489   16.6272 C   0  0  0  0  0  0  0  0  0  0  0  0
  -24.0008  -22.4863   22.1369 C   0  0  0  0  0  0  0  0  0  0  0  0
  -28.9835  -18.9976   17.3822 C   0  0  0  0  0  0  0  0  0  0  0  0
  -23.6003  -20.3094   21.3475 C   0  0  0  0  0  0  0  0  0  0  0  0
  -22.0712  -18.5687   19.7937 C   0  0  0  0  0  0  0  0  0  0  0  0
  -22.2402  -20.1499   21.6125 C   0  0  0  0  0  0  0  0  0  0  0  0
  -22.8825  -26.5659   22.1998 C   0  0  0  0  0  0  0  0  0  0  0  0
  -21.7558  -28.4515   22.3006 C   0  0  0  0  0  0  0  0  0  0  0  0
  -30.0892  -22.2967   18.1991 C   0  0  0  0  0  0  0  0  0  0  0  0
  -20.3330  -26.4058   22.4991 C   0  0  0  0  0  0  0  0  0  0  0  0
  -25.8139  -15.4854   20.0434 C   0  0  0  0  0  0  0  0  0  0  0  0
  -28.4685  -13.7352   20.6856 C   0  0  0  0  0  0  0  0  0  0  0  0
  -29.2813  -27.5131   21.1947 C   0  0  0  0  0  0  0  0  0  0  0  0
  -31.8510  -13.3886   20.3932 C   0  0  0  0  0  0  0  0  0  0  0  0
  -27.2212  -28.6142   22.0401 C   0  0  0  0  0  0  0  0  0  0  0  0
  -22.6992  -13.3044   23.4492 C   0  0  0  0  0  0  0  0  0  0  0  0
  -26.8472  -15.2795   17.7530 C   0  0  0  0  0  0  0  0  0  0  0  0
  -28.8416  -16.0644   19.7904 C   0  0  0  0  0  0  0  0  0  0  0  0
  -24.1338  -13.8261   23.4589 C   0  0  0  0  0  0  0  0  0  0  0  0
  -25.0964  -31.2955   20.2808 C   0  0  0  0  0  0  0  0  0  0  0  0
  -24.1971  -15.2251   22.8541 C   0  0  0  0  0  0  0  0  0  0  0  0
  -23.8240  -30.5148   20.5869 C   0  0  0  0  0  0  0  0  0  0  0  0
  -26.3224  -30.4078   20.4771 C   0  0  0  0  0  0  0  0  0  0  0  0
  -25.2233  -29.9433   22.6702 C   0  0  0  0  0  0  0  0  0  0  0  0
  -23.7396  -15.2146   21.3905 C   0  0  1  0  0  0  0  0  0  0  0  0
  -26.7925  -14.7413   19.1795 C   0  0  1  0  0  0  0  0  0  0  0  0
  -23.8182  -29.9854   22.0355 C   0  0  2  0  0  0  0  0  0  0  0  0
  -33.7405  -11.8752   21.0541 C   0  0  0  0  0  0  0  0  0  0  0  0
  -28.3608  -14.8451   23.5258 C   0  0  0  0  0  0  0  0  0  0  0  0
  -30.7264  -14.0867   23.8373 C   0  0  0  0  0  0  0  0  0  0  0  0
  -28.9330  -12.4151   23.3763 C   0  0  0  0  0  0  0  0  0  0  0  0
  -32.5387  -12.8231   17.5708 C   0  0  0  0  0  0  0  0  0  0  0  0
  -30.0731  -20.8193   18.4547 C   0  0  0  0  0  0  0  0  0  1  0  0
  -30.2039  -27.5577   19.9849 C   0  0  1  0  0  0  0  0  0  0  0  0
  -29.7105  -13.9431   21.5181 C   0  0  1  0  0  0  0  0  0  0  0  0
  -32.7108  -12.2060   19.9850 C   0  0  2  0  0  0  0  0  0  0  0  0
  -29.4258  -13.8402   23.0432 C   0  0  0  0  0  0  0  0  0  0  0  0
  -23.8113  -27.5177   22.0763 N   0  0  0  0  0  0  0  0  0  0  0  0
  -29.0388  -23.0215   18.4236 N   0  0  0  0  0  0  0  0  0  0  0  0
  -23.0952  -28.6531   22.1412 N   0  0  0  0  0  0  0  0  0  0  0  0
  -28.0899  -14.8002   19.8559 N   0  0  0  0  0  0  0  0  0  0  0  0
  -26.2776  -29.6096   21.7104 N   0  0  0  0  0  0  0  0  0  0  0  0
  -28.6828  -26.7513   15.3460 N   0  0  0  0  0  0  0  0  0  0  0  0
  -20.8906  -29.4844   22.3849 N   0  0  0  0  0  0  0  0  0  0  0  0
  -20.3359  -25.0044   22.5214 N   0  0  0  0  0  0  0  0  0  0  0  0
  -24.7890  -14.7007   20.5367 N   0  0  0  0  0  0  0  0  0  0  0  0
  -28.2349  -28.4344   21.0890 N   0  0  0  0  0  0  0  0  0  0  0  0
  -30.6955  -12.9849   21.0281 N   0  0  0  0  0  0  0  0  0  0  0  0
  -31.6134  -27.2869   20.4122 N   0  3  0  0  0  0  0  0  0  0  0  0
  -33.4311  -12.5033   18.7146 N   0  3  0  0  0  0  0  0  0  0  0  0
  -19.2434  -27.0191   22.5993 O   0  0  0  0  0  0  0  0  0  0  0  0
  -25.9774  -16.6824   20.2485 O   0  0  0  0  0  0  0  0  0  0  0  0
  -27.8607  -12.6646   20.7631 O   0  0  0  0  0  0  0  0  0  0  0  0
  -29.4547  -26.7378   22.1324 O   0  0  0  0  0  0  0  0  0  0  0  0
  -32.1740  -14.5540   20.1743 O   0  0  0  0  0  0  0  0  0  0  0  0
  -27.1672  -27.9536   23.0813 O   0  0  0  0  0  0  0  0  0  0  0  0
  -24.3606  -21.1738   22.1173 O   0  0  0  0  0  0  0  0  0  0  0  0
  -29.6685  -20.1826   17.2594 O   0  0  0  0  0  0  0  0  0  1  0  0
  -21.3367  -17.7340   19.0467 F   0  0  0  0  0  0  0  0  0  0  0  0
  -21.6623  -20.8311   22.6115 F   0  0  0  0  0  0  0  0  0  0  0  0
  1  2  1  0  0  0  0
  1  5  2  0  0  0  0
  2  6  2  0  0  0  0
  3  8  2  0  0  0  0
  3 18  1  0  0  0  0
  4  9  1  0  0  0  0
  4 18  2  0  0  0  0
  5 20  1  0  0  0  0
  6 22  1  0  0  0  0
  7 10  2  0  0  0  0
  7 21  1  0  0  0  0
  8 27  1  0  0  0  0
  9 27  2  0  0  0  0
 10 28  1  0  0  0  0
 11 12  2  0  0  0  0
 11 29  1  0  0  0  0
 12 30  1  0  0  0  0
 13 23  1  0  0  0  0
 13 28  2  0  0  0  0
 14 24  1  0  0  0  0
 14 25  2  0  0  0  0
 15 24  2  0  0  0  0
 15 26  1  0  0  0  0
 16 25  1  0  0  0  0
 16 26  2  0  0  0  0
 17 30  2  0  0  0  0
 17 31  1  0  0  0  0
 18 32  1  0  0  0  0
 19 32  1  0  0  0  0
 19 33  2  0  0  0  0
 19 35  1  0  0  0  0
 20 22  2  0  0  0  0
 20 41  1  0  0  0  0
 21 23  2  0  0  0  0
 21 42  1  0  0  0  0
 22 50  1  0  0  0  0
 23 43  1  0  0  0  0
 24 59  1  0  0  0  0
 25 64  1  0  0  0  0
 26 68  1  0  0  0  0
 27 82  1  0  0  0  0
 28 83  1  0  0  0  0
 29 31  2  0  0  0  0
 29 82  1  0  0  0  0
 30 84  1  0  0  0  0
 31 85  1  0  0  0  0
 32 63  2  0  0  0  0
 33 65  1  0  0  0  0
 33 69  1  0  0  0  0
 34 58  1  0  0  0  0
 34 64  2  0  0  0  0
 35 70  1  0  0  0  0
 35 76  2  0  0  0  0
 36 51  1  0  0  0  0
 36 71  1  0  0  0  0
 36 77  2  0  0  0  0
 37 60  1  0  0  0  0
 37 66  1  0  0  0  0
 37 78  2  0  0  0  0
 38 59  1  0  0  0  0
 38 72  1  0  0  0  0
 38 79  2  0  0  0  0
 39 61  1  0  0  0  0
 39 73  1  0  0  0  0
 39 80  2  0  0  0  0
 40 67  1  0  0  0  0
 40 72  1  0  0  0  0
 40 81  2  0  0  0  0
 41 44  1  0  0  0  0
 42 51  1  0  0  0  0
 43 66  1  0  0  0  0
 44 46  1  0  0  0  0
 45 47  1  0  0  0  0
 45 48  1  0  0  0  0
 46 50  1  0  0  0  0
 47 52  1  0  0  0  0
 48 67  1  0  0  0  0
 49 52  1  0  0  0  0
 49 67  1  0  0  0  0
 50 71  1  0  0  0  0
 51 66  1  0  0  0  0
 52 65  1  0  0  0  0
 53 61  1  0  0  0  0
 54 62  1  0  0  0  0
 55 62  1  0  0  0  0
 56 62  1  0  0  0  0
 57 75  1  0  0  0  0
 58 83  1  0  0  0  0
 59 74  1  0  0  0  0
 60 62  1  0  0  0  0
 60 73  1  0  0  0  0
 61 75  1  0  0  0  0
 63 65  1  0  0  0  0
M  CHG  2  74   1  75   1
M  ISO  4  40 100  58 101  72 100  83 101
M  END
> <Batch ID>
0089

> <Smiles>
CNC(C)C(=O)NC(C(=O)N1Cc2cc([101O:1][101CH:1]=CNc3cc(N)cc(C(N)C(=O)[100NH:0][100C:0](=O)N4CCCC(n5nc(-c6ccc(Oc7ccc(F)cc7F)cc6)c(C(N)=O)c5N)C4)c3)ccc2CC1C(=O)NC1CCCc2ccccc21)C(C)(C)C

> <Shape>
0.226

> <Color>
0.069

> <Negative vol penalty>
0.000

$$$$

  -OEChem-04052300263D

 85 93  0     1  0  0  0  0  0999 V2000
  -18.2280  -29.5950   25.9383 C   0  0  0  0  0  0  0  0  0  0  0  0
  -19.5723  -29.2840   26.1159 C   0  0  0  0  0  0  0  0  0  0  0  0
  -24.5311   -9.7386   21.4815 C   0  0  0  0  0  0  0  0  0  0  0  0
  -24.8913  -10.8247   23.6094 C   0  0  0  0  0  0  0  0  0  0  0  0
  -17.6213  -29.3797   24.7016 C   0  0  0  0  0  0  0  0  0  0  0  0
  -20.3105  -28.7565   25.0570 C   0  0  0  0  0  0  0  0  0  0  0  0
  -26.2247  -29.7663   23.8289 C   0  0  0  0  0  0  0  0  0  0  0  0
  -30.0978  -21.1830   21.9262 C   0  0  0  0  0  0  0  0  0  0  0  0
  -30.0047  -19.8885   21.4152 C   0  0  0  0  0  0  0  0  0  0  0  0
  -24.2237   -8.5485   22.1409 C   0  0  0  0  0  0  0  0  0  0  0  0
  -24.5838   -9.6346   24.2688 C   0  0  0  0  0  0  0  0  0  0  0  0
  -27.3773  -29.0285   24.0953 C   0  0  0  0  0  0  0  0  0  0  0  0
  -22.9927   -5.3212   23.2742 C   0  0  0  0  0  0  0  0  0  0  0  0
  -21.8788   -4.6057   22.8353 C   0  0  0  0  0  0  0  0  0  0  0  0
  -27.2689  -28.0720   21.8834 C   0  0  0  0  0  0  0  0  0  0  0  0
  -20.4650   -6.5000   23.3351 C   0  0  0  0  0  0  0  0  0  0  0  0
  -24.8650  -10.8766   22.2157 C   0  0  0  0  0  0  0  0  0  0  0  0
  -24.2894  -13.1287   21.1647 C   0  0  0  0  0  0  0  0  0  0  0  0
  -18.3549  -28.8584   23.6242 C   0  0  0  0  0  0  0  0  0  0  0  0
  -25.5783  -29.6541   22.5896 C   0  0  0  0  0  0  0  0  0  0  0  0
  -19.7127  -28.5328   23.8050 C   0  0  0  0  0  0  0  0  0  0  0  0
  -26.1097  -28.8114   21.6029 C   0  0  0  0  0  0  0  0  0  0  0  0
  -28.9424  -21.8722   22.2947 C   0  0  0  0  0  0  0  0  0  0  0  0
  -28.7562  -19.2831   21.2726 C   0  0  0  0  0  0  0  0  0  0  0  0
  -27.6939  -21.2668   22.1521 C   0  0  0  0  0  0  0  0  0  0  0  0
  -24.2500   -8.4965   23.5346 C   0  0  0  0  0  0  0  0  0  0  0  0
  -27.8979  -28.1790   23.1235 C   0  0  0  0  0  0  0  0  0  0  0  0
  -22.8428   -6.6262   23.7437 C   0  0  0  0  0  0  0  0  0  0  0  0
  -20.6149   -5.1950   22.8657 C   0  0  0  0  0  0  0  0  0  0  0  0
  -21.5789   -7.2155   23.7741 C   0  0  0  0  0  0  0  0  0  0  0  0
  -27.6007  -19.9723   21.6410 C   0  0  0  0  0  0  0  0  0  0  0  0
  -25.1832  -12.1061   21.5351 C   0  0  0  0  0  0  0  0  0  0  0  0
  -25.0796  -14.0699   20.5514 C   0  0  0  0  0  0  0  0  0  0  0  0
  -22.8716  -13.2196   21.3577 C   0  0  0  0  0  0  0  0  0  0  0  0
  -29.9694  -25.2604   23.5694 C   0  0  0  0  0  0  0  0  0  0  0  0
  -30.2277  -23.8947   23.0018 C   0  0  0  0  0  0  0  0  0  0  0  0
  -22.7020  -28.6914   21.6389 C   0  0  0  0  0  0  0  0  0  0  0  0
  -23.7384  -29.7327   18.7469 C   0  0  0  0  0  0  0  0  0  0  0  0
  -26.3730  -30.4408   16.6963 C   0  0  0  0  0  0  0  0  0  0  0  0
  -29.7144  -17.1484   20.3394 C   0  0  0  0  0  0  0  0  0  0  0  0
  -17.6438  -28.5988   22.3197 C   0  0  0  0  0  0  0  0  0  0  0  0
  -24.3511  -30.4770   22.3083 C   0  0  0  0  0  0  0  0  0  0  0  0
  -25.4650  -28.6706   20.2490 C   0  0  0  0  0  0  0  0  0  0  0  0
  -18.5909  -28.3870   21.1414 C   0  0  0  0  0  0  0  0  0  0  0  0
  -29.9043  -13.8398   19.0376 C   0  0  0  0  0  0  0  0  0  0  0  0
  -19.7092  -27.4220   21.5221 C   0  0  0  0  0  0  0  0  0  0  0  0
  -28.6194  -13.1779   19.5408 C   0  0  0  0  0  0  0  0  0  0  0  0
  -30.4883  -14.8024   20.0701 C   0  0  0  0  0  0  0  0  0  0  0  0
  -28.2674  -15.1538   21.0767 C   0  0  0  0  0  0  0  0  0  0  0  0
  -20.5531  -27.9822   22.6734 C   0  0  1  0  0  0  0  0  0  0  0  0
  -23.4839  -29.8956   21.1960 C   0  0  1  0  0  0  0  0  0  0  0  0
  -27.6067  -14.2245   20.0455 C   0  0  2  0  0  0  0  0  0  0  0  0
  -26.9054  -31.2386   14.3774 C   0  0  0  0  0  0  0  0  0  0  0  0
  -23.0142  -26.9841   17.6375 C   0  0  0  0  0  0  0  0  0  0  0  0
  -24.4112  -27.5048   15.6262 C   0  0  0  0  0  0  0  0  0  0  0  0
  -22.4116  -28.9015   16.1494 C   0  0  0  0  0  0  0  0  0  0  0  0
  -27.7987  -32.8242   17.7187 C   0  0  0  0  0  0  0  0  0  0  0  0
  -29.1521  -26.1989   22.7205 C   0  0  0  0  0  0  0  0  0  1  0  0
  -24.4796  -29.1092   17.5889 C   0  0  1  0  0  0  0  0  0  0  0  0
  -26.6752  -31.6461   15.8244 C   0  0  2  0  0  0  0  0  0  0  0  0
  -23.5905  -28.1259   16.7766 C   0  0  0  0  0  0  0  0  0  0  0  0
  -26.4447  -12.3725   21.1861 N   0  0  0  0  0  0  0  0  0  0  0  0
  -26.3492  -13.5731   20.5900 N   0  0  0  0  0  0  0  0  0  0  0  0
  -24.2635  -29.4912   20.0243 N   0  0  0  0  0  0  0  0  0  0  0  0
  -29.4734  -15.7673   20.4988 N   0  0  0  0  0  0  0  0  0  0  0  0
  -26.5122  -21.9496   22.5185 N   0  0  0  0  0  0  0  0  0  0  0  0
  -24.8053  -15.2658   19.9883 N   0  0  0  0  0  0  0  0  0  0  0  0
  -22.2166  -12.1640   22.0065 N   0  0  0  0  0  0  0  0  0  0  0  0
  -29.0627  -23.1837   22.8103 N   0  0  0  0  0  0  0  0  0  0  0  0
  -28.6648  -17.9682   20.7525 N   0  0  0  0  0  0  0  0  0  0  0  0
  -21.4684  -28.9911   22.1847 N   0  0  0  0  0  0  0  0  0  0  0  0
  -25.0169  -30.2159   16.8047 N   0  0  0  0  0  0  0  0  0  0  0  0
  -27.8951  -32.3475   16.3150 N   0  3  0  0  0  0  0  0  0  0  0  0
  -22.2029  -14.2002   20.9519 O   0  0  0  0  0  0  0  0  0  0  0  0
  -30.4525  -25.5196   24.6612 O   0  0  0  0  0  0  0  0  0  0  0  0
  -31.3947  -23.5924   22.8151 O   0  0  0  0  0  0  0  0  0  0  0  0
  -23.1818  -27.5730   21.4948 O   0  0  0  0  0  0  0  0  0  0  0  0
  -22.7348  -30.4148   18.5256 O   0  0  0  0  0  0  0  0  0  0  0  0
  -27.2521  -29.7640   17.2251 O   0  0  0  0  0  0  0  0  0  0  0  0
  -30.7629  -17.5714   19.8457 O   0  0  0  0  0  0  0  0  0  0  0  0
  -23.9498   -7.3355   24.1784 O   0  0  0  0  0  0  0  0  0  0  0  0
  -29.0224  -27.4572   23.3811 O   0  0  0  0  0  0  0  0  0  1  0  0
  -19.5455   -4.5083   22.4427 F   0  0  0  0  0  0  0  0  0  0  0  0
  -21.4288   -8.4692   24.2230 F   0  0  0  0  0  0  0  0  0  0  0  0
  -26.3997  -19.3898   21.5022 F   0  0  0  0  0  0  0  0  0  0  0  0
  1  2  1  0  0  0  0
  1  5  2  0  0  0  0
  2  6  2  0  0  0  0
  3 10  2  0  0  0  0
  3 17  1  0  0  0  0
  4 11  1  0  0  0  0
  4 17  2  0  0  0  0
  5 19  1  0  0  0  0
  6 21  1  0  0  0  0
  7 12  2  0  0  0  0
  7 20  1  0  0  0  0
  8  9  2  0  0  0  0
  8 23  1  0  0  0  0
  9 24  1  0  0  0  0
 10 26  1  0  0  0  0
 11 26  2  0  0  0  0
 12 27  1  0  0  0  0
 13 14  2  0  0  0  0
 13 28  1  0  0  0  0
 14 29  1  0  0  0  0
 15 22  1  0  0  0  0
 15 27  2  0  0  0  0
 16 29  2  0  0  0  0
 16 30  1  0  0  0  0
 17 32  1  0  0  0  0
 18 32  1  0  0  0  0
 18 33  2  0  0  0  0
 18 34  1  0  0  0  0
 19 21  2  0  0  0  0
 19 41  1  0  0  0  0
 20 22  2  0  0  0  0
 20 42  1  0  0  0  0
 21 50  1  0  0  0  0
 22 43  1  0  0  0  0
 23 25  2  0  0  0  0
 23 69  1  0  0  0  0
 24 31  2  0  0  0  0
 24 70  1  0  0  0  0
 25 31  1  0  0  0  0
 25 66  1  0  0  0  0
 26 81  1  0  0  0  0
 27 82  1  0  0  0  0
 28 30  2  0  0  0  0
 28 81  1  0  0  0  0
 29 83  1  0  0  0  0
 30 84  1  0  0  0  0
 31 85  1  0  0  0  0
 32 62  2  0  0  0  0
 33 63  1  0  0  0  0
 33 67  1  0  0  0  0
 34 68  1  0  0  0  0
 34 74  2  0  0  0  0
 35 36  1  0  0  0  0
 35 58  1  0  0  0  0
 35 75  2  0  0  0  0
 36 69  1  0  0  0  0
 36 76  2  0  0  0  0
 37 51  1  0  0  0  0
 37 71  1  0  0  0  0
 37 77  2  0  0  0  0
 38 59  1  0  0  0  0
 38 64  1  0  0  0  0
 38 78  2  0  0  0  0
 39 60  1  0  0  0  0
 39 72  1  0  0  0  0
 39 79  2  0  0  0  0
 40 65  1  0  0  0  0
 40 70  1  0  0  0  0
 40 80  2  0  0  0  0
 41 44  1  0  0  0  0
 42 51  1  0  0  0  0
 43 64  1  0  0  0  0
 44 46  1  0  0  0  0
 45 47  1  0  0  0  0
 45 48  1  0  0  0  0
 46 50  1  0  0  0  0
 47 52  1  0  0  0  0
 48 65  1  0  0  0  0
 49 52  1  0  0  0  0
 49 65  1  0  0  0  0
 50 71  1  0  0  0  0
 51 64  1  0  0  0  0
 52 63  1  0  0  0  0
 53 60  1  0  0  0  0
 54 61  1  0  0  0  0
 55 61  1  0  0  0  0
 56 61  1  0  0  0  0
 57 73  1  0  0  0  0
 58 82  1  0  0  0  0
 59 61  1  0  0  0  0
 59 72  1  0  0  0  0
 60 73  1  0  0  0  0
 62 63  1  0  0  0  0
M  CHG  1  73   1
M  ISO  4  40 100  58 101  70 100  82 101
M  END
> <Batch ID>
0089

> <Smiles>
CNC(C)C(=O)NC(C(=O)N1Cc2cc([101O:1][101CH2:1]C(=O)C(=O)Nc3ccc([100NH:0][100C:0](=O)N4CCCC(n5nc(-c6ccc(Oc7ccc(F)cc7F)cc6)c(C(N)=O)c5N)C4)c(F)c3N)ccc2CC1C(=O)NC1CCCc2ccccc21)C(C)(C)C

> <Shape>
0.271

> <Color>
0.138

> <Negative vol penalty>
0.000

$$$$

  -OEChem-04052300263D

 85 94  0     1  0  0  0  0  0999 V2000
  -27.2374  -37.6215   21.1659 C   0  0  0  0  0  0  0  0  0  0  0  0
  -27.7981  -36.3905   20.8408 C   0  0  0  0  0  0  0  0  0  0  0  0
  -26.2982  -11.7086   21.0666 C   0  0  0  0  0  0  0  0  0  0  0  0
  -25.6113  -13.8356   20.1494 C   0  0  0  0  0  0  0  0  0  0  0  0
  -26.2326  -37.6958   22.1297 C   0  0  0  0  0  0  0  0  0  0  0  0
  -27.3552  -35.2332   21.4801 C   0  0  0  0  0  0  0  0  0  0  0  0
  -26.8813  -29.6339   19.0452 C   0  0  0  0  0  0  0  0  0  0  0  0
  -30.6942  -21.4208   19.4830 C   0  0  0  0  0  0  0  0  0  0  0  0
  -32.5421  -21.4912   21.0378 C   0  0  0  0  0  0  0  0  0  0  0  0
  -30.8232  -20.0349   19.3924 C   0  0  0  0  0  0  0  0  0  0  0  0
  -32.6711  -20.1052   20.9472 C   0  0  0  0  0  0  0  0  0  0  0  0
  -25.0607  -11.5810   21.6973 C   0  0  0  0  0  0  0  0  0  0  0  0
  -24.3738  -13.7080   20.7802 C   0  0  0  0  0  0  0  0  0  0  0  0
  -27.7126  -28.5157   19.0955 C   0  0  0  0  0  0  0  0  0  0  0  0
  -21.9086  -10.7041   20.8440 C   0  0  0  0  0  0  0  0  0  0  0  0
  -21.2634   -9.4701   20.7620 C   0  0  0  0  0  0  0  0  0  0  0  0
  -26.4062  -27.6341   20.9217 C   0  0  0  0  0  0  0  0  0  0  0  0
  -21.3028   -9.2894   23.1709 C   0  0  0  0  0  0  0  0  0  0  0  0
  -26.5735  -12.8360   20.2926 C   0  0  0  0  0  0  0  0  0  0  0  0
  -28.1988  -12.5247   18.3512 C   0  0  0  0  0  0  0  0  0  0  0  0
  -25.7704  -36.5375   22.7742 C   0  0  0  0  0  0  0  0  0  0  0  0
  -25.8110  -29.7659   19.9415 C   0  0  0  0  0  0  0  0  0  0  0  0
  -26.3442  -35.2922   22.4544 C   0  0  0  0  0  0  0  0  0  0  0  0
  -25.5612  -28.7536   20.8790 C   0  0  0  0  0  0  0  0  0  0  0  0
  -31.5537  -22.1490   20.3056 C   0  0  0  0  0  0  0  0  0  0  0  0
  -31.8116  -19.3771   20.1245 C   0  0  0  0  0  0  0  0  0  0  0  0
  -24.0984  -12.5806   21.5541 C   0  0  0  0  0  0  0  0  0  0  0  0
  -27.4769  -27.5170   20.0357 C   0  0  0  0  0  0  0  0  0  0  0  0
  -22.2509  -11.2307   22.0895 C   0  0  0  0  0  0  0  0  0  0  0  0
  -20.9605   -8.7628   21.9254 C   0  0  0  0  0  0  0  0  0  0  0  0
  -21.9480  -10.5234   23.2529 C   0  0  0  0  0  0  0  0  0  0  0  0
  -27.8519  -12.9687   19.6413 C   0  0  0  0  0  0  0  0  0  0  0  0
  -29.5154  -12.8880   18.2056 C   0  0  0  0  0  0  0  0  0  0  0  0
  -30.5007  -25.6261   20.4062 C   0  0  0  0  0  0  0  0  0  0  0  0
  -31.9384  -25.7795   20.6680 C   0  0  0  0  0  0  0  0  0  0  0  0
  -30.1865  -24.1931   20.2354 C   0  0  0  0  0  0  0  0  0  0  0  0
  -29.6169  -26.6214   20.3340 C   0  0  0  0  0  0  0  0  0  1  0  0
  -27.4022  -11.8448   17.3720 C   0  0  0  0  0  0  0  0  0  0  0  0
  -25.0331  -31.8459   22.2156 C   0  0  0  0  0  0  0  0  0  0  0  0
  -22.2894  -30.1183   22.3147 C   0  0  0  0  0  0  0  0  0  0  0  0
  -20.7080  -27.1553   21.7091 C   0  0  0  0  0  0  0  0  0  0  0  0
  -32.8697  -17.1625   20.6921 C   0  0  0  0  0  0  0  0  0  0  0  0
  -24.7153  -36.6737   23.8433 C   0  0  0  0  0  0  0  0  0  0  0  0
  -24.9074  -30.9654   19.8567 C   0  0  0  0  0  0  0  0  0  0  0  0
  -24.4131  -28.8379   21.8502 C   0  0  0  0  0  0  0  0  0  0  0  0
  -32.5721  -24.4197   20.6662 C   0  0  0  0  0  0  0  0  0  0  0  0
  -24.0406  -35.3530   24.2049 C   0  0  0  0  0  0  0  0  0  0  0  0
  -33.4924  -13.6575   20.7601 C   0  0  0  0  0  0  0  0  0  0  0  0
  -25.0831  -34.2566   24.3993 C   0  0  0  0  0  0  0  0  0  0  0  0
  -32.1499  -13.0429   20.3576 C   0  0  0  0  0  0  0  0  0  0  0  0
  -33.3093  -14.9023   21.6266 C   0  0  0  0  0  0  0  0  0  0  0  0
  -31.0819  -15.3137   20.6577 C   0  0  0  0  0  0  0  0  0  0  0  0
  -25.8731  -34.0113   23.1081 C   0  0  1  0  0  0  0  0  0  0  0  0
  -24.1566  -31.2409   21.1558 C   0  0  1  0  0  0  0  0  0  0  0  0
  -31.2141  -14.0947   19.7302 C   0  0  2  0  0  0  0  0  0  0  0  0
  -18.4737  -26.0341   21.9286 C   0  0  0  0  0  0  0  0  0  0  0  0
  -22.7501  -29.7927   25.3133 C   0  0  0  0  0  0  0  0  0  0  0  0
  -21.0766  -27.9306   25.2976 C   0  0  0  0  0  0  0  0  0  0  0  0
  -20.3764  -30.2398   24.6650 C   0  0  0  0  0  0  0  0  0  0  0  0
  -20.5037  -26.7317   18.7872 C   0  0  0  0  0  0  0  0  0  0  0  0
  -21.8184  -28.9027   23.0759 C   0  0  1  0  0  0  0  0  0  0  0  0
  -19.3923  -26.8379   21.0215 C   0  0  2  0  0  0  0  0  0  0  0  0
  -21.5282  -29.2155   24.5711 C   0  0  0  0  0  0  0  0  0  0  0  0
  -28.8662  -13.5681   20.2705 N   0  0  0  0  0  0  0  0  0  0  0  0
  -29.8635  -13.5032   19.3720 N   0  0  0  0  0  0  0  0  0  0  0  0
  -31.4253  -23.5331   20.3959 N   0  0  0  0  0  0  0  0  0  0  0  0
  -23.5618  -30.0332   21.7319 N   0  0  0  0  0  0  0  0  0  0  0  0
  -32.4145  -15.8555   20.9666 N   0  0  0  0  0  0  0  0  0  0  0  0
  -30.3976  -12.7379   17.1949 N   0  0  0  0  0  0  0  0  0  0  0  0
  -26.0686  -11.5481   17.6847 N   0  0  0  0  0  0  0  0  0  0  0  0
  -31.9429  -17.9692   20.0327 N   0  0  0  0  0  0  0  0  0  0  0  0
  -25.0902  -33.2261   22.1780 N   0  0  0  0  0  0  0  0  0  0  0  0
  -20.6713  -28.3802   22.3413 N   0  0  0  0  0  0  0  0  0  0  0  0
  -19.6338  -26.0499   19.7799 N   0  3  0  0  0  0  0  0  0  0  0  0
  -32.5194  -26.8347   20.8550 O   0  0  0  0  0  0  0  0  0  0  0  0
  -29.0856  -23.7233   20.0068 O   0  0  0  0  0  0  0  0  0  0  0  0
  -27.8642  -11.4956   16.2593 O   0  0  0  0  0  0  0  0  0  0  0  0
  -25.6133  -31.1149   23.0097 O   0  0  0  0  0  0  0  0  0  0  0  0
  -21.5526  -31.1043   22.2339 O   0  0  0  0  0  0  0  0  0  0  0  0
  -21.6705  -26.3914   21.6907 O   0  0  0  0  0  0  0  0  0  0  0  0
  -34.0082  -17.5298   20.9935 O   0  0  0  0  0  0  0  0  0  0  0  0
  -22.8907  -12.4562   22.1692 O   0  0  0  0  0  0  0  0  0  0  0  0
  -28.2871  -26.4249   20.0874 O   0  0  0  0  0  0  0  0  0  1  0  0
  -20.3396   -7.5786   21.8466 F   0  0  0  0  0  0  0  0  0  0  0  0
  -22.2733  -11.0248   24.4523 F   0  0  0  0  0  0  0  0  0  0  0  0
  1  2  1  0  0  0  0
  1  5  2  0  0  0  0
  2  6  2  0  0  0  0
  3 12  2  0  0  0  0
  3 19  1  0  0  0  0
  4 13  1  0  0  0  0
  4 19  2  0  0  0  0
  5 21  1  0  0  0  0
  6 23  1  0  0  0  0
  7 14  2  0  0  0  0
  7 22  1  0  0  0  0
  8 10  2  0  0  0  0
  8 25  1  0  0  0  0
  9 11  1  0  0  0  0
  9 25  2  0  0  0  0
 10 26  1  0  0  0  0
 11 26  2  0  0  0  0
 12 27  1  0  0  0  0
 13 27  2  0  0  0  0
 14 28  1  0  0  0  0
 15 16  2  0  0  0  0
 15 29  1  0  0  0  0
 16 30  1  0  0  0  0
 17 24  1  0  0  0  0
 17 28  2  0  0  0  0
 18 30  2  0  0  0  0
 18 31  1  0  0  0  0
 19 32  1  0  0  0  0
 20 32  1  0  0  0  0
 20 33  2  0  0  0  0
 20 38  1  0  0  0  0
 21 23  2  0  0  0  0
 21 43  1  0  0  0  0
 22 24  2  0  0  0  0
 22 44  1  0  0  0  0
 23 53  1  0  0  0  0
 24 45  1  0  0  0  0
 25 66  1  0  0  0  0
 26 71  1  0  0  0  0
 27 82  1  0  0  0  0
 28 83  1  0  0  0  0
 29 31  2  0  0  0  0
 29 82  1  0  0  0  0
 30 84  1  0  0  0  0
 31 85  1  0  0  0  0
 32 64  2  0  0  0  0
 33 65  1  0  0  0  0
 33 69  1  0  0  0  0
 34 35  1  0  0  0  0
 34 36  1  0  0  0  0
 34 37  2  0  0  0  0
 35 46  1  0  0  0  0
 35 75  2  0  0  0  0
 36 66  1  0  0  0  0
 36 76  2  0  0  0  0
 37 83  1  0  0  0  0
 38 70  1  0  0  0  0
 38 77  2  0  0  0  0
 39 54  1  0  0  0  0
 39 72  1  0  0  0  0
 39 78  2  0  0  0  0
 40 61  1  0  0  0  0
 40 67  1  0  0  0  0
 40 79  2  0  0  0  0
 41 62  1  0  0  0  0
 41 73  1  0  0  0  0
 41 80  2  0  0  0  0
 42 68  1  0  0  0  0
 42 71  1  0  0  0  0
 42 81  2  0  0  0  0
 43 47  1  0  0  0  0
 44 54  1  0  0  0  0
 45 67  1  0  0  0  0
 46 66  1  0  0  0  0
 47 49  1  0  0  0  0
 48 50  1  0  0  0  0
 48 51  1  0  0  0  0
 49 53  1  0  0  0  0
 50 55  1  0  0  0  0
 51 68  1  0  0  0  0
 52 55  1  0  0  0  0
 52 68  1  0  0  0  0
 53 72  1  0  0  0  0
 54 67  1  0  0  0  0
 55 65  1  0  0  0  0
 56 62  1  0  0  0  0
 57 63  1  0  0  0  0
 58 63  1  0  0  0  0
 59 63  1  0  0  0  0
 60 74  1  0  0  0  0
 61 63  1  0  0  0  0
 61 73  1  0  0  0  0
 62 74  1  0  0  0  0
 64 65  1  0  0  0  0
M  CHG  1  74   1
M  ISO  4  37 101  42 100  71 100  83 101
M  END
> <Batch ID>
0089

> <Smiles>
CNC(C)C(=O)NC(C(=O)N1Cc2cc([101O:1][101CH:1]=C3C(=O)CN(c4ccc([100NH:0][100C:0](=O)N5CCCC(n6nc(-c7ccc(Oc8ccc(F)cc8F)cc7)c(C(N)=O)c6N)C5)cc4)C3=O)ccc2CC1C(=O)NC1CCCc2ccccc21)C(C)(C)C

> <Shape>
0.325

> <Color>
0.086

> <Negative vol penalty>
0.000

$$$$

  -OEChem-04052300263D

 87 96  0     1  0  0  0  0  0999 V2000
  -17.2320  -30.6453   23.8187 C   0  0  0  0  0  0  0  0  0  0  0  0
  -18.4782  -30.2965   24.3294 C   0  0  0  0  0  0  0  0  0  0  0  0
  -25.6010  -12.5534   19.2953 C   0  0  0  0  0  0  0  0  0  0  0  0
  -26.0156  -12.7251   21.6692 C   0  0  0  0  0  0  0  0  0  0  0  0
  -16.5723  -29.7832   22.9438 C   0  0  0  0  0  0  0  0  0  0  0  0
  -19.0650  -29.0847   23.9663 C   0  0  0  0  0  0  0  0  0  0  0  0
  -25.5080  -28.9012   20.7499 C   0  0  0  0  0  0  0  0  0  0  0  0
  -24.3268  -12.0488   19.5543 C   0  0  0  0  0  0  0  0  0  0  0  0
  -24.7413  -12.2205   21.9283 C   0  0  0  0  0  0  0  0  0  0  0  0
  -26.8296  -28.7714   20.3227 C   0  0  0  0  0  0  0  0  0  0  0  0
  -23.2149   -9.2039   21.9580 C   0  0  0  0  0  0  0  0  0  0  0  0
  -23.0949   -8.2184   22.9378 C   0  0  0  0  0  0  0  0  0  0  0  0
  -26.5570  -26.3732   20.1730 C   0  0  0  0  0  0  0  0  0  0  0  0
  -29.0622  -22.4823   15.7498 C   0  0  0  0  0  0  0  0  0  0  0  0
  -28.5018  -20.2863   16.5867 C   0  0  0  0  0  0  0  0  0  0  0  0
  -29.9077  -21.7543   17.8927 C   0  0  0  0  0  0  0  0  0  0  0  0
  -21.6127   -9.6514   24.1975 C   0  0  0  0  0  0  0  0  0  0  0  0
  -26.4455  -12.8915   20.3527 C   0  0  0  0  0  0  0  0  0  0  0  0
  -28.8010  -12.7762   19.3800 C   0  0  0  0  0  0  0  0  0  0  0  0
  -17.1556  -28.5646   22.5622 C   0  0  0  0  0  0  0  0  0  0  0  0
  -24.7002  -27.7676   20.8756 C   0  0  0  0  0  0  0  0  0  0  0  0
  -18.4118  -28.2049   23.0864 C   0  0  0  0  0  0  0  0  0  0  0  0
  -25.2287  -26.4983   20.5885 C   0  0  0  0  0  0  0  0  0  0  0  0
  -28.4068  -21.2610   15.5934 C   0  0  0  0  0  0  0  0  0  0  0  0
  -29.8127  -22.7290   16.8994 C   0  0  0  0  0  0  0  0  0  0  0  0
  -29.2523  -20.5330   17.7364 C   0  0  0  0  0  0  0  0  0  0  0  0
  -23.8969  -11.8823   20.8708 C   0  0  0  0  0  0  0  0  0  0  0  0
  -27.3529  -27.5105   20.0352 C   0  0  0  0  0  0  0  0  0  0  0  0
  -22.5338  -10.4131   22.0979 C   0  0  0  0  0  0  0  0  0  0  0  0
  -22.2938   -8.4421   24.0575 C   0  0  0  0  0  0  0  0  0  0  0  0
  -21.7327  -10.6369   23.2176 C   0  0  0  0  0  0  0  0  0  0  0  0
  -27.7622  -13.4123   20.0858 C   0  0  0  0  0  0  0  0  0  0  0  0
  -29.8355  -13.6794   19.4038 C   0  0  0  0  0  0  0  0  0  0  0  0
  -29.9059  -26.8018   17.6846 C   0  0  0  0  0  0  0  0  0  0  0  0
  -30.0422  -26.9582   16.2104 C   0  0  0  0  0  0  0  0  0  0  0  0
  -28.8877  -27.4455   18.2708 C   0  0  0  0  0  0  0  0  0  1  0  0
  -28.8283  -11.4845   18.7584 C   0  0  0  0  0  0  0  0  0  0  0  0
  -21.3265  -26.3740   21.7428 C   0  0  0  0  0  0  0  0  0  0  0  0
  -22.3246  -24.8290   19.2878 C   0  0  0  0  0  0  0  0  0  0  0  0
  -23.5976  -23.6584   16.3473 C   0  0  0  0  0  0  0  0  0  0  0  0
  -30.0511  -19.6261   19.9468 C   0  0  0  0  0  0  0  0  0  0  0  0
  -16.3832  -27.6440   21.6508 C   0  0  0  0  0  0  0  0  0  0  0  0
  -23.2895  -27.8539   21.3915 C   0  0  0  0  0  0  0  0  0  0  0  0
  -24.3333  -25.3034   20.7712 C   0  0  0  0  0  0  0  0  0  0  0  0
  -30.9391  -26.0124   18.4278 C   0  0  0  0  0  0  0  0  0  0  0  0
  -30.1908  -25.7165   15.3496 C   0  0  0  0  0  0  0  0  0  0  0  0
  -17.2409  -26.5489   21.0221 C   0  0  0  0  0  0  0  0  0  0  0  0
  -31.6410  -17.2364   22.0537 C   0  0  0  0  0  0  0  0  0  0  0  0
  -18.1266  -25.8930   22.0767 C   0  0  0  0  0  0  0  0  0  0  0  0
  -30.9254  -15.9256   21.7195 C   0  0  0  0  0  0  0  0  0  0  0  0
  -30.6839  -24.5030   18.4009 C   0  0  0  0  0  0  0  0  0  0  0  0
  -31.0916  -24.6201   15.9080 C   0  0  0  0  0  0  0  0  0  0  0  0
  -30.6841  -18.4271   22.0292 C   0  0  0  0  0  0  0  0  0  0  0  0
  -29.1864  -17.2588   20.4605 C   0  0  0  0  0  0  0  0  0  0  0  0
  -19.0920  -26.9105   22.6967 C   0  0  1  0  0  0  0  0  0  0  0  0
  -22.3445  -26.8292   20.7388 C   0  0  1  0  0  0  0  0  0  0  0  0
  -30.1222  -16.0402   20.4090 C   0  0  2  0  0  0  0  0  0  0  0  0
  -27.6044  -20.9974   14.3642 C   0  0  0  0  0  0  0  0  0  0  0  0
  -23.1083  -22.0366   14.4959 C   0  0  0  0  0  0  0  0  0  0  0  0
  -23.1422  -22.5171   21.1018 C   0  0  0  0  0  0  0  0  0  0  0  0
  -23.5558  -21.1455   19.0486 C   0  0  0  0  0  0  0  0  0  0  0  0
  -21.2631  -21.9998   19.5347 C   0  0  0  0  0  0  0  0  0  0  0  0
  -23.5292  -25.8140   14.3204 C   0  0  0  0  0  0  0  0  0  0  0  0
  -23.0505  -23.6145   18.7666 C   0  0  1  0  0  0  0  0  0  0  0  0
  -22.9662  -23.4714   14.9795 C   0  0  2  0  0  0  0  0  0  0  0  0
  -22.7663  -22.3441   19.6167 C   0  0  0  0  0  0  0  0  0  0  0  0
  -28.1055  -14.6257   20.5260 N   0  0  0  0  0  0  0  0  0  0  0  0
  -29.3717  -14.7593   20.0957 N   0  0  0  0  0  0  0  0  0  0  0  0
  -30.4700  -23.9540   17.0558 N   0  0  3  0  0  0  0  0  0  0  0  0
  -22.9893  -25.5984   20.2504 N   0  0  0  0  0  0  0  0  0  0  0  0
  -29.9613  -18.4740   20.7564 N   0  0  0  0  0  0  0  0  0  0  0  0
  -31.0876  -13.6471   18.9002 N   0  0  0  0  0  0  0  0  0  0  0  0
  -27.6793  -10.6850   18.8282 N   0  0  0  0  0  0  0  0  0  0  0  0
  -29.3481  -19.5427   18.7453 N   0  0  0  0  0  0  0  0  0  0  0  0
  -20.1979  -27.1693   21.7999 N   0  0  0  0  0  0  0  0  0  0  0  0
  -22.6789  -23.4887   17.3614 N   0  0  0  0  0  0  0  0  0  0  0  0
  -23.6143  -24.3698   13.9826 N   0  3  0  0  0  0  0  0  0  0  0  0
  -29.9576  -28.0735   15.6945 O   0  0  0  0  0  0  0  0  0  0  0  0
  -29.8471  -11.0454   18.1730 O   0  0  0  0  0  0  0  0  0  0  0  0
  -21.5469  -25.3739   22.4158 O   0  0  0  0  0  0  0  0  0  0  0  0
  -21.1965  -25.0875   18.8590 O   0  0  0  0  0  0  0  0  0  0  0  0
  -24.7876  -23.9245   16.5008 O   0  0  0  0  0  0  0  0  0  0  0  0
  -30.7257  -20.6034   20.2813 O   0  0  0  0  0  0  0  0  0  0  0  0
  -22.6534  -11.3902   21.1239 O   0  0  0  0  0  0  0  0  0  0  0  0
  -28.6426  -27.3915   19.6142 O   0  0  0  0  0  0  0  0  0  1  0  0
  -22.1775   -7.4951   24.9976 F   0  0  0  0  0  0  0  0  0  0  0  0
  -21.0751  -11.7961   23.3570 F   0  0  0  0  0  0  0  0  0  0  0  0
  1  2  1  0  0  0  0
  1  5  2  0  0  0  0
  2  6  2  0  0  0  0
  3  8  2  0  0  0  0
  3 18  1  0  0  0  0
  4  9  1  0  0  0  0
  4 18  2  0  0  0  0
  5 20  1  0  0  0  0
  6 22  1  0  0  0  0
  7 10  2  0  0  0  0
  7 21  1  0  0  0  0
  8 27  1  0  0  0  0
  9 27  2  0  0  0  0
 10 28  1  0  0  0  0
 11 12  2  0  0  0  0
 11 29  1  0  0  0  0
 12 30  1  0  0  0  0
 13 23  1  0  0  0  0
 13 28  2  0  0  0  0
 14 24  2  0  0  0  0
 14 25  1  0  0  0  0
 15 24  1  0  0  0  0
 15 26  2  0  0  0  0
 16 25  2  0  0  0  0
 16 26  1  0  0  0  0
 17 30  2  0  0  0  0
 17 31  1  0  0  0  0
 18 32  1  0  0  0  0
 19 32  1  0  0  0  0
 19 33  2  0  0  0  0
 19 37  1  0  0  0  0
 20 22  2  0  0  0  0
 20 42  1  0  0  0  0
 21 23  2  0  0  0  0
 21 43  1  0  0  0  0
 22 55  1  0  0  0  0
 23 44  1  0  0  0  0
 24 58  1  0  0  0  0
 25 69  1  0  0  0  0
 26 74  1  0  0  0  0
 27 84  1  0  0  0  0
 28 85  1  0  0  0  0
 29 31  2  0  0  0  0
 29 84  1  0  0  0  0
 30 86  1  0  0  0  0
 31 87  1  0  0  0  0
 32 67  2  0  0  0  0
 33 68  1  0  0  0  0
 33 72  1  0  0  0  0
 34 35  1  0  0  0  0
 34 36  2  0  0  0  0
 34 45  1  0  0  0  0
 35 46  1  0  0  0  0
 35 78  2  0  0  0  0
 36 85  1  0  0  0  0
 37 73  1  0  0  0  0
 37 79  2  0  0  0  0
 38 56  1  0  0  0  0
 38 75  1  0  0  0  0
 38 80  2  0  0  0  0
 39 64  1  0  0  0  0
 39 70  1  0  0  0  0
 39 81  2  0  0  0  0
 40 65  1  0  0  0  0
 40 76  1  0  0  0  0
 40 82  2  0  0  0  0
 41 71  1  0  0  0  0
 41 74  1  0  0  0  0
 41 83  2  0  0  0  0
 42 47  1  0  0  0  0
 43 56  1  0  0  0  0
 44 70  1  0  0  0  0
 45 51  1  0  0  0  0
 46 52  1  0  0  0  0
 47 49  1  0  0  0  0
 48 50  1  0  0  0  0
 48 53  1  0  0  0  0
 49 55  1  0  0  0  0
 50 57  1  0  0  0  0
 51 69  1  0  0  0  0
 52 69  1  0  0  0  0
 53 71  1  0  0  0  0
 54 57  1  0  0  0  0
 54 71  1  0  0  0  0
 55 75  1  0  0  0  0
 56 70  1  0  0  0  0
 57 68  1  0  0  0  0
 59 65  1  0  0  0  0
 60 66  1  0  0  0  0
 61 66  1  0  0  0  0
 62 66  1  0  0  0  0
 63 77  1  0  0  0  0
 64 66  1  0  0  0  0
 64 76  1  0  0  0  0
 65 77  1  0  0  0  0
 67 68  1  0  0  0  0
M  CHG  1  77   1
M  ISO  4  36 101  41 100  74 100  85 101
M  END
> <Batch ID>
0089

> <Smiles>
CNC(C)C(=O)NC(C(=O)N1Cc2cc([101O:1][101CH:1]=C3CCN(c4cc(C)cc([100NH:0][100C:0](=O)N5CCCC(n6nc(-c7ccc(Oc8ccc(F)cc8F)cc7)c(C(N)=O)c6N)C5)c4)CCC3=O)ccc2CC1C(=O)NC1CCCc2ccccc21)C(C)(C)C

> <Shape>
0.278

> <Color>
0.069

> <Negative vol penalty>
0.000

$$$$

  -OEChem-04052300263D

 88 97  0     1  0  0  0  0  0999 V2000
  -31.7141  -34.4809   21.8870 C   0  0  0  0  0  0  0  0  0  0  0  0
  -31.4351  -33.2272   21.3522 C   0  0  0  0  0  0  0  0  0  0  0  0
  -22.2345  -15.6497   21.8449 C   0  0  0  0  0  0  0  0  0  0  0  0
  -22.6011  -16.2505   19.5337 C   0  0  0  0  0  0  0  0  0  0  0  0
  -31.0386  -34.9177   23.0257 C   0  0  0  0  0  0  0  0  0  0  0  0
  -30.4812  -32.4092   21.9567 C   0  0  0  0  0  0  0  0  0  0  0  0
  -26.6477  -28.5376   19.1600 C   0  0  0  0  0  0  0  0  0  0  0  0
  -27.5603  -19.1061   18.2984 C   0  0  0  0  0  0  0  0  0  0  0  0
  -28.5113  -18.1036   18.1079 C   0  0  0  0  0  0  0  0  0  0  0  0
  -21.1352  -16.5068   21.8934 C   0  0  0  0  0  0  0  0  0  0  0  0
  -21.5017  -17.1076   19.5821 C   0  0  0  0  0  0  0  0  0  0  0  0
  -26.6928  -27.1599   18.9515 C   0  0  0  0  0  0  0  0  0  0  0  0
  -17.9025  -16.4702   20.9029 C   0  0  0  0  0  0  0  0  0  0  0  0
  -16.7375  -15.9967   21.5064 C   0  0  0  0  0  0  0  0  0  0  0  0
  -25.3166  -26.8254   20.9043 C   0  0  0  0  0  0  0  0  0  0  0  0
  -24.5328  -21.7811   19.8554 C   0  0  0  0  0  0  0  0  0  0  0  0
  -28.2719  -19.3448   20.5949 C   0  0  0  0  0  0  0  0  0  0  0  0
  -16.8470  -17.7885   23.1234 C   0  0  0  0  0  0  0  0  0  0  0  0
  -22.9675  -15.5215   20.6651 C   0  0  0  0  0  0  0  0  0  0  0  0
  -24.1048  -13.2742   20.2603 C   0  0  0  0  0  0  0  0  0  0  0  0
  -30.0690  -34.1087   23.6388 C   0  0  0  0  0  0  0  0  0  0  0  0
  -25.9446  -29.0699   20.2503 C   0  0  0  0  0  0  0  0  0  0  0  0
  -29.7930  -32.8351   23.1055 C   0  0  0  0  0  0  0  0  0  0  0  0
  -25.2620  -28.2104   21.1230 C   0  0  0  0  0  0  0  0  0  0  0  0
  -25.5607  -22.6982   20.1863 C   0  0  0  0  0  0  0  0  0  0  0  0
  -27.4406  -19.7267   19.5419 C   0  0  0  0  0  0  0  0  0  0  0  0
  -29.3425  -17.7217   19.1609 C   0  0  0  0  0  0  0  0  0  0  0  0
  -20.7687  -17.2357   20.7620 C   0  0  0  0  0  0  0  0  0  0  0  0
  -26.0296  -26.3033   19.8254 C   0  0  0  0  0  0  0  0  0  0  0  0
  -18.5398  -17.6028   21.4097 C   0  0  0  0  0  0  0  0  0  0  0  0
  -16.2097  -16.6559   22.6166 C   0  0  0  0  0  0  0  0  0  0  0  0
  -29.2228  -18.3423   20.4044 C   0  0  0  0  0  0  0  0  0  0  0  0
  -18.0120  -18.2619   22.5199 C   0  0  0  0  0  0  0  0  0  0  0  0
  -24.1036  -14.6367   20.6145 C   0  0  0  0  0  0  0  0  0  0  0  0
  -26.7578  -22.0221   20.1027 C   0  0  0  0  0  0  0  0  0  0  0  0
  -25.4198  -12.8925   20.3687 C   0  0  0  0  0  0  0  0  0  0  0  0
  -25.1332  -20.5723   19.5798 C   0  0  0  0  0  0  0  0  0  0  0  0
  -31.8307  -15.5012   17.5225 C   0  0  0  0  0  0  0  0  0  0  0  0
  -30.9205  -16.4557   17.7283 C   0  0  0  0  0  0  0  0  0  0  0  0
  -23.0149  -12.4293   19.8683 C   0  0  0  0  0  0  0  0  0  0  0  0
  -26.7347  -30.7830   22.8086 C   0  0  0  0  0  0  0  0  0  0  0  0
  -23.5244  -30.8582   23.2673 C   0  0  0  0  0  0  0  0  0  0  0  0
  -20.4830  -29.4153   22.7063 C   0  0  0  0  0  0  0  0  0  0  0  0
  -30.5781  -15.7630   20.0149 C   0  0  0  0  0  0  0  0  0  0  0  0
  -29.3988  -34.6046   24.8956 C   0  0  0  0  0  0  0  0  0  0  0  0
  -25.8834  -30.5600   20.4461 C   0  0  0  0  0  0  0  0  0  0  0  0
  -24.4762  -28.7327   22.2969 C   0  0  0  0  0  0  0  0  0  0  0  0
  -28.1338  -33.8305   25.2574 C   0  0  0  0  0  0  0  0  0  0  0  0
  -29.4390  -13.9037   22.7414 C   0  0  0  0  0  0  0  0  0  0  0  0
  -28.3784  -32.3286   25.1519 C   0  0  0  0  0  0  0  0  0  0  0  0
  -27.9406  -13.7494   22.4827 C   0  0  0  0  0  0  0  0  0  0  0  0
  -29.9187  -15.3001   22.3622 C   0  0  0  0  0  0  0  0  0  0  0  0
  -28.1248  -15.5264   20.6727 C   0  0  0  0  0  0  0  0  0  0  0  0
  -28.7472  -31.9291   23.7181 C   0  0  1  0  0  0  0  0  0  0  0  0
  -25.5646  -30.9613   21.8830 C   0  0  1  0  0  0  0  0  0  0  0  0
  -27.5888  -14.1262   21.0328 C   0  0  2  0  0  0  0  0  0  0  0  0
  -28.1352  -22.5069   20.3460 C   0  0  0  0  0  0  0  0  0  0  0  0
  -18.0461  -29.6847   23.2414 C   0  0  0  0  0  0  0  0  0  0  0  0
  -24.0278  -29.7969   26.0834 C   0  0  0  0  0  0  0  0  0  0  0  0
  -21.6008  -29.1965   26.2158 C   0  0  0  0  0  0  0  0  0  0  0  0
  -22.2808  -31.5804   25.9376 C   0  0  0  0  0  0  0  0  0  0  0  0
  -19.7692  -29.7104   19.8493 C   0  0  0  0  0  0  0  0  0  0  0  0
  -25.3704  -24.1392   20.5587 C   0  0  0  0  0  0  0  0  0  1  0  0
  -22.5271  -29.9860   23.9910 C   0  0  1  0  0  0  0  0  0  0  0  0
  -19.1580  -30.0017   22.2535 C   0  0  2  0  0  0  0  0  0  0  0  0
  -22.6255  -30.1297   25.5360 C   0  0  0  0  0  0  0  0  0  0  0  0
  -25.3211  -15.0899   20.9249 N   0  0  0  0  0  0  0  0  0  0  0  0
  -26.4858  -20.7306   19.7336 N   0  0  0  0  0  0  0  0  0  0  0  0
  -26.0996  -14.0061   20.7661 N   0  0  0  0  0  0  0  0  0  0  0  0
  -24.4516  -30.1968   22.4496 N   0  0  0  0  0  0  0  0  0  0  0  0
  -29.5613  -15.6220   20.9802 N   0  0  0  0  0  0  0  0  0  0  0  0
  -26.0492  -11.7163   20.1621 N   0  0  0  0  0  0  0  0  0  0  0  0
  -21.7285  -12.9825   19.8089 N   0  0  0  0  0  0  0  0  0  0  0  0
  -27.5643  -31.8854   22.8855 N   0  0  0  0  0  0  0  0  0  0  0  0
  -21.2177  -30.3211   23.4419 N   0  0  0  0  0  0  0  0  0  0  0  0
  -30.3283  -16.6796   18.9606 N   0  0  0  0  0  0  0  0  0  0  0  0
  -18.7755  -29.4508   20.9227 N   0  3  0  0  0  0  0  0  0  0  0  0
  -23.1744  -11.2154   19.5951 O   0  0  0  0  0  0  0  0  0  0  0  0
  -26.8737  -29.7242   23.4097 O   0  0  0  0  0  0  0  0  0  0  0  0
  -23.4777  -32.0818   23.4163 O   0  0  0  0  0  0  0  0  0  0  0  0
  -20.8298  -28.2672   22.4378 O   0  0  0  0  0  0  0  0  0  0  0  0
  -31.6424  -15.1358   20.0938 O   0  0  0  0  0  0  0  0  0  0  0  0
  -24.6024  -19.4087   19.2235 O   0  0  0  0  0  0  0  0  0  0  0  0
  -19.6959  -18.0720   20.8089 O   0  0  0  0  0  0  0  0  0  0  0  0
  -26.0725  -24.9581   19.6245 O   0  0  0  0  0  0  0  0  0  1  0  0
  -15.0901  -16.2020   23.1951 F   0  0  0  0  0  0  0  0  0  0  0  0
  -30.0154  -17.9820   21.4239 F   0  0  0  0  0  0  0  0  0  0  0  0
  -18.6192  -19.3511   23.0105 F   0  0  0  0  0  0  0  0  0  0  0  0
  1  2  1  0  0  0  0
  1  5  2  0  0  0  0
  2  6  2  0  0  0  0
  3 10  2  0  0  0  0
  3 19  1  0  0  0  0
  4 11  1  0  0  0  0
  4 19  2  0  0  0  0
  5 21  1  0  0  0  0
  6 23  1  0  0  0  0
  7 12  2  0  0  0  0
  7 22  1  0  0  0  0
  8  9  2  0  0  0  0
  8 26  1  0  0  0  0
  9 27  1  0  0  0  0
 10 28  1  0  0  0  0
 11 28  2  0  0  0  0
 12 29  1  0  0  0  0
 13 14  2  0  0  0  0
 13 30  1  0  0  0  0
 14 31  1  0  0  0  0
 15 24  1  0  0  0  0
 15 29  2  0  0  0  0
 16 25  1  0  0  0  0
 16 37  2  0  0  0  0
 17 26  2  0  0  0  0
 17 32  1  0  0  0  0
 18 31  2  0  0  0  0
 18 33  1  0  0  0  0
 19 34  1  0  0  0  0
 20 34  1  0  0  0  0
 20 36  2  0  0  0  0
 20 40  1  0  0  0  0
 21 23  2  0  0  0  0
 21 45  1  0  0  0  0
 22 24  2  0  0  0  0
 22 46  1  0  0  0  0
 23 54  1  0  0  0  0
 24 47  1  0  0  0  0
 25 35  2  0  0  0  0
 25 63  1  0  0  0  0
 26 68  1  0  0  0  0
 27 32  2  0  0  0  0
 27 76  1  0  0  0  0
 28 84  1  0  0  0  0
 29 85  1  0  0  0  0
 30 33  2  0  0  0  0
 30 84  1  0  0  0  0
 31 86  1  0  0  0  0
 32 87  1  0  0  0  0
 33 88  1  0  0  0  0
 34 67  2  0  0  0  0
 35 57  1  0  0  0  0
 35 68  1  0  0  0  0
 36 69  1  0  0  0  0
 36 72  1  0  0  0  0
 37 68  1  0  0  0  0
 37 83  1  0  0  0  0
 38 39  2  0  0  0  0
 39 76  1  0  0  0  0
 40 73  1  0  0  0  0
 40 78  2  0  0  0  0
 41 55  1  0  0  0  0
 41 74  1  0  0  0  0
 41 79  2  0  0  0  0
 42 64  1  0  0  0  0
 42 70  1  0  0  0  0
 42 80  2  0  0  0  0
 43 65  1  0  0  0  0
 43 75  1  0  0  0  0
 43 81  2  0  0  0  0
 44 71  1  0  0  0  0
 44 76  1  0  0  0  0
 44 82  2  0  0  0  0
 45 48  1  0  0  0  0
 46 55  1  0  0  0  0
 47 70  1  0  0  0  0
 48 50  1  0  0  0  0
 49 51  1  0  0  0  0
 49 52  1  0  0  0  0
 50 54  1  0  0  0  0
 51 56  1  0  0  0  0
 52 71  1  0  0  0  0
 53 56  1  0  0  0  0
 53 71  1  0  0  0  0
 54 74  1  0  0  0  0
 55 70  1  0  0  0  0
 56 69  1  0  0  0  0
 58 65  1  0  0  0  0
 59 66  1  0  0  0  0
 60 66  1  0  0  0  0
 61 66  1  0  0  0  0
 62 77  1  0  0  0  0
 63 85  1  0  0  0  0
 64 66  1  0  0  0  0
 64 75  1  0  0  0  0
 65 77  1  0  0  0  0
 67 69  1  0  0  0  0
M  CHG  1  77   1
M  ISO  4  44 100  63 101  76 100  85 101
M  END
> <Batch ID>
0089

> <Smiles>
C=C[100N:0](c1ccc(N2C(=O)CC([101CH2:1][101O:1]c3ccc4c(c3)CN(C(=O)C(NC(=O)C(C)NC)C(C)(C)C)C(C(=O)NC3CCCc5ccccc53)C4)=C2C)cc1F)[100C:0](=O)N1CCCC(n2nc(-c3ccc(Oc4ccc(F)cc4F)cc3)c(C(N)=O)c2N)C1

> <Shape>
0.231

> <Color>
0.093

> <Negative vol penalty>
0.000

$$$$

  -OEChem-04052300263D

 85 93  0     1  0  0  0  0  0999 V2000
  -31.8202  -27.0407   17.6817 C   0  0  0  0  0  0  0  0  0  0  0  0
  -31.3177  -25.9563   18.3937 C   0  0  0  0  0  0  0  0  0  0  0  0
  -31.1885  -16.7081   26.2710 C   0  0  0  0  0  0  0  0  0  0  0  0
  -23.0580  -16.0980   21.3756 C   0  0  0  0  0  0  0  0  0  0  0  0
  -22.4242  -15.0141   19.3115 C   0  0  0  0  0  0  0  0  0  0  0  0
  -31.6990  -16.1394   25.1042 C   0  0  0  0  0  0  0  0  0  0  0  0
  -31.4349  -28.3364   18.0235 C   0  0  0  0  0  0  0  0  0  0  0  0
  -30.4306  -26.1669   19.4487 C   0  0  0  0  0  0  0  0  0  0  0  0
  -25.7513  -22.5760   21.0968 C   0  0  0  0  0  0  0  0  0  0  0  0
  -29.9669  -17.3809   26.2423 C   0  0  0  0  0  0  0  0  0  0  0  0
  -22.0372  -17.0319   21.1986 C   0  0  0  0  0  0  0  0  0  0  0  0
  -21.4033  -15.9480   19.1345 C   0  0  0  0  0  0  0  0  0  0  0  0
  -25.6186  -21.6039   22.0873 C   0  0  0  0  0  0  0  0  0  0  0  0
  -21.5070  -19.8257   19.3715 C   0  0  0  0  0  0  0  0  0  0  0  0
  -21.8122  -21.1683   19.5945 C   0  0  0  0  0  0  0  0  0  0  0  0
  -29.7666  -16.9165   23.8799 C   0  0  0  0  0  0  0  0  0  0  0  0
  -24.6399  -23.2458   23.5590 C   0  0  0  0  0  0  0  0  0  0  0  0
  -20.1330  -21.2620   21.3290 C   0  0  0  0  0  0  0  0  0  0  0  0
  -23.2515  -15.0891   20.4320 C   0  0  0  0  0  0  0  0  0  0  0  0
  -30.9881  -16.2436   23.9086 C   0  0  0  0  0  0  0  0  0  0  0  0
  -24.2231  -12.8908   21.2871 C   0  0  0  0  0  0  0  0  0  0  0  0
  -30.5351  -28.5624   19.0770 C   0  0  0  0  0  0  0  0  0  0  0  0
  -25.3387  -23.8951   21.3341 C   0  0  0  0  0  0  0  0  0  0  0  0
  -30.0340  -27.4669   19.8057 C   0  0  0  0  0  0  0  0  0  0  0  0
  -24.7662  -24.2322   22.5689 C   0  0  0  0  0  0  0  0  0  0  0  0
  -29.2560  -17.4851   25.0468 C   0  0  0  0  0  0  0  0  0  0  0  0
  -21.2098  -16.9569   20.0781 C   0  0  0  0  0  0  0  0  0  0  0  0
  -25.0655  -21.9394   23.3196 C   0  0  0  0  0  0  0  0  0  0  0  0
  -20.5148  -19.2012   20.1273 C   0  0  0  0  0  0  0  0  0  0  0  0
  -21.1252  -21.8865   20.5733 C   0  0  0  0  0  0  0  0  0  0  0  0
  -19.8278  -19.9193   21.1060 C   0  0  0  0  0  0  0  0  0  0  0  0
  -24.3062  -14.1244   20.6139 C   0  0  0  0  0  0  0  0  0  0  0  0
  -25.4835  -12.3556   21.1801 C   0  0  0  0  0  0  0  0  0  0  0  0
  -26.0673  -20.3737   24.7394 C   0  0  0  0  0  0  0  0  0  1  0  0
  -31.5331  -15.6374   22.6667 C   0  0  0  0  0  0  0  0  0  0  0  0
  -23.1064  -12.2829   21.9497 C   0  0  0  0  0  0  0  0  0  0  0  0
  -26.0738  -19.4270   25.6877 C   0  0  0  0  0  0  0  0  0  0  0  0
  -27.3798  -18.8028   26.0754 C   0  0  0  0  0  0  0  0  0  0  0  0
  -26.7934  -26.7201   21.4162 C   0  0  0  0  0  0  0  0  0  0  0  0
  -23.7652  -27.8327   21.7549 C   0  0  0  0  0  0  0  0  0  0  0  0
  -20.5472  -27.2282   22.7170 C   0  0  0  0  0  0  0  0  0  0  0  0
  -30.8902  -14.7183   20.4609 C   0  0  0  0  0  0  0  0  0  0  0  0
  -30.1847  -29.9837   19.4400 C   0  0  0  0  0  0  0  0  0  0  0  0
  -25.4641  -24.9258   20.2459 C   0  0  0  0  0  0  0  0  0  0  0  0
  -24.2889  -25.6293   22.8667 C   0  0  0  0  0  0  0  0  0  0  0  0
  -28.9496  -30.0983   20.3298 C   0  0  0  0  0  0  0  0  0  0  0  0
  -29.3313  -12.3755   18.3214 C   0  0  0  0  0  0  0  0  0  0  0  0
  -29.0200  -29.0910   21.4731 C   0  0  0  0  0  0  0  0  0  0  0  0
  -27.8585  -12.4317   18.7363 C   0  0  0  0  0  0  0  0  0  0  0  0
  -29.9856  -13.7557   18.3631 C   0  0  0  0  0  0  0  0  0  0  0  0
  -28.3628  -14.5357   20.0411 C   0  0  0  0  0  0  0  0  0  0  0  0
  -29.0503  -27.6533   20.9405 C   0  0  1  0  0  0  0  0  0  0  0  0
  -25.4833  -26.3559   20.7768 C   0  0  1  0  0  0  0  0  0  0  0  0
  -27.6777  -13.1602   20.0831 C   0  0  1  0  0  0  0  0  0  0  0  0
  -24.8536  -18.8854   26.3653 C   0  0  0  0  0  0  0  0  0  0  0  0
  -18.0953  -27.6525   23.0421 C   0  0  0  0  0  0  0  0  0  0  0  0
  -24.7218  -29.3151   24.2444 C   0  0  0  0  0  0  0  0  0  0  0  0
  -22.3250  -29.6071   24.9064 C   0  0  0  0  0  0  0  0  0  0  0  0
  -23.1641  -30.6205   22.7870 C   0  0  0  0  0  0  0  0  0  0  0  0
  -19.8878  -26.1527   20.0398 C   0  0  0  0  0  0  0  0  0  0  0  0
  -22.8546  -28.1150   22.9254 C   0  0  1  0  0  0  0  0  0  0  0  0
  -19.2217  -27.5056   22.0309 C   0  0  2  0  0  0  0  0  0  0  0  0
  -23.2771  -29.3885   23.7112 C   0  0  0  0  0  0  0  0  0  0  0  0
  -25.5233  -14.3593   20.1163 N   0  0  0  0  0  0  0  0  0  0  0  0
  -26.2165  -13.2660   20.4771 N   0  0  0  0  0  0  0  0  0  0  0  0
  -24.4388  -26.6031   21.7728 N   0  0  0  0  0  0  0  0  0  0  0  0
  -29.7776  -14.3741   19.6736 N   0  0  0  0  0  0  0  0  0  0  0  0
  -26.0253  -11.2000   21.6198 N   0  0  0  0  0  0  0  0  0  0  0  0
  -21.8844  -12.9690   21.9654 N   0  0  0  0  0  0  0  0  0  0  0  0
  -28.0156  -18.1681   25.0179 N   0  0  0  0  0  0  0  0  0  0  0  0
  -30.5858  -15.2636   21.7132 N   0  0  0  0  0  0  0  0  0  0  0  0
  -27.7249  -27.2362   20.5357 N   0  0  0  0  0  0  0  0  0  0  0  0
  -21.5003  -28.1678   22.3856 N   0  0  0  0  0  0  0  0  0  0  0  0
  -18.8767  -26.3930   21.1014 N   0  3  0  0  0  0  0  0  0  0  0  0
  -32.7498  -15.5381   22.5338 O   0  0  0  0  0  0  0  0  0  0  0  0
  -23.1940  -11.1718   22.5253 O   0  0  0  0  0  0  0  0  0  0  0  0
  -27.7890  -18.9417   27.2239 O   0  0  0  0  0  0  0  0  0  0  0  0
  -26.9471  -26.5472   22.6196 O   0  0  0  0  0  0  0  0  0  0  0  0
  -23.8694  -28.6691   20.8542 O   0  0  0  0  0  0  0  0  0  0  0  0
  -20.7187  -26.2754   23.4742 O   0  0  0  0  0  0  0  0  0  0  0  0
  -32.0539  -14.5221   20.0967 O   0  0  0  0  0  0  0  0  0  0  0  0
  -20.2135  -17.8679   19.9052 O   0  0  0  0  0  0  0  0  0  0  0  0
  -24.9354  -20.9926   24.2884 O   0  0  0  0  0  0  0  0  0  1  0  0
  -21.4195  -23.1754   20.7883 F   0  0  0  0  0  0  0  0  0  0  0  0
  -18.8743  -19.3244   21.8360 F   0  0  0  0  0  0  0  0  0  0  0  0
  1  2  1  0  0  0  0
  1  7  2  0  0  0  0
  2  8  2  0  0  0  0
  3  6  1  0  0  0  0
  3 10  2  0  0  0  0
  4 11  2  0  0  0  0
  4 19  1  0  0  0  0
  5 12  1  0  0  0  0
  5 19  2  0  0  0  0
  6 20  2  0  0  0  0
  7 22  1  0  0  0  0
  8 24  1  0  0  0  0
  9 13  2  0  0  0  0
  9 23  1  0  0  0  0
 10 26  1  0  0  0  0
 11 27  1  0  0  0  0
 12 27  2  0  0  0  0
 13 28  1  0  0  0  0
 14 15  2  0  0  0  0
 14 29  1  0  0  0  0
 15 30  1  0  0  0  0
 16 20  1  0  0  0  0
 16 26  2  0  0  0  0
 17 25  1  0  0  0  0
 17 28  2  0  0  0  0
 18 30  2  0  0  0  0
 18 31  1  0  0  0  0
 19 32  1  0  0  0  0
 20 35  1  0  0  0  0
 21 32  1  0  0  0  0
 21 33  2  0  0  0  0
 21 36  1  0  0  0  0
 22 24  2  0  0  0  0
 22 43  1  0  0  0  0
 23 25  2  0  0  0  0
 23 44  1  0  0  0  0
 24 52  1  0  0  0  0
 25 45  1  0  0  0  0
 26 70  1  0  0  0  0
 27 82  1  0  0  0  0
 28 83  1  0  0  0  0
 29 31  2  0  0  0  0
 29 82  1  0  0  0  0
 30 84  1  0  0  0  0
 31 85  1  0  0  0  0
 32 64  2  0  0  0  0
 33 65  1  0  0  0  0
 33 68  1  0  0  0  0
 34 37  2  0  0  0  0
 34 83  1  0  0  0  0
 35 71  1  0  0  0  0
 35 75  2  0  0  0  0
 36 69  1  0  0  0  0
 36 76  2  0  0  0  0
 37 38  1  0  0  0  0
 37 55  1  0  0  0  0
 38 70  1  0  0  0  0
 38 77  2  0  0  0  0
 39 53  1  0  0  0  0
 39 72  1  0  0  0  0
 39 78  2  0  0  0  0
 40 61  1  0  0  0  0
 40 66  1  0  0  0  0
 40 79  2  0  0  0  0
 41 62  1  0  0  0  0
 41 73  1  0  0  0  0
 41 80  2  0  0  0  0
 42 67  1  0  0  0  0
 42 71  1  0  0  0  0
 42 81  2  0  0  0  0
 43 46  1  0  0  0  0
 44 53  1  0  0  0  0
 45 66  1  0  0  0  0
 46 48  1  0  0  0  0
 47 49  1  0  0  0  0
 47 50  1  0  0  0  0
 48 52  1  0  0  0  0
 49 54  1  0  0  0  0
 50 67  1  0  0  0  0
 51 54  1  0  0  0  0
 51 67  1  0  0  0  0
 52 72  1  0  0  0  0
 53 66  1  0  0  0  0
 54 65  1  0  0  0  0
 56 62  1  0  0  0  0
 57 63  1  0  0  0  0
 58 63  1  0  0  0  0
 59 63  1  0  0  0  0
 60 74  1  0  0  0  0
 61 63  1  0  0  0  0
 61 73  1  0  0  0  0
 62 74  1  0  0  0  0
 64 65  1  0  0  0  0
M  CHG  1  74   1
M  ISO  4  34 101  42 100  71 100  83 101
M  END
> <Batch ID>
0089

> <Smiles>
CNC(C)C(=O)NC(C(=O)N1Cc2cc([101O:1][101CH:1]=C(C)C(=O)Nc3cccc(C(=O)[100NH:0][100C:0](=O)N4CCCC(n5nc(-c6ccc(Oc7ccc(F)cc7F)cc6)c(C(N)=O)c5N)C4)c3)ccc2CC1C(=O)NC1CCCc2ccccc21)C(C)(C)C

> <Shape>
0.211

> <Color>
0.072

> <Negative vol penalty>
0.000

$$$$

  -OEChem-04052300263D

 87 95  0     1  0  0  0  0  0999 V2000
  -28.0779  -34.9425   26.8280 C   0  0  0  0  0  0  0  0  0  0  0  0
  -29.0951  -34.2966   26.1326 C   0  0  0  0  0  0  0  0  0  0  0  0
  -24.2824   -9.3585   22.1913 C   0  0  0  0  0  0  0  0  0  0  0  0
  -23.8804   -9.3246   19.8092 C   0  0  0  0  0  0  0  0  0  0  0  0
  -23.3667  -21.4292   18.1421 C   0  0  0  0  0  0  0  0  0  0  0  0
  -26.8378  -34.3238   26.9810 C   0  0  0  0  0  0  0  0  0  0  0  0
  -28.8731  -33.0311   25.5908 C   0  0  0  0  0  0  0  0  0  0  0  0
  -30.7368  -28.9409   20.0129 C   0  0  0  0  0  0  0  0  0  0  0  0
  -23.3618  -22.7915   18.4416 C   0  0  0  0  0  0  0  0  0  0  0  0
  -23.2756   -8.4108   22.3747 C   0  0  0  0  0  0  0  0  0  0  0  0
  -22.8736   -8.3768   19.9926 C   0  0  0  0  0  0  0  0  0  0  0  0
  -31.2455  -27.6744   19.7283 C   0  0  0  0  0  0  0  0  0  0  0  0
  -19.8981   -8.3563   22.4926 C   0  0  0  0  0  0  0  0  0  0  0  0
  -18.9888   -8.5700   23.5284 C   0  0  0  0  0  0  0  0  0  0  0  0
  -25.7317  -21.3313   18.6258 C   0  0  0  0  0  0  0  0  0  0  0  0
  -29.0382  -26.7363   19.9872 C   0  0  0  0  0  0  0  0  0  0  0  0
  -19.6552   -6.4818   24.5445 C   0  0  0  0  0  0  0  0  0  0  0  0
  -24.5847   -9.8156   20.9085 C   0  0  0  0  0  0  0  0  0  0  0  0
  -24.5516  -20.6991   18.2343 C   0  0  0  0  0  0  0  0  0  0  0  0
  -26.9917  -10.5501   20.4909 C   0  0  0  0  0  0  0  0  0  0  0  0
  -26.5975  -33.0542   26.4325 C   0  0  0  0  0  0  0  0  0  0  0  0
  -29.3747  -29.1132   20.2979 C   0  0  0  0  0  0  0  0  0  0  0  0
  -27.6291  -32.3942   25.7378 C   0  0  0  0  0  0  0  0  0  0  0  0
  -28.5143  -28.0064   20.2726 C   0  0  0  0  0  0  0  0  0  0  0  0
  -24.5419  -23.4237   18.8332 C   0  0  0  0  0  0  0  0  0  0  0  0
  -25.7269  -22.6936   18.9253 C   0  0  0  0  0  0  0  0  0  0  0  0
  -22.5712   -7.9199   21.2754 C   0  0  0  0  0  0  0  0  0  0  0  0
  -30.3967  -26.5714   19.7183 C   0  0  0  0  0  0  0  0  0  0  0  0
  -20.6860   -7.2052   22.4826 C   0  0  0  0  0  0  0  0  0  0  0  0
  -18.8673   -7.6329   24.5543 C   0  0  0  0  0  0  0  0  0  0  0  0
  -20.5645   -6.2680   23.5086 C   0  0  0  0  0  0  0  0  0  0  0  0
  -25.6242  -10.7950   20.7184 C   0  0  0  0  0  0  0  0  0  0  0  0
  -27.5502  -11.7999   20.3780 C   0  0  0  0  0  0  0  0  0  0  0  0
  -24.5562  -19.2557   17.9169 C   0  0  0  0  0  0  0  0  0  0  0  0
  -27.6943   -9.3043   20.3905 C   0  0  0  0  0  0  0  0  0  0  0  0
  -29.2293  -23.6833   19.8921 C   0  0  0  0  0  0  0  0  0  0  0  0
  -28.1694  -22.7126   19.4515 C   0  0  0  0  0  0  0  0  0  0  0  0
  -27.7214  -30.1413   22.8106 C   0  0  0  0  0  0  0  0  0  0  0  0
  -25.2072  -29.8593   20.7805 C   0  0  0  0  0  0  0  0  0  0  0  0
  -23.8823  -28.3993   17.9948 C   0  0  0  0  0  0  0  0  0  0  0  0
  -24.9958  -16.9595   18.7602 C   0  0  0  0  0  0  0  0  0  0  0  0
  -25.2559  -32.4053   26.6646 C   0  0  0  0  0  0  0  0  0  0  0  0
  -28.8368  -30.4899   20.5767 C   0  0  0  0  0  0  0  0  0  0  0  0
  -27.0404  -28.1410   20.5519 C   0  0  0  0  0  0  0  0  0  0  0  0
  -24.9827  -31.2232   25.7381 C   0  0  0  0  0  0  0  0  0  0  0  0
  -27.0023  -16.3069   21.8107 C   0  0  0  0  0  0  0  0  0  0  0  0
  -26.1954  -30.2998   25.6791 C   0  0  0  0  0  0  0  0  0  0  0  0
  -26.9219  -14.7861   21.8850 C   0  0  0  0  0  0  0  0  0  0  0  0
  -25.7440  -16.9227   21.2003 C   0  0  0  0  0  0  0  0  0  0  0  0
  -25.3176  -14.8240   19.9396 C   0  0  0  0  0  0  0  0  0  0  0  0
  -27.4189  -31.0315   25.1143 C   0  0  1  0  0  0  0  0  0  0  0  0
  -27.5266  -30.4726   21.3580 C   0  0  1  0  0  0  0  0  0  0  0  0
  -26.6015  -14.1983   20.5033 C   0  0  2  0  0  0  0  0  0  0  0  0
  -30.8102  -23.4548   17.9428 C   0  0  0  0  0  0  0  0  0  0  0  0
  -21.7928  -28.3399   16.6064 C   0  0  0  0  0  0  0  0  0  0  0  0
  -23.8520  -28.1303   22.8981 C   0  0  0  0  0  0  0  0  0  0  0  0
  -22.2591  -27.3418   21.1349 C   0  0  0  0  0  0  0  0  0  0  0  0
  -22.3364  -29.7572   21.7534 C   0  0  0  0  0  0  0  0  0  0  0  0
  -25.3086  -29.3869   15.5971 C   0  0  0  0  0  0  0  0  0  0  0  0
  -30.0067  -24.4077   18.8115 C   0  0  2  0  0  0  0  0  0  1  0  0
  -24.2397  -28.7567   20.4236 C   0  0  1  0  0  0  0  0  0  0  0  0
  -23.1557  -28.9868   16.7984 C   0  0  2  0  0  0  0  0  0  0  0  0
  -23.1999  -28.4933   21.5491 C   0  0  0  0  0  0  0  0  0  0  0  0
  -25.3318  -12.0980   20.7487 N   0  0  0  0  0  0  0  0  0  0  0  0
  -26.5234  -12.6830   20.5388 N   0  0  0  0  0  0  0  0  0  0  0  0
  -26.5635  -29.5068   20.8252 N   0  0  0  0  0  0  0  0  0  0  0  0
  -25.3819  -16.2894   19.9249 N   0  0  0  0  0  0  0  0  0  0  0  0
  -24.5138  -24.8045   19.1319 N   0  0  0  0  0  0  0  0  0  0  0  0
  -28.8146  -12.2185   20.1579 N   0  0  0  0  0  0  0  0  0  0  0  0
  -26.9676   -8.1142   20.5308 N   0  0  0  0  0  0  0  0  0  0  0  0
  -26.9356  -23.3129   19.3202 N   0  0  0  0  0  0  0  0  0  0  0  0
  -24.9286  -18.4000   18.8814 N   0  0  0  0  0  0  0  0  0  0  0  0
  -27.3213  -31.1427   23.6746 N   0  0  0  0  0  0  0  0  0  0  0  0
  -23.6512  -29.1291   19.1416 N   0  0  0  0  0  0  0  0  0  0  0  0
  -24.1942  -18.8937   16.6863 N   0  3  0  0  0  0  0  0  0  0  0  0
  -23.9527  -28.7813   15.5561 N   0  3  0  0  0  0  0  0  0  0  0  0
  -28.9327   -9.2485   20.1988 O   0  0  0  0  0  0  0  0  0  0  0  0
  -29.3811  -23.8322   21.0964 O   0  0  0  0  0  0  0  0  0  0  0  0
  -28.5195  -21.5541   19.2984 O   0  0  0  0  0  0  0  0  0  0  0  0
  -28.1980  -29.0568   23.1243 O   0  0  0  0  0  0  0  0  0  0  0  0
  -24.7760  -30.9932   21.0041 O   0  0  0  0  0  0  0  0  0  0  0  0
  -24.5817  -27.3914   17.9202 O   0  0  0  0  0  0  0  0  0  0  0  0
  -24.6943  -16.4270   17.6974 O   0  0  0  0  0  0  0  0  0  0  0  0
  -21.5889   -6.9948   21.4540 O   0  0  0  0  0  0  0  0  0  0  0  0
  -30.8908  -25.3340   19.4415 O   0  0  0  0  0  0  0  0  0  1  0  0
  -17.9951   -7.8390   25.5498 F   0  0  0  0  0  0  0  0  0  0  0  0
  -21.3196   -5.1609   23.5051 F   0  0  0  0  0  0  0  0  0  0  0  0
  1  2  1  0  0  0  0
  1  6  2  0  0  0  0
  2  7  2  0  0  0  0
  3 10  2  0  0  0  0
  3 18  1  0  0  0  0
  4 11  1  0  0  0  0
  4 18  2  0  0  0  0
  5  9  2  0  0  0  0
  5 19  1  0  0  0  0
  6 21  1  0  0  0  0
  7 23  1  0  0  0  0
  8 12  2  0  0  0  0
  8 22  1  0  0  0  0
  9 25  1  0  0  0  0
 10 27  1  0  0  0  0
 11 27  2  0  0  0  0
 12 28  1  0  0  0  0
 13 14  2  0  0  0  0
 13 29  1  0  0  0  0
 14 30  1  0  0  0  0
 15 19  2  0  0  0  0
 15 26  1  0  0  0  0
 16 24  1  0  0  0  0
 16 28  2  0  0  0  0
 17 30  2  0  0  0  0
 17 31  1  0  0  0  0
 18 32  1  0  0  0  0
 19 34  1  0  0  0  0
 20 32  1  0  0  0  0
 20 33  2  0  0  0  0
 20 35  1  0  0  0  0
 21 23  2  0  0  0  0
 21 42  1  0  0  0  0
 22 24  2  0  0  0  0
 22 43  1  0  0  0  0
 23 51  1  0  0  0  0
 24 44  1  0  0  0  0
 25 26  2  0  0  0  0
 25 68  1  0  0  0  0
 26 71  1  0  0  0  0
 27 84  1  0  0  0  0
 28 85  1  0  0  0  0
 29 31  2  0  0  0  0
 29 84  1  0  0  0  0
 30 86  1  0  0  0  0
 31 87  1  0  0  0  0
 32 64  2  0  0  0  0
 33 65  1  0  0  0  0
 33 69  1  0  0  0  0
 34 72  1  0  0  0  0
 34 75  2  0  0  0  0
 35 70  1  0  0  0  0
 35 77  2  0  0  0  0
 36 37  1  0  0  0  0
 36 60  1  0  0  0  0
 36 78  2  0  0  0  0
 37 71  1  0  0  0  0
 37 79  2  0  0  0  0
 38 52  1  0  0  0  0
 38 73  1  0  0  0  0
 38 80  2  0  0  0  0
 39 61  1  0  0  0  0
 39 66  1  0  0  0  0
 39 81  2  0  0  0  0
 40 62  1  0  0  0  0
 40 74  1  0  0  0  0
 40 82  2  0  0  0  0
 41 67  1  0  0  0  0
 41 72  1  0  0  0  0
 41 83  2  0  0  0  0
 42 45  1  0  0  0  0
 43 52  1  0  0  0  0
 44 66  1  0  0  0  0
 45 47  1  0  0  0  0
 46 48  1  0  0  0  0
 46 49  1  0  0  0  0
 47 51  1  0  0  0  0
 48 53  1  0  0  0  0
 49 67  1  0  0  0  0
 50 53  1  0  0  0  0
 50 67  1  0  0  0  0
 51 73  1  0  0  0  0
 52 66  1  0  0  0  0
 53 65  1  0  0  0  0
 54 60  1  0  0  0  0
 55 62  1  0  0  0  0
 56 63  1  0  0  0  0
 57 63  1  0  0  0  0
 58 63  1  0  0  0  0
 59 76  1  0  0  0  0
 60 85  1  0  0  0  0
 61 63  1  0  0  0  0
 61 74  1  0  0  0  0
 62 76  1  0  0  0  0
 64 65  1  0  0  0  0
M  CHG  2  75   1  76   1
M  ISO  4  41 100  60 101  72 100  85 101
M  END
> <Batch ID>
0089

> <Smiles>
CNC(C)C(=O)NC(C(=O)N1Cc2cc([101O:1][101CH:1](C)C(=O)C(=O)Nc3cc(C(=N)[100NH:0][100C:0](=O)N4CCCC(n5nc(-c6ccc(Oc7ccc(F)cc7F)cc6)c(C(N)=O)c5N)C4)ccc3N)ccc2CC1C(=O)NC1CCCc2ccccc21)C(C)(C)C

> <Shape>
0.285

> <Color>
0.063

> <Negative vol penalty>
0.000

$$$$

  -OEChem-04052300263D

 81 89  0     1  0  0  0  0  0999 V2000
  -29.3832  -37.1184   22.1212 C   0  0  0  0  0  0  0  0  0  0  0  0
  -29.7697  -35.8059   21.8693 C   0  0  0  0  0  0  0  0  0  0  0  0
  -24.3619   -9.6547   21.5445 C   0  0  0  0  0  0  0  0  0  0  0  0
  -24.9130  -10.9132   23.5318 C   0  0  0  0  0  0  0  0  0  0  0  0
  -28.2723  -37.3750   22.9237 C   0  0  0  0  0  0  0  0  0  0  0  0
  -29.0460  -34.7492   22.4207 C   0  0  0  0  0  0  0  0  0  0  0  0
  -28.0017  -29.2779   19.8750 C   0  0  0  0  0  0  0  0  0  0  0  0
  -29.7941  -21.0157   18.7925 C   0  0  0  0  0  0  0  0  0  0  0  0
  -29.7774  -19.6319   18.9668 C   0  0  0  0  0  0  0  0  0  0  0  0
  -24.0645   -8.5422   22.3314 C   0  0  0  0  0  0  0  0  0  0  0  0
  -24.6156   -9.8006   24.3188 C   0  0  0  0  0  0  0  0  0  0  0  0
  -28.6144  -28.0360   20.0363 C   0  0  0  0  0  0  0  0  0  0  0  0
  -21.5055   -7.4705   24.2643 C   0  0  0  0  0  0  0  0  0  0  0  0
  -20.3373   -6.7654   23.9750 C   0  0  0  0  0  0  0  0  0  0  0  0
  -26.9180  -27.4135   21.6345 C   0  0  0  0  0  0  0  0  0  0  0  0
  -27.6474  -21.1797   19.8888 C   0  0  0  0  0  0  0  0  0  0  0  0
  -21.6423   -4.7761   23.5540 C   0  0  0  0  0  0  0  0  0  0  0  0
  -24.7862  -10.8403   22.1447 C   0  0  0  0  0  0  0  0  0  0  0  0
  -24.2098  -13.0093   20.9321 C   0  0  0  0  0  0  0  0  0  0  0  0
  -27.5290  -36.3207   23.4773 C   0  0  0  0  0  0  0  0  0  0  0  0
  -26.8468  -29.6016   20.6016 C   0  0  0  0  0  0  0  0  0  0  0  0
  -27.9249  -34.9919   23.2325 C   0  0  0  0  0  0  0  0  0  0  0  0
  -26.2911  -28.6592   21.4787 C   0  0  0  0  0  0  0  0  0  0  0  0
  -28.7291  -21.7896   19.2535 C   0  0  0  0  0  0  0  0  0  0  0  0
  -28.6957  -19.0220   19.6020 C   0  0  0  0  0  0  0  0  0  0  0  0
  -27.6307  -19.7958   20.0630 C   0  0  0  0  0  0  0  0  0  0  0  0
  -24.1913   -8.6151   23.7186 C   0  0  0  0  0  0  0  0  0  0  0  0
  -28.0742  -27.1046   20.9183 C   0  0  0  0  0  0  0  0  0  0  0  0
  -22.7421   -6.8285   24.1985 C   0  0  0  0  0  0  0  0  0  0  0  0
  -20.4057   -5.4182   23.6198 C   0  0  0  0  0  0  0  0  0  0  0  0
  -22.8105   -5.4813   23.8434 C   0  0  0  0  0  0  0  0  0  0  0  0
  -25.0941  -11.9897   21.3322 C   0  0  0  0  0  0  0  0  0  0  0  0
  -24.9835  -13.8594   20.1802 C   0  0  0  0  0  0  0  0  0  0  0  0
  -29.2870  -23.8644   20.0344 C   0  0  0  0  0  0  0  0  0  0  0  0
  -22.8138  -13.1735   21.2147 C   0  0  0  0  0  0  0  0  0  0  0  0
  -26.0998  -31.8144   22.7578 C   0  0  0  0  0  0  0  0  0  0  0  0
  -23.1198  -30.5777   22.4222 C   0  0  0  0  0  0  0  0  0  0  0  0
  -21.1684  -27.9173   21.5501 C   0  0  0  0  0  0  0  0  0  0  0  0
  -29.6895  -16.7199   19.3592 C   0  0  0  0  0  0  0  0  0  0  0  0
  -26.3637  -36.6482   24.3772 C   0  0  0  0  0  0  0  0  0  0  0  0
  -26.1827  -30.9355   20.3963 C   0  0  0  0  0  0  0  0  0  0  0  0
  -25.0412  -28.9500   22.2671 C   0  0  0  0  0  0  0  0  0  0  0  0
  -25.4284  -35.4659   24.6172 C   0  0  0  0  0  0  0  0  0  0  0  0
  -29.6738  -13.3025   18.3600 C   0  0  0  0  0  0  0  0  0  0  0  0
  -26.2288  -34.2116   24.9530 C   0  0  0  0  0  0  0  0  0  0  0  0
  -28.4082  -12.7402   19.0113 C   0  0  0  0  0  0  0  0  0  0  0  0
  -30.3636  -14.3303   19.2552 C   0  0  0  0  0  0  0  0  0  0  0  0
  -28.2354  -14.8589   20.3780 C   0  0  0  0  0  0  0  0  0  0  0  0
  -27.1508  -33.8183   23.7925 C   0  0  1  0  0  0  0  0  0  0  0  0
  -25.3028  -31.3519   21.5710 C   0  0  1  0  0  0  0  0  0  0  0  0
  -27.4704  -13.8673   19.4863 C   0  0  2  0  0  0  0  0  0  0  0  0
  -18.7692  -27.1936   21.4174 C   0  0  0  0  0  0  0  0  0  0  0  0
  -23.0627  -30.2201   25.4519 C   0  0  0  0  0  0  0  0  0  0  0  0
  -21.1196  -28.6682   25.1622 C   0  0  0  0  0  0  0  0  0  0  0  0
  -20.9239  -31.0537   24.4593 C   0  0  0  0  0  0  0  0  0  0  0  0
  -21.3368  -27.4941   18.6258 C   0  0  0  0  0  0  0  0  0  0  0  0
  -29.3708  -25.3594   19.9545 C   0  0  0  0  0  0  0  0  0  1  0  0
  -22.3406  -29.4701   23.0892 C   0  0  1  0  0  0  0  0  0  0  0  0
  -19.9365  -27.8177   20.6686 C   0  0  2  0  0  0  0  0  0  0  0  0
  -21.8864  -29.8480   24.5274 C   0  0  0  0  0  0  0  0  0  0  0  0
  -26.3347  -12.1733   20.8726 N   0  0  0  0  0  0  0  0  0  0  0  0
  -28.7460  -23.1836   19.0776 N   0  0  0  0  0  0  0  0  0  0  0  0
  -26.2354  -13.3181   20.1757 N   0  0  0  0  0  0  0  0  0  0  0  0
  -24.4323  -30.2704   22.0364 N   0  0  0  0  0  0  0  0  0  0  0  0
  -29.4154  -15.3695   19.6625 N   0  0  0  0  0  0  0  0  0  0  0  0
  -26.5242  -19.1989   20.7080 N   0  0  0  0  0  0  0  0  0  0  0  0
  -24.7084  -15.0095   19.5291 N   0  0  0  0  0  0  0  0  0  0  0  0
  -22.1736  -12.2075   22.0030 N   0  0  0  0  0  0  0  0  0  0  0  0
  -28.7008  -17.6147   19.7669 N   0  0  0  0  0  0  0  0  0  0  0  0
  -26.3950  -33.1643   22.7458 N   0  0  0  0  0  0  0  0  0  0  0  0
  -21.2453  -29.1392   22.1842 N   0  0  0  0  0  0  0  0  0  0  0  0
  -20.2247  -26.9832   19.4680 N   0  3  0  0  0  0  0  0  0  0  0  0
  -22.1498  -14.1392   20.7674 O   0  0  0  0  0  0  0  0  0  0  0  0
  -26.4218  -31.0066   23.6212 O   0  0  0  0  0  0  0  0  0  0  0  0
  -22.5813  -31.6730   22.2434 O   0  0  0  0  0  0  0  0  0  0  0  0
  -21.9793  -27.0012   21.6674 O   0  0  0  0  0  0  0  0  0  0  0  0
  -30.7124  -17.0548   18.7561 O   0  0  0  0  0  0  0  0  0  0  0  0
  -23.9009   -7.5297   24.4869 O   0  0  0  0  0  0  0  0  0  0  0  0
  -28.6706  -25.8919   21.0781 O   0  0  0  0  0  0  0  0  0  1  0  0
  -19.2837   -4.7408   23.3435 F   0  0  0  0  0  0  0  0  0  0  0  0
  -23.9955   -4.8588   23.7796 F   0  0  0  0  0  0  0  0  0  0  0  0
  1  2  1  0  0  0  0
  1  5  2  0  0  0  0
  2  6  2  0  0  0  0
  3 10  2  0  0  0  0
  3 18  1  0  0  0  0
  4 11  1  0  0  0  0
  4 18  2  0  0  0  0
  5 20  1  0  0  0  0
  6 22  1  0  0  0  0
  7 12  2  0  0  0  0
  7 21  1  0  0  0  0
  8  9  2  0  0  0  0
  8 24  1  0  0  0  0
  9 25  1  0  0  0  0
 10 27  1  0  0  0  0
 11 27  2  0  0  0  0
 12 28  1  0  0  0  0
 13 14  2  0  0  0  0
 13 29  1  0  0  0  0
 14 30  1  0  0  0  0
 15 23  1  0  0  0  0
 15 28  2  0  0  0  0
 16 24  2  0  0  0  0
 16 26  1  0  0  0  0
 17 30  2  0  0  0  0
 17 31  1  0  0  0  0
 18 32  1  0  0  0  0
 19 32  1  0  0  0  0
 19 33  2  0  0  0  0
 19 35  1  0  0  0  0
 20 22  2  0  0  0  0
 20 40  1  0  0  0  0
 21 23  2  0  0  0  0
 21 41  1  0  0  0  0
 22 49  1  0  0  0  0
 23 42  1  0  0  0  0
 24 62  1  0  0  0  0
 25 26  2  0  0  0  0
 25 69  1  0  0  0  0
 26 66  1  0  0  0  0
 27 78  1  0  0  0  0
 28 79  1  0  0  0  0
 29 31  2  0  0  0  0
 29 78  1  0  0  0  0
 30 80  1  0  0  0  0
 31 81  1  0  0  0  0
 32 61  2  0  0  0  0
 33 63  1  0  0  0  0
 33 67  1  0  0  0  0
 34 57  1  0  0  0  0
 34 62  2  0  0  0  0
 35 68  1  0  0  0  0
 35 73  2  0  0  0  0
 36 50  1  0  0  0  0
 36 70  1  0  0  0  0
 36 74  2  0  0  0  0
 37 58  1  0  0  0  0
 37 64  1  0  0  0  0
 37 75  2  0  0  0  0
 38 59  1  0  0  0  0
 38 71  1  0  0  0  0
 38 76  2  0  0  0  0
 39 65  1  0  0  0  0
 39 69  1  0  0  0  0
 39 77  2  0  0  0  0
 40 43  1  0  0  0  0
 41 50  1  0  0  0  0
 42 64  1  0  0  0  0
 43 45  1  0  0  0  0
 44 46  1  0  0  0  0
 44 47  1  0  0  0  0
 45 49  1  0  0  0  0
 46 51  1  0  0  0  0
 47 65  1  0  0  0  0
 48 51  1  0  0  0  0
 48 65  1  0  0  0  0
 49 70  1  0  0  0  0
 50 64  1  0  0  0  0
 51 63  1  0  0  0  0
 52 59  1  0  0  0  0
 53 60  1  0  0  0  0
 54 60  1  0  0  0  0
 55 60  1  0  0  0  0
 56 72  1  0  0  0  0
 57 79  1  0  0  0  0
 58 60  1  0  0  0  0
 58 71  1  0  0  0  0
 59 72  1  0  0  0  0
 61 63  1  0  0  0  0
M  CHG  1  72   1
M  ISO  4  39 100  57 101  69 100  79 101
M  END
> <Batch ID>
0089

> <Smiles>
CNC(C)C(=O)NC(C(=O)N1Cc2cc([101O:1][101CH:1]=CNc3ccc([100NH:0][100C:0](=O)N4CCCC(n5nc(-c6ccc(Oc7ccc(F)cc7F)cc6)c(C(N)=O)c5N)C4)c(N)c3)ccc2CC1C(=O)NC1CCCc2ccccc21)C(C)(C)C

> <Shape>
0.356

> <Color>
0.133

> <Negative vol penalty>
0.000

$$$$

  -OEChem-04052300263D

 85 94  0     1  0  0  0  0  0999 V2000
  -26.8193  -37.8821   21.3208 C   0  0  0  0  0  0  0  0  0  0  0  0
  -27.3961  -36.6877   20.9012 C   0  0  0  0  0  0  0  0  0  0  0  0
  -24.1392   -8.8811   21.4199 C   0  0  0  0  0  0  0  0  0  0  0  0
  -24.0772  -10.5820   23.1345 C   0  0  0  0  0  0  0  0  0  0  0  0
  -25.9365  -37.8874   22.4000 C   0  0  0  0  0  0  0  0  0  0  0  0
  -27.0912  -35.4978   21.5613 C   0  0  0  0  0  0  0  0  0  0  0  0
  -26.6003  -29.9259   19.0678 C   0  0  0  0  0  0  0  0  0  0  0  0
  -30.0911  -19.9823   19.5761 C   0  0  0  0  0  0  0  0  0  0  0  0
  -30.0242  -18.5926   19.4762 C   0  0  0  0  0  0  0  0  0  0  0  0
  -23.6323   -7.9494   22.3257 C   0  0  0  0  0  0  0  0  0  0  0  0
  -23.5702   -9.6503   24.0404 C   0  0  0  0  0  0  0  0  0  0  0  0
  -27.4853  -28.8513   18.9909 C   0  0  0  0  0  0  0  0  0  0  0  0
  -20.6274   -7.1421   23.6492 C   0  0  0  0  0  0  0  0  0  0  0  0
  -19.5995   -6.3064   23.2126 C   0  0  0  0  0  0  0  0  0  0  0  0
  -26.4548  -27.8711   20.9394 C   0  0  0  0  0  0  0  0  0  0  0  0
  -27.7056  -20.1227   19.2198 C   0  0  0  0  0  0  0  0  0  0  0  0
  -20.9837   -4.3752   23.6501 C   0  0  0  0  0  0  0  0  0  0  0  0
  -24.3618  -10.1974   21.8243 C   0  0  0  0  0  0  0  0  0  0  0  0
  -24.1505  -11.9990   20.0307 C   0  0  0  0  0  0  0  0  0  0  0  0
  -25.6131  -36.6955   23.0675 C   0  0  0  0  0  0  0  0  0  0  0  0
  -25.6414  -29.9865   20.0892 C   0  0  0  0  0  0  0  0  0  0  0  0
  -26.2042  -35.4873   22.6513 C   0  0  0  0  0  0  0  0  0  0  0  0
  -25.5571  -28.9462   21.0254 C   0  0  0  0  0  0  0  0  0  0  0  0
  -28.9318  -20.7473   19.4479 C   0  0  0  0  0  0  0  0  0  0  0  0
  -28.7980  -17.9680   19.2481 C   0  0  0  0  0  0  0  0  0  0  0  0
  -27.6387  -18.7331   19.1199 C   0  0  0  0  0  0  0  0  0  0  0  0
  -23.3477   -8.3340   23.6360 C   0  0  0  0  0  0  0  0  0  0  0  0
  -27.4146  -27.8251   19.9285 C   0  0  0  0  0  0  0  0  0  0  0  0
  -21.8335   -6.5943   24.0862 C   0  0  0  0  0  0  0  0  0  0  0  0
  -19.7776   -4.9230   23.2131 C   0  0  0  0  0  0  0  0  0  0  0  0
  -22.0116   -5.2109   24.0866 C   0  0  0  0  0  0  0  0  0  0  0  0
  -24.8860  -11.1601   20.8892 C   0  0  0  0  0  0  0  0  0  0  0  0
  -25.1045  -12.7181   19.3530 C   0  0  0  0  0  0  0  0  0  0  0  0
  -28.5067  -24.4222   19.6155 C   0  0  0  0  0  0  0  0  0  0  0  0
  -27.9260  -23.0638   19.4437 C   0  0  0  0  0  0  0  0  0  0  0  0
  -27.7551  -25.5226   19.6983 C   0  0  0  0  0  0  0  0  0  1  0  0
  -22.7318  -12.1177   19.8610 C   0  0  0  0  0  0  0  0  0  0  0  0
  -25.0442  -31.9829   22.4895 C   0  0  0  0  0  0  0  0  0  0  0  0
  -22.4208  -30.1147   22.8764 C   0  0  0  0  0  0  0  0  0  0  0  0
  -20.9246  -27.0855   22.3948 C   0  0  0  0  0  0  0  0  0  0  0  0
  -29.8259  -15.6681   19.2578 C   0  0  0  0  0  0  0  0  0  0  0  0
  -24.6902  -36.7581   24.2587 C   0  0  0  0  0  0  0  0  0  0  0  0
  -24.6766  -31.1392   20.1424 C   0  0  0  0  0  0  0  0  0  0  0  0
  -24.5326  -28.9539   22.1294 C   0  0  0  0  0  0  0  0  0  0  0  0
  -29.9908  -24.3419   19.7000 C   0  0  0  0  0  0  0  0  0  0  0  0
  -24.1298  -35.3981   24.6671 C   0  0  0  0  0  0  0  0  0  0  0  0
  -30.1255  -12.1231   19.1139 C   0  0  0  0  0  0  0  0  0  0  0  0
  -25.2407  -34.3535   24.7084 C   0  0  0  0  0  0  0  0  0  0  0  0
  -28.7286  -11.6256   19.4923 C   0  0  0  0  0  0  0  0  0  0  0  0
  -30.2478  -22.8527   19.8612 C   0  0  0  0  0  0  0  0  0  0  0  0
  -30.5168  -13.3703   19.9045 C   0  0  0  0  0  0  0  0  0  0  0  0
  -28.1499  -13.9739   20.2255 C   0  0  0  0  0  0  0  0  0  0  0  0
  -25.8792  -34.1723   23.3261 C   0  0  1  0  0  0  0  0  0  0  0  0
  -24.0763  -31.3525   21.5286 C   0  0  1  0  0  0  0  0  0  0  0  0
  -27.6855  -12.7571   19.4085 C   0  0  2  0  0  0  0  0  0  0  0  0
  -18.7910  -25.8469   22.8544 C   0  0  0  0  0  0  0  0  0  0  0  0
  -23.2572  -29.7598   25.7892 C   0  0  0  0  0  0  0  0  0  0  0  0
  -21.6874  -27.8145   25.9303 C   0  0  0  0  0  0  0  0  0  0  0  0
  -20.8034  -30.0955   25.4420 C   0  0  0  0  0  0  0  0  0  0  0  0
  -20.3884  -26.7040   19.5093 C   0  0  0  0  0  0  0  0  0  0  0  0
  -22.1057  -28.8631   23.6595 C   0  0  1  0  0  0  0  0  0  0  0  0
  -19.5524  -26.7130   21.8630 C   0  0  2  0  0  0  0  0  0  0  0  0
  -21.9841  -29.1337   25.1857 C   0  0  0  0  0  0  0  0  0  0  0  0
  -26.2055  -11.3294   20.7697 N   0  0  0  0  0  0  0  0  0  0  0  0
  -26.3066  -12.2829   19.8280 N   0  0  0  0  0  0  0  0  0  0  0  0
  -29.0007  -22.1716   19.5506 N   0  0  0  0  0  0  0  0  0  0  0  0
  -23.6157  -30.1056   22.1430 N   0  0  0  0  0  0  0  0  0  0  0  0
  -29.4840  -14.4007   19.7751 N   0  0  0  0  0  0  0  0  0  0  0  0
  -26.3863  -18.1209   18.8889 N   0  0  0  0  0  0  0  0  0  0  0  0
  -25.0240  -13.6739   18.4030 N   0  0  0  0  0  0  0  0  0  0  0  0
  -21.8956  -11.3037   20.6372 N   0  0  0  0  0  0  0  0  0  0  0  0
  -28.7552  -16.5550   19.1507 N   0  0  0  0  0  0  0  0  0  0  0  0
  -25.0287  -33.3646   22.4784 N   0  0  0  0  0  0  0  0  0  0  0  0
  -20.9050  -28.2954   23.0558 N   0  0  0  0  0  0  0  0  0  0  0  0
  -19.6797  -25.9608   20.5828 N   0  3  0  0  0  0  0  0  0  0  0  0
  -26.7373  -22.8623   19.2587 O   0  0  0  0  0  0  0  0  0  0  0  0
  -22.2211  -12.9101   19.0335 O   0  0  0  0  0  0  0  0  0  0  0  0
  -25.7516  -31.2686   23.1903 O   0  0  0  0  0  0  0  0  0  0  0  0
  -21.6322  -31.0627   22.9085 O   0  0  0  0  0  0  0  0  0  0  0  0
  -21.9141  -26.3725   22.2424 O   0  0  0  0  0  0  0  0  0  0  0  0
  -30.9781  -15.9370   18.9082 O   0  0  0  0  0  0  0  0  0  0  0  0
  -22.8528   -7.4252   24.5201 O   0  0  0  0  0  0  0  0  0  0  0  0
  -28.2776  -26.7755   19.8562 O   0  0  0  0  0  0  0  0  0  1  0  0
  -18.7898   -4.1206   22.7952 F   0  0  0  0  0  0  0  0  0  0  0  0
  -23.1677   -4.6787   24.5064 F   0  0  0  0  0  0  0  0  0  0  0  0
  1  2  1  0  0  0  0
  1  5  2  0  0  0  0
  2  6  2  0  0  0  0
  3 10  2  0  0  0  0
  3 18  1  0  0  0  0
  4 11  1  0  0  0  0
  4 18  2  0  0  0  0
  5 20  1  0  0  0  0
  6 22  1  0  0  0  0
  7 12  2  0  0  0  0
  7 21  1  0  0  0  0
  8  9  2  0  0  0  0
  8 24  1  0  0  0  0
  9 25  1  0  0  0  0
 10 27  1  0  0  0  0
 11 27  2  0  0  0  0
 12 28  1  0  0  0  0
 13 14  2  0  0  0  0
 13 29  1  0  0  0  0
 14 30  1  0  0  0  0
 15 23  1  0  0  0  0
 15 28  2  0  0  0  0
 16 24  2  0  0  0  0
 16 26  1  0  0  0  0
 17 30  2  0  0  0  0
 17 31  1  0  0  0  0
 18 32  1  0  0  0  0
 19 32  1  0  0  0  0
 19 33  2  0  0  0  0
 19 37  1  0  0  0  0
 20 22  2  0  0  0  0
 20 42  1  0  0  0  0
 21 23  2  0  0  0  0
 21 43  1  0  0  0  0
 22 53  1  0  0  0  0
 23 44  1  0  0  0  0
 24 66  1  0  0  0  0
 25 26  2  0  0  0  0
 25 72  1  0  0  0  0
 26 69  1  0  0  0  0
 27 82  1  0  0  0  0
 28 83  1  0  0  0  0
 29 31  2  0  0  0  0
 29 82  1  0  0  0  0
 30 84  1  0  0  0  0
 31 85  1  0  0  0  0
 32 64  2  0  0  0  0
 33 65  1  0  0  0  0
 33 70  1  0  0  0  0
 34 35  1  0  0  0  0
 34 36  2  0  0  0  0
 34 45  1  0  0  0  0
 35 66  1  0  0  0  0
 35 76  2  0  0  0  0
 36 83  1  0  0  0  0
 37 71  1  0  0  0  0
 37 77  2  0  0  0  0
 38 54  1  0  0  0  0
 38 73  1  0  0  0  0
 38 78  2  0  0  0  0
 39 61  1  0  0  0  0
 39 67  1  0  0  0  0
 39 79  2  0  0  0  0
 40 62  1  0  0  0  0
 40 74  1  0  0  0  0
 40 80  2  0  0  0  0
 41 68  1  0  0  0  0
 41 72  1  0  0  0  0
 41 81  2  0  0  0  0
 42 46  1  0  0  0  0
 43 54  1  0  0  0  0
 44 67  1  0  0  0  0
 45 50  1  0  0  0  0
 46 48  1  0  0  0  0
 47 49  1  0  0  0  0
 47 51  1  0  0  0  0
 48 53  1  0  0  0  0
 49 55  1  0  0  0  0
 50 66  1  0  0  0  0
 51 68  1  0  0  0  0
 52 55  1  0  0  0  0
 52 68  1  0  0  0  0
 53 73  1  0  0  0  0
 54 67  1  0  0  0  0
 55 65  1  0  0  0  0
 56 62  1  0  0  0  0
 57 63  1  0  0  0  0
 58 63  1  0  0  0  0
 59 63  1  0  0  0  0
 60 75  1  0  0  0  0
 61 63  1  0  0  0  0
 61 74  1  0  0  0  0
 62 75  1  0  0  0  0
 64 65  1  0  0  0  0
M  CHG  1  75   1
M  ISO  4  36 101  41 100  72 100  83 101
M  END
> <Batch ID>
0089

> <Smiles>
CNC(C)C(=O)NC(C(=O)N1Cc2cc([101O:1][101CH:1]=C3CCN(c4ccc([100NH:0][100C:0](=O)N5CCCC(n6nc(-c7ccc(Oc8ccc(F)cc8F)cc7)c(C(N)=O)c6N)C5)c(N)c4)C3=O)ccc2CC1C(=O)NC1CCCc2ccccc21)C(C)(C)C

> <Shape>
0.366

> <Color>
0.100

> <Negative vol penalty>
0.000

$$$$

  -OEChem-04052300263D

 84 92  0     1  0  0  0  0  0999 V2000
  -15.5250  -27.2504   23.2166 C   0  0  0  0  0  0  0  0  0  0  0  0
  -16.6480  -26.8216   22.5163 C   0  0  0  0  0  0  0  0  0  0  0  0
  -23.0670  -10.3561   20.4613 C   0  0  0  0  0  0  0  0  0  0  0  0
  -24.2082   -9.2019   22.2509 C   0  0  0  0  0  0  0  0  0  0  0  0
  -28.5418  -19.7851   18.6021 C   0  0  0  0  0  0  0  0  0  0  0  0
  -15.3836  -28.5974   23.5476 C   0  0  0  0  0  0  0  0  0  0  0  0
  -17.6298  -27.7399   22.1456 C   0  0  0  0  0  0  0  0  0  0  0  0
  -22.3155  -26.0453   23.0498 C   0  0  0  0  0  0  0  0  0  0  0  0
  -27.6011  -20.7211   19.0318 C   0  0  0  0  0  0  0  0  0  0  0  0
  -22.1235   -9.3306   20.4016 C   0  0  0  0  0  0  0  0  0  0  0  0
  -23.2646   -8.1764   22.1912 C   0  0  0  0  0  0  0  0  0  0  0  0
  -22.8452  -25.1251   22.1462 C   0  0  0  0  0  0  0  0  0  0  0  0
  -22.6347   -5.4805   20.2506 C   0  0  0  0  0  0  0  0  0  0  0  0
  -23.1024   -4.1668   20.2825 C   0  0  0  0  0  0  0  0  0  0  0  0
  -24.0894  -26.8962   21.0812 C   0  0  0  0  0  0  0  0  0  0  0  0
  -26.6772  -19.0919   20.5580 C   0  0  0  0  0  0  0  0  0  0  0  0
  -21.8321   -3.7634   22.2975 C   0  0  0  0  0  0  0  0  0  0  0  0
  -24.1094  -10.2918   21.3860 C   0  0  0  0  0  0  0  0  0  0  0  0
  -28.5501  -18.5025   19.1502 C   0  0  0  0  0  0  0  0  0  0  0  0
  -25.0263  -12.5152   22.2365 C   0  0  0  0  0  0  0  0  0  0  0  0
  -16.3687  -29.5310   23.1892 C   0  0  0  0  0  0  0  0  0  0  0  0
  -22.6609  -27.4019   22.9689 C   0  0  0  0  0  0  0  0  0  0  0  0
  -17.5007  -29.1008   22.4709 C   0  0  0  0  0  0  0  0  0  0  0  0
  -23.5647  -27.8311   21.9865 C   0  0  0  0  0  0  0  0  0  0  0  0
  -26.6689  -20.3745   20.0098 C   0  0  0  0  0  0  0  0  0  0  0  0
  -22.2222   -8.2408   21.2665 C   0  0  0  0  0  0  0  0  0  0  0  0
  -23.7300  -25.5509   21.1599 C   0  0  0  0  0  0  0  0  0  0  0  0
  -21.7657   -5.9357   21.2422 C   0  0  0  0  0  0  0  0  0  0  0  0
  -22.7011   -3.3083   21.3059 C   0  0  0  0  0  0  0  0  0  0  0  0
  -27.6179  -18.1559   20.1282 C   0  0  0  0  0  0  0  0  0  0  0  0
  -21.3643   -5.0772   22.2656 C   0  0  0  0  0  0  0  0  0  0  0  0
  -25.0848  -11.3506   21.4478 C   0  0  0  0  0  0  0  0  0  0  0  0
  -26.1833  -13.1917   21.9361 C   0  0  0  0  0  0  0  0  0  0  0  0
  -29.5520  -17.5081   18.6874 C   0  0  0  0  0  0  0  0  0  0  0  0
  -24.0165  -12.9469   23.1582 C   0  0  0  0  0  0  0  0  0  0  0  0
  -21.0587  -30.0973   22.4477 C   0  0  0  0  0  0  0  0  0  0  0  0
  -23.9224  -31.4697   23.1097 C   0  0  0  0  0  0  0  0  0  0  0  0
  -25.5649  -22.6362   20.0094 C   0  0  0  0  0  0  0  0  0  0  0  0
  -27.3200  -31.1710   23.2277 C   0  0  0  0  0  0  0  0  0  0  0  0
  -29.9189  -15.0899   18.3112 C   0  0  0  0  0  0  0  0  0  0  0  0
  -16.1491  -30.9842   23.5277 C   0  0  0  0  0  0  0  0  0  0  0  0
  -22.1016  -28.3775   23.9678 C   0  0  0  0  0  0  0  0  0  0  0  0
  -23.9833  -29.2732   21.8698 C   0  0  0  0  0  0  0  0  0  0  0  0
  -17.4147  -31.8315   23.4252 C   0  0  0  0  0  0  0  0  0  0  0  0
  -30.2798  -11.7277   19.3419 C   0  0  0  0  0  0  0  0  0  0  0  0
  -18.1556  -31.5294   22.1265 C   0  0  0  0  0  0  0  0  0  0  0  0
  -28.9590  -11.4248   20.0546 C   0  0  0  0  0  0  0  0  0  0  0  0
  -30.0734  -12.6230   18.1209 C   0  0  0  0  0  0  0  0  0  0  0  0
  -28.0095  -13.5557   19.0844 C   0  0  0  0  0  0  0  0  0  0  0  0
  -18.5992  -30.0625   22.0728 C   0  0  1  0  0  0  0  0  0  0  0  0
  -22.1233  -29.8198   23.4711 C   0  0  1  0  0  0  0  0  0  0  0  0
  -28.1727  -12.7152   20.3611 C   0  0  1  0  0  0  0  0  0  0  0  0
  -29.3943  -32.4740   23.7726 C   0  0  0  0  0  0  0  0  0  0  0  0
  -23.6806  -32.9589   20.4576 C   0  0  0  0  0  0  0  0  0  0  0  0
  -26.1264  -33.4737   20.6035 C   0  0  0  0  0  0  0  0  0  0  0  0
  -24.5662  -34.3342   22.3493 C   0  0  0  0  0  0  0  0  0  0  0  0
  -28.0655  -29.3001   25.3963 C   0  0  0  0  0  0  0  0  0  0  0  0
  -24.4175  -23.3143   20.7348 C   0  0  0  0  0  0  0  0  0  1  0  0
  -25.1295  -31.8701   22.2963 C   0  0  1  0  0  0  0  0  0  0  0  0
  -28.3261  -31.5320   24.3057 C   0  0  2  0  0  0  0  0  0  0  0  0
  -24.8665  -33.1323   21.4274 C   0  0  0  0  0  0  0  0  0  0  0  0
  -26.1912  -11.2876   20.7023 N   0  0  0  0  0  0  0  0  0  0  0  0
  -26.8387  -12.4213   21.0211 N   0  0  0  0  0  0  0  0  0  0  0  0
  -23.4043  -30.1899   22.8658 N   0  0  0  0  0  0  0  0  0  0  0  0
  -29.3301  -13.8269   18.4970 N   0  0  0  0  0  0  0  0  0  0  0  0
  -26.6938  -14.3644   22.3679 N   0  0  0  0  0  0  0  0  0  0  0  0
  -22.8925  -12.1315   23.3480 N   0  0  0  0  0  0  0  0  0  0  0  0
  -25.7147  -21.3242   20.4457 N   0  0  0  0  0  0  0  0  0  0  0  0
  -29.1461  -16.1744   18.7410 N   0  0  0  0  0  0  0  0  0  0  0  0
  -19.7730  -29.8591   22.8946 N   0  0  0  0  0  0  0  0  0  0  0  0
  -26.2299  -32.0152   23.2432 N   0  0  0  0  0  0  0  0  0  0  0  0
  -28.9964  -30.3046   24.8206 N   0  3  0  0  0  0  0  0  0  0  0  0
  -30.6330  -17.9031   18.2591 O   0  0  0  0  0  0  0  0  0  0  0  0
  -24.1004  -14.0318   23.7823 O   0  0  0  0  0  0  0  0  0  0  0  0
  -21.3799  -30.4993   21.3355 O   0  0  0  0  0  0  0  0  0  0  0  0
  -23.4607  -32.2604   23.9362 O   0  0  0  0  0  0  0  0  0  0  0  0
  -26.2287  -23.2265   19.1635 O   0  0  0  0  0  0  0  0  0  0  0  0
  -27.4864  -30.2362   22.4474 O   0  0  0  0  0  0  0  0  0  0  0  0
  -31.0504  -15.2376   17.8388 O   0  0  0  0  0  0  0  0  0  0  0  0
  -21.3015   -7.2400   21.2087 O   0  0  0  0  0  0  0  0  0  0  0  0
  -24.2480  -24.6549   20.2763 O   0  0  0  0  0  0  0  0  0  1  0  0
  -23.1492   -2.0463   21.3356 F   0  0  0  0  0  0  0  0  0  0  0  0
  -27.6163  -16.9259   20.6617 F   0  0  0  0  0  0  0  0  0  0  0  0
  -20.5287   -5.5084   23.2204 F   0  0  0  0  0  0  0  0  0  0  0  0
  1  2  1  0  0  0  0
  1  6  2  0  0  0  0
  2  7  2  0  0  0  0
  3 10  2  0  0  0  0
  3 18  1  0  0  0  0
  4 11  1  0  0  0  0
  4 18  2  0  0  0  0
  5  9  2  0  0  0  0
  5 19  1  0  0  0  0
  6 21  1  0  0  0  0
  7 23  1  0  0  0  0
  8 12  2  0  0  0  0
  8 22  1  0  0  0  0
  9 25  1  0  0  0  0
 10 26  1  0  0  0  0
 11 26  2  0  0  0  0
 12 27  1  0  0  0  0
 13 14  2  0  0  0  0
 13 28  1  0  0  0  0
 14 29  1  0  0  0  0
 15 24  1  0  0  0  0
 15 27  2  0  0  0  0
 16 25  2  0  0  0  0
 16 30  1  0  0  0  0
 17 29  2  0  0  0  0
 17 31  1  0  0  0  0
 18 32  1  0  0  0  0
 19 30  2  0  0  0  0
 19 34  1  0  0  0  0
 20 32  1  0  0  0  0
 20 33  2  0  0  0  0
 20 35  1  0  0  0  0
 21 23  2  0  0  0  0
 21 41  1  0  0  0  0
 22 24  2  0  0  0  0
 22 42  1  0  0  0  0
 23 50  1  0  0  0  0
 24 43  1  0  0  0  0
 25 68  1  0  0  0  0
 26 80  1  0  0  0  0
 27 81  1  0  0  0  0
 28 31  2  0  0  0  0
 28 80  1  0  0  0  0
 29 82  1  0  0  0  0
 30 83  1  0  0  0  0
 31 84  1  0  0  0  0
 32 62  2  0  0  0  0
 33 63  1  0  0  0  0
 33 66  1  0  0  0  0
 34 69  1  0  0  0  0
 34 73  2  0  0  0  0
 35 67  1  0  0  0  0
 35 74  2  0  0  0  0
 36 51  1  0  0  0  0
 36 70  1  0  0  0  0
 36 75  2  0  0  0  0
 37 59  1  0  0  0  0
 37 64  1  0  0  0  0
 37 76  2  0  0  0  0
 38 58  1  0  0  0  0
 38 68  1  0  0  0  0
 38 77  2  0  0  0  0
 39 60  1  0  0  0  0
 39 71  1  0  0  0  0
 39 78  2  0  0  0  0
 40 65  1  0  0  0  0
 40 69  1  0  0  0  0
 40 79  2  0  0  0  0
 41 44  1  0  0  0  0
 42 51  1  0  0  0  0
 43 64  1  0  0  0  0
 44 46  1  0  0  0  0
 45 47  1  0  0  0  0
 45 48  1  0  0  0  0
 46 50  1  0  0  0  0
 47 52  1  0  0  0  0
 48 65  1  0  0  0  0
 49 52  1  0  0  0  0
 49 65  1  0  0  0  0
 50 70  1  0  0  0  0
 51 64  1  0  0  0  0
 52 63  1  0  0  0  0
 53 60  1  0  0  0  0
 54 61  1  0  0  0  0
 55 61  1  0  0  0  0
 56 61  1  0  0  0  0
 57 72  1  0  0  0  0
 58 81  1  0  0  0  0
 59 61  1  0  0  0  0
 59 71  1  0  0  0  0
 60 72  1  0  0  0  0
 62 63  1  0  0  0  0
M  CHG  1  72   1
M  ISO  4  40 100  58 101  69 100  81 101
M  END
> <Batch ID>
0089

> <Smiles>
CNC(C)C(=O)NC(C(=O)N1Cc2cc([101O:1][101CH2:1]C(=O)Nc3ccc(C(=O)[100NH:0][100C:0](=O)N4CCCC(n5nc(-c6ccc(Oc7ccc(F)cc7F)cc6)c(C(N)=O)c5N)C4)c(F)c3)ccc2CC1C(=O)NC1CCCc2ccccc21)C(C)(C)C

> <Shape>
0.294

> <Color>
0.095

> <Negative vol penalty>
0.000

$$$$

  -OEChem-04052300263D

 88 97  0     1  0  0  0  0  0999 V2000
  -35.6588  -34.3389   27.1932 C   0  0  0  0  0  0  0  0  0  0  0  0
  -35.5578  -32.9721   27.4323 C   0  0  0  0  0  0  0  0  0  0  0  0
  -23.0810   -9.8009   19.9603 C   0  0  0  0  0  0  0  0  0  0  0  0
  -23.8263   -9.8517   22.2579 C   0  0  0  0  0  0  0  0  0  0  0  0
  -34.7377  -34.9692   26.3577 C   0  0  0  0  0  0  0  0  0  0  0  0
  -34.5348  -32.2350   26.8368 C   0  0  0  0  0  0  0  0  0  0  0  0
  -34.8337  -26.4417   24.8736 C   0  0  0  0  0  0  0  0  0  0  0  0
  -22.3463   -8.6449   20.2242 C   0  0  0  0  0  0  0  0  0  0  0  0
  -23.0915   -8.6958   22.5218 C   0  0  0  0  0  0  0  0  0  0  0  0
  -34.4331  -25.2354   25.4464 C   0  0  0  0  0  0  0  0  0  0  0  0
  -19.8672   -7.8775   23.1172 C   0  0  0  0  0  0  0  0  0  0  0  0
  -19.1032   -7.8493   24.2838 C   0  0  0  0  0  0  0  0  0  0  0  0
  -32.3569  -25.3512   24.2235 C   0  0  0  0  0  0  0  0  0  0  0  0
  -30.5880  -18.7538   23.5084 C   0  0  0  0  0  0  0  0  0  0  0  0
  -20.3579   -5.9356   25.0590 C   0  0  0  0  0  0  0  0  0  0  0  0
  -23.8210  -10.4043   20.9771 C   0  0  0  0  0  0  0  0  0  0  0  0
  -24.1402  -12.9303   20.8186 C   0  0  0  0  0  0  0  0  0  0  0  0
  -33.7086  -34.2377   25.7441 C   0  0  0  0  0  0  0  0  0  0  0  0
  -33.9929  -27.1185   23.9783 C   0  0  0  0  0  0  0  0  0  0  0  0
  -33.5982  -32.8564   25.9934 C   0  0  0  0  0  0  0  0  0  0  0  0
  -32.7503  -26.5647   23.6388 C   0  0  0  0  0  0  0  0  0  0  0  0
  -31.7828  -18.4154   24.1437 C   0  0  0  0  0  0  0  0  0  0  0  0
  -29.9985  -17.8630   22.6113 C   0  0  0  0  0  0  0  0  0  0  0  0
  -32.3882  -17.1864   23.8818 C   0  0  0  0  0  0  0  0  0  0  0  0
  -30.6039  -16.6340   22.3494 C   0  0  0  0  0  0  0  0  0  0  0  0
  -22.3515   -8.0924   21.5049 C   0  0  0  0  0  0  0  0  0  0  0  0
  -33.1933  -24.6914   25.1236 C   0  0  0  0  0  0  0  0  0  0  0  0
  -20.8765   -6.9348   22.9213 C   0  0  0  0  0  0  0  0  0  0  0  0
  -19.3486   -6.8783   25.2548 C   0  0  0  0  0  0  0  0  0  0  0  0
  -21.1218   -5.9638   23.8923 C   0  0  0  0  0  0  0  0  0  0  0  0
  -31.7988  -16.2956   22.9847 C   0  0  0  0  0  0  0  0  0  0  0  0
  -24.5807  -11.5980   20.7050 C   0  0  0  0  0  0  0  0  0  0  0  0
  -25.2276  -13.6840   20.4501 C   0  0  0  0  0  0  0  0  0  0  0  0
  -33.2049  -20.2880   26.9247 C   0  0  0  0  0  0  0  0  0  0  0  0
  -33.2910  -21.1972   25.9558 C   0  0  0  0  0  0  0  0  0  0  0  0
  -32.5968  -19.0706   26.3694 C   0  0  0  0  0  0  0  0  0  0  0  0
  -32.7564  -20.6009   24.7162 C   0  0  0  0  0  0  0  0  0  0  0  0
  -22.8623  -13.4408   21.2213 C   0  0  0  0  0  0  0  0  0  0  0  0
  -32.5573  -29.9544   23.9569 C   0  0  0  0  0  0  0  0  0  0  0  0
  -31.7367  -29.0809   20.9426 C   0  0  0  0  0  0  0  0  0  0  0  0
  -31.1958  -26.5650   18.7010 C   0  0  0  0  0  0  0  0  0  0  0  0
  -30.6826  -14.7836   20.6417 C   0  0  0  0  0  0  0  0  0  0  0  0
  -32.7083  -34.9714   24.8864 C   0  0  0  0  0  0  0  0  0  0  0  0
  -34.4511  -28.4053   23.3486 C   0  0  0  0  0  0  0  0  0  0  0  0
  -31.8192  -27.2416   22.6675 C   0  0  0  0  0  0  0  0  0  0  0  0
  -31.8776  -34.0505   23.9963 C   0  0  0  0  0  0  0  0  0  0  0  0
  -29.6057  -12.3217   18.3057 C   0  0  0  0  0  0  0  0  0  0  0  0
  -31.3592  -32.8598   24.7966 C   0  0  0  0  0  0  0  0  0  0  0  0
  -28.1661  -12.0236   18.7311 C   0  0  0  0  0  0  0  0  0  0  0  0
  -30.5110  -12.5784   19.5092 C   0  0  0  0  0  0  0  0  0  0  0  0
  -28.5887  -13.3069   20.8668 C   0  0  0  0  0  0  0  0  0  0  0  0
  -32.5173  -32.0182   25.3461 C   0  0  1  0  0  0  0  0  0  0  0  0
  -33.2979  -29.2676   22.8445 C   0  0  1  0  0  0  0  0  0  0  0  0
  -27.6250  -13.1057   19.6859 C   0  0  2  0  0  0  0  0  0  0  0  0
  -30.4976  -26.1600   16.3249 C   0  0  0  0  0  0  0  0  0  0  0  0
  -28.8376  -29.6585   21.6986 C   0  0  0  0  0  0  0  0  0  0  0  0
  -28.1256  -28.3633   19.6776 C   0  0  0  0  0  0  0  0  0  0  0  0
  -29.4936  -30.4324   19.4127 C   0  0  0  0  0  0  0  0  0  0  0  0
  -33.7727  -25.2667   18.0430 C   0  0  0  0  0  0  0  0  0  0  0  0
  -33.8246  -22.5817   26.0215 C   0  0  0  0  0  0  0  0  0  1  0  0
  -30.5780  -28.3377   20.3228 C   0  0  1  0  0  0  0  0  0  0  0  0
  -31.6689  -26.3703   17.2718 C   0  0  2  0  0  0  0  0  0  0  0  0
  -29.2752  -29.1860   20.2978 C   0  0  0  0  0  0  0  0  0  0  0  0
  -25.8490  -11.5074   20.2962 N   0  0  0  0  0  0  0  0  0  0  0  0
  -26.2147  -12.7922   20.1495 N   0  0  0  0  0  0  0  0  0  0  0  0
  -32.3515  -19.3190   25.0342 N   0  0  0  0  0  0  0  0  0  0  0  0
  -32.3096  -28.5008   22.0832 N   0  0  0  0  0  0  0  0  0  0  0  0
  -29.9369  -13.6178   20.3664 N   0  0  0  0  0  0  0  0  0  0  0  0
  -28.7879  -18.2259   21.9792 N   0  0  0  0  0  0  0  0  0  0  0  0
  -33.5985  -16.8254   24.5155 N   0  0  0  0  0  0  0  0  0  0  0  0
  -25.4261  -15.0161   20.3570 N   0  0  0  0  0  0  0  0  0  0  0  0
  -21.8568  -12.5277   21.5669 N   0  0  0  0  0  0  0  0  0  0  0  0
  -30.0215  -15.7155   21.4411 N   0  0  0  0  0  0  0  0  0  0  0  0
  -33.0777  -31.1869   24.3023 N   0  0  0  0  0  0  0  0  0  0  0  0
  -31.0310  -27.8993   19.0072 N   0  0  0  0  0  0  0  0  0  0  0  0
  -32.5662  -25.1839   17.1802 N   0  3  0  0  0  0  0  0  0  0  0  0
  -32.3790  -18.0633   27.0229 O   0  0  0  0  0  0  0  0  0  0  0  0
  -32.7042  -21.1789   23.6423 O   0  0  0  0  0  0  0  0  0  0  0  0
  -22.6143  -14.6699   21.2574 O   0  0  0  0  0  0  0  0  0  0  0  0
  -31.5847  -29.4072   24.4632 O   0  0  0  0  0  0  0  0  0  0  0  0
  -32.1239  -30.1336   20.4292 O   0  0  0  0  0  0  0  0  0  0  0  0
  -30.9892  -25.6271   19.4679 O   0  0  0  0  0  0  0  0  0  0  0  0
  -31.8130  -14.9554   20.1784 O   0  0  0  0  0  0  0  0  0  0  0  0
  -21.6345   -6.9646   21.7629 O   0  0  0  0  0  0  0  0  0  0  0  0
  -32.7995  -23.5144   25.6817 O   0  0  0  0  0  0  0  0  0  1  0  0
  -18.6159   -6.8523   26.3758 F   0  0  0  0  0  0  0  0  0  0  0  0
  -22.0908   -5.0563   23.7103 F   0  0  0  0  0  0  0  0  0  0  0  0
  -32.3814  -15.1132   22.7327 F   0  0  0  0  0  0  0  0  0  0  0  0
  1  2  1  0  0  0  0
  1  5  2  0  0  0  0
  2  6  2  0  0  0  0
  3  8  2  0  0  0  0
  3 16  1  0  0  0  0
  4  9  1  0  0  0  0
  4 16  2  0  0  0  0
  5 18  1  0  0  0  0
  6 20  1  0  0  0  0
  7 10  2  0  0  0  0
  7 19  1  0  0  0  0
  8 26  1  0  0  0  0
  9 26  2  0  0  0  0
 10 27  1  0  0  0  0
 11 12  2  0  0  0  0
 11 28  1  0  0  0  0
 12 29  1  0  0  0  0
 13 21  1  0  0  0  0
 13 27  2  0  0  0  0
 14 22  1  0  0  0  0
 14 23  2  0  0  0  0
 15 29  2  0  0  0  0
 15 30  1  0  0  0  0
 16 32  1  0  0  0  0
 17 32  1  0  0  0  0
 17 33  2  0  0  0  0
 17 38  1  0  0  0  0
 18 20  2  0  0  0  0
 18 43  1  0  0  0  0
 19 21  2  0  0  0  0
 19 44  1  0  0  0  0
 20 52  1  0  0  0  0
 21 45  1  0  0  0  0
 22 24  2  0  0  0  0
 22 66  1  0  0  0  0
 23 25  1  0  0  0  0
 23 69  1  0  0  0  0
 24 31  1  0  0  0  0
 24 70  1  0  0  0  0
 25 31  2  0  0  0  0
 25 73  1  0  0  0  0
 26 84  1  0  0  0  0
 27 85  1  0  0  0  0
 28 30  2  0  0  0  0
 28 84  1  0  0  0  0
 29 86  1  0  0  0  0
 30 87  1  0  0  0  0
 31 88  1  0  0  0  0
 32 64  2  0  0  0  0
 33 65  1  0  0  0  0
 33 71  1  0  0  0  0
 34 35  2  0  0  0  0
 34 36  1  0  0  0  0
 35 37  1  0  0  0  0
 35 60  1  0  0  0  0
 36 66  1  0  0  0  0
 36 77  2  0  0  0  0
 37 66  1  0  0  0  0
 37 78  2  0  0  0  0
 38 72  1  0  0  0  0
 38 79  2  0  0  0  0
 39 53  1  0  0  0  0
 39 74  1  0  0  0  0
 39 80  2  0  0  0  0
 40 61  1  0  0  0  0
 40 67  1  0  0  0  0
 40 81  2  0  0  0  0
 41 62  1  0  0  0  0
 41 75  1  0  0  0  0
 41 82  2  0  0  0  0
 42 68  1  0  0  0  0
 42 73  1  0  0  0  0
 42 83  2  0  0  0  0
 43 46  1  0  0  0  0
 44 53  1  0  0  0  0
 45 67  1  0  0  0  0
 46 48  1  0  0  0  0
 47 49  1  0  0  0  0
 47 50  1  0  0  0  0
 48 52  1  0  0  0  0
 49 54  1  0  0  0  0
 50 68  1  0  0  0  0
 51 54  1  0  0  0  0
 51 68  1  0  0  0  0
 52 74  1  0  0  0  0
 53 67  1  0  0  0  0
 54 65  1  0  0  0  0
 55 62  1  0  0  0  0
 56 63  1  0  0  0  0
 57 63  1  0  0  0  0
 58 63  1  0  0  0  0
 59 76  1  0  0  0  0
 60 85  1  0  0  0  0
 61 63  1  0  0  0  0
 61 75  1  0  0  0  0
 62 76  1  0  0  0  0
 64 65  1  0  0  0  0
M  CHG  1  76   1
M  ISO  4  42 100  60 101  73 100  85 101
M  END
> <Batch ID>
0089

> <Smiles>
CNC(C)C(=O)NC(C(=O)N1Cc2cc([101O:1][101CH2:1]C3=CC(=O)N(c4cc(N)c([100NH:0][100C:0](=O)N5CCCC(n6nc(-c7ccc(Oc8ccc(F)cc8F)cc7)c(C(N)=O)c6N)C5)c(F)c4N)C3=O)ccc2CC1C(=O)NC1CCCc2ccccc21)C(C)(C)C

> <Shape>
0.207

> <Color>
0.192

> <Negative vol penalty>
0.000

$$$$

  -OEChem-04052300263D

 85 94  0     1  0  0  0  0  0999 V2000
  -23.0143  -33.4336   13.3279 C   0  0  0  0  0  0  0  0  0  0  0  0
  -23.1790  -32.2099   13.9691 C   0  0  0  0  0  0  0  0  0  0  0  0
  -30.6091  -20.9248   21.5400 C   0  0  0  0  0  0  0  0  0  0  0  0
  -24.2936   -9.8760   21.9871 C   0  0  0  0  0  0  0  0  0  0  0  0
  -24.5441  -11.2064   23.9882 C   0  0  0  0  0  0  0  0  0  0  0  0
  -23.7186  -34.5521   13.7716 C   0  0  0  0  0  0  0  0  0  0  0  0
  -24.0490  -32.1039   15.0536 C   0  0  0  0  0  0  0  0  0  0  0  0
  -23.3706  -28.5320   19.9819 C   0  0  0  0  0  0  0  0  0  0  0  0
  -29.4773  -21.7225   21.7080 C   0  0  0  0  0  0  0  0  0  0  0  0
  -30.4703  -19.5828   21.1859 C   0  0  0  0  0  0  0  0  0  0  0  0
  -23.8445   -8.8029   22.7567 C   0  0  0  0  0  0  0  0  0  0  0  0
  -24.0950  -10.1332   24.7578 C   0  0  0  0  0  0  0  0  0  0  0  0
  -23.9007  -27.2872   20.3182 C   0  0  0  0  0  0  0  0  0  0  0  0
  -20.9789   -7.8594   24.2837 C   0  0  0  0  0  0  0  0  0  0  0  0
  -19.8566   -7.1640   23.8339 C   0  0  0  0  0  0  0  0  0  0  0  0
  -25.6483  -28.3774   21.5740 C   0  0  0  0  0  0  0  0  0  0  0  0
  -25.1362  -22.7491   22.4593 C   0  0  0  0  0  0  0  0  0  0  0  0
  -28.0677  -19.8360   21.1681 C   0  0  0  0  0  0  0  0  0  0  0  0
  -21.1633   -5.1357   23.7092 C   0  0  0  0  0  0  0  0  0  0  0  0
  -24.6434  -11.0777   22.6028 C   0  0  0  0  0  0  0  0  0  0  0  0
  -24.3262  -13.2042   21.2298 C   0  0  0  0  0  0  0  0  0  0  0  0
  -24.5903  -34.4619   14.8682 C   0  0  0  0  0  0  0  0  0  0  0  0
  -23.9827  -29.7111   20.4308 C   0  0  0  0  0  0  0  0  0  0  0  0
  -24.7666  -33.2220   15.5115 C   0  0  0  0  0  0  0  0  0  0  0  0
  -25.1225  -29.6359   21.2440 C   0  0  0  0  0  0  0  0  0  0  0  0
  -25.5899  -23.6120   21.4312 C   0  0  0  0  0  0  0  0  0  0  0  0
  -28.2066  -21.1781   21.5221 C   0  0  0  0  0  0  0  0  0  0  0  0
  -29.1996  -19.0384   21.0000 C   0  0  0  0  0  0  0  0  0  0  0  0
  -23.7452   -8.9315   24.1421 C   0  0  0  0  0  0  0  0  0  0  0  0
  -25.0414  -27.2098   21.1120 C   0  0  0  0  0  0  0  0  0  0  0  0
  -22.1935   -7.1930   24.4461 C   0  0  0  0  0  0  0  0  0  0  0  0
  -19.9487   -5.8021   23.5468 C   0  0  0  0  0  0  0  0  0  0  0  0
  -22.2857   -5.8311   24.1589 C   0  0  0  0  0  0  0  0  0  0  0  0
  -25.1080  -12.1864   21.8084 C   0  0  0  0  0  0  0  0  0  0  0  0
  -26.7887  -23.1115   20.9734 C   0  0  0  0  0  0  0  0  0  0  0  0
  -25.2329  -14.0079   20.5830 C   0  0  0  0  0  0  0  0  0  0  0  0
  -26.0717  -21.7477   22.5984 C   0  0  0  0  0  0  0  0  0  0  0  0
  -22.9072  -13.4052   21.2733 C   0  0  0  0  0  0  0  0  0  0  0  0
  -25.3507  -32.2074   19.0161 C   0  0  0  0  0  0  0  0  0  0  0  0
  -25.4818  -33.3582   22.0461 C   0  0  0  0  0  0  0  0  0  0  0  0
  -25.5290  -32.7023   25.3949 C   0  0  0  0  0  0  0  0  0  0  0  0
  -30.0788  -16.7461   20.4354 C   0  0  0  0  0  0  0  0  0  0  0  0
  -25.3658  -35.6875   15.2817 C   0  0  0  0  0  0  0  0  0  0  0  0
  -23.3831  -31.0456   20.0813 C   0  0  0  0  0  0  0  0  0  0  0  0
  -25.8055  -30.8716   21.7684 C   0  0  0  0  0  0  0  0  0  0  0  0
  -25.9840  -35.5764   16.6731 C   0  0  0  0  0  0  0  0  0  0  0  0
  -30.1420  -13.2907   19.5790 C   0  0  0  0  0  0  0  0  0  0  0  0
  -26.6798  -34.2295   16.8421 C   0  0  0  0  0  0  0  0  0  0  0  0
  -28.7736  -12.7791   20.0350 C   0  0  0  0  0  0  0  0  0  0  0  0
  -30.7017  -14.3425   20.5351 C   0  0  0  0  0  0  0  0  0  0  0  0
  -28.4326  -14.9560   21.2727 C   0  0  0  0  0  0  0  0  0  0  0  0
  -25.6824  -33.0726   16.7070 C   0  0  1  0  0  0  0  0  0  0  0  0
  -24.3857  -32.1922   20.1677 C   0  0  1  0  0  0  0  0  0  0  0  0
  -27.7990  -13.9419   20.3064 C   0  0  2  0  0  0  0  0  0  0  0  0
  -27.6827  -23.6254   19.9113 C   0  0  0  0  0  0  0  0  0  0  0  0
  -25.6798  -33.8449   27.6240 C   0  0  0  0  0  0  0  0  0  0  0  0
  -28.4712  -33.7942   21.6177 C   0  0  0  0  0  0  0  0  0  0  0  0
  -28.7233  -34.0175   24.0986 C   0  0  0  0  0  0  0  0  0  0  0  0
  -27.3117  -35.6433   22.8388 C   0  0  0  0  0  0  0  0  0  0  0  0
  -22.8823  -31.6750   26.2306 C   0  0  0  0  0  0  0  0  0  0  0  0
  -24.8871  -24.8429   20.9390 C   0  0  0  0  0  0  0  0  0  1  0  0
  -26.4787  -33.2803   23.1771 C   0  0  1  0  0  0  0  0  0  0  0  0
  -24.7490  -33.3035   26.5501 C   0  0  2  0  0  0  0  0  0  0  0  0
  -27.7347  -34.1604   22.9217 C   0  0  0  0  0  0  0  0  0  0  0  0
  -26.4110  -12.3282   21.5516 N   0  0  0  0  0  0  0  0  0  0  0  0
  -27.0719  -21.9783   21.6903 N   0  0  0  0  0  0  0  0  0  0  0  0
  -26.4550  -13.4444   20.8045 N   0  0  0  0  0  0  0  0  0  0  0  0
  -25.1849  -32.1530   21.3941 N   0  0  0  0  0  0  0  0  0  0  0  0
  -29.7257  -15.4148   20.7413 N   0  0  0  0  0  0  0  0  0  0  0  0
  -25.0960  -15.1345   19.8520 N   0  0  0  0  0  0  0  0  0  0  0  0
  -22.1234  -12.4848   21.9825 N   0  0  0  0  0  0  0  0  0  0  0  0
  -29.0592  -17.6749   20.6409 N   0  0  0  0  0  0  0  0  0  0  0  0
  -24.9097  -32.9269   17.9220 N   0  0  0  0  0  0  0  0  0  0  0  0
  -25.7460  -33.6227   24.3913 N   0  0  0  0  0  0  0  0  0  0  0  0
  -23.8651  -32.2755   27.1689 N   0  3  0  0  0  0  0  0  0  0  0  0
  -22.3491  -14.3632   20.6866 O   0  0  0  0  0  0  0  0  0  0  0  0
  -26.4171  -31.6116   19.1137 O   0  0  0  0  0  0  0  0  0  0  0  0
  -24.9796  -34.4471   21.7566 O   0  0  0  0  0  0  0  0  0  0  0  0
  -25.9111  -31.5342   25.3854 O   0  0  0  0  0  0  0  0  0  0  0  0
  -31.1943  -17.0369   19.9958 O   0  0  0  0  0  0  0  0  0  0  0  0
  -26.1025  -20.7067   23.4219 O   0  0  0  0  0  0  0  0  0  0  0  0
  -23.3067   -7.8846   24.8934 O   0  0  0  0  0  0  0  0  0  0  0  0
  -25.5612  -25.9960   21.4412 O   0  0  0  0  0  0  0  0  0  1  0  0
  -18.8704   -5.1341   23.1164 F   0  0  0  0  0  0  0  0  0  0  0  0
  -23.4495   -5.1852   24.3142 F   0  0  0  0  0  0  0  0  0  0  0  0
  1  2  1  0  0  0  0
  1  6  2  0  0  0  0
  2  7  2  0  0  0  0
  3  9  2  0  0  0  0
  3 10  1  0  0  0  0
  4 11  2  0  0  0  0
  4 20  1  0  0  0  0
  5 12  1  0  0  0  0
  5 20  2  0  0  0  0
  6 22  1  0  0  0  0
  7 24  1  0  0  0  0
  8 13  2  0  0  0  0
  8 23  1  0  0  0  0
  9 27  1  0  0  0  0
 10 28  2  0  0  0  0
 11 29  1  0  0  0  0
 12 29  2  0  0  0  0
 13 30  1  0  0  0  0
 14 15  2  0  0  0  0
 14 31  1  0  0  0  0
 15 32  1  0  0  0  0
 16 25  1  0  0  0  0
 16 30  2  0  0  0  0
 17 26  1  0  0  0  0
 17 37  2  0  0  0  0
 18 27  2  0  0  0  0
 18 28  1  0  0  0  0
 19 32  2  0  0  0  0
 19 33  1  0  0  0  0
 20 34  1  0  0  0  0
 21 34  1  0  0  0  0
 21 36  2  0  0  0  0
 21 38  1  0  0  0  0
 22 24  2  0  0  0  0
 22 43  1  0  0  0  0
 23 25  2  0  0  0  0
 23 44  1  0  0  0  0
 24 52  1  0  0  0  0
 25 45  1  0  0  0  0
 26 35  2  0  0  0  0
 26 61  1  0  0  0  0
 27 66  1  0  0  0  0
 28 72  1  0  0  0  0
 29 82  1  0  0  0  0
 30 83  1  0  0  0  0
 31 33  2  0  0  0  0
 31 82  1  0  0  0  0
 32 84  1  0  0  0  0
 33 85  1  0  0  0  0
 34 65  2  0  0  0  0
 35 55  1  0  0  0  0
 35 66  1  0  0  0  0
 36 67  1  0  0  0  0
 36 70  1  0  0  0  0
 37 66  1  0  0  0  0
 37 81  1  0  0  0  0
 38 71  1  0  0  0  0
 38 76  2  0  0  0  0
 39 53  1  0  0  0  0
 39 73  1  0  0  0  0
 39 77  2  0  0  0  0
 40 62  1  0  0  0  0
 40 68  1  0  0  0  0
 40 78  2  0  0  0  0
 41 63  1  0  0  0  0
 41 74  1  0  0  0  0
 41 79  2  0  0  0  0
 42 69  1  0  0  0  0
 42 72  1  0  0  0  0
 42 80  2  0  0  0  0
 43 46  1  0  0  0  0
 44 53  1  0  0  0  0
 45 68  1  0  0  0  0
 46 48  1  0  0  0  0
 47 49  1  0  0  0  0
 47 50  1  0  0  0  0
 48 52  1  0  0  0  0
 49 54  1  0  0  0  0
 50 69  1  0  0  0  0
 51 54  1  0  0  0  0
 51 69  1  0  0  0  0
 52 73  1  0  0  0  0
 53 68  1  0  0  0  0
 54 67  1  0  0  0  0
 56 63  1  0  0  0  0
 57 64  1  0  0  0  0
 58 64  1  0  0  0  0
 59 64  1  0  0  0  0
 60 75  1  0  0  0  0
 61 83  1  0  0  0  0
 62 64  1  0  0  0  0
 62 74  1  0  0  0  0
 63 75  1  0  0  0  0
 65 67  1  0  0  0  0
M  CHG  1  75   1
M  ISO  4  42 100  61 101  72 100  83 101
M  END
> <Batch ID>
0089

> <Smiles>
CNC(C)C(=O)NC(C(=O)N1Cc2cc([101O:1][101CH2:1]C3=C(C)N(c4cccc([100NH:0][100C:0](=O)N5CCCC(n6nc(-c7ccc(Oc8ccc(F)cc8F)cc7)c(C(N)=O)c6N)C5)c4)C(=O)C3)ccc2CC1C(=O)NC1CCCc2ccccc21)C(C)(C)C

> <Shape>
0.249

> <Color>
0.119

> <Negative vol penalty>
0.000

$$$$

  -OEChem-04052300263D

 86 94  0     1  0  0  0  0  0999 V2000
  -16.8302  -29.4201   24.5728 C   0  0  0  0  0  0  0  0  0  0  0  0
  -18.0193  -29.8218   25.1728 C   0  0  0  0  0  0  0  0  0  0  0  0
  -27.4463  -16.0065   20.3197 C   0  0  0  0  0  0  0  0  0  0  0  0
  -28.9005  -14.4463   21.4548 C   0  0  0  0  0  0  0  0  0  0  0  0
  -32.7892  -25.6743   19.7485 C   0  0  0  0  0  0  0  0  0  0  0  0
  -16.8619  -28.6084   23.4397 C   0  0  0  0  0  0  0  0  0  0  0  0
  -19.2410  -29.4110   24.6406 C   0  0  0  0  0  0  0  0  0  0  0  0
  -25.9936  -31.6456   23.7889 C   0  0  0  0  0  0  0  0  0  0  0  0
  -32.0101  -26.4547   20.6026 C   0  0  0  0  0  0  0  0  0  0  0  0
  -26.4685  -15.0176   20.2131 C   0  0  0  0  0  0  0  0  0  0  0  0
  -27.9226  -13.4574   21.3481 C   0  0  0  0  0  0  0  0  0  0  0  0
  -27.3033  -31.2309   24.0263 C   0  0  0  0  0  0  0  0  0  0  0  0
  -25.0519  -12.6155   22.9201 C   0  0  0  0  0  0  0  0  0  0  0  0
  -24.7898  -11.8410   24.0501 C   0  0  0  0  0  0  0  0  0  0  0  0
  -27.2376  -29.8945   22.0190 C   0  0  0  0  0  0  0  0  0  0  0  0
  -25.4078   -9.8501   22.8289 C   0  0  0  0  0  0  0  0  0  0  0  0
  -28.6623  -15.7209   20.9405 C   0  0  0  0  0  0  0  0  0  0  0  0
  -32.8609  -24.2939   19.9361 C   0  0  0  0  0  0  0  0  0  0  0  0
  -29.8404  -17.6626   22.1022 C   0  0  0  0  0  0  0  0  0  0  0  0
  -18.0847  -28.1955   22.8876 C   0  0  0  0  0  0  0  0  0  0  0  0
  -25.2910  -31.1785   22.6688 C   0  0  0  0  0  0  0  0  0  0  0  0
  -19.2890  -28.5920   23.4997 C   0  0  0  0  0  0  0  0  0  0  0  0
  -25.9199  -30.3068   21.7684 C   0  0  0  0  0  0  0  0  0  0  0  0
  -31.3027  -25.8547   21.6444 C   0  0  0  0  0  0  0  0  0  0  0  0
  -31.3744  -24.4744   21.8321 C   0  0  0  0  0  0  0  0  0  0  0  0
  -26.7066  -13.7430   20.7273 C   0  0  0  0  0  0  0  0  0  0  0  0
  -27.9245  -30.3530   23.1428 C   0  0  0  0  0  0  0  0  0  0  0  0
  -25.4920  -12.0074   21.7444 C   0  0  0  0  0  0  0  0  0  0  0  0
  -24.9678  -10.4583   24.0045 C   0  0  0  0  0  0  0  0  0  0  0  0
  -25.6699  -10.6247   21.6988 C   0  0  0  0  0  0  0  0  0  0  0  0
  -32.1536  -23.6940   20.9779 C   0  0  0  0  0  0  0  0  0  0  0  0
  -29.6731  -16.7419   21.0505 C   0  0  0  0  0  0  0  0  0  0  0  0
  -30.9319  -18.4104   21.7334 C   0  0  0  0  0  0  0  0  0  0  0  0
  -33.6921  -23.4673   19.0236 C   0  0  0  0  0  0  0  0  0  0  0  0
  -29.0775  -17.8272   23.3049 C   0  0  0  0  0  0  0  0  0  0  0  0
  -22.6469  -29.4693   22.2318 C   0  0  0  0  0  0  0  0  0  0  0  0
  -23.1735  -30.1751   19.1098 C   0  0  0  0  0  0  0  0  0  0  0  0
  -25.3954  -31.0528   16.6727 C   0  0  0  0  0  0  0  0  0  0  0  0
  -30.3441  -28.0459   22.4312 C   0  0  0  0  0  0  0  0  0  0  0  0
  -33.8608  -21.2336   17.9719 C   0  0  0  0  0  0  0  0  0  0  0  0
  -18.0678  -27.2795   21.6895 C   0  0  0  0  0  0  0  0  0  0  0  0
  -23.8880  -31.6563   22.4126 C   0  0  0  0  0  0  0  0  0  0  0  0
  -25.2161  -29.7922   20.5402 C   0  0  0  0  0  0  0  0  0  0  0  0
  -19.4103  -27.1959   20.9677 C   0  0  0  0  0  0  0  0  0  0  0  0
  -34.2909  -17.7249   18.0049 C   0  0  0  0  0  0  0  0  0  0  0  0
  -20.5439  -27.0013   21.9697 C   0  0  0  0  0  0  0  0  0  0  0  0
  -33.1466  -17.2292   18.8934 C   0  0  0  0  0  0  0  0  0  0  0  0
  -33.8611  -18.9018   17.1302 C   0  0  0  0  0  0  0  0  0  0  0  0
  -32.1019  -19.5244   18.7352 C   0  0  0  0  0  0  0  0  0  0  0  0
  -20.6345  -28.1875   22.9374 C   0  0  1  0  0  0  0  0  0  0  0  0
  -23.0902  -30.7141   21.5164 C   0  0  1  0  0  0  0  0  0  0  0  0
  -32.5042  -18.3853   19.6859 C   0  0  1  0  0  0  0  0  0  0  0  0
  -25.5367  -31.5194   14.2110 C   0  0  0  0  0  0  0  0  0  0  0  0
  -30.0030  -28.2857   24.9183 C   0  0  0  0  0  0  0  0  0  0  0  0
  -23.0154  -27.1825   18.5360 C   0  0  0  0  0  0  0  0  0  0  0  0
  -24.0841  -27.6226   16.3151 C   0  0  0  0  0  0  0  0  0  0  0  0
  -21.8658  -28.6298   16.8513 C   0  0  0  0  0  0  0  0  0  0  0  0
  -26.3108  -33.8293   17.1335 C   0  0  0  0  0  0  0  0  0  0  0  0
  -23.9409  -29.5283   17.9821 C   0  0  1  0  0  0  0  0  0  0  0  0
  -25.3382  -32.1196   15.5941 C   0  0  2  0  0  0  0  0  0  0  0  0
  -29.4186  -28.5453   23.5377 C   0  0  1  0  0  0  0  0  0  1  0  0
  -23.2394  -28.2488   17.4452 C   0  0  0  0  0  0  0  0  0  0  0  0
  -30.5851  -16.8895   20.0859 N   0  0  0  0  0  0  0  0  0  0  0  0
  -31.3360  -17.9118   20.5300 N   0  0  0  0  0  0  0  0  0  0  0  0
  -23.8432  -30.2834   20.3367 N   0  0  0  0  0  0  0  0  0  0  0  0
  -33.2722  -19.9571   17.9566 N   0  0  0  0  0  0  0  0  0  0  0  0
  -30.6649  -23.8486   22.8817 N   0  0  0  0  0  0  0  0  0  0  0  0
  -31.5757  -19.4393   22.3244 N   0  0  0  0  0  0  0  0  0  0  0  0
  -27.9878  -16.9742   23.5269 N   0  0  0  0  0  0  0  0  0  0  0  0
  -30.5190  -26.6675   22.4977 N   0  0  0  0  0  0  0  0  0  0  0  0
  -33.2496  -22.1592   18.8251 N   0  0  0  0  0  0  0  0  0  0  0  0
  -21.2752  -29.3154   22.2957 N   0  0  0  0  0  0  0  0  0  0  0  0
  -24.1416  -30.5663   16.9768 N   0  0  0  0  0  0  0  0  0  0  0  0
  -26.3991  -33.1416   15.8197 N   0  3  0  0  0  0  0  0  0  0  0  0
  -34.6690  -23.9751   18.4798 O   0  0  0  0  0  0  0  0  0  0  0  0
  -29.3439  -18.7154   24.1497 O   0  0  0  0  0  0  0  0  0  0  0  0
  -23.4873  -28.7043   22.6903 O   0  0  0  0  0  0  0  0  0  0  0  0
  -22.0246  -30.5762   18.9073 O   0  0  0  0  0  0  0  0  0  0  0  0
  -26.4475  -30.6851   17.1907 O   0  0  0  0  0  0  0  0  0  0  0  0
  -30.8262  -28.8183   21.6078 O   0  0  0  0  0  0  0  0  0  0  0  0
  -34.8664  -21.5146   17.3124 O   0  0  0  0  0  0  0  0  0  0  0  0
  -25.7525  -12.7778   20.6236 O   0  0  0  0  0  0  0  0  0  0  0  0
  -29.2027  -29.9461   23.3725 O   0  0  0  0  0  0  0  0  0  1  0  0
  -24.7175   -9.7148   25.0902 F   0  0  0  0  0  0  0  0  0  0  0  0
  -26.0936  -10.0349   20.5725 F   0  0  0  0  0  0  0  0  0  0  0  0
  -32.2231  -22.3660   21.1577 F   0  0  0  0  0  0  0  0  0  0  0  0
  1  2  1  0  0  0  0
  1  6  2  0  0  0  0
  2  7  2  0  0  0  0
  3 10  2  0  0  0  0
  3 17  1  0  0  0  0
  4 11  1  0  0  0  0
  4 17  2  0  0  0  0
  5  9  2  0  0  0  0
  5 18  1  0  0  0  0
  6 20  1  0  0  0  0
  7 22  1  0  0  0  0
  8 12  2  0  0  0  0
  8 21  1  0  0  0  0
  9 24  1  0  0  0  0
 10 26  1  0  0  0  0
 11 26  2  0  0  0  0
 12 27  1  0  0  0  0
 13 14  2  0  0  0  0
 13 28  1  0  0  0  0
 14 29  1  0  0  0  0
 15 23  1  0  0  0  0
 15 27  2  0  0  0  0
 16 29  2  0  0  0  0
 16 30  1  0  0  0  0
 17 32  1  0  0  0  0
 18 31  2  0  0  0  0
 18 34  1  0  0  0  0
 19 32  1  0  0  0  0
 19 33  2  0  0  0  0
 19 35  1  0  0  0  0
 20 22  2  0  0  0  0
 20 41  1  0  0  0  0
 21 23  2  0  0  0  0
 21 42  1  0  0  0  0
 22 50  1  0  0  0  0
 23 43  1  0  0  0  0
 24 25  2  0  0  0  0
 24 70  1  0  0  0  0
 25 31  1  0  0  0  0
 25 67  1  0  0  0  0
 26 82  1  0  0  0  0
 27 83  1  0  0  0  0
 28 30  2  0  0  0  0
 28 82  1  0  0  0  0
 29 84  1  0  0  0  0
 30 85  1  0  0  0  0
 31 86  1  0  0  0  0
 32 63  2  0  0  0  0
 33 64  1  0  0  0  0
 33 68  1  0  0  0  0
 34 71  1  0  0  0  0
 34 75  2  0  0  0  0
 35 69  1  0  0  0  0
 35 76  2  0  0  0  0
 36 51  1  0  0  0  0
 36 72  1  0  0  0  0
 36 77  2  0  0  0  0
 37 59  1  0  0  0  0
 37 65  1  0  0  0  0
 37 78  2  0  0  0  0
 38 60  1  0  0  0  0
 38 73  1  0  0  0  0
 38 79  2  0  0  0  0
 39 61  1  0  0  0  0
 39 70  1  0  0  0  0
 39 80  2  0  0  0  0
 40 66  1  0  0  0  0
 40 71  1  0  0  0  0
 40 81  2  0  0  0  0
 41 44  1  0  0  0  0
 42 51  1  0  0  0  0
 43 65  1  0  0  0  0
 44 46  1  0  0  0  0
 45 47  1  0  0  0  0
 45 48  1  0  0  0  0
 46 50  1  0  0  0  0
 47 52  1  0  0  0  0
 48 66  1  0  0  0  0
 49 52  1  0  0  0  0
 49 66  1  0  0  0  0
 50 72  1  0  0  0  0
 51 65  1  0  0  0  0
 52 64  1  0  0  0  0
 53 60  1  0  0  0  0
 54 61  1  0  0  0  0
 55 62  1  0  0  0  0
 56 62  1  0  0  0  0
 57 62  1  0  0  0  0
 58 74  1  0  0  0  0
 59 62  1  0  0  0  0
 59 73  1  0  0  0  0
 60 74  1  0  0  0  0
 61 83  1  0  0  0  0
 63 64  1  0  0  0  0
M  CHG  1  74   1
M  ISO  4  40 100  61 101  71 100  83 101
M  END
> <Batch ID>
0089

> <Smiles>
CNC(C)C(=O)NC(C(=O)N1Cc2cc([101O:1][101CH:1](C)C(=O)Nc3ccc(C(=O)[100NH:0][100C:0](=O)N4CCCC(n5nc(-c6ccc(Oc7ccc(F)cc7F)cc6)c(C(N)=O)c5N)C4)c(F)c3N)ccc2CC1C(=O)NC1CCCc2ccccc21)C(C)(C)C

> <Shape>
0.223

> <Color>
0.083

> <Negative vol penalty>
0.000

$$$$

  -OEChem-04052300263D

 85 93  0     1  0  0  0  0  0999 V2000
  -29.8321  -29.5046   26.4426 C   0  0  0  0  0  0  0  0  0  0  0  0
  -29.3615  -28.6770   25.4282 C   0  0  0  0  0  0  0  0  0  0  0  0
  -24.6718   -8.9503   21.1839 C   0  0  0  0  0  0  0  0  0  0  0  0
  -22.9454  -10.5764   20.7227 C   0  0  0  0  0  0  0  0  0  0  0  0
  -28.9394  -30.2917   27.1690 C   0  0  0  0  0  0  0  0  0  0  0  0
  -27.9978  -28.6352   25.1403 C   0  0  0  0  0  0  0  0  0  0  0  0
  -27.0564  -28.7950   20.1671 C   0  0  0  0  0  0  0  0  0  0  0  0
  -23.6986   -7.9661   21.3568 C   0  0  0  0  0  0  0  0  0  0  0  0
  -21.9722   -9.5922   20.8956 C   0  0  0  0  0  0  0  0  0  0  0  0
  -27.2374  -27.6153   19.4465 C   0  0  0  0  0  0  0  0  0  0  0  0
  -21.5271   -7.0065   23.7626 C   0  0  0  0  0  0  0  0  0  0  0  0
  -21.6543   -6.1562   24.8609 C   0  0  0  0  0  0  0  0  0  0  0  0
  -27.3371  -20.3969   18.7355 C   0  0  0  0  0  0  0  0  0  0  0  0
  -24.8586  -27.2194   19.5089 C   0  0  0  0  0  0  0  0  0  0  0  0
  -27.6458  -20.0724   21.4891 C   0  0  0  0  0  0  0  0  0  0  0  0
  -21.7769   -4.2552   23.3749 C   0  0  0  0  0  0  0  0  0  0  0  0
  -24.2952  -10.2555   20.8669 C   0  0  0  0  0  0  0  0  0  0  0  0
  -27.4534  -19.1173   19.2782 C   0  0  0  0  0  0  0  0  0  0  0  0
  -25.9508  -11.6242   19.4910 C   0  0  0  0  0  0  0  0  0  0  0  0
  -27.5652  -30.2667   26.8834 C   0  0  0  0  0  0  0  0  0  0  0  0
  -25.7742  -29.1909   20.5740 C   0  0  0  0  0  0  0  0  0  0  0  0
  -27.0858  -29.4216   25.8644 C   0  0  0  0  0  0  0  0  0  0  0  0
  -24.6638  -28.4059   20.2323 C   0  0  0  0  0  0  0  0  0  0  0  0
  -27.3752  -21.5143   19.5696 C   0  0  0  0  0  0  0  0  0  0  0  0
  -27.6078  -18.9550   20.6550 C   0  0  0  0  0  0  0  0  0  0  0  0
  -22.3488   -8.2870   21.2126 C   0  0  0  0  0  0  0  0  0  0  0  0
  -26.1388  -26.8258   19.1199 C   0  0  0  0  0  0  0  0  0  0  0  0
  -21.5246   -6.4812   22.4704 C   0  0  0  0  0  0  0  0  0  0  0  0
  -21.7793   -4.7805   24.6671 C   0  0  0  0  0  0  0  0  0  0  0  0
  -27.5295  -21.3521   20.9463 C   0  0  0  0  0  0  0  0  0  0  0  0
  -21.6496   -5.1056   22.2766 C   0  0  0  0  0  0  0  0  0  0  0  0
  -25.3000  -11.2727   20.6888 C   0  0  0  0  0  0  0  0  0  0  0  0
  -26.8071  -12.6364   19.8497 C   0  0  0  0  0  0  0  0  0  0  0  0
  -28.2965  -17.7660   17.4132 C   0  0  0  0  0  0  0  0  0  0  0  0
  -27.4109  -17.9730   18.3751 C   0  0  0  0  0  0  0  0  0  0  0  0
  -25.7951  -11.0842   18.1720 C   0  0  0  0  0  0  0  0  0  0  0  0
  -24.3637  -29.6837   23.3796 C   0  0  0  0  0  0  0  0  0  0  0  0
  -27.6173  -24.0422   17.2678 C   0  0  0  0  0  0  0  0  0  0  0  0
  -21.9172  -30.7324   21.5255 C   0  0  0  0  0  0  0  0  0  0  0  0
  -20.3458  -30.6732   18.4967 C   0  0  0  0  0  0  0  0  0  0  0  0
  -27.8855  -17.3632   22.5878 C   0  0  0  0  0  0  0  0  0  0  0  0
  -26.6332  -31.0998   27.7272 C   0  0  0  0  0  0  0  0  0  0  0  0
  -25.5929  -30.4800   21.3276 C   0  0  0  0  0  0  0  0  0  0  0  0
  -23.2642  -28.7970   20.6280 C   0  0  0  0  0  0  0  0  0  0  0  0
  -25.2485  -31.2785   27.1099 C   0  0  0  0  0  0  0  0  0  0  0  0
  -28.1803  -14.3246   24.4199 C   0  0  0  0  0  0  0  0  0  0  0  0
  -24.7134  -29.9429   26.6033 C   0  0  0  0  0  0  0  0  0  0  0  0
  -27.5108  -13.2886   23.5140 C   0  0  0  0  0  0  0  0  0  0  0  0
  -27.4670  -15.6742   24.3618 C   0  0  0  0  0  0  0  0  0  0  0  0
  -26.6088  -15.1831   22.1053 C   0  0  0  0  0  0  0  0  0  0  0  0
  -25.6165  -29.3673   25.5059 C   0  0  1  0  0  0  0  0  0  0  0  0
  -24.2993  -30.5232   22.1351 C   0  0  1  0  0  0  0  0  0  0  0  0
  -27.3306  -13.8259   22.0806 C   0  0  2  0  0  0  0  0  0  0  0  0
  -18.3484  -31.6029   17.2953 C   0  0  0  0  0  0  0  0  0  0  0  0
  -20.1116  -28.7805   23.0220 C   0  0  0  0  0  0  0  0  0  0  0  0
  -18.4213  -29.0520   21.1952 C   0  0  0  0  0  0  0  0  0  0  0  0
  -19.0873  -31.0183   22.5781 C   0  0  0  0  0  0  0  0  0  0  0  0
  -22.0414  -32.0287   16.4852 C   0  0  0  0  0  0  0  0  0  0  0  0
  -27.6483  -25.3337   18.0469 C   0  0  0  0  0  0  0  0  0  1  0  0
  -20.7136  -30.0896   20.8797 C   0  0  1  0  0  0  0  0  0  0  0  0
  -19.8243  -31.7899   17.6104 C   0  0  2  0  0  0  0  0  0  0  0  0
  -19.6099  -29.7265   21.9128 C   0  0  0  0  0  0  0  0  0  0  0  0
  -25.7080  -12.0022   21.7306 N   0  0  0  0  0  0  0  0  0  0  0  0
  -27.2547  -22.8022   19.0218 N   0  0  0  0  0  0  0  0  0  0  0  0
  -27.7199  -22.8126   17.8629 N   0  0  0  0  0  0  0  0  0  0  0  0
  -26.6245  -12.8221   21.1885 N   0  0  0  0  0  0  0  0  0  0  0  0
  -23.1392  -30.0630   21.3691 N   0  0  0  0  0  0  0  0  0  0  0  0
  -27.3362  -16.1222   22.9736 N   0  0  0  0  0  0  0  0  0  0  0  0
  -27.6910  -13.3766   19.1475 N   0  0  0  0  0  0  0  0  0  0  0  0
  -24.8715  -10.0478   17.9790 N   0  0  0  0  0  0  0  0  0  0  0  0
  -27.7279  -17.6683   21.2362 N   0  0  0  0  0  0  0  0  0  0  0  0
  -25.3767  -30.0422   24.2483 N   0  0  0  0  0  0  0  0  0  0  0  0
  -20.2741  -31.0058   19.8329 N   0  0  0  0  0  0  0  0  0  0  0  0
  -27.4475  -24.1483   16.0010 N   0  3  0  0  0  0  0  0  0  0  0  0
  -20.5784  -31.8264   16.3255 N   0  3  0  0  0  0  0  0  0  0  0  0
  -26.4673  -11.4969   17.1966 O   0  0  0  0  0  0  0  0  0  0  0  0
  -23.5532  -28.7787   23.5405 O   0  0  0  0  0  0  0  0  0  0  0  0
  -21.7796  -31.7932   22.1399 O   0  0  0  0  0  0  0  0  0  0  0  0
  -20.7705  -29.6104   18.0487 O   0  0  0  0  0  0  0  0  0  0  0  0
  -28.4777  -18.0886   23.3909 O   0  0  0  0  0  0  0  0  0  0  0  0
  -21.3990   -7.3269   21.3810 O   0  0  0  0  0  0  0  0  0  0  0  0
  -26.3127  -25.6734   18.4172 O   0  0  0  0  0  0  0  0  0  1  0  0
  -21.9031   -3.9642   25.7218 F   0  0  0  0  0  0  0  0  0  0  0  0
  -27.5683  -22.4200   21.7555 F   0  0  0  0  0  0  0  0  0  0  0  0
  -21.6491   -4.5952   21.0375 F   0  0  0  0  0  0  0  0  0  0  0  0
  1  2  1  0  0  0  0
  1  5  2  0  0  0  0
  2  6  2  0  0  0  0
  3  8  2  0  0  0  0
  3 17  1  0  0  0  0
  4  9  1  0  0  0  0
  4 17  2  0  0  0  0
  5 20  1  0  0  0  0
  6 22  1  0  0  0  0
  7 10  2  0  0  0  0
  7 21  1  0  0  0  0
  8 26  1  0  0  0  0
  9 26  2  0  0  0  0
 10 27  1  0  0  0  0
 11 12  2  0  0  0  0
 11 28  1  0  0  0  0
 12 29  1  0  0  0  0
 13 18  1  0  0  0  0
 13 24  2  0  0  0  0
 14 23  1  0  0  0  0
 14 27  2  0  0  0  0
 15 25  1  0  0  0  0
 15 30  2  0  0  0  0
 16 29  2  0  0  0  0
 16 31  1  0  0  0  0
 17 32  1  0  0  0  0
 18 25  2  0  0  0  0
 18 35  1  0  0  0  0
 19 32  1  0  0  0  0
 19 33  2  0  0  0  0
 19 36  1  0  0  0  0
 20 22  2  0  0  0  0
 20 42  1  0  0  0  0
 21 23  2  0  0  0  0
 21 43  1  0  0  0  0
 22 51  1  0  0  0  0
 23 44  1  0  0  0  0
 24 30  1  0  0  0  0
 24 64  1  0  0  0  0
 25 71  1  0  0  0  0
 26 81  1  0  0  0  0
 27 82  1  0  0  0  0
 28 31  2  0  0  0  0
 28 81  1  0  0  0  0
 29 83  1  0  0  0  0
 30 84  1  0  0  0  0
 31 85  1  0  0  0  0
 32 63  2  0  0  0  0
 33 66  1  0  0  0  0
 33 69  1  0  0  0  0
 34 35  2  0  0  0  0
 36 70  1  0  0  0  0
 36 76  2  0  0  0  0
 37 52  1  0  0  0  0
 37 72  1  0  0  0  0
 37 77  2  0  0  0  0
 38 59  1  0  0  0  0
 38 65  1  0  0  0  0
 38 74  2  0  0  0  0
 39 60  1  0  0  0  0
 39 67  1  0  0  0  0
 39 78  2  0  0  0  0
 40 61  1  0  0  0  0
 40 73  1  0  0  0  0
 40 79  2  0  0  0  0
 41 68  1  0  0  0  0
 41 71  1  0  0  0  0
 41 80  2  0  0  0  0
 42 45  1  0  0  0  0
 43 52  1  0  0  0  0
 44 67  1  0  0  0  0
 45 47  1  0  0  0  0
 46 48  1  0  0  0  0
 46 49  1  0  0  0  0
 47 51  1  0  0  0  0
 48 53  1  0  0  0  0
 49 68  1  0  0  0  0
 50 53  1  0  0  0  0
 50 68  1  0  0  0  0
 51 72  1  0  0  0  0
 52 67  1  0  0  0  0
 53 66  1  0  0  0  0
 54 61  1  0  0  0  0
 55 62  1  0  0  0  0
 56 62  1  0  0  0  0
 57 62  1  0  0  0  0
 58 75  1  0  0  0  0
 59 82  1  0  0  0  0
 60 62  1  0  0  0  0
 60 73  1  0  0  0  0
 61 75  1  0  0  0  0
 63 66  1  0  0  0  0
 64 65  2  0  0  0  0
M  CHG  2  74   1  75   1
M  ISO  4  41 100  59 101  71 100  82 101
M  END
> <Batch ID>
0089

> <Smiles>
C=Cc1cc(N=NC(=N)[101CH2:1][101O:1]c2ccc3c(c2)CN(C(=O)C(NC(=O)C(C)NC)C(C)(C)C)C(C(=O)NC2CCCc4ccccc42)C3)c(F)cc1[100NH:0][100C:0](=O)N1CCCC(n2nc(-c3ccc(Oc4ccc(F)cc4F)cc3)c(C(N)=O)c2N)C1

> <Shape>
0.275

> <Color>
0.110

> <Negative vol penalty>
0.000

$$$$

  -OEChem-04052300263D

 85 93  0     1  0  0  0  0  0999 V2000
  -23.9470  -31.0656   21.8601 C   0  0  0  0  0  0  0  0  0  0  0  0
  -23.7515  -29.6941   21.9880 C   0  0  0  0  0  0  0  0  0  0  0  0
  -30.2250  -18.5804   25.1404 C   0  0  0  0  0  0  0  0  0  0  0  0
  -22.7095  -15.2355   20.4070 C   0  0  0  0  0  0  0  0  0  0  0  0
  -22.4000  -13.4524   18.8064 C   0  0  0  0  0  0  0  0  0  0  0  0
  -30.9000  -17.7448   24.2506 C   0  0  0  0  0  0  0  0  0  0  0  0
  -24.8588  -31.5544   20.9254 C   0  0  0  0  0  0  0  0  0  0  0  0
  -24.4669  -28.8107   21.1804 C   0  0  0  0  0  0  0  0  0  0  0  0
  -26.3311  -24.8818   23.7752 C   0  0  0  0  0  0  0  0  0  0  0  0
  -28.9584  -19.0667   24.8161 C   0  0  0  0  0  0  0  0  0  0  0  0
  -21.5954  -15.8948   19.8879 C   0  0  0  0  0  0  0  0  0  0  0  0
  -21.2858  -14.1117   18.2874 C   0  0  0  0  0  0  0  0  0  0  0  0
  -25.4452  -23.8556   24.1005 C   0  0  0  0  0  0  0  0  0  0  0  0
  -18.2302  -15.6620   20.1218 C   0  0  0  0  0  0  0  0  0  0  0  0
  -17.3099  -16.1906   21.0268 C   0  0  0  0  0  0  0  0  0  0  0  0
  -26.2815  -22.5548   22.2491 C   0  0  0  0  0  0  0  0  0  0  0  0
  -17.6952  -18.3999   20.1283 C   0  0  0  0  0  0  0  0  0  0  0  0
  -23.1119  -14.0142   19.8662 C   0  0  0  0  0  0  0  0  0  0  0  0
  -30.3085  -17.3955   23.0366 C   0  0  0  0  0  0  0  0  0  0  0  0
  -24.2831  -12.3906   21.4473 C   0  0  0  0  0  0  0  0  0  0  0  0
  -25.5928  -30.6762   20.1126 C   0  0  0  0  0  0  0  0  0  0  0  0
  -27.1927  -24.7565   22.6759 C   0  0  0  0  0  0  0  0  0  0  0  0
  -25.3883  -29.2883   20.2330 C   0  0  0  0  0  0  0  0  0  0  0  0
  -27.1792  -23.5798   21.9134 C   0  0  0  0  0  0  0  0  0  0  0  0
  -28.3669  -18.7174   23.6021 C   0  0  0  0  0  0  0  0  0  0  0  0
  -20.8835  -15.3329   18.8281 C   0  0  0  0  0  0  0  0  0  0  0  0
  -25.4182  -22.6931   23.3357 C   0  0  0  0  0  0  0  0  0  0  0  0
  -18.8832  -16.5023   19.2200 C   0  0  0  0  0  0  0  0  0  0  0  0
  -17.0424  -17.5595   21.0301 C   0  0  0  0  0  0  0  0  0  0  0  0
  -18.6156  -17.8713   19.2232 C   0  0  0  0  0  0  0  0  0  0  0  0
  -29.0420  -17.8818   22.7124 C   0  0  0  0  0  0  0  0  0  0  0  0
  -24.2631  -13.3329   20.4016 C   0  0  0  0  0  0  0  0  0  0  0  0
  -25.6067  -12.0462   21.5738 C   0  0  0  0  0  0  0  0  0  0  0  0
  -31.0315  -16.5049   22.0926 C   0  0  0  0  0  0  0  0  0  0  0  0
  -23.2020  -11.8728   22.2338 C   0  0  0  0  0  0  0  0  0  0  0  0
  -27.5887  -26.3339   19.9449 C   0  0  0  0  0  0  0  0  0  0  0  0
  -30.1448  -24.3621   19.6284 C   0  0  0  0  0  0  0  0  0  0  0  0
  -31.6457  -21.4096   20.4511 C   0  0  0  0  0  0  0  0  0  0  0  0
  -26.2797  -20.0558   24.0391 C   0  0  0  0  0  0  0  0  0  0  0  0
  -30.7037  -14.8277   20.3029 C   0  0  0  0  0  0  0  0  0  0  0  0
  -26.5324  -31.2533   19.0837 C   0  0  0  0  0  0  0  0  0  0  0  0
  -28.1612  -25.8615   22.3543 C   0  0  0  0  0  0  0  0  0  0  0  0
  -28.0980  -23.3875   20.7356 C   0  0  0  0  0  0  0  0  0  0  0  0
  -27.5250  -30.2361   18.5267 C   0  0  0  0  0  0  0  0  0  0  0  0
  -29.6496  -11.7065   19.0209 C   0  0  0  0  0  0  0  0  0  0  0  0
  -26.8107  -28.9393   18.1591 C   0  0  0  0  0  0  0  0  0  0  0  0
  -28.1520  -11.6732   19.3374 C   0  0  0  0  0  0  0  0  0  0  0  0
  -30.1139  -13.1059   18.6197 C   0  0  0  0  0  0  0  0  0  0  0  0
  -28.2663  -14.1393   19.8753 C   0  0  0  0  0  0  0  0  0  0  0  0
  -26.1636  -28.2973   19.3922 C   0  0  1  0  0  0  0  0  0  0  0  0
  -28.6338  -25.8384   20.9039 C   0  0  1  0  0  0  0  0  0  0  0  0
  -27.7640  -12.7671   20.3525 C   0  0  1  0  0  0  0  0  0  0  0  0
  -33.7143  -20.0602   20.0064 C   0  0  0  0  0  0  0  0  0  0  0  0
  -23.8656  -19.3872   23.7482 C   0  0  0  0  0  0  0  0  0  0  0  0
  -29.0405  -23.5742   16.8954 C   0  0  0  0  0  0  0  0  0  0  0  0
  -30.5693  -21.5917   16.9266 C   0  0  0  0  0  0  0  0  0  0  0  0
  -31.5193  -23.8980   16.9650 C   0  0  0  0  0  0  0  0  0  0  0  0
  -32.4405  -21.4739   23.3012 C   0  0  0  0  0  0  0  0  0  0  0  0
  -30.3730  -22.9952   19.0297 C   0  0  1  0  0  0  0  0  0  0  0  0
  -33.0568  -21.0907   20.9112 C   0  0  2  0  0  0  0  0  0  0  0  0
  -24.9603  -20.3594   23.3340 C   0  0  1  0  0  0  0  0  0  1  0  0
  -30.3567  -23.0189   17.4751 C   0  0  0  0  0  0  0  0  0  0  0  0
  -25.4776  -13.5720   19.8996 N   0  0  0  0  0  0  0  0  0  0  0  0
  -26.2731  -12.7750   20.6331 N   0  0  0  0  0  0  0  0  0  0  0  0
  -29.0224  -24.4990   20.4574 N   0  0  0  0  0  0  0  0  0  0  0  0
  -29.7163  -14.0810   19.6367 N   0  0  0  0  0  0  0  0  0  0  0  0
  -26.2539  -11.1940   22.3969 N   0  0  0  0  0  0  0  0  0  0  0  0
  -21.9046  -12.3340   21.9720 N   0  0  0  0  0  0  0  0  0  0  0  0
  -27.0818  -19.2129   23.2769 N   0  0  0  0  0  0  0  0  0  0  0  0
  -30.2255  -15.7010   21.2861 N   0  0  0  0  0  0  0  0  0  0  0  0
  -27.1626  -27.6245   20.1947 N   0  0  0  0  0  0  0  0  0  0  0  0
  -31.6178  -22.4993   19.6068 N   0  0  0  0  0  0  0  0  0  0  0  0
  -33.0394  -20.5531   22.3010 N   0  3  0  0  0  0  0  0  0  0  0  0
  -32.2576  -16.5518   22.0464 O   0  0  0  0  0  0  0  0  0  0  0  0
  -23.3832  -11.0386   23.1529 O   0  0  0  0  0  0  0  0  0  0  0  0
  -27.1988  -25.6003   19.0440 O   0  0  0  0  0  0  0  0  0  0  0  0
  -30.9375  -25.2729   19.3758 O   0  0  0  0  0  0  0  0  0  0  0  0
  -30.6666  -20.7549   20.8024 O   0  0  0  0  0  0  0  0  0  0  0  0
  -26.5423  -20.5428   25.1350 O   0  0  0  0  0  0  0  0  0  0  0  0
  -31.9098  -14.7004   20.0697 O   0  0  0  0  0  0  0  0  0  0  0  0
  -19.7961  -15.9759   18.3215 O   0  0  0  0  0  0  0  0  0  0  0  0
  -24.5540  -21.6902   23.6507 O   0  0  0  0  0  0  0  0  0  1  0  0
  -16.1574  -18.0668   21.8982 F   0  0  0  0  0  0  0  0  0  0  0  0
  -19.2389  -18.6835   18.3585 F   0  0  0  0  0  0  0  0  0  0  0  0
  -28.4736  -17.5469   21.5439 F   0  0  0  0  0  0  0  0  0  0  0  0
  1  2  1  0  0  0  0
  1  7  2  0  0  0  0
  2  8  2  0  0  0  0
  3  6  1  0  0  0  0
  3 10  2  0  0  0  0
  4 11  2  0  0  0  0
  4 18  1  0  0  0  0
  5 12  1  0  0  0  0
  5 18  2  0  0  0  0
  6 19  2  0  0  0  0
  7 21  1  0  0  0  0
  8 23  1  0  0  0  0
  9 13  2  0  0  0  0
  9 22  1  0  0  0  0
 10 25  1  0  0  0  0
 11 26  1  0  0  0  0
 12 26  2  0  0  0  0
 13 27  1  0  0  0  0
 14 15  2  0  0  0  0
 14 28  1  0  0  0  0
 15 29  1  0  0  0  0
 16 24  1  0  0  0  0
 16 27  2  0  0  0  0
 17 29  2  0  0  0  0
 17 30  1  0  0  0  0
 18 32  1  0  0  0  0
 19 31  1  0  0  0  0
 19 34  1  0  0  0  0
 20 32  1  0  0  0  0
 20 33  2  0  0  0  0
 20 35  1  0  0  0  0
 21 23  2  0  0  0  0
 21 41  1  0  0  0  0
 22 24  2  0  0  0  0
 22 42  1  0  0  0  0
 23 50  1  0  0  0  0
 24 43  1  0  0  0  0
 25 31  2  0  0  0  0
 25 69  1  0  0  0  0
 26 81  1  0  0  0  0
 27 82  1  0  0  0  0
 28 30  2  0  0  0  0
 28 81  1  0  0  0  0
 29 83  1  0  0  0  0
 30 84  1  0  0  0  0
 31 85  1  0  0  0  0
 32 63  2  0  0  0  0
 33 64  1  0  0  0  0
 33 67  1  0  0  0  0
 34 70  1  0  0  0  0
 34 74  2  0  0  0  0
 35 68  1  0  0  0  0
 35 75  2  0  0  0  0
 36 51  1  0  0  0  0
 36 71  1  0  0  0  0
 36 76  2  0  0  0  0
 37 59  1  0  0  0  0
 37 65  1  0  0  0  0
 37 77  2  0  0  0  0
 38 60  1  0  0  0  0
 38 72  1  0  0  0  0
 38 78  2  0  0  0  0
 39 61  1  0  0  0  0
 39 69  1  0  0  0  0
 39 79  2  0  0  0  0
 40 66  1  0  0  0  0
 40 70  1  0  0  0  0
 40 80  2  0  0  0  0
 41 44  1  0  0  0  0
 42 51  1  0  0  0  0
 43 65  1  0  0  0  0
 44 46  1  0  0  0  0
 45 47  1  0  0  0  0
 45 48  1  0  0  0  0
 46 50  1  0  0  0  0
 47 52  1  0  0  0  0
 48 66  1  0  0  0  0
 49 52  1  0  0  0  0
 49 66  1  0  0  0  0
 50 71  1  0  0  0  0
 51 65  1  0  0  0  0
 52 64  1  0  0  0  0
 53 60  1  0  0  0  0
 54 61  1  0  0  0  0
 55 62  1  0  0  0  0
 56 62  1  0  0  0  0
 57 62  1  0  0  0  0
 58 73  1  0  0  0  0
 59 62  1  0  0  0  0
 59 72  1  0  0  0  0
 60 73  1  0  0  0  0
 61 82  1  0  0  0  0
 63 64  1  0  0  0  0
M  CHG  1  73   1
M  ISO  4  40 100  61 101  70 100  82 101
M  END
> <Batch ID>
0089

> <Smiles>
CNC(C)C(=O)NC(C(=O)N1Cc2cc([101O:1][101CH:1](C)C(=O)Nc3cccc(C(=O)[100NH:0][100C:0](=O)N4CCCC(n5nc(-c6ccc(Oc7ccc(F)cc7F)cc6)c(C(N)=O)c5N)C4)c3F)ccc2CC1C(=O)NC1CCCc2ccccc21)C(C)(C)C

> <Shape>
0.211

> <Color>
0.115

> <Negative vol penalty>
0.000

$$$$

  -OEChem-04052300263D

 86 95  0     1  0  0  0  0  0999 V2000
  -27.5152  -37.7848   22.3504 C   0  0  0  0  0  0  0  0  0  0  0  0
  -28.0501  -36.7450   21.5967 C   0  0  0  0  0  0  0  0  0  0  0  0
  -24.0481  -10.2221   22.8634 C   0  0  0  0  0  0  0  0  0  0  0  0
  -23.2457  -12.5008   22.8330 C   0  0  0  0  0  0  0  0  0  0  0  0
  -26.7333  -37.5024   23.4697 C   0  0  0  0  0  0  0  0  0  0  0  0
  -27.8043  -35.4221   21.9625 C   0  0  0  0  0  0  0  0  0  0  0  0
  -26.8713  -28.9204   19.1034 C   0  0  0  0  0  0  0  0  0  0  0  0
  -30.4086  -19.6903   20.7223 C   0  0  0  0  0  0  0  0  0  0  0  0
  -30.2835  -18.3466   20.3696 C   0  0  0  0  0  0  0  0  0  0  0  0
  -23.3690   -9.9989   24.0612 C   0  0  0  0  0  0  0  0  0  0  0  0
  -22.5665  -12.2776   24.0308 C   0  0  0  0  0  0  0  0  0  0  0  0
  -27.3552  -27.6173   19.2103 C   0  0  0  0  0  0  0  0  0  0  0  0
  -20.1961   -9.3698   25.0459 C   0  0  0  0  0  0  0  0  0  0  0  0
  -19.4633   -8.1890   25.1653 C   0  0  0  0  0  0  0  0  0  0  0  0
  -25.9244  -27.2487   21.1172 C   0  0  0  0  0  0  0  0  0  0  0  0
  -28.0174  -19.9673   20.5158 C   0  0  0  0  0  0  0  0  0  0  0  0
  -20.8165   -7.5407   27.0589 C   0  0  0  0  0  0  0  0  0  0  0  0
  -23.9865  -11.4730   22.2494 C   0  0  0  0  0  0  0  0  0  0  0  0
  -24.1960  -11.5138   19.7073 C   0  0  0  0  0  0  0  0  0  0  0  0
  -26.4697  -36.1753   23.8438 C   0  0  0  0  0  0  0  0  0  0  0  0
  -25.9167  -29.4018   20.0109 C   0  0  0  0  0  0  0  0  0  0  0  0
  -27.0192  -35.1216   23.0886 C   0  0  0  0  0  0  0  0  0  0  0  0
  -25.4281  -28.5575   21.0181 C   0  0  0  0  0  0  0  0  0  0  0  0
  -29.2756  -20.5006   20.7954 C   0  0  0  0  0  0  0  0  0  0  0  0
  -29.0253  -17.8132   20.0899 C   0  0  0  0  0  0  0  0  0  0  0  0
  -22.6282  -11.0266   24.6449 C   0  0  0  0  0  0  0  0  0  0  0  0
  -26.8839  -26.7821   20.2190 C   0  0  0  0  0  0  0  0  0  0  0  0
  -21.2392   -9.6360   25.9329 C   0  0  0  0  0  0  0  0  0  0  0  0
  -19.7735   -7.2744   26.1718 C   0  0  0  0  0  0  0  0  0  0  0  0
  -27.8923  -18.6235   20.1630 C   0  0  0  0  0  0  0  0  0  0  0  0
  -21.5493   -8.7215   26.9394 C   0  0  0  0  0  0  0  0  0  0  0  0
  -24.6882  -11.7044   21.0124 C   0  0  0  0  0  0  0  0  0  0  0  0
  -25.2407  -11.8717   18.8906 C   0  0  0  0  0  0  0  0  0  0  0  0
  -29.0020  -24.0919   21.2831 C   0  0  0  0  0  0  0  0  0  0  0  0
  -30.1825  -23.8039   22.1094 C   0  0  0  0  0  0  0  0  0  0  0  0
  -28.5135  -22.8369   20.6768 C   0  0  0  0  0  0  0  0  0  0  0  0
  -28.4559  -25.2950   21.1069 C   0  0  0  0  0  0  0  0  0  1  0  0
  -22.9094  -11.0545   19.2721 C   0  0  0  0  0  0  0  0  0  0  0  0
  -25.8443  -31.7442   22.1583 C   0  0  0  0  0  0  0  0  0  0  0  0
  -22.7309  -30.8742   22.4276 C   0  0  0  0  0  0  0  0  0  0  0  0
  -20.3568  -28.4516   22.0515 C   0  0  0  0  0  0  0  0  0  0  0  0
  -29.9259  -15.5094   19.6129 C   0  0  0  0  0  0  0  0  0  0  0  0
  -25.6580  -35.9197   25.0889 C   0  0  0  0  0  0  0  0  0  0  0  0
  -25.3851  -30.8014   19.8657 C   0  0  0  0  0  0  0  0  0  0  0  0
  -24.3884  -29.0196   22.0050 C   0  0  0  0  0  0  0  0  0  0  0  0
  -30.4682  -22.3328   22.0382 C   0  0  0  0  0  0  0  0  0  0  0  0
  -25.1347  -34.4893   25.1919 C   0  0  0  0  0  0  0  0  0  0  0  0
  -30.0254  -12.0466   18.7902 C   0  0  0  0  0  0  0  0  0  0  0  0
  -26.2433  -33.4911   24.8733 C   0  0  0  0  0  0  0  0  0  0  0  0
  -28.6214  -11.5499   19.1422 C   0  0  0  0  0  0  0  0  0  0  0  0
  -30.5182  -13.1017   19.7790 C   0  0  0  0  0  0  0  0  0  0  0  0
  -28.2040  -13.7396   20.3330 C   0  0  0  0  0  0  0  0  0  0  0  0
  -26.7544  -33.6735   23.4391 C   0  0  1  0  0  0  0  0  0  0  0  0
  -24.7928  -31.3527   21.1590 C   0  0  1  0  0  0  0  0  0  0  0  0
  -27.6387  -12.7227   19.3280 C   0  0  2  0  0  0  0  0  0  0  0  0
  -17.9072  -28.0246   22.3904 C   0  0  0  0  0  0  0  0  0  0  0  0
  -23.1960  -30.6042   25.4310 C   0  0  0  0  0  0  0  0  0  0  0  0
  -21.0664  -29.2954   25.5726 C   0  0  0  0  0  0  0  0  0  0  0  0
  -21.0213  -31.6680   24.8036 C   0  0  0  0  0  0  0  0  0  0  0  0
  -19.9294  -27.9361   19.1687 C   0  0  0  0  0  0  0  0  0  0  0  0
  -21.9661  -29.8879   23.2769 C   0  0  1  0  0  0  0  0  0  0  0  0
  -18.9796  -28.4813   21.4136 C   0  0  2  0  0  0  0  0  0  0  0  0
  -21.8335  -30.3555   24.7538 C   0  0  0  0  0  0  0  0  0  0  0  0
  -25.9477  -12.1486   21.0287 N   0  0  0  0  0  0  0  0  0  0  0  0
  -26.2558  -12.2402   19.7238 N   0  0  0  0  0  0  0  0  0  0  0  0
  -29.4004  -21.8427   21.1471 N   0  0  0  0  0  0  0  0  0  0  0  0
  -23.9044  -30.3984   21.8256 N   0  0  0  0  0  0  0  0  0  0  0  0
  -29.5384  -14.1835   19.9004 N   0  0  0  0  0  0  0  0  0  0  0  0
  -25.3809  -11.9039   17.5484 N   0  0  0  0  0  0  0  0  0  0  0  0
  -21.9524  -10.7296   20.2432 N   0  0  0  0  0  0  0  0  0  0  0  0
  -28.9014  -16.4480   19.7314 N   0  0  0  0  0  0  0  0  0  0  0  0
  -25.8298  -33.0845   22.4943 N   0  0  0  0  0  0  0  0  0  0  0  0
  -20.6910  -29.6708   22.6021 N   0  0  0  0  0  0  0  0  0  0  0  0
  -18.9414  -27.5872   20.2219 N   0  3  0  0  0  0  0  0  0  0  0  0
  -30.8229  -24.6227   22.7459 O   0  0  0  0  0  0  0  0  0  0  0  0
  -27.5513  -22.7255   19.9373 O   0  0  0  0  0  0  0  0  0  0  0  0
  -22.6226  -10.9200   18.0584 O   0  0  0  0  0  0  0  0  0  0  0  0
  -26.6109  -30.8930   22.5936 O   0  0  0  0  0  0  0  0  0  0  0  0
  -22.2992  -32.0223   22.2971 O   0  0  0  0  0  0  0  0  0  0  0  0
  -21.0637  -27.4463   22.0638 O   0  0  0  0  0  0  0  0  0  0  0  0
  -31.0746  -15.7876   19.2593 O   0  0  0  0  0  0  0  0  0  0  0  0
  -21.9652  -10.8092   25.8135 O   0  0  0  0  0  0  0  0  0  0  0  0
  -27.3551  -25.5099   20.3260 O   0  0  0  0  0  0  0  0  0  1  0  0
  -19.0687   -6.1412   26.2873 F   0  0  0  0  0  0  0  0  0  0  0  0
  -26.6781  -18.1220   19.8948 F   0  0  0  0  0  0  0  0  0  0  0  0
  -22.5495   -8.9723   27.7953 F   0  0  0  0  0  0  0  0  0  0  0  0
  1  2  1  0  0  0  0
  1  5  2  0  0  0  0
  2  6  2  0  0  0  0
  3 10  2  0  0  0  0
  3 18  1  0  0  0  0
  4 11  1  0  0  0  0
  4 18  2  0  0  0  0
  5 20  1  0  0  0  0
  6 22  1  0  0  0  0
  7 12  2  0  0  0  0
  7 21  1  0  0  0  0
  8  9  2  0  0  0  0
  8 24  1  0  0  0  0
  9 25  1  0  0  0  0
 10 26  1  0  0  0  0
 11 26  2  0  0  0  0
 12 27  1  0  0  0  0
 13 14  2  0  0  0  0
 13 28  1  0  0  0  0
 14 29  1  0  0  0  0
 15 23  1  0  0  0  0
 15 27  2  0  0  0  0
 16 24  2  0  0  0  0
 16 30  1  0  0  0  0
 17 29  2  0  0  0  0
 17 31  1  0  0  0  0
 18 32  1  0  0  0  0
 19 32  1  0  0  0  0
 19 33  2  0  0  0  0
 19 38  1  0  0  0  0
 20 22  2  0  0  0  0
 20 43  1  0  0  0  0
 21 23  2  0  0  0  0
 21 44  1  0  0  0  0
 22 53  1  0  0  0  0
 23 45  1  0  0  0  0
 24 66  1  0  0  0  0
 25 30  2  0  0  0  0
 25 71  1  0  0  0  0
 26 82  1  0  0  0  0
 27 83  1  0  0  0  0
 28 31  2  0  0  0  0
 28 82  1  0  0  0  0
 29 84  1  0  0  0  0
 30 85  1  0  0  0  0
 31 86  1  0  0  0  0
 32 64  2  0  0  0  0
 33 65  1  0  0  0  0
 33 69  1  0  0  0  0
 34 35  1  0  0  0  0
 34 36  1  0  0  0  0
 34 37  2  0  0  0  0
 35 46  1  0  0  0  0
 35 75  2  0  0  0  0
 36 66  1  0  0  0  0
 36 76  2  0  0  0  0
 37 83  1  0  0  0  0
 38 70  1  0  0  0  0
 38 77  2  0  0  0  0
 39 54  1  0  0  0  0
 39 72  1  0  0  0  0
 39 78  2  0  0  0  0
 40 61  1  0  0  0  0
 40 67  1  0  0  0  0
 40 79  2  0  0  0  0
 41 62  1  0  0  0  0
 41 73  1  0  0  0  0
 41 80  2  0  0  0  0
 42 68  1  0  0  0  0
 42 71  1  0  0  0  0
 42 81  2  0  0  0  0
 43 47  1  0  0  0  0
 44 54  1  0  0  0  0
 45 67  1  0  0  0  0
 46 66  1  0  0  0  0
 47 49  1  0  0  0  0
 48 50  1  0  0  0  0
 48 51  1  0  0  0  0
 49 53  1  0  0  0  0
 50 55  1  0  0  0  0
 51 68  1  0  0  0  0
 52 55  1  0  0  0  0
 52 68  1  0  0  0  0
 53 72  1  0  0  0  0
 54 67  1  0  0  0  0
 55 65  1  0  0  0  0
 56 62  1  0  0  0  0
 57 63  1  0  0  0  0
 58 63  1  0  0  0  0
 59 63  1  0  0  0  0
 60 74  1  0  0  0  0
 61 63  1  0  0  0  0
 61 73  1  0  0  0  0
 62 74  1  0  0  0  0
 64 65  1  0  0  0  0
M  CHG  1  74   1
M  ISO  4  37 101  42 100  71 100  83 101
M  END
> <Batch ID>
0089

> <Smiles>
CNC(C)C(=O)NC(C(=O)N1Cc2cc([101O:1][101CH:1]=C3C(=O)CN(c4ccc([100NH:0][100C:0](=O)N5CCCC(n6nc(-c7ccc(Oc8ccc(F)cc8F)cc7)c(C(N)=O)c6N)C5)c(F)c4)C3=O)ccc2CC1C(=O)NC1CCCc2ccccc21)C(C)(C)C

> <Shape>
0.311

> <Color>
0.087

> <Negative vol penalty>
0.000

$$$$

  -OEChem-04052300263D

 90 99  0     1  0  0  0  0  0999 V2000
  -29.7868  -35.3738   22.9547 C   0  0  0  0  0  0  0  0  0  0  0  0
  -29.3753  -34.0456   22.9981 C   0  0  0  0  0  0  0  0  0  0  0  0
  -22.6446  -10.2098   20.6002 C   0  0  0  0  0  0  0  0  0  0  0  0
  -24.5191   -8.9328   21.4323 C   0  0  0  0  0  0  0  0  0  0  0  0
  -28.8861  -36.3919   23.2648 C   0  0  0  0  0  0  0  0  0  0  0  0
  -28.0631  -33.7346   23.3527 C   0  0  0  0  0  0  0  0  0  0  0  0
  -26.0067  -30.2405   20.3184 C   0  0  0  0  0  0  0  0  0  0  0  0
  -21.8012   -9.5581   21.4999 C   0  0  0  0  0  0  0  0  0  0  0  0
  -23.6757   -8.2811   22.3320 C   0  0  0  0  0  0  0  0  0  0  0  0
  -26.3726  -28.9129   20.5365 C   0  0  0  0  0  0  0  0  0  0  0  0
  -21.4189   -5.7648   22.2561 C   0  0  0  0  0  0  0  0  0  0  0  0
  -21.5462   -4.3811   22.3779 C   0  0  0  0  0  0  0  0  0  0  0  0
  -28.4616  -18.6544   20.5056 C   0  0  0  0  0  0  0  0  0  0  0  0
  -24.3123  -28.5487   21.7373 C   0  0  0  0  0  0  0  0  0  0  0  0
  -25.8228  -19.5557   20.4236 C   0  0  0  0  0  0  0  0  0  0  0  0
  -22.0790   -4.6364   24.7206 C   0  0  0  0  0  0  0  0  0  0  0  0
  -24.0035   -9.8971   20.5663 C   0  0  0  0  0  0  0  0  0  0  0  0
  -28.1904  -20.0221   20.5423 C   0  0  0  0  0  0  0  0  0  0  0  0
  -24.7792  -10.5740   18.2322 C   0  0  0  0  0  0  0  0  0  0  0  0
  -27.5596  -36.0938   23.6140 C   0  0  0  0  0  0  0  0  0  0  0  0
  -24.7938  -30.7358   20.8183 C   0  0  0  0  0  0  0  0  0  0  0  0
  -27.1442  -34.7496   23.6691 C   0  0  0  0  0  0  0  0  0  0  0  0
  -23.9322  -29.8822   21.5220 C   0  0  0  0  0  0  0  0  0  0  0  0
  -26.8709  -20.4728   20.5014 C   0  0  0  0  0  0  0  0  0  0  0  0
  -27.4135  -17.7373   20.4277 C   0  0  0  0  0  0  0  0  0  0  0  0
  -22.3167   -8.5937   22.3658 C   0  0  0  0  0  0  0  0  0  0  0  0
  -25.5267  -28.0676   21.2486 C   0  0  0  0  0  0  0  0  0  0  0  0
  -21.6217   -6.5843   23.3665 C   0  0  0  0  0  0  0  0  0  0  0  0
  -21.8763   -3.8169   23.6101 C   0  0  0  0  0  0  0  0  0  0  0  0
  -26.0941  -18.1879   20.3868 C   0  0  0  0  0  0  0  0  0  0  0  0
  -21.9517   -6.0201   24.5987 C   0  0  0  0  0  0  0  0  0  0  0  0
  -24.8752  -10.5696   19.6367 C   0  0  0  0  0  0  0  0  0  0  0  0
  -25.8337  -11.3507   17.8185 C   0  0  0  0  0  0  0  0  0  0  0  0
  -26.4478  -24.6707   20.4546 C   0  0  0  0  0  0  0  0  0  0  0  0
  -26.0119  -23.9520   19.4013 C   0  0  0  0  0  0  0  0  0  0  0  0
  -26.7066  -23.9545   21.7431 C   0  0  0  0  0  0  0  0  0  0  0  0
  -29.3075  -20.9548   20.6209 C   0  0  0  0  0  0  0  0  0  0  0  0
  -23.8224   -9.9333   17.3780 C   0  0  0  0  0  0  0  0  0  0  0  0
  -23.9813  -33.0053   22.8904 C   0  0  0  0  0  0  0  0  0  0  0  0
  -20.9749  -32.2756   21.9150 C   0  0  0  0  0  0  0  0  0  0  0  0
  -19.1043  -29.2840   21.1610 C   0  0  0  0  0  0  0  0  0  0  0  0
  -28.9438  -15.7362   20.4262 C   0  0  0  0  0  0  0  0  0  0  0  0
  -26.6352  -37.2257   23.9870 C   0  0  0  0  0  0  0  0  0  0  0  0
  -24.4015  -32.1632   20.5515 C   0  0  0  0  0  0  0  0  0  0  0  0
  -22.6098  -30.3597   22.0621 C   0  0  0  0  0  0  0  0  0  0  0  0
  -25.8520  -22.4485   19.4249 C   0  0  0  0  0  0  0  0  0  0  0  0
  -26.4292  -22.4752   21.8427 C   0  0  0  0  0  0  0  0  0  0  0  0
  -25.1603  -36.8321   23.9891 C   0  0  0  0  0  0  0  0  0  0  0  0
  -30.2424  -12.6854   19.1287 C   0  0  0  0  0  0  0  0  0  0  0  0
  -24.9620  -35.5088   24.7214 C   0  0  0  0  0  0  0  0  0  0  0  0
  -29.0038  -11.7991   18.9782 C   0  0  0  0  0  0  0  0  0  0  0  0
  -30.1594  -13.5695   20.3717 C   0  0  0  0  0  0  0  0  0  0  0  0
  -27.6975  -13.4882   20.3300 C   0  0  0  0  0  0  0  0  0  0  0  0
  -25.7222  -34.3736   24.0252 C   0  0  1  0  0  0  0  0  0  0  0  0
  -23.3784  -32.6981   21.5488 C   0  0  1  0  0  0  0  0  0  0  0  0
  -27.7058  -12.6265   19.0568 C   0  0  2  0  0  0  0  0  0  0  0  0
  -25.6265  -24.5610   18.0761 C   0  0  0  0  0  0  0  0  0  0  0  0
  -17.1463  -28.9258   19.6329 C   0  0  0  0  0  0  0  0  0  0  0  0
  -19.3024  -32.7197   24.4281 C   0  0  0  0  0  0  0  0  0  0  0  0
  -17.7453  -30.9319   23.6234 C   0  0  0  0  0  0  0  0  0  0  0  0
  -18.0552  -33.0108   22.2800 C   0  0  0  0  0  0  0  0  0  0  0  0
  -20.5072  -27.1430   19.6754 C   0  0  0  0  0  0  0  0  0  0  0  0
  -26.7025  -26.1506   20.4751 C   0  0  0  0  0  0  0  0  0  1  0  0
  -19.9138  -31.2988   22.3609 C   0  0  1  0  0  0  0  0  0  0  0  0
  -18.6549  -28.8148   19.7890 C   0  0  2  0  0  0  0  0  0  0  0  0
  -18.7818  -31.9848   23.1767 C   0  0  0  0  0  0  0  0  0  0  0  0
  -25.9091  -11.2865   20.0851 N   0  0  0  0  0  0  0  0  0  0  0  0
  -26.4725  -11.7486   18.9559 N   0  0  0  0  0  0  0  0  0  0  0  0
  -26.5770  -21.8425   20.5383 N   0  0  1  0  0  0  0  0  0  0  0  0
  -22.2738  -31.7652   21.7806 N   0  0  0  0  0  0  0  0  0  0  0  0
  -28.9058  -14.3266   20.3760 N   0  0  0  0  0  0  0  0  0  0  0  0
  -26.2676  -11.7253   16.5962 N   0  0  0  0  0  0  0  0  0  0  0  0
  -29.8521  -21.4103   19.4254 N   0  0  0  0  0  0  0  0  0  0  0  0
  -22.8035   -9.1730   17.9681 N   0  0  0  0  0  0  0  0  0  0  0  0
  -27.6913  -16.3483   20.3921 N   0  0  0  0  0  0  0  0  0  0  0  0
  -25.0050  -33.9325   22.8481 N   0  0  0  0  0  0  0  0  0  0  0  0
  -19.4533  -30.6180   21.1556 N   0  0  0  0  0  0  0  0  0  0  0  0
  -19.0463  -27.3930   19.5739 N   0  3  0  0  0  0  0  0  0  0  0  0
  -27.0839  -24.5790   22.7361 O   0  0  0  0  0  0  0  0  0  0  0  0
  -29.7691  -21.3178   21.7153 O   0  0  0  0  0  0  0  0  0  0  0  0
  -23.8792  -10.0186   16.1278 O   0  0  0  0  0  0  0  0  0  0  0  0
  -23.5487  -32.4438   23.8900 O   0  0  0  0  0  0  0  0  0  0  0  0
  -20.6614  -33.4467   21.6872 O   0  0  0  0  0  0  0  0  0  0  0  0
  -19.1386  -28.5423   22.1404 O   0  0  0  0  0  0  0  0  0  0  0  0
  -30.0099  -16.3555   20.4671 O   0  0  0  0  0  0  0  0  0  0  0  0
  -21.4941   -7.9577   23.2441 O   0  0  0  0  0  0  0  0  0  0  0  0
  -25.8816  -26.7716   21.4634 O   0  0  0  0  0  0  0  0  0  1  0  0
  -21.9971   -2.4881   23.7273 F   0  0  0  0  0  0  0  0  0  0  0  0
  -25.0789  -17.3156   20.3113 F   0  0  0  0  0  0  0  0  0  0  0  0
  -22.1465   -6.8022   25.6693 F   0  0  0  0  0  0  0  0  0  0  0  0
  1  2  1  0  0  0  0
  1  5  2  0  0  0  0
  2  6  2  0  0  0  0
  3  8  2  0  0  0  0
  3 17  1  0  0  0  0
  4  9  1  0  0  0  0
  4 17  2  0  0  0  0
  5 20  1  0  0  0  0
  6 22  1  0  0  0  0
  7 10  2  0  0  0  0
  7 21  1  0  0  0  0
  8 26  1  0  0  0  0
  9 26  2  0  0  0  0
 10 27  1  0  0  0  0
 11 12  2  0  0  0  0
 11 28  1  0  0  0  0
 12 29  1  0  0  0  0
 13 18  1  0  0  0  0
 13 25  2  0  0  0  0
 14 23  1  0  0  0  0
 14 27  2  0  0  0  0
 15 24  1  0  0  0  0
 15 30  2  0  0  0  0
 16 29  2  0  0  0  0
 16 31  1  0  0  0  0
 17 32  1  0  0  0  0
 18 24  2  0  0  0  0
 18 37  1  0  0  0  0
 19 32  1  0  0  0  0
 19 33  2  0  0  0  0
 19 38  1  0  0  0  0
 20 22  2  0  0  0  0
 20 43  1  0  0  0  0
 21 23  2  0  0  0  0
 21 44  1  0  0  0  0
 22 54  1  0  0  0  0
 23 45  1  0  0  0  0
 24 69  1  0  0  0  0
 25 30  1  0  0  0  0
 25 75  1  0  0  0  0
 26 86  1  0  0  0  0
 27 87  1  0  0  0  0
 28 31  2  0  0  0  0
 28 86  1  0  0  0  0
 29 88  1  0  0  0  0
 30 89  1  0  0  0  0
 31 90  1  0  0  0  0
 32 67  2  0  0  0  0
 33 68  1  0  0  0  0
 33 72  1  0  0  0  0
 34 35  2  0  0  0  0
 34 36  1  0  0  0  0
 34 63  1  0  0  0  0
 35 46  1  0  0  0  0
 35 57  1  0  0  0  0
 36 47  1  0  0  0  0
 36 79  2  0  0  0  0
 37 73  1  0  0  0  0
 37 80  2  0  0  0  0
 38 74  1  0  0  0  0
 38 81  2  0  0  0  0
 39 55  1  0  0  0  0
 39 76  1  0  0  0  0
 39 82  2  0  0  0  0
 40 64  1  0  0  0  0
 40 70  1  0  0  0  0
 40 83  2  0  0  0  0
 41 65  1  0  0  0  0
 41 77  1  0  0  0  0
 41 84  2  0  0  0  0
 42 71  1  0  0  0  0
 42 75  1  0  0  0  0
 42 85  2  0  0  0  0
 43 48  1  0  0  0  0
 44 55  1  0  0  0  0
 45 70  1  0  0  0  0
 46 69  1  0  0  0  0
 47 69  1  0  0  0  0
 48 50  1  0  0  0  0
 49 51  1  0  0  0  0
 49 52  1  0  0  0  0
 50 54  1  0  0  0  0
 51 56  1  0  0  0  0
 52 71  1  0  0  0  0
 53 56  1  0  0  0  0
 53 71  1  0  0  0  0
 54 76  1  0  0  0  0
 55 70  1  0  0  0  0
 56 68  1  0  0  0  0
 58 65  1  0  0  0  0
 59 66  1  0  0  0  0
 60 66  1  0  0  0  0
 61 66  1  0  0  0  0
 62 78  1  0  0  0  0
 63 87  1  0  0  0  0
 64 66  1  0  0  0  0
 64 77  1  0  0  0  0
 65 78  1  0  0  0  0
 67 68  1  0  0  0  0
M  CHG  1  78   1
M  ISO  4  42 100  63 101  75 100  87 101
M  END
> <Batch ID>
0089

> <Smiles>
CNC(C)C(=O)NC(C(=O)N1Cc2cc([101O:1][101CH2:1]C3=C(C)CN(c4cc(F)c([100NH:0][100C:0](=O)N5CCCC(n6nc(-c7ccc(Oc8ccc(F)cc8F)cc7)c(C(N)=O)c6N)C5)cc4C(N)=O)CC3=O)ccc2CC1C(=O)NC1CCCc2ccccc21)C(C)(C)C

> <Shape>
0.294

> <Color>
0.099

> <Negative vol penalty>
0.000

$$$$

  -OEChem-04052300263D

 83 91  0     1  0  0  0  0  0999 V2000
  -16.8354  -25.9425   22.5319 C   0  0  0  0  0  0  0  0  0  0  0  0
  -18.1370  -25.4539   22.5839 C   0  0  0  0  0  0  0  0  0  0  0  0
  -23.1670  -10.3082   20.8596 C   0  0  0  0  0  0  0  0  0  0  0  0
  -24.4673   -8.8672   22.2984 C   0  0  0  0  0  0  0  0  0  0  0  0
  -28.4022  -20.0369   20.3381 C   0  0  0  0  0  0  0  0  0  0  0  0
  -16.6008  -27.2560   22.1276 C   0  0  0  0  0  0  0  0  0  0  0  0
  -19.2046  -26.2783   22.2307 C   0  0  0  0  0  0  0  0  0  0  0  0
  -23.0683  -25.9566   25.4885 C   0  0  0  0  0  0  0  0  0  0  0  0
  -27.4981  -20.8550   21.0155 C   0  0  0  0  0  0  0  0  0  0  0  0
  -22.2278   -9.2911   20.6896 C   0  0  0  0  0  0  0  0  0  0  0  0
  -23.5280   -7.8500   22.1284 C   0  0  0  0  0  0  0  0  0  0  0  0
  -23.9013  -24.8438   25.3804 C   0  0  0  0  0  0  0  0  0  0  0  0
  -20.4756   -7.0527   23.3399 C   0  0  0  0  0  0  0  0  0  0  0  0
  -20.0669   -6.3538   24.4757 C   0  0  0  0  0  0  0  0  0  0  0  0
  -25.5120  -26.1741   24.1742 C   0  0  0  0  0  0  0  0  0  0  0  0
  -26.7237  -18.9495   22.2830 C   0  0  0  0  0  0  0  0  0  0  0  0
  -20.8789   -4.2970   23.5021 C   0  0  0  0  0  0  0  0  0  0  0  0
  -24.2868  -10.0962   21.6639 C   0  0  0  0  0  0  0  0  0  0  0  0
  -28.4671  -18.6751   20.6331 C   0  0  0  0  0  0  0  0  0  0  0  0
  -25.2618  -12.1427   22.8339 C   0  0  0  0  0  0  0  0  0  0  0  0
  -17.6669  -28.1000   21.7784 C   0  0  0  0  0  0  0  0  0  0  0  0
  -23.4468  -27.1859   24.9297 C   0  0  0  0  0  0  0  0  0  0  0  0
  -18.9839  -27.6040   21.8200 C   0  0  0  0  0  0  0  0  0  0  0  0
  -24.6832  -27.3016   24.2787 C   0  0  0  0  0  0  0  0  0  0  0  0
  -26.6588  -20.3113   21.9880 C   0  0  0  0  0  0  0  0  0  0  0  0
  -22.4083   -8.0620   21.3241 C   0  0  0  0  0  0  0  0  0  0  0  0
  -25.1220  -24.9517   24.7207 C   0  0  0  0  0  0  0  0  0  0  0  0
  -21.0859   -6.3738   22.2852 C   0  0  0  0  0  0  0  0  0  0  0  0
  -20.2685   -4.9759   24.5568 C   0  0  0  0  0  0  0  0  0  0  0  0
  -27.6278  -18.1314   21.6056 C   0  0  0  0  0  0  0  0  0  0  0  0
  -21.2876   -4.9960   22.3663 C   0  0  0  0  0  0  0  0  0  0  0  0
  -25.2577  -11.1464   21.8395 C   0  0  0  0  0  0  0  0  0  0  0  0
  -26.3841  -12.8885   22.5681 C   0  0  0  0  0  0  0  0  0  0  0  0
  -26.1881  -21.6795   23.7578 C   0  0  0  0  0  0  0  0  0  0  0  0
  -29.4303  -17.8063   19.9091 C   0  0  0  0  0  0  0  0  0  0  0  0
  -24.3342  -12.3734   23.9026 C   0  0  0  0  0  0  0  0  0  0  0  0
  -22.2598  -29.0848   22.6738 C   0  0  0  0  0  0  0  0  0  0  0  0
  -24.6301  -31.0736   23.6479 C   0  0  0  0  0  0  0  0  0  0  0  0
  -27.6728  -31.4370   25.1500 C   0  0  0  0  0  0  0  0  0  0  0  0
  -29.7768  -15.5087   19.0578 C   0  0  0  0  0  0  0  0  0  0  0  0
  -17.3602  -29.4978   21.3023 C   0  0  0  0  0  0  0  0  0  0  0  0
  -22.5489  -28.3835   25.0781 C   0  0  0  0  0  0  0  0  0  0  0  0
  -25.1450  -28.6039   23.6793 C   0  0  0  0  0  0  0  0  0  0  0  0
  -18.5752  -30.4220   21.3038 C   0  0  0  0  0  0  0  0  0  0  0  0
  -30.2460  -12.0224   19.4075 C   0  0  0  0  0  0  0  0  0  0  0  0
  -19.7766  -29.7255   20.6726 C   0  0  0  0  0  0  0  0  0  0  0  0
  -28.9945  -11.5633   20.1606 C   0  0  0  0  0  0  0  0  0  0  0  0
  -29.9282  -13.1240   18.3974 C   0  0  0  0  0  0  0  0  0  0  0  0
  -27.9513  -13.8159   19.6900 C   0  0  0  0  0  0  0  0  0  0  0  0
  -20.1703  -28.4752   21.4683 C   0  0  1  0  0  0  0  0  0  0  0  0
  -22.8046  -29.4562   24.0240 C   0  0  1  0  0  0  0  0  0  0  0  0
  -28.2306  -12.7568   20.7686 C   0  0  1  0  0  0  0  0  0  0  0  0
  -29.3698  -33.1799   25.7664 C   0  0  0  0  0  0  0  0  0  0  0  0
  -25.5304  -31.2233   20.7364 C   0  0  0  0  0  0  0  0  0  0  0  0
  -27.7121  -32.1590   21.5319 C   0  0  0  0  0  0  0  0  0  0  0  0
  -25.5928  -33.4029   21.9610 C   0  0  0  0  0  0  0  0  0  0  0  0
  -27.4215  -30.8277   28.0352 C   0  0  0  0  0  0  0  0  0  0  0  0
  -25.3097  -22.5859   24.5671 C   0  0  0  0  0  0  0  0  0  1  0  0
  -26.0731  -31.2876   23.2597 C   0  0  1  0  0  0  0  0  0  0  0  0
  -28.1561  -32.3889   26.2292 C   0  0  2  0  0  0  0  0  0  0  0  0
  -26.2178  -31.9930   21.8818 C   0  0  0  0  0  0  0  0  0  0  0  0
  -26.2949  -11.2473   21.0041 N   0  0  0  0  0  0  0  0  0  0  0  0
  -25.7481  -21.1354   22.6706 N   0  0  0  0  0  0  0  0  0  0  0  0
  -26.9613  -12.3161   21.4730 N   0  0  0  0  0  0  0  0  0  0  0  0
  -24.2291  -29.7446   23.8450 N   0  0  0  0  0  0  0  0  0  0  0  0
  -29.2139  -14.2205   19.0536 N   0  0  0  0  0  0  0  0  0  0  0  0
  -26.9236  -13.9717   23.1665 N   0  0  0  0  0  0  0  0  0  0  0  0
  -23.2359  -11.5124   24.0315 N   0  0  0  0  0  0  0  0  0  0  0  0
  -29.0383  -16.4772   19.7468 N   0  0  0  0  0  0  0  0  0  0  0  0
  -20.8990  -28.8450   22.6628 N   0  0  0  0  0  0  0  0  0  0  0  0
  -26.6914  -32.0079   24.3676 N   0  0  0  0  0  0  0  0  0  0  0  0
  -28.5287  -31.6326   27.4581 N   0  3  0  0  0  0  0  0  0  0  0  0
  -30.4672  -18.2977   19.4719 O   0  0  0  0  0  0  0  0  0  0  0  0
  -24.4661  -13.3251   24.7090 O   0  0  0  0  0  0  0  0  0  0  0  0
  -23.0177  -29.0218   21.7129 O   0  0  0  0  0  0  0  0  0  0  0  0
  -23.8878  -32.0501   23.7786 O   0  0  0  0  0  0  0  0  0  0  0  0
  -28.1237  -30.3020   25.0123 O   0  0  0  0  0  0  0  0  0  0  0  0
  -30.8617  -15.7665   18.5269 O   0  0  0  0  0  0  0  0  0  0  0  0
  -21.4919   -7.0693   21.1586 O   0  0  0  0  0  0  0  0  0  0  0  0
  -25.9367  -23.8670   24.6133 O   0  0  0  0  0  0  0  0  0  1  0  0
  -19.8773   -4.3051   25.6482 F   0  0  0  0  0  0  0  0  0  0  0  0
  -27.6813  -16.8239   21.8964 F   0  0  0  0  0  0  0  0  0  0  0  0
  -21.8744   -4.3386   21.3568 F   0  0  0  0  0  0  0  0  0  0  0  0
  1  2  1  0  0  0  0
  1  6  2  0  0  0  0
  2  7  2  0  0  0  0
  3 10  2  0  0  0  0
  3 18  1  0  0  0  0
  4 11  1  0  0  0  0
  4 18  2  0  0  0  0
  5  9  2  0  0  0  0
  5 19  1  0  0  0  0
  6 21  1  0  0  0  0
  7 23  1  0  0  0  0
  8 12  2  0  0  0  0
  8 22  1  0  0  0  0
  9 25  1  0  0  0  0
 10 26  1  0  0  0  0
 11 26  2  0  0  0  0
 12 27  1  0  0  0  0
 13 14  2  0  0  0  0
 13 28  1  0  0  0  0
 14 29  1  0  0  0  0
 15 24  1  0  0  0  0
 15 27  2  0  0  0  0
 16 25  2  0  0  0  0
 16 30  1  0  0  0  0
 17 29  2  0  0  0  0
 17 31  1  0  0  0  0
 18 32  1  0  0  0  0
 19 30  2  0  0  0  0
 19 35  1  0  0  0  0
 20 32  1  0  0  0  0
 20 33  2  0  0  0  0
 20 36  1  0  0  0  0
 21 23  2  0  0  0  0
 21 41  1  0  0  0  0
 22 24  2  0  0  0  0
 22 42  1  0  0  0  0
 23 50  1  0  0  0  0
 24 43  1  0  0  0  0
 25 63  1  0  0  0  0
 26 79  1  0  0  0  0
 27 80  1  0  0  0  0
 28 31  2  0  0  0  0
 28 79  1  0  0  0  0
 29 81  1  0  0  0  0
 30 82  1  0  0  0  0
 31 83  1  0  0  0  0
 32 62  2  0  0  0  0
 33 64  1  0  0  0  0
 33 67  1  0  0  0  0
 34 58  1  0  0  0  0
 34 63  2  0  0  0  0
 35 69  1  0  0  0  0
 35 73  2  0  0  0  0
 36 68  1  0  0  0  0
 36 74  2  0  0  0  0
 37 51  1  0  0  0  0
 37 70  1  0  0  0  0
 37 75  2  0  0  0  0
 38 59  1  0  0  0  0
 38 65  1  0  0  0  0
 38 76  2  0  0  0  0
 39 60  1  0  0  0  0
 39 71  1  0  0  0  0
 39 77  2  0  0  0  0
 40 66  1  0  0  0  0
 40 69  1  0  0  0  0
 40 78  2  0  0  0  0
 41 44  1  0  0  0  0
 42 51  1  0  0  0  0
 43 65  1  0  0  0  0
 44 46  1  0  0  0  0
 45 47  1  0  0  0  0
 45 48  1  0  0  0  0
 46 50  1  0  0  0  0
 47 52  1  0  0  0  0
 48 66  1  0  0  0  0
 49 52  1  0  0  0  0
 49 66  1  0  0  0  0
 50 70  1  0  0  0  0
 51 65  1  0  0  0  0
 52 64  1  0  0  0  0
 53 60  1  0  0  0  0
 54 61  1  0  0  0  0
 55 61  1  0  0  0  0
 56 61  1  0  0  0  0
 57 72  1  0  0  0  0
 58 80  1  0  0  0  0
 59 61  1  0  0  0  0
 59 71  1  0  0  0  0
 60 72  1  0  0  0  0
 62 64  1  0  0  0  0
M  CHG  1  72   1
M  ISO  4  40 100  58 101  69 100  80 101
M  END
> <Batch ID>
0089

> <Smiles>
CNC(C)C(=O)NC(C(=O)N1Cc2cc([101O:1][101CH:1]=CNc3ccc(C(=O)[100NH:0][100C:0](=O)N4CCCC(n5nc(-c6ccc(Oc7ccc(F)cc7F)cc6)c(C(N)=O)c5N)C4)c(F)c3)ccc2CC1C(=O)NC1CCCc2ccccc21)C(C)(C)C

> <Shape>
0.293

> <Color>
0.116

> <Negative vol penalty>
0.000

$$$$

  -OEChem-04052300263D

 84 93  0     1  0  0  0  0  0999 V2000
  -28.9346  -34.5189   16.2426 C   0  0  0  0  0  0  0  0  0  0  0  0
  -28.9303  -33.2172   16.7334 C   0  0  0  0  0  0  0  0  0  0  0  0
  -24.1020   -9.3232   22.0705 C   0  0  0  0  0  0  0  0  0  0  0  0
  -24.4686  -11.0021   23.7687 C   0  0  0  0  0  0  0  0  0  0  0  0
  -28.6417  -35.5843   17.0930 C   0  0  0  0  0  0  0  0  0  0  0  0
  -28.6341  -32.9801   18.0752 C   0  0  0  0  0  0  0  0  0  0  0  0
  -25.4250  -29.1132   18.7025 C   0  0  0  0  0  0  0  0  0  0  0  0
  -27.8424  -20.3384   19.2551 C   0  0  0  0  0  0  0  0  0  0  0  0
  -30.2439  -20.0921   19.1590 C   0  0  0  0  0  0  0  0  0  0  0  0
  -27.6969  -18.9540   19.1667 C   0  0  0  0  0  0  0  0  0  0  0  0
  -30.0984  -18.7077   19.0706 C   0  0  0  0  0  0  0  0  0  0  0  0
  -23.7173   -8.4122   23.0541 C   0  0  0  0  0  0  0  0  0  0  0  0
  -24.0839  -10.0910   24.7524 C   0  0  0  0  0  0  0  0  0  0  0  0
  -25.9508  -27.8261   18.5986 C   0  0  0  0  0  0  0  0  0  0  0  0
  -20.9701   -7.7712   24.9183 C   0  0  0  0  0  0  0  0  0  0  0  0
  -19.8286   -7.0053   24.6816 C   0  0  0  0  0  0  0  0  0  0  0  0
  -26.0278  -27.6700   21.0047 C   0  0  0  0  0  0  0  0  0  0  0  0
  -21.1478   -4.9880   24.8479 C   0  0  0  0  0  0  0  0  0  0  0  0
  -24.4777  -10.6182   22.4278 C   0  0  0  0  0  0  0  0  0  0  0  0
  -24.0456  -12.4527   20.7087 C   0  0  0  0  0  0  0  0  0  0  0  0
  -28.3323  -35.3593   18.4437 C   0  0  0  0  0  0  0  0  0  0  0  0
  -25.2065  -29.6934   19.9602 C   0  0  0  0  0  0  0  0  0  0  0  0
  -28.3381  -34.0436   18.9448 C   0  0  0  0  0  0  0  0  0  0  0  0
  -25.4968  -28.9636   21.1218 C   0  0  0  0  0  0  0  0  0  0  0  0
  -29.1160  -20.9075   19.2512 C   0  0  0  0  0  0  0  0  0  0  0  0
  -28.8248  -18.1386   19.0745 C   0  0  0  0  0  0  0  0  0  0  0  0
  -23.7082   -8.7961   24.3951 C   0  0  0  0  0  0  0  0  0  0  0  0
  -26.2550  -27.1054   19.7498 C   0  0  0  0  0  0  0  0  0  0  0  0
  -22.2005   -7.1456   25.1196 C   0  0  0  0  0  0  0  0  0  0  0  0
  -19.9175   -5.6137   24.6465 C   0  0  0  0  0  0  0  0  0  0  0  0
  -22.2893   -5.7540   25.0845 C   0  0  0  0  0  0  0  0  0  0  0  0
  -24.8758  -11.5595   21.4122 C   0  0  0  0  0  0  0  0  0  0  0  0
  -24.8982  -13.1215   19.8647 C   0  0  0  0  0  0  0  0  0  0  0  0
  -28.7390  -24.5318   19.4991 C   0  0  0  0  0  0  0  0  0  0  0  0
  -30.2100  -24.3742   19.4387 C   0  0  0  0  0  0  0  0  0  0  0  0
  -28.1277  -25.7124   19.5960 C   0  0  0  0  0  0  0  0  0  1  0  0
  -22.6304  -12.6595   20.8092 C   0  0  0  0  0  0  0  0  0  0  0  0
  -26.3306  -32.2510   21.4765 C   0  0  0  0  0  0  0  0  0  0  0  0
  -24.1080  -31.4315   23.6926 C   0  0  0  0  0  0  0  0  0  0  0  0
  -22.1628  -28.9957   25.0817 C   0  0  0  0  0  0  0  0  0  0  0  0
  -29.6916  -15.7807   18.8871 C   0  0  0  0  0  0  0  0  0  0  0  0
  -28.0686  -36.5467   19.3355 C   0  0  0  0  0  0  0  0  0  0  0  0
  -24.6137  -31.0725   20.0554 C   0  0  0  0  0  0  0  0  0  0  0  0
  -25.2618  -29.5335   22.4960 C   0  0  0  0  0  0  0  0  0  0  0  0
  -28.1198  -23.1747   19.4329 C   0  0  0  0  0  0  0  0  0  0  0  0
  -30.5613  -22.9184   19.3322 C   0  0  0  0  0  0  0  0  0  0  0  0
  -27.3981  -36.1791   20.6567 C   0  0  0  0  0  0  0  0  0  0  0  0
  -29.7383  -12.2263   18.6841 C   0  0  0  0  0  0  0  0  0  0  0  0
  -28.0929  -34.9790   21.2922 C   0  0  0  0  0  0  0  0  0  0  0  0
  -28.4091  -11.8094   19.3179 C   0  0  0  0  0  0  0  0  0  0  0  0
  -30.3476  -13.4370   19.3888 C   0  0  0  0  0  0  0  0  0  0  0  0
  -28.1252  -14.1787   20.1504 C   0  0  0  0  0  0  0  0  0  0  0  0
  -27.9974  -33.7439   20.3885 C   0  0  1  0  0  0  0  0  0  0  0  0
  -24.9131  -31.7613   21.3833 C   0  0  1  0  0  0  0  0  0  0  0  0
  -27.4411  -13.0032   19.4336 C   0  0  2  0  0  0  0  0  0  0  0  0
  -20.4766  -28.6204   26.9020 C   0  0  0  0  0  0  0  0  0  0  0  0
  -26.3430  -31.4794   25.7693 C   0  0  0  0  0  0  0  0  0  0  0  0
  -24.8403  -30.2048   27.3138 C   0  0  0  0  0  0  0  0  0  0  0  0
  -24.1843  -32.4825   26.5365 C   0  0  0  0  0  0  0  0  0  0  0  0
  -20.0803  -28.1793   23.1438 C   0  0  0  0  0  0  0  0  0  0  0  0
  -24.0929  -30.5452   24.9146 C   0  0  1  0  0  0  0  0  0  0  0  0
  -20.6869  -28.9650   25.4358 C   0  0  2  0  0  0  0  0  0  0  0  0
  -24.8715  -31.1677   26.1078 C   0  0  0  0  0  0  0  0  0  0  0  0
  -26.1573  -11.6501   21.0467 N   0  0  0  0  0  0  0  0  0  0  0  0
  -26.1388  -12.6080   20.1044 N   0  0  0  0  0  0  0  0  0  0  0  0
  -29.2578  -22.2557   19.3354 N   0  0  3  0  0  0  0  0  0  0  0  0
  -24.6864  -30.8881   22.5367 N   0  0  0  0  0  0  0  0  0  0  0  0
  -29.3749  -14.5296   19.4576 N   0  0  0  0  0  0  0  0  0  0  0  0
  -24.7002  -14.0928   18.9483 N   0  0  0  0  0  0  0  0  0  0  0  0
  -21.9060  -11.8875   21.7277 N   0  0  0  0  0  0  0  0  0  0  0  0
  -28.6769  -16.7323   18.9848 N   0  0  0  0  0  0  0  0  0  0  0  0
  -26.6825  -33.1472   20.4853 N   0  0  0  0  0  0  0  0  0  0  0  0
  -22.6896  -30.2646   25.1980 N   0  0  0  0  0  0  0  0  0  0  0  0
  -19.9766  -27.9497   24.6079 N   0  3  0  0  0  0  0  0  0  0  0  0
  -31.0173  -25.2892   19.4698 O   0  0  0  0  0  0  0  0  0  0  0  0
  -22.0236  -13.4922   20.0938 O   0  0  0  0  0  0  0  0  0  0  0  0
  -27.0512  -31.8468   22.3815 O   0  0  0  0  0  0  0  0  0  0  0  0
  -23.6181  -32.5616   23.7591 O   0  0  0  0  0  0  0  0  0  0  0  0
  -22.7868  -27.9935   24.7400 O   0  0  0  0  0  0  0  0  0  0  0  0
  -30.7720  -15.9839   18.3274 O   0  0  0  0  0  0  0  0  0  0  0  0
  -23.3326   -7.9074   25.3552 O   0  0  0  0  0  0  0  0  0  0  0  0
  -26.7690  -25.8492   19.6513 O   0  0  0  0  0  0  0  0  0  1  0  0
  -18.8210   -4.8782   24.4208 F   0  0  0  0  0  0  0  0  0  0  0  0
  -23.4683   -5.1473   25.2784 F   0  0  0  0  0  0  0  0  0  0  0  0
  1  2  1  0  0  0  0
  1  5  2  0  0  0  0
  2  6  2  0  0  0  0
  3 12  2  0  0  0  0
  3 19  1  0  0  0  0
  4 13  1  0  0  0  0
  4 19  2  0  0  0  0
  5 21  1  0  0  0  0
  6 23  1  0  0  0  0
  7 14  2  0  0  0  0
  7 22  1  0  0  0  0
  8 10  2  0  0  0  0
  8 25  1  0  0  0  0
  9 11  1  0  0  0  0
  9 25  2  0  0  0  0
 10 26  1  0  0  0  0
 11 26  2  0  0  0  0
 12 27  1  0  0  0  0
 13 27  2  0  0  0  0
 14 28  1  0  0  0  0
 15 16  2  0  0  0  0
 15 29  1  0  0  0  0
 16 30  1  0  0  0  0
 17 24  1  0  0  0  0
 17 28  2  0  0  0  0
 18 30  2  0  0  0  0
 18 31  1  0  0  0  0
 19 32  1  0  0  0  0
 20 32  1  0  0  0  0
 20 33  2  0  0  0  0
 20 37  1  0  0  0  0
 21 23  2  0  0  0  0
 21 42  1  0  0  0  0
 22 24  2  0  0  0  0
 22 43  1  0  0  0  0
 23 53  1  0  0  0  0
 24 44  1  0  0  0  0
 25 66  1  0  0  0  0
 26 71  1  0  0  0  0
 27 81  1  0  0  0  0
 28 82  1  0  0  0  0
 29 31  2  0  0  0  0
 29 81  1  0  0  0  0
 30 83  1  0  0  0  0
 31 84  1  0  0  0  0
 32 64  2  0  0  0  0
 33 65  1  0  0  0  0
 33 69  1  0  0  0  0
 34 35  1  0  0  0  0
 34 36  2  0  0  0  0
 34 45  1  0  0  0  0
 35 46  1  0  0  0  0
 35 75  2  0  0  0  0
 36 82  1  0  0  0  0
 37 70  1  0  0  0  0
 37 76  2  0  0  0  0
 38 54  1  0  0  0  0
 38 72  1  0  0  0  0
 38 77  2  0  0  0  0
 39 61  1  0  0  0  0
 39 67  1  0  0  0  0
 39 78  2  0  0  0  0
 40 62  1  0  0  0  0
 40 73  1  0  0  0  0
 40 79  2  0  0  0  0
 41 68  1  0  0  0  0
 41 71  1  0  0  0  0
 41 80  2  0  0  0  0
 42 47  1  0  0  0  0
 43 54  1  0  0  0  0
 44 67  1  0  0  0  0
 45 66  1  0  0  0  0
 46 66  1  0  0  0  0
 47 49  1  0  0  0  0
 48 50  1  0  0  0  0
 48 51  1  0  0  0  0
 49 53  1  0  0  0  0
 50 55  1  0  0  0  0
 51 68  1  0  0  0  0
 52 55  1  0  0  0  0
 52 68  1  0  0  0  0
 53 72  1  0  0  0  0
 54 67  1  0  0  0  0
 55 65  1  0  0  0  0
 56 62  1  0  0  0  0
 57 63  1  0  0  0  0
 58 63  1  0  0  0  0
 59 63  1  0  0  0  0
 60 74  1  0  0  0  0
 61 63  1  0  0  0  0
 61 73  1  0  0  0  0
 62 74  1  0  0  0  0
 64 65  1  0  0  0  0
M  CHG  1  74   1
M  ISO  4  36 101  41 100  71 100  82 101
M  END
> <Batch ID>
0089

> <Smiles>
CNC(C)C(=O)NC(C(=O)N1Cc2cc([101O:1][101CH:1]=C3CN(c4ccc([100NH:0][100C:0](=O)N5CCCC(n6nc(-c7ccc(Oc8ccc(F)cc8F)cc7)c(C(N)=O)c6N)C5)cc4)CC3=O)ccc2CC1C(=O)NC1CCCc2ccccc21)C(C)(C)C

> <Shape>
0.297

> <Color>
0.134

> <Negative vol penalty>
0.000

$$$$

  -OEChem-04052300263D

 87 95  0     1  0  0  0  0  0999 V2000
  -25.0325  -34.4793   23.8645 C   0  0  0  0  0  0  0  0  0  0  0  0
  -25.8274  -33.3413   23.9580 C   0  0  0  0  0  0  0  0  0  0  0  0
  -24.6935   -9.2583   21.8980 C   0  0  0  0  0  0  0  0  0  0  0  0
  -23.1401  -10.2137   20.3134 C   0  0  0  0  0  0  0  0  0  0  0  0
  -23.6954  -34.3651   23.4866 C   0  0  0  0  0  0  0  0  0  0  0  0
  -25.2851  -32.0883   23.6746 C   0  0  0  0  0  0  0  0  0  0  0  0
  -28.3260  -29.2673   20.7694 C   0  0  0  0  0  0  0  0  0  0  0  0
  -23.6386   -8.6126   22.5428 C   0  0  0  0  0  0  0  0  0  0  0  0
  -22.0852   -9.5679   20.9582 C   0  0  0  0  0  0  0  0  0  0  0  0
  -29.4091  -28.6496   21.3931 C   0  0  0  0  0  0  0  0  0  0  0  0
  -21.3990   -6.4235   24.3886 C   0  0  0  0  0  0  0  0  0  0  0  0
  -21.5761   -5.0857   24.7415 C   0  0  0  0  0  0  0  0  0  0  0  0
  -27.8919  -20.9968   21.5588 C   0  0  0  0  0  0  0  0  0  0  0  0
  -28.1752  -26.5782   21.4707 C   0  0  0  0  0  0  0  0  0  0  0  0
  -29.0884  -22.7025   19.7036 C   0  0  0  0  0  0  0  0  0  0  0  0
  -21.9158   -4.5179   22.4178 C   0  0  0  0  0  0  0  0  0  0  0  0
  -24.4442  -10.0589   20.7833 C   0  0  0  0  0  0  0  0  0  0  0  0
  -27.7505  -20.7512   20.1931 C   0  0  0  0  0  0  0  0  0  0  0  0
  -26.3121  -10.2306   19.0543 C   0  0  0  0  0  0  0  0  0  0  0  0
  -23.1390  -33.1111   23.1891 C   0  0  0  0  0  0  0  0  0  0  0  0
  -27.1533  -28.5468   20.5011 C   0  0  0  0  0  0  0  0  0  0  0  0
  -23.9388  -31.9571   23.2937 C   0  0  0  0  0  0  0  0  0  0  0  0
  -27.0796  -27.1885   20.8412 C   0  0  0  0  0  0  0  0  0  0  0  0
  -28.6315  -22.0954   21.9970 C   0  0  0  0  0  0  0  0  0  0  0  0
  -28.3488  -21.6039   19.2655 C   0  0  0  0  0  0  0  0  0  0  0  0
  -29.2297  -22.9482   21.0694 C   0  0  0  0  0  0  0  0  0  0  0  0
  -22.3345   -8.7674   22.0729 C   0  0  0  0  0  0  0  0  0  0  0  0
  -29.3327  -27.3055   21.7465 C   0  0  0  0  0  0  0  0  0  0  0  0
  -21.4802   -6.8085   23.0504 C   0  0  0  0  0  0  0  0  0  0  0  0
  -21.8345   -4.1329   23.7561 C   0  0  0  0  0  0  0  0  0  0  0  0
  -21.7386   -5.8557   22.0650 C   0  0  0  0  0  0  0  0  0  0  0  0
  -25.5335  -10.7267   20.1171 C   0  0  0  0  0  0  0  0  0  0  0  0
  -27.2059  -11.2379   18.7842 C   0  0  0  0  0  0  0  0  0  0  0  0
  -26.9613  -19.5811   19.7545 C   0  0  0  0  0  0  0  0  0  0  0  0
  -26.2344   -8.9719   18.3723 C   0  0  0  0  0  0  0  0  0  0  0  0
  -24.1187  -28.7786   21.4181 C   0  0  0  0  0  0  0  0  0  0  0  0
  -23.6899  -26.3998   19.2548 C   0  0  0  0  0  0  0  0  0  0  0  0
  -25.0395  -23.8052   17.4961 C   0  0  0  0  0  0  0  0  0  0  0  0
  -30.6378  -25.0025   20.6926 C   0  0  0  0  0  0  0  0  0  0  0  0
  -26.7271  -17.1078   19.8231 C   0  0  0  0  0  0  0  0  0  0  0  0
  -21.6761  -33.0325   22.8307 C   0  0  0  0  0  0  0  0  0  0  0  0
  -26.0037  -29.2208   19.8036 C   0  0  0  0  0  0  0  0  0  0  0  0
  -25.8508  -26.3653   20.5567 C   0  0  0  0  0  0  0  0  0  0  0  0
  -21.2776  -31.7083   22.1843 C   0  0  0  0  0  0  0  0  0  0  0  0
  -29.5091  -14.8695   20.8271 C   0  0  0  0  0  0  0  0  0  0  0  0
  -21.8608  -30.5356   22.9664 C   0  0  0  0  0  0  0  0  0  0  0  0
  -28.8284  -13.5084   20.7325 C   0  0  0  0  0  0  0  0  0  0  0  0
  -28.5342  -15.9764   21.2265 C   0  0  0  0  0  0  0  0  0  0  0  0
  -26.6515  -14.6848   20.2451 C   0  0  0  0  0  0  0  0  0  0  0  0
  -23.3936  -30.5830   22.9703 C   0  0  1  0  0  0  0  0  0  0  0  0
  -24.6680  -28.5239   20.0430 C   0  0  1  0  0  0  0  0  0  0  0  0
  -27.6165  -13.5796   19.7925 C   0  0  2  0  0  0  0  0  0  0  0  0
  -24.4330  -22.0244   15.8354 C   0  0  0  0  0  0  0  0  0  0  0  0
  -32.4182  -25.4737   22.4280 C   0  0  0  0  0  0  0  0  0  0  0  0
  -31.9619  -27.1682   20.6151 C   0  0  0  0  0  0  0  0  0  0  0  0
  -22.3311  -24.8004   21.4697 C   0  0  0  0  0  0  0  0  0  0  0  0
  -22.6082  -22.7484   20.0624 C   0  0  0  0  0  0  0  0  0  0  0  0
  -21.2155  -24.6461   19.2368 C   0  0  0  0  0  0  0  0  0  0  0  0
  -26.9424  -24.8635   15.4916 C   0  0  0  0  0  0  0  0  0  0  0  0
  -23.7309  -24.8915   19.3022 C   0  0  1  0  0  0  0  0  0  0  0  0
  -24.9626  -23.4372   16.0254 C   0  0  2  0  0  0  0  0  0  0  0  0
  -31.3610  -26.0863   21.5116 C   0  0  0  0  0  0  0  0  0  1  0  0
  -22.4940  -24.2873   20.0250 C   0  0  0  0  0  0  0  0  0  0  0  0
  -25.9005  -11.9537   20.4963 N   0  0  0  0  0  0  0  0  0  0  0  0
  -26.9196  -12.2370   19.6674 N   0  0  0  0  0  0  0  0  0  0  0  0
  -24.7510  -27.0712   19.8787 N   0  0  0  0  0  0  0  0  0  0  0  0
  -27.3275  -15.9788   20.3882 N   0  0  0  0  0  0  0  0  0  0  0  0
  -28.7615  -22.3257   23.3851 N   0  0  0  0  0  0  0  0  0  0  0  0
  -28.2171  -21.3706   17.8786 N   0  0  0  0  0  0  0  0  0  0  0  0
  -28.2010  -11.3576   17.8798 N   0  0  0  0  0  0  0  0  0  0  0  0
  -25.2573   -8.0521   18.7767 N   0  0  0  0  0  0  0  0  0  0  0  0
  -29.9857  -24.0687   21.4905 N   0  0  0  0  0  0  0  0  0  0  0  0
  -27.3666  -18.3642   20.1496 N   0  0  0  0  0  0  0  0  0  0  0  0
  -23.9169  -30.1152   21.7047 N   0  0  0  0  0  0  0  0  0  0  0  0
  -23.8947  -24.4441   17.9233 N   0  0  0  0  0  0  0  0  0  0  0  0
  -25.8960  -19.8086   18.9867 N   0  3  0  0  0  0  0  0  0  0  0  0
  -26.3123  -23.5213   15.3991 N   0  3  0  0  0  0  0  0  0  0  0  0
  -27.0191   -8.6652   17.4429 O   0  0  0  0  0  0  0  0  0  0  0  0
  -23.8931  -27.8324   22.1635 O   0  0  0  0  0  0  0  0  0  0  0  0
  -22.7546  -26.9615   18.6792 O   0  0  0  0  0  0  0  0  0  0  0  0
  -26.0159  -23.5480   18.1969 O   0  0  0  0  0  0  0  0  0  0  0  0
  -30.6723  -25.0171   19.4638 O   0  0  0  0  0  0  0  0  0  0  0  0
  -25.7196  -17.1055   19.1238 O   0  0  0  0  0  0  0  0  0  0  0  0
  -21.3049   -8.1372   22.7018 O   0  0  0  0  0  0  0  0  0  0  0  0
  -30.3882  -26.7003   22.3559 O   0  0  0  0  0  0  0  0  0  1  0  0
  -22.0061   -2.8485   24.0952 F   0  0  0  0  0  0  0  0  0  0  0  0
  -21.8190   -6.2197   20.7778 F   0  0  0  0  0  0  0  0  0  0  0  0
  1  2  1  0  0  0  0
  1  5  2  0  0  0  0
  2  6  2  0  0  0  0
  3  8  2  0  0  0  0
  3 17  1  0  0  0  0
  4  9  1  0  0  0  0
  4 17  2  0  0  0  0
  5 20  1  0  0  0  0
  6 22  1  0  0  0  0
  7 10  2  0  0  0  0
  7 21  1  0  0  0  0
  8 27  1  0  0  0  0
  9 27  2  0  0  0  0
 10 28  1  0  0  0  0
 11 12  2  0  0  0  0
 11 29  1  0  0  0  0
 12 30  1  0  0  0  0
 13 18  2  0  0  0  0
 13 24  1  0  0  0  0
 14 23  1  0  0  0  0
 14 28  2  0  0  0  0
 15 25  2  0  0  0  0
 15 26  1  0  0  0  0
 16 30  2  0  0  0  0
 16 31  1  0  0  0  0
 17 32  1  0  0  0  0
 18 25  1  0  0  0  0
 18 34  1  0  0  0  0
 19 32  1  0  0  0  0
 19 33  2  0  0  0  0
 19 35  1  0  0  0  0
 20 22  2  0  0  0  0
 20 41  1  0  0  0  0
 21 23  2  0  0  0  0
 21 42  1  0  0  0  0
 22 50  1  0  0  0  0
 23 43  1  0  0  0  0
 24 26  2  0  0  0  0
 24 68  1  0  0  0  0
 25 69  1  0  0  0  0
 26 72  1  0  0  0  0
 27 84  1  0  0  0  0
 28 85  1  0  0  0  0
 29 31  2  0  0  0  0
 29 84  1  0  0  0  0
 30 86  1  0  0  0  0
 31 87  1  0  0  0  0
 32 64  2  0  0  0  0
 33 65  1  0  0  0  0
 33 70  1  0  0  0  0
 34 73  1  0  0  0  0
 34 76  2  0  0  0  0
 35 71  1  0  0  0  0
 35 78  2  0  0  0  0
 36 51  1  0  0  0  0
 36 74  1  0  0  0  0
 36 79  2  0  0  0  0
 37 60  1  0  0  0  0
 37 66  1  0  0  0  0
 37 80  2  0  0  0  0
 38 61  1  0  0  0  0
 38 75  1  0  0  0  0
 38 81  2  0  0  0  0
 39 62  1  0  0  0  0
 39 72  1  0  0  0  0
 39 82  2  0  0  0  0
 40 67  1  0  0  0  0
 40 73  1  0  0  0  0
 40 83  2  0  0  0  0
 41 44  1  0  0  0  0
 42 51  1  0  0  0  0
 43 66  1  0  0  0  0
 44 46  1  0  0  0  0
 45 47  1  0  0  0  0
 45 48  1  0  0  0  0
 46 50  1  0  0  0  0
 47 52  1  0  0  0  0
 48 67  1  0  0  0  0
 49 52  1  0  0  0  0
 49 67  1  0  0  0  0
 50 74  1  0  0  0  0
 51 66  1  0  0  0  0
 52 65  1  0  0  0  0
 53 61  1  0  0  0  0
 54 62  1  0  0  0  0
 55 62  1  0  0  0  0
 56 63  1  0  0  0  0
 57 63  1  0  0  0  0
 58 63  1  0  0  0  0
 59 77  1  0  0  0  0
 60 63  1  0  0  0  0
 60 75  1  0  0  0  0
 61 77  1  0  0  0  0
 62 85  1  0  0  0  0
 64 65  1  0  0  0  0
M  CHG  2  76   1  77   1
M  ISO  4  40 100  62 101  73 100  85 101
M  END
> <Batch ID>
0089

> <Smiles>
CNC(C)C(=O)NC(C(=O)N1Cc2cc([101O:1][101C:1](C)(C)C(=O)Nc3cc(N)c(C(=N)[100NH:0][100C:0](=O)N4CCCC(n5nc(-c6ccc(Oc7ccc(F)cc7F)cc6)c(C(N)=O)c5N)C4)cc3N)ccc2CC1C(=O)NC1CCCc2ccccc21)C(C)(C)C

> <Shape>
0.295

> <Color>
0.079

> <Negative vol penalty>
0.000

$$$$

  -OEChem-04052300263D

 83 91  0     1  0  0  0  0  0999 V2000
  -23.9463  -28.2909   23.1021 C   0  0  0  0  0  0  0  0  0  0  0  0
  -23.9469  -26.9027   23.0108 C   0  0  0  0  0  0  0  0  0  0  0  0
  -25.5071  -11.9120   19.4088 C   0  0  0  0  0  0  0  0  0  0  0  0
  -19.6495  -21.5647   21.3366 C   0  0  0  0  0  0  0  0  0  0  0  0
  -19.3773  -22.1941   23.6532 C   0  0  0  0  0  0  0  0  0  0  0  0
  -24.2693  -11.7429   20.0291 C   0  0  0  0  0  0  0  0  0  0  0  0
  -24.6349  -29.0508   22.1575 C   0  0  0  0  0  0  0  0  0  0  0  0
  -24.6353  -26.2736   21.9741 C   0  0  0  0  0  0  0  0  0  0  0  0
  -27.5865  -20.9137   22.2345 C   0  0  0  0  0  0  0  0  0  0  0  0
  -26.2398  -13.0799   19.6209 C   0  0  0  0  0  0  0  0  0  0  0  0
  -18.9989  -22.7339   20.9424 C   0  0  0  0  0  0  0  0  0  0  0  0
  -18.7267  -23.3633   23.2591 C   0  0  0  0  0  0  0  0  0  0  0  0
  -27.2229  -19.6232   21.8522 C   0  0  0  0  0  0  0  0  0  0  0  0
  -17.3137  -26.6886   22.8535 C   0  0  0  0  0  0  0  0  0  0  0  0
  -17.6775  -27.8782   23.4843 C   0  0  0  0  0  0  0  0  0  0  0  0
  -24.4966  -13.9096   21.0735 C   0  0  0  0  0  0  0  0  0  0  0  0
  -28.3528  -19.9359   19.7439 C   0  0  0  0  0  0  0  0  0  0  0  0
  -19.9457  -27.6005   22.6997 C   0  0  0  0  0  0  0  0  0  0  0  0
  -19.8386  -21.2948   22.6920 C   0  0  0  0  0  0  0  0  0  0  0  0
  -23.7640  -12.7417   20.8614 C   0  0  0  0  0  0  0  0  0  0  0  0
  -21.8910  -19.9114   23.3099 C   0  0  0  0  0  0  0  0  0  0  0  0
  -25.3400  -28.4303   21.1142 C   0  0  0  0  0  0  0  0  0  0  0  0
  -28.3279  -21.7303   21.3686 C   0  0  0  0  0  0  0  0  0  0  0  0
  -25.3328  -27.0259   21.0138 C   0  0  0  0  0  0  0  0  0  0  0  0
  -28.7267  -21.2355   20.1187 C   0  0  0  0  0  0  0  0  0  0  0  0
  -25.7345  -14.0787   20.4532 C   0  0  0  0  0  0  0  0  0  0  0  0
  -18.5375  -23.6332   21.9037 C   0  0  0  0  0  0  0  0  0  0  0  0
  -27.6036  -19.1352   20.6056 C   0  0  0  0  0  0  0  0  0  0  0  0
  -18.2658  -25.9548   22.1458 C   0  0  0  0  0  0  0  0  0  0  0  0
  -18.9935  -28.3342   23.4074 C   0  0  0  0  0  0  0  0  0  0  0  0
  -19.5818  -26.4108   22.0689 C   0  0  0  0  0  0  0  0  0  0  0  0
  -20.5101  -20.0869   23.0997 C   0  0  0  0  0  0  0  0  0  0  0  0
  -22.0170  -18.5956   23.6830 C   0  0  0  0  0  0  0  0  0  0  0  0
  -22.4561  -12.5616   21.5161 C   0  0  0  0  0  0  0  0  0  0  0  0
  -22.9638  -20.8536   23.1795 C   0  0  0  0  0  0  0  0  0  0  0  0
  -27.7076  -15.5778   20.1323 C   0  0  0  0  0  0  0  0  0  0  0  0
  -28.1862  -16.9239   20.5875 C   0  0  0  0  0  0  0  0  0  1  0  0
  -27.8170  -24.5163   19.9260 C   0  0  0  0  0  0  0  0  0  0  0  0
  -30.9153  -24.1762   19.0275 C   0  0  0  0  0  0  0  0  0  0  0  0
  -33.5468  -22.0861   18.4331 C   0  0  0  0  0  0  0  0  0  0  0  0
  -20.7248  -13.2259   22.8773 C   0  0  0  0  0  0  0  0  0  0  0  0
  -26.0304  -29.2953   20.0896 C   0  0  0  0  0  0  0  0  0  0  0  0
  -28.7350  -23.1105   21.8066 C   0  0  0  0  0  0  0  0  0  0  0  0
  -29.5406  -22.0648   19.1604 C   0  0  0  0  0  0  0  0  0  0  0  0
  -27.0457  -28.5379   19.2377 C   0  0  0  0  0  0  0  0  0  0  0  0
  -18.5290  -15.1763   24.9699 C   0  0  0  0  0  0  0  0  0  0  0  0
  -26.4525  -27.2223   18.7437 C   0  0  0  0  0  0  0  0  0  0  0  0
  -18.9406  -16.6152   24.6588 C   0  0  0  0  0  0  0  0  0  0  0  0
  -18.6357  -14.2843   23.7369 C   0  0  0  0  0  0  0  0  0  0  0  0
  -20.4010  -15.7405   22.7822 C   0  0  0  0  0  0  0  0  0  0  0  0
  -26.0884  -26.3059   19.9180 C   0  0  1  0  0  0  0  0  0  0  0  0
  -29.0510  -24.0393   20.6384 C   0  0  1  0  0  0  0  0  0  0  0  0
  -20.3360  -16.6634   24.0111 C   0  0  1  0  0  0  0  0  0  0  0  0
  -35.9383  -22.0968   17.6728 C   0  0  0  0  0  0  0  0  0  0  0  0
  -29.9955  -24.5927   16.1482 C   0  0  0  0  0  0  0  0  0  0  0  0
  -32.1924  -23.6649   15.3857 C   0  0  0  0  0  0  0  0  0  0  0  0
  -32.1274  -25.7580   16.7412 C   0  0  0  0  0  0  0  0  0  0  0  0
  -34.4876  -20.9405   20.9947 C   0  0  0  0  0  0  0  0  0  0  0  0
  -31.6251  -23.5443   17.8545 C   0  0  1  0  0  0  0  0  0  0  0  0
  -34.9998  -22.1470   18.8684 C   0  0  2  0  0  0  0  0  0  0  0  0
  -31.4681  -24.3748   16.5494 C   0  0  0  0  0  0  0  0  0  0  0  0
  -19.8091  -18.9717   23.3209 N   0  0  0  0  0  0  0  0  0  0  0  0
  -21.9559  -13.4630   22.2963 N   0  0  0  0  0  0  0  0  0  0  0  0
  -20.7533  -18.0828   23.6737 N   0  0  0  0  0  0  0  0  0  0  0  0
  -29.9087  -23.4101   19.6320 N   0  0  0  0  0  0  0  0  0  0  0  0
  -19.9639  -14.3821   23.1302 N   0  0  0  0  0  0  0  0  0  0  0  0
  -23.0845  -17.8388   24.0148 N   0  0  0  0  0  0  0  0  0  0  0  0
  -22.6583  -22.1639   22.7868 N   0  0  0  0  0  0  0  0  0  0  0  0
  -26.4775  -15.2623   20.6683 N   0  0  0  0  0  0  0  0  0  0  0  0
  -27.2753  -25.6734   20.4525 N   0  0  0  0  0  0  0  0  0  0  0  0
  -33.0083  -23.3453   18.2733 N   0  0  0  0  0  0  0  0  0  0  0  0
  -35.3202  -21.0010   19.7658 N   0  3  0  0  0  0  0  0  0  0  0  0
  -24.1599  -20.5385   23.3886 O   0  0  0  0  0  0  0  0  0  0  0  0
  -28.4328  -14.9706   19.3625 O   0  0  0  0  0  0  0  0  0  0  0  0
  -29.2346  -17.0534   21.1891 O   0  0  0  0  0  0  0  0  0  0  0  0
  -27.3890  -23.8824   18.9686 O   0  0  0  0  0  0  0  0  0  0  0  0
  -31.2469  -25.3050   19.3983 O   0  0  0  0  0  0  0  0  0  0  0  0
  -32.9503  -21.0273   18.2493 O   0  0  0  0  0  0  0  0  0  0  0  0
  -20.3013  -12.1017   23.1561 O   0  0  0  0  0  0  0  0  0  0  0  0
  -17.9028  -24.7743   21.5195 O   0  0  0  0  0  0  0  0  0  0  0  0
  -27.2495  -17.8761   20.2297 O   0  0  0  0  0  0  0  0  0  1  0  0
  -19.3424  -29.4775   24.0119 F   0  0  0  0  0  0  0  0  0  0  0  0
  -20.5006  -25.7109   21.3895 F   0  0  0  0  0  0  0  0  0  0  0  0
  1  2  1  0  0  0  0
  1  7  2  0  0  0  0
  2  8  2  0  0  0  0
  3  6  1  0  0  0  0
  3 10  2  0  0  0  0
  4 11  2  0  0  0  0
  4 19  1  0  0  0  0
  5 12  1  0  0  0  0
  5 19  2  0  0  0  0
  6 20  2  0  0  0  0
  7 22  1  0  0  0  0
  8 24  1  0  0  0  0
  9 13  2  0  0  0  0
  9 23  1  0  0  0  0
 10 26  1  0  0  0  0
 11 27  1  0  0  0  0
 12 27  2  0  0  0  0
 13 28  1  0  0  0  0
 14 15  2  0  0  0  0
 14 29  1  0  0  0  0
 15 30  1  0  0  0  0
 16 20  1  0  0  0  0
 16 26  2  0  0  0  0
 17 25  1  0  0  0  0
 17 28  2  0  0  0  0
 18 30  2  0  0  0  0
 18 31  1  0  0  0  0
 19 32  1  0  0  0  0
 20 34  1  0  0  0  0
 21 32  1  0  0  0  0
 21 33  2  0  0  0  0
 21 35  1  0  0  0  0
 22 24  2  0  0  0  0
 22 42  1  0  0  0  0
 23 25  2  0  0  0  0
 23 43  1  0  0  0  0
 24 51  1  0  0  0  0
 25 44  1  0  0  0  0
 26 69  1  0  0  0  0
 27 80  1  0  0  0  0
 28 81  1  0  0  0  0
 29 31  2  0  0  0  0
 29 80  1  0  0  0  0
 30 82  1  0  0  0  0
 31 83  1  0  0  0  0
 32 62  2  0  0  0  0
 33 64  1  0  0  0  0
 33 67  1  0  0  0  0
 34 63  2  0  0  0  0
 35 68  1  0  0  0  0
 35 73  2  0  0  0  0
 36 37  1  0  0  0  0
 36 69  1  0  0  0  0
 36 74  2  0  0  0  0
 37 75  2  0  0  0  0
 37 81  1  0  0  0  0
 38 52  1  0  0  0  0
 38 70  1  0  0  0  0
 38 76  2  0  0  0  0
 39 59  1  0  0  0  0
 39 65  1  0  0  0  0
 39 77  2  0  0  0  0
 40 60  1  0  0  0  0
 40 71  1  0  0  0  0
 40 78  2  0  0  0  0
 41 63  1  0  0  0  0
 41 66  1  0  0  0  0
 41 79  2  0  0  0  0
 42 45  1  0  0  0  0
 43 52  1  0  0  0  0
 44 65  1  0  0  0  0
 45 47  1  0  0  0  0
 46 48  1  0  0  0  0
 46 49  1  0  0  0  0
 47 51  1  0  0  0  0
 48 53  1  0  0  0  0
 49 66  1  0  0  0  0
 50 53  1  0  0  0  0
 50 66  1  0  0  0  0
 51 70  1  0  0  0  0
 52 65  1  0  0  0  0
 53 64  1  0  0  0  0
 54 60  1  0  0  0  0
 55 61  1  0  0  0  0
 56 61  1  0  0  0  0
 57 61  1  0  0  0  0
 58 72  1  0  0  0  0
 59 61  1  0  0  0  0
 59 71  1  0  0  0  0
 60 72  1  0  0  0  0
 62 64  1  0  0  0  0
M  CHG  1  72   1
M  ISO  4  37 101  41 100  63 100  81 101
M  END
> <Batch ID>
0089

> <Smiles>
CNC(C)C(=O)NC(C(=O)N1Cc2cc([101O:1][101C:1](=O)C(=O)Nc3cccc(C=[100N:0][100C:0](=O)N4CCCC(n5nc(-c6ccc(Oc7ccc(F)cc7F)cc6)c(C(N)=O)c5N)C4)c3)ccc2CC1C(=O)NC1CCCc2ccccc21)C(C)(C)C

> <Shape>
0.209

> <Color>
0.071

> <Negative vol penalty>
0.000

$$$$

  -OEChem-04052300263D

 85 94  0     1  0  0  0  0  0999 V2000
  -25.0684  -32.8131   21.4936 C   0  0  0  0  0  0  0  0  0  0  0  0
  -25.3015  -31.4577   21.7030 C   0  0  0  0  0  0  0  0  0  0  0  0
  -23.0617   -9.8655   19.9353 C   0  0  0  0  0  0  0  0  0  0  0  0
  -23.8951   -9.8217   22.2026 C   0  0  0  0  0  0  0  0  0  0  0  0
  -23.8555  -33.3791   21.8841 C   0  0  0  0  0  0  0  0  0  0  0  0
  -24.3223  -30.6677   22.3042 C   0  0  0  0  0  0  0  0  0  0  0  0
  -23.6745  -26.2389   19.9354 C   0  0  0  0  0  0  0  0  0  0  0  0
  -22.3325   -8.7020   20.1808 C   0  0  0  0  0  0  0  0  0  0  0  0
  -23.1659   -8.6582   22.4481 C   0  0  0  0  0  0  0  0  0  0  0  0
  -24.6183  -25.2422   20.1796 C   0  0  0  0  0  0  0  0  0  0  0  0
  -19.9632   -7.8260   23.1343 C   0  0  0  0  0  0  0  0  0  0  0  0
  -19.2447   -7.7530   24.3276 C   0  0  0  0  0  0  0  0  0  0  0  0
  -29.1181  -17.1825   19.9656 C   0  0  0  0  0  0  0  0  0  0  0  0
  -28.3498  -18.3669   20.0844 C   0  0  0  0  0  0  0  0  0  0  0  0
  -23.1070  -24.2036   21.7469 C   0  0  0  0  0  0  0  0  0  0  0  0
  -26.9391  -21.2184   23.5167 C   0  0  0  0  0  0  0  0  0  0  0  0
  -20.5197   -5.8060   24.9763 C   0  0  0  0  0  0  0  0  0  0  0  0
  -23.8430  -10.4253   20.9462 C   0  0  0  0  0  0  0  0  0  0  0  0
  -24.1671  -12.9547   20.8769 C   0  0  0  0  0  0  0  0  0  0  0  0
  -22.8571  -32.5937   22.4816 C   0  0  0  0  0  0  0  0  0  0  0  0
  -22.4421  -26.2315   20.6044 C   0  0  0  0  0  0  0  0  0  0  0  0
  -23.0955  -31.2240   22.7043 C   0  0  0  0  0  0  0  0  0  0  0  0
  -22.1483  -25.1999   21.5075 C   0  0  0  0  0  0  0  0  0  0  0  0
  -26.0462  -21.2850   22.4188 C   0  0  0  0  0  0  0  0  0  0  0  0
  -22.3846   -8.0984   21.4372 C   0  0  0  0  0  0  0  0  0  0  0  0
  -24.3358  -24.2260   21.0876 C   0  0  0  0  0  0  0  0  0  0  0  0
  -20.9600   -6.8889   22.8620 C   0  0  0  0  0  0  0  0  0  0  0  0
  -19.5229   -6.7430   25.2486 C   0  0  0  0  0  0  0  0  0  0  0  0
  -21.2382   -5.8790   23.7830 C   0  0  0  0  0  0  0  0  0  0  0  0
  -24.5969  -11.6268   20.6930 C   0  0  0  0  0  0  0  0  0  0  0  0
  -29.4055  -16.7490   21.2410 C   0  0  0  0  0  0  0  0  0  0  0  0
  -26.4264  -20.3130   21.5199 C   0  0  0  0  0  0  0  0  0  0  0  0
  -28.1912  -18.6212   21.4288 C   0  0  0  0  0  0  0  0  0  0  0  0
  -25.2428  -13.7195   20.4971 C   0  0  0  0  0  0  0  0  0  0  0  0
  -27.8379  -20.2078   23.2552 C   0  0  0  0  0  0  0  0  0  0  0  0
  -22.9080  -13.4523   21.3489 C   0  0  0  0  0  0  0  0  0  0  0  0
  -30.1537  -15.5991   21.6400 C   0  0  0  0  0  0  0  0  0  0  0  0
  -30.7534  -14.6677   20.6571 C   0  0  0  0  0  0  0  0  0  0  0  0
  -20.9723  -28.2011   22.6203 C   0  0  0  0  0  0  0  0  0  0  0  0
  -18.5103  -26.1228   22.2436 C   0  0  0  0  0  0  0  0  0  0  0  0
  -17.4762  -22.9719   21.4379 C   0  0  0  0  0  0  0  0  0  0  0  0
  -21.5805  -33.2599   22.9299 C   0  0  0  0  0  0  0  0  0  0  0  0
  -21.4242  -27.2990   20.3099 C   0  0  0  0  0  0  0  0  0  0  0  0
  -20.8320  -25.1352   22.2366 C   0  0  0  0  0  0  0  0  0  0  0  0
  -20.4494  -32.2766   23.2194 C   0  0  0  0  0  0  0  0  0  0  0  0
  -29.5149  -12.4615   18.1163 C   0  0  0  0  0  0  0  0  0  0  0  0
  -20.9564  -31.1144   24.0675 C   0  0  0  0  0  0  0  0  0  0  0  0
  -28.1033  -12.1266   18.5970 C   0  0  0  0  0  0  0  0  0  0  0  0
  -30.4760  -12.6391   19.2873 C   0  0  0  0  0  0  0  0  0  0  0  0
  -28.6121  -13.3250   20.7720 C   0  0  0  0  0  0  0  0  0  0  0  0
  -22.0482  -30.3291   23.3309 C   0  0  1  0  0  0  0  0  0  0  0  0
  -20.4053  -27.4786   21.4311 C   0  0  1  0  0  0  0  0  0  0  0  0
  -27.6067  -13.1655   19.6182 C   0  0  2  0  0  0  0  0  0  0  0  0
  -25.8349  -19.9551   20.2107 C   0  0  0  0  0  0  0  0  0  0  0  0
  -15.4071  -21.5633   21.2584 C   0  0  0  0  0  0  0  0  0  0  0  0
  -18.4163  -25.8777   25.2835 C   0  0  0  0  0  0  0  0  0  0  0  0
  -17.0346  -23.8086   25.0042 C   0  0  0  0  0  0  0  0  0  0  0  0
  -16.1768  -26.0001   24.1769 C   0  0  0  0  0  0  0  0  0  0  0  0
  -17.9021  -22.5091   18.5460 C   0  0  0  0  0  0  0  0  0  0  0  0
  -24.8998  -22.2416   22.2708 C   0  0  0  0  0  0  0  0  0  1  0  0
  -18.0621  -24.8593   22.9375 C   0  0  1  0  0  0  0  0  0  0  0  0
  -16.3724  -22.4778   20.5203 C   0  0  2  0  0  0  0  0  0  0  0  0
  -17.4481  -25.1385   24.3384 C   0  0  0  0  0  0  0  0  0  0  0  0
  -25.8481  -11.5490   20.2321 N   0  0  0  0  0  0  0  0  0  0  0  0
  -30.3817  -15.2607   22.8953 N   0  0  0  0  0  0  0  0  0  0  0  0
  -28.8374  -17.6314   22.1224 N   0  0  0  0  0  0  0  0  0  0  0  0
  -27.5168  -19.6647   22.0386 N   0  0  0  0  0  0  0  0  0  0  0  0
  -26.2137  -12.8376   20.1231 N   0  0  0  0  0  0  0  0  0  0  0  0
  -29.9577  -13.6042   20.2548 N   0  0  0  0  0  0  0  0  0  0  0  0
  -19.8719  -26.2054   21.9194 N   0  0  0  0  0  0  0  0  0  0  0  0
  -25.4435  -15.0536   20.4499 N   0  0  0  0  0  0  0  0  0  0  0  0
  -21.9124  -12.5289   21.6962 N   0  0  0  0  0  0  0  0  0  0  0  0
  -21.4605  -29.4614   22.3327 N   0  0  0  0  0  0  0  0  0  0  0  0
  -17.1581  -24.1843   22.0126 N   0  0  0  0  0  0  0  0  0  0  0  0
  -16.9515  -21.7225   19.3735 N   0  3  0  0  0  0  0  0  0  0  0  0
  -22.6670  -14.6797   21.4438 O   0  0  0  0  0  0  0  0  0  0  0  0
  -31.8937  -14.9372   20.3030 O   0  0  0  0  0  0  0  0  0  0  0  0
  -20.9658  -27.6561   23.7178 O   0  0  0  0  0  0  0  0  0  0  0  0
  -17.6815  -27.0010   21.9918 O   0  0  0  0  0  0  0  0  0  0  0  0
  -18.5149  -22.3433   21.6289 O   0  0  0  0  0  0  0  0  0  0  0  0
  -28.8605  -19.7589   23.9731 O   0  0  0  0  0  0  0  0  0  0  0  0
  -21.6730   -6.9632   21.6772 O   0  0  0  0  0  0  0  0  0  0  0  0
  -25.2555  -23.2522   21.3283 O   0  0  0  0  0  0  0  0  0  1  0  0
  -18.8339   -6.6740   26.3952 F   0  0  0  0  0  0  0  0  0  0  0  0
  -22.1955   -4.9767   23.5274 F   0  0  0  0  0  0  0  0  0  0  0  0
  1  2  1  0  0  0  0
  1  5  2  0  0  0  0
  2  6  2  0  0  0  0
  3  8  2  0  0  0  0
  3 18  1  0  0  0  0
  4  9  1  0  0  0  0
  4 18  2  0  0  0  0
  5 20  1  0  0  0  0
  6 22  1  0  0  0  0
  7 10  2  0  0  0  0
  7 21  1  0  0  0  0
  8 25  1  0  0  0  0
  9 25  2  0  0  0  0
 10 26  1  0  0  0  0
 11 12  2  0  0  0  0
 11 27  1  0  0  0  0
 12 28  1  0  0  0  0
 13 14  1  0  0  0  0
 13 31  2  0  0  0  0
 14 33  2  0  0  0  0
 15 23  1  0  0  0  0
 15 26  2  0  0  0  0
 16 24  1  0  0  0  0
 16 35  2  0  0  0  0
 17 28  2  0  0  0  0
 17 29  1  0  0  0  0
 18 30  1  0  0  0  0
 19 30  1  0  0  0  0
 19 34  2  0  0  0  0
 19 36  1  0  0  0  0
 20 22  2  0  0  0  0
 20 42  1  0  0  0  0
 21 23  2  0  0  0  0
 21 43  1  0  0  0  0
 22 51  1  0  0  0  0
 23 44  1  0  0  0  0
 24 32  2  0  0  0  0
 24 60  1  0  0  0  0
 25 82  1  0  0  0  0
 26 83  1  0  0  0  0
 27 29  2  0  0  0  0
 27 82  1  0  0  0  0
 28 84  1  0  0  0  0
 29 85  1  0  0  0  0
 30 64  2  0  0  0  0
 31 37  1  0  0  0  0
 31 66  1  0  0  0  0
 32 54  1  0  0  0  0
 32 67  1  0  0  0  0
 33 66  1  0  0  0  0
 33 67  1  0  0  0  0
 34 68  1  0  0  0  0
 34 71  1  0  0  0  0
 35 67  1  0  0  0  0
 35 81  1  0  0  0  0
 36 72  1  0  0  0  0
 36 76  2  0  0  0  0
 37 38  1  0  0  0  0
 37 65  2  0  0  0  0
 38 69  1  0  0  0  0
 38 77  2  0  0  0  0
 39 52  1  0  0  0  0
 39 73  1  0  0  0  0
 39 78  2  0  0  0  0
 40 61  1  0  0  0  0
 40 70  1  0  0  0  0
 40 79  2  0  0  0  0
 41 62  1  0  0  0  0
 41 74  1  0  0  0  0
 41 80  2  0  0  0  0
 42 45  1  0  0  0  0
 43 52  1  0  0  0  0
 44 70  1  0  0  0  0
 45 47  1  0  0  0  0
 46 48  1  0  0  0  0
 46 49  1  0  0  0  0
 47 51  1  0  0  0  0
 48 53  1  0  0  0  0
 49 69  1  0  0  0  0
 50 53  1  0  0  0  0
 50 69  1  0  0  0  0
 51 73  1  0  0  0  0
 52 70  1  0  0  0  0
 53 68  1  0  0  0  0
 55 62  1  0  0  0  0
 56 63  1  0  0  0  0
 57 63  1  0  0  0  0
 58 63  1  0  0  0  0
 59 75  1  0  0  0  0
 60 83  1  0  0  0  0
 61 63  1  0  0  0  0
 61 74  1  0  0  0  0
 62 75  1  0  0  0  0
 64 68  1  0  0  0  0
M  CHG  1  75   1
M  ISO  4  37 100  38 100  60 101  83 101
M  END
> <Batch ID>
0089

> <Smiles>
CNC(C)C(=O)NC(C(=O)N1Cc2cc([101O:1][101CH2:1]C3=C(C)N(c4ccc([100C:0](=N)[100C:0](=O)N5CCCC(n6nc(-c7ccc(Oc8ccc(F)cc8F)cc7)c(C(N)=O)c6N)C5)[nH]4)C(=O)C3)ccc2CC1C(=O)NC1CCCc2ccccc21)C(C)(C)C

> <Shape>
0.292

> <Color>
0.201

> <Negative vol penalty>
0.000

$$$$

  -OEChem-04052300263D

 88 97  0     1  0  0  0  0  0999 V2000
  -22.4373   -9.0155   24.6556 C   0  0  0  0  0  0  0  0  0  0  0  0
  -23.0392  -10.2174   25.0143 C   0  0  0  0  0  0  0  0  0  0  0  0
  -22.5556  -28.8074   20.0806 C   0  0  0  0  0  0  0  0  0  0  0  0
  -22.7556  -26.7978   21.4067 C   0  0  0  0  0  0  0  0  0  0  0  0
  -22.1021   -8.7753   23.3237 C   0  0  0  0  0  0  0  0  0  0  0  0
  -23.3073  -11.1793   24.0410 C   0  0  0  0  0  0  0  0  0  0  0  0
  -23.0840  -17.2620   24.7170 C   0  0  0  0  0  0  0  0  0  0  0  0
  -21.1777  -28.8135   20.2977 C   0  0  0  0  0  0  0  0  0  0  0  0
  -21.3778  -26.8039   21.6239 C   0  0  0  0  0  0  0  0  0  0  0  0
  -24.0730  -18.2169   24.9490 C   0  0  0  0  0  0  0  0  0  0  0  0
  -18.5843  -25.9425   19.9254 C   0  0  0  0  0  0  0  0  0  0  0  0
  -17.9010  -24.7344   19.7867 C   0  0  0  0  0  0  0  0  0  0  0  0
  -29.0292  -19.2571   23.1313 C   0  0  0  0  0  0  0  0  0  0  0  0
  -29.2150  -20.3245   20.9720 C   0  0  0  0  0  0  0  0  0  0  0  0
  -24.1856  -18.6665   22.5816 C   0  0  0  0  0  0  0  0  0  0  0  0
  -28.5713  -21.6188   22.9079 C   0  0  0  0  0  0  0  0  0  0  0  0
  -17.1815  -24.8771   22.0886 C   0  0  0  0  0  0  0  0  0  0  0  0
  -23.3445  -27.7995   20.6351 C   0  0  0  0  0  0  0  0  0  0  0  0
  -29.3056  -19.1815   21.7663 C   0  0  0  0  0  0  0  0  0  0  0  0
  -25.6898  -28.7943   20.7682 C   0  0  0  0  0  0  0  0  0  0  0  0
  -22.3574   -9.7388   22.3352 C   0  0  0  0  0  0  0  0  0  0  0  0
  -22.6454  -16.9940   23.4123 C   0  0  0  0  0  0  0  0  0  0  0  0
  -22.9764  -10.9513   22.6945 C   0  0  0  0  0  0  0  0  0  0  0  0
  -23.1892  -17.7096   22.3360 C   0  0  0  0  0  0  0  0  0  0  0  0
  -28.6619  -20.4757   23.7021 C   0  0  0  0  0  0  0  0  0  0  0  0
  -28.8478  -21.5432   21.5428 C   0  0  0  0  0  0  0  0  0  0  0  0
  -20.5888  -27.8118   21.0693 C   0  0  0  0  0  0  0  0  0  0  0  0
  -24.6260  -18.9173   23.8810 C   0  0  0  0  0  0  0  0  0  0  0  0
  -18.5662  -26.6179   21.1457 C   0  0  0  0  0  0  0  0  0  0  0  0
  -17.1996  -24.2017   20.8683 C   0  0  0  0  0  0  0  0  0  0  0  0
  -17.8648  -26.0852   22.2273 C   0  0  0  0  0  0  0  0  0  0  0  0
  -24.7678  -27.7924   20.4107 C   0  0  0  0  0  0  0  0  0  0  0  0
  -26.9029  -28.3132   20.3399 C   0  0  0  0  0  0  0  0  0  0  0  0
  -27.9097  -20.8369   27.8528 C   0  0  0  0  0  0  0  0  0  0  0  0
  -29.6898  -17.9110   21.1716 C   0  0  0  0  0  0  0  0  0  0  0  0
  -25.4694  -30.0478   21.4285 C   0  0  0  0  0  0  0  0  0  0  0  0
  -22.6650  -14.4405   21.5194 C   0  0  0  0  0  0  0  0  0  0  0  0
  -20.9237  -16.3581   19.5667 C   0  0  0  0  0  0  0  0  0  0  0  0
  -20.0775  -19.5254   18.6188 C   0  0  0  0  0  0  0  0  0  0  0  0
  -28.9950  -22.8016   19.3653 C   0  0  0  0  0  0  0  0  0  0  0  0
  -22.0203   -9.4146   20.9013 C   0  0  0  0  0  0  0  0  0  0  0  0
  -21.5588  -15.9799   23.1815 C   0  0  0  0  0  0  0  0  0  0  0  0
  -22.7385  -17.4737   20.9184 C   0  0  0  0  0  0  0  0  0  0  0  0
  -29.2153  -20.2541   27.3783 C   0  0  0  0  0  0  0  0  0  0  0  0
  -27.2103  -21.7585   26.8847 C   0  0  0  0  0  0  0  0  0  0  0  0
  -21.9967  -10.6387   19.9895 C   0  0  0  0  0  0  0  0  0  0  0  0
  -28.8385  -25.4671   17.0101 C   0  0  0  0  0  0  0  0  0  0  0  0
  -23.2273  -11.5074   20.2300 C   0  0  0  0  0  0  0  0  0  0  0  0
  -27.8654  -26.4599   17.6502 C   0  0  0  0  0  0  0  0  0  0  0  0
  -29.0677  -19.6367   25.9944 C   0  0  0  0  0  0  0  0  0  0  0  0
  -28.4280  -24.0197   17.2750 C   0  0  0  0  0  0  0  0  0  0  0  0
  -27.2361  -24.6779   19.3281 C   0  0  0  0  0  0  0  0  0  0  0  0
  -23.2607  -12.0295   21.6714 C   0  0  1  0  0  0  0  0  0  0  0  0
  -21.5537  -15.4224   21.7615 C   0  0  1  0  0  0  0  0  0  0  0  0
  -27.6439  -26.1487   19.1434 C   0  0  2  0  0  0  0  0  0  0  0  0
  -27.0905  -21.1276   25.4951 C   0  0  2  0  0  0  0  0  0  0  0  0
  -18.8500  -21.3401   17.3950 C   0  0  0  0  0  0  0  0  0  0  0  0
  -22.9442  -15.7404   17.3654 C   0  0  0  0  0  0  0  0  0  0  0  0
  -22.0490  -17.7000   16.0900 C   0  0  0  0  0  0  0  0  0  0  0  0
  -20.5590  -15.7692   16.6140 C   0  0  0  0  0  0  0  0  0  0  0  0
  -17.9528  -19.6355   20.6761 C   0  0  0  0  0  0  0  0  0  0  0  0
  -25.9913  -20.0591   25.4584 C   0  0  0  0  0  0  0  0  0  1  0  0
  -21.2473  -17.3429   18.4692 C   0  0  1  0  0  0  0  0  0  0  0  0
  -18.7289  -20.1742   18.3639 C   0  0  2  0  0  0  0  0  0  0  0  0
  -21.7100  -16.6414   17.1610 C   0  0  0  0  0  0  0  0  0  0  0  0
  -25.3457  -26.7533   19.8020 N   0  0  0  0  0  0  0  0  0  0  0  0
  -26.6438  -27.0998   19.7736 N   0  0  0  0  0  0  0  0  0  0  0  0
  -28.3839  -20.5519   25.0723 N   0  0  2  0  0  0  0  0  0  0  0  0
  -21.6780  -16.4675   20.7434 N   0  0  0  0  0  0  0  0  0  0  0  0
  -28.2403  -23.7977   18.7104 N   0  0  0  0  0  0  0  0  0  0  0  0
  -28.1553  -28.8141   20.3961 N   0  0  0  0  0  0  0  0  0  0  0  0
  -29.7667  -16.8014   22.0083 N   0  0  0  0  0  0  0  0  0  0  0  0
  -25.5361  -30.0866   22.8279 N   0  0  0  0  0  0  0  0  0  0  0  0
  -28.7550  -22.7040   20.7356 N   0  0  0  0  0  0  0  0  0  0  0  0
  -22.3393  -13.1341   21.8303 N   0  0  0  0  0  0  0  0  0  0  0  0
  -20.0639  -18.1814   18.3112 N   0  0  0  0  0  0  0  0  0  0  0  0
  -18.1488  -20.6815   19.6395 N   0  3  0  0  0  0  0  0  0  0  0  0
  -27.4925  -20.6549   28.9947 O   0  0  0  0  0  0  0  0  0  0  0  0
  -29.9580  -17.8167   19.9611 O   0  0  0  0  0  0  0  0  0  0  0  0
  -25.2046  -31.0988   20.7971 O   0  0  0  0  0  0  0  0  0  0  0  0
  -23.7381  -14.8385   21.0815 O   0  0  0  0  0  0  0  0  0  0  0  0
  -20.0295  -15.5270   19.3892 O   0  0  0  0  0  0  0  0  0  0  0  0
  -21.0471  -20.1494   19.0443 O   0  0  0  0  0  0  0  0  0  0  0  0
  -29.8151  -22.1061   18.7606 O   0  0  0  0  0  0  0  0  0  0  0  0
  -19.2444  -27.8176   21.2816 O   0  0  0  0  0  0  0  0  0  0  0  0
  -25.5919  -19.8495   24.1045 O   0  0  0  0  0  0  0  0  0  1  0  0
  -16.5422  -23.0424   20.7345 F   0  0  0  0  0  0  0  0  0  0  0  0
  -17.8428  -26.7301   23.4018 F   0  0  0  0  0  0  0  0  0  0  0  0
  1  2  1  0  0  0  0
  1  5  2  0  0  0  0
  2  6  2  0  0  0  0
  3  8  2  0  0  0  0
  3 18  1  0  0  0  0
  4  9  1  0  0  0  0
  4 18  2  0  0  0  0
  5 21  1  0  0  0  0
  6 23  1  0  0  0  0
  7 10  2  0  0  0  0
  7 22  1  0  0  0  0
  8 27  1  0  0  0  0
  9 27  2  0  0  0  0
 10 28  1  0  0  0  0
 11 12  2  0  0  0  0
 11 29  1  0  0  0  0
 12 30  1  0  0  0  0
 13 19  1  0  0  0  0
 13 25  2  0  0  0  0
 14 19  2  0  0  0  0
 14 26  1  0  0  0  0
 15 24  1  0  0  0  0
 15 28  2  0  0  0  0
 16 25  1  0  0  0  0
 16 26  2  0  0  0  0
 17 30  2  0  0  0  0
 17 31  1  0  0  0  0
 18 32  1  0  0  0  0
 19 35  1  0  0  0  0
 20 32  1  0  0  0  0
 20 33  2  0  0  0  0
 20 36  1  0  0  0  0
 21 23  2  0  0  0  0
 21 41  1  0  0  0  0
 22 24  2  0  0  0  0
 22 42  1  0  0  0  0
 23 53  1  0  0  0  0
 24 43  1  0  0  0  0
 25 68  1  0  0  0  0
 26 74  1  0  0  0  0
 27 85  1  0  0  0  0
 28 86  1  0  0  0  0
 29 31  2  0  0  0  0
 29 85  1  0  0  0  0
 30 87  1  0  0  0  0
 31 88  1  0  0  0  0
 32 66  2  0  0  0  0
 33 67  1  0  0  0  0
 33 71  1  0  0  0  0
 34 44  1  0  0  0  0
 34 45  1  0  0  0  0
 34 78  2  0  0  0  0
 35 72  1  0  0  0  0
 35 79  2  0  0  0  0
 36 73  1  0  0  0  0
 36 80  2  0  0  0  0
 37 54  1  0  0  0  0
 37 75  1  0  0  0  0
 37 81  2  0  0  0  0
 38 63  1  0  0  0  0
 38 69  1  0  0  0  0
 38 82  2  0  0  0  0
 39 64  1  0  0  0  0
 39 76  1  0  0  0  0
 39 83  2  0  0  0  0
 40 70  1  0  0  0  0
 40 74  1  0  0  0  0
 40 84  2  0  0  0  0
 41 46  1  0  0  0  0
 42 54  1  0  0  0  0
 43 69  1  0  0  0  0
 44 50  1  0  0  0  0
 45 56  1  0  0  0  0
 46 48  1  0  0  0  0
 47 49  1  0  0  0  0
 47 51  1  0  0  0  0
 48 53  1  0  0  0  0
 49 55  1  0  0  0  0
 50 68  1  0  0  0  0
 51 70  1  0  0  0  0
 52 55  1  0  0  0  0
 52 70  1  0  0  0  0
 53 75  1  0  0  0  0
 54 69  1  0  0  0  0
 55 67  1  0  0  0  0
 56 62  1  0  0  0  0
 56 68  1  0  0  0  0
 57 64  1  0  0  0  0
 58 65  1  0  0  0  0
 59 65  1  0  0  0  0
 60 65  1  0  0  0  0
 61 77  1  0  0  0  0
 62 86  1  0  0  0  0
 63 65  1  0  0  0  0
 63 76  1  0  0  0  0
 64 77  1  0  0  0  0
 66 67  1  0  0  0  0
M  CHG  1  77   1
M  ISO  4  40 100  62 101  74 100  86 101
M  END
> <Batch ID>
0089

> <Smiles>
CNC(C)C(=O)NC(C(=O)N1Cc2cc([101O:1][101CH2:1]C3CC(=O)CCN3c3cc([100NH:0][100C:0](=O)N4CCCC(n5nc(-c6ccc(Oc7ccc(F)cc7F)cc6)c(C(N)=O)c5N)C4)cc(C(N)=O)c3)ccc2CC1C(=O)NC1CCCc2ccccc21)C(C)(C)C

> <Shape>
0.193

> <Color>
0.053

> <Negative vol penalty>
0.000

$$$$

  -OEChem-04052300263D

 83 91  0     1  0  0  0  0  0999 V2000
  -23.8311  -15.7654   19.4010 C   0  0  0  0  0  0  0  0  0  0  0  0
  -19.2269  -28.4987   22.3748 C   0  0  0  0  0  0  0  0  0  0  0  0
  -18.9744  -27.2550   21.8048 C   0  0  0  0  0  0  0  0  0  0  0  0
  -27.3424  -22.9624   20.4884 C   0  0  0  0  0  0  0  0  0  0  0  0
  -28.9974  -23.3009   18.7611 C   0  0  0  0  0  0  0  0  0  0  0  0
  -25.9011  -12.0171   21.5113 C   0  0  0  0  0  0  0  0  0  0  0  0
  -20.4474  -28.7412   23.0037 C   0  0  0  0  0  0  0  0  0  0  0  0
  -19.9428  -26.2534   21.8625 C   0  0  0  0  0  0  0  0  0  0  0  0
  -20.5904  -19.1352   22.3413 C   0  0  0  0  0  0  0  0  0  0  0  0
  -24.5980  -11.8829   21.0322 C   0  0  0  0  0  0  0  0  0  0  0  0
  -27.2184  -24.3434   20.6403 C   0  0  0  0  0  0  0  0  0  0  0  0
  -28.8734  -24.6819   18.9130 C   0  0  0  0  0  0  0  0  0  0  0  0
  -21.2199  -18.0658   21.7058 C   0  0  0  0  0  0  0  0  0  0  0  0
  -29.2567  -28.2915   19.0956 C   0  0  0  0  0  0  0  0  0  0  0  0
  -30.4287  -29.0464   19.1430 C   0  0  0  0  0  0  0  0  0  0  0  0
  -26.1673  -14.0417   20.2201 C   0  0  0  0  0  0  0  0  0  0  0  0
  -23.2609  -18.5728   22.8874 C   0  0  0  0  0  0  0  0  0  0  0  0
  -31.1409  -27.8177   21.0976 C   0  0  0  0  0  0  0  0  0  0  0  0
  -28.2319  -22.4411   19.5488 C   0  0  0  0  0  0  0  0  0  0  0  0
  -26.6857  -13.0965   21.1052 C   0  0  0  0  0  0  0  0  0  0  0  0
  -27.6254  -20.1849   18.5244 C   0  0  0  0  0  0  0  0  0  0  0  0
  -21.4275  -27.7389   23.0776 C   0  0  0  0  0  0  0  0  0  0  0  0
  -21.2958  -19.9395   23.2480 C   0  0  0  0  0  0  0  0  0  0  0  0
  -21.1781  -26.4831   22.4919 C   0  0  0  0  0  0  0  0  0  0  0  0
  -22.6374  -19.6502   23.5351 C   0  0  0  0  0  0  0  0  0  0  0  0
  -24.8642  -13.9075   19.7411 C   0  0  0  0  0  0  0  0  0  0  0  0
  -24.0795  -12.8281   20.1471 C   0  0  0  0  0  0  0  0  0  0  0  0
  -27.9839  -25.2031   19.8526 C   0  0  0  0  0  0  0  0  0  0  0  0
  -22.5561  -17.7862   21.9766 C   0  0  0  0  0  0  0  0  0  0  0  0
  -29.0267  -27.2998   20.0492 C   0  0  0  0  0  0  0  0  0  0  0  0
  -31.3708  -28.8094   20.1440 C   0  0  0  0  0  0  0  0  0  0  0  0
  -29.9688  -27.0629   21.0502 C   0  0  0  0  0  0  0  0  0  0  0  0
  -28.3608  -21.0146   19.3919 C   0  0  0  0  0  0  0  0  0  0  0  0
  -28.1217  -18.9246   18.7518 C   0  0  0  0  0  0  0  0  0  0  0  0
  -23.2444  -16.7566   19.9924 C   0  0  0  0  0  0  0  0  0  1  0  0
  -28.0735  -13.2388   21.6159 C   0  0  0  0  0  0  0  0  0  0  0  0
  -26.5865  -20.5233   17.5959 C   0  0  0  0  0  0  0  0  0  0  0  0
  -22.0975  -23.0130   23.3673 C   0  0  0  0  0  0  0  0  0  0  0  0
  -23.1771  -22.2153   26.3203 C   0  0  0  0  0  0  0  0  0  0  0  0
  -24.3080  -19.7853   28.4329 C   0  0  0  0  0  0  0  0  0  0  0  0
  -29.8283  -14.8985   22.1541 C   0  0  0  0  0  0  0  0  0  0  0  0
  -22.7498  -28.0631   23.7264 C   0  0  0  0  0  0  0  0  0  0  0  0
  -20.5948  -21.0730   23.9454 C   0  0  0  0  0  0  0  0  0  0  0  0
  -23.4333  -20.4708   24.5157 C   0  0  0  0  0  0  0  0  0  0  0  0
  -23.5775  -26.8280   24.0726 C   0  0  0  0  0  0  0  0  0  0  0  0
  -32.1911  -17.4039   21.3559 C   0  0  0  0  0  0  0  0  0  0  0  0
  -23.6050  -25.8570   22.8965 C   0  0  0  0  0  0  0  0  0  0  0  0
  -31.3482  -18.4976   20.6944 C   0  0  0  0  0  0  0  0  0  0  0  0
  -31.4495  -16.7390   22.5148 C   0  0  0  0  0  0  0  0  0  0  0  0
  -29.2712  -17.3274   21.5316 C   0  0  0  0  0  0  0  0  0  0  0  0
  -22.1938  -25.3631   22.5557 C   0  0  1  0  0  0  0  0  0  0  0  0
  -21.5540  -22.1404   24.4631 C   0  0  1  0  0  0  0  0  0  0  0  0
  -29.9466  -17.9794   20.3142 C   0  0  1  0  0  0  0  0  0  0  0  0
  -25.1492  -19.4442   30.7724 C   0  0  0  0  0  0  0  0  0  0  0  0
  -25.8632  -23.4272   25.5287 C   0  0  0  0  0  0  0  0  0  0  0  0
  -26.8955  -22.2342   27.4727 C   0  0  0  0  0  0  0  0  0  0  0  0
  -25.1287  -23.9519   27.8610 C   0  0  0  0  0  0  0  0  0  0  0  0
  -22.0866  -17.9424   29.0868 C   0  0  0  0  0  0  0  0  0  0  0  0
  -24.4856  -21.7121   26.8803 C   0  0  1  0  0  0  0  0  0  0  0  0
  -23.9313  -19.4375   29.8617 C   0  0  2  0  0  0  0  0  0  0  0  0
  -25.5791  -22.8169   26.9157 C   0  0  0  0  0  0  0  0  0  0  0  0
  -29.2561  -20.3383   20.1165 N   0  0  0  0  0  0  0  0  0  0  0  0
  -24.3601  -14.8736   18.8468 N   0  0  0  0  0  0  0  0  0  0  0  0
  -29.0864  -19.0703   19.7048 N   0  0  0  0  0  0  0  0  0  0  0  0
  -22.7053  -21.5722   25.1672 N   0  0  0  0  0  0  0  0  0  0  0  0
  -30.1367  -16.2675   22.0704 N   0  0  0  0  0  0  0  0  0  0  0  0
  -22.7582  -12.6744   19.6718 N   0  0  0  0  0  0  0  0  0  0  0  0
  -27.8226  -17.7171   18.2276 N   0  0  0  0  0  0  0  0  0  0  0  0
  -26.1981  -21.8656   17.4879 N   0  0  0  0  0  0  0  0  0  0  0  0
  -28.5663  -14.5431   21.6652 N   0  0  0  0  0  0  0  0  0  0  0  0
  -21.7716  -24.3495   23.4984 N   0  0  0  0  0  0  0  0  0  0  0  0
  -24.1766  -21.1352   28.1842 N   0  0  0  0  0  0  0  0  0  0  0  0
  -23.3093  -18.0845   29.9187 N   0  3  0  0  0  0  0  0  0  0  0  0
  -28.6777  -12.2383   21.9924 O   0  0  0  0  0  0  0  0  0  0  0  0
  -26.0081  -19.6585   16.8951 O   0  0  0  0  0  0  0  0  0  0  0  0
  -22.7644  -22.5112   22.4700 O   0  0  0  0  0  0  0  0  0  0  0  0
  -22.5915  -23.1400   26.8892 O   0  0  0  0  0  0  0  0  0  0  0  0
  -24.6850  -18.9443   27.6199 O   0  0  0  0  0  0  0  0  0  0  0  0
  -30.6223  -14.0594   22.5909 O   0  0  0  0  0  0  0  0  0  0  0  0
  -27.8630  -26.5508   20.0003 O   0  0  0  0  0  0  0  0  0  0  0  0
  -23.1731  -16.7434   21.3572 O   0  0  0  0  0  0  0  0  0  1  0  0
  -32.4969  -29.5333   20.1885 F   0  0  0  0  0  0  0  0  0  0  0  0
  -29.7540  -26.1107   21.9683 F   0  0  0  0  0  0  0  0  0  0  0  0
  1 35  2  0  0  0  0
  1 63  2  0  0  0  0
  2  3  1  0  0  0  0
  2  7  2  0  0  0  0
  3  8  2  0  0  0  0
  4 11  2  0  0  0  0
  4 19  1  0  0  0  0
  5 12  1  0  0  0  0
  5 19  2  0  0  0  0
  6 10  2  0  0  0  0
  6 20  1  0  0  0  0
  7 22  1  0  0  0  0
  8 24  1  0  0  0  0
  9 13  2  0  0  0  0
  9 23  1  0  0  0  0
 10 27  1  0  0  0  0
 11 28  1  0  0  0  0
 12 28  2  0  0  0  0
 13 29  1  0  0  0  0
 14 15  2  0  0  0  0
 14 30  1  0  0  0  0
 15 31  1  0  0  0  0
 16 20  2  0  0  0  0
 16 26  1  0  0  0  0
 17 25  1  0  0  0  0
 17 29  2  0  0  0  0
 18 31  2  0  0  0  0
 18 32  1  0  0  0  0
 19 33  1  0  0  0  0
 20 36  1  0  0  0  0
 21 33  1  0  0  0  0
 21 34  2  0  0  0  0
 21 37  1  0  0  0  0
 22 24  2  0  0  0  0
 22 42  1  0  0  0  0
 23 25  2  0  0  0  0
 23 43  1  0  0  0  0
 24 51  1  0  0  0  0
 25 44  1  0  0  0  0
 26 27  2  0  0  0  0
 26 63  1  0  0  0  0
 27 67  1  0  0  0  0
 28 80  1  0  0  0  0
 29 81  1  0  0  0  0
 30 32  2  0  0  0  0
 30 80  1  0  0  0  0
 31 82  1  0  0  0  0
 32 83  1  0  0  0  0
 33 62  2  0  0  0  0
 34 64  1  0  0  0  0
 34 68  1  0  0  0  0
 35 81  1  0  0  0  0
 36 70  1  0  0  0  0
 36 74  2  0  0  0  0
 37 69  1  0  0  0  0
 37 75  2  0  0  0  0
 38 52  1  0  0  0  0
 38 71  1  0  0  0  0
 38 76  2  0  0  0  0
 39 59  1  0  0  0  0
 39 65  1  0  0  0  0
 39 77  2  0  0  0  0
 40 60  1  0  0  0  0
 40 72  1  0  0  0  0
 40 78  2  0  0  0  0
 41 66  1  0  0  0  0
 41 70  1  0  0  0  0
 41 79  2  0  0  0  0
 42 45  1  0  0  0  0
 43 52  1  0  0  0  0
 44 65  1  0  0  0  0
 45 47  1  0  0  0  0
 46 48  1  0  0  0  0
 46 49  1  0  0  0  0
 47 51  1  0  0  0  0
 48 53  1  0  0  0  0
 49 66  1  0  0  0  0
 50 53  1  0  0  0  0
 50 66  1  0  0  0  0
 51 71  1  0  0  0  0
 52 65  1  0  0  0  0
 53 64  1  0  0  0  0
 54 60  1  0  0  0  0
 55 61  1  0  0  0  0
 56 61  1  0  0  0  0
 57 61  1  0  0  0  0
 58 73  1  0  0  0  0
 59 61  1  0  0  0  0
 59 72  1  0  0  0  0
 60 73  1  0  0  0  0
 62 64  1  0  0  0  0
M  CHG  1  73   1
M  ISO  4  35 101  41 100  70 100  81 101
M  END
> <Batch ID>
0089

> <Smiles>
CNC(C)C(=O)NC(C(=O)N1Cc2cc([101O:1][101CH:1]=C=Nc3cc(C(=O)[100NH:0][100C:0](=O)N4CCCC(n5nc(-c6ccc(Oc7ccc(F)cc7F)cc6)c(C(N)=O)c5N)C4)ccc3N)ccc2CC1C(=O)NC1CCCc2ccccc21)C(C)(C)C

> <Shape>
0.202

> <Color>
0.056

> <Negative vol penalty>
0.000

$$$$

  -OEChem-04052300263D

 86 95  0     1  0  0  0  0  0999 V2000
  -16.6222  -26.6837   22.2334 C   0  0  0  0  0  0  0  0  0  0  0  0
  -17.8544  -26.0705   22.0306 C   0  0  0  0  0  0  0  0  0  0  0  0
  -22.9322  -10.0909   19.9428 C   0  0  0  0  0  0  0  0  0  0  0  0
  -23.8888   -9.8253   22.1454 C   0  0  0  0  0  0  0  0  0  0  0  0
  -29.3790  -16.9886   20.0789 C   0  0  0  0  0  0  0  0  0  0  0  0
  -16.4994  -28.0647   22.0864 C   0  0  0  0  0  0  0  0  0  0  0  0
  -18.9644  -26.8380   21.6795 C   0  0  0  0  0  0  0  0  0  0  0  0
  -23.1101  -25.5692   24.2965 C   0  0  0  0  0  0  0  0  0  0  0  0
  -28.6782  -18.1624   19.8021 C   0  0  0  0  0  0  0  0  0  0  0  0
  -22.1690   -8.9394   20.1355 C   0  0  0  0  0  0  0  0  0  0  0  0
  -23.1256   -8.6738   22.3381 C   0  0  0  0  0  0  0  0  0  0  0  0
  -23.7882  -24.4185   23.8965 C   0  0  0  0  0  0  0  0  0  0  0  0
  -23.2382   -5.4256   21.4071 C   0  0  0  0  0  0  0  0  0  0  0  0
  -23.8739   -4.3106   21.9532 C   0  0  0  0  0  0  0  0  0  0  0  0
  -25.3961  -25.7813   22.7231 C   0  0  0  0  0  0  0  0  0  0  0  0
  -28.4521  -18.5860   22.1699 C   0  0  0  0  0  0  0  0  0  0  0  0
  -22.3357   -4.3460   23.8160 C   0  0  0  0  0  0  0  0  0  0  0  0
  -23.7922  -10.5338   20.9478 C   0  0  0  0  0  0  0  0  0  0  0  0
  -29.6163  -16.6134   21.4013 C   0  0  0  0  0  0  0  0  0  0  0  0
  -24.2196  -13.0460   21.0660 C   0  0  0  0  0  0  0  0  0  0  0  0
  -17.6106  -28.8507   21.7427 C   0  0  0  0  0  0  0  0  0  0  0  0
  -23.5644  -26.8361   23.9030 C   0  0  0  0  0  0  0  0  0  0  0  0
  -18.8561  -28.2307   21.5264 C   0  0  0  0  0  0  0  0  0  0  0  0
  -24.7234  -26.9466   23.1216 C   0  0  0  0  0  0  0  0  0  0  0  0
  -28.2148  -18.9611   20.8475 C   0  0  0  0  0  0  0  0  0  0  0  0
  -22.2656   -8.2309   21.3331 C   0  0  0  0  0  0  0  0  0  0  0  0
  -24.9297  -24.5243   23.1072 C   0  0  0  0  0  0  0  0  0  0  0  0
  -22.1513   -6.0009   22.0654 C   0  0  0  0  0  0  0  0  0  0  0  0
  -23.4226   -3.7708   23.1576 C   0  0  0  0  0  0  0  0  0  0  0  0
  -29.1529  -17.4121   22.4468 C   0  0  0  0  0  0  0  0  0  0  0  0
  -21.7000   -5.4611   23.2698 C   0  0  0  0  0  0  0  0  0  0  0  0
  -24.5813  -11.7229   20.7492 C   0  0  0  0  0  0  0  0  0  0  0  0
  -25.3040  -13.7987   20.6867 C   0  0  0  0  0  0  0  0  0  0  0  0
  -26.3465  -22.0992   20.8784 C   0  0  0  0  0  0  0  0  0  0  0  0
  -26.4864  -21.8332   19.4286 C   0  0  0  0  0  0  0  0  0  0  0  0
  -25.7178  -23.1647   21.3749 C   0  0  0  0  0  0  0  0  0  1  0  0
  -30.3470  -15.3882   21.6854 C   0  0  0  0  0  0  0  0  0  0  0  0
  -23.0113  -13.5496   21.6510 C   0  0  0  0  0  0  0  0  0  0  0  0
  -30.8504  -14.5206   20.5959 C   0  0  0  0  0  0  0  0  0  0  0  0
  -22.3597  -29.2126   22.1697 C   0  0  0  0  0  0  0  0  0  0  0  0
  -25.0435  -30.7578   23.1348 C   0  0  0  0  0  0  0  0  0  0  0  0
  -28.2595  -30.5524   24.2582 C   0  0  0  0  0  0  0  0  0  0  0  0
  -17.4185  -30.3340   21.5489 C   0  0  0  0  0  0  0  0  0  0  0  0
  -22.8370  -28.0689   24.3651 C   0  0  0  0  0  0  0  0  0  0  0  0
  -25.2639  -28.2843   22.6893 C   0  0  0  0  0  0  0  0  0  0  0  0
  -27.0161  -20.9922   21.6240 C   0  0  0  0  0  0  0  0  0  0  0  0
  -27.2448  -20.5549   19.2171 C   0  0  0  0  0  0  0  0  0  0  0  0
  -18.7261  -31.1217   21.5415 C   0  0  0  0  0  0  0  0  0  0  0  0
  -29.3783  -12.5840   17.9616 C   0  0  0  0  0  0  0  0  0  0  0  0
  -19.7569  -30.4366   20.6499 C   0  0  0  0  0  0  0  0  0  0  0  0
  -27.9829  -12.2636   18.4964 C   0  0  0  0  0  0  0  0  0  0  0  0
  -30.4102  -12.6261   19.0840 C   0  0  0  0  0  0  0  0  0  0  0  0
  -28.6635  -13.2551   20.7278 C   0  0  0  0  0  0  0  0  0  0  0  0
  -20.0889  -29.0323   21.1688 C   0  0  1  0  0  0  0  0  0  0  0  0
  -23.0952  -29.2828   23.4780 C   0  0  1  0  0  0  0  0  0  0  0  0
  -27.5891  -13.2312   19.6266 C   0  0  2  0  0  0  0  0  0  0  0  0
  -30.2094  -31.9855   24.9227 C   0  0  0  0  0  0  0  0  0  0  0  0
  -25.6165  -31.3374   20.1945 C   0  0  0  0  0  0  0  0  0  0  0  0
  -27.9699  -31.9015   20.8363 C   0  0  0  0  0  0  0  0  0  0  0  0
  -26.0751  -33.2471   21.7428 C   0  0  0  0  0  0  0  0  0  0  0  0
  -28.2695  -29.4649   27.0107 C   0  0  0  0  0  0  0  0  0  0  0  0
  -26.4479  -30.8976   22.5989 C   0  0  1  0  0  0  0  0  0  0  0  0
  -28.9719  -31.2453   25.4058 C   0  0  2  0  0  0  0  0  0  0  0  0
  -26.5163  -31.8205   21.3495 C   0  0  0  0  0  0  0  0  0  0  0  0
  -25.8003  -11.6367   20.2100 N   0  0  0  0  0  0  0  0  0  0  0  0
  -30.6085  -14.9743   22.8957 N   0  0  0  0  0  0  0  0  0  0  0  0
  -26.2139  -12.9152   20.1850 N   0  0  0  0  0  0  0  0  0  0  0  0
  -27.5325  -20.1042   20.5782 N   0  0  3  0  0  0  0  0  0  0  0  0
  -29.9887  -13.5255   20.1561 N   0  0  0  0  0  0  0  0  0  0  0  0
  -24.5138  -29.4599   23.1614 N   0  0  0  0  0  0  0  0  0  0  0  0
  -25.5585  -15.1235   20.7367 N   0  0  0  0  0  0  0  0  0  0  0  0
  -21.9983  -12.6388   21.9803 N   0  0  0  0  0  0  0  0  0  0  0  0
  -20.9878  -29.1110   22.3003 N   0  0  0  0  0  0  0  0  0  0  0  0
  -27.2693  -31.3456   23.7183 N   0  0  0  0  0  0  0  0  0  0  0  0
  -29.3907  -30.2494   26.4323 N   0  3  0  0  0  0  0  0  0  0  0  0
  -26.0506  -22.5448   18.5376 O   0  0  0  0  0  0  0  0  0  0  0  0
  -22.8287  -14.7729   21.8599 O   0  0  0  0  0  0  0  0  0  0  0  0
  -31.9795  -14.7754   20.1978 O   0  0  0  0  0  0  0  0  0  0  0  0
  -22.9900  -29.2495   21.1195 O   0  0  0  0  0  0  0  0  0  0  0  0
  -24.4414  -31.7622   23.5225 O   0  0  0  0  0  0  0  0  0  0  0  0
  -28.5547  -29.4221   23.8763 O   0  0  0  0  0  0  0  0  0  0  0  0
  -21.5208   -7.1073   21.5215 O   0  0  0  0  0  0  0  0  0  0  0  0
  -25.5931  -23.4028   22.7149 O   0  0  0  0  0  0  0  0  0  1  0  0
  -24.0322   -2.6991   23.6812 F   0  0  0  0  0  0  0  0  0  0  0  0
  -29.3733  -17.0596   23.7213 F   0  0  0  0  0  0  0  0  0  0  0  0
  -20.6556   -6.0087   23.9062 F   0  0  0  0  0  0  0  0  0  0  0  0
  1  2  1  0  0  0  0
  1  6  2  0  0  0  0
  2  7  2  0  0  0  0
  3 10  2  0  0  0  0
  3 18  1  0  0  0  0
  4 11  1  0  0  0  0
  4 18  2  0  0  0  0
  5  9  2  0  0  0  0
  5 19  1  0  0  0  0
  6 21  1  0  0  0  0
  7 23  1  0  0  0  0
  8 12  2  0  0  0  0
  8 22  1  0  0  0  0
  9 25  1  0  0  0  0
 10 26  1  0  0  0  0
 11 26  2  0  0  0  0
 12 27  1  0  0  0  0
 13 14  2  0  0  0  0
 13 28  1  0  0  0  0
 14 29  1  0  0  0  0
 15 24  1  0  0  0  0
 15 27  2  0  0  0  0
 16 25  2  0  0  0  0
 16 30  1  0  0  0  0
 17 29  2  0  0  0  0
 17 31  1  0  0  0  0
 18 32  1  0  0  0  0
 19 30  2  0  0  0  0
 19 37  1  0  0  0  0
 20 32  1  0  0  0  0
 20 33  2  0  0  0  0
 20 38  1  0  0  0  0
 21 23  2  0  0  0  0
 21 43  1  0  0  0  0
 22 24  2  0  0  0  0
 22 44  1  0  0  0  0
 23 54  1  0  0  0  0
 24 45  1  0  0  0  0
 25 68  1  0  0  0  0
 26 82  1  0  0  0  0
 27 83  1  0  0  0  0
 28 31  2  0  0  0  0
 28 82  1  0  0  0  0
 29 84  1  0  0  0  0
 30 85  1  0  0  0  0
 31 86  1  0  0  0  0
 32 65  2  0  0  0  0
 33 67  1  0  0  0  0
 33 71  1  0  0  0  0
 34 35  1  0  0  0  0
 34 36  2  0  0  0  0
 34 46  1  0  0  0  0
 35 47  1  0  0  0  0
 35 76  2  0  0  0  0
 36 83  1  0  0  0  0
 37 39  1  0  0  0  0
 37 66  2  0  0  0  0
 38 72  1  0  0  0  0
 38 77  2  0  0  0  0
 39 69  1  0  0  0  0
 39 78  2  0  0  0  0
 40 55  1  0  0  0  0
 40 73  1  0  0  0  0
 40 79  2  0  0  0  0
 41 62  1  0  0  0  0
 41 70  1  0  0  0  0
 41 80  2  0  0  0  0
 42 63  1  0  0  0  0
 42 74  1  0  0  0  0
 42 81  2  0  0  0  0
 43 48  1  0  0  0  0
 44 55  1  0  0  0  0
 45 70  1  0  0  0  0
 46 68  1  0  0  0  0
 47 68  1  0  0  0  0
 48 50  1  0  0  0  0
 49 51  1  0  0  0  0
 49 52  1  0  0  0  0
 50 54  1  0  0  0  0
 51 56  1  0  0  0  0
 52 69  1  0  0  0  0
 53 56  1  0  0  0  0
 53 69  1  0  0  0  0
 54 73  1  0  0  0  0
 55 70  1  0  0  0  0
 56 67  1  0  0  0  0
 57 63  1  0  0  0  0
 58 64  1  0  0  0  0
 59 64  1  0  0  0  0
 60 64  1  0  0  0  0
 61 75  1  0  0  0  0
 62 64  1  0  0  0  0
 62 74  1  0  0  0  0
 63 75  1  0  0  0  0
 65 67  1  0  0  0  0
M  CHG  1  75   1
M  ISO  4  36 101  37 100  39 100  83 101
M  END
> <Batch ID>
0089

> <Smiles>
CNC(C)C(=O)NC(C(=O)N1Cc2cc([101O:1][101CH:1]=C3CN(c4ccc([100C:0](=N)[100C:0](=O)N5CCCC(n6nc(-c7ccc(Oc8ccc(F)cc8F)cc7)c(C(N)=O)c6N)C5)c(F)c4)CC3=O)ccc2CC1C(=O)NC1CCCc2ccccc21)C(C)(C)C

> <Shape>
0.346

> <Color>
0.207

> <Negative vol penalty>
0.000

$$$$

  -OEChem-04052300263D

 86 94  0     1  0  0  0  0  0999 V2000
  -17.5539  -30.1480   25.7756 C   0  0  0  0  0  0  0  0  0  0  0  0
  -18.9051  -30.1243   26.1059 C   0  0  0  0  0  0  0  0  0  0  0  0
  -24.9332   -8.5043   21.2849 C   0  0  0  0  0  0  0  0  0  0  0  0
  -23.2819   -9.4669   19.8071 C   0  0  0  0  0  0  0  0  0  0  0  0
  -29.3365  -21.0962   18.4769 C   0  0  0  0  0  0  0  0  0  0  0  0
  -17.1321  -29.6701   24.5357 C   0  0  0  0  0  0  0  0  0  0  0  0
  -19.8352  -29.6214   25.1968 C   0  0  0  0  0  0  0  0  0  0  0  0
  -26.6057  -30.5481   23.0480 C   0  0  0  0  0  0  0  0  0  0  0  0
  -29.5987  -22.3335   19.0650 C   0  0  0  0  0  0  0  0  0  0  0  0
  -23.9699   -7.6335   21.7941 C   0  0  0  0  0  0  0  0  0  0  0  0
  -22.3186   -8.5961   20.3162 C   0  0  0  0  0  0  0  0  0  0  0  0
  -27.7785  -29.8234   22.8403 C   0  0  0  0  0  0  0  0  0  0  0  0
  -22.4735   -4.7503   20.8556 C   0  0  0  0  0  0  0  0  0  0  0  0
  -22.8285   -3.4104   21.0114 C   0  0  0  0  0  0  0  0  0  0  0  0
  -27.1419  -21.0810   19.4873 C   0  0  0  0  0  0  0  0  0  0  0  0
  -26.9433  -29.0977   20.6967 C   0  0  0  0  0  0  0  0  0  0  0  0
  -22.3870   -3.5691   23.3814 C   0  0  0  0  0  0  0  0  0  0  0  0
  -24.5892   -9.4211   20.2915 C   0  0  0  0  0  0  0  0  0  0  0  0
  -28.1081  -20.4699   18.6880 C   0  0  0  0  0  0  0  0  0  0  0  0
  -26.4362  -10.0987   18.6676 C   0  0  0  0  0  0  0  0  0  0  0  0
  -18.0585  -29.1700   23.6071 C   0  0  0  0  0  0  0  0  0  0  0  0
  -25.5866  -30.5442   22.0848 C   0  0  0  0  0  0  0  0  0  0  0  0
  -19.4252  -29.1350   23.9438 C   0  0  0  0  0  0  0  0  0  0  0  0
  -25.7596  -29.8252   20.8934 C   0  0  0  0  0  0  0  0  0  0  0  0
  -28.6326  -22.9445   19.8643 C   0  0  0  0  0  0  0  0  0  0  0  0
  -27.4042  -22.3183   20.0755 C   0  0  0  0  0  0  0  0  0  0  0  0
  -22.6626   -7.6793   21.3097 C   0  0  0  0  0  0  0  0  0  0  0  0
  -27.9463  -29.0958   21.6658 C   0  0  0  0  0  0  0  0  0  0  0  0
  -22.0753   -5.4996   21.9627 C   0  0  0  0  0  0  0  0  0  0  0  0
  -22.7852   -2.8198   22.2743 C   0  0  0  0  0  0  0  0  0  0  0  0
  -22.0320   -4.9090   23.2256 C   0  0  0  0  0  0  0  0  0  0  0  0
  -25.5837  -10.3214   19.7655 C   0  0  0  0  0  0  0  0  0  0  0  0
  -27.1855  -11.2462   18.5765 C   0  0  0  0  0  0  0  0  0  0  0  0
  -27.8311  -19.1589   18.0646 C   0  0  0  0  0  0  0  0  0  0  0  0
  -26.5414   -8.9568   17.8070 C   0  0  0  0  0  0  0  0  0  0  0  0
  -30.0366  -26.2136   21.0897 C   0  0  0  0  0  0  0  0  0  0  0  0
  -30.0877  -24.9228   20.3248 C   0  0  0  0  0  0  0  0  0  0  0  0
  -22.5536  -29.5945   22.0320 C   0  0  0  0  0  0  0  0  0  0  0  0
  -22.5837  -30.9613   19.0904 C   0  0  0  0  0  0  0  0  0  0  0  0
  -24.3985  -31.9604   16.3783 C   0  0  0  0  0  0  0  0  0  0  0  0
  -27.2633  -16.7702   18.4502 C   0  0  0  0  0  0  0  0  0  0  0  0
  -17.5497  -28.6206   22.2979 C   0  0  0  0  0  0  0  0  0  0  0  0
  -24.3387  -31.3525   22.3122 C   0  0  0  0  0  0  0  0  0  0  0  0
  -24.7042  -29.8047   19.8191 C   0  0  0  0  0  0  0  0  0  0  0  0
  -18.6406  -28.4504   21.2437 C   0  0  0  0  0  0  0  0  0  0  0  0
  -27.7025  -15.1239   21.7448 C   0  0  0  0  0  0  0  0  0  0  0  0
  -19.8657  -27.7715   21.8480 C   0  0  0  0  0  0  0  0  0  0  0  0
  -27.1811  -13.7247   21.4362 C   0  0  0  0  0  0  0  0  0  0  0  0
  -26.9925  -16.1992   20.9232 C   0  0  0  0  0  0  0  0  0  0  0  0
  -26.5091  -14.5331   19.1438 C   0  0  0  0  0  0  0  0  0  0  0  0
  -20.4672  -28.6202   22.9747 C   0  0  1  0  0  0  0  0  0  0  0  0
  -23.1509  -30.8621   21.4899 C   0  0  1  0  0  0  0  0  0  0  0  0
  -27.2565  -13.4453   19.9284 C   0  0  2  0  0  0  0  0  0  0  0  0
  -24.1406  -33.0100   14.1136 C   0  0  0  0  0  0  0  0  0  0  0  0
  -21.5227  -28.3205   17.9900 C   0  0  0  0  0  0  0  0  0  0  0  0
  -22.1812  -29.0902   15.7004 C   0  0  0  0  0  0  0  0  0  0  0  0
  -20.4716  -30.3615   16.9981 C   0  0  0  0  0  0  0  0  0  0  0  0
  -26.0916  -34.2693   17.1275 C   0  0  0  0  0  0  0  0  0  0  0  0
  -28.9892  -27.2086   20.6624 C   0  0  0  0  0  0  0  0  0  1  0  0
  -22.8993  -30.4845   17.6932 C   0  0  1  0  0  0  0  0  0  0  0  0
  -24.4016  -33.2583   15.5911 C   0  0  2  0  0  0  0  0  0  0  0  0
  -21.7880  -29.5628   17.1163 C   0  0  0  0  0  0  0  0  0  0  0  0
  -25.7731  -11.5163   20.3314 N   0  0  0  0  0  0  0  0  0  0  0  0
  -26.7533  -12.0548   19.5862 N   0  0  0  0  0  0  0  0  0  0  0  0
  -23.4993  -30.6058   20.0909 N   0  0  0  0  0  0  0  0  0  0  0  0
  -26.9784  -15.8793   19.4892 N   0  0  0  0  0  0  0  0  0  0  0  0
  -26.4117  -22.9192   20.8822 N   0  0  0  0  0  0  0  0  0  0  0  0
  -28.1654  -11.6323   17.7319 N   0  0  0  0  0  0  0  0  0  0  0  0
  -25.6959   -7.8637   18.0410 N   0  0  0  0  0  0  0  0  0  0  0  0
  -28.9216  -24.1989   20.4504 N   0  0  0  0  0  0  0  0  0  0  0  0
  -27.5581  -18.1225   18.8725 N   0  0  0  0  0  0  0  0  0  0  0  0
  -21.2349  -29.7175   22.4261 N   0  0  0  0  0  0  0  0  0  0  0  0
  -23.1529  -31.6828   16.9006 N   0  0  0  0  0  0  0  0  0  0  0  0
  -27.8755  -19.0867   16.7345 N   0  3  0  0  0  0  0  0  0  0  0  0
  -25.7181  -33.9434   15.7271 N   0  3  0  0  0  0  0  0  0  0  0  0
  -27.3722   -8.9006   16.8688 O   0  0  0  0  0  0  0  0  0  0  0  0
  -30.8536  -26.3738   21.9838 O   0  0  0  0  0  0  0  0  0  0  0  0
  -31.1266  -24.6784   19.7342 O   0  0  0  0  0  0  0  0  0  0  0  0
  -23.2380  -28.5794   22.0873 O   0  0  0  0  0  0  0  0  0  0  0  0
  -21.5661  -31.6306   19.2855 O   0  0  0  0  0  0  0  0  0  0  0  0
  -25.3999  -31.2607   16.5132 O   0  0  0  0  0  0  0  0  0  0  0  0
  -27.2504  -16.4991   17.2542 O   0  0  0  0  0  0  0  0  0  0  0  0
  -21.7224   -6.8295   21.8062 O   0  0  0  0  0  0  0  0  0  0  0  0
  -29.0898  -28.3871   21.4608 O   0  0  0  0  0  0  0  0  0  1  0  0
  -23.1247   -1.5327   22.4236 F   0  0  0  0  0  0  0  0  0  0  0  0
  -21.6491   -5.6235   24.2927 F   0  0  0  0  0  0  0  0  0  0  0  0
  1  2  1  0  0  0  0
  1  6  2  0  0  0  0
  2  7  2  0  0  0  0
  3 10  2  0  0  0  0
  3 18  1  0  0  0  0
  4 11  1  0  0  0  0
  4 18  2  0  0  0  0
  5  9  2  0  0  0  0
  5 19  1  0  0  0  0
  6 21  1  0  0  0  0
  7 23  1  0  0  0  0
  8 12  2  0  0  0  0
  8 22  1  0  0  0  0
  9 25  1  0  0  0  0
 10 27  1  0  0  0  0
 11 27  2  0  0  0  0
 12 28  1  0  0  0  0
 13 14  2  0  0  0  0
 13 29  1  0  0  0  0
 14 30  1  0  0  0  0
 15 19  2  0  0  0  0
 15 26  1  0  0  0  0
 16 24  1  0  0  0  0
 16 28  2  0  0  0  0
 17 30  2  0  0  0  0
 17 31  1  0  0  0  0
 18 32  1  0  0  0  0
 19 34  1  0  0  0  0
 20 32  1  0  0  0  0
 20 33  2  0  0  0  0
 20 35  1  0  0  0  0
 21 23  2  0  0  0  0
 21 42  1  0  0  0  0
 22 24  2  0  0  0  0
 22 43  1  0  0  0  0
 23 51  1  0  0  0  0
 24 44  1  0  0  0  0
 25 26  2  0  0  0  0
 25 70  1  0  0  0  0
 26 67  1  0  0  0  0
 27 83  1  0  0  0  0
 28 84  1  0  0  0  0
 29 31  2  0  0  0  0
 29 83  1  0  0  0  0
 30 85  1  0  0  0  0
 31 86  1  0  0  0  0
 32 63  2  0  0  0  0
 33 64  1  0  0  0  0
 33 68  1  0  0  0  0
 34 71  1  0  0  0  0
 34 74  2  0  0  0  0
 35 69  1  0  0  0  0
 35 76  2  0  0  0  0
 36 37  1  0  0  0  0
 36 59  1  0  0  0  0
 36 77  2  0  0  0  0
 37 70  1  0  0  0  0
 37 78  2  0  0  0  0
 38 52  1  0  0  0  0
 38 72  1  0  0  0  0
 38 79  2  0  0  0  0
 39 60  1  0  0  0  0
 39 65  1  0  0  0  0
 39 80  2  0  0  0  0
 40 61  1  0  0  0  0
 40 73  1  0  0  0  0
 40 81  2  0  0  0  0
 41 66  1  0  0  0  0
 41 71  1  0  0  0  0
 41 82  2  0  0  0  0
 42 45  1  0  0  0  0
 43 52  1  0  0  0  0
 44 65  1  0  0  0  0
 45 47  1  0  0  0  0
 46 48  1  0  0  0  0
 46 49  1  0  0  0  0
 47 51  1  0  0  0  0
 48 53  1  0  0  0  0
 49 66  1  0  0  0  0
 50 53  1  0  0  0  0
 50 66  1  0  0  0  0
 51 72  1  0  0  0  0
 52 65  1  0  0  0  0
 53 64  1  0  0  0  0
 54 61  1  0  0  0  0
 55 62  1  0  0  0  0
 56 62  1  0  0  0  0
 57 62  1  0  0  0  0
 58 75  1  0  0  0  0
 59 84  1  0  0  0  0
 60 62  1  0  0  0  0
 60 73  1  0  0  0  0
 61 75  1  0  0  0  0
 63 64  1  0  0  0  0
M  CHG  2  74   1  75   1
M  ISO  4  41 100  59 101  71 100  84 101
M  END
> <Batch ID>
0089

> <Smiles>
CNC(C)C(=O)NC(C(=O)N1Cc2cc([101O:1][101CH2:1]C(=O)C(=O)Nc3ccc(C(=N)[100NH:0][100C:0](=O)N4CCCC(n5nc(-c6ccc(Oc7ccc(F)cc7F)cc6)c(C(N)=O)c5N)C4)cc3N)ccc2CC1C(=O)NC1CCCc2ccccc21)C(C)(C)C

> <Shape>
0.290

> <Color>
0.094

> <Negative vol penalty>
0.000

$$$$

  -OEChem-04052300263D

 85 93  0     1  0  0  0  0  0999 V2000
  -30.3515  -30.1640   23.8485 C   0  0  0  0  0  0  0  0  0  0  0  0
  -29.7039  -29.0887   23.2486 C   0  0  0  0  0  0  0  0  0  0  0  0
  -23.1450   -9.8052   20.0736 C   0  0  0  0  0  0  0  0  0  0  0  0
  -23.8161  -10.0456   22.3820 C   0  0  0  0  0  0  0  0  0  0  0  0
  -28.6284  -17.9069   21.7652 C   0  0  0  0  0  0  0  0  0  0  0  0
  -29.6351  -31.0439   24.6586 C   0  0  0  0  0  0  0  0  0  0  0  0
  -28.3396  -28.8922   23.4595 C   0  0  0  0  0  0  0  0  0  0  0  0
  -25.8521  -27.7927   19.1876 C   0  0  0  0  0  0  0  0  0  0  0  0
  -27.9141  -18.9520   21.1793 C   0  0  0  0  0  0  0  0  0  0  0  0
  -22.4190   -8.6608   20.4038 C   0  0  0  0  0  0  0  0  0  0  0  0
  -23.0901   -8.9013   22.7123 C   0  0  0  0  0  0  0  0  0  0  0  0
  -25.9583  -26.4884   18.7067 C   0  0  0  0  0  0  0  0  0  0  0  0
  -19.8606   -8.0771   23.2705 C   0  0  0  0  0  0  0  0  0  0  0  0
  -19.0605   -8.1260   24.4120 C   0  0  0  0  0  0  0  0  0  0  0  0
  -29.1781  -17.0534   19.5729 C   0  0  0  0  0  0  0  0  0  0  0  0
  -23.8036  -25.9684   19.6584 C   0  0  0  0  0  0  0  0  0  0  0  0
  -20.3174   -6.2992   25.3713 C   0  0  0  0  0  0  0  0  0  0  0  0
  -23.8436  -10.4976   21.0627 C   0  0  0  0  0  0  0  0  0  0  0  0
  -29.2605  -16.9577   20.9620 C   0  0  0  0  0  0  0  0  0  0  0  0
  -24.1311  -13.0088   20.7184 C   0  0  0  0  0  0  0  0  0  0  0  0
  -28.2593  -30.8636   24.8717 C   0  0  0  0  0  0  0  0  0  0  0  0
  -24.7238  -28.1923   19.9182 C   0  0  0  0  0  0  0  0  0  0  0  0
  -27.6043  -29.7698   24.2743 C   0  0  0  0  0  0  0  0  0  0  0  0
  -23.6843  -27.2791   20.1454 C   0  0  0  0  0  0  0  0  0  0  0  0
  -27.8318  -19.0477   19.7902 C   0  0  0  0  0  0  0  0  0  0  0  0
  -28.4638  -18.0985   18.9869 C   0  0  0  0  0  0  0  0  0  0  0  0
  -22.3916   -8.2089   21.7231 C   0  0  0  0  0  0  0  0  0  0  0  0
  -24.9353  -25.5752   18.9445 C   0  0  0  0  0  0  0  0  0  0  0  0
  -20.8891   -7.1392   23.1794 C   0  0  0  0  0  0  0  0  0  0  0  0
  -19.2889   -7.2371   25.4624 C   0  0  0  0  0  0  0  0  0  0  0  0
  -21.1175   -6.2503   24.2298 C   0  0  0  0  0  0  0  0  0  0  0  0
  -24.5941  -11.6794   20.7221 C   0  0  0  0  0  0  0  0  0  0  0  0
  -25.2187  -13.7502   20.3259 C   0  0  0  0  0  0  0  0  0  0  0  0
  -25.6216  -23.3649   19.2821 C   0  0  0  0  0  0  0  0  0  1  0  0
  -30.0053  -15.8685   21.5734 C   0  0  0  0  0  0  0  0  0  0  0  0
  -22.8339  -13.5273   21.0411 C   0  0  0  0  0  0  0  0  0  0  0  0
  -25.7734  -22.0841   18.9240 C   0  0  0  0  0  0  0  0  0  0  0  0
  -30.6881  -14.8439   20.7504 C   0  0  0  0  0  0  0  0  0  0  0  0
  -26.4279  -21.1337   19.8813 C   0  0  0  0  0  0  0  0  0  0  0  0
  -24.2248  -29.2534   22.8726 C   0  0  0  0  0  0  0  0  0  0  0  0
  -21.1938  -29.6682   21.7939 C   0  0  0  0  0  0  0  0  0  0  0  0
  -18.7651  -28.7833   19.5657 C   0  0  0  0  0  0  0  0  0  0  0  0
  -27.5369  -31.8138   25.7936 C   0  0  0  0  0  0  0  0  0  0  0  0
  -24.6124  -29.6103   20.4072 C   0  0  0  0  0  0  0  0  0  0  0  0
  -22.4430  -27.6638   20.9067 C   0  0  0  0  0  0  0  0  0  0  0  0
  -26.0171  -31.7505   25.6644 C   0  0  0  0  0  0  0  0  0  0  0  0
  -29.6685  -12.3277   18.4083 C   0  0  0  0  0  0  0  0  0  0  0  0
  -25.5420  -30.3010   25.6564 C   0  0  0  0  0  0  0  0  0  0  0  0
  -28.2319  -12.0168   18.8271 C   0  0  0  0  0  0  0  0  0  0  0  0
  -30.5411  -12.6636   19.6133 C   0  0  0  0  0  0  0  0  0  0  0  0
  -28.5659  -13.4721   20.8756 C   0  0  0  0  0  0  0  0  0  0  0  0
  -26.1204  -29.5374   24.4590 C   0  0  1  0  0  0  0  0  0  0  0  0
  -23.6505  -29.7637   21.5813 C   0  0  1  0  0  0  0  0  0  0  0  0
  -27.6475  -13.1551   19.6824 C   0  0  2  0  0  0  0  0  0  0  0  0
  -16.3795  -29.2681   18.9564 C   0  0  0  0  0  0  0  0  0  0  0  0
  -20.2514  -28.0218   24.1838 C   0  0  0  0  0  0  0  0  0  0  0  0
  -18.0472  -27.7384   23.0307 C   0  0  0  0  0  0  0  0  0  0  0  0
  -18.8353  -30.0177   23.6684 C   0  0  0  0  0  0  0  0  0  0  0  0
  -19.5243  -29.7213   16.8633 C   0  0  0  0  0  0  0  0  0  0  0  0
  -19.9502  -28.8138   21.7449 C   0  0  1  0  0  0  0  0  0  0  0  0
  -17.8373  -29.6190   18.7024 C   0  0  2  0  0  0  0  0  0  0  0  0
  -19.2952  -28.6398   23.1442 C   0  0  0  0  0  0  0  0  0  0  0  0
  -25.8760  -11.5789   20.3604 N   0  0  0  0  0  0  0  0  0  0  0  0
  -30.1255  -15.7188   22.8650 N   0  0  0  0  0  0  0  0  0  0  0  0
  -26.2276  -12.8545   20.1257 N   0  0  0  0  0  0  0  0  0  0  0  0
  -29.9401  -13.7218   20.4226 N   0  0  0  0  0  0  0  0  0  0  0  0
  -22.3838  -29.0600   21.3698 N   0  0  0  0  0  0  0  0  0  0  0  0
  -28.3947  -18.1762   17.5778 N   0  0  0  0  0  0  0  0  0  0  0  0
  -25.4008  -15.0742   20.1358 N   0  0  0  0  0  0  0  0  0  0  0  0
  -21.8312  -12.6267   21.4257 N   0  0  0  0  0  0  0  0  0  0  0  0
  -27.1024  -20.1178   19.2180 N   0  0  0  0  0  0  0  0  0  0  0  0
  -25.4006  -29.8739   23.2495 N   0  0  0  0  0  0  0  0  0  0  0  0
  -19.0762  -29.4219   20.7475 N   0  0  0  0  0  0  0  0  0  0  0  0
  -18.1302  -29.3938   17.2587 N   0  3  0  0  0  0  0  0  0  0  0  0
  -22.5671  -14.7512   20.9741 O   0  0  0  0  0  0  0  0  0  0  0  0
  -31.8462  -15.0979   20.4461 O   0  0  0  0  0  0  0  0  0  0  0  0
  -26.3360  -21.2972   21.0932 O   0  0  0  0  0  0  0  0  0  0  0  0
  -23.6433  -28.3638   23.4827 O   0  0  0  0  0  0  0  0  0  0  0  0
  -21.1111  -30.8345   22.1871 O   0  0  0  0  0  0  0  0  0  0  0  0
  -19.1701  -27.6734   19.2273 O   0  0  0  0  0  0  0  0  0  0  0  0
  -25.3486  -21.5994   17.7036 O   0  0  0  0  0  0  0  0  0  0  0  0
  -21.6831   -7.0924   22.0458 O   0  0  0  0  0  0  0  0  0  0  0  0
  -25.0367  -24.3013   18.4768 O   0  0  0  0  0  0  0  0  0  1  0  0
  -18.5215   -7.2852   26.5592 F   0  0  0  0  0  0  0  0  0  0  0  0
  -22.1048   -5.3479   24.1484 F   0  0  0  0  0  0  0  0  0  0  0  0
  1  2  1  0  0  0  0
  1  6  2  0  0  0  0
  2  7  2  0  0  0  0
  3 10  2  0  0  0  0
  3 18  1  0  0  0  0
  4 11  1  0  0  0  0
  4 18  2  0  0  0  0
  5  9  2  0  0  0  0
  5 19  1  0  0  0  0
  6 21  1  0  0  0  0
  7 23  1  0  0  0  0
  8 12  2  0  0  0  0
  8 22  1  0  0  0  0
  9 25  1  0  0  0  0
 10 27  1  0  0  0  0
 11 27  2  0  0  0  0
 12 28  1  0  0  0  0
 13 14  2  0  0  0  0
 13 29  1  0  0  0  0
 14 30  1  0  0  0  0
 15 19  2  0  0  0  0
 15 26  1  0  0  0  0
 16 24  1  0  0  0  0
 16 28  2  0  0  0  0
 17 30  2  0  0  0  0
 17 31  1  0  0  0  0
 18 32  1  0  0  0  0
 19 35  1  0  0  0  0
 20 32  1  0  0  0  0
 20 33  2  0  0  0  0
 20 36  1  0  0  0  0
 21 23  2  0  0  0  0
 21 43  1  0  0  0  0
 22 24  2  0  0  0  0
 22 44  1  0  0  0  0
 23 52  1  0  0  0  0
 24 45  1  0  0  0  0
 25 26  2  0  0  0  0
 25 71  1  0  0  0  0
 26 68  1  0  0  0  0
 27 82  1  0  0  0  0
 28 83  1  0  0  0  0
 29 31  2  0  0  0  0
 29 82  1  0  0  0  0
 30 84  1  0  0  0  0
 31 85  1  0  0  0  0
 32 63  2  0  0  0  0
 33 65  1  0  0  0  0
 33 69  1  0  0  0  0
 34 37  2  0  0  0  0
 34 83  1  0  0  0  0
 35 38  1  0  0  0  0
 35 64  2  0  0  0  0
 36 70  1  0  0  0  0
 36 75  2  0  0  0  0
 37 39  1  0  0  0  0
 37 81  1  0  0  0  0
 38 66  1  0  0  0  0
 38 76  2  0  0  0  0
 39 71  1  0  0  0  0
 39 77  2  0  0  0  0
 40 53  1  0  0  0  0
 40 72  1  0  0  0  0
 40 78  2  0  0  0  0
 41 60  1  0  0  0  0
 41 67  1  0  0  0  0
 41 79  2  0  0  0  0
 42 61  1  0  0  0  0
 42 73  1  0  0  0  0
 42 80  2  0  0  0  0
 43 46  1  0  0  0  0
 44 53  1  0  0  0  0
 45 67  1  0  0  0  0
 46 48  1  0  0  0  0
 47 49  1  0  0  0  0
 47 50  1  0  0  0  0
 48 52  1  0  0  0  0
 49 54  1  0  0  0  0
 50 66  1  0  0  0  0
 51 54  1  0  0  0  0
 51 66  1  0  0  0  0
 52 72  1  0  0  0  0
 53 67  1  0  0  0  0
 54 65  1  0  0  0  0
 55 61  1  0  0  0  0
 56 62  1  0  0  0  0
 57 62  1  0  0  0  0
 58 62  1  0  0  0  0
 59 74  1  0  0  0  0
 60 62  1  0  0  0  0
 60 73  1  0  0  0  0
 61 74  1  0  0  0  0
 63 65  1  0  0  0  0
M  CHG  1  74   1
M  ISO  4  34 101  35 100  38 100  83 101
M  END
> <Batch ID>
0089

> <Smiles>
CNC(C)C(=O)NC(C(=O)N1Cc2cc([101O:1][101CH2:1]C(=O)C(=O)Nc3ccc([100C:0](=N)[100C:0](=O)N4CCCC(n5nc(-c6ccc(Oc7ccc(F)cc7F)cc6)c(C(N)=O)c5N)C4)cc3N)ccc2CC1C(=O)NC1CCCc2ccccc21)C(C)(C)C

> <Shape>
0.361

> <Color>
0.184

> <Negative vol penalty>
0.000

$$$$

  -OEChem-04052300263D

 87 96  0     1  0  0  0  0  0999 V2000
  -28.2625  -31.2899   27.0614 C   0  0  0  0  0  0  0  0  0  0  0  0
  -28.2146  -30.0326   26.4677 C   0  0  0  0  0  0  0  0  0  0  0  0
  -23.6322  -16.4629   21.6807 C   0  0  0  0  0  0  0  0  0  0  0  0
  -22.9238  -15.7588   19.4808 C   0  0  0  0  0  0  0  0  0  0  0  0
  -27.1622  -32.1420   26.9765 C   0  0  0  0  0  0  0  0  0  0  0  0
  -27.0658  -29.6263   25.7896 C   0  0  0  0  0  0  0  0  0  0  0  0
  -28.1070  -27.4231   21.3504 C   0  0  0  0  0  0  0  0  0  0  0  0
  -29.9998  -16.9433   22.3861 C   0  0  0  0  0  0  0  0  0  0  0  0
  -22.8270  -17.5971   21.5769 C   0  0  0  0  0  0  0  0  0  0  0  0
  -22.1186  -16.8930   19.3771 C   0  0  0  0  0  0  0  0  0  0  0  0
  -28.5465  -26.1004   21.3836 C   0  0  0  0  0  0  0  0  0  0  0  0
  -22.9664  -20.6212   20.0737 C   0  0  0  0  0  0  0  0  0  0  0  0
  -23.5151  -21.8425   20.4648 C   0  0  0  0  0  0  0  0  0  0  0  0
  -29.7595  -18.2436   21.9564 C   0  0  0  0  0  0  0  0  0  0  0  0
  -26.3247  -25.3542   20.8126 C   0  0  0  0  0  0  0  0  0  0  0  0
  -21.7853  -22.0850   22.1340 C   0  0  0  0  0  0  0  0  0  0  0  0
  -31.0302  -16.4964   20.2896 C   0  0  0  0  0  0  0  0  0  0  0  0
  -23.6807  -15.5437   20.6325 C   0  0  0  0  0  0  0  0  0  0  0  0
  -24.1487  -13.1153   21.2581 C   0  0  0  0  0  0  0  0  0  0  0  0
  -26.0030  -31.7497   26.2888 C   0  0  0  0  0  0  0  0  0  0  0  0
  -26.7683  -27.7212   21.0582 C   0  0  0  0  0  0  0  0  0  0  0  0
  -25.9485  -30.4735   25.6966 C   0  0  0  0  0  0  0  0  0  0  0  0
  -25.8714  -26.6816   20.7738 C   0  0  0  0  0  0  0  0  0  0  0  0
  -30.6468  -16.0468   21.5429 C   0  0  0  0  0  0  0  0  0  0  0  0
  -22.0702  -17.8122   20.4252 C   0  0  0  0  0  0  0  0  0  0  0  0
  -27.6547  -25.0656   21.1175 C   0  0  0  0  0  0  0  0  0  0  0  0
  -21.8272  -20.1318   20.7127 C   0  0  0  0  0  0  0  0  0  0  0  0
  -22.9245  -22.5744   21.4950 C   0  0  0  0  0  0  0  0  0  0  0  0
  -21.2366  -20.8637   21.7428 C   0  0  0  0  0  0  0  0  0  0  0  0
  -24.5127  -14.3722   20.7388 C   0  0  0  0  0  0  0  0  0  0  0  0
  -30.1828  -18.5950   20.6848 C   0  0  0  0  0  0  0  0  0  0  0  0
  -25.2838  -12.3517   21.1361 C   0  0  0  0  0  0  0  0  0  0  0  0
  -29.5125  -21.7460   18.9687 C   0  0  0  0  0  0  0  0  0  0  0  0
  -29.5868  -22.1677   20.2335 C   0  0  0  0  0  0  0  0  0  0  0  0
  -29.7264  -20.2830   18.9572 C   0  0  0  0  0  0  0  0  0  0  0  0
  -29.8708  -20.9987   21.0932 C   0  0  0  0  0  0  0  0  0  0  0  0
  -22.8966  -12.6773   21.8020 C   0  0  0  0  0  0  0  0  0  0  0  0
  -24.3903  -29.1313   22.6269 C   0  0  0  0  0  0  0  0  0  0  0  0
  -22.8473  -28.8076   19.7919 C   0  0  0  0  0  0  0  0  0  0  0  0
  -22.5593  -27.1496   16.8229 C   0  0  0  0  0  0  0  0  0  0  0  0
  -30.9637  -13.6339   21.0242 C   0  0  0  0  0  0  0  0  0  0  0  0
  -24.8214  -32.6867   26.2642 C   0  0  0  0  0  0  0  0  0  0  0  0
  -26.3162  -29.1546   21.0001 C   0  0  0  0  0  0  0  0  0  0  0  0
  -24.4286  -26.9496   20.4347 C   0  0  0  0  0  0  0  0  0  0  0  0
  -23.7806  -32.3270   25.2071 C   0  0  0  0  0  0  0  0  0  0  0  0
  -29.2195  -11.8785   18.4708 C   0  0  0  0  0  0  0  0  0  0  0  0
  -23.4762  -30.8327   25.2444 C   0  0  0  0  0  0  0  0  0  0  0  0
  -27.7673  -12.2099   18.8124 C   0  0  0  0  0  0  0  0  0  0  0  0
  -30.1444  -13.0785   18.6775 C   0  0  0  0  0  0  0  0  0  0  0  0
  -28.5990  -14.0150   20.3683 C   0  0  0  0  0  0  0  0  0  0  0  0
  -24.7294  -30.0064   24.9312 C   0  0  1  0  0  0  0  0  0  0  0  0
  -24.8119  -29.3151   21.1964 C   0  0  1  0  0  0  0  0  0  0  0  0
  -27.6555  -12.8107   20.2248 C   0  0  1  0  0  0  0  0  0  0  0  0
  -29.2597  -22.4978   17.7150 C   0  0  0  0  0  0  0  0  0  0  0  0
  -21.1798  -27.0867   14.7276 C   0  0  0  0  0  0  0  0  0  0  0  0
  -20.5983  -27.4198   21.3171 C   0  0  0  0  0  0  0  0  0  0  0  0
  -19.7402  -26.5580   19.1287 C   0  0  0  0  0  0  0  0  0  0  0  0
  -19.8312  -29.0150   19.5503 C   0  0  0  0  0  0  0  0  0  0  0  0
  -31.3616  -14.4551   23.3356 C   0  0  0  0  0  0  0  0  0  0  0  0
  -24.9023  -27.7667   15.1235 C   0  0  0  0  0  0  0  0  0  0  0  0
  -29.4444  -23.5306   20.8062 C   0  0  0  0  0  0  0  0  0  1  0  0
  -21.9817  -27.7437   19.1613 C   0  0  1  0  0  0  0  0  0  0  0  0
  -22.4223  -27.6529   15.3973 C   0  0  2  0  0  0  0  0  0  0  0  0
  -20.5645  -27.6786   19.7976 C   0  0  0  0  0  0  0  0  0  0  0  0
  -30.8142  -17.7519   19.8372 N   0  0  0  0  0  0  0  0  0  0  0  0
  -25.7799  -14.4091   20.3184 N   0  0  0  0  0  0  0  0  0  0  0  0
  -26.2222  -13.1659   20.5734 N   0  0  0  0  0  0  0  0  0  0  0  0
  -29.9381  -19.8977   20.2648 N   0  0  0  0  0  0  0  0  0  0  0  0
  -24.0332  -28.3673   20.3966 N   0  0  0  0  0  0  0  0  0  0  0  0
  -29.9732  -13.6424   20.0239 N   0  0  0  0  0  0  0  0  0  0  0  0
  -25.5608  -11.0698   21.4564 N   0  0  0  0  0  0  0  0  0  0  0  0
  -21.8342  -13.5901   21.8528 N   0  0  0  0  0  0  0  0  0  0  0  0
  -24.9934  -30.0082   23.5082 N   0  0  0  0  0  0  0  0  0  0  0  0
  -21.9811  -28.0146   17.7278 N   0  0  0  0  0  0  0  0  0  0  0  0
  -30.9099  -14.6895   21.9598 N   0  0  0  0  0  0  0  0  0  0  0  0
  -23.6120  -27.2573   14.5918 N   0  3  0  0  0  0  0  0  0  0  0  0
  -29.7095  -19.5950   17.9486 O   0  0  0  0  0  0  0  0  0  0  0  0
  -30.0085  -21.0558   22.3050 O   0  0  0  0  0  0  0  0  0  0  0  0
  -22.7297  -11.5158   22.2455 O   0  0  0  0  0  0  0  0  0  0  0  0
  -23.5770  -28.2594   22.9098 O   0  0  0  0  0  0  0  0  0  0  0  0
  -22.4882  -29.9867   19.7434 O   0  0  0  0  0  0  0  0  0  0  0  0
  -23.1196  -26.0928   17.1053 O   0  0  0  0  0  0  0  0  0  0  0  0
  -31.8142  -12.7385   21.0921 O   0  0  0  0  0  0  0  0  0  0  0  0
  -21.2842  -18.9187   20.3237 O   0  0  0  0  0  0  0  0  0  0  0  0
  -28.0809  -23.7736   21.1499 O   0  0  0  0  0  0  0  0  0  1  0  0
  -23.4524  -23.7465   21.8715 F   0  0  0  0  0  0  0  0  0  0  0  0
  -20.1428  -20.3980   22.3612 F   0  0  0  0  0  0  0  0  0  0  0  0
  1  2  1  0  0  0  0
  1  5  2  0  0  0  0
  2  6  2  0  0  0  0
  3  9  2  0  0  0  0
  3 18  1  0  0  0  0
  4 10  1  0  0  0  0
  4 18  2  0  0  0  0
  5 20  1  0  0  0  0
  6 22  1  0  0  0  0
  7 11  2  0  0  0  0
  7 21  1  0  0  0  0
  8 14  2  0  0  0  0
  8 24  1  0  0  0  0
  9 25  1  0  0  0  0
 10 25  2  0  0  0  0
 11 26  1  0  0  0  0
 12 13  2  0  0  0  0
 12 27  1  0  0  0  0
 13 28  1  0  0  0  0
 14 31  1  0  0  0  0
 15 23  1  0  0  0  0
 15 26  2  0  0  0  0
 16 28  2  0  0  0  0
 16 29  1  0  0  0  0
 17 24  2  0  0  0  0
 17 65  1  0  0  0  0
 18 30  1  0  0  0  0
 19 30  1  0  0  0  0
 19 32  2  0  0  0  0
 19 37  1  0  0  0  0
 20 22  2  0  0  0  0
 20 42  1  0  0  0  0
 21 23  2  0  0  0  0
 21 43  1  0  0  0  0
 22 51  1  0  0  0  0
 23 44  1  0  0  0  0
 24 75  1  0  0  0  0
 25 84  1  0  0  0  0
 26 85  1  0  0  0  0
 27 29  2  0  0  0  0
 27 84  1  0  0  0  0
 28 86  1  0  0  0  0
 29 87  1  0  0  0  0
 30 66  2  0  0  0  0
 31 65  2  0  0  0  0
 31 68  1  0  0  0  0
 32 67  1  0  0  0  0
 32 71  1  0  0  0  0
 33 34  2  0  0  0  0
 33 35  1  0  0  0  0
 33 54  1  0  0  0  0
 34 36  1  0  0  0  0
 34 61  1  0  0  0  0
 35 68  1  0  0  0  0
 35 77  2  0  0  0  0
 36 68  1  0  0  0  0
 36 78  2  0  0  0  0
 37 72  1  0  0  0  0
 37 79  2  0  0  0  0
 38 52  1  0  0  0  0
 38 73  1  0  0  0  0
 38 80  2  0  0  0  0
 39 62  1  0  0  0  0
 39 69  1  0  0  0  0
 39 81  2  0  0  0  0
 40 63  1  0  0  0  0
 40 74  1  0  0  0  0
 40 82  2  0  0  0  0
 41 70  1  0  0  0  0
 41 75  1  0  0  0  0
 41 83  2  0  0  0  0
 42 45  1  0  0  0  0
 43 52  1  0  0  0  0
 44 69  1  0  0  0  0
 45 47  1  0  0  0  0
 46 48  1  0  0  0  0
 46 49  1  0  0  0  0
 47 51  1  0  0  0  0
 48 53  1  0  0  0  0
 49 70  1  0  0  0  0
 50 53  1  0  0  0  0
 50 70  1  0  0  0  0
 51 73  1  0  0  0  0
 52 69  1  0  0  0  0
 53 67  1  0  0  0  0
 55 63  1  0  0  0  0
 56 64  1  0  0  0  0
 57 64  1  0  0  0  0
 58 64  1  0  0  0  0
 59 75  1  0  0  0  0
 60 76  1  0  0  0  0
 61 85  1  0  0  0  0
 62 64  1  0  0  0  0
 62 74  1  0  0  0  0
 63 76  1  0  0  0  0
 66 67  1  0  0  0  0
M  CHG  1  76   1
M  ISO  4  41 100  61 101  75 100  85 101
M  END
> <Batch ID>
0089

> <Smiles>
CNC(C)C(=O)NC(C(=O)N1Cc2cc([101O:1][101CH2:1]C3=C(C)C(=O)N(c4ccc([100N:0](C)[100C:0](=O)N5CCCC(n6nc(-c7ccc(Oc8ccc(F)cc8F)cc7)c(C(N)=O)c6N)C5)cn4)C3=O)ccc2CC1C(=O)NC1CCCc2ccccc21)C(C)(C)C

> <Shape>
0.283

> <Color>
0.085

> <Negative vol penalty>
0.000

$$$$

  -OEChem-04052300263D

 89 98  0     1  0  0  0  0  0999 V2000
  -26.5483  -37.8946   22.1455 C   0  0  0  0  0  0  0  0  0  0  0  0
  -27.1916  -36.7517   21.6816 C   0  0  0  0  0  0  0  0  0  0  0  0
  -22.8186  -10.5703   19.7265 C   0  0  0  0  0  0  0  0  0  0  0  0
  -24.4329   -8.8859   19.0993 C   0  0  0  0  0  0  0  0  0  0  0  0
  -25.5771  -37.7912   23.1405 C   0  0  0  0  0  0  0  0  0  0  0  0
  -26.8649  -35.5047   22.2132 C   0  0  0  0  0  0  0  0  0  0  0  0
  -26.7430  -30.1523   19.2395 C   0  0  0  0  0  0  0  0  0  0  0  0
  -25.5772  -20.5936   21.1004 C   0  0  0  0  0  0  0  0  0  0  0  0
  -21.9375  -10.0859   18.7598 C   0  0  0  0  0  0  0  0  0  0  0  0
  -23.5518   -8.4014   18.1326 C   0  0  0  0  0  0  0  0  0  0  0  0
  -27.6609  -29.1065   19.1525 C   0  0  0  0  0  0  0  0  0  0  0  0
  -24.8111  -19.5973   21.7053 C   0  0  0  0  0  0  0  0  0  0  0  0
  -20.8005   -6.4417   18.0308 C   0  0  0  0  0  0  0  0  0  0  0  0
  -20.6318   -5.0599   17.9442 C   0  0  0  0  0  0  0  0  0  0  0  0
  -26.4962  -27.9453   20.9172 C   0  0  0  0  0  0  0  0  0  0  0  0
  -27.4225  -19.0480   20.8919 C   0  0  0  0  0  0  0  0  0  0  0  0
  -21.4159   -5.1074   15.6594 C   0  0  0  0  0  0  0  0  0  0  0  0
  -24.0663   -9.9704   19.8963 C   0  0  0  0  0  0  0  0  0  0  0  0
  -25.0737  -10.0625   22.2381 C   0  0  0  0  0  0  0  0  0  0  0  0
  -25.2314  -36.5411   23.6778 C   0  0  0  0  0  0  0  0  0  0  0  0
  -25.6994  -30.1074   20.1751 C   0  0  0  0  0  0  0  0  0  0  0  0
  -25.8891  -35.3846   23.2173 C   0  0  0  0  0  0  0  0  0  0  0  0
  -25.5648  -28.9907   21.0123 C   0  0  0  0  0  0  0  0  0  0  0  0
  -26.8830  -20.3189   20.6936 C   0  0  0  0  0  0  0  0  0  0  0  0
  -26.6563  -18.0517   21.4969 C   0  0  0  0  0  0  0  0  0  0  0  0
  -22.3040   -9.0014   17.9629 C   0  0  0  0  0  0  0  0  0  0  0  0
  -27.5393  -28.0041   19.9934 C   0  0  0  0  0  0  0  0  0  0  0  0
  -25.3506  -18.3264   21.9036 C   0  0  0  0  0  0  0  0  0  0  0  0
  -21.2768   -7.1565   16.9317 C   0  0  0  0  0  0  0  0  0  0  0  0
  -20.9395   -4.3927   16.7585 C   0  0  0  0  0  0  0  0  0  0  0  0
  -21.5845   -6.4894   15.7461 C   0  0  0  0  0  0  0  0  0  0  0  0
  -24.9772  -10.4707   20.8943 C   0  0  0  0  0  0  0  0  0  0  0  0
  -26.0830  -10.8343   22.7598 C   0  0  0  0  0  0  0  0  0  0  0  0
  -28.5071  -23.3533   19.5078 C   0  0  0  0  0  0  0  0  0  0  0  0
  -29.2326  -22.3346   18.7365 C   0  0  0  0  0  0  0  0  0  0  0  0
  -27.5022  -22.6921   20.3646 C   0  0  0  0  0  0  0  0  0  0  0  0
  -28.7224  -24.6720   19.4473 C   0  0  0  0  0  0  0  0  0  0  0  0
  -24.3186   -9.0739   22.9511 C   0  0  0  0  0  0  0  0  0  0  0  0
  -24.8450  -31.8828   22.6694 C   0  0  0  0  0  0  0  0  0  0  0  0
  -22.2512  -29.9349   22.6726 C   0  0  0  0  0  0  0  0  0  0  0  0
  -20.8862  -26.9264   21.8166 C   0  0  0  0  0  0  0  0  0  0  0  0
  -28.2082  -16.2276   20.8192 C   0  0  0  0  0  0  0  0  0  0  0  0
  -24.2091  -36.4846   24.7852 C   0  0  0  0  0  0  0  0  0  0  0  0
  -24.7019  -31.2313   20.2381 C   0  0  0  0  0  0  0  0  0  0  0  0
  -24.4503  -28.8846   22.0199 C   0  0  0  0  0  0  0  0  0  0  0  0
  -28.6891  -20.9841   19.0991 C   0  0  0  0  0  0  0  0  0  0  0  0
  -23.6541  -35.0839   25.0308 C   0  0  0  0  0  0  0  0  0  0  0  0
  -30.0850  -13.1280   21.5125 C   0  0  0  0  0  0  0  0  0  0  0  0
  -24.7860  -34.0627   25.0832 C   0  0  0  0  0  0  0  0  0  0  0  0
  -28.9963  -12.0566   21.4812 C   0  0  0  0  0  0  0  0  0  0  0  0
  -29.7511  -14.3023   20.5973 C   0  0  0  0  0  0  0  0  0  0  0  0
  -27.3299  -13.8439   20.8377 C   0  0  0  0  0  0  0  0  0  0  0  0
  -25.5446  -34.0112   23.7515 C   0  0  1  0  0  0  0  0  0  0  0  0
  -23.9802  -31.3152   21.5796 C   0  0  1  0  0  0  0  0  0  0  0  0
  -27.6168  -12.6672   21.7826 C   0  0  1  0  0  0  0  0  0  0  0  0
  -18.7566  -25.6098   21.9861 C   0  0  0  0  0  0  0  0  0  0  0  0
  -22.8465  -29.3545   25.6084 C   0  0  0  0  0  0  0  0  0  0  0  0
  -21.3251  -27.3722   25.4529 C   0  0  0  0  0  0  0  0  0  0  0  0
  -20.4227  -29.6673   25.0774 C   0  0  0  0  0  0  0  0  0  0  0  0
  -26.9631  -16.0469   22.9609 C   0  0  0  0  0  0  0  0  0  0  0  0
  -20.6081  -26.7770   18.8740 C   0  0  0  0  0  0  0  0  0  0  0  0
  -23.2626  -17.7386   22.8787 C   0  0  0  0  0  0  0  0  0  0  0  0
  -27.9636  -25.6779   20.2477 C   0  0  0  0  0  0  0  0  0  1  0  0
  -21.9056  -28.6158   23.3203 C   0  0  1  0  0  0  0  0  0  0  0  0
  -19.5751  -26.5714   21.1388 C   0  0  2  0  0  0  0  0  0  0  0  0
  -21.6472  -28.7551   24.8472 C   0  0  0  0  0  0  0  0  0  0  0  0
  -25.8550  -11.4276   20.5818 N   0  0  0  0  0  0  0  0  0  0  0  0
  -26.5127  -11.6272   21.7367 N   0  0  0  0  0  0  0  0  0  0  0  0
  -27.6483  -21.3140   20.0901 N   0  0  0  0  0  0  0  0  0  0  0  0
  -23.5039  -30.0120   22.0476 N   0  0  0  0  0  0  0  0  0  0  0  0
  -28.4165  -14.8348   20.8742 N   0  0  0  0  0  0  0  0  0  0  0  0
  -26.6359  -10.9053   23.9893 N   0  0  0  0  0  0  0  0  0  0  0  0
  -23.3187   -8.3728   22.2635 N   0  0  0  0  0  0  0  0  0  0  0  0
  -24.7921  -33.2599   22.7699 N   0  0  0  0  0  0  0  0  0  0  0  0
  -20.7768  -28.0760   22.5701 N   0  0  0  0  0  0  0  0  0  0  0  0
  -27.2294  -16.7416   21.6971 N   0  0  0  0  0  0  0  0  0  0  0  0
  -19.8317  -25.9320   19.8173 N   0  3  0  0  0  0  0  0  0  0  0  0
  -30.1265  -22.5501   17.9362 O   0  0  0  0  0  0  0  0  0  0  0  0
  -26.7337  -23.2496   21.1286 O   0  0  0  0  0  0  0  0  0  0  0  0
  -24.5134   -8.8315   24.1663 O   0  0  0  0  0  0  0  0  0  0  0  0
  -25.5099  -31.1271   23.3684 O   0  0  0  0  0  0  0  0  0  0  0  0
  -21.4366  -30.8603   22.7132 O   0  0  0  0  0  0  0  0  0  0  0  0
  -21.9045  -26.2493   21.6933 O   0  0  0  0  0  0  0  0  0  0  0  0
  -28.8660  -16.9564   20.0670 O   0  0  0  0  0  0  0  0  0  0  0  0
  -21.4444   -8.5283   17.0196 O   0  0  0  0  0  0  0  0  0  0  0  0
  -24.5850  -17.3669   22.4964 O   0  0  0  0  0  0  0  0  0  0  0  0
  -28.4342  -26.9823   19.9109 O   0  0  0  0  0  0  0  0  0  1  0  0
  -20.7790   -3.0654   16.6759 F   0  0  0  0  0  0  0  0  0  0  0  0
  -22.0436   -7.1705   14.6872 F   0  0  0  0  0  0  0  0  0  0  0  0
  1  2  1  0  0  0  0
  1  5  2  0  0  0  0
  2  6  2  0  0  0  0
  3  9  2  0  0  0  0
  3 18  1  0  0  0  0
  4 10  1  0  0  0  0
  4 18  2  0  0  0  0
  5 20  1  0  0  0  0
  6 22  1  0  0  0  0
  7 11  2  0  0  0  0
  7 21  1  0  0  0  0
  8 12  2  0  0  0  0
  8 24  1  0  0  0  0
  9 26  1  0  0  0  0
 10 26  2  0  0  0  0
 11 27  1  0  0  0  0
 12 28  1  0  0  0  0
 13 14  2  0  0  0  0
 13 29  1  0  0  0  0
 14 30  1  0  0  0  0
 15 23  1  0  0  0  0
 15 27  2  0  0  0  0
 16 24  2  0  0  0  0
 16 25  1  0  0  0  0
 17 30  2  0  0  0  0
 17 31  1  0  0  0  0
 18 32  1  0  0  0  0
 19 32  1  0  0  0  0
 19 33  2  0  0  0  0
 19 38  1  0  0  0  0
 20 22  2  0  0  0  0
 20 43  1  0  0  0  0
 21 23  2  0  0  0  0
 21 44  1  0  0  0  0
 22 53  1  0  0  0  0
 23 45  1  0  0  0  0
 24 69  1  0  0  0  0
 25 28  2  0  0  0  0
 25 76  1  0  0  0  0
 26 85  1  0  0  0  0
 27 87  1  0  0  0  0
 28 86  1  0  0  0  0
 29 31  2  0  0  0  0
 29 85  1  0  0  0  0
 30 88  1  0  0  0  0
 31 89  1  0  0  0  0
 32 67  2  0  0  0  0
 33 68  1  0  0  0  0
 33 72  1  0  0  0  0
 34 35  1  0  0  0  0
 34 36  1  0  0  0  0
 34 37  2  0  0  0  0
 35 46  1  0  0  0  0
 35 78  2  0  0  0  0
 36 69  1  0  0  0  0
 36 79  2  0  0  0  0
 37 63  1  0  0  0  0
 38 73  1  0  0  0  0
 38 80  2  0  0  0  0
 39 54  1  0  0  0  0
 39 74  1  0  0  0  0
 39 81  2  0  0  0  0
 40 64  1  0  0  0  0
 40 70  1  0  0  0  0
 40 82  2  0  0  0  0
 41 65  1  0  0  0  0
 41 75  1  0  0  0  0
 41 83  2  0  0  0  0
 42 71  1  0  0  0  0
 42 76  1  0  0  0  0
 42 84  2  0  0  0  0
 43 47  1  0  0  0  0
 44 54  1  0  0  0  0
 45 70  1  0  0  0  0
 46 69  1  0  0  0  0
 47 49  1  0  0  0  0
 48 50  1  0  0  0  0
 48 51  1  0  0  0  0
 49 53  1  0  0  0  0
 50 55  1  0  0  0  0
 51 71  1  0  0  0  0
 52 55  1  0  0  0  0
 52 71  1  0  0  0  0
 53 74  1  0  0  0  0
 54 70  1  0  0  0  0
 55 68  1  0  0  0  0
 56 65  1  0  0  0  0
 57 66  1  0  0  0  0
 58 66  1  0  0  0  0
 59 66  1  0  0  0  0
 60 76  1  0  0  0  0
 61 77  1  0  0  0  0
 62 86  1  0  0  0  0
 63 87  1  0  0  0  0
 64 66  1  0  0  0  0
 64 75  1  0  0  0  0
 65 77  1  0  0  0  0
 67 68  1  0  0  0  0
M  CHG  1  77   1
M  ISO  4  42 100  63 101  76 100  87 101
M  END
> <Batch ID>
0089

> <Smiles>
CNC(C)C(=O)NC(C(=O)N1Cc2cc([101O:1][101CH2:1]C=C3C(=O)CN(c4ccc(OC)c([100N:0](C)[100C:0](=O)N5CCCC(n6nc(-c7ccc(Oc8ccc(F)cc8F)cc7)c(C(N)=O)c6N)C5)c4)C3=O)ccc2CC1C(=O)NC1CCCc2ccccc21)C(C)(C)C

> <Shape>
0.281

> <Color>
0.068

> <Negative vol penalty>
0.000

$$$$

  -OEChem-04052300263D

 88 97  0     1  0  0  0  0  0999 V2000
  -17.7209  -24.8182   23.1125 C   0  0  0  0  0  0  0  0  0  0  0  0
  -18.9940  -24.6488   22.5777 C   0  0  0  0  0  0  0  0  0  0  0  0
  -22.3367  -14.9167   21.0409 C   0  0  0  0  0  0  0  0  0  0  0  0
  -22.5110  -13.3131   22.8396 C   0  0  0  0  0  0  0  0  0  0  0  0
  -17.1793  -26.0978   23.2283 C   0  0  0  0  0  0  0  0  0  0  0  0
  -19.7258  -25.7588   22.1573 C   0  0  0  0  0  0  0  0  0  0  0  0
  -24.5518  -25.5953   23.6830 C   0  0  0  0  0  0  0  0  0  0  0  0
  -30.7549  -18.4172   19.7847 C   0  0  0  0  0  0  0  0  0  0  0  0
  -30.1736  -19.4864   19.1032 C   0  0  0  0  0  0  0  0  0  0  0  0
  -21.1257  -15.3709   21.5631 C   0  0  0  0  0  0  0  0  0  0  0  0
  -21.3000  -13.7673   23.3619 C   0  0  0  0  0  0  0  0  0  0  0  0
  -25.4167  -24.7648   22.9717 C   0  0  0  0  0  0  0  0  0  0  0  0
  -20.0960  -17.3944   24.0687 C   0  0  0  0  0  0  0  0  0  0  0  0
  -19.8998  -18.7732   24.1459 C   0  0  0  0  0  0  0  0  0  0  0  0
  -26.2504  -26.6785   21.7626 C   0  0  0  0  0  0  0  0  0  0  0  0
  -29.6482  -19.1110   21.8172 C   0  0  0  0  0  0  0  0  0  0  0  0
  -17.9715  -18.5796   22.7032 C   0  0  0  0  0  0  0  0  0  0  0  0
  -23.0294  -13.8878   21.6791 C   0  0  0  0  0  0  0  0  0  0  0  0
  -24.5003  -12.8583   19.8669 C   0  0  0  0  0  0  0  0  0  0  0  0
  -17.9087  -27.2248   22.8180 C   0  0  0  0  0  0  0  0  0  0  0  0
  -24.5219  -26.9745   23.4313 C   0  0  0  0  0  0  0  0  0  0  0  0
  -19.1929  -27.0545   22.2664 C   0  0  0  0  0  0  0  0  0  0  0  0
  -25.3860  -27.5247   22.4739 C   0  0  0  0  0  0  0  0  0  0  0  0
  -30.4922  -18.2294   21.1418 C   0  0  0  0  0  0  0  0  0  0  0  0
  -29.3296  -20.3679   19.7787 C   0  0  0  0  0  0  0  0  0  0  0  0
  -20.6073  -14.7962   22.7236 C   0  0  0  0  0  0  0  0  0  0  0  0
  -26.2641  -25.3059   22.0093 C   0  0  0  0  0  0  0  0  0  0  0  0
  -19.2301  -16.6082   23.3087 C   0  0  0  0  0  0  0  0  0  0  0  0
  -18.8376  -19.3658   23.4632 C   0  0  0  0  0  0  0  0  0  0  0  0
  -29.0669  -20.1802   21.1358 C   0  0  0  0  0  0  0  0  0  0  0  0
  -18.1678  -17.2008   22.6260 C   0  0  0  0  0  0  0  0  0  0  0  0
  -24.2801  -13.4178   21.1398 C   0  0  0  0  0  0  0  0  0  0  0  0
  -25.8447  -12.5782   19.8429 C   0  0  0  0  0  0  0  0  0  0  0  0
  -27.0451  -23.4190   18.0463 C   0  0  0  0  0  0  0  0  0  0  0  0
  -27.7577  -23.6868   19.1487 C   0  0  0  0  0  0  0  0  0  0  0  0
  -27.3664  -22.2345   17.2245 C   0  0  0  0  0  0  0  0  0  0  0  0
  -23.5726  -12.6138   18.8014 C   0  0  0  0  0  0  0  0  0  0  0  0
  -22.3212  -29.0172   22.3883 C   0  0  0  0  0  0  0  0  0  0  0  0
  -24.6018  -31.2199   23.0731 C   0  0  0  0  0  0  0  0  0  0  0  0
  -27.9126  -31.9220   23.5123 C   0  0  0  0  0  0  0  0  0  0  0  0
  -30.5369  -14.8528   22.7859 C   0  0  0  0  0  0  0  0  0  0  0  0
  -17.2627  -28.5839   22.9191 C   0  0  0  0  0  0  0  0  0  0  0  0
  -23.6022  -27.8606   24.2260 C   0  0  0  0  0  0  0  0  0  0  0  0
  -25.4071  -29.0018   22.1803 C   0  0  0  0  0  0  0  0  0  0  0  0
  -28.4597  -21.2936   17.6655 C   0  0  0  0  0  0  0  0  0  0  0  0
  -18.2526  -29.7395   22.7968 C   0  0  0  0  0  0  0  0  0  0  0  0
  -29.4869  -11.4511   22.7335 C   0  0  0  0  0  0  0  0  0  0  0  0
  -19.1983  -29.5102   21.6221 C   0  0  0  0  0  0  0  0  0  0  0  0
  -28.0533  -11.5189   22.2043 C   0  0  0  0  0  0  0  0  0  0  0  0
  -29.8130  -12.6407   23.6338 C   0  0  0  0  0  0  0  0  0  0  0  0
  -28.1204  -14.0299   22.5029 C   0  0  0  0  0  0  0  0  0  0  0  0
  -20.0277  -28.2360   21.8222 C   0  0  1  0  0  0  0  0  0  0  0  0
  -28.8849  -22.8034   19.6418 C   0  0  2  0  0  0  0  0  0  0  0  0
  -23.2900  -29.1793   23.5253 C   0  0  1  0  0  0  0  0  0  0  0  0
  -27.7628  -12.8806   21.5450 C   0  0  2  0  0  0  0  0  0  0  0  0
  -30.2529  -23.3881   19.2739 C   0  0  0  0  0  0  0  0  0  0  0  0
  -29.4726  -33.8191   24.0271 C   0  0  0  0  0  0  0  0  0  0  0  0
  -24.2844  -32.2522   20.2194 C   0  0  0  0  0  0  0  0  0  0  0  0
  -26.4617  -33.4587   20.4878 C   0  0  0  0  0  0  0  0  0  0  0  0
  -24.5280  -34.0376   21.9536 C   0  0  0  0  0  0  0  0  0  0  0  0
  -28.8729  -30.6136   25.9871 C   0  0  0  0  0  0  0  0  0  0  0  0
  -31.1136  -17.0862   21.8703 C   0  0  0  0  0  0  0  0  0  0  0  0
  -27.4433  -24.8974   19.9848 C   0  0  0  0  0  0  0  0  0  1  0  0
  -25.7430  -31.8495   22.3114 C   0  0  1  0  0  0  0  0  0  0  0  0
  -28.6451  -32.6809   24.6040 C   0  0  2  0  0  0  0  0  0  0  0  0
  -25.2527  -32.8714   21.2470 C   0  0  0  0  0  0  0  0  0  0  0  0
  -25.3952  -13.4894   21.8716 N   0  0  0  0  0  0  0  0  0  0  0  0
  -26.3291  -12.9712   21.0558 N   0  0  0  0  0  0  0  0  0  0  0  0
  -28.7465  -21.4420   19.0914 N   0  0  2  0  0  0  0  0  0  0  0  0
  -24.4850  -29.8259   22.9791 N   0  0  0  0  0  0  0  0  0  0  0  0
  -29.5166  -13.9012   22.9488 N   0  0  0  0  0  0  0  0  0  0  0  0
  -26.6480  -12.0363   18.9029 N   0  0  0  0  0  0  0  0  0  0  0  0
  -22.9144  -11.3772   18.7593 N   0  0  0  0  0  0  0  0  0  0  0  0
  -21.1049  -28.4758   22.7584 N   0  0  0  0  0  0  0  0  0  0  0  0
  -26.6402  -32.4146   23.3135 N   0  0  0  0  0  0  0  0  0  0  0  0
  -30.1730  -16.0169   22.1202 N   0  0  0  0  0  0  0  0  0  0  0  0
  -29.5574  -31.7667   25.3476 N   0  3  0  0  0  0  0  0  0  0  0  0
  -26.7593  -22.0531   16.1690 O   0  0  0  0  0  0  0  0  0  0  0  0
  -23.3467  -13.4605   17.9038 O   0  0  0  0  0  0  0  0  0  0  0  0
  -22.6520  -29.3594   21.2591 O   0  0  0  0  0  0  0  0  0  0  0  0
  -23.8464  -31.9377   23.7331 O   0  0  0  0  0  0  0  0  0  0  0  0
  -28.4198  -30.9882   22.8948 O   0  0  0  0  0  0  0  0  0  0  0  0
  -31.6883  -14.6756   23.1980 O   0  0  0  0  0  0  0  0  0  0  0  0
  -19.4258  -15.2393   23.2337 O   0  0  0  0  0  0  0  0  0  0  0  0
  -27.1088  -24.4974   21.3131 O   0  0  0  0  0  0  0  0  0  1  0  0
  -18.6483  -20.6897   23.5387 F   0  0  0  0  0  0  0  0  0  0  0  0
  -28.2572  -21.0213   21.7947 F   0  0  0  0  0  0  0  0  0  0  0  0
  -17.3319  -16.4504   21.8952 F   0  0  0  0  0  0  0  0  0  0  0  0
  1  2  1  0  0  0  0
  1  5  2  0  0  0  0
  2  6  2  0  0  0  0
  3 10  2  0  0  0  0
  3 18  1  0  0  0  0
  4 11  1  0  0  0  0
  4 18  2  0  0  0  0
  5 20  1  0  0  0  0
  6 22  1  0  0  0  0
  7 12  2  0  0  0  0
  7 21  1  0  0  0  0
  8  9  2  0  0  0  0
  8 24  1  0  0  0  0
  9 25  1  0  0  0  0
 10 26  1  0  0  0  0
 11 26  2  0  0  0  0
 12 27  1  0  0  0  0
 13 14  2  0  0  0  0
 13 28  1  0  0  0  0
 14 29  1  0  0  0  0
 15 23  1  0  0  0  0
 15 27  2  0  0  0  0
 16 24  2  0  0  0  0
 16 30  1  0  0  0  0
 17 29  2  0  0  0  0
 17 31  1  0  0  0  0
 18 32  1  0  0  0  0
 19 32  1  0  0  0  0
 19 33  2  0  0  0  0
 19 37  1  0  0  0  0
 20 22  2  0  0  0  0
 20 42  1  0  0  0  0
 21 23  2  0  0  0  0
 21 43  1  0  0  0  0
 22 52  1  0  0  0  0
 23 44  1  0  0  0  0
 24 62  1  0  0  0  0
 25 30  2  0  0  0  0
 25 69  1  0  0  0  0
 26 84  1  0  0  0  0
 27 85  1  0  0  0  0
 28 31  2  0  0  0  0
 28 84  1  0  0  0  0
 29 86  1  0  0  0  0
 30 87  1  0  0  0  0
 31 88  1  0  0  0  0
 32 67  2  0  0  0  0
 33 68  1  0  0  0  0
 33 72  1  0  0  0  0
 34 35  2  0  0  0  0
 34 36  1  0  0  0  0
 35 53  1  0  0  0  0
 35 63  1  0  0  0  0
 36 45  1  0  0  0  0
 36 78  2  0  0  0  0
 37 73  1  0  0  0  0
 37 79  2  0  0  0  0
 38 54  1  0  0  0  0
 38 74  1  0  0  0  0
 38 80  2  0  0  0  0
 39 64  1  0  0  0  0
 39 70  1  0  0  0  0
 39 81  2  0  0  0  0
 40 65  1  0  0  0  0
 40 75  1  0  0  0  0
 40 82  2  0  0  0  0
 41 71  1  0  0  0  0
 41 76  1  0  0  0  0
 41 83  2  0  0  0  0
 42 46  1  0  0  0  0
 43 54  1  0  0  0  0
 44 70  1  0  0  0  0
 45 69  1  0  0  0  0
 46 48  1  0  0  0  0
 47 49  1  0  0  0  0
 47 50  1  0  0  0  0
 48 52  1  0  0  0  0
 49 55  1  0  0  0  0
 50 71  1  0  0  0  0
 51 55  1  0  0  0  0
 51 71  1  0  0  0  0
 52 74  1  0  0  0  0
 53 56  1  0  0  0  0
 53 69  1  0  0  0  0
 54 70  1  0  0  0  0
 55 68  1  0  0  0  0
 57 65  1  0  0  0  0
 58 66  1  0  0  0  0
 59 66  1  0  0  0  0
 60 66  1  0  0  0  0
 61 77  1  0  0  0  0
 62 76  1  0  0  0  0
 63 85  1  0  0  0  0
 64 66  1  0  0  0  0
 64 75  1  0  0  0  0
 65 77  1  0  0  0  0
 67 68  1  0  0  0  0
M  CHG  1  77   1
M  ISO  4  41 100  63 101  76 100  85 101
M  END
> <Batch ID>
0089

> <Smiles>
CNC(C)C(=O)NC(C(=O)N1Cc2cc([101O:1][101CH2:1]C3=C(C)N(c4ccc(C[100NH:0][100C:0](=O)N5CCCC(n6nc(-c7ccc(Oc8ccc(F)cc8F)cc7)c(C(N)=O)c6N)C5)cc4F)CC(=O)C3)ccc2CC1C(=O)NC1CCCc2ccccc21)C(C)(C)C

> <Shape>
0.247

> <Color>
0.048

> <Negative vol penalty>
0.000

$$$$

  -OEChem-04052300263D

 85 93  0     1  0  0  0  0  0999 V2000
  -46.0495  -23.0001   20.8426 C   0  0  0  0  0  0  0  0  0  0  0  0
  -45.1572  -22.0335   21.2952 C   0  0  0  0  0  0  0  0  0  0  0  0
  -23.0733   -9.8698   19.9416 C   0  0  0  0  0  0  0  0  0  0  0  0
  -23.8311   -9.8780   22.2357 C   0  0  0  0  0  0  0  0  0  0  0  0
  -45.5735  -24.2325   20.3969 C   0  0  0  0  0  0  0  0  0  0  0  0
  -43.7883  -22.2991   21.3033 C   0  0  0  0  0  0  0  0  0  0  0  0
  -41.0500  -18.4410   19.4974 C   0  0  0  0  0  0  0  0  0  0  0  0
  -22.3283   -8.7175   20.1918 C   0  0  0  0  0  0  0  0  0  0  0  0
  -23.0860   -8.7257   22.4859 C   0  0  0  0  0  0  0  0  0  0  0  0
  -40.8375  -17.3576   20.3488 C   0  0  0  0  0  0  0  0  0  0  0  0
  -19.3780   -7.9246   21.6410 C   0  0  0  0  0  0  0  0  0  0  0  0
  -18.0716   -7.8791   21.1546 C   0  0  0  0  0  0  0  0  0  0  0  0
  -31.8528  -18.3569   24.2042 C   0  0  0  0  0  0  0  0  0  0  0  0
  -32.0638  -16.6059   22.5531 C   0  0  0  0  0  0  0  0  0  0  0  0
  -38.6348  -18.1984   20.8592 C   0  0  0  0  0  0  0  0  0  0  0  0
  -29.8798  -17.4561   23.1399 C   0  0  0  0  0  0  0  0  0  0  0  0
  -18.6308   -5.9344   19.8344 C   0  0  0  0  0  0  0  0  0  0  0  0
  -23.8248  -10.4501   20.9635 C   0  0  0  0  0  0  0  0  0  0  0  0
  -32.6511  -17.4899   23.4582 C   0  0  0  0  0  0  0  0  0  0  0  0
  -24.1689  -12.9748   20.8418 C   0  0  0  0  0  0  0  0  0  0  0  0
  -44.1974  -24.5098   20.3905 C   0  0  0  0  0  0  0  0  0  0  0  0
  -40.0590  -19.4187   19.3287 C   0  0  0  0  0  0  0  0  0  0  0  0
  -43.2935  -23.5368   20.8583 C   0  0  0  0  0  0  0  0  0  0  0  0
  -38.8362  -19.2919   20.0031 C   0  0  0  0  0  0  0  0  0  0  0  0
  -30.4671  -18.3401   24.0451 C   0  0  0  0  0  0  0  0  0  0  0  0
  -30.6781  -16.5891   22.3939 C   0  0  0  0  0  0  0  0  0  0  0  0
  -22.3346   -8.1455   21.4640 C   0  0  0  0  0  0  0  0  0  0  0  0
  -39.6309  -17.2377   21.0321 C   0  0  0  0  0  0  0  0  0  0  0  0
  -20.3110   -6.9751   21.2241 C   0  0  0  0  0  0  0  0  0  0  0  0
  -17.6979   -6.8840   20.2513 C   0  0  0  0  0  0  0  0  0  0  0  0
  -19.9374   -5.9800   20.3209 C   0  0  0  0  0  0  0  0  0  0  0  0
  -24.5951  -11.6401   20.7056 C   0  0  0  0  0  0  0  0  0  0  0  0
  -25.2620  -13.7231   20.4789 C   0  0  0  0  0  0  0  0  0  0  0  0
  -34.1150  -17.5089   23.6255 C   0  0  0  0  0  0  0  0  0  0  0  0
  -22.8985  -13.4921   21.2591 C   0  0  0  0  0  0  0  0  0  0  0  0
  -39.8680  -22.5403   19.8964 C   0  0  0  0  0  0  0  0  0  0  0  0
  -37.0061  -22.2423   18.3986 C   0  0  0  0  0  0  0  0  0  0  0  0
  -34.4051  -20.2261   17.4951 C   0  0  0  0  0  0  0  0  0  0  0  0
  -37.1253  -16.0843   22.5726 C   0  0  0  0  0  0  0  0  0  0  0  0
  -30.7289  -14.7643   20.6578 C   0  0  0  0  0  0  0  0  0  0  0  0
  -43.7338  -25.8736   19.9437 C   0  0  0  0  0  0  0  0  0  0  0  0
  -40.2935  -20.5671   18.3861 C   0  0  0  0  0  0  0  0  0  0  0  0
  -37.7324  -20.3037   19.8408 C   0  0  0  0  0  0  0  0  0  0  0  0
  -42.2405  -25.9379   19.6332 C   0  0  0  0  0  0  0  0  0  0  0  0
  -29.6147  -12.3495   18.2905 C   0  0  0  0  0  0  0  0  0  0  0  0
  -41.4357  -25.2631   20.7394 C   0  0  0  0  0  0  0  0  0  0  0  0
  -28.1744  -12.0594   18.7190 C   0  0  0  0  0  0  0  0  0  0  0  0
  -30.5289  -12.5785   19.4928 C   0  0  0  0  0  0  0  0  0  0  0  0
  -28.6212  -13.3057   20.8717 C   0  0  0  0  0  0  0  0  0  0  0  0
  -41.7996  -23.7783   20.8592 C   0  0  1  0  0  0  0  0  0  0  0  0
  -39.4122  -21.7757   18.6859 C   0  0  1  0  0  0  0  0  0  0  0  0
  -27.6494  -13.1323   19.6931 C   0  0  2  0  0  0  0  0  0  0  0  0
  -32.1935  -20.2757   16.3102 C   0  0  0  0  0  0  0  0  0  0  0  0
  -39.0144  -15.4925   24.1152 C   0  0  0  0  0  0  0  0  0  0  0  0
  -35.7353  -23.5748   20.8316 C   0  0  0  0  0  0  0  0  0  0  0  0
  -33.5103  -22.7483   20.0351 C   0  0  0  0  0  0  0  0  0  0  0  0
  -34.8246  -24.3365   18.6305 C   0  0  0  0  0  0  0  0  0  0  0  0
  -35.3257  -18.2941   15.4508 C   0  0  0  0  0  0  0  0  0  0  0  0
  -35.5950  -21.9376   18.8401 C   0  0  1  0  0  0  0  0  0  0  0  0
  -33.6891  -20.0387   16.1697 C   0  0  2  0  0  0  0  0  0  0  0  0
  -38.5580  -16.3954   22.9803 C   0  0  1  0  0  0  0  0  0  1  0  0
  -34.9376  -23.1311   19.5891 C   0  0  0  0  0  0  0  0  0  0  0  0
  -25.8603  -11.5429   20.2885 N   0  0  0  0  0  0  0  0  0  0  0  0
  -34.8910  -16.7216   22.9540 N   0  0  0  0  0  0  0  0  0  0  0  0
  -26.2384  -12.8260   20.1595 N   0  0  0  0  0  0  0  0  0  0  0  0
  -38.0121  -21.4119   18.9128 N   0  0  0  0  0  0  0  0  0  0  0  0
  -29.9699  -13.6105   20.3688 N   0  0  0  0  0  0  0  0  0  0  0  0
  -29.6597  -19.2164   24.7995 N   0  0  0  0  0  0  0  0  0  0  0  0
  -25.4736  -15.0543   20.4050 N   0  0  0  0  0  0  0  0  0  0  0  0
  -21.8855  -12.5840   21.5962 N   0  0  0  0  0  0  0  0  0  0  0  0
  -30.0816  -15.6905   21.4749 N   0  0  0  0  0  0  0  0  0  0  0  0
  -41.1625  -23.0153   19.8073 N   0  0  0  0  0  0  0  0  0  0  0  0
  -34.8756  -21.5136   17.6439 N   0  0  0  0  0  0  0  0  0  0  0  0
  -36.2049  -16.8765   23.2342 N   0  0  0  0  0  0  0  0  0  0  0  0
  -33.8996  -18.6548   15.6583 N   0  3  0  0  0  0  0  0  0  0  0  0
  -22.6632  -14.7229   21.3152 O   0  0  0  0  0  0  0  0  0  0  0  0
  -39.1013  -22.6896   20.8407 O   0  0  0  0  0  0  0  0  0  0  0  0
  -37.2076  -23.1779   17.6204 O   0  0  0  0  0  0  0  0  0  0  0  0
  -34.5309  -19.3218   18.3179 O   0  0  0  0  0  0  0  0  0  0  0  0
  -36.8473  -15.2314   21.7321 O   0  0  0  0  0  0  0  0  0  0  0  0
  -31.8586  -14.9317   20.1911 O   0  0  0  0  0  0  0  0  0  0  0  0
  -21.6075   -7.0212   21.7085 O   0  0  0  0  0  0  0  0  0  0  0  0
  -39.4211  -16.1815   21.8642 O   0  0  0  0  0  0  0  0  0  1  0  0
  -16.4429   -6.8395   19.7855 F   0  0  0  0  0  0  0  0  0  0  0  0
  -20.8289   -5.0644   19.9176 F   0  0  0  0  0  0  0  0  0  0  0  0
  1  2  1  0  0  0  0
  1  5  2  0  0  0  0
  2  6  2  0  0  0  0
  3  8  2  0  0  0  0
  3 18  1  0  0  0  0
  4  9  1  0  0  0  0
  4 18  2  0  0  0  0
  5 21  1  0  0  0  0
  6 23  1  0  0  0  0
  7 10  2  0  0  0  0
  7 22  1  0  0  0  0
  8 27  1  0  0  0  0
  9 27  2  0  0  0  0
 10 28  1  0  0  0  0
 11 12  2  0  0  0  0
 11 29  1  0  0  0  0
 12 30  1  0  0  0  0
 13 19  1  0  0  0  0
 13 25  2  0  0  0  0
 14 19  2  0  0  0  0
 14 26  1  0  0  0  0
 15 24  1  0  0  0  0
 15 28  2  0  0  0  0
 16 25  1  0  0  0  0
 16 26  2  0  0  0  0
 17 30  2  0  0  0  0
 17 31  1  0  0  0  0
 18 32  1  0  0  0  0
 19 34  1  0  0  0  0
 20 32  1  0  0  0  0
 20 33  2  0  0  0  0
 20 35  1  0  0  0  0
 21 23  2  0  0  0  0
 21 41  1  0  0  0  0
 22 24  2  0  0  0  0
 22 42  1  0  0  0  0
 23 50  1  0  0  0  0
 24 43  1  0  0  0  0
 25 68  1  0  0  0  0
 26 71  1  0  0  0  0
 27 82  1  0  0  0  0
 28 83  1  0  0  0  0
 29 31  2  0  0  0  0
 29 82  1  0  0  0  0
 30 84  1  0  0  0  0
 31 85  1  0  0  0  0
 32 63  2  0  0  0  0
 33 65  1  0  0  0  0
 33 69  1  0  0  0  0
 34 64  2  0  0  0  0
 35 70  1  0  0  0  0
 35 76  2  0  0  0  0
 36 51  1  0  0  0  0
 36 72  1  0  0  0  0
 36 77  2  0  0  0  0
 37 59  1  0  0  0  0
 37 66  1  0  0  0  0
 37 78  2  0  0  0  0
 38 60  1  0  0  0  0
 38 73  1  0  0  0  0
 38 79  2  0  0  0  0
 39 61  1  0  0  0  0
 39 74  1  0  0  0  0
 39 80  2  0  0  0  0
 40 67  1  0  0  0  0
 40 71  1  0  0  0  0
 40 81  2  0  0  0  0
 41 44  1  0  0  0  0
 42 51  1  0  0  0  0
 43 66  1  0  0  0  0
 44 46  1  0  0  0  0
 45 47  1  0  0  0  0
 45 48  1  0  0  0  0
 46 50  1  0  0  0  0
 47 52  1  0  0  0  0
 48 67  1  0  0  0  0
 49 52  1  0  0  0  0
 49 67  1  0  0  0  0
 50 72  1  0  0  0  0
 51 66  1  0  0  0  0
 52 65  1  0  0  0  0
 53 60  1  0  0  0  0
 54 61  1  0  0  0  0
 55 62  1  0  0  0  0
 56 62  1  0  0  0  0
 57 62  1  0  0  0  0
 58 75  1  0  0  0  0
 59 62  1  0  0  0  0
 59 73  1  0  0  0  0
 60 75  1  0  0  0  0
 61 83  1  0  0  0  0
 63 65  1  0  0  0  0
 64 74  1  0  0  0  0
M  CHG  1  75   1
M  ISO  4  40 100  61 101  71 100  83 101
M  END
> <Batch ID>
0089

> <Smiles>
CNC(C)C(=O)NC(C(=O)N1Cc2cc([101O:1][101CH:1](C)C(=O)NN=Cc3cc(N)cc([100NH:0][100C:0](=O)N4CCCC(n5nc(-c6ccc(Oc7ccc(F)cc7F)cc6)c(C(N)=O)c5N)C4)c3)ccc2CC1C(=O)NC1CCCc2ccccc21)C(C)(C)C

> <Shape>
0.146

> <Color>
0.180

> <Negative vol penalty>
0.000

$$$$

  -OEChem-04052300263D

 85 94  0     1  0  0  0  0  0999 V2000
  -25.5897  -34.0665   12.4352 C   0  0  0  0  0  0  0  0  0  0  0  0
  -25.7314  -32.7642   11.9670 C   0  0  0  0  0  0  0  0  0  0  0  0
  -23.2408   -9.7761   19.9494 C   0  0  0  0  0  0  0  0  0  0  0  0
  -23.6670   -9.9584   22.3205 C   0  0  0  0  0  0  0  0  0  0  0  0
  -26.3376  -34.4978   13.5299 C   0  0  0  0  0  0  0  0  0  0  0  0
  -26.6221  -31.8926   12.5927 C   0  0  0  0  0  0  0  0  0  0  0  0
  -25.9468  -25.8524   13.3448 C   0  0  0  0  0  0  0  0  0  0  0  0
  -29.3800  -15.7552   14.6153 C   0  0  0  0  0  0  0  0  0  0  0  0
  -29.0790  -16.6767   13.6078 C   0  0  0  0  0  0  0  0  0  0  0  0
  -22.4772   -8.6308   20.1747 C   0  0  0  0  0  0  0  0  0  0  0  0
  -22.9033   -8.8131   22.5458 C   0  0  0  0  0  0  0  0  0  0  0  0
  -26.4461  -24.7578   12.6403 C   0  0  0  0  0  0  0  0  0  0  0  0
  -19.3583   -7.8879   21.2489 C   0  0  0  0  0  0  0  0  0  0  0  0
  -18.1340   -7.7849   20.5886 C   0  0  0  0  0  0  0  0  0  0  0  0
  -28.4385  -18.3336   15.2500 C   0  0  0  0  0  0  0  0  0  0  0  0
  -28.6685  -17.4971   17.6947 C   0  0  0  0  0  0  0  0  0  0  0  0
  -28.2540  -24.5695   14.2262 C   0  0  0  0  0  0  0  0  0  0  0  0
  -18.8897   -5.7631   19.5030 C   0  0  0  0  0  0  0  0  0  0  0  0
  -28.7354  -17.4209   16.2834 C   0  0  0  0  0  0  0  0  0  0  0  0
  -23.8358  -10.4398   21.0223 C   0  0  0  0  0  0  0  0  0  0  0  0
  -24.1733  -12.9557   20.7690 C   0  0  0  0  0  0  0  0  0  0  0  0
  -27.2308  -33.6281   14.1754 C   0  0  0  0  0  0  0  0  0  0  0  0
  -26.6046  -26.3213   14.4911 C   0  0  0  0  0  0  0  0  0  0  0  0
  -27.3837  -32.3130   13.6962 C   0  0  0  0  0  0  0  0  0  0  0  0
  -27.7596  -25.6686   14.9449 C   0  0  0  0  0  0  0  0  0  0  0  0
  -29.2121  -16.1453   15.9571 C   0  0  0  0  0  0  0  0  0  0  0  0
  -28.6162  -17.9498   13.9186 C   0  0  0  0  0  0  0  0  0  0  0  0
  -22.3084   -8.1493   21.4729 C   0  0  0  0  0  0  0  0  0  0  0  0
  -27.6015  -24.1180   13.0793 C   0  0  0  0  0  0  0  0  0  0  0  0
  -20.3484   -6.9286   21.0362 C   0  0  0  0  0  0  0  0  0  0  0  0
  -17.8997   -6.7225   19.7157 C   0  0  0  0  0  0  0  0  0  0  0  0
  -20.1141   -5.8662   20.1633 C   0  0  0  0  0  0  0  0  0  0  0  0
  -24.6252  -11.6226   20.7901 C   0  0  0  0  0  0  0  0  0  0  0  0
  -25.3006  -13.6964   20.5103 C   0  0  0  0  0  0  0  0  0  0  0  0
  -29.1042  -16.2961   18.1966 C   0  0  0  0  0  0  0  0  0  0  0  0
  -22.8525  -13.4778   20.9658 C   0  0  0  0  0  0  0  0  0  0  0  0
  -28.0157  -29.0494   15.3094 C   0  0  0  0  0  0  0  0  0  0  0  0
  -28.2505  -27.6070   18.2054 C   0  0  0  0  0  0  0  0  0  0  0  0
  -27.8497  -20.1688   13.0062 C   0  0  0  0  0  0  0  0  0  0  0  0
  -28.3534  -24.7036   19.9961 C   0  0  0  0  0  0  0  0  0  0  0  0
  -29.9614  -14.1515   17.2582 C   0  0  0  0  0  0  0  0  0  0  0  0
  -28.0526  -34.1539   15.3256 C   0  0  0  0  0  0  0  0  0  0  0  0
  -26.0382  -27.4867   15.2550 C   0  0  0  0  0  0  0  0  0  0  0  0
  -28.4917  -26.1203   16.1812 C   0  0  0  0  0  0  0  0  0  0  0  0
  -28.6984  -33.0548   16.1653 C   0  0  0  0  0  0  0  0  0  0  0  0
  -30.1808  -12.4116   20.4950 C   0  0  0  0  0  0  0  0  0  0  0  0
  -29.3564  -32.0130   15.2661 C   0  0  0  0  0  0  0  0  0  0  0  0
  -28.7197  -12.1037   20.8190 C   0  0  0  0  0  0  0  0  0  0  0  0
  -30.4241  -12.4831   18.9907 C   0  0  0  0  0  0  0  0  0  0  0  0
  -28.0700  -13.1297   18.6033 C   0  0  0  0  0  0  0  0  0  0  0  0
  -28.3213  -31.3304   14.3637 C   0  0  1  0  0  0  0  0  0  0  0  0
  -27.0770  -28.1980   16.1166 C   0  0  1  0  0  0  0  0  0  0  0  0
  -27.7798  -13.0953   20.1116 C   0  0  1  0  0  0  0  0  0  0  0  0
  -28.5894  -23.8431   22.3415 C   0  0  0  0  0  0  0  0  0  0  0  0
  -31.2413  -28.2052   18.1213 C   0  0  0  0  0  0  0  0  0  0  0  0
  -31.5562  -26.5351   19.9597 C   0  0  0  0  0  0  0  0  0  0  0  0
  -30.1668  -28.5698   20.3499 C   0  0  0  0  0  0  0  0  0  0  0  0
  -25.6962  -23.4033   19.9101 C   0  0  0  0  0  0  0  0  0  0  0  0
  -27.6612  -20.8031   11.6328 C   0  0  0  0  0  0  0  0  0  0  0  0
  -27.1489  -22.2338   11.7006 C   0  0  0  0  0  0  0  0  0  1  0  0
  -29.2698  -26.7199   18.8784 C   0  0  1  0  0  0  0  0  0  0  0  0
  -27.6185  -24.2673   21.2507 C   0  0  2  0  0  0  0  0  0  0  0  0
  -30.5460  -27.4999   19.3029 C   0  0  0  0  0  0  0  0  0  0  0  0
  -25.9373  -11.5194   20.5627 N   0  0  0  0  0  0  0  0  0  0  0  0
  -29.4088  -15.4426   17.1500 N   0  0  0  0  0  0  0  0  0  0  0  0
  -26.3195  -12.7970   20.3962 N   0  0  0  0  0  0  0  0  0  0  0  0
  -27.9022  -27.2681   16.8902 N   0  0  0  0  0  0  0  0  0  0  0  0
  -29.4934  -13.4047   18.3409 N   0  0  0  0  0  0  0  0  0  0  0  0
  -25.5098  -15.0228   20.3714 N   0  0  0  0  0  0  0  0  0  0  0  0
  -21.8094  -12.5774   21.2218 N   0  0  0  0  0  0  0  0  0  0  0  0
  -28.3228  -18.8513   12.8944 N   0  0  0  0  0  0  0  0  0  0  0  0
  -27.5723  -30.3430   15.1109 N   0  0  0  0  0  0  0  0  0  0  0  0
  -28.5756  -26.0643   19.9814 N   0  0  0  0  0  0  0  0  0  0  0  0
  -26.7179  -23.1185   20.9503 N   0  3  0  0  0  0  0  0  0  0  0  0
  -22.6018  -14.7051   20.8999 O   0  0  0  0  0  0  0  0  0  0  0  0
  -29.0654  -28.5688   14.8985 O   0  0  0  0  0  0  0  0  0  0  0  0
  -27.7753  -28.5611   18.8262 O   0  0  0  0  0  0  0  0  0  0  0  0
  -27.6044  -20.7744   14.0442 O   0  0  0  0  0  0  0  0  0  0  0  0
  -28.6993  -23.9155   19.1187 O   0  0  0  0  0  0  0  0  0  0  0  0
  -30.8300  -13.8274   16.4583 O   0  0  0  0  0  0  0  0  0  0  0  0
  -29.3835  -16.0086   19.4610 O   0  0  0  0  0  0  0  0  0  0  0  0
  -21.5631   -7.0319   21.6931 O   0  0  0  0  0  0  0  0  0  0  0  0
  -28.0948  -23.0422   12.3883 O   0  0  0  0  0  0  0  0  0  1  0  0
  -16.7234   -6.6228   19.0828 F   0  0  0  0  0  0  0  0  0  0  0  0
  -21.0610   -4.9409   19.9558 F   0  0  0  0  0  0  0  0  0  0  0  0
  1  2  1  0  0  0  0
  1  5  2  0  0  0  0
  2  6  2  0  0  0  0
  3 10  2  0  0  0  0
  3 20  1  0  0  0  0
  4 11  1  0  0  0  0
  4 20  2  0  0  0  0
  5 22  1  0  0  0  0
  6 24  1  0  0  0  0
  7 12  2  0  0  0  0
  7 23  1  0  0  0  0
  8  9  2  0  0  0  0
  8 26  1  0  0  0  0
  9 27  1  0  0  0  0
 10 28  1  0  0  0  0
 11 28  2  0  0  0  0
 12 29  1  0  0  0  0
 13 14  2  0  0  0  0
 13 30  1  0  0  0  0
 14 31  1  0  0  0  0
 15 19  1  0  0  0  0
 15 27  2  0  0  0  0
 16 19  1  0  0  0  0
 16 35  2  0  0  0  0
 17 25  1  0  0  0  0
 17 29  2  0  0  0  0
 18 31  2  0  0  0  0
 18 32  1  0  0  0  0
 19 26  2  0  0  0  0
 20 33  1  0  0  0  0
 21 33  1  0  0  0  0
 21 34  2  0  0  0  0
 21 36  1  0  0  0  0
 22 24  2  0  0  0  0
 22 42  1  0  0  0  0
 23 25  2  0  0  0  0
 23 43  1  0  0  0  0
 24 51  1  0  0  0  0
 25 44  1  0  0  0  0
 26 65  1  0  0  0  0
 27 71  1  0  0  0  0
 28 82  1  0  0  0  0
 29 83  1  0  0  0  0
 30 32  2  0  0  0  0
 30 82  1  0  0  0  0
 31 84  1  0  0  0  0
 32 85  1  0  0  0  0
 33 64  2  0  0  0  0
 34 66  1  0  0  0  0
 34 69  1  0  0  0  0
 35 65  1  0  0  0  0
 35 81  1  0  0  0  0
 36 70  1  0  0  0  0
 36 75  2  0  0  0  0
 37 52  1  0  0  0  0
 37 72  1  0  0  0  0
 37 76  2  0  0  0  0
 38 61  1  0  0  0  0
 38 67  1  0  0  0  0
 38 77  2  0  0  0  0
 39 59  1  0  0  0  0
 39 71  1  0  0  0  0
 39 78  2  0  0  0  0
 40 62  1  0  0  0  0
 40 73  1  0  0  0  0
 40 79  2  0  0  0  0
 41 65  1  0  0  0  0
 41 68  1  0  0  0  0
 41 80  2  0  0  0  0
 42 45  1  0  0  0  0
 43 52  1  0  0  0  0
 44 67  1  0  0  0  0
 45 47  1  0  0  0  0
 46 48  1  0  0  0  0
 46 49  1  0  0  0  0
 47 51  1  0  0  0  0
 48 53  1  0  0  0  0
 49 68  1  0  0  0  0
 50 53  1  0  0  0  0
 50 68  1  0  0  0  0
 51 72  1  0  0  0  0
 52 67  1  0  0  0  0
 53 66  1  0  0  0  0
 54 62  1  0  0  0  0
 55 63  1  0  0  0  0
 56 63  1  0  0  0  0
 57 63  1  0  0  0  0
 58 74  1  0  0  0  0
 59 60  1  0  0  0  0
 60 83  1  0  0  0  0
 61 63  1  0  0  0  0
 61 73  1  0  0  0  0
 62 74  1  0  0  0  0
 64 66  1  0  0  0  0
M  CHG  1  74   1
M  ISO  4  41 100  60 101  65 100  83 101
M  END
> <Batch ID>
0089

> <Smiles>
CNC(C)C(=O)NC(C(=O)N1Cc2cc([101O:1][101CH2:1]CC(=O)Nc3ccc4c(c3)CC(=O)[100N:0]4[100C:0](=O)N3CCCC(n4nc(-c5ccc(Oc6ccc(F)cc6F)cc5)c(C(N)=O)c4N)C3)ccc2CC1C(=O)NC1CCCc2ccccc21)C(C)(C)C

> <Shape>
0.164

> <Color>
0.173

> <Negative vol penalty>
0.000

$$$$

  -OEChem-04052300263D

 87 96  0     1  0  0  0  0  0999 V2000
  -17.0426  -26.8950   22.3368 C   0  0  0  0  0  0  0  0  0  0  0  0
  -18.2638  -26.2766   22.5851 C   0  0  0  0  0  0  0  0  0  0  0  0
  -24.2533   -9.5687   21.6234 C   0  0  0  0  0  0  0  0  0  0  0  0
  -24.7116  -10.7957   23.6535 C   0  0  0  0  0  0  0  0  0  0  0  0
  -17.0095  -28.1640   21.7602 C   0  0  0  0  0  0  0  0  0  0  0  0
  -19.4528  -26.9265   22.2560 C   0  0  0  0  0  0  0  0  0  0  0  0
  -24.7661  -26.6404   25.2879 C   0  0  0  0  0  0  0  0  0  0  0  0
  -23.8507   -8.4679   22.3795 C   0  0  0  0  0  0  0  0  0  0  0  0
  -24.3089   -9.6949   24.4097 C   0  0  0  0  0  0  0  0  0  0  0  0
  -25.9241  -25.8918   25.0825 C   0  0  0  0  0  0  0  0  0  0  0  0
  -21.1125   -7.5041   24.1133 C   0  0  0  0  0  0  0  0  0  0  0  0
  -19.9390   -6.8520   23.7349 C   0  0  0  0  0  0  0  0  0  0  0  0
  -26.9080  -27.7497   23.8994 C   0  0  0  0  0  0  0  0  0  0  0  0
  -28.5259  -20.9757   20.7616 C   0  0  0  0  0  0  0  0  0  0  0  0
  -30.6457  -20.3238   21.7199 C   0  0  0  0  0  0  0  0  0  0  0  0
  -21.1833   -4.8085   23.3981 C   0  0  0  0  0  0  0  0  0  0  0  0
  -24.6839  -10.7326   22.2604 C   0  0  0  0  0  0  0  0  0  0  0  0
  -24.2933  -12.9286   21.0224 C   0  0  0  0  0  0  0  0  0  0  0  0
  -18.1989  -28.8338   21.4328 C   0  0  0  0  0  0  0  0  0  0  0  0
  -24.6660  -27.9477   24.7904 C   0  0  0  0  0  0  0  0  0  0  0  0
  -19.4356  -28.2052   21.6733 C   0  0  0  0  0  0  0  0  0  0  0  0
  -25.7486  -28.5137   24.1021 C   0  0  0  0  0  0  0  0  0  0  0  0
  -29.6953  -21.3073   21.4458 C   0  0  0  0  0  0  0  0  0  0  0  0
  -28.3067  -19.6605   20.3517 C   0  0  0  0  0  0  0  0  0  0  0  0
  -29.2571  -18.6770   20.6259 C   0  0  0  0  0  0  0  0  0  0  0  0
  -23.8785   -8.5310   23.7727 C   0  0  0  0  0  0  0  0  0  0  0  0
  -26.9942  -26.4453   24.3856 C   0  0  0  0  0  0  0  0  0  0  0  0
  -22.3214   -6.8085   24.1341 C   0  0  0  0  0  0  0  0  0  0  0  0
  -19.9744   -5.5042   23.3773 C   0  0  0  0  0  0  0  0  0  0  0  0
  -30.4266  -19.0086   21.3100 C   0  0  0  0  0  0  0  0  0  0  0  0
  -22.3568   -5.4607   23.7765 C   0  0  0  0  0  0  0  0  0  0  0  0
  -25.1004  -11.8698   21.4799 C   0  0  0  0  0  0  0  0  0  0  0  0
  -25.1565  -13.7460   20.3345 C   0  0  0  0  0  0  0  0  0  0  0  0
  -30.9173  -24.5929   22.4332 C   0  0  0  0  0  0  0  0  0  0  0  0
  -29.6054  -24.7759   22.5671 C   0  0  0  0  0  0  0  0  0  0  0  0
  -31.1525  -23.2129   21.9853 C   0  0  0  0  0  0  0  0  0  0  0  0
  -28.9248  -23.5212   22.1921 C   0  0  0  0  0  0  0  0  0  0  0  0
  -22.8888  -13.1532   21.2032 C   0  0  0  0  0  0  0  0  0  0  0  0
  -22.7739  -29.4127   22.6982 C   0  0  0  0  0  0  0  0  0  0  0  0
  -24.3637  -32.0563   23.7014 C   0  0  0  0  0  0  0  0  0  0  0  0
  -27.1733  -33.3876   25.1088 C   0  0  0  0  0  0  0  0  0  0  0  0
  -30.0304  -16.3991   19.8778 C   0  0  0  0  0  0  0  0  0  0  0  0
  -18.1118  -30.1847   20.7677 C   0  0  0  0  0  0  0  0  0  0  0  0
  -23.4201  -28.7515   25.0436 C   0  0  0  0  0  0  0  0  0  0  0  0
  -25.6992  -29.9200   23.5653 C   0  0  0  0  0  0  0  0  0  0  0  0
  -19.4254  -30.9620   20.7933 C   0  0  0  0  0  0  0  0  0  0  0  0
  -29.9388  -12.9888   18.8589 C   0  0  0  0  0  0  0  0  0  0  0  0
  -20.5861  -30.0626   20.3802 C   0  0  0  0  0  0  0  0  0  0  0  0
  -28.6055  -12.4807   19.4123 C   0  0  0  0  0  0  0  0  0  0  0  0
  -30.6053  -13.9825   19.8086 C   0  0  0  0  0  0  0  0  0  0  0  0
  -28.4256  -14.6009   20.7759 C   0  0  0  0  0  0  0  0  0  0  0  0
  -20.7474  -28.8884   21.3531 C   0  0  1  0  0  0  0  0  0  0  0  0
  -23.2315  -29.8911   24.0470 C   0  0  1  0  0  0  0  0  0  0  0  0
  -27.6855  -13.6466   19.8245 C   0  0  2  0  0  0  0  0  0  0  0  0
  -28.1970  -35.5826   25.7655 C   0  0  0  0  0  0  0  0  0  0  0  0
  -24.9940  -32.6357   20.7728 C   0  0  0  0  0  0  0  0  0  0  0  0
  -26.7602  -34.2350   21.5416 C   0  0  0  0  0  0  0  0  0  0  0  0
  -24.3694  -34.6460   22.1230 C   0  0  0  0  0  0  0  0  0  0  0  0
  -27.3081  -32.6040   27.9596 C   0  0  0  0  0  0  0  0  0  0  0  0
  -28.8735  -25.9937   22.9999 C   0  0  0  0  0  0  0  0  0  1  0  0
  -25.6207  -32.7745   23.2736 C   0  0  1  0  0  0  0  0  0  0  0  0
  -27.3581  -34.4001   26.2246 C   0  0  2  0  0  0  0  0  0  0  0  0
  -25.4366  -33.5456   21.9360 C   0  0  0  0  0  0  0  0  0  0  0  0
  -26.3782  -12.0000   21.1133 N   0  0  0  0  0  0  0  0  0  0  0  0
  -26.3805  -13.1502   20.4182 N   0  0  0  0  0  0  0  0  0  0  0  0
  -29.9141  -22.6179   21.8548 N   0  0  0  0  0  0  0  0  0  0  0  0
  -24.4569  -30.6635   23.8330 N   0  0  0  0  0  0  0  0  0  0  0  0
  -29.6760  -15.0612   20.1519 N   0  0  0  0  0  0  0  0  0  0  0  0
  -27.1150  -19.3466   19.6601 N   0  0  0  0  0  0  0  0  0  0  0  0
  -24.9803  -14.9091   19.6722 N   0  0  0  0  0  0  0  0  0  0  0  0
  -22.1509  -12.2140   21.9365 N   0  0  0  0  0  0  0  0  0  0  0  0
  -29.0544  -17.3353   20.2177 N   0  0  0  0  0  0  0  0  0  0  0  0
  -21.4010  -29.3250   22.5683 N   0  0  0  0  0  0  0  0  0  0  0  0
  -26.0134  -33.6157   24.3990 N   0  0  0  0  0  0  0  0  0  0  0  0
  -28.0362  -33.7675   27.3911 N   0  3  0  0  0  0  0  0  0  0  0  0
  -32.2617  -22.7456   21.7840 O   0  0  0  0  0  0  0  0  0  0  0  0
  -27.7139  -23.3671   22.1999 O   0  0  0  0  0  0  0  0  0  0  0  0
  -22.3023  -14.1486   20.7146 O   0  0  0  0  0  0  0  0  0  0  0  0
  -23.6049  -29.1446   21.8384 O   0  0  0  0  0  0  0  0  0  0  0  0
  -23.3389  -32.7077   23.9180 O   0  0  0  0  0  0  0  0  0  0  0  0
  -27.9793  -32.4867   24.8866 O   0  0  0  0  0  0  0  0  0  0  0  0
  -31.1084  -16.6905   19.3533 O   0  0  0  0  0  0  0  0  0  0  0  0
  -23.4854   -7.4572   24.5108 O   0  0  0  0  0  0  0  0  0  0  0  0
  -28.1255  -25.7166   24.1831 O   0  0  0  0  0  0  0  0  0  1  0  0
  -18.8471   -4.8776   23.0154 F   0  0  0  0  0  0  0  0  0  0  0  0
  -31.3476  -18.0721   21.5792 F   0  0  0  0  0  0  0  0  0  0  0  0
  -23.5149   -4.7869   23.7957 F   0  0  0  0  0  0  0  0  0  0  0  0
  1  2  1  0  0  0  0
  1  5  2  0  0  0  0
  2  6  2  0  0  0  0
  3  8  2  0  0  0  0
  3 17  1  0  0  0  0
  4  9  1  0  0  0  0
  4 17  2  0  0  0  0
  5 19  1  0  0  0  0
  6 21  1  0  0  0  0
  7 10  2  0  0  0  0
  7 20  1  0  0  0  0
  8 26  1  0  0  0  0
  9 26  2  0  0  0  0
 10 27  1  0  0  0  0
 11 12  2  0  0  0  0
 11 28  1  0  0  0  0
 12 29  1  0  0  0  0
 13 22  1  0  0  0  0
 13 27  2  0  0  0  0
 14 23  1  0  0  0  0
 14 24  2  0  0  0  0
 15 23  2  0  0  0  0
 15 30  1  0  0  0  0
 16 29  2  0  0  0  0
 16 31  1  0  0  0  0
 17 32  1  0  0  0  0
 18 32  1  0  0  0  0
 18 33  2  0  0  0  0
 18 38  1  0  0  0  0
 19 21  2  0  0  0  0
 19 43  1  0  0  0  0
 20 22  2  0  0  0  0
 20 44  1  0  0  0  0
 21 52  1  0  0  0  0
 22 45  1  0  0  0  0
 23 66  1  0  0  0  0
 24 25  1  0  0  0  0
 24 69  1  0  0  0  0
 25 30  2  0  0  0  0
 25 72  1  0  0  0  0
 26 83  1  0  0  0  0
 27 84  1  0  0  0  0
 28 31  2  0  0  0  0
 28 83  1  0  0  0  0
 29 85  1  0  0  0  0
 30 86  1  0  0  0  0
 31 87  1  0  0  0  0
 32 64  2  0  0  0  0
 33 65  1  0  0  0  0
 33 70  1  0  0  0  0
 34 35  2  0  0  0  0
 34 36  1  0  0  0  0
 35 37  1  0  0  0  0
 35 60  1  0  0  0  0
 36 66  1  0  0  0  0
 36 76  2  0  0  0  0
 37 66  1  0  0  0  0
 37 77  2  0  0  0  0
 38 71  1  0  0  0  0
 38 78  2  0  0  0  0
 39 53  1  0  0  0  0
 39 73  1  0  0  0  0
 39 79  2  0  0  0  0
 40 61  1  0  0  0  0
 40 67  1  0  0  0  0
 40 80  2  0  0  0  0
 41 62  1  0  0  0  0
 41 74  1  0  0  0  0
 41 81  2  0  0  0  0
 42 68  1  0  0  0  0
 42 72  1  0  0  0  0
 42 82  2  0  0  0  0
 43 46  1  0  0  0  0
 44 53  1  0  0  0  0
 45 67  1  0  0  0  0
 46 48  1  0  0  0  0
 47 49  1  0  0  0  0
 47 50  1  0  0  0  0
 48 52  1  0  0  0  0
 49 54  1  0  0  0  0
 50 68  1  0  0  0  0
 51 54  1  0  0  0  0
 51 68  1  0  0  0  0
 52 73  1  0  0  0  0
 53 67  1  0  0  0  0
 54 65  1  0  0  0  0
 55 62  1  0  0  0  0
 56 63  1  0  0  0  0
 57 63  1  0  0  0  0
 58 63  1  0  0  0  0
 59 75  1  0  0  0  0
 60 84  1  0  0  0  0
 61 63  1  0  0  0  0
 61 74  1  0  0  0  0
 62 75  1  0  0  0  0
 64 65  1  0  0  0  0
M  CHG  1  75   1
M  ISO  4  42 100  60 101  72 100  84 101
M  END
> <Batch ID>
0089

> <Smiles>
CNC(C)C(=O)NC(C(=O)N1Cc2cc([101O:1][101CH2:1]C3=CC(=O)N(c4cc(N)c([100NH:0][100C:0](=O)N5CCCC(n6nc(-c7ccc(Oc8ccc(F)cc8F)cc7)c(C(N)=O)c6N)C5)c(F)c4)C3=O)ccc2CC1C(=O)NC1CCCc2ccccc21)C(C)(C)C

> <Shape>
0.309

> <Color>
0.143

> <Negative vol penalty>
0.000

$$$$

  -OEChem-04052300263D

 84 92  0     1  0  0  0  0  0999 V2000
  -27.9647  -23.7611   17.8035 C   0  0  0  0  0  0  0  0  0  0  0  0
  -26.7865  -24.0680   18.4765 C   0  0  0  0  0  0  0  0  0  0  0  0
  -26.2705  -12.7071   21.1936 C   0  0  0  0  0  0  0  0  0  0  0  0
  -24.5214  -12.8219   19.5309 C   0  0  0  0  0  0  0  0  0  0  0  0
  -29.1721  -24.3161   18.2255 C   0  0  0  0  0  0  0  0  0  0  0  0
  -26.8151  -24.9294   19.5727 C   0  0  0  0  0  0  0  0  0  0  0  0
  -23.0910  -28.3586   19.4466 C   0  0  0  0  0  0  0  0  0  0  0  0
  -25.7933  -11.4643   21.6098 C   0  0  0  0  0  0  0  0  0  0  0  0
  -24.0442  -11.5790   19.9471 C   0  0  0  0  0  0  0  0  0  0  0  0
  -21.8189  -27.9313   19.8248 C   0  0  0  0  0  0  0  0  0  0  0  0
  -22.1729  -10.3499   22.4805 C   0  0  0  0  0  0  0  0  0  0  0  0
  -20.7959  -10.2087   22.6520 C   0  0  0  0  0  0  0  0  0  0  0  0
  -22.1450  -28.9098   22.0055 C   0  0  0  0  0  0  0  0  0  0  0  0
  -18.8406  -21.1732   17.9897 C   0  0  0  0  0  0  0  0  0  0  0  0
  -20.8321  -19.8362   17.7016 C   0  0  0  0  0  0  0  0  0  0  0  0
  -20.7419  -21.5094   19.4420 C   0  0  0  0  0  0  0  0  0  0  0  0
  -20.7673   -8.4607   20.9844 C   0  0  0  0  0  0  0  0  0  0  0  0
  -25.6345  -13.3859   20.1541 C   0  0  0  0  0  0  0  0  0  0  0  0
  -27.0895  -14.9215   18.7284 C   0  0  0  0  0  0  0  0  0  0  0  0
  -29.2141  -25.1924   19.3214 C   0  0  0  0  0  0  0  0  0  0  0  0
  -23.9053  -29.0564   20.3502 C   0  0  0  0  0  0  0  0  0  0  0  0
  -28.0244  -25.4956   20.0106 C   0  0  0  0  0  0  0  0  0  0  0  0
  -23.4260  -29.3471   21.6355 C   0  0  0  0  0  0  0  0  0  0  0  0
  -19.5345  -20.1698   17.3135 C   0  0  0  0  0  0  0  0  0  0  0  0
  -19.4443  -21.8431   19.0539 C   0  0  0  0  0  0  0  0  0  0  0  0
  -21.4358  -20.5060   18.7659 C   0  0  0  0  0  0  0  0  0  0  0  0
  -24.6802  -10.9002   20.9865 C   0  0  0  0  0  0  0  0  0  0  0  0
  -21.3469  -28.2043   21.1053 C   0  0  0  0  0  0  0  0  0  0  0  0
  -22.8472   -9.5465   21.5608 C   0  0  0  0  0  0  0  0  0  0  0  0
  -20.0931   -9.2641   21.9040 C   0  0  0  0  0  0  0  0  0  0  0  0
  -22.1444   -8.6019   20.8128 C   0  0  0  0  0  0  0  0  0  0  0  0
  -26.1266  -14.6701   19.7241 C   0  0  0  0  0  0  0  0  0  0  0  0
  -27.2050  -16.2898   18.7001 C   0  0  0  0  0  0  0  0  0  0  0  0
  -27.8145  -14.0005   17.9027 C   0  0  0  0  0  0  0  0  0  0  0  0
  -26.7333  -28.5187   21.6980 C   0  0  0  0  0  0  0  0  0  0  0  0
  -26.3291  -31.5308   22.8321 C   0  0  0  0  0  0  0  0  0  0  0  0
  -19.1854  -23.6246   20.8151 C   0  0  0  0  0  0  0  0  0  0  0  0
  -24.1821  -34.0507   23.6609 C   0  0  0  0  0  0  0  0  0  0  0  0
  -23.4978  -20.7312   20.1956 C   0  0  0  0  0  0  0  0  0  0  0  0
  -30.5498  -25.7304   19.7699 C   0  0  0  0  0  0  0  0  0  0  0  0
  -25.2646  -29.5338   19.9180 C   0  0  0  0  0  0  0  0  0  0  0  0
  -24.2530  -30.1106   22.6362 C   0  0  0  0  0  0  0  0  0  0  0  0
  -30.4395  -26.9288   20.7090 C   0  0  0  0  0  0  0  0  0  0  0  0
  -26.7559  -20.1445   21.5062 C   0  0  0  0  0  0  0  0  0  0  0  0
  -29.4026  -26.6620   21.7955 C   0  0  0  0  0  0  0  0  0  0  0  0
  -27.0544  -18.6989   21.1020 C   0  0  0  0  0  0  0  0  0  0  0  0
  -25.2862  -20.3383   21.8755 C   0  0  0  0  0  0  0  0  0  0  0  0
  -24.6246  -18.4341   20.4592 C   0  0  0  0  0  0  0  0  0  0  0  0
  -28.0111  -26.4453   21.1888 C   0  0  1  0  0  0  0  0  0  0  0  0
  -26.2087  -29.7882   21.0890 C   0  0  1  0  0  0  0  0  0  0  0  0
  -26.0788  -18.2045   20.0161 C   0  0  2  0  0  0  0  0  0  0  0  0
  -24.1445  -36.3784   24.5977 C   0  0  0  0  0  0  0  0  0  0  0  0
  -26.8299  -30.4117   25.6262 C   0  0  0  0  0  0  0  0  0  0  0  0
  -25.8596  -32.5187   26.5682 C   0  0  0  0  0  0  0  0  0  0  0  0
  -27.9251  -32.6138   25.1727 C   0  0  0  0  0  0  0  0  0  0  0  0
  -22.9587  -35.1465   21.1989 C   0  0  0  0  0  0  0  0  0  0  0  0
  -18.1095  -24.6087   21.2530 C   0  0  0  0  0  0  0  0  0  0  0  0
  -18.6897  -25.8869   21.8484 C   0  0  0  0  0  0  0  0  0  0  0  0
  -19.6103  -26.5971   20.8665 C   0  0  0  0  0  0  0  0  0  1  0  0
  -25.7030  -32.1333   24.0666 C   0  0  1  0  0  0  0  0  0  0  0  0
  -24.1949  -35.5332   23.3345 C   0  0  2  0  0  0  0  0  0  0  0  0
  -26.5643  -31.9032   25.3404 C   0  0  0  0  0  0  0  0  0  0  0  0
  -25.6635  -15.7889   20.2878 N   0  0  0  0  0  0  0  0  0  0  0  0
  -26.3383  -16.7566   19.6442 N   0  0  0  0  0  0  0  0  0  0  0  0
  -25.5778  -30.5505   22.1684 N   0  0  0  0  0  0  0  0  0  0  0  0
  -24.4216  -19.8514   20.7983 N   0  0  0  0  0  0  0  0  0  0  0  0
  -18.9241  -19.4924   16.2373 N   0  0  0  0  0  0  0  0  0  0  0  0
  -27.9623  -17.1272   17.9602 N   0  0  0  0  0  0  0  0  0  0  0  0
  -27.5744  -12.6289   18.0616 N   0  0  0  0  0  0  0  0  0  0  0  0
  -18.7396  -22.8604   19.7403 N   0  0  0  0  0  0  0  0  0  0  0  0
  -22.7532  -20.1653   19.1612 N   0  0  0  0  0  0  0  0  0  0  0  0
  -27.4213  -27.7120   20.8118 N   0  0  0  0  0  0  0  0  0  0  0  0
  -25.4584  -33.5376   23.7563 N   0  0  0  0  0  0  0  0  0  0  0  0
  -23.0224  -35.8868   22.4853 N   0  3  0  0  0  0  0  0  0  0  0  0
  -28.6625  -14.3818   17.0607 O   0  0  0  0  0  0  0  0  0  0  0  0
  -26.5303  -28.2888   22.8844 O   0  0  0  0  0  0  0  0  0  0  0  0
  -27.4407  -31.9207   22.4660 O   0  0  0  0  0  0  0  0  0  0  0  0
  -20.2759  -23.5612   21.3730 O   0  0  0  0  0  0  0  0  0  0  0  0
  -23.1437  -33.4125   23.8193 O   0  0  0  0  0  0  0  0  0  0  0  0
  -23.3953  -21.9080   20.5513 O   0  0  0  0  0  0  0  0  0  0  0  0
  -24.2144   -9.6873   21.3923 O   0  0  0  0  0  0  0  0  0  0  0  0
  -20.1059  -27.7878   21.4772 O   0  0  0  0  0  0  0  0  0  1  0  0
  -18.7710   -9.1276   22.0700 F   0  0  0  0  0  0  0  0  0  0  0  0
  -22.7869   -7.8265   19.9287 F   0  0  0  0  0  0  0  0  0  0  0  0
  1  2  1  0  0  0  0
  1  5  2  0  0  0  0
  2  6  2  0  0  0  0
  3  8  2  0  0  0  0
  3 18  1  0  0  0  0
  4  9  1  0  0  0  0
  4 18  2  0  0  0  0
  5 20  1  0  0  0  0
  6 22  1  0  0  0  0
  7 10  2  0  0  0  0
  7 21  1  0  0  0  0
  8 27  1  0  0  0  0
  9 27  2  0  0  0  0
 10 28  1  0  0  0  0
 11 12  2  0  0  0  0
 11 29  1  0  0  0  0
 12 30  1  0  0  0  0
 13 23  1  0  0  0  0
 13 28  2  0  0  0  0
 14 24  2  0  0  0  0
 14 25  1  0  0  0  0
 15 24  1  0  0  0  0
 15 26  2  0  0  0  0
 16 25  2  0  0  0  0
 16 26  1  0  0  0  0
 17 30  2  0  0  0  0
 17 31  1  0  0  0  0
 18 32  1  0  0  0  0
 19 32  1  0  0  0  0
 19 33  2  0  0  0  0
 19 34  1  0  0  0  0
 20 22  2  0  0  0  0
 20 40  1  0  0  0  0
 21 23  2  0  0  0  0
 21 41  1  0  0  0  0
 22 49  1  0  0  0  0
 23 42  1  0  0  0  0
 24 67  1  0  0  0  0
 25 70  1  0  0  0  0
 26 71  1  0  0  0  0
 27 81  1  0  0  0  0
 28 82  1  0  0  0  0
 29 31  2  0  0  0  0
 29 81  1  0  0  0  0
 30 83  1  0  0  0  0
 31 84  1  0  0  0  0
 32 63  2  0  0  0  0
 33 64  1  0  0  0  0
 33 68  1  0  0  0  0
 34 69  1  0  0  0  0
 34 75  2  0  0  0  0
 35 50  1  0  0  0  0
 35 72  1  0  0  0  0
 35 76  2  0  0  0  0
 36 60  1  0  0  0  0
 36 65  1  0  0  0  0
 36 77  2  0  0  0  0
 37 57  1  0  0  0  0
 37 70  1  0  0  0  0
 37 78  2  0  0  0  0
 38 61  1  0  0  0  0
 38 73  1  0  0  0  0
 38 79  2  0  0  0  0
 39 66  1  0  0  0  0
 39 71  1  0  0  0  0
 39 80  2  0  0  0  0
 40 43  1  0  0  0  0
 41 50  1  0  0  0  0
 42 65  1  0  0  0  0
 43 45  1  0  0  0  0
 44 46  1  0  0  0  0
 44 47  1  0  0  0  0
 45 49  1  0  0  0  0
 46 51  1  0  0  0  0
 47 66  1  0  0  0  0
 48 51  1  0  0  0  0
 48 66  1  0  0  0  0
 49 72  1  0  0  0  0
 50 65  1  0  0  0  0
 51 64  1  0  0  0  0
 52 61  1  0  0  0  0
 53 62  1  0  0  0  0
 54 62  1  0  0  0  0
 55 62  1  0  0  0  0
 56 74  1  0  0  0  0
 57 58  1  0  0  0  0
 58 59  1  0  0  0  0
 59 82  1  0  0  0  0
 60 62  1  0  0  0  0
 60 73  1  0  0  0  0
 61 74  1  0  0  0  0
 63 64  1  0  0  0  0
M  CHG  1  74   1
M  ISO  4  39 100  59 101  71 100  82 101
M  END
> <Batch ID>
0089

> <Smiles>
CNC(C)C(=O)NC(C(=O)N1Cc2cc([101O:1][101CH2:1]CCC(=O)Nc3cc(N)cc([100NH:0][100C:0](=O)N4CCCC(n5nc(-c6ccc(Oc7ccc(F)cc7F)cc6)c(C(N)=O)c5N)C4)c3)ccc2CC1C(=O)NC1CCCc2ccccc21)C(C)(C)C

> <Shape>
0.274

> <Color>
0.071

> <Negative vol penalty>
0.000

$$$$

  -OEChem-04052300263D

 86 94  0     1  0  0  0  0  0999 V2000
  -26.2251  -29.8051   25.3001 C   0  0  0  0  0  0  0  0  0  0  0  0
  -26.9445  -28.7824   25.9100 C   0  0  0  0  0  0  0  0  0  0  0  0
  -23.0760   -9.8675   19.9436 C   0  0  0  0  0  0  0  0  0  0  0  0
  -23.8335   -9.8789   22.2377 C   0  0  0  0  0  0  0  0  0  0  0  0
  -32.6730  -17.4701   23.4300 C   0  0  0  0  0  0  0  0  0  0  0  0
  -25.1600  -30.4033   25.9721 C   0  0  0  0  0  0  0  0  0  0  0  0
  -26.5999  -28.3581   27.1929 C   0  0  0  0  0  0  0  0  0  0  0  0
  -26.5153  -23.3122   27.6129 C   0  0  0  0  0  0  0  0  0  0  0  0
  -32.0645  -16.5938   22.5314 C   0  0  0  0  0  0  0  0  0  0  0  0
  -22.3315   -8.7151   20.1951 C   0  0  0  0  0  0  0  0  0  0  0  0
  -23.0890   -8.7264   22.4893 C   0  0  0  0  0  0  0  0  0  0  0  0
  -27.7429  -22.6628   27.7357 C   0  0  0  0  0  0  0  0  0  0  0  0
  -19.8599   -7.9309   23.0900 C   0  0  0  0  0  0  0  0  0  0  0  0
  -19.1018   -7.8935   24.2602 C   0  0  0  0  0  0  0  0  0  0  0  0
  -30.5064  -18.3459   24.0432 C   0  0  0  0  0  0  0  0  0  0  0  0
  -27.4100  -22.4971   30.1192 C   0  0  0  0  0  0  0  0  0  0  0  0
  -20.3418   -5.9572   25.0019 C   0  0  0  0  0  0  0  0  0  0  0  0
  -23.8271  -10.4494   20.9649 C   0  0  0  0  0  0  0  0  0  0  0  0
  -31.8939  -18.3461   24.1860 C   0  0  0  0  0  0  0  0  0  0  0  0
  -24.1698  -12.9742   20.8401 C   0  0  0  0  0  0  0  0  0  0  0  0
  -24.7960  -29.9796   27.2600 C   0  0  0  0  0  0  0  0  0  0  0  0
  -25.7295  -23.5690   28.7456 C   0  0  0  0  0  0  0  0  0  0  0  0
  -25.5298  -28.9522   27.8833 C   0  0  0  0  0  0  0  0  0  0  0  0
  -26.1716  -23.1476   30.0077 C   0  0  0  0  0  0  0  0  0  0  0  0
  -30.6769  -16.5936   22.3887 C   0  0  0  0  0  0  0  0  0  0  0  0
  -29.8979  -17.4697   23.1446 C   0  0  0  0  0  0  0  0  0  0  0  0
  -22.3380   -8.1446   21.4679 C   0  0  0  0  0  0  0  0  0  0  0  0
  -28.1917  -22.2577   28.9893 C   0  0  0  0  0  0  0  0  0  0  0  0
  -20.8590   -6.9813   22.8757 C   0  0  0  0  0  0  0  0  0  0  0  0
  -19.3427   -6.9067   25.2161 C   0  0  0  0  0  0  0  0  0  0  0  0
  -21.1000   -5.9945   23.8316 C   0  0  0  0  0  0  0  0  0  0  0  0
  -24.5968  -11.6395   20.7056 C   0  0  0  0  0  0  0  0  0  0  0  0
  -25.2626  -13.7226   20.4765 C   0  0  0  0  0  0  0  0  0  0  0  0
  -32.5496  -19.2891   25.1535 C   0  0  0  0  0  0  0  0  0  0  0  0
  -22.8991  -13.4912   21.2567 C   0  0  0  0  0  0  0  0  0  0  0  0
  -31.4350  -20.7155   28.2422 C   0  0  0  0  0  0  0  0  0  0  0  0
  -32.3615  -20.4371   27.0924 C   0  0  0  0  0  0  0  0  0  0  0  0
  -24.6461  -26.1927   30.1761 C   0  0  0  0  0  0  0  0  0  0  0  0
  -23.0509  -24.0562   32.0236 C   0  0  0  0  0  0  0  0  0  0  0  0
  -22.8524  -20.8872   33.2744 C   0  0  0  0  0  0  0  0  0  0  0  0
  -30.7289  -14.7668   20.6548 C   0  0  0  0  0  0  0  0  0  0  0  0
  -23.6673  -30.6886   27.9656 C   0  0  0  0  0  0  0  0  0  0  0  0
  -24.3954  -24.2467   28.5930 C   0  0  0  0  0  0  0  0  0  0  0  0
  -25.3563  -23.3813   31.2524 C   0  0  0  0  0  0  0  0  0  0  0  0
  -23.1294  -29.9258   29.1735 C   0  0  0  0  0  0  0  0  0  0  0  0
  -29.6163  -12.3485   18.2903 C   0  0  0  0  0  0  0  0  0  0  0  0
  -24.2781  -29.4220   30.0416 C   0  0  0  0  0  0  0  0  0  0  0  0
  -28.1761  -12.0583   18.7189 C   0  0  0  0  0  0  0  0  0  0  0  0
  -30.5302  -12.5795   19.4924 C   0  0  0  0  0  0  0  0  0  0  0  0
  -28.6220  -13.3073   20.8702 C   0  0  0  0  0  0  0  0  0  0  0  0
  -25.1708  -28.4474   29.2640 C   0  0  1  0  0  0  0  0  0  0  0  0
  -23.9142  -24.9149   29.8773 C   0  0  1  0  0  0  0  0  0  0  0  0
  -27.6504  -13.1320   19.6917 C   0  0  2  0  0  0  0  0  0  0  0  0
  -21.4582  -19.4503   34.7874 C   0  0  0  0  0  0  0  0  0  0  0  0
  -24.2700  -25.4382   34.4555 C   0  0  0  0  0  0  0  0  0  0  0  0
  -23.6374  -23.4381   35.8221 C   0  0  0  0  0  0  0  0  0  0  0  0
  -21.8656  -24.8005   34.7143 C   0  0  0  0  0  0  0  0  0  0  0  0
  -22.2046  -19.0065   31.0831 C   0  0  0  0  0  0  0  0  0  0  0  0
  -30.1354  -21.4071   27.9148 C   0  0  0  0  0  0  0  0  0  1  0  0
  -23.3511  -23.3172   33.3053 C   0  0  1  0  0  0  0  0  0  0  0  0
  -21.6959  -19.9073   33.3565 C   0  0  2  0  0  0  0  0  0  0  0  0
  -23.2975  -24.2457   34.5513 C   0  0  0  0  0  0  0  0  0  0  0  0
  -25.8621  -11.5424   20.2888 N   0  0  0  0  0  0  0  0  0  0  0  0
  -31.8036  -19.6024   26.2186 N   0  5  0  0  0  0  0  0  0  0  0  0
  -26.2395  -12.8256   20.1583 N   0  0  0  0  0  0  0  0  0  0  0  0
  -24.0618  -24.0535   31.0521 N   0  0  0  0  0  0  0  0  0  0  0  0
  -29.9706  -13.6123   20.3671 N   0  0  0  0  0  0  0  0  0  0  0  0
  -28.4908  -17.4862   23.0172 N   0  0  0  0  0  0  0  0  0  0  0  0
  -25.4735  -15.0538   20.4010 N   0  0  0  0  0  0  0  0  0  0  0  0
  -21.8865  -12.5830   21.5947 N   0  0  0  0  0  0  0  0  0  0  0  0
  -30.0810  -15.6937   21.4707 N   0  0  0  0  0  0  0  0  0  0  0  0
  -24.5445  -27.1453   29.1803 N   0  0  0  0  0  0  0  0  0  0  0  0
  -22.4211  -22.1943   33.3564 N   0  0  0  0  0  0  0  0  0  0  0  0
  -21.9745  -18.7060   32.5196 N   0  3  0  0  0  0  0  0  0  0  0  0
  -33.6868  -19.6712   24.8816 O   0  0  0  0  0  0  0  0  0  0  0  0
  -22.6632  -14.7220   21.3112 O   0  0  0  0  0  0  0  0  0  0  0  0
  -31.8063  -20.3885   29.3599 O   0  0  0  0  0  0  0  0  0  0  0  0
  -33.4618  -20.9730   27.1429 O   0  0  0  0  0  0  0  0  0  0  0  0
  -25.2564  -26.3065   31.2326 O   0  0  0  0  0  0  0  0  0  0  0  0
  -21.9569  -24.6094   31.8865 O   0  0  0  0  0  0  0  0  0  0  0  0
  -24.0218  -20.5289   33.1537 O   0  0  0  0  0  0  0  0  0  0  0  0
  -31.8586  -14.9342   20.1880 O   0  0  0  0  0  0  0  0  0  0  0  0
  -21.6114   -7.0202   21.7138 O   0  0  0  0  0  0  0  0  0  0  0  0
  -29.3899  -21.6243   29.1121 O   0  0  0  0  0  0  0  0  0  1  0  0
  -18.6155   -6.8720   26.3405 F   0  0  0  0  0  0  0  0  0  0  0  0
  -22.0592   -5.0803   23.6319 F   0  0  0  0  0  0  0  0  0  0  0  0
  1  2  1  0  0  0  0
  1  6  2  0  0  0  0
  2  7  2  0  0  0  0
  3 10  2  0  0  0  0
  3 18  1  0  0  0  0
  4 11  1  0  0  0  0
  4 18  2  0  0  0  0
  5  9  2  0  0  0  0
  5 19  1  0  0  0  0
  6 21  1  0  0  0  0
  7 23  1  0  0  0  0
  8 12  2  0  0  0  0
  8 22  1  0  0  0  0
  9 25  1  0  0  0  0
 10 27  1  0  0  0  0
 11 27  2  0  0  0  0
 12 28  1  0  0  0  0
 13 14  2  0  0  0  0
 13 29  1  0  0  0  0
 14 30  1  0  0  0  0
 15 19  2  0  0  0  0
 15 26  1  0  0  0  0
 16 24  1  0  0  0  0
 16 28  2  0  0  0  0
 17 30  2  0  0  0  0
 17 31  1  0  0  0  0
 18 32  1  0  0  0  0
 19 34  1  0  0  0  0
 20 32  1  0  0  0  0
 20 33  2  0  0  0  0
 20 35  1  0  0  0  0
 21 23  2  0  0  0  0
 21 42  1  0  0  0  0
 22 24  2  0  0  0  0
 22 43  1  0  0  0  0
 23 51  1  0  0  0  0
 24 44  1  0  0  0  0
 25 26  2  0  0  0  0
 25 71  1  0  0  0  0
 26 68  1  0  0  0  0
 27 83  1  0  0  0  0
 28 84  1  0  0  0  0
 29 31  2  0  0  0  0
 29 83  1  0  0  0  0
 30 85  1  0  0  0  0
 31 86  1  0  0  0  0
 32 63  2  0  0  0  0
 33 65  1  0  0  0  0
 33 69  1  0  0  0  0
 34 64  1  0  0  0  0
 34 75  2  0  0  0  0
 35 70  1  0  0  0  0
 35 76  2  0  0  0  0
 36 37  1  0  0  0  0
 36 59  1  0  0  0  0
 36 77  2  0  0  0  0
 37 64  1  0  0  0  0
 37 78  2  0  0  0  0
 38 52  1  0  0  0  0
 38 72  1  0  0  0  0
 38 79  2  0  0  0  0
 39 60  1  0  0  0  0
 39 66  1  0  0  0  0
 39 80  2  0  0  0  0
 40 61  1  0  0  0  0
 40 73  1  0  0  0  0
 40 81  2  0  0  0  0
 41 67  1  0  0  0  0
 41 71  1  0  0  0  0
 41 82  2  0  0  0  0
 42 45  1  0  0  0  0
 43 52  1  0  0  0  0
 44 66  1  0  0  0  0
 45 47  1  0  0  0  0
 46 48  1  0  0  0  0
 46 49  1  0  0  0  0
 47 51  1  0  0  0  0
 48 53  1  0  0  0  0
 49 67  1  0  0  0  0
 50 53  1  0  0  0  0
 50 67  1  0  0  0  0
 51 72  1  0  0  0  0
 52 66  1  0  0  0  0
 53 65  1  0  0  0  0
 54 61  1  0  0  0  0
 55 62  1  0  0  0  0
 56 62  1  0  0  0  0
 57 62  1  0  0  0  0
 58 74  1  0  0  0  0
 59 84  1  0  0  0  0
 60 62  1  0  0  0  0
 60 73  1  0  0  0  0
 61 74  1  0  0  0  0
 63 65  1  0  0  0  0
M  CHG  2  64  -1  74   1
M  ISO  4  41 100  59 101  71 100  84 101
M  END
> <Batch ID>
0089

> <Smiles>
CNC(C)C(=O)NC(C(=O)N1Cc2cc([101O:1][101CH2:1]C(=O)C(=O)NC(=O)c3ccc([100NH:0][100C:0](=O)N4CCCC(n5nc(-c6ccc(Oc7ccc(F)cc7F)cc6)c(C(N)=O)c5N)C4)c(N)c3)ccc2CC1C(=O)NC1CCCc2ccccc21)C(C)(C)C

> <Shape>
0.183

> <Color>
0.176

> <Negative vol penalty>
0.000

$$$$

  -OEChem-04052300263D

 83 91  0     1  0  0  0  0  0999 V2000
  -24.5811  -32.3325   26.3325 C   0  0  0  0  0  0  0  0  0  0  0  0
  -24.5318  -31.2018   25.5234 C   0  0  0  0  0  0  0  0  0  0  0  0
  -23.5846   -9.6604   19.9583 C   0  0  0  0  0  0  0  0  0  0  0  0
  -23.2037  -10.0817   22.3066 C   0  0  0  0  0  0  0  0  0  0  0  0
  -25.1938  -33.4952   25.8669 C   0  0  0  0  0  0  0  0  0  0  0  0
  -25.0941  -31.2336   24.2478 C   0  0  0  0  0  0  0  0  0  0  0  0
  -27.8426  -27.1030   23.2332 C   0  0  0  0  0  0  0  0  0  0  0  0
  -22.8231   -8.4949   20.0439 C   0  0  0  0  0  0  0  0  0  0  0  0
  -22.4422   -8.9162   22.3922 C   0  0  0  0  0  0  0  0  0  0  0  0
  -27.1475  -25.9442   22.8900 C   0  0  0  0  0  0  0  0  0  0  0  0
  -22.9970   -5.5888   22.6190 C   0  0  0  0  0  0  0  0  0  0  0  0
  -23.2254   -4.7437   23.7049 C   0  0  0  0  0  0  0  0  0  0  0  0
  -27.6032  -26.3682   20.5594 C   0  0  0  0  0  0  0  0  0  0  0  0
  -20.9276   -5.0158   24.3999 C   0  0  0  0  0  0  0  0  0  0  0  0
  -23.7749  -10.4538   21.0897 C   0  0  0  0  0  0  0  0  0  0  0  0
  -24.1031  -12.9527   20.6956 C   0  0  0  0  0  0  0  0  0  0  0  0
  -25.7725  -33.5382   24.5887 C   0  0  0  0  0  0  0  0  0  0  0  0
  -28.4148  -27.9103   22.2395 C   0  0  0  0  0  0  0  0  0  0  0  0
  -25.7139  -32.3983   23.7642 C   0  0  0  0  0  0  0  0  0  0  0  0
  -28.3072  -27.5354   20.8927 C   0  0  0  0  0  0  0  0  0  0  0  0
  -22.2519   -8.1228   21.2607 C   0  0  0  0  0  0  0  0  0  0  0  0
  -27.0252  -25.5781   21.5528 C   0  0  0  0  0  0  0  0  0  0  0  0
  -21.7339   -6.1475   22.4235 C   0  0  0  0  0  0  0  0  0  0  0  0
  -22.1907   -4.4572   24.5954 C   0  0  0  0  0  0  0  0  0  0  0  0
  -20.6992   -5.8609   23.3140 C   0  0  0  0  0  0  0  0  0  0  0  0
  -24.5619  -11.6576   21.0022 C   0  0  0  0  0  0  0  0  0  0  0  0
  -25.2308  -13.7357   20.7390 C   0  0  0  0  0  0  0  0  0  0  0  0
  -27.7674  -18.2155   18.3440 C   0  0  0  0  0  0  0  0  0  0  0  0
  -28.3921  -17.0950   17.9664 C   0  0  0  0  0  0  0  0  0  0  0  0
  -28.5371  -18.2343   20.6695 C   0  0  0  0  0  0  0  0  0  0  0  0
  -27.8325  -18.7839   19.6704 C   0  0  0  0  0  0  0  0  0  0  0  0
  -29.2374  -16.2874   18.8693 C   0  0  0  0  0  0  0  0  0  0  0  0
  -27.0466  -23.2766   21.1364 C   0  0  0  0  0  0  0  0  0  1  0  0
  -22.7762  -13.4074   20.3984 C   0  0  0  0  0  0  0  0  0  0  0  0
  -26.5559  -22.0680   20.8207 C   0  0  0  0  0  0  0  0  0  0  0  0
  -27.5059  -20.9089   20.7938 C   0  0  0  0  0  0  0  0  0  0  0  0
  -28.0019  -30.9103   21.2735 C   0  0  0  0  0  0  0  0  0  0  0  0
  -30.5492  -30.2399   19.3803 C   0  0  0  0  0  0  0  0  0  0  0  0
  -32.4342  -27.8829   17.7871 C   0  0  0  0  0  0  0  0  0  0  0  0
  -30.5972  -14.5098   19.3681 C   0  0  0  0  0  0  0  0  0  0  0  0
  -26.3819  -34.8324   24.1109 C   0  0  0  0  0  0  0  0  0  0  0  0
  -29.1843  -29.1430   22.6280 C   0  0  0  0  0  0  0  0  0  0  0  0
  -28.9206  -28.3569   19.7894 C   0  0  0  0  0  0  0  0  0  0  0  0
  -27.2843  -34.6668   22.8908 C   0  0  0  0  0  0  0  0  0  0  0  0
  -29.8822  -12.7372   22.4331 C   0  0  0  0  0  0  0  0  0  0  0  0
  -26.6061  -33.7935   21.8399 C   0  0  0  0  0  0  0  0  0  0  0  0
  -28.4048  -12.3736   22.2880 C   0  0  0  0  0  0  0  0  0  0  0  0
  -30.6012  -12.7037   21.0882 C   0  0  0  0  0  0  0  0  0  0  0  0
  -28.4851  -13.2055   19.8956 C   0  0  0  0  0  0  0  0  0  0  0  0
  -26.3345  -32.3859   22.3841 C   0  0  1  0  0  0  0  0  0  0  0  0
  -29.2864  -30.1640   21.4991 C   0  0  1  0  0  0  0  0  0  0  0  0
  -27.7202  -13.2562   21.2294 C   0  0  1  0  0  0  0  0  0  0  0  0
  -34.4299  -27.6421   16.2849 C   0  0  0  0  0  0  0  0  0  0  0  0
  -28.8729  -31.1731   17.0078 C   0  0  0  0  0  0  0  0  0  0  0  0
  -30.5139  -30.0419   15.4926 C   0  0  0  0  0  0  0  0  0  0  0  0
  -31.2594  -31.9191   16.9566 C   0  0  0  0  0  0  0  0  0  0  0  0
  -33.8974  -26.2752   19.7954 C   0  0  0  0  0  0  0  0  0  0  0  0
  -30.7303  -29.6743   17.9924 C   0  0  1  0  0  0  0  0  0  0  0  0
  -33.9357  -27.6686   17.7229 C   0  0  2  0  0  0  0  0  0  0  0  0
  -30.3308  -30.6874   16.8828 C   0  0  0  0  0  0  0  0  0  0  0  0
  -25.8784  -11.6159   21.2237 N   0  0  0  0  0  0  0  0  0  0  0  0
  -29.8220  -15.2127   18.4647 N   0  0  0  0  0  0  0  0  0  0  0  0
  -26.2565  -12.8946   21.0561 N   0  0  0  0  0  0  0  0  0  0  0  0
  -29.6577  -29.5566   20.2194 N   0  0  0  0  0  0  0  0  0  0  0  0
  -29.9048  -13.5249   20.0968 N   0  0  0  0  0  0  0  0  0  0  0  0
  -25.4351  -15.0546   20.5362 N   0  0  0  0  0  0  0  0  0  0  0  0
  -21.7337  -12.4707   20.3965 N   0  0  0  0  0  0  0  0  0  0  0  0
  -27.1312  -19.9350   19.8809 N   0  0  0  0  0  0  0  0  0  0  0  0
  -27.5499  -31.6001   22.3822 N   0  0  0  0  0  0  0  0  0  0  0  0
  -32.1138  -29.2179   17.9149 N   0  0  0  0  0  0  0  0  0  0  0  0
  -34.3028  -26.3773   18.3699 N   0  3  0  0  0  0  0  0  0  0  0  0
  -22.5252  -14.6059   20.1259 O   0  0  0  0  0  0  0  0  0  0  0  0
  -28.4978  -20.8620   21.5169 O   0  0  0  0  0  0  0  0  0  0  0  0
  -27.4618  -30.8649   20.1745 O   0  0  0  0  0  0  0  0  0  0  0  0
  -31.1812  -31.2466   19.7103 O   0  0  0  0  0  0  0  0  0  0  0  0
  -31.6263  -26.9588   17.7260 O   0  0  0  0  0  0  0  0  0  0  0  0
  -31.8020  -14.7098   19.5410 O   0  0  0  0  0  0  0  0  0  0  0  0
  -25.2342  -21.8214   20.5201 O   0  0  0  0  0  0  0  0  0  0  0  0
  -21.5086   -6.9857   21.3445 O   0  0  0  0  0  0  0  0  0  0  0  0
  -26.3468  -24.4479   21.2151 O   0  0  0  0  0  0  0  0  0  1  0  0
  -22.4097   -3.6444   25.6373 F   0  0  0  0  0  0  0  0  0  0  0  0
  -19.4833   -6.3938   23.1308 F   0  0  0  0  0  0  0  0  0  0  0  0
  -29.4622  -16.7844   20.5290 S   0  0  0  0  0  0  0  0  0  0  0  0
  1  2  1  0  0  0  0
  1  5  2  0  0  0  0
  2  6  2  0  0  0  0
  3  8  2  0  0  0  0
  3 15  1  0  0  0  0
  4  9  1  0  0  0  0
  4 15  2  0  0  0  0
  5 17  1  0  0  0  0
  6 19  1  0  0  0  0
  7 10  2  0  0  0  0
  7 18  1  0  0  0  0
  8 21  1  0  0  0  0
  9 21  2  0  0  0  0
 10 22  1  0  0  0  0
 11 12  2  0  0  0  0
 11 23  1  0  0  0  0
 12 24  1  0  0  0  0
 13 20  1  0  0  0  0
 13 22  2  0  0  0  0
 14 24  2  0  0  0  0
 14 25  1  0  0  0  0
 15 26  1  0  0  0  0
 16 26  1  0  0  0  0
 16 27  2  0  0  0  0
 16 34  1  0  0  0  0
 17 19  2  0  0  0  0
 17 41  1  0  0  0  0
 18 20  2  0  0  0  0
 18 42  1  0  0  0  0
 19 50  1  0  0  0  0
 20 43  1  0  0  0  0
 21 79  1  0  0  0  0
 22 80  1  0  0  0  0
 23 25  2  0  0  0  0
 23 79  1  0  0  0  0
 24 81  1  0  0  0  0
 25 82  1  0  0  0  0
 26 61  2  0  0  0  0
 27 63  1  0  0  0  0
 27 66  1  0  0  0  0
 28 29  2  0  0  0  0
 28 31  1  0  0  0  0
 29 32  1  0  0  0  0
 30 31  2  0  0  0  0
 30 83  1  0  0  0  0
 31 68  1  0  0  0  0
 32 62  2  0  0  0  0
 32 83  1  0  0  0  0
 33 35  2  0  0  0  0
 33 80  1  0  0  0  0
 34 67  1  0  0  0  0
 34 72  2  0  0  0  0
 35 36  1  0  0  0  0
 35 78  1  0  0  0  0
 36 68  1  0  0  0  0
 36 73  2  0  0  0  0
 37 51  1  0  0  0  0
 37 69  1  0  0  0  0
 37 74  2  0  0  0  0
 38 58  1  0  0  0  0
 38 64  1  0  0  0  0
 38 75  2  0  0  0  0
 39 59  1  0  0  0  0
 39 70  1  0  0  0  0
 39 76  2  0  0  0  0
 40 62  1  0  0  0  0
 40 65  1  0  0  0  0
 40 77  2  0  0  0  0
 41 44  1  0  0  0  0
 42 51  1  0  0  0  0
 43 64  1  0  0  0  0
 44 46  1  0  0  0  0
 45 47  1  0  0  0  0
 45 48  1  0  0  0  0
 46 50  1  0  0  0  0
 47 52  1  0  0  0  0
 48 65  1  0  0  0  0
 49 52  1  0  0  0  0
 49 65  1  0  0  0  0
 50 69  1  0  0  0  0
 51 64  1  0  0  0  0
 52 63  1  0  0  0  0
 53 59  1  0  0  0  0
 54 60  1  0  0  0  0
 55 60  1  0  0  0  0
 56 60  1  0  0  0  0
 57 71  1  0  0  0  0
 58 60  1  0  0  0  0
 58 70  1  0  0  0  0
 59 71  1  0  0  0  0
 61 63  1  0  0  0  0
M  CHG  1  71   1
M  ISO  4  33 101  40 100  62 100  80 101
M  END
> <Batch ID>
0089

> <Smiles>
CNC(C)C(=O)NC(C(=O)N1Cc2cc([101O:1][101CH2:1]C(=O)C(=O)Nc3ccc(=[100N:0][100C:0](=O)N4CCCC(n5nc(-c6ccc(Oc7ccc(F)cc7F)cc6)c(C(N)=O)c5N)C4)sc3)ccc2CC1C(=O)NC1CCCc2ccccc21)C(C)(C)C

> <Shape>
0.272

> <Color>
0.160

> <Negative vol penalty>
0.000

$$$$

  -OEChem-04052300263D

 88 97  0     1  0  0  0  0  0999 V2000
  -21.3165   -8.7157   18.7711 C   0  0  0  0  0  0  0  0  0  0  0  0
  -21.1337  -10.0788   18.5618 C   0  0  0  0  0  0  0  0  0  0  0  0
  -26.9401  -28.4251   22.0227 C   0  0  0  0  0  0  0  0  0  0  0  0
  -25.4519  -28.6045   20.1280 C   0  0  0  0  0  0  0  0  0  0  0  0
  -22.2616   -8.2741   19.6962 C   0  0  0  0  0  0  0  0  0  0  0  0
  -21.8952  -11.0013   19.2784 C   0  0  0  0  0  0  0  0  0  0  0  0
  -23.9547  -16.4137   17.2858 C   0  0  0  0  0  0  0  0  0  0  0  0
  -21.4912  -24.7325   22.3349 C   0  0  0  0  0  0  0  0  0  0  0  0
  -20.5772  -25.5271   23.0268 C   0  0  0  0  0  0  0  0  0  0  0  0
  -27.9109  -27.8462   21.2054 C   0  0  0  0  0  0  0  0  0  0  0  0
  -26.4227  -28.0256   19.3106 C   0  0  0  0  0  0  0  0  0  0  0  0
  -23.4821  -17.7151   17.4494 C   0  0  0  0  0  0  0  0  0  0  0  0
  -28.5421  -24.8135   19.8531 C   0  0  0  0  0  0  0  0  0  0  0  0
  -29.2077  -23.6872   20.3367 C   0  0  0  0  0  0  0  0  0  0  0  0
  -24.9964  -18.0257   19.3014 C   0  0  0  0  0  0  0  0  0  0  0  0
  -23.6950  -22.9713   18.8011 C   0  0  0  0  0  0  0  0  0  0  0  0
  -19.2341  -25.7225   21.0280 C   0  0  0  0  0  0  0  0  0  0  0  0
  -31.3127  -24.8621   20.1760 C   0  0  0  0  0  0  0  0  0  0  0  0
  -25.7106  -28.8042   21.4840 C   0  0  0  0  0  0  0  0  0  0  0  0
  -24.5290  -30.7720   22.5973 C   0  0  0  0  0  0  0  0  0  0  0  0
  -23.0418   -9.1915   20.4174 C   0  0  0  0  0  0  0  0  0  0  0  0
  -24.9456  -15.9040   18.1371 C   0  0  0  0  0  0  0  0  0  0  0  0
  -22.8507  -10.5717   20.2150 C   0  0  0  0  0  0  0  0  0  0  0  0
  -25.4817  -16.7184   19.1448 C   0  0  0  0  0  0  0  0  0  0  0  0
  -23.4630  -21.9102   19.7107 C   0  0  0  0  0  0  0  0  0  0  0  0
  -21.2767  -24.4330   20.9895 C   0  0  0  0  0  0  0  0  0  0  0  0
  -19.4486  -26.0221   22.3734 C   0  0  0  0  0  0  0  0  0  0  0  0
  -27.6523  -27.6465   19.8494 C   0  0  0  0  0  0  0  0  0  0  0  0
  -24.0009  -18.5204   18.4592 C   0  0  0  0  0  0  0  0  0  0  0  0
  -29.2618  -25.9641   19.5308 C   0  0  0  0  0  0  0  0  0  0  0  0
  -30.5930  -23.7115   20.4982 C   0  0  0  0  0  0  0  0  0  0  0  0
  -20.1482  -24.9279   20.3361 C   0  0  0  0  0  0  0  0  0  0  0  0
  -30.6470  -25.9884   19.6923 C   0  0  0  0  0  0  0  0  0  0  0  0
  -24.7071  -29.4018   22.3279 C   0  0  0  0  0  0  0  0  0  0  0  0
  -22.5316  -22.3491   20.6257 C   0  0  0  0  0  0  0  0  0  0  0  0
  -23.4510  -30.8175   23.4472 C   0  0  0  0  0  0  0  0  0  0  0  0
  -22.8984  -24.0263   19.1880 C   0  0  0  0  0  0  0  0  0  0  0  0
  -16.4772  -28.1207   23.1302 C   0  0  0  0  0  0  0  0  0  0  0  0
  -17.3645  -27.3597   22.4856 C   0  0  0  0  0  0  0  0  0  0  0  0
  -25.2715  -31.9026   22.1217 C   0  0  0  0  0  0  0  0  0  0  0  0
  -25.1004  -13.5029   20.2142 C   0  0  0  0  0  0  0  0  0  0  0  0
  -28.2266  -14.3540   20.3709 C   0  0  0  0  0  0  0  0  0  0  0  0
  -30.5937  -16.7775   19.9582 C   0  0  0  0  0  0  0  0  0  0  0  0
  -18.8196  -27.2681   24.4092 C   0  0  0  0  0  0  0  0  0  0  0  0
  -24.0177   -8.6676   21.4410 C   0  0  0  0  0  0  0  0  0  0  0  0
  -25.4637  -14.5071   17.9304 C   0  0  0  0  0  0  0  0  0  0  0  0
  -26.5611  -16.2255   20.0723 C   0  0  0  0  0  0  0  0  0  0  0  0
  -25.0470   -9.7029   21.8871 C   0  0  0  0  0  0  0  0  0  0  0  0
  -21.1865  -28.2528   26.7791 C   0  0  0  0  0  0  0  0  0  0  0  0
  -24.3667  -11.0321   22.1988 C   0  0  0  0  0  0  0  0  0  0  0  0
  -22.3475  -28.7875   25.9410 C   0  0  0  0  0  0  0  0  0  0  0  0
  -20.5784  -27.0092   26.1408 C   0  0  0  0  0  0  0  0  0  0  0  0
  -21.2683  -27.7527   23.8837 C   0  0  0  0  0  0  0  0  0  0  0  0
  -23.6749  -11.6028   20.9549 C   0  0  1  0  0  0  0  0  0  0  0  0
  -26.1092  -13.9181   19.1809 C   0  0  1  0  0  0  0  0  0  0  0  0
  -21.9154  -29.0179   24.4822 C   0  0  2  0  0  0  0  0  0  0  0  0
  -21.9386  -21.6418   21.7830 C   0  0  0  0  0  0  0  0  0  0  0  0
  -33.0577  -17.1863   20.2013 C   0  0  0  0  0  0  0  0  0  0  0  0
  -27.8942  -14.5425   23.3981 C   0  0  0  0  0  0  0  0  0  0  0  0
  -30.0342  -15.8392   23.4824 C   0  0  0  0  0  0  0  0  0  0  0  0
  -30.0343  -13.4886   22.6472 C   0  0  0  0  0  0  0  0  0  0  0  0
  -30.8975  -17.3711   17.0747 C   0  0  0  0  0  0  0  0  0  0  0  0
  -24.1170  -20.5603   19.6762 C   0  0  0  0  0  0  0  0  0  1  0  0
  -29.0325  -15.3136   21.2128 C   0  0  1  0  0  0  0  0  0  0  0  0
  -31.9416  -16.7606   19.2601 C   0  0  2  0  0  0  0  0  0  0  0  0
  -29.2271  -14.8049   22.6690 C   0  0  0  0  0  0  0  0  0  0  0  0
  -23.8140  -28.6324   22.9559 N   0  0  0  0  0  0  0  0  0  0  0  0
  -22.1958  -23.6368   20.2983 N   0  0  0  0  0  0  0  0  0  0  0  0
  -23.0643  -29.5222   23.6284 N   0  0  0  0  0  0  0  0  0  0  0  0
  -27.0303  -14.8504   19.8341 N   0  0  0  0  0  0  0  0  0  0  0  0
  -20.1856  -27.2674   24.7551 N   0  0  0  0  0  0  0  0  0  0  0  0
  -22.8057  -31.8387   24.0498 N   0  0  0  0  0  0  0  0  0  0  0  0
  -26.3494  -31.6773   21.2547 N   0  0  0  0  0  0  0  0  0  0  0  0
  -24.6468  -12.2058   20.0681 N   0  0  0  0  0  0  0  0  0  0  0  0
  -30.2780  -15.5447   20.4891 N   0  0  0  0  0  0  0  0  0  0  0  0
  -18.4991  -26.8461   23.0926 N   0  0  0  0  0  0  0  0  0  0  0  0
  -31.9321  -17.6871   18.0929 N   0  3  0  0  0  0  0  0  0  0  0  0
  -24.9977  -33.0765   22.4687 O   0  0  0  0  0  0  0  0  0  0  0  0
  -24.7599  -14.2997   21.0807 O   0  0  0  0  0  0  0  0  0  0  0  0
  -28.6468  -13.2084   20.1902 O   0  0  0  0  0  0  0  0  0  0  0  0
  -29.8928  -17.7846   20.0289 O   0  0  0  0  0  0  0  0  0  0  0  0
  -17.9432  -27.5992   25.2182 O   0  0  0  0  0  0  0  0  0  0  0  0
  -22.7567  -25.2367   18.6610 O   0  0  0  0  0  0  0  0  0  0  0  0
  -28.5994  -27.0818   19.0515 O   0  0  0  0  0  0  0  0  0  0  0  0
  -23.5409  -19.7908   18.6215 O   0  0  0  0  0  0  0  0  0  1  0  0
  -31.2318  -22.6303   20.9641 F   0  0  0  0  0  0  0  0  0  0  0  0
  -19.9306  -24.6498   19.0424 F   0  0  0  0  0  0  0  0  0  0  0  0
  -31.3437  -27.0913   19.3856 F   0  0  0  0  0  0  0  0  0  0  0  0
  1  2  1  0  0  0  0
  1  5  2  0  0  0  0
  2  6  2  0  0  0  0
  3 10  2  0  0  0  0
  3 19  1  0  0  0  0
  4 11  1  0  0  0  0
  4 19  2  0  0  0  0
  5 21  1  0  0  0  0
  6 23  1  0  0  0  0
  7 12  2  0  0  0  0
  7 22  1  0  0  0  0
  8  9  2  0  0  0  0
  8 26  1  0  0  0  0
  9 27  1  0  0  0  0
 10 28  1  0  0  0  0
 11 28  2  0  0  0  0
 12 29  1  0  0  0  0
 13 14  2  0  0  0  0
 13 30  1  0  0  0  0
 14 31  1  0  0  0  0
 15 24  1  0  0  0  0
 15 29  2  0  0  0  0
 16 25  1  0  0  0  0
 16 37  2  0  0  0  0
 17 27  2  0  0  0  0
 17 32  1  0  0  0  0
 18 31  2  0  0  0  0
 18 33  1  0  0  0  0
 19 34  1  0  0  0  0
 20 34  1  0  0  0  0
 20 36  2  0  0  0  0
 20 40  1  0  0  0  0
 21 23  2  0  0  0  0
 21 45  1  0  0  0  0
 22 24  2  0  0  0  0
 22 46  1  0  0  0  0
 23 54  1  0  0  0  0
 24 47  1  0  0  0  0
 25 35  2  0  0  0  0
 25 63  1  0  0  0  0
 26 32  2  0  0  0  0
 26 68  1  0  0  0  0
 27 76  1  0  0  0  0
 28 84  1  0  0  0  0
 29 85  1  0  0  0  0
 30 33  2  0  0  0  0
 30 84  1  0  0  0  0
 31 86  1  0  0  0  0
 32 87  1  0  0  0  0
 33 88  1  0  0  0  0
 34 67  2  0  0  0  0
 35 57  1  0  0  0  0
 35 68  1  0  0  0  0
 36 69  1  0  0  0  0
 36 72  1  0  0  0  0
 37 68  1  0  0  0  0
 37 83  1  0  0  0  0
 38 39  2  0  0  0  0
 39 76  1  0  0  0  0
 40 73  1  0  0  0  0
 40 78  2  0  0  0  0
 41 55  1  0  0  0  0
 41 74  1  0  0  0  0
 41 79  2  0  0  0  0
 42 64  1  0  0  0  0
 42 70  1  0  0  0  0
 42 80  2  0  0  0  0
 43 65  1  0  0  0  0
 43 75  1  0  0  0  0
 43 81  2  0  0  0  0
 44 71  1  0  0  0  0
 44 76  1  0  0  0  0
 44 82  2  0  0  0  0
 45 48  1  0  0  0  0
 46 55  1  0  0  0  0
 47 70  1  0  0  0  0
 48 50  1  0  0  0  0
 49 51  1  0  0  0  0
 49 52  1  0  0  0  0
 50 54  1  0  0  0  0
 51 56  1  0  0  0  0
 52 71  1  0  0  0  0
 53 56  1  0  0  0  0
 53 71  1  0  0  0  0
 54 74  1  0  0  0  0
 55 70  1  0  0  0  0
 56 69  1  0  0  0  0
 58 65  1  0  0  0  0
 59 66  1  0  0  0  0
 60 66  1  0  0  0  0
 61 66  1  0  0  0  0
 62 77  1  0  0  0  0
 63 85  1  0  0  0  0
 64 66  1  0  0  0  0
 64 75  1  0  0  0  0
 65 77  1  0  0  0  0
 67 69  1  0  0  0  0
M  CHG  1  77   1
M  ISO  4  44 100  63 101  76 100  85 101
M  END
> <Batch ID>
0089

> <Smiles>
C=C[100N:0](c1ccc(N2C(=O)CC([101CH2:1][101O:1]c3ccc4c(c3)CN(C(=O)C(NC(=O)C(C)NC)C(C)(C)C)C(C(=O)NC3CCCc5ccccc53)C4)=C2C)c(F)c1)[100C:0](=O)N1CCCC(n2nc(-c3ccc(Oc4ccc(F)cc4F)cc3)c(C(N)=O)c2N)C1

> <Shape>
0.261

> <Color>
0.065

> <Negative vol penalty>
0.000

$$$$

  -OEChem-04052300263D

 85 93  0     1  0  0  0  0  0999 V2000
  -30.1076  -32.6785   25.8615 C   0  0  0  0  0  0  0  0  0  0  0  0
  -29.4436  -31.7289   25.0915 C   0  0  0  0  0  0  0  0  0  0  0  0
  -24.6179   -8.7298   20.7449 C   0  0  0  0  0  0  0  0  0  0  0  0
  -22.8539  -10.3553   20.4567 C   0  0  0  0  0  0  0  0  0  0  0  0
  -27.1237  -21.0958   17.8960 C   0  0  0  0  0  0  0  0  0  0  0  0
  -29.3802  -33.6493   26.5488 C   0  0  0  0  0  0  0  0  0  0  0  0
  -28.0518  -31.7489   25.0093 C   0  0  0  0  0  0  0  0  0  0  0  0
  -26.3765  -31.1220   20.2716 C   0  0  0  0  0  0  0  0  0  0  0  0
  -23.6758   -7.7753   21.1282 C   0  0  0  0  0  0  0  0  0  0  0  0
  -21.9117   -9.4007   20.8399 C   0  0  0  0  0  0  0  0  0  0  0  0
  -26.3808  -29.8246   19.7612 C   0  0  0  0  0  0  0  0  0  0  0  0
  -21.8989   -7.0018   23.8974 C   0  0  0  0  0  0  0  0  0  0  0  0
  -26.9538  -19.9148   17.1736 C   0  0  0  0  0  0  0  0  0  0  0  0
  -22.1893   -6.2174   25.0136 C   0  0  0  0  0  0  0  0  0  0  0  0
  -27.6859  -19.8115   19.8636 C   0  0  0  0  0  0  0  0  0  0  0  0
  -24.0209  -29.6404   20.2262 C   0  0  0  0  0  0  0  0  0  0  0  0
  -22.0630   -4.2280   23.6485 C   0  0  0  0  0  0  0  0  0  0  0  0
  -24.2070  -10.0198   20.4092 C   0  0  0  0  0  0  0  0  0  0  0  0
  -27.4898  -21.0442   19.2410 C   0  0  0  0  0  0  0  0  0  0  0  0
  -25.6384  -11.2731   18.7099 C   0  0  0  0  0  0  0  0  0  0  0  0
  -27.9793  -33.6872   26.4671 C   0  0  0  0  0  0  0  0  0  0  0  0
  -25.1947  -31.6853   20.7740 C   0  0  0  0  0  0  0  0  0  0  0  0
  -27.3049  -32.7204   25.6972 C   0  0  0  0  0  0  0  0  0  0  0  0
  -24.0038  -30.9460   20.7401 C   0  0  0  0  0  0  0  0  0  0  0  0
  -27.5159  -18.6304   19.1412 C   0  0  0  0  0  0  0  0  0  0  0  0
  -22.3227   -8.1107   21.1756 C   0  0  0  0  0  0  0  0  0  0  0  0
  -25.2035  -29.0825   19.7411 C   0  0  0  0  0  0  0  0  0  0  0  0
  -21.6905   -6.3993   22.6567 C   0  0  0  0  0  0  0  0  0  0  0  0
  -22.2714   -4.8305   24.8892 C   0  0  0  0  0  0  0  0  0  0  0  0
  -27.1498  -18.6821   17.7962 C   0  0  0  0  0  0  0  0  0  0  0  0
  -21.7726   -5.0124   22.5323 C   0  0  0  0  0  0  0  0  0  0  0  0
  -25.1798  -11.0064   20.0138 C   0  0  0  0  0  0  0  0  0  0  0  0
  -26.5484  -12.2898   18.8672 C   0  0  0  0  0  0  0  0  0  0  0  0
  -26.0870  -25.6231   19.4302 C   0  0  0  0  0  0  0  0  0  0  0  0
  -26.0139  -26.8908   19.8424 C   0  0  0  0  0  0  0  0  0  1  0  0
  -27.6709  -22.3020   20.0097 C   0  0  0  0  0  0  0  0  0  0  0  0
  -25.2743  -10.6570   17.4675 C   0  0  0  0  0  0  0  0  0  0  0  0
  -26.9899  -24.6675   20.1273 C   0  0  0  0  0  0  0  0  0  0  0  0
  -24.2557  -32.7691   23.6108 C   0  0  0  0  0  0  0  0  0  0  0  0
  -21.6177  -33.6768   21.9557 C   0  0  0  0  0  0  0  0  0  0  0  0
  -19.6037  -33.2225   19.2383 C   0  0  0  0  0  0  0  0  0  0  0  0
  -28.0792  -17.1540   21.1031 C   0  0  0  0  0  0  0  0  0  0  0  0
  -27.2334  -34.7267   27.2657 C   0  0  0  0  0  0  0  0  0  0  0  0
  -25.2011  -33.0957   21.2966 C   0  0  0  0  0  0  0  0  0  0  0  0
  -22.7041  -31.5123   21.2488 C   0  0  0  0  0  0  0  0  0  0  0  0
  -25.7831  -34.9080   26.8255 C   0  0  0  0  0  0  0  0  0  0  0  0
  -28.6320  -14.2271   23.0537 C   0  0  0  0  0  0  0  0  0  0  0  0
  -25.1046  -33.5529   26.6517 C   0  0  0  0  0  0  0  0  0  0  0  0
  -27.8209  -13.1502   22.3295 C   0  0  0  0  0  0  0  0  0  0  0  0
  -27.9293  -15.5832   23.0228 C   0  0  0  0  0  0  0  0  0  0  0  0
  -26.7253  -14.9716   20.9623 C   0  0  0  0  0  0  0  0  0  0  0  0
  -25.7976  -32.7245   25.5631 C   0  0  1  0  0  0  0  0  0  0  0  0
  -24.0495  -33.3831   22.2550 C   0  0  1  0  0  0  0  0  0  0  0  0
  -27.4234  -13.6028   20.9108 C   0  0  2  0  0  0  0  0  0  0  0  0
  -17.5013  -34.0897   18.1775 C   0  0  0  0  0  0  0  0  0  0  0  0
  -19.9555  -32.1667   24.0213 C   0  0  0  0  0  0  0  0  0  0  0  0
  -18.0250  -32.2547   22.4296 C   0  0  0  0  0  0  0  0  0  0  0  0
  -19.0004  -34.3698   23.3225 C   0  0  0  0  0  0  0  0  0  0  0  0
  -21.0463  -34.0670   16.7961 C   0  0  0  0  0  0  0  0  0  0  0  0
  -20.2964  -33.0321   21.6128 C   0  0  1  0  0  0  0  0  0  0  0  0
  -19.0160  -34.2077   18.2441 C   0  0  2  0  0  0  0  0  0  0  0  0
  -19.3440  -32.9442   22.8387 C   0  0  0  0  0  0  0  0  0  0  0  0
  -25.7514  -11.7903   20.9319 N   0  0  0  0  0  0  0  0  0  0  0  0
  -26.5786  -12.5595   20.2038 N   0  0  0  0  0  0  0  0  0  0  0  0
  -22.7630  -32.8932   21.7557 N   0  0  0  0  0  0  0  0  0  0  0  0
  -27.5869  -15.9485   21.6465 N   0  0  0  0  0  0  0  0  0  0  0  0
  -27.3177  -12.9704   17.9912 N   0  0  0  0  0  0  0  0  0  0  0  0
  -24.3235   -9.6274   17.4856 N   0  0  0  0  0  0  0  0  0  0  0  0
  -27.7150  -17.3794   19.7761 N   0  0  0  0  0  0  0  0  0  0  0  0
  -26.9333  -23.3962   19.5594 N   0  0  0  0  0  0  0  0  0  0  0  0
  -25.4071  -33.1889   24.2492 N   0  0  0  0  0  0  0  0  0  0  0  0
  -19.7541  -33.7860   20.4877 N   0  0  0  0  0  0  0  0  0  0  0  0
  -19.5671  -33.9598   16.8818 N   0  3  0  0  0  0  0  0  0  0  0  0
  -28.4564  -22.3171   20.9536 O   0  0  0  0  0  0  0  0  0  0  0  0
  -25.7892  -10.9980   16.3756 O   0  0  0  0  0  0  0  0  0  0  0  0
  -27.6830  -24.9969   21.0844 O   0  0  0  0  0  0  0  0  0  0  0  0
  -23.4306  -31.9746   24.0461 O   0  0  0  0  0  0  0  0  0  0  0  0
  -21.6335  -34.8355   22.3786 O   0  0  0  0  0  0  0  0  0  0  0  0
  -19.8964  -32.0673   18.9376 O   0  0  0  0  0  0  0  0  0  0  0  0
  -28.7954  -17.9161   21.7576 O   0  0  0  0  0  0  0  0  0  0  0  0
  -21.4031   -7.1795   21.5493 O   0  0  0  0  0  0  0  0  0  0  0  0
  -25.2050  -27.8157   19.2441 O   0  0  0  0  0  0  0  0  0  1  0  0
  -22.5517   -4.0775   25.9609 F   0  0  0  0  0  0  0  0  0  0  0  0
  -26.9840  -17.5535   17.0921 F   0  0  0  0  0  0  0  0  0  0  0  0
  -21.5745   -4.4280   21.3427 F   0  0  0  0  0  0  0  0  0  0  0  0
  1  2  1  0  0  0  0
  1  6  2  0  0  0  0
  2  7  2  0  0  0  0
  3  9  2  0  0  0  0
  3 18  1  0  0  0  0
  4 10  1  0  0  0  0
  4 18  2  0  0  0  0
  5 13  2  0  0  0  0
  5 19  1  0  0  0  0
  6 21  1  0  0  0  0
  7 23  1  0  0  0  0
  8 11  2  0  0  0  0
  8 22  1  0  0  0  0
  9 26  1  0  0  0  0
 10 26  2  0  0  0  0
 11 27  1  0  0  0  0
 12 14  2  0  0  0  0
 12 28  1  0  0  0  0
 13 30  1  0  0  0  0
 14 29  1  0  0  0  0
 15 19  2  0  0  0  0
 15 25  1  0  0  0  0
 16 24  1  0  0  0  0
 16 27  2  0  0  0  0
 17 29  2  0  0  0  0
 17 31  1  0  0  0  0
 18 32  1  0  0  0  0
 19 36  1  0  0  0  0
 20 32  1  0  0  0  0
 20 33  2  0  0  0  0
 20 37  1  0  0  0  0
 21 23  2  0  0  0  0
 21 43  1  0  0  0  0
 22 24  2  0  0  0  0
 22 44  1  0  0  0  0
 23 52  1  0  0  0  0
 24 45  1  0  0  0  0
 25 30  2  0  0  0  0
 25 69  1  0  0  0  0
 26 81  1  0  0  0  0
 27 82  1  0  0  0  0
 28 31  2  0  0  0  0
 28 81  1  0  0  0  0
 29 83  1  0  0  0  0
 30 84  1  0  0  0  0
 31 85  1  0  0  0  0
 32 63  2  0  0  0  0
 33 64  1  0  0  0  0
 33 67  1  0  0  0  0
 34 35  2  0  0  0  0
 34 38  1  0  0  0  0
 35 82  1  0  0  0  0
 36 70  1  0  0  0  0
 36 74  2  0  0  0  0
 37 68  1  0  0  0  0
 37 75  2  0  0  0  0
 38 70  1  0  0  0  0
 38 76  2  0  0  0  0
 39 53  1  0  0  0  0
 39 71  1  0  0  0  0
 39 77  2  0  0  0  0
 40 60  1  0  0  0  0
 40 65  1  0  0  0  0
 40 78  2  0  0  0  0
 41 61  1  0  0  0  0
 41 72  1  0  0  0  0
 41 79  2  0  0  0  0
 42 66  1  0  0  0  0
 42 69  1  0  0  0  0
 42 80  2  0  0  0  0
 43 46  1  0  0  0  0
 44 53  1  0  0  0  0
 45 65  1  0  0  0  0
 46 48  1  0  0  0  0
 47 49  1  0  0  0  0
 47 50  1  0  0  0  0
 48 52  1  0  0  0  0
 49 54  1  0  0  0  0
 50 66  1  0  0  0  0
 51 54  1  0  0  0  0
 51 66  1  0  0  0  0
 52 71  1  0  0  0  0
 53 65  1  0  0  0  0
 54 64  1  0  0  0  0
 55 61  1  0  0  0  0
 56 62  1  0  0  0  0
 57 62  1  0  0  0  0
 58 62  1  0  0  0  0
 59 73  1  0  0  0  0
 60 62  1  0  0  0  0
 60 72  1  0  0  0  0
 61 73  1  0  0  0  0
 63 64  1  0  0  0  0
M  CHG  1  73   1
M  ISO  4  35 101  42 100  69 100  82 101
M  END
> <Batch ID>
0089

> <Smiles>
CNC(C)C(=O)NC(C(=O)N1Cc2cc([101O:1][101CH:1]=CC(=O)NC(=O)c3ccc(F)c([100NH:0][100C:0](=O)N4CCCC(n5nc(-c6ccc(Oc7ccc(F)cc7F)cc6)c(C(N)=O)c5N)C4)c3)ccc2CC1C(=O)NC1CCCc2ccccc21)C(C)(C)C

> <Shape>
0.256

> <Color>
0.104

> <Negative vol penalty>
0.000

$$$$

  -OEChem-04052300263D

 85 93  0     1  0  0  0  0  0999 V2000
  -16.3903  -28.2498   24.0108 C   0  0  0  0  0  0  0  0  0  0  0  0
  -17.4888  -27.8561   24.7682 C   0  0  0  0  0  0  0  0  0  0  0  0
  -26.7134  -13.2800   21.9271 C   0  0  0  0  0  0  0  0  0  0  0  0
  -26.1937  -14.8137   20.1341 C   0  0  0  0  0  0  0  0  0  0  0  0
  -16.5810  -28.8287   22.7568 C   0  0  0  0  0  0  0  0  0  0  0  0
  -18.7787  -28.0402   24.2717 C   0  0  0  0  0  0  0  0  0  0  0  0
  -25.4493  -29.4739   26.4543 C   0  0  0  0  0  0  0  0  0  0  0  0
  -25.3994  -12.8124   21.9080 C   0  0  0  0  0  0  0  0  0  0  0  0
  -24.8796  -14.3461   20.1150 C   0  0  0  0  0  0  0  0  0  0  0  0
  -26.7493  -28.9835   26.3385 C   0  0  0  0  0  0  0  0  0  0  0  0
  -22.2758  -10.9613   22.0872 C   0  0  0  0  0  0  0  0  0  0  0  0
  -22.0775   -9.5818   22.1428 C   0  0  0  0  0  0  0  0  0  0  0  0
  -26.9604  -30.0665   24.1934 C   0  0  0  0  0  0  0  0  0  0  0  0
  -28.9566  -23.5437   19.4057 C   0  0  0  0  0  0  0  0  0  0  0  0
  -30.0371  -23.2738   21.9635 C   0  0  0  0  0  0  0  0  0  0  0  0
  -23.3348   -9.3186   20.0966 C   0  0  0  0  0  0  0  0  0  0  0  0
  -27.1105  -14.2807   21.0401 C   0  0  0  0  0  0  0  0  0  0  0  0
  -29.5576  -14.2687   20.3195 C   0  0  0  0  0  0  0  0  0  0  0  0
  -17.8743  -29.0288   22.2488 C   0  0  0  0  0  0  0  0  0  0  0  0
  -24.8903  -30.2566   25.4338 C   0  0  0  0  0  0  0  0  0  0  0  0
  -18.9869  -28.6211   23.0092 C   0  0  0  0  0  0  0  0  0  0  0  0
  -25.6540  -30.5678   24.2998 C   0  0  0  0  0  0  0  0  0  0  0  0
  -29.0404  -24.6524   20.2479 C   0  0  0  0  0  0  0  0  0  0  0  0
  -29.4129  -22.3000   19.8424 C   0  0  0  0  0  0  0  0  0  0  0  0
  -29.5807  -24.5175   21.5267 C   0  0  0  0  0  0  0  0  0  0  0  0
  -29.9532  -22.1651   21.1213 C   0  0  0  0  0  0  0  0  0  0  0  0
  -24.4825  -13.3455   21.0020 C   0  0  0  0  0  0  0  0  0  0  0  0
  -27.5040  -29.2774   25.2066 C   0  0  0  0  0  0  0  0  0  0  0  0
  -23.0036  -11.5196   21.0363 C   0  0  0  0  0  0  0  0  0  0  0  0
  -22.6070   -8.7604   21.1475 C   0  0  0  0  0  0  0  0  0  0  0  0
  -23.5331  -10.6982   20.0410 C   0  0  0  0  0  0  0  0  0  0  0  0
  -28.4676  -14.7645   21.0597 C   0  0  0  0  0  0  0  0  0  0  0  0
  -30.6147  -15.0629   20.6913 C   0  0  0  0  0  0  0  0  0  0  0  0
  -28.9499  -27.5815   24.4965 C   0  0  0  0  0  0  0  0  0  1  0  0
  -29.6098  -13.1871   19.3798 C   0  0  0  0  0  0  0  0  0  0  0  0
  -30.1454  -27.0019   24.3225 C   0  0  0  0  0  0  0  0  0  0  0  0
  -30.2049  -25.6484   23.6821 C   0  0  0  0  0  0  0  0  0  0  0  0
  -22.4022  -29.9505   23.4795 C   0  0  0  0  0  0  0  0  0  0  0  0
  -23.2017  -32.9743   22.6195 C   0  0  0  0  0  0  0  0  0  0  0  0
  -25.6067  -35.3864   22.4085 C   0  0  0  0  0  0  0  0  0  0  0  0
  -30.9837  -20.6295   22.8319 C   0  0  0  0  0  0  0  0  0  0  0  0
  -18.0290  -29.6153   20.8679 C   0  0  0  0  0  0  0  0  0  0  0  0
  -23.4962  -30.8002   25.5860 C   0  0  0  0  0  0  0  0  0  0  0  0
  -25.1074  -31.4207   23.1852 C   0  0  0  0  0  0  0  0  0  0  0  0
  -19.4401  -30.1182   20.5744 C   0  0  0  0  0  0  0  0  0  0  0  0
  -32.2279  -17.6695   24.3707 C   0  0  0  0  0  0  0  0  0  0  0  0
  -20.4757  -29.0845   21.0055 C   0  0  0  0  0  0  0  0  0  0  0  0
  -31.5086  -16.5433   23.6248 C   0  0  0  0  0  0  0  0  0  0  0  0
  -31.3248  -18.8856   24.5690 C   0  0  0  0  0  0  0  0  0  0  0  0
  -29.9786  -18.2734   22.5987 C   0  0  0  0  0  0  0  0  0  0  0  0
  -20.4025  -28.8268   22.5154 C   0  0  1  0  0  0  0  0  0  0  0  0
  -22.8462  -31.1595   24.2534 C   0  0  1  0  0  0  0  0  0  0  0  0
  -30.8686  -17.0517   22.3180 C   0  0  2  0  0  0  0  0  0  0  0  0
  -31.4504  -27.5776   24.7774 C   0  0  0  0  0  0  0  0  0  0  0  0
  -25.9701  -37.7427   21.6255 C   0  0  0  0  0  0  0  0  0  0  0  0
  -23.2677  -32.0008   19.7284 C   0  0  0  0  0  0  0  0  0  0  0  0
  -24.5293  -34.0791   19.1307 C   0  0  0  0  0  0  0  0  0  0  0  0
  -22.2161  -34.2471   20.0491 C   0  0  0  0  0  0  0  0  0  0  0  0
  -26.3164  -36.3047   25.1310 C   0  0  0  0  0  0  0  0  0  0  0  0
  -24.1137  -33.5853   21.5831 C   0  0  1  0  0  0  0  0  0  0  0  0
  -25.6000  -36.8526   22.8017 C   0  0  2  0  0  0  0  0  0  0  0  0
  -23.5416  -33.4604   20.1428 C   0  0  0  0  0  0  0  0  0  0  0  0
  -28.8015  -15.7938   21.8427 N   0  0  0  0  0  0  0  0  0  0  0  0
  -30.1133  -15.9512   21.5966 N   0  0  0  0  0  0  0  0  0  0  0  0
  -23.7371  -31.9234   23.3777 N   0  0  0  0  0  0  0  0  0  0  0  0
  -30.7578  -19.3137   23.2884 N   0  0  0  0  0  0  0  0  0  0  0  0
  -28.5721  -25.9027   19.7852 N   0  0  0  0  0  0  0  0  0  0  0  0
  -29.3184  -21.1902   18.9728 N   0  0  0  0  0  0  0  0  0  0  0  0
  -31.9150  -15.0810   20.3289 N   0  0  0  0  0  0  0  0  0  0  0  0
  -28.4319  -12.4757   19.1137 N   0  0  0  0  0  0  0  0  0  0  0  0
  -29.6761  -25.6289   22.3994 N   0  0  0  0  0  0  0  0  0  0  0  0
  -30.4233  -20.9120   21.5867 N   0  0  0  0  0  0  0  0  0  0  0  0
  -21.0416  -29.9022   23.2432 N   0  0  0  0  0  0  0  0  0  0  0  0
  -24.3574  -34.9581   22.0123 N   0  0  0  0  0  0  0  0  0  0  0  0
  -26.5748  -37.0983   23.9019 N   0  3  0  0  0  0  0  0  0  0  0  0
  -30.6732  -12.8506   18.8057 O   0  0  0  0  0  0  0  0  0  0  0  0
  -30.7381  -24.7249   24.2892 O   0  0  0  0  0  0  0  0  0  0  0  0
  -23.2328  -29.1234   23.1220 O   0  0  0  0  0  0  0  0  0  0  0  0
  -22.0589  -33.4179   22.7562 O   0  0  0  0  0  0  0  0  0  0  0  0
  -26.6198  -34.6915   22.4453 O   0  0  0  0  0  0  0  0  0  0  0  0
  -31.6501  -21.4372   23.4842 O   0  0  0  0  0  0  0  0  0  0  0  0
  -23.2003  -12.8893   20.9829 O   0  0  0  0  0  0  0  0  0  0  0  0
  -28.7728  -28.7994   25.0908 O   0  0  0  0  0  0  0  0  0  1  0  0
  -22.4178   -7.4355   21.2019 F   0  0  0  0  0  0  0  0  0  0  0  0
  -24.2341  -11.2286   19.0295 F   0  0  0  0  0  0  0  0  0  0  0  0
  1  2  1  0  0  0  0
  1  5  2  0  0  0  0
  2  6  2  0  0  0  0
  3  8  2  0  0  0  0
  3 17  1  0  0  0  0
  4  9  1  0  0  0  0
  4 17  2  0  0  0  0
  5 19  1  0  0  0  0
  6 21  1  0  0  0  0
  7 10  2  0  0  0  0
  7 20  1  0  0  0  0
  8 27  1  0  0  0  0
  9 27  2  0  0  0  0
 10 28  1  0  0  0  0
 11 12  2  0  0  0  0
 11 29  1  0  0  0  0
 12 30  1  0  0  0  0
 13 22  1  0  0  0  0
 13 28  2  0  0  0  0
 14 23  1  0  0  0  0
 14 24  2  0  0  0  0
 15 25  1  0  0  0  0
 15 26  2  0  0  0  0
 16 30  2  0  0  0  0
 16 31  1  0  0  0  0
 17 32  1  0  0  0  0
 18 32  1  0  0  0  0
 18 33  2  0  0  0  0
 18 35  1  0  0  0  0
 19 21  2  0  0  0  0
 19 42  1  0  0  0  0
 20 22  2  0  0  0  0
 20 43  1  0  0  0  0
 21 51  1  0  0  0  0
 22 44  1  0  0  0  0
 23 25  2  0  0  0  0
 23 67  1  0  0  0  0
 24 26  1  0  0  0  0
 24 68  1  0  0  0  0
 25 71  1  0  0  0  0
 26 72  1  0  0  0  0
 27 82  1  0  0  0  0
 28 83  1  0  0  0  0
 29 31  2  0  0  0  0
 29 82  1  0  0  0  0
 30 84  1  0  0  0  0
 31 85  1  0  0  0  0
 32 63  2  0  0  0  0
 33 64  1  0  0  0  0
 33 69  1  0  0  0  0
 34 36  2  0  0  0  0
 34 83  1  0  0  0  0
 35 70  1  0  0  0  0
 35 76  2  0  0  0  0
 36 37  1  0  0  0  0
 36 54  1  0  0  0  0
 37 71  1  0  0  0  0
 37 77  2  0  0  0  0
 38 52  1  0  0  0  0
 38 73  1  0  0  0  0
 38 78  2  0  0  0  0
 39 60  1  0  0  0  0
 39 65  1  0  0  0  0
 39 79  2  0  0  0  0
 40 61  1  0  0  0  0
 40 74  1  0  0  0  0
 40 80  2  0  0  0  0
 41 66  1  0  0  0  0
 41 72  1  0  0  0  0
 41 81  2  0  0  0  0
 42 45  1  0  0  0  0
 43 52  1  0  0  0  0
 44 65  1  0  0  0  0
 45 47  1  0  0  0  0
 46 48  1  0  0  0  0
 46 49  1  0  0  0  0
 47 51  1  0  0  0  0
 48 53  1  0  0  0  0
 49 66  1  0  0  0  0
 50 53  1  0  0  0  0
 50 66  1  0  0  0  0
 51 73  1  0  0  0  0
 52 65  1  0  0  0  0
 53 64  1  0  0  0  0
 55 61  1  0  0  0  0
 56 62  1  0  0  0  0
 57 62  1  0  0  0  0
 58 62  1  0  0  0  0
 59 75  1  0  0  0  0
 60 62  1  0  0  0  0
 60 74  1  0  0  0  0
 61 75  1  0  0  0  0
 63 64  1  0  0  0  0
M  CHG  1  75   1
M  ISO  4  34 101  41 100  72 100  83 101
M  END
> <Batch ID>
0089

> <Smiles>
CNC(C)C(=O)NC(C(=O)N1Cc2cc([101O:1][101CH:1]=C(C)C(=O)Nc3cc([100NH:0][100C:0](=O)N4CCCC(n5nc(-c6ccc(Oc7ccc(F)cc7F)cc6)c(C(N)=O)c5N)C4)c(N)cc3N)ccc2CC1C(=O)NC1CCCc2ccccc21)C(C)(C)C

> <Shape>
0.299

> <Color>
0.119

> <Negative vol penalty>
0.000

$$$$

  -OEChem-04052300263D

 85 93  0     1  0  0  0  0  0999 V2000
  -23.3089  -36.4458   22.4645 C   0  0  0  0  0  0  0  0  0  0  0  0
  -24.2909  -35.5279   22.1060 C   0  0  0  0  0  0  0  0  0  0  0  0
  -25.0704   -8.7498   21.5177 C   0  0  0  0  0  0  0  0  0  0  0  0
  -23.5415  -10.5961   21.2164 C   0  0  0  0  0  0  0  0  0  0  0  0
  -22.2189  -36.0351   23.2308 C   0  0  0  0  0  0  0  0  0  0  0  0
  -24.1840  -34.1990   22.5144 C   0  0  0  0  0  0  0  0  0  0  0  0
  -25.9612  -29.2354   19.3983 C   0  0  0  0  0  0  0  0  0  0  0  0
  -23.9956   -7.8608   21.5240 C   0  0  0  0  0  0  0  0  0  0  0  0
  -22.4667   -9.7071   21.2227 C   0  0  0  0  0  0  0  0  0  0  0  0
  -27.1069  -28.4441   19.4688 C   0  0  0  0  0  0  0  0  0  0  0  0
  -21.6236   -6.8366   23.7034 C   0  0  0  0  0  0  0  0  0  0  0  0
  -21.6108   -5.8435   24.6827 C   0  0  0  0  0  0  0  0  0  0  0  0
  -25.9436  -26.8989   20.9105 C   0  0  0  0  0  0  0  0  0  0  0  0
  -29.1332  -19.3808   23.3808 C   0  0  0  0  0  0  0  0  0  0  0  0
  -28.9896  -20.0297   20.6714 C   0  0  0  0  0  0  0  0  0  0  0  0
  -21.6131   -4.1471   22.9624 C   0  0  0  0  0  0  0  0  0  0  0  0
  -24.8433  -10.1175   21.3639 C   0  0  0  0  0  0  0  0  0  0  0  0
  -26.6937  -11.4676   20.2409 C   0  0  0  0  0  0  0  0  0  0  0  0
  -22.0936  -34.6984   23.6407 C   0  0  0  0  0  0  0  0  0  0  0  0
  -24.7996  -28.8695   20.0933 C   0  0  0  0  0  0  0  0  0  0  0  0
  -23.0919  -33.7703   23.2880 C   0  0  0  0  0  0  0  0  0  0  0  0
  -24.7837  -27.6860   20.8451 C   0  0  0  0  0  0  0  0  0  0  0  0
  -29.1710  -20.7164   22.9806 C   0  0  0  0  0  0  0  0  0  0  0  0
  -29.0236  -18.3695   22.4262 C   0  0  0  0  0  0  0  0  0  0  0  0
  -29.0992  -21.0409   21.6259 C   0  0  0  0  0  0  0  0  0  0  0  0
  -22.6937   -8.3394   21.3765 C   0  0  0  0  0  0  0  0  0  0  0  0
  -27.0991  -27.2771   20.2273 C   0  0  0  0  0  0  0  0  0  0  0  0
  -21.6311   -6.4850   22.3535 C   0  0  0  0  0  0  0  0  0  0  0  0
  -21.6056   -4.4987   24.3122 C   0  0  0  0  0  0  0  0  0  0  0  0
  -28.9517  -18.6940   21.0715 C   0  0  0  0  0  0  0  0  0  0  0  0
  -21.6259   -5.1403   21.9831 C   0  0  0  0  0  0  0  0  0  0  0  0
  -25.9531  -11.0363   21.3579 C   0  0  0  0  0  0  0  0  0  0  0  0
  -27.6293  -12.3283   20.7608 C   0  0  0  0  0  0  0  0  0  0  0  0
  -26.5487  -11.1212   18.8572 C   0  0  0  0  0  0  0  0  0  0  0  0
  -29.1438  -24.3423   19.8208 C   0  0  0  0  0  0  0  0  0  0  0  0
  -29.0762  -22.8444   19.8969 C   0  0  0  0  0  0  0  0  0  0  0  0
  -23.0675  -30.1803   22.4140 C   0  0  0  0  0  0  0  0  0  0  0  0
  -21.0824  -27.6872   21.8087 C   0  0  0  0  0  0  0  0  0  0  0  0
  -20.6918  -24.5260   20.5837 C   0  0  0  0  0  0  0  0  0  0  0  0
  -29.0447  -16.5221   24.1388 C   0  0  0  0  0  0  0  0  0  0  0  0
  -20.9217  -34.3118   24.5078 C   0  0  0  0  0  0  0  0  0  0  0  0
  -23.5637  -29.7200   19.9855 C   0  0  0  0  0  0  0  0  0  0  0  0
  -23.5558  -27.2383   21.5936 C   0  0  0  0  0  0  0  0  0  0  0  0
  -20.6912  -32.8047   24.5837 C   0  0  0  0  0  0  0  0  0  0  0  0
  -28.9417  -13.2592   25.5601 C   0  0  0  0  0  0  0  0  0  0  0  0
  -22.0071  -32.0754   24.8360 C   0  0  0  0  0  0  0  0  0  0  0  0
  -28.2159  -12.4255   24.5016 C   0  0  0  0  0  0  0  0  0  0  0  0
  -28.3720  -14.6734   25.6569 C   0  0  0  0  0  0  0  0  0  0  0  0
  -27.5795  -14.5705   23.3265 C   0  0  0  0  0  0  0  0  0  0  0  0
  -22.9987  -32.3146   23.6910 C   0  0  1  0  0  0  0  0  0  0  0  0
  -22.5973  -29.5200   21.1489 C   0  0  1  0  0  0  0  0  0  0  0  0
  -28.1610  -13.1587   23.1470 C   0  0  2  0  0  0  0  0  0  0  0  0
  -18.9601  -22.7389   20.2595 C   0  0  0  0  0  0  0  0  0  0  0  0
  -21.2205  -27.0174   24.7823 C   0  0  0  0  0  0  0  0  0  0  0  0
  -20.2931  -24.7549   24.2446 C   0  0  0  0  0  0  0  0  0  0  0  0
  -18.9448  -26.7990   23.7684 C   0  0  0  0  0  0  0  0  0  0  0  0
  -21.0357  -24.5636   17.6444 C   0  0  0  0  0  0  0  0  0  0  0  0
  -28.0245  -25.1015   20.4843 C   0  0  0  0  0  0  0  0  0  1  0  0
  -20.9527  -26.2743   22.3243 C   0  0  1  0  0  0  0  0  0  0  0  0
  -19.6655  -23.9329   19.6353 C   0  0  2  0  0  0  0  0  0  0  0  0
  -20.3767  -26.2206   23.7675 C   0  0  0  0  0  0  0  0  0  0  0  0
  -26.3815  -11.5783   22.5010 N   0  0  0  0  0  0  0  0  0  0  0  0
  -27.4014  -12.3588   22.1052 N   0  0  0  0  0  0  0  0  0  0  0  0
  -22.3744  -28.1070   21.4620 N   0  0  0  0  0  0  0  0  0  0  0  0
  -28.3548  -15.3074   24.3368 N   0  0  0  0  0  0  0  0  0  0  0  0
  -29.2838  -21.7246   23.9642 N   0  0  0  0  0  0  0  0  0  0  0  0
  -28.6165  -13.0543   20.1946 N   0  0  0  0  0  0  0  0  0  0  0  0
  -25.5357  -10.2225   18.4961 N   0  0  0  0  0  0  0  0  0  0  0  0
  -29.1369  -22.3878   21.1958 N   0  0  0  0  0  0  0  0  0  0  0  0
  -28.9848  -17.0134   22.8351 N   0  0  0  0  0  0  0  0  0  0  0  0
  -22.6592  -31.4935   22.5486 N   0  0  0  0  0  0  0  0  0  0  0  0
  -20.1591  -25.5507   21.3369 N   0  0  0  0  0  0  0  0  0  0  0  0
  -20.3229  -23.4843   18.3753 N   0  3  0  0  0  0  0  0  0  0  0  0
  -27.3058  -11.5819   17.9695 O   0  0  0  0  0  0  0  0  0  0  0  0
  -30.0824  -24.8359   19.2142 O   0  0  0  0  0  0  0  0  0  0  0  0
  -29.0056  -22.2461   18.8362 O   0  0  0  0  0  0  0  0  0  0  0  0
  -23.7490  -29.5448   23.2100 O   0  0  0  0  0  0  0  0  0  0  0  0
  -20.0735  -28.3901   21.7103 O   0  0  0  0  0  0  0  0  0  0  0  0
  -21.8493  -24.1183   20.6523 O   0  0  0  0  0  0  0  0  0  0  0  0
  -29.6673  -17.0711   25.0516 O   0  0  0  0  0  0  0  0  0  0  0  0
  -21.6447   -7.4722   21.3824 O   0  0  0  0  0  0  0  0  0  0  0  0
  -28.2162  -26.5032   20.2983 O   0  0  0  0  0  0  0  0  0  1  0  0
  -21.5948   -3.5451   25.2528 F   0  0  0  0  0  0  0  0  0  0  0  0
  -28.8463  -17.7305   20.1453 F   0  0  0  0  0  0  0  0  0  0  0  0
  -21.6343   -4.7963   20.6879 F   0  0  0  0  0  0  0  0  0  0  0  0
  1  2  1  0  0  0  0
  1  5  2  0  0  0  0
  2  6  2  0  0  0  0
  3  8  2  0  0  0  0
  3 17  1  0  0  0  0
  4  9  1  0  0  0  0
  4 17  2  0  0  0  0
  5 19  1  0  0  0  0
  6 21  1  0  0  0  0
  7 10  2  0  0  0  0
  7 20  1  0  0  0  0
  8 26  1  0  0  0  0
  9 26  2  0  0  0  0
 10 27  1  0  0  0  0
 11 12  2  0  0  0  0
 11 28  1  0  0  0  0
 12 29  1  0  0  0  0
 13 22  1  0  0  0  0
 13 27  2  0  0  0  0
 14 23  1  0  0  0  0
 14 24  2  0  0  0  0
 15 25  1  0  0  0  0
 15 30  2  0  0  0  0
 16 29  2  0  0  0  0
 16 31  1  0  0  0  0
 17 32  1  0  0  0  0
 18 32  1  0  0  0  0
 18 33  2  0  0  0  0
 18 34  1  0  0  0  0
 19 21  2  0  0  0  0
 19 41  1  0  0  0  0
 20 22  2  0  0  0  0
 20 42  1  0  0  0  0
 21 50  1  0  0  0  0
 22 43  1  0  0  0  0
 23 25  2  0  0  0  0
 23 66  1  0  0  0  0
 24 30  1  0  0  0  0
 24 70  1  0  0  0  0
 25 69  1  0  0  0  0
 26 81  1  0  0  0  0
 27 82  1  0  0  0  0
 28 31  2  0  0  0  0
 28 81  1  0  0  0  0
 29 83  1  0  0  0  0
 30 84  1  0  0  0  0
 31 85  1  0  0  0  0
 32 62  2  0  0  0  0
 33 63  1  0  0  0  0
 33 67  1  0  0  0  0
 34 68  1  0  0  0  0
 34 74  2  0  0  0  0
 35 36  1  0  0  0  0
 35 58  1  0  0  0  0
 35 75  2  0  0  0  0
 36 69  1  0  0  0  0
 36 76  2  0  0  0  0
 37 51  1  0  0  0  0
 37 71  1  0  0  0  0
 37 77  2  0  0  0  0
 38 59  1  0  0  0  0
 38 64  1  0  0  0  0
 38 78  2  0  0  0  0
 39 60  1  0  0  0  0
 39 72  1  0  0  0  0
 39 79  2  0  0  0  0
 40 65  1  0  0  0  0
 40 70  1  0  0  0  0
 40 80  2  0  0  0  0
 41 44  1  0  0  0  0
 42 51  1  0  0  0  0
 43 64  1  0  0  0  0
 44 46  1  0  0  0  0
 45 47  1  0  0  0  0
 45 48  1  0  0  0  0
 46 50  1  0  0  0  0
 47 52  1  0  0  0  0
 48 65  1  0  0  0  0
 49 52  1  0  0  0  0
 49 65  1  0  0  0  0
 50 71  1  0  0  0  0
 51 64  1  0  0  0  0
 52 63  1  0  0  0  0
 53 60  1  0  0  0  0
 54 61  1  0  0  0  0
 55 61  1  0  0  0  0
 56 61  1  0  0  0  0
 57 73  1  0  0  0  0
 58 82  1  0  0  0  0
 59 61  1  0  0  0  0
 59 72  1  0  0  0  0
 60 73  1  0  0  0  0
 62 63  1  0  0  0  0
M  CHG  1  73   1
M  ISO  4  40 100  58 101  70 100  82 101
M  END
> <Batch ID>
0089

> <Smiles>
CNC(C)C(=O)NC(C(=O)N1Cc2cc([101O:1][101CH2:1]C(=O)C(=O)Nc3cc(F)c([100NH:0][100C:0](=O)N4CCCC(n5nc(-c6ccc(Oc7ccc(F)cc7F)cc6)c(C(N)=O)c5N)C4)cc3N)ccc2CC1C(=O)NC1CCCc2ccccc21)C(C)(C)C

> <Shape>
0.289

> <Color>
0.107

> <Negative vol penalty>
0.000

$$$$

  -OEChem-04052300263D

 89 98  0     1  0  0  0  0  0999 V2000
  -29.1881   -9.1145   18.4221 C   0  0  0  0  0  0  0  0  0  0  0  0
  -29.5252  -10.4617   18.3390 C   0  0  0  0  0  0  0  0  0  0  0  0
  -21.7180  -26.8101   22.3003 C   0  0  0  0  0  0  0  0  0  0  0  0
  -20.2805  -28.4207   23.3850 C   0  0  0  0  0  0  0  0  0  0  0  0
  -28.9243  -26.8854   22.2390 C   0  0  0  0  0  0  0  0  0  0  0  0
  -27.8982   -8.7418   18.7980 C   0  0  0  0  0  0  0  0  0  0  0  0
  -28.5723  -11.4370   18.6307 C   0  0  0  0  0  0  0  0  0  0  0  0
  -29.5541  -16.8625   21.2963 C   0  0  0  0  0  0  0  0  0  0  0  0
  -28.9218  -25.7798   21.3886 C   0  0  0  0  0  0  0  0  0  0  0  0
  -20.8258  -25.7905   22.6317 C   0  0  0  0  0  0  0  0  0  0  0  0
  -19.3882  -27.4010   23.7164 C   0  0  0  0  0  0  0  0  0  0  0  0
  -29.7061  -18.1481   20.7786 C   0  0  0  0  0  0  0  0  0  0  0  0
  -19.1019  -22.7103   23.5057 C   0  0  0  0  0  0  0  0  0  0  0  0
  -19.6300  -21.5257   24.0190 C   0  0  0  0  0  0  0  0  0  0  0  0
  -31.0450  -27.5881   21.3193 C   0  0  0  0  0  0  0  0  0  0  0  0
  -27.3667  -18.5794   21.1787 C   0  0  0  0  0  0  0  0  0  0  0  0
  -20.5853  -22.7529   25.8680 C   0  0  0  0  0  0  0  0  0  0  0  0
  -21.4454  -28.1252   22.6770 C   0  0  0  0  0  0  0  0  0  0  0  0
  -29.9858  -27.7896   22.2043 C   0  0  0  0  0  0  0  0  0  0  0  0
  -22.3651  -29.9643   21.1672 C   0  0  0  0  0  0  0  0  0  0  0  0
  -26.9318   -9.7129   19.1038 C   0  0  0  0  0  0  0  0  0  0  0  0
  -28.3027  -16.4212   21.7497 C   0  0  0  0  0  0  0  0  0  0  0  0
  -27.2679  -11.0769   19.0097 C   0  0  0  0  0  0  0  0  0  0  0  0
  -27.2020  -17.2886   21.7041 C   0  0  0  0  0  0  0  0  0  0  0  0
  -29.9810  -25.5782   20.5036 C   0  0  0  0  0  0  0  0  0  0  0  0
  -19.6609  -26.0859   23.3397 C   0  0  0  0  0  0  0  0  0  0  0  0
  -28.6117  -19.0058   20.7171 C   0  0  0  0  0  0  0  0  0  0  0  0
  -19.3155  -23.9162   24.1735 C   0  0  0  0  0  0  0  0  0  0  0  0
  -20.3717  -21.5470   25.2002 C   0  0  0  0  0  0  0  0  0  0  0  0
  -31.0426  -26.4824   20.4689 C   0  0  0  0  0  0  0  0  0  0  0  0
  -20.0572  -23.9375   25.3546 C   0  0  0  0  0  0  0  0  0  0  0  0
  -22.3670  -29.1789   22.3355 C   0  0  0  0  0  0  0  0  0  0  0  0
  -23.4330  -30.8139   21.3230 C   0  0  0  0  0  0  0  0  0  0  0  0
  -30.0618  -22.2696   17.8938 C   0  0  0  0  0  0  0  0  0  0  0  0
  -30.0020  -24.6433   18.2667 C   0  0  0  0  0  0  0  0  0  0  0  0
  -30.0288  -22.0107   19.2079 C   0  0  0  0  0  0  0  0  0  0  0  0
  -30.0373  -23.6195   17.4089 C   0  0  0  0  0  0  0  0  0  0  0  0
  -29.9440  -23.1521   20.1914 C   0  0  0  0  0  0  0  0  0  0  0  0
  -29.9884  -28.9671   23.1101 C   0  0  0  0  0  0  0  0  0  0  0  0
  -21.4774  -29.9292   20.0419 C   0  0  0  0  0  0  0  0  0  0  0  0
  -26.3047  -14.0961   20.9097 C   0  0  0  0  0  0  0  0  0  0  0  0
  -24.6745  -15.0788   23.5363 C   0  0  0  0  0  0  0  0  0  0  0  0
  -23.9877  -17.5826   25.7513 C   0  0  0  0  0  0  0  0  0  0  0  0
  -28.5144  -30.4881   24.3898 C   0  0  0  0  0  0  0  0  0  0  0  0
  -25.5372   -9.2623   19.4597 C   0  0  0  0  0  0  0  0  0  0  0  0
  -28.1611  -15.0408   22.3300 C   0  0  0  0  0  0  0  0  0  0  0  0
  -25.8416  -16.8702   22.1967 C   0  0  0  0  0  0  0  0  0  0  0  0
  -24.6934  -10.3525   20.1152 C   0  0  0  0  0  0  0  0  0  0  0  0
  -26.0307  -32.9821   24.7184 C   0  0  0  0  0  0  0  0  0  0  0  0
  -24.8200  -11.6621   19.3434 C   0  0  0  0  0  0  0  0  0  0  0  0
  -24.8106  -32.3704   24.0245 C   0  0  0  0  0  0  0  0  0  0  0  0
  -26.8287  -31.9335   25.4920 C   0  0  0  0  0  0  0  0  0  0  0  0
  -25.9955  -30.1388   24.0281 C   0  0  0  0  0  0  0  0  0  0  0  0
  -26.2690  -12.1640   19.3423 C   0  0  1  0  0  0  0  0  0  0  0  0
  -26.7282  -14.5190   22.2879 C   0  0  1  0  0  0  0  0  0  0  0  0
  -25.1984  -31.1413   23.1780 C   0  0  1  0  0  0  0  0  0  0  0  0
  -22.5862  -18.0993   27.7678 C   0  0  0  0  0  0  0  0  0  0  0  0
  -22.2134  -15.3503   21.7532 C   0  0  0  0  0  0  0  0  0  0  0  0
  -21.1517  -16.7354   23.5483 C   0  0  0  0  0  0  0  0  0  0  0  0
  -21.7654  -14.3613   24.0062 C   0  0  0  0  0  0  0  0  0  0  0  0
  -26.3753  -18.0956   27.4231 C   0  0  0  0  0  0  0  0  0  0  0  0
  -30.0594  -20.6332   19.7624 C   0  0  0  0  0  0  0  0  0  1  0  0
  -23.5926  -16.0970   23.8041 C   0  0  1  0  0  0  0  0  0  0  0  0
  -23.9325  -17.5985   27.2682 C   0  0  2  0  0  0  0  0  0  0  0  0
  -22.2058  -15.6435   23.2668 C   0  0  0  0  0  0  0  0  0  0  0  0
  -23.3576  -29.5007   23.1716 N   0  0  0  0  0  0  0  0  0  0  0  0
  -23.9882  -30.4978   22.5280 N   0  0  0  0  0  0  0  0  0  0  0  0
  -29.9758  -24.4637   19.6492 N   0  0  0  0  0  0  0  0  0  0  0  0
  -25.7526  -15.5086   22.7496 N   0  0  0  0  0  0  0  0  0  0  0  0
  -27.1647  -30.8081   24.6180 N   0  0  0  0  0  0  0  0  0  0  0  0
  -23.9420  -31.7930   20.5453 N   0  0  0  0  0  0  0  0  0  0  0  0
  -20.4330  -28.9946   20.0437 N   0  0  0  0  0  0  0  0  0  0  0  0
  -28.7315  -29.4244   23.5068 N   0  0  0  0  0  0  0  0  0  0  0  0
  -26.5923  -12.7776   20.6126 N   0  0  0  0  0  0  0  0  0  0  0  0
  -23.6218  -16.3556   25.2397 N   0  0  0  0  0  0  0  0  0  0  0  0
  -24.9969  -18.4860   27.8161 N   0  3  0  0  0  0  0  0  0  0  0  0
  -29.8721  -22.9102   21.3977 O   0  0  0  0  0  0  0  0  0  0  0  0
  -31.0619  -29.4341   23.4807 O   0  0  0  0  0  0  0  0  0  0  0  0
  -21.6164  -30.6926   19.0563 O   0  0  0  0  0  0  0  0  0  0  0  0
  -25.7563  -14.9057   20.1711 O   0  0  0  0  0  0  0  0  0  0  0  0
  -24.5705  -13.9461   24.0136 O   0  0  0  0  0  0  0  0  0  0  0  0
  -24.3185  -18.5620   25.0865 O   0  0  0  0  0  0  0  0  0  0  0  0
  -29.4467  -31.1190   24.8979 O   0  0  0  0  0  0  0  0  0  0  0  0
  -30.0643  -23.7612   16.0429 O   0  0  0  0  0  0  0  0  0  0  0  0
  -18.7899  -25.0912   23.6630 O   0  0  0  0  0  0  0  0  0  0  0  0
  -28.7572  -20.2609   20.2117 O   0  0  0  0  0  0  0  0  0  1  0  0
  -20.8775  -20.4092   25.6938 F   0  0  0  0  0  0  0  0  0  0  0  0
  -32.0664  -26.2987   19.6228 F   0  0  0  0  0  0  0  0  0  0  0  0
  -20.2647  -25.0927   26.0012 F   0  0  0  0  0  0  0  0  0  0  0  0
  1  2  1  0  0  0  0
  1  6  2  0  0  0  0
  2  7  2  0  0  0  0
  3 10  2  0  0  0  0
  3 18  1  0  0  0  0
  4 11  1  0  0  0  0
  4 18  2  0  0  0  0
  5  9  2  0  0  0  0
  5 19  1  0  0  0  0
  6 21  1  0  0  0  0
  7 23  1  0  0  0  0
  8 12  2  0  0  0  0
  8 22  1  0  0  0  0
  9 25  1  0  0  0  0
 10 26  1  0  0  0  0
 11 26  2  0  0  0  0
 12 27  1  0  0  0  0
 13 14  2  0  0  0  0
 13 28  1  0  0  0  0
 14 29  1  0  0  0  0
 15 19  2  0  0  0  0
 15 30  1  0  0  0  0
 16 24  1  0  0  0  0
 16 27  2  0  0  0  0
 17 29  2  0  0  0  0
 17 31  1  0  0  0  0
 18 32  1  0  0  0  0
 19 39  1  0  0  0  0
 20 32  1  0  0  0  0
 20 33  2  0  0  0  0
 20 40  1  0  0  0  0
 21 23  2  0  0  0  0
 21 45  1  0  0  0  0
 22 24  2  0  0  0  0
 22 46  1  0  0  0  0
 23 54  1  0  0  0  0
 24 47  1  0  0  0  0
 25 30  2  0  0  0  0
 25 68  1  0  0  0  0
 26 85  1  0  0  0  0
 27 86  1  0  0  0  0
 28 31  2  0  0  0  0
 28 85  1  0  0  0  0
 29 87  1  0  0  0  0
 30 88  1  0  0  0  0
 31 89  1  0  0  0  0
 32 66  2  0  0  0  0
 33 67  1  0  0  0  0
 33 71  1  0  0  0  0
 34 36  2  0  0  0  0
 34 37  1  0  0  0  0
 35 37  2  0  0  0  0
 35 68  1  0  0  0  0
 36 38  1  0  0  0  0
 36 62  1  0  0  0  0
 37 84  1  0  0  0  0
 38 68  1  0  0  0  0
 38 77  2  0  0  0  0
 39 73  1  0  0  0  0
 39 78  2  0  0  0  0
 40 72  1  0  0  0  0
 40 79  2  0  0  0  0
 41 55  1  0  0  0  0
 41 74  1  0  0  0  0
 41 80  2  0  0  0  0
 42 63  1  0  0  0  0
 42 69  1  0  0  0  0
 42 81  2  0  0  0  0
 43 64  1  0  0  0  0
 43 75  1  0  0  0  0
 43 82  2  0  0  0  0
 44 70  1  0  0  0  0
 44 73  1  0  0  0  0
 44 83  2  0  0  0  0
 45 48  1  0  0  0  0
 46 55  1  0  0  0  0
 47 69  1  0  0  0  0
 48 50  1  0  0  0  0
 49 51  1  0  0  0  0
 49 52  1  0  0  0  0
 50 54  1  0  0  0  0
 51 56  1  0  0  0  0
 52 70  1  0  0  0  0
 53 56  1  0  0  0  0
 53 70  1  0  0  0  0
 54 74  1  0  0  0  0
 55 69  1  0  0  0  0
 56 67  1  0  0  0  0
 57 64  1  0  0  0  0
 58 65  1  0  0  0  0
 59 65  1  0  0  0  0
 60 65  1  0  0  0  0
 61 76  1  0  0  0  0
 62 86  1  0  0  0  0
 63 65  1  0  0  0  0
 63 75  1  0  0  0  0
 64 76  1  0  0  0  0
 66 67  1  0  0  0  0
M  CHG  1  76   1
M  ISO  4  44 100  62 101  73 100  86 101
M  END
> <Batch ID>
0089

> <Smiles>
CNC(C)C(=O)NC(C(=O)N1Cc2cc([101O:1][101CH:1]=C3CC(=O)CN(c4ccc(C(=O)[100NH:0][100C:0](=O)N5CCCC(n6nc(-c7ccc(Oc8ccc(F)cc8F)cc7)c(C(N)=O)c6N)C5)cc4F)C3=O)ccc2CC1C(=O)NC1CCCc2ccccc21)C(C)(C)C

> <Shape>
0.264

> <Color>
0.039

> <Negative vol penalty>
0.000

$$$$

  -OEChem-04052300263D

 88 96  0     1  0  0  0  0  0999 V2000
  -17.0623  -28.1775   21.6498 C   0  0  0  0  0  0  0  0  0  0  0  0
  -18.1002  -28.1784   20.7234 C   0  0  0  0  0  0  0  0  0  0  0  0
  -24.3933  -13.4156   19.9984 C   0  0  0  0  0  0  0  0  0  0  0  0
  -26.2213  -13.5338   21.5736 C   0  0  0  0  0  0  0  0  0  0  0  0
  -17.1899  -28.8947   22.8386 C   0  0  0  0  0  0  0  0  0  0  0  0
  -19.2659  -28.8975   20.9848 C   0  0  0  0  0  0  0  0  0  0  0  0
  -24.9727  -27.3721   19.3689 C   0  0  0  0  0  0  0  0  0  0  0  0
  -24.4665  -12.0228   20.0180 C   0  0  0  0  0  0  0  0  0  0  0  0
  -26.2945  -12.1410   21.5933 C   0  0  0  0  0  0  0  0  0  0  0  0
  -25.7859  -27.7712   18.3091 C   0  0  0  0  0  0  0  0  0  0  0  0
  -23.4749   -9.5046   22.0449 C   0  0  0  0  0  0  0  0  0  0  0  0
  -22.2791   -8.7941   22.1488 C   0  0  0  0  0  0  0  0  0  0  0  0
  -28.2667  -25.5606   22.9430 C   0  0  0  0  0  0  0  0  0  0  0  0
  -28.5930  -24.2458   20.9427 C   0  0  0  0  0  0  0  0  0  0  0  0
  -26.8239  -29.4181   19.7336 C   0  0  0  0  0  0  0  0  0  0  0  0
  -27.6045  -23.2375   22.9031 C   0  0  0  0  0  0  0  0  0  0  0  0
  -22.7362   -7.7158   20.0356 C   0  0  0  0  0  0  0  0  0  0  0  0
  -25.2708  -14.1711   20.7762 C   0  0  0  0  0  0  0  0  0  0  0  0
  -28.7050  -25.4584   21.6228 C   0  0  0  0  0  0  0  0  0  0  0  0
  -24.4205  -16.4328   21.5945 C   0  0  0  0  0  0  0  0  0  0  0  0
  -18.3617  -29.6151   23.1190 C   0  0  0  0  0  0  0  0  0  0  0  0
  -25.0716  -28.0014   20.6181 C   0  0  0  0  0  0  0  0  0  0  0  0
  -19.4088  -29.6261   22.1778 C   0  0  0  0  0  0  0  0  0  0  0  0
  -26.0126  -29.0234   20.8084 C   0  0  0  0  0  0  0  0  0  0  0  0
  -27.7165  -24.4501   23.5832 C   0  0  0  0  0  0  0  0  0  0  0  0
  -28.0427  -23.1353   21.5828 C   0  0  0  0  0  0  0  0  0  0  0  0
  -25.4170  -11.3855   20.8154 C   0  0  0  0  0  0  0  0  0  0  0  0
  -26.7097  -28.7963   18.4905 C   0  0  0  0  0  0  0  0  0  0  0  0
  -24.3013   -9.3208   20.9363 C   0  0  0  0  0  0  0  0  0  0  0  0
  -21.9098   -7.8997   21.1442 C   0  0  0  0  0  0  0  0  0  0  0  0
  -23.9320   -8.4264   19.9317 C   0  0  0  0  0  0  0  0  0  0  0  0
  -25.1960  -15.6099   20.7559 C   0  0  0  0  0  0  0  0  0  0  0  0
  -24.7000  -17.7106   21.1755 C   0  0  0  0  0  0  0  0  0  0  0  0
  -29.2897  -26.6416   20.9408 C   0  0  0  0  0  0  0  0  0  0  0  0
  -23.5273  -16.0741   22.6572 C   0  0  0  0  0  0  0  0  0  0  0  0
  -23.0940  -29.6997   22.4370 C   0  0  0  0  0  0  0  0  0  0  0  0
  -30.4278  -27.2906   17.7308 C   0  0  0  0  0  0  0  0  0  0  0  0
  -25.5329  -29.5297   24.5690 C   0  0  0  0  0  0  0  0  0  0  0  0
  -29.0259  -29.5868   25.4705 C   0  0  0  0  0  0  0  0  0  0  0  0
  -28.3166  -21.6319   19.5800 C   0  0  0  0  0  0  0  0  0  0  0  0
  -18.4347  -30.4138   24.3963 C   0  0  0  0  0  0  0  0  0  0  0  0
  -24.2058  -27.5411   21.7587 C   0  0  0  0  0  0  0  0  0  0  0  0
  -26.1722  -29.7174   22.1356 C   0  0  0  0  0  0  0  0  0  0  0  0
  -19.8519  -30.8451   24.7648 C   0  0  0  0  0  0  0  0  0  0  0  0
  -27.1725  -19.3680   17.0814 C   0  0  0  0  0  0  0  0  0  0  0  0
  -20.5678  -31.4222   23.5478 C   0  0  0  0  0  0  0  0  0  0  0  0
  -26.4925  -18.2561   17.8837 C   0  0  0  0  0  0  0  0  0  0  0  0
  -28.4116  -19.9057   17.7950 C   0  0  0  0  0  0  0  0  0  0  0  0
  -27.5121  -19.2226   19.9844 C   0  0  0  0  0  0  0  0  0  0  0  0
  -20.6989  -30.3738   22.4363 C   0  0  1  0  0  0  0  0  0  0  0  0
  -24.0337  -28.6000   22.8434 C   0  0  1  0  0  0  0  0  0  0  0  0
  -26.2220  -18.6941   19.3364 C   0  0  2  0  0  0  0  0  0  0  0  0
  -32.3731  -27.3070   19.3010 C   0  0  0  0  0  0  0  0  0  0  0  0
  -30.1432  -29.2499   27.6921 C   0  0  0  0  0  0  0  0  0  0  0  0
  -25.4044  -32.5717   24.7688 C   0  0  0  0  0  0  0  0  0  0  0  0
  -27.6679  -32.5274   25.8378 C   0  0  0  0  0  0  0  0  0  0  0  0
  -25.7429  -31.3963   26.9502 C   0  0  0  0  0  0  0  0  0  0  0  0
  -30.7379  -27.4175   24.4111 C   0  0  0  0  0  0  0  0  0  0  0  0
  -30.2922  -28.5979   16.9650 C   0  0  0  0  0  0  0  0  0  0  0  0
  -29.2066  -28.5411   15.8960 C   0  0  0  0  0  0  0  0  0  0  0  0
  -27.8491  -28.1967   16.4910 C   0  0  0  0  0  0  0  0  0  1  0  0
  -30.8633  -27.4125   19.1842 C   0  0  2  0  0  0  0  0  0  0  0  0
  -26.7499  -30.3705   24.8704 C   0  0  1  0  0  0  0  0  0  0  0  0
  -29.7475  -28.6031   26.3738 C   0  0  2  0  0  0  0  0  0  0  0  0
  -26.3872  -31.7049   25.5811 C   0  0  0  0  0  0  0  0  0  0  0  0
  -25.9142  -16.3065   19.8710 N   0  0  0  0  0  0  0  0  0  0  0  0
  -25.5910  -17.5805   20.1511 N   0  0  0  0  0  0  0  0  0  0  0  0
  -25.2984  -29.2358   23.2182 N   0  0  0  0  0  0  0  0  0  0  0  0
  -28.0783  -20.3049   19.1641 N   0  0  0  0  0  0  0  0  0  0  0  0
  -27.2737  -24.5530   24.9183 N   0  0  0  0  0  0  0  0  0  0  0  0
  -24.2680  -18.9215   21.5871 N   0  0  0  0  0  0  0  0  0  0  0  0
  -23.3564  -14.7156   22.9565 N   0  0  0  0  0  0  0  0  0  0  0  0
  -27.9297  -21.9033   20.8919 N   0  0  0  0  0  0  0  0  0  0  0  0
  -30.1951  -26.3737   19.9214 N   0  0  0  0  0  0  0  0  0  0  0  0
  -21.7692  -29.4478   22.7387 N   0  0  0  0  0  0  0  0  0  0  0  0
  -27.6580  -29.5170   25.6290 N   0  0  0  0  0  0  0  0  0  0  0  0
  -30.9820  -28.0984   25.7087 N   0  3  0  0  0  0  0  0  0  0  0  0
  -28.9702  -27.7676   21.3133 O   0  0  0  0  0  0  0  0  0  0  0  0
  -22.8870  -16.9321   23.3109 O   0  0  0  0  0  0  0  0  0  0  0  0
  -23.5381  -30.7032   21.8915 O   0  0  0  0  0  0  0  0  0  0  0  0
  -30.2350  -26.1963   17.2004 O   0  0  0  0  0  0  0  0  0  0  0  0
  -24.8206  -29.1418   25.4984 O   0  0  0  0  0  0  0  0  0  0  0  0
  -29.6168  -30.3441   24.7038 O   0  0  0  0  0  0  0  0  0  0  0  0
  -28.8013  -22.4733   18.8190 O   0  0  0  0  0  0  0  0  0  0  0  0
  -25.4886  -10.0264   20.8350 O   0  0  0  0  0  0  0  0  0  0  0  0
  -27.5041  -29.1883   17.4576 O   0  0  0  0  0  0  0  0  0  1  0  0
  -20.7622   -7.2162   21.2449 F   0  0  0  0  0  0  0  0  0  0  0  0
  -24.7224   -8.2448   18.8649 F   0  0  0  0  0  0  0  0  0  0  0  0
  1  2  1  0  0  0  0
  1  5  2  0  0  0  0
  2  6  2  0  0  0  0
  3  8  2  0  0  0  0
  3 18  1  0  0  0  0
  4  9  1  0  0  0  0
  4 18  2  0  0  0  0
  5 21  1  0  0  0  0
  6 23  1  0  0  0  0
  7 10  2  0  0  0  0
  7 22  1  0  0  0  0
  8 27  1  0  0  0  0
  9 27  2  0  0  0  0
 10 28  1  0  0  0  0
 11 12  2  0  0  0  0
 11 29  1  0  0  0  0
 12 30  1  0  0  0  0
 13 19  1  0  0  0  0
 13 25  2  0  0  0  0
 14 19  2  0  0  0  0
 14 26  1  0  0  0  0
 15 24  1  0  0  0  0
 15 28  2  0  0  0  0
 16 25  1  0  0  0  0
 16 26  2  0  0  0  0
 17 30  2  0  0  0  0
 17 31  1  0  0  0  0
 18 32  1  0  0  0  0
 19 34  1  0  0  0  0
 20 32  1  0  0  0  0
 20 33  2  0  0  0  0
 20 35  1  0  0  0  0
 21 23  2  0  0  0  0
 21 41  1  0  0  0  0
 22 24  2  0  0  0  0
 22 42  1  0  0  0  0
 23 50  1  0  0  0  0
 24 43  1  0  0  0  0
 25 70  1  0  0  0  0
 26 73  1  0  0  0  0
 27 85  1  0  0  0  0
 28 86  1  0  0  0  0
 29 31  2  0  0  0  0
 29 85  1  0  0  0  0
 30 87  1  0  0  0  0
 31 88  1  0  0  0  0
 32 66  2  0  0  0  0
 33 67  1  0  0  0  0
 33 71  1  0  0  0  0
 34 74  1  0  0  0  0
 34 78  2  0  0  0  0
 35 72  1  0  0  0  0
 35 79  2  0  0  0  0
 36 51  1  0  0  0  0
 36 75  1  0  0  0  0
 36 80  2  0  0  0  0
 37 59  1  0  0  0  0
 37 62  1  0  0  0  0
 37 81  2  0  0  0  0
 38 63  1  0  0  0  0
 38 68  1  0  0  0  0
 38 82  2  0  0  0  0
 39 64  1  0  0  0  0
 39 76  1  0  0  0  0
 39 83  2  0  0  0  0
 40 69  1  0  0  0  0
 40 73  1  0  0  0  0
 40 84  2  0  0  0  0
 41 44  1  0  0  0  0
 42 51  1  0  0  0  0
 43 68  1  0  0  0  0
 44 46  1  0  0  0  0
 45 47  1  0  0  0  0
 45 48  1  0  0  0  0
 46 50  1  0  0  0  0
 47 52  1  0  0  0  0
 48 69  1  0  0  0  0
 49 52  1  0  0  0  0
 49 69  1  0  0  0  0
 50 75  1  0  0  0  0
 51 68  1  0  0  0  0
 52 67  1  0  0  0  0
 53 62  1  0  0  0  0
 54 64  1  0  0  0  0
 55 65  1  0  0  0  0
 56 65  1  0  0  0  0
 57 65  1  0  0  0  0
 58 77  1  0  0  0  0
 59 60  1  0  0  0  0
 60 61  1  0  0  0  0
 61 86  1  0  0  0  0
 62 74  1  0  0  0  0
 63 65  1  0  0  0  0
 63 76  1  0  0  0  0
 64 77  1  0  0  0  0
 66 67  1  0  0  0  0
M  CHG  1  77   1
M  ISO  4  40 100  61 101  73 100  86 101
M  END
> <Batch ID>
0089

> <Smiles>
CNC(C)C(=O)NC(C(=O)N1Cc2cc([101O:1][101CH2:1]CCC(=O)C(C)NC(=O)c3cc(N)cc([100NH:0][100C:0](=O)N4CCCC(n5nc(-c6ccc(Oc7ccc(F)cc7F)cc6)c(C(N)=O)c5N)C4)c3)ccc2CC1C(=O)NC1CCCc2ccccc21)C(C)(C)C

> <Shape>
0.282

> <Color>
0.088

> <Negative vol penalty>
0.000

$$$$

  -OEChem-04052300263D

 86 94  0     1  0  0  0  0  0999 V2000
  -22.6810  -29.8621   13.3441 C   0  0  0  0  0  0  0  0  0  0  0  0
  -23.6711  -29.3160   14.1546 C   0  0  0  0  0  0  0  0  0  0  0  0
  -32.3234  -18.9732   21.8200 C   0  0  0  0  0  0  0  0  0  0  0  0
  -24.3131  -10.7577   23.5616 C   0  0  0  0  0  0  0  0  0  0  0  0
  -24.1482  -13.0739   24.2287 C   0  0  0  0  0  0  0  0  0  0  0  0
  -22.3374  -31.2069   13.4753 C   0  0  0  0  0  0  0  0  0  0  0  0
  -24.3189  -30.1149   15.0963 C   0  0  0  0  0  0  0  0  0  0  0  0
  -24.7878  -27.8284   19.5904 C   0  0  0  0  0  0  0  0  0  0  0  0
  -31.4824  -19.9437   22.3643 C   0  0  0  0  0  0  0  0  0  0  0  0
  -31.7813  -17.8264   21.2398 C   0  0  0  0  0  0  0  0  0  0  0  0
  -23.8699  -10.3626   24.8237 C   0  0  0  0  0  0  0  0  0  0  0  0
  -23.7049  -12.6788   25.4908 C   0  0  0  0  0  0  0  0  0  0  0  0
  -25.7961  -26.8740   19.7171 C   0  0  0  0  0  0  0  0  0  0  0  0
  -20.9272  -10.1448   26.4749 C   0  0  0  0  0  0  0  0  0  0  0  0
  -19.9535   -9.1481   26.5373 C   0  0  0  0  0  0  0  0  0  0  0  0
  -27.1933  -28.5047   20.8161 C   0  0  0  0  0  0  0  0  0  0  0  0
  -29.5570  -18.6207   21.7483 C   0  0  0  0  0  0  0  0  0  0  0  0
  -21.4599   -7.7562   27.8142 C   0  0  0  0  0  0  0  0  0  0  0  0
  -24.4524  -12.1133   23.2640 C   0  0  0  0  0  0  0  0  0  0  0  0
  -24.1202  -12.7923   20.8276 C   0  0  0  0  0  0  0  0  0  0  0  0
  -22.9745  -32.0203   14.4257 C   0  0  0  0  0  0  0  0  0  0  0  0
  -24.9791  -29.1334   20.0667 C   0  0  0  0  0  0  0  0  0  0  0  0
  -23.9844  -31.4722   15.2394 C   0  0  0  0  0  0  0  0  0  0  0  0
  -26.1849  -29.4731   20.6965 C   0  0  0  0  0  0  0  0  0  0  0  0
  -30.0992  -19.7675   22.3285 C   0  0  0  0  0  0  0  0  0  0  0  0
  -30.3980  -17.6502   21.2040 C   0  0  0  0  0  0  0  0  0  0  0  0
  -23.5657  -11.3231   25.7883 C   0  0  0  0  0  0  0  0  0  0  0  0
  -27.0002  -27.2128   20.3274 C   0  0  0  0  0  0  0  0  0  0  0  0
  -22.1674   -9.9472   27.0821 C   0  0  0  0  0  0  0  0  0  0  0  0
  -20.2197   -7.9538   27.2069 C   0  0  0  0  0  0  0  0  0  0  0  0
  -22.4337   -8.7529   27.7517 C   0  0  0  0  0  0  0  0  0  0  0  0
  -24.9108  -12.5221   21.9606 C   0  0  0  0  0  0  0  0  0  0  0  0
  -25.0240  -13.1383   19.8529 C   0  0  0  0  0  0  0  0  0  0  0  0
  -28.6135  -24.1777   21.3419 C   0  0  0  0  0  0  0  0  0  0  0  0
  -27.7146  -25.1482   21.1626 C   0  0  0  0  0  0  0  0  0  1  0  0
  -22.6962  -12.7357   20.6702 C   0  0  0  0  0  0  0  0  0  0  0  0
  -28.2516  -22.9676   22.1264 C   0  0  0  0  0  0  0  0  0  0  0  0
  -25.0438  -32.0197   18.7367 C   0  0  0  0  0  0  0  0  0  0  0  0
  -29.4101  -20.9925   24.4202 C   0  0  0  0  0  0  0  0  0  0  0  0
  -25.2507  -33.0079   21.8194 C   0  0  0  0  0  0  0  0  0  0  0  0
  -26.1151  -32.2869   25.0411 C   0  0  0  0  0  0  0  0  0  0  0  0
  -30.5410  -15.4267   20.0283 C   0  0  0  0  0  0  0  0  0  0  0  0
  -22.6022  -33.4800   14.4983 C   0  0  0  0  0  0  0  0  0  0  0  0
  -23.8715  -30.1439   19.9463 C   0  0  0  0  0  0  0  0  0  0  0  0
  -26.4324  -30.8547   21.2428 C   0  0  0  0  0  0  0  0  0  0  0  0
  -23.0744  -34.1661   15.7776 C   0  0  0  0  0  0  0  0  0  0  0  0
  -29.5528  -12.3659   18.5011 C   0  0  0  0  0  0  0  0  0  0  0  0
  -24.5285  -33.8091   16.0693 C   0  0  0  0  0  0  0  0  0  0  0  0
  -28.1757  -12.0864   19.1073 C   0  0  0  0  0  0  0  0  0  0  0  0
  -30.5032  -12.9949   19.5184 C   0  0  0  0  0  0  0  0  0  0  0  0
  -28.6094  -13.9132   20.7989 C   0  0  0  0  0  0  0  0  0  0  0  0
  -24.6926  -32.3004   16.2895 C   0  0  1  0  0  0  0  0  0  0  0  0
  -24.3683  -31.5851   20.0065 C   0  0  1  0  0  0  0  0  0  0  0  0
  -27.5973  -13.3392   19.7940 C   0  0  2  0  0  0  0  0  0  0  0  0
  -28.6074  -20.1555   25.3846 C   0  0  0  0  0  0  0  0  0  0  0  0
  -26.2056  -33.3075   27.3319 C   0  0  0  0  0  0  0  0  0  0  0  0
  -27.7355  -34.5858   21.0156 C   0  0  0  0  0  0  0  0  0  0  0  0
  -28.3071  -34.7889   23.4446 C   0  0  0  0  0  0  0  0  0  0  0  0
  -26.1943  -35.7897   22.5743 C   0  0  0  0  0  0  0  0  0  0  0  0
  -24.2345  -30.2809   26.1358 C   0  0  0  0  0  0  0  0  0  0  0  0
  -29.1883  -20.8195   22.9185 C   0  0  1  0  0  0  0  0  0  0  0  0
  -26.3819  -33.2770   22.7822 C   0  0  1  0  0  0  0  0  0  0  0  0
  -25.3771  -32.4914   26.3519 C   0  0  2  0  0  0  0  0  0  0  0  0
  -27.1511  -34.5847   22.4422 C   0  0  0  0  0  0  0  0  0  0  0  0
  -26.2163  -12.6824   21.7286 N   0  0  0  0  0  0  0  0  0  0  0  0
  -26.2531  -13.0570   20.4385 N   0  0  0  0  0  0  0  0  0  0  0  0
  -25.3213  -31.8093   21.0954 N   0  0  0  0  0  0  0  0  0  0  0  0
  -29.8900  -14.1786   20.1248 N   0  0  0  0  0  0  0  0  0  0  0  0
  -24.8793  -13.5009   18.5606 N   0  0  0  0  0  0  0  0  0  0  0  0
  -21.9165  -12.3618   21.7732 N   0  0  0  0  0  0  0  0  0  0  0  0
  -29.8476  -16.4855   20.6138 N   0  0  0  0  0  0  0  0  0  0  0  0
  -29.3035  -22.0714   22.2081 N   0  0  0  0  0  0  0  0  0  0  0  0
  -24.2424  -31.9311   17.6144 N   0  0  0  0  0  0  0  0  0  0  0  0
  -25.7944  -33.2591   24.1174 N   0  0  0  0  0  0  0  0  0  0  0  0
  -25.0648  -31.1771   26.9810 N   0  3  0  0  0  0  0  0  0  0  0  0
  -22.1331  -12.9928   19.5792 O   0  0  0  0  0  0  0  0  0  0  0  0
  -27.1425  -22.8113   22.6271 O   0  0  0  0  0  0  0  0  0  0  0  0
  -26.2054  -32.4082   18.7726 O   0  0  0  0  0  0  0  0  0  0  0  0
  -30.2541  -21.7865   24.8449 O   0  0  0  0  0  0  0  0  0  0  0  0
  -24.3344  -33.8276   21.7187 O   0  0  0  0  0  0  0  0  0  0  0  0
  -26.9004  -31.3597   24.8565 O   0  0  0  0  0  0  0  0  0  0  0  0
  -31.6201  -15.5523   19.4438 O   0  0  0  0  0  0  0  0  0  0  0  0
  -23.1329  -10.9380   27.0199 O   0  0  0  0  0  0  0  0  0  0  0  0
  -27.9863  -26.2833   20.4517 O   0  0  0  0  0  0  0  0  0  1  0  0
  -19.2839   -6.9974   27.2681 F   0  0  0  0  0  0  0  0  0  0  0  0
  -23.6228   -8.5578   28.3380 F   0  0  0  0  0  0  0  0  0  0  0  0
  1  2  1  0  0  0  0
  1  6  2  0  0  0  0
  2  7  2  0  0  0  0
  3  9  2  0  0  0  0
  3 10  1  0  0  0  0
  4 11  2  0  0  0  0
  4 19  1  0  0  0  0
  5 12  1  0  0  0  0
  5 19  2  0  0  0  0
  6 21  1  0  0  0  0
  7 23  1  0  0  0  0
  8 13  2  0  0  0  0
  8 22  1  0  0  0  0
  9 25  1  0  0  0  0
 10 26  2  0  0  0  0
 11 27  1  0  0  0  0
 12 27  2  0  0  0  0
 13 28  1  0  0  0  0
 14 15  2  0  0  0  0
 14 29  1  0  0  0  0
 15 30  1  0  0  0  0
 16 24  1  0  0  0  0
 16 28  2  0  0  0  0
 17 25  2  0  0  0  0
 17 26  1  0  0  0  0
 18 30  2  0  0  0  0
 18 31  1  0  0  0  0
 19 32  1  0  0  0  0
 20 32  1  0  0  0  0
 20 33  2  0  0  0  0
 20 36  1  0  0  0  0
 21 23  2  0  0  0  0
 21 43  1  0  0  0  0
 22 24  2  0  0  0  0
 22 44  1  0  0  0  0
 23 52  1  0  0  0  0
 24 45  1  0  0  0  0
 25 61  1  0  0  0  0
 26 71  1  0  0  0  0
 27 83  1  0  0  0  0
 28 84  1  0  0  0  0
 29 31  2  0  0  0  0
 29 83  1  0  0  0  0
 30 85  1  0  0  0  0
 31 86  1  0  0  0  0
 32 65  2  0  0  0  0
 33 66  1  0  0  0  0
 33 69  1  0  0  0  0
 34 35  2  0  0  0  0
 34 37  1  0  0  0  0
 35 84  1  0  0  0  0
 36 70  1  0  0  0  0
 36 76  2  0  0  0  0
 37 72  1  0  0  0  0
 37 77  2  0  0  0  0
 38 53  1  0  0  0  0
 38 73  1  0  0  0  0
 38 78  2  0  0  0  0
 39 55  1  0  0  0  0
 39 61  1  0  0  0  0
 39 79  2  0  0  0  0
 40 62  1  0  0  0  0
 40 67  1  0  0  0  0
 40 80  2  0  0  0  0
 41 63  1  0  0  0  0
 41 74  1  0  0  0  0
 41 81  2  0  0  0  0
 42 68  1  0  0  0  0
 42 71  1  0  0  0  0
 42 82  2  0  0  0  0
 43 46  1  0  0  0  0
 44 53  1  0  0  0  0
 45 67  1  0  0  0  0
 46 48  1  0  0  0  0
 47 49  1  0  0  0  0
 47 50  1  0  0  0  0
 48 52  1  0  0  0  0
 49 54  1  0  0  0  0
 50 68  1  0  0  0  0
 51 54  1  0  0  0  0
 51 68  1  0  0  0  0
 52 73  1  0  0  0  0
 53 67  1  0  0  0  0
 54 66  1  0  0  0  0
 56 63  1  0  0  0  0
 57 64  1  0  0  0  0
 58 64  1  0  0  0  0
 59 64  1  0  0  0  0
 60 75  1  0  0  0  0
 61 72  1  0  0  0  0
 62 64  1  0  0  0  0
 62 74  1  0  0  0  0
 63 75  1  0  0  0  0
 65 66  1  0  0  0  0
M  CHG  1  75   1
M  ISO  4  35 101  42 100  71 100  84 101
M  END
> <Batch ID>
0089

> <Smiles>
CNC(C)C(=O)NC(C(=O)N1Cc2cc([101O:1][101CH:1]=CC(=O)NC(C(C)=O)c3cccc([100NH:0][100C:0](=O)N4CCCC(n5nc(-c6ccc(Oc7ccc(F)cc7F)cc6)c(C(N)=O)c5N)C4)c3)ccc2CC1C(=O)NC1CCCc2ccccc21)C(C)(C)C

> <Shape>
0.229

> <Color>
0.111

> <Negative vol penalty>
0.000

$$$$

  -OEChem-04052300263D

 85 93  0     1  0  0  0  0  0999 V2000
  -26.3437  -36.0666   23.9252 C   0  0  0  0  0  0  0  0  0  0  0  0
  -27.1133  -35.4669   22.9335 C   0  0  0  0  0  0  0  0  0  0  0  0
  -26.9888  -12.3886   21.7567 C   0  0  0  0  0  0  0  0  0  0  0  0
  -26.2107  -13.9889   20.1225 C   0  0  0  0  0  0  0  0  0  0  0  0
  -26.0841  -21.4806   21.7217 C   0  0  0  0  0  0  0  0  0  0  0  0
  -25.9085  -35.3169   25.0171 C   0  0  0  0  0  0  0  0  0  0  0  0
  -27.4490  -34.1172   23.0337 C   0  0  0  0  0  0  0  0  0  0  0  0
  -28.6421  -28.3439   18.9641 C   0  0  0  0  0  0  0  0  0  0  0  0
  -26.9867  -22.1312   20.8806 C   0  0  0  0  0  0  0  0  0  0  0  0
  -26.2134  -11.3973   21.1553 C   0  0  0  0  0  0  0  0  0  0  0  0
  -25.4353  -12.9976   19.5209 C   0  0  0  0  0  0  0  0  0  0  0  0
  -29.5964  -27.3481   18.7607 C   0  0  0  0  0  0  0  0  0  0  0  0
  -24.1596   -8.5313   20.2657 C   0  0  0  0  0  0  0  0  0  0  0  0
  -23.4114   -7.6976   21.0968 C   0  0  0  0  0  0  0  0  0  0  0  0
  -27.7593  -21.4048   23.4610 C   0  0  0  0  0  0  0  0  0  0  0  0
  -28.7220  -26.1324   20.6519 C   0  0  0  0  0  0  0  0  0  0  0  0
  -22.2182   -9.6178   21.9490 C   0  0  0  0  0  0  0  0  0  0  0  0
  -26.9874  -13.6844   21.2403 C   0  0  0  0  0  0  0  0  0  0  0  0
  -26.4704  -21.1174   23.0119 C   0  0  0  0  0  0  0  0  0  0  0  0
  -29.1201  -15.0476   21.5584 C   0  0  0  0  0  0  0  0  0  0  0  0
  -26.2309  -33.9550   25.1260 C   0  0  0  0  0  0  0  0  0  0  0  0
  -27.7260  -28.2466   20.0214 C   0  0  0  0  0  0  0  0  0  0  0  0
  -27.0188  -33.3489   24.1288 C   0  0  0  0  0  0  0  0  0  0  0  0
  -27.7555  -27.1270   20.8650 C   0  0  0  0  0  0  0  0  0  0  0  0
  -28.2757  -22.4186   21.3296 C   0  0  0  0  0  0  0  0  0  0  0  0
  -25.4367  -11.7018   20.0374 C   0  0  0  0  0  0  0  0  0  0  0  0
  -29.6383  -26.2435   19.6064 C   0  0  0  0  0  0  0  0  0  0  0  0
  -23.9371   -9.9084   20.2763 C   0  0  0  0  0  0  0  0  0  0  0  0
  -22.4407   -8.2408   21.9384 C   0  0  0  0  0  0  0  0  0  0  0  0
  -28.6620  -22.0554   22.6198 C   0  0  0  0  0  0  0  0  0  0  0  0
  -22.9664  -10.4516   21.1179 C   0  0  0  0  0  0  0  0  0  0  0  0
  -27.7877  -14.7090   21.8616 C   0  0  0  0  0  0  0  0  0  0  0  0
  -29.4181  -16.0743   22.4206 C   0  0  0  0  0  0  0  0  0  0  0  0
  -25.5292  -20.4389   23.8887 C   0  0  0  0  0  0  0  0  0  0  0  0
  -30.0088  -14.4844   20.5844 C   0  0  0  0  0  0  0  0  0  0  0  0
  -25.9068  -20.0396   25.2639 C   0  0  0  0  0  0  0  0  0  0  0  0
  -27.0935  -29.9821   22.6082 C   0  0  0  0  0  0  0  0  0  0  0  0
  -24.6270  -27.8993   22.9254 C   0  0  0  0  0  0  0  0  0  0  0  0
  -23.3284  -24.8198   22.2345 C   0  0  0  0  0  0  0  0  0  0  0  0
  -28.9735  -23.5079   19.1682 C   0  0  0  0  0  0  0  0  0  0  0  0
  -25.7775  -33.1970   26.3485 C   0  0  0  0  0  0  0  0  0  0  0  0
  -26.6857  -29.3162   20.2110 C   0  0  0  0  0  0  0  0  0  0  0  0
  -26.7813  -26.9652   22.0022 C   0  0  0  0  0  0  0  0  0  0  0  0
  -25.8612  -31.6810   26.1911 C   0  0  0  0  0  0  0  0  0  0  0  0
  -28.2985  -17.8054   26.7286 C   0  0  0  0  0  0  0  0  0  0  0  0
  -27.2042  -31.2802   25.5889 C   0  0  0  0  0  0  0  0  0  0  0  0
  -28.5299  -16.7671   25.6313 C   0  0  0  0  0  0  0  0  0  0  0  0
  -26.8569  -18.3035   26.7309 C   0  0  0  0  0  0  0  0  0  0  0  0
  -26.6353  -17.8120   24.3106 C   0  0  0  0  0  0  0  0  0  0  0  0
  -27.3827  -31.8812   24.1895 C   0  0  1  0  0  0  0  0  0  0  0  0
  -26.1320  -29.3660   21.6317 C   0  0  1  0  0  0  0  0  0  0  0  0
  -28.0874  -17.3059   24.2591 C   0  0  2  0  0  0  0  0  0  0  0  0
  -21.3090  -23.3926   22.6615 C   0  0  0  0  0  0  0  0  0  0  0  0
  -31.4025  -23.2386   18.5117 C   0  0  0  0  0  0  0  0  0  0  0  0
  -29.9072  -24.7630   17.1677 C   0  0  0  0  0  0  0  0  0  0  0  0
  -25.6107  -27.3608   25.7630 C   0  0  0  0  0  0  0  0  0  0  0  0
  -24.1891  -25.3000   25.7901 C   0  0  0  0  0  0  0  0  0  0  0  0
  -23.1267  -27.5427   25.5369 C   0  0  0  0  0  0  0  0  0  0  0  0
  -22.6969  -24.6465   19.3483 C   0  0  0  0  0  0  0  0  0  0  0  0
  -24.4347  -26.5658   23.6064 C   0  0  1  0  0  0  0  0  0  0  0  0
  -21.9642  -24.3936   21.7227 C   0  0  2  0  0  0  0  0  0  0  0  0
  -30.2080  -24.1894   18.5518 C   0  0  0  0  0  0  0  0  0  1  0  0
  -24.3600  -26.6960   25.1540 C   0  0  0  0  0  0  0  0  0  0  0  0
  -27.2747  -15.4596   22.8401 N   0  0  0  0  0  0  0  0  0  0  0  0
  -24.3081  -20.1404   23.5357 N   0  0  0  0  0  0  0  0  0  0  0  0
  -28.2902  -16.2801   23.1593 N   0  0  0  0  0  0  0  0  0  0  0  0
  -26.4580  -18.7738   25.4059 N   0  0  0  0  0  0  0  0  0  0  0  0
  -25.7870  -28.0408   22.1506 N   0  0  0  0  0  0  0  0  0  0  0  0
  -30.5324  -16.8121   22.6115 N   0  0  0  0  0  0  0  0  0  0  0  0
  -29.5414  -13.4354   19.7810 N   0  0  0  0  0  0  0  0  0  0  0  0
  -29.1897  -23.0786   20.4732 N   0  0  0  0  0  0  0  0  0  0  0  0
  -26.6205  -31.1296   23.2156 N   0  0  0  0  0  0  0  0  0  0  0  0
  -23.2521  -25.9644   22.9996 N   0  0  0  0  0  0  0  0  0  0  0  0
  -22.0890  -23.7644   20.3776 N   0  3  0  0  0  0  0  0  0  0  0  0
  -31.1880  -14.8881   20.4424 O   0  0  0  0  0  0  0  0  0  0  0  0
  -25.6906  -20.8736   26.1334 O   0  0  0  0  0  0  0  0  0  0  0  0
  -28.1833  -29.4547   22.7976 O   0  0  0  0  0  0  0  0  0  0  0  0
  -23.7758  -28.7803   23.0695 O   0  0  0  0  0  0  0  0  0  0  0  0
  -24.3581  -24.1974   21.9839 O   0  0  0  0  0  0  0  0  0  0  0  0
  -27.9354  -23.3862   18.5212 O   0  0  0  0  0  0  0  0  0  0  0  0
  -24.6802  -10.7347   19.4501 O   0  0  0  0  0  0  0  0  0  0  0  0
  -30.5692  -25.2704   19.4105 O   0  0  0  0  0  0  0  0  0  1  0  0
  -21.7212   -7.4399   22.7353 F   0  0  0  0  0  0  0  0  0  0  0  0
  -29.8985  -22.3260   23.0622 F   0  0  0  0  0  0  0  0  0  0  0  0
  -22.7474  -11.7736   21.1316 F   0  0  0  0  0  0  0  0  0  0  0  0
  1  2  1  0  0  0  0
  1  6  2  0  0  0  0
  2  7  2  0  0  0  0
  3 10  2  0  0  0  0
  3 18  1  0  0  0  0
  4 11  1  0  0  0  0
  4 18  2  0  0  0  0
  5  9  2  0  0  0  0
  5 19  1  0  0  0  0
  6 21  1  0  0  0  0
  7 23  1  0  0  0  0
  8 12  2  0  0  0  0
  8 22  1  0  0  0  0
  9 25  1  0  0  0  0
 10 26  1  0  0  0  0
 11 26  2  0  0  0  0
 12 27  1  0  0  0  0
 13 14  2  0  0  0  0
 13 28  1  0  0  0  0
 14 29  1  0  0  0  0
 15 19  2  0  0  0  0
 15 30  1  0  0  0  0
 16 24  1  0  0  0  0
 16 27  2  0  0  0  0
 17 29  2  0  0  0  0
 17 31  1  0  0  0  0
 18 32  1  0  0  0  0
 19 34  1  0  0  0  0
 20 32  1  0  0  0  0
 20 33  2  0  0  0  0
 20 35  1  0  0  0  0
 21 23  2  0  0  0  0
 21 41  1  0  0  0  0
 22 24  2  0  0  0  0
 22 42  1  0  0  0  0
 23 50  1  0  0  0  0
 24 43  1  0  0  0  0
 25 30  2  0  0  0  0
 25 71  1  0  0  0  0
 26 81  1  0  0  0  0
 27 82  1  0  0  0  0
 28 31  2  0  0  0  0
 28 81  1  0  0  0  0
 29 83  1  0  0  0  0
 30 84  1  0  0  0  0
 31 85  1  0  0  0  0
 32 64  2  0  0  0  0
 33 66  1  0  0  0  0
 33 69  1  0  0  0  0
 34 36  1  0  0  0  0
 34 65  2  0  0  0  0
 35 70  1  0  0  0  0
 35 75  2  0  0  0  0
 36 67  1  0  0  0  0
 36 76  2  0  0  0  0
 37 51  1  0  0  0  0
 37 72  1  0  0  0  0
 37 77  2  0  0  0  0
 38 60  1  0  0  0  0
 38 68  1  0  0  0  0
 38 78  2  0  0  0  0
 39 61  1  0  0  0  0
 39 73  1  0  0  0  0
 39 79  2  0  0  0  0
 40 62  1  0  0  0  0
 40 71  1  0  0  0  0
 40 80  2  0  0  0  0
 41 44  1  0  0  0  0
 42 51  1  0  0  0  0
 43 68  1  0  0  0  0
 44 46  1  0  0  0  0
 45 47  1  0  0  0  0
 45 48  1  0  0  0  0
 46 50  1  0  0  0  0
 47 52  1  0  0  0  0
 48 67  1  0  0  0  0
 49 52  1  0  0  0  0
 49 67  1  0  0  0  0
 50 72  1  0  0  0  0
 51 68  1  0  0  0  0
 52 66  1  0  0  0  0
 53 61  1  0  0  0  0
 54 62  1  0  0  0  0
 55 62  1  0  0  0  0
 56 63  1  0  0  0  0
 57 63  1  0  0  0  0
 58 63  1  0  0  0  0
 59 74  1  0  0  0  0
 60 63  1  0  0  0  0
 60 73  1  0  0  0  0
 61 74  1  0  0  0  0
 62 82  1  0  0  0  0
 64 66  1  0  0  0  0
M  CHG  1  74   1
M  ISO  4  34 100  36 100  62 101  82 101
M  END
> <Batch ID>
0089

> <Smiles>
CNC(C)C(=O)NC(C(=O)N1Cc2cc([101O:1][101C:1](C)(C)C(=O)Nc3ccc([100C:0](=N)[100C:0](=O)N4CCCC(n5nc(-c6ccc(Oc7ccc(F)cc7F)cc6)c(C(N)=O)c5N)C4)cc3F)ccc2CC1C(=O)NC1CCCc2ccccc21)C(C)(C)C

> <Shape>
0.259

> <Color>
0.078

> <Negative vol penalty>
0.000

$$$$

  -OEChem-04052300263D

 84 92  0     1  0  0  0  0  0999 V2000
  -24.6709  -37.1973   18.7994 C   0  0  0  0  0  0  0  0  0  0  0  0
  -25.3806  -36.0335   18.5212 C   0  0  0  0  0  0  0  0  0  0  0  0
  -23.8285   -8.9561   19.9868 C   0  0  0  0  0  0  0  0  0  0  0  0
  -23.1828  -10.7346   21.4891 C   0  0  0  0  0  0  0  0  0  0  0  0
  -24.1792  -37.4222   20.0846 C   0  0  0  0  0  0  0  0  0  0  0  0
  -25.6000  -35.0944   19.5284 C   0  0  0  0  0  0  0  0  0  0  0  0
  -25.8242  -29.0066   18.9003 C   0  0  0  0  0  0  0  0  0  0  0  0
  -30.4756  -19.8151   20.2272 C   0  0  0  0  0  0  0  0  0  0  0  0
  -30.4110  -18.4231   20.1651 C   0  0  0  0  0  0  0  0  0  0  0  0
  -22.9717   -8.0810   20.6544 C   0  0  0  0  0  0  0  0  0  0  0  0
  -22.3259   -9.8595   22.1567 C   0  0  0  0  0  0  0  0  0  0  0  0
  -26.8891  -28.1139   18.7871 C   0  0  0  0  0  0  0  0  0  0  0  0
  -19.6571   -7.4178   20.7353 C   0  0  0  0  0  0  0  0  0  0  0  0
  -18.8424   -6.5916   19.9611 C   0  0  0  0  0  0  0  0  0  0  0  0
  -26.7718  -27.6828   21.1577 C   0  0  0  0  0  0  0  0  0  0  0  0
  -28.4193  -19.9667   18.9679 C   0  0  0  0  0  0  0  0  0  0  0  0
  -19.8661   -4.6451   20.9612 C   0  0  0  0  0  0  0  0  0  0  0  0
  -23.9341  -10.2828   20.4042 C   0  0  0  0  0  0  0  0  0  0  0  0
  -24.5091  -12.0058   18.6130 C   0  0  0  0  0  0  0  0  0  0  0  0
  -24.3844  -36.4809   21.1056 C   0  0  0  0  0  0  0  0  0  0  0  0
  -25.2312  -29.2528   20.1470 C   0  0  0  0  0  0  0  0  0  0  0  0
  -25.1118  -35.3076   20.8288 C   0  0  0  0  0  0  0  0  0  0  0  0
  -25.6978  -28.5772   21.2836 C   0  0  0  0  0  0  0  0  0  0  0  0
  -29.4797  -20.5869   19.6286 C   0  0  0  0  0  0  0  0  0  0  0  0
  -29.3506  -17.8029   19.5044 C   0  0  0  0  0  0  0  0  0  0  0  0
  -22.2203   -8.5327   21.7393 C   0  0  0  0  0  0  0  0  0  0  0  0
  -27.3650  -27.4541   19.9164 C   0  0  0  0  0  0  0  0  0  0  0  0
  -20.5764   -6.8576   21.6224 C   0  0  0  0  0  0  0  0  0  0  0  0
  -18.9469   -5.2053   20.0741 C   0  0  0  0  0  0  0  0  0  0  0  0
  -28.3547  -18.5747   18.9058 C   0  0  0  0  0  0  0  0  0  0  0  0
  -20.6809   -5.4713   21.7353 C   0  0  0  0  0  0  0  0  0  0  0  0
  -24.8195  -11.1871   19.7154 C   0  0  0  0  0  0  0  0  0  0  0  0
  -25.6807  -12.6668   18.3355 C   0  0  0  0  0  0  0  0  0  0  0  0
  -28.1204  -25.2696   19.5583 C   0  0  0  0  0  0  0  0  0  1  0  0
  -23.2723  -12.1556   17.9034 C   0  0  0  0  0  0  0  0  0  0  0  0
  -29.0635  -24.3280   19.4334 C   0  0  0  0  0  0  0  0  0  0  0  0
  -28.6476  -22.9141   19.1573 C   0  0  0  0  0  0  0  0  0  0  0  0
  -24.8891  -31.8110   22.0023 C   0  0  0  0  0  0  0  0  0  0  0  0
  -23.0670  -29.7978   23.7770 C   0  0  0  0  0  0  0  0  0  0  0  0
  -22.3186  -26.5883   24.6634 C   0  0  0  0  0  0  0  0  0  0  0  0
  -30.1952  -15.4785   19.9839 C   0  0  0  0  0  0  0  0  0  0  0  0
  -23.8746  -36.7899   22.4910 C   0  0  0  0  0  0  0  0  0  0  0  0
  -24.0659  -30.1985   20.2479 C   0  0  0  0  0  0  0  0  0  0  0  0
  -25.0826  -28.7910   22.6416 C   0  0  0  0  0  0  0  0  0  0  0  0
  -23.8273  -35.5709   23.4086 C   0  0  0  0  0  0  0  0  0  0  0  0
  -30.3744  -11.9237   20.0789 C   0  0  0  0  0  0  0  0  0  0  0  0
  -25.1275  -34.7792   23.3120 C   0  0  0  0  0  0  0  0  0  0  0  0
  -28.9196  -11.4826   19.9021 C   0  0  0  0  0  0  0  0  0  0  0  0
  -30.4834  -13.1946   20.9197 C   0  0  0  0  0  0  0  0  0  0  0  0
  -28.2044  -13.8769   20.2796 C   0  0  0  0  0  0  0  0  0  0  0  0
  -25.3489  -34.2536   21.8885 C   0  0  1  0  0  0  0  0  0  0  0  0
  -23.8727  -30.7610   21.6527 C   0  0  1  0  0  0  0  0  0  0  0  0
  -28.0394  -12.6374   19.3852 C   0  0  2  0  0  0  0  0  0  0  0  0
  -20.8086  -25.2604   26.1647 C   0  0  0  0  0  0  0  0  0  0  0  0
  -24.7954  -30.5496   26.1765 C   0  0  0  0  0  0  0  0  0  0  0  0
  -23.8889  -28.5439   27.3697 C   0  0  0  0  0  0  0  0  0  0  0  0
  -22.3491  -30.3762   26.6664 C   0  0  0  0  0  0  0  0  0  0  0  0
  -21.0621  -25.2045   22.3688 C   0  0  0  0  0  0  0  0  0  0  0  0
  -23.3294  -28.8400   24.9140 C   0  0  1  0  0  0  0  0  0  0  0  0
  -20.9927  -25.8582   24.7785 C   0  0  2  0  0  0  0  0  0  0  0  0
  -23.6038  -29.5746   26.2565 C   0  0  0  0  0  0  0  0  0  0  0  0
  -26.0888  -11.3145   20.1110 N   0  0  0  0  0  0  0  0  0  0  0  0
  -26.5864  -12.2209   19.2526 N   0  0  0  0  0  0  0  0  0  0  0  0
  -23.9498  -29.7301   22.6899 N   0  0  0  0  0  0  0  0  0  0  0  0
  -29.6260  -14.2459   20.3679 N   0  0  0  0  0  0  0  0  0  0  0  0
  -26.0142  -13.5800   17.3989 N   0  0  0  0  0  0  0  0  0  0  0  0
  -22.1672  -11.4011   18.3203 N   0  0  0  0  0  0  0  0  0  0  0  0
  -29.5455  -21.9998   19.6910 N   0  0  0  0  0  0  0  0  0  0  0  0
  -29.2880  -16.3887   19.4425 N   0  0  0  0  0  0  0  0  0  0  0  0
  -24.5195  -33.0932   21.6435 N   0  0  0  0  0  0  0  0  0  0  0  0
  -22.1895  -27.9303   24.9527 N   0  0  0  0  0  0  0  0  0  0  0  0
  -20.9196  -24.7562   23.7780 N   0  3  0  0  0  0  0  0  0  0  0  0
  -23.1552  -12.9231   16.9182 O   0  0  0  0  0  0  0  0  0  0  0  0
  -27.6235  -22.6700   18.5285 O   0  0  0  0  0  0  0  0  0  0  0  0
  -25.9307  -31.4824   22.5579 O   0  0  0  0  0  0  0  0  0  0  0  0
  -22.1097  -30.5725   23.8477 O   0  0  0  0  0  0  0  0  0  0  0  0
  -23.3650  -26.0238   24.3520 O   0  0  0  0  0  0  0  0  0  0  0  0
  -31.4034  -15.6995   20.0996 O   0  0  0  0  0  0  0  0  0  0  0  0
  -30.4103  -24.6067   19.5476 O   0  0  0  0  0  0  0  0  0  0  0  0
  -21.3839   -7.6792   22.3908 O   0  0  0  0  0  0  0  0  0  0  0  0
  -28.4047  -26.5827   19.8088 O   0  0  0  0  0  0  0  0  0  1  0  0
  -18.1634   -4.4120   19.3317 F   0  0  0  0  0  0  0  0  0  0  0  0
  -27.3316  -17.9895   18.2667 F   0  0  0  0  0  0  0  0  0  0  0  0
  -21.5613   -4.9273   22.5866 F   0  0  0  0  0  0  0  0  0  0  0  0
  1  2  1  0  0  0  0
  1  5  2  0  0  0  0
  2  6  2  0  0  0  0
  3 10  2  0  0  0  0
  3 18  1  0  0  0  0
  4 11  1  0  0  0  0
  4 18  2  0  0  0  0
  5 20  1  0  0  0  0
  6 22  1  0  0  0  0
  7 12  2  0  0  0  0
  7 21  1  0  0  0  0
  8  9  2  0  0  0  0
  8 24  1  0  0  0  0
  9 25  1  0  0  0  0
 10 26  1  0  0  0  0
 11 26  2  0  0  0  0
 12 27  1  0  0  0  0
 13 14  2  0  0  0  0
 13 28  1  0  0  0  0
 14 29  1  0  0  0  0
 15 23  1  0  0  0  0
 15 27  2  0  0  0  0
 16 24  2  0  0  0  0
 16 30  1  0  0  0  0
 17 29  2  0  0  0  0
 17 31  1  0  0  0  0
 18 32  1  0  0  0  0
 19 32  1  0  0  0  0
 19 33  2  0  0  0  0
 19 35  1  0  0  0  0
 20 22  2  0  0  0  0
 20 42  1  0  0  0  0
 21 23  2  0  0  0  0
 21 43  1  0  0  0  0
 22 51  1  0  0  0  0
 23 44  1  0  0  0  0
 24 68  1  0  0  0  0
 25 30  2  0  0  0  0
 25 69  1  0  0  0  0
 26 80  1  0  0  0  0
 27 81  1  0  0  0  0
 28 31  2  0  0  0  0
 28 80  1  0  0  0  0
 29 82  1  0  0  0  0
 30 83  1  0  0  0  0
 31 84  1  0  0  0  0
 32 62  2  0  0  0  0
 33 63  1  0  0  0  0
 33 66  1  0  0  0  0
 34 36  2  0  0  0  0
 34 81  1  0  0  0  0
 35 67  1  0  0  0  0
 35 73  2  0  0  0  0
 36 37  1  0  0  0  0
 36 79  1  0  0  0  0
 37 68  1  0  0  0  0
 37 74  2  0  0  0  0
 38 52  1  0  0  0  0
 38 70  1  0  0  0  0
 38 75  2  0  0  0  0
 39 59  1  0  0  0  0
 39 64  1  0  0  0  0
 39 76  2  0  0  0  0
 40 60  1  0  0  0  0
 40 71  1  0  0  0  0
 40 77  2  0  0  0  0
 41 65  1  0  0  0  0
 41 69  1  0  0  0  0
 41 78  2  0  0  0  0
 42 45  1  0  0  0  0
 43 52  1  0  0  0  0
 44 64  1  0  0  0  0
 45 47  1  0  0  0  0
 46 48  1  0  0  0  0
 46 49  1  0  0  0  0
 47 51  1  0  0  0  0
 48 53  1  0  0  0  0
 49 65  1  0  0  0  0
 50 53  1  0  0  0  0
 50 65  1  0  0  0  0
 51 70  1  0  0  0  0
 52 64  1  0  0  0  0
 53 63  1  0  0  0  0
 54 60  1  0  0  0  0
 55 61  1  0  0  0  0
 56 61  1  0  0  0  0
 57 61  1  0  0  0  0
 58 72  1  0  0  0  0
 59 61  1  0  0  0  0
 59 71  1  0  0  0  0
 60 72  1  0  0  0  0
 62 63  1  0  0  0  0
M  CHG  1  72   1
M  ISO  4  34 101  41 100  69 100  81 101
M  END
> <Batch ID>
0089

> <Smiles>
CNC(C)C(=O)NC(C(=O)N1Cc2cc([101O:1][101CH2:1]C(=O)C(=O)Nc3ccc([100NH:0][100C:0](=O)N4CCCC(n5nc(-c6ccc(Oc7ccc(F)cc7F)cc6)c(C(N)=O)c5N)C4)c(F)c3)ccc2CC1C(=O)NC1CCCc2ccccc21)C(C)(C)C

> <Shape>
0.275

> <Color>
0.106

> <Negative vol penalty>
0.000

$$$$

  -OEChem-04052300263D

 85 93  0     1  0  0  0  0  0999 V2000
  -28.1199  -37.0974   20.3707 C   0  0  0  0  0  0  0  0  0  0  0  0
  -28.4680  -35.7942   20.0300 C   0  0  0  0  0  0  0  0  0  0  0  0
  -24.6751  -10.0489   19.0169 C   0  0  0  0  0  0  0  0  0  0  0  0
  -24.2315   -9.7913   21.3778 C   0  0  0  0  0  0  0  0  0  0  0  0
  -27.3394  -37.3363   21.5011 C   0  0  0  0  0  0  0  0  0  0  0  0
  -28.0367  -34.7293   20.8202 C   0  0  0  0  0  0  0  0  0  0  0  0
  -26.4846  -29.1210   18.9113 C   0  0  0  0  0  0  0  0  0  0  0  0
  -28.6423  -20.9328   17.5662 C   0  0  0  0  0  0  0  0  0  0  0  0
  -28.5544  -19.5485   17.7132 C   0  0  0  0  0  0  0  0  0  0  0  0
  -24.3196   -8.7169   18.8048 C   0  0  0  0  0  0  0  0  0  0  0  0
  -23.8760   -8.4593   21.1657 C   0  0  0  0  0  0  0  0  0  0  0  0
  -27.1826  -27.9146   18.8788 C   0  0  0  0  0  0  0  0  0  0  0  0
  -21.1950   -6.7508   20.0195 C   0  0  0  0  0  0  0  0  0  0  0  0
  -20.0395   -6.2825   20.6450 C   0  0  0  0  0  0  0  0  0  0  0  0
  -26.1744  -27.2817   20.9769 C   0  0  0  0  0  0  0  0  0  0  0  0
  -29.2595  -19.7482   20.0154 C   0  0  0  0  0  0  0  0  0  0  0  0
  -21.3470   -4.6244   21.8190 C   0  0  0  0  0  0  0  0  0  0  0  0
  -24.6311  -10.5861   20.3034 C   0  0  0  0  0  0  0  0  0  0  0  0
  -24.1505  -13.0847   20.4866 C   0  0  0  0  0  0  0  0  0  0  0  0
  -26.8903  -36.2731   22.3000 C   0  0  0  0  0  0  0  0  0  0  0  0
  -25.6331  -29.4220   19.9840 C   0  0  0  0  0  0  0  0  0  0  0  0
  -27.2506  -34.9544   21.9630 C   0  0  0  0  0  0  0  0  0  0  0  0
  -25.4647  -28.4915   21.0194 C   0  0  0  0  0  0  0  0  0  0  0  0
  -29.0388  -21.7248   18.6438 C   0  0  0  0  0  0  0  0  0  0  0  0
  -28.8630  -18.9562   18.9378 C   0  0  0  0  0  0  0  0  0  0  0  0
  -29.3474  -21.1325   19.8684 C   0  0  0  0  0  0  0  0  0  0  0  0
  -23.9200   -7.9221   19.8792 C   0  0  0  0  0  0  0  0  0  0  0  0
  -27.0299  -26.9960   19.9131 C   0  0  0  0  0  0  0  0  0  0  0  0
  -22.4265   -6.1558   20.2937 C   0  0  0  0  0  0  0  0  0  0  0  0
  -20.1155   -5.2193   21.5448 C   0  0  0  0  0  0  0  0  0  0  0  0
  -22.5025   -5.0926   21.1935 C   0  0  0  0  0  0  0  0  0  0  0  0
  -24.9987  -11.9618   20.5233 C   0  0  0  0  0  0  0  0  0  0  0  0
  -24.9763  -14.1479   20.7586 C   0  0  0  0  0  0  0  0  0  0  0  0
  -25.4909  -16.8054   17.5899 C   0  0  0  0  0  0  0  0  0  0  0  0
  -26.4730  -17.3979   18.2765 C   0  0  0  0  0  0  0  0  0  0  0  0
  -28.0418  -23.7798   18.7368 C   0  0  0  0  0  0  0  0  0  0  0  0
  -22.7419  -13.1600   20.2297 C   0  0  0  0  0  0  0  0  0  0  0  0
  -27.8362  -16.7854   18.3321 C   0  0  0  0  0  0  0  0  0  0  0  0
  -25.5508  -31.6833   22.2164 C   0  0  0  0  0  0  0  0  0  0  0  0
  -22.7093  -30.3044   22.9556 C   0  0  0  0  0  0  0  0  0  0  0  0
  -20.7264  -27.5282   22.8681 C   0  0  0  0  0  0  0  0  0  0  0  0
  -29.7842  -16.8547   19.8162 C   0  0  0  0  0  0  0  0  0  0  0  0
  -26.0883  -36.5843   23.5389 C   0  0  0  0  0  0  0  0  0  0  0  0
  -24.8667  -30.7162   19.9909 C   0  0  0  0  0  0  0  0  0  0  0  0
  -24.5472  -28.7579   22.1836 C   0  0  0  0  0  0  0  0  0  0  0  0
  -25.3586  -35.3724   24.1125 C   0  0  0  0  0  0  0  0  0  0  0  0
  -29.7511  -14.3155   22.4061 C   0  0  0  0  0  0  0  0  0  0  0  0
  -26.2932  -34.1688   24.1794 C   0  0  0  0  0  0  0  0  0  0  0  0
  -28.4671  -13.5358   22.1191 C   0  0  0  0  0  0  0  0  0  0  0  0
  -30.3971  -14.8342   21.1237 C   0  0  0  0  0  0  0  0  0  0  0  0
  -28.2019  -14.8577   19.9822 C   0  0  0  0  0  0  0  0  0  0  0  0
  -26.7812  -33.7709   22.7811 C   0  0  1  0  0  0  0  0  0  0  0  0
  -24.4217  -31.1397   21.3874 C   0  0  1  0  0  0  0  0  0  0  0  0
  -27.4995  -14.3665   21.2572 C   0  0  1  0  0  0  0  0  0  0  0  0
  -18.4709  -26.6950   23.5864 C   0  0  0  0  0  0  0  0  0  0  0  0
  -23.7148  -30.0647   25.8264 C   0  0  0  0  0  0  0  0  0  0  0  0
  -21.8785  -28.4186   26.2583 C   0  0  0  0  0  0  0  0  0  0  0  0
  -21.3229  -30.7634   25.6137 C   0  0  0  0  0  0  0  0  0  0  0  0
  -19.9043  -26.9976   20.0750 C   0  0  0  0  0  0  0  0  0  0  0  0
  -28.0109  -25.2727   18.6001 C   0  0  0  0  0  0  0  0  0  1  0  0
  -22.2683  -29.1908   23.8745 C   0  0  1  0  0  0  0  0  0  0  0  0
  -19.2743  -27.3398   22.4676 C   0  0  2  0  0  0  0  0  0  0  0  0
  -22.3150  -29.6049   25.3724 C   0  0  0  0  0  0  0  0  0  0  0  0
  -26.2663  -12.2819   20.7969 N   0  0  0  0  0  0  0  0  0  0  0  0
  -29.1204  -23.1172   18.4736 N   0  0  0  0  0  0  0  0  0  0  0  0
  -26.2207  -13.6179   20.9345 N   0  0  0  0  0  0  0  0  0  0  0  0
  -23.8245  -30.0401   22.1480 N   0  0  0  0  0  0  0  0  0  0  0  0
  -29.4349  -15.5850   20.3175 N   0  0  0  0  0  0  0  0  0  0  0  0
  -29.7522  -21.9186   20.9702 N   0  0  0  0  0  0  0  0  0  0  0  0
  -24.7523  -15.4751   20.8620 N   0  0  0  0  0  0  0  0  0  0  0  0
  -22.0460  -11.9718   19.9686 N   0  0  0  0  0  0  0  0  0  0  0  0
  -25.7494  -33.0434   22.0737 N   0  0  0  0  0  0  0  0  0  0  0  0
  -20.9489  -28.7765   23.4099 N   0  0  0  0  0  0  0  0  0  0  0  0
  -28.7716  -17.5174   19.0910 N   0  0  0  0  0  0  0  0  0  0  0  0
  -19.1785  -26.4720   21.2599 N   0  3  0  0  0  0  0  0  0  0  0  0
  -22.1220  -14.2504   20.2155 O   0  0  0  0  0  0  0  0  0  0  0  0
  -28.0491  -15.7007   17.7915 O   0  0  0  0  0  0  0  0  0  0  0  0
  -26.1933  -30.9253   22.9335 O   0  0  0  0  0  0  0  0  0  0  0  0
  -22.0828  -31.3671   22.9493 O   0  0  0  0  0  0  0  0  0  0  0  0
  -21.5773  -26.6541   22.7190 O   0  0  0  0  0  0  0  0  0  0  0  0
  -30.8794  -17.3901   20.0183 O   0  0  0  0  0  0  0  0  0  0  0  0
  -23.5728   -6.6223   19.6725 O   0  0  0  0  0  0  0  0  0  0  0  0
  -27.7105  -25.8180   19.8842 O   0  0  0  0  0  0  0  0  0  1  0  0
  -19.0061   -4.7708   22.1465 F   0  0  0  0  0  0  0  0  0  0  0  0
  -23.6829   -4.5178   21.4618 F   0  0  0  0  0  0  0  0  0  0  0  0
  1  2  1  0  0  0  0
  1  5  2  0  0  0  0
  2  6  2  0  0  0  0
  3 10  2  0  0  0  0
  3 18  1  0  0  0  0
  4 11  1  0  0  0  0
  4 18  2  0  0  0  0
  5 20  1  0  0  0  0
  6 22  1  0  0  0  0
  7 12  2  0  0  0  0
  7 21  1  0  0  0  0
  8  9  2  0  0  0  0
  8 24  1  0  0  0  0
  9 25  1  0  0  0  0
 10 27  1  0  0  0  0
 11 27  2  0  0  0  0
 12 28  1  0  0  0  0
 13 14  2  0  0  0  0
 13 29  1  0  0  0  0
 14 30  1  0  0  0  0
 15 23  1  0  0  0  0
 15 28  2  0  0  0  0
 16 25  2  0  0  0  0
 16 26  1  0  0  0  0
 17 30  2  0  0  0  0
 17 31  1  0  0  0  0
 18 32  1  0  0  0  0
 19 32  1  0  0  0  0
 19 33  2  0  0  0  0
 19 37  1  0  0  0  0
 20 22  2  0  0  0  0
 20 43  1  0  0  0  0
 21 23  2  0  0  0  0
 21 44  1  0  0  0  0
 22 52  1  0  0  0  0
 23 45  1  0  0  0  0
 24 26  2  0  0  0  0
 24 65  1  0  0  0  0
 25 74  1  0  0  0  0
 26 69  1  0  0  0  0
 27 82  1  0  0  0  0
 28 83  1  0  0  0  0
 29 31  2  0  0  0  0
 29 82  1  0  0  0  0
 30 84  1  0  0  0  0
 31 85  1  0  0  0  0
 32 64  2  0  0  0  0
 33 66  1  0  0  0  0
 33 70  1  0  0  0  0
 34 35  2  0  0  0  0
 35 38  1  0  0  0  0
 36 60  1  0  0  0  0
 36 65  2  0  0  0  0
 37 71  1  0  0  0  0
 37 76  2  0  0  0  0
 38 74  1  0  0  0  0
 38 77  2  0  0  0  0
 39 53  1  0  0  0  0
 39 72  1  0  0  0  0
 39 78  2  0  0  0  0
 40 61  1  0  0  0  0
 40 67  1  0  0  0  0
 40 79  2  0  0  0  0
 41 62  1  0  0  0  0
 41 73  1  0  0  0  0
 41 80  2  0  0  0  0
 42 68  1  0  0  0  0
 42 74  1  0  0  0  0
 42 81  2  0  0  0  0
 43 46  1  0  0  0  0
 44 53  1  0  0  0  0
 45 67  1  0  0  0  0
 46 48  1  0  0  0  0
 47 49  1  0  0  0  0
 47 50  1  0  0  0  0
 48 52  1  0  0  0  0
 49 54  1  0  0  0  0
 50 68  1  0  0  0  0
 51 54  1  0  0  0  0
 51 68  1  0  0  0  0
 52 72  1  0  0  0  0
 53 67  1  0  0  0  0
 54 66  1  0  0  0  0
 55 62  1  0  0  0  0
 56 63  1  0  0  0  0
 57 63  1  0  0  0  0
 58 63  1  0  0  0  0
 59 75  1  0  0  0  0
 60 83  1  0  0  0  0
 61 63  1  0  0  0  0
 61 73  1  0  0  0  0
 62 75  1  0  0  0  0
 64 66  1  0  0  0  0
M  CHG  1  75   1
M  ISO  4  42 100  60 101  74 100  83 101
M  END
> <Batch ID>
0089

> <Smiles>
C=CC(=O)[100N:0](c1ccc(NC=[101CH:1][101O:1]c2ccc3c(c2)CN(C(=O)C(NC(=O)C(C)NC)C(C)(C)C)C(C(=O)NC2CCCc4ccccc42)C3)c(N)c1)[100C:0](=O)N1CCCC(n2nc(-c3ccc(Oc4ccc(F)cc4F)cc3)c(C(N)=O)c2N)C1

> <Shape>
0.322

> <Color>
0.138

> <Negative vol penalty>
0.000

$$$$

  -OEChem-04052300263D

 83 91  0     1  0  0  0  0  0999 V2000
  -16.8354  -25.9425   22.5319 C   0  0  0  0  0  0  0  0  0  0  0  0
  -18.1370  -25.4539   22.5839 C   0  0  0  0  0  0  0  0  0  0  0  0
  -23.1670  -10.3082   20.8596 C   0  0  0  0  0  0  0  0  0  0  0  0
  -24.4673   -8.8672   22.2984 C   0  0  0  0  0  0  0  0  0  0  0  0
  -28.4022  -20.0369   20.3381 C   0  0  0  0  0  0  0  0  0  0  0  0
  -16.6008  -27.2560   22.1276 C   0  0  0  0  0  0  0  0  0  0  0  0
  -19.2046  -26.2783   22.2307 C   0  0  0  0  0  0  0  0  0  0  0  0
  -23.0683  -25.9566   25.4885 C   0  0  0  0  0  0  0  0  0  0  0  0
  -27.4981  -20.8550   21.0155 C   0  0  0  0  0  0  0  0  0  0  0  0
  -22.2278   -9.2911   20.6896 C   0  0  0  0  0  0  0  0  0  0  0  0
  -23.5280   -7.8500   22.1284 C   0  0  0  0  0  0  0  0  0  0  0  0
  -23.9013  -24.8438   25.3804 C   0  0  0  0  0  0  0  0  0  0  0  0
  -20.4756   -7.0527   23.3399 C   0  0  0  0  0  0  0  0  0  0  0  0
  -20.0669   -6.3538   24.4757 C   0  0  0  0  0  0  0  0  0  0  0  0
  -25.5120  -26.1741   24.1742 C   0  0  0  0  0  0  0  0  0  0  0  0
  -26.7237  -18.9495   22.2830 C   0  0  0  0  0  0  0  0  0  0  0  0
  -20.8789   -4.2970   23.5021 C   0  0  0  0  0  0  0  0  0  0  0  0
  -24.2868  -10.0962   21.6639 C   0  0  0  0  0  0  0  0  0  0  0  0
  -28.4671  -18.6751   20.6331 C   0  0  0  0  0  0  0  0  0  0  0  0
  -25.2618  -12.1427   22.8339 C   0  0  0  0  0  0  0  0  0  0  0  0
  -17.6669  -28.1000   21.7784 C   0  0  0  0  0  0  0  0  0  0  0  0
  -23.4468  -27.1859   24.9297 C   0  0  0  0  0  0  0  0  0  0  0  0
  -18.9839  -27.6040   21.8200 C   0  0  0  0  0  0  0  0  0  0  0  0
  -24.6832  -27.3016   24.2787 C   0  0  0  0  0  0  0  0  0  0  0  0
  -26.6588  -20.3113   21.9880 C   0  0  0  0  0  0  0  0  0  0  0  0
  -22.4083   -8.0620   21.3241 C   0  0  0  0  0  0  0  0  0  0  0  0
  -25.1220  -24.9517   24.7207 C   0  0  0  0  0  0  0  0  0  0  0  0
  -21.0859   -6.3738   22.2852 C   0  0  0  0  0  0  0  0  0  0  0  0
  -20.2685   -4.9759   24.5568 C   0  0  0  0  0  0  0  0  0  0  0  0
  -27.6278  -18.1314   21.6056 C   0  0  0  0  0  0  0  0  0  0  0  0
  -21.2876   -4.9960   22.3663 C   0  0  0  0  0  0  0  0  0  0  0  0
  -25.2577  -11.1464   21.8395 C   0  0  0  0  0  0  0  0  0  0  0  0
  -26.3841  -12.8885   22.5681 C   0  0  0  0  0  0  0  0  0  0  0  0
  -26.1881  -21.6795   23.7578 C   0  0  0  0  0  0  0  0  0  0  0  0
  -29.4303  -17.8063   19.9091 C   0  0  0  0  0  0  0  0  0  0  0  0
  -24.3342  -12.3734   23.9026 C   0  0  0  0  0  0  0  0  0  0  0  0
  -22.2598  -29.0848   22.6738 C   0  0  0  0  0  0  0  0  0  0  0  0
  -24.6301  -31.0736   23.6479 C   0  0  0  0  0  0  0  0  0  0  0  0
  -27.6728  -31.4370   25.1500 C   0  0  0  0  0  0  0  0  0  0  0  0
  -29.7768  -15.5087   19.0578 C   0  0  0  0  0  0  0  0  0  0  0  0
  -17.3602  -29.4978   21.3023 C   0  0  0  0  0  0  0  0  0  0  0  0
  -22.5489  -28.3835   25.0781 C   0  0  0  0  0  0  0  0  0  0  0  0
  -25.1450  -28.6039   23.6793 C   0  0  0  0  0  0  0  0  0  0  0  0
  -18.5752  -30.4220   21.3038 C   0  0  0  0  0  0  0  0  0  0  0  0
  -30.2460  -12.0224   19.4075 C   0  0  0  0  0  0  0  0  0  0  0  0
  -19.7766  -29.7255   20.6726 C   0  0  0  0  0  0  0  0  0  0  0  0
  -28.9945  -11.5633   20.1606 C   0  0  0  0  0  0  0  0  0  0  0  0
  -29.9282  -13.1240   18.3974 C   0  0  0  0  0  0  0  0  0  0  0  0
  -27.9513  -13.8159   19.6900 C   0  0  0  0  0  0  0  0  0  0  0  0
  -20.1703  -28.4752   21.4683 C   0  0  1  0  0  0  0  0  0  0  0  0
  -22.8046  -29.4562   24.0240 C   0  0  1  0  0  0  0  0  0  0  0  0
  -28.2306  -12.7568   20.7686 C   0  0  1  0  0  0  0  0  0  0  0  0
  -29.3698  -33.1799   25.7664 C   0  0  0  0  0  0  0  0  0  0  0  0
  -25.5304  -31.2233   20.7364 C   0  0  0  0  0  0  0  0  0  0  0  0
  -27.7121  -32.1590   21.5319 C   0  0  0  0  0  0  0  0  0  0  0  0
  -25.5928  -33.4029   21.9610 C   0  0  0  0  0  0  0  0  0  0  0  0
  -27.4215  -30.8277   28.0352 C   0  0  0  0  0  0  0  0  0  0  0  0
  -25.3097  -22.5859   24.5671 C   0  0  0  0  0  0  0  0  0  1  0  0
  -26.0731  -31.2876   23.2597 C   0  0  1  0  0  0  0  0  0  0  0  0
  -28.1561  -32.3889   26.2292 C   0  0  2  0  0  0  0  0  0  0  0  0
  -26.2178  -31.9930   21.8818 C   0  0  0  0  0  0  0  0  0  0  0  0
  -26.2949  -11.2473   21.0041 N   0  0  0  0  0  0  0  0  0  0  0  0
  -25.7481  -21.1354   22.6706 N   0  0  0  0  0  0  0  0  0  0  0  0
  -26.9613  -12.3161   21.4730 N   0  0  0  0  0  0  0  0  0  0  0  0
  -24.2291  -29.7446   23.8450 N   0  0  0  0  0  0  0  0  0  0  0  0
  -29.2139  -14.2205   19.0536 N   0  0  0  0  0  0  0  0  0  0  0  0
  -26.9236  -13.9717   23.1665 N   0  0  0  0  0  0  0  0  0  0  0  0
  -23.2359  -11.5124   24.0315 N   0  0  0  0  0  0  0  0  0  0  0  0
  -29.0383  -16.4772   19.7468 N   0  0  0  0  0  0  0  0  0  0  0  0
  -20.8990  -28.8450   22.6628 N   0  0  0  0  0  0  0  0  0  0  0  0
  -26.6914  -32.0079   24.3676 N   0  0  0  0  0  0  0  0  0  0  0  0
  -28.5287  -31.6326   27.4581 N   0  3  0  0  0  0  0  0  0  0  0  0
  -30.4672  -18.2977   19.4719 O   0  0  0  0  0  0  0  0  0  0  0  0
  -24.4661  -13.3251   24.7090 O   0  0  0  0  0  0  0  0  0  0  0  0
  -23.0177  -29.0218   21.7129 O   0  0  0  0  0  0  0  0  0  0  0  0
  -23.8878  -32.0501   23.7786 O   0  0  0  0  0  0  0  0  0  0  0  0
  -28.1237  -30.3020   25.0123 O   0  0  0  0  0  0  0  0  0  0  0  0
  -30.8617  -15.7665   18.5269 O   0  0  0  0  0  0  0  0  0  0  0  0
  -21.4919   -7.0693   21.1586 O   0  0  0  0  0  0  0  0  0  0  0  0
  -25.9367  -23.8670   24.6133 O   0  0  0  0  0  0  0  0  0  1  0  0
  -19.8773   -4.3051   25.6482 F   0  0  0  0  0  0  0  0  0  0  0  0
  -27.6813  -16.8239   21.8964 F   0  0  0  0  0  0  0  0  0  0  0  0
  -21.8744   -4.3386   21.3568 F   0  0  0  0  0  0  0  0  0  0  0  0
  1  2  1  0  0  0  0
  1  6  2  0  0  0  0
  2  7  2  0  0  0  0
  3 10  2  0  0  0  0
  3 18  1  0  0  0  0
  4 11  1  0  0  0  0
  4 18  2  0  0  0  0
  5  9  2  0  0  0  0
  5 19  1  0  0  0  0
  6 21  1  0  0  0  0
  7 23  1  0  0  0  0
  8 12  2  0  0  0  0
  8 22  1  0  0  0  0
  9 25  1  0  0  0  0
 10 26  1  0  0  0  0
 11 26  2  0  0  0  0
 12 27  1  0  0  0  0
 13 14  2  0  0  0  0
 13 28  1  0  0  0  0
 14 29  1  0  0  0  0
 15 24  1  0  0  0  0
 15 27  2  0  0  0  0
 16 25  2  0  0  0  0
 16 30  1  0  0  0  0
 17 29  2  0  0  0  0
 17 31  1  0  0  0  0
 18 32  1  0  0  0  0
 19 30  2  0  0  0  0
 19 35  1  0  0  0  0
 20 32  1  0  0  0  0
 20 33  2  0  0  0  0
 20 36  1  0  0  0  0
 21 23  2  0  0  0  0
 21 41  1  0  0  0  0
 22 24  2  0  0  0  0
 22 42  1  0  0  0  0
 23 50  1  0  0  0  0
 24 43  1  0  0  0  0
 25 63  1  0  0  0  0
 26 79  1  0  0  0  0
 27 80  1  0  0  0  0
 28 31  2  0  0  0  0
 28 79  1  0  0  0  0
 29 81  1  0  0  0  0
 30 82  1  0  0  0  0
 31 83  1  0  0  0  0
 32 62  2  0  0  0  0
 33 64  1  0  0  0  0
 33 67  1  0  0  0  0
 34 58  1  0  0  0  0
 34 63  2  0  0  0  0
 35 69  1  0  0  0  0
 35 73  2  0  0  0  0
 36 68  1  0  0  0  0
 36 74  2  0  0  0  0
 37 51  1  0  0  0  0
 37 70  1  0  0  0  0
 37 75  2  0  0  0  0
 38 59  1  0  0  0  0
 38 65  1  0  0  0  0
 38 76  2  0  0  0  0
 39 60  1  0  0  0  0
 39 71  1  0  0  0  0
 39 77  2  0  0  0  0
 40 66  1  0  0  0  0
 40 69  1  0  0  0  0
 40 78  2  0  0  0  0
 41 44  1  0  0  0  0
 42 51  1  0  0  0  0
 43 65  1  0  0  0  0
 44 46  1  0  0  0  0
 45 47  1  0  0  0  0
 45 48  1  0  0  0  0
 46 50  1  0  0  0  0
 47 52  1  0  0  0  0
 48 66  1  0  0  0  0
 49 52  1  0  0  0  0
 49 66  1  0  0  0  0
 50 70  1  0  0  0  0
 51 65  1  0  0  0  0
 52 64  1  0  0  0  0
 53 60  1  0  0  0  0
 54 61  1  0  0  0  0
 55 61  1  0  0  0  0
 56 61  1  0  0  0  0
 57 72  1  0  0  0  0
 58 80  1  0  0  0  0
 59 61  1  0  0  0  0
 59 71  1  0  0  0  0
 60 72  1  0  0  0  0
 62 64  1  0  0  0  0
M  CHG  1  72   1
M  ISO  4  40 100  58 101  69 100  80 101
M  END
> <Batch ID>
0089

> <Smiles>
CNC(C)C(=O)NC(C(=O)N1Cc2cc([101O:1][101CH:1]=CNc3ccc(C(=O)[100NH:0][100C:0](=O)N4CCCC(n5nc(-c6ccc(Oc7ccc(F)cc7F)cc6)c(C(N)=O)c5N)C4)c(F)c3)ccc2CC1C(=O)NC1CCCc2ccccc21)C(C)(C)C

> <Shape>
0.293

> <Color>
0.116

> <Negative vol penalty>
0.000

$$$$

  -OEChem-04052300263D

 84 93  0     1  0  0  0  0  0999 V2000
  -28.9425  -37.0755   21.5919 C   0  0  0  0  0  0  0  0  0  0  0  0
  -28.9588  -36.0530   20.6487 C   0  0  0  0  0  0  0  0  0  0  0  0
  -24.4488  -18.4784   16.4645 C   0  0  0  0  0  0  0  0  0  0  0  0
  -24.6262   -9.0495   21.6805 C   0  0  0  0  0  0  0  0  0  0  0  0
  -23.0573  -10.3001   20.3347 C   0  0  0  0  0  0  0  0  0  0  0  0
  -28.6845  -36.7834   22.9306 C   0  0  0  0  0  0  0  0  0  0  0  0
  -28.7182  -34.7376   21.0439 C   0  0  0  0  0  0  0  0  0  0  0  0
  -25.7898  -28.6438   18.6761 C   0  0  0  0  0  0  0  0  0  0  0  0
  -24.9733  -19.7130   16.8468 C   0  0  0  0  0  0  0  0  0  0  0  0
  -25.1402  -17.3043   16.7628 C   0  0  0  0  0  0  0  0  0  0  0  0
  -23.5973   -8.6993   22.5547 C   0  0  0  0  0  0  0  0  0  0  0  0
  -22.0283   -9.9499   21.2088 C   0  0  0  0  0  0  0  0  0  0  0  0
  -26.0935  -27.2919   18.5212 C   0  0  0  0  0  0  0  0  0  0  0  0
  -21.0549   -6.4719   22.6443 C   0  0  0  0  0  0  0  0  0  0  0  0
  -20.9814   -5.1423   23.0595 C   0  0  0  0  0  0  0  0  0  0  0  0
  -25.5810  -26.9164   20.8483 C   0  0  0  0  0  0  0  0  0  0  0  0
  -26.8809  -18.5994   17.8257 C   0  0  0  0  0  0  0  0  0  0  0  0
  -21.2416   -5.8451   25.3563 C   0  0  0  0  0  0  0  0  0  0  0  0
  -26.1266  -22.2237   17.6734 C   0  0  0  0  0  0  0  0  0  0  0  0
  -27.8968  -21.1911   18.5759 C   0  0  0  0  0  0  0  0  0  0  0  0
  -24.3563   -9.8500   20.5705 C   0  0  0  0  0  0  0  0  0  0  0  0
  -25.8392   -9.5087   18.5231 C   0  0  0  0  0  0  0  0  0  0  0  0
  -28.4312  -35.4650   23.3408 C   0  0  0  0  0  0  0  0  0  0  0  0
  -25.3893  -29.1450   19.9230 C   0  0  0  0  0  0  0  0  0  0  0  0
  -28.4580  -34.4274   22.3895 C   0  0  0  0  0  0  0  0  0  0  0  0
  -25.2704  -28.2745   21.0158 C   0  0  0  0  0  0  0  0  0  0  0  0
  -26.9484  -23.1977   18.1961 C   0  0  0  0  0  0  0  0  0  0  0  0
  -26.1894  -19.7735   17.5274 C   0  0  0  0  0  0  0  0  0  0  0  0
  -26.3563  -17.3648   17.4434 C   0  0  0  0  0  0  0  0  0  0  0  0
  -22.2983   -9.1495   22.3188 C   0  0  0  0  0  0  0  0  0  0  0  0
  -25.9919  -26.4285   19.6081 C   0  0  0  0  0  0  0  0  0  0  0  0
  -21.2219   -7.4881   23.5851 C   0  0  0  0  0  0  0  0  0  0  0  0
  -28.0684  -22.5444   18.7672 C   0  0  0  0  0  0  0  0  0  0  0  0
  -21.0747   -4.8289   24.4155 C   0  0  0  0  0  0  0  0  0  0  0  0
  -21.3152   -7.1747   24.9411 C   0  0  0  0  0  0  0  0  0  0  0  0
  -25.4189  -10.2125   19.6675 C   0  0  0  0  0  0  0  0  0  0  0  0
  -26.8713  -10.2607   18.0173 C   0  0  0  0  0  0  0  0  0  0  0  0
  -25.3412   -8.2846   17.9670 C   0  0  0  0  0  0  0  0  0  0  0  0
  -26.5572  -31.2881   21.9593 C   0  0  0  0  0  0  0  0  0  0  0  0
  -23.7729  -30.7373   23.5298 C   0  0  0  0  0  0  0  0  0  0  0  0
  -21.1652  -28.6249   24.1499 C   0  0  0  0  0  0  0  0  0  0  0  0
  -28.2767  -16.0548   18.4142 C   0  0  0  0  0  0  0  0  0  0  0  0
  -28.2040  -35.1918   24.8066 C   0  0  0  0  0  0  0  0  0  0  0  0
  -25.0395  -30.6008   20.0672 C   0  0  0  0  0  0  0  0  0  0  0  0
  -24.8252  -28.7589   22.3707 C   0  0  0  0  0  0  0  0  0  0  0  0
  -27.5887  -33.8223   25.0827 C   0  0  0  0  0  0  0  0  0  0  0  0
  -30.3114  -13.2988   19.3847 C   0  0  0  0  0  0  0  0  0  0  0  0
  -28.3096  -32.7421   24.2825 C   0  0  0  0  0  0  0  0  0  0  0  0
  -29.3270  -12.1293   19.4573 C   0  0  0  0  0  0  0  0  0  0  0  0
  -29.6783  -14.6036   19.8649 C   0  0  0  0  0  0  0  0  0  0  0  0
  -27.4278  -13.7876   19.2829 C   0  0  0  0  0  0  0  0  0  0  0  0
  -28.1772  -32.9912   22.7753 C   0  0  1  0  0  0  0  0  0  0  0  0
  -25.1373  -31.0991   21.5057 C   0  0  1  0  0  0  0  0  0  0  0  0
  -28.0002  -12.4646   18.7482 C   0  0  2  0  0  0  0  0  0  0  0  0
  -19.0634  -28.4356   25.5079 C   0  0  0  0  0  0  0  0  0  0  0  0
  -25.4374  -30.1616   26.0214 C   0  0  0  0  0  0  0  0  0  0  0  0
  -23.4190  -29.0816   27.0353 C   0  0  0  0  0  0  0  0  0  0  0  0
  -23.3677  -31.5027   26.4365 C   0  0  0  0  0  0  0  0  0  0  0  0
  -19.4807  -28.4081   21.7262 C   0  0  0  0  0  0  0  0  0  0  0  0
  -26.6970  -24.6765   18.1626 C   0  0  0  0  0  0  0  0  0  1  0  0
  -23.3205  -29.7695   24.5964 C   0  0  1  0  0  0  0  0  0  0  0  0
  -19.6652  -28.8570   24.1763 C   0  0  2  0  0  0  0  0  0  0  0  0
  -23.8964  -30.1198   25.9974 C   0  0  0  0  0  0  0  0  0  0  0  0
  -26.1263  -11.3260   19.8768 N   0  0  0  0  0  0  0  0  0  0  0  0
  -26.7133  -21.0079   17.9098 N   0  0  0  0  0  0  0  0  0  0  0  0
  -27.0016  -11.3275   18.8570 N   0  0  0  0  0  0  0  0  0  0  0  0
  -24.5005  -30.1919   22.4627 N   0  0  0  0  0  0  0  0  0  0  0  0
  -28.4279  -14.8581   19.1462 N   0  0  0  0  0  0  0  0  0  0  0  0
  -27.6711  -10.1067   16.9407 N   0  0  0  0  0  0  0  0  0  0  0  0
  -24.2762   -7.6419   18.6127 N   0  0  0  0  0  0  0  0  0  0  0  0
  -27.0585  -16.1718   17.7456 N   0  0  0  0  0  0  0  0  0  0  0  0
  -26.8676  -32.5883   22.3094 N   0  0  0  0  0  0  0  0  0  0  0  0
  -21.8629  -29.7493   24.5375 N   0  0  0  0  0  0  0  0  0  0  0  0
  -19.0014  -28.0780   23.0930 N   0  3  0  0  0  0  0  0  0  0  0  0
  -25.8371   -7.7672   16.9374 O   0  0  0  0  0  0  0  0  0  0  0  0
  -27.3146  -30.3254   21.9908 O   0  0  0  0  0  0  0  0  0  0  0  0
  -23.4850  -31.9321   23.6360 O   0  0  0  0  0  0  0  0  0  0  0  0
  -21.6676  -27.5522   23.8221 O   0  0  0  0  0  0  0  0  0  0  0  0
  -29.1734  -16.9004   18.3606 O   0  0  0  0  0  0  0  0  0  0  0  0
  -29.1221  -23.0960   19.3857 O   0  0  0  0  0  0  0  0  0  0  0  0
  -21.2939   -8.8077   23.1714 O   0  0  0  0  0  0  0  0  0  0  0  0
  -26.2883  -25.1086   19.4598 O   0  0  0  0  0  0  0  0  0  1  0  0
  -21.0025   -3.5522   24.8141 F   0  0  0  0  0  0  0  0  0  0  0  0
  -21.4745   -8.1468   25.8497 F   0  0  0  0  0  0  0  0  0  0  0  0
  1  2  1  0  0  0  0
  1  6  2  0  0  0  0
  2  7  2  0  0  0  0
  3  9  2  0  0  0  0
  3 10  1  0  0  0  0
  4 11  2  0  0  0  0
  4 21  1  0  0  0  0
  5 12  1  0  0  0  0
  5 21  2  0  0  0  0
  6 23  1  0  0  0  0
  7 25  1  0  0  0  0
  8 13  2  0  0  0  0
  8 24  1  0  0  0  0
  9 28  1  0  0  0  0
 10 29  2  0  0  0  0
 11 30  1  0  0  0  0
 12 30  2  0  0  0  0
 13 31  1  0  0  0  0
 14 15  2  0  0  0  0
 14 32  1  0  0  0  0
 15 34  1  0  0  0  0
 16 26  1  0  0  0  0
 16 31  2  0  0  0  0
 17 28  2  0  0  0  0
 17 29  1  0  0  0  0
 18 34  2  0  0  0  0
 18 35  1  0  0  0  0
 19 27  2  0  0  0  0
 19 65  1  0  0  0  0
 20 33  2  0  0  0  0
 20 65  1  0  0  0  0
 21 36  1  0  0  0  0
 22 36  1  0  0  0  0
 22 37  2  0  0  0  0
 22 38  1  0  0  0  0
 23 25  2  0  0  0  0
 23 43  1  0  0  0  0
 24 26  2  0  0  0  0
 24 44  1  0  0  0  0
 25 52  1  0  0  0  0
 26 45  1  0  0  0  0
 27 33  1  0  0  0  0
 27 60  1  0  0  0  0
 28 65  1  0  0  0  0
 29 71  1  0  0  0  0
 30 81  1  0  0  0  0
 31 82  1  0  0  0  0
 32 35  2  0  0  0  0
 32 81  1  0  0  0  0
 33 80  1  0  0  0  0
 34 83  1  0  0  0  0
 35 84  1  0  0  0  0
 36 64  2  0  0  0  0
 37 66  1  0  0  0  0
 37 69  1  0  0  0  0
 38 70  1  0  0  0  0
 38 75  2  0  0  0  0
 39 53  1  0  0  0  0
 39 72  1  0  0  0  0
 39 76  2  0  0  0  0
 40 61  1  0  0  0  0
 40 67  1  0  0  0  0
 40 77  2  0  0  0  0
 41 62  1  0  0  0  0
 41 73  1  0  0  0  0
 41 78  2  0  0  0  0
 42 68  1  0  0  0  0
 42 71  1  0  0  0  0
 42 79  2  0  0  0  0
 43 46  1  0  0  0  0
 44 53  1  0  0  0  0
 45 67  1  0  0  0  0
 46 48  1  0  0  0  0
 47 49  1  0  0  0  0
 47 50  1  0  0  0  0
 48 52  1  0  0  0  0
 49 54  1  0  0  0  0
 50 68  1  0  0  0  0
 51 54  1  0  0  0  0
 51 68  1  0  0  0  0
 52 72  1  0  0  0  0
 53 67  1  0  0  0  0
 54 66  1  0  0  0  0
 55 62  1  0  0  0  0
 56 63  1  0  0  0  0
 57 63  1  0  0  0  0
 58 63  1  0  0  0  0
 59 74  1  0  0  0  0
 60 82  1  0  0  0  0
 61 63  1  0  0  0  0
 61 73  1  0  0  0  0
 62 74  1  0  0  0  0
 64 66  1  0  0  0  0
M  CHG  1  74   1
M  ISO  4  42 100  60 101  71 100  82 101
M  END
> <Batch ID>
0089

> <Smiles>
CNC(C)C(=O)NC(C(=O)N1Cc2cc([101O:1][101CH2:1]C3=CN(c4cccc([100NH:0][100C:0](=O)N5CCCC(n6nc(-c7ccc(Oc8ccc(F)cc8F)cc7)c(C(N)=O)c6N)C5)c4)CC3=O)ccc2CC1C(=O)NC1CCCc2ccccc21)C(C)(C)C

> <Shape>
0.251

> <Color>
0.100

> <Negative vol penalty>
0.000

$$$$

  -OEChem-04052300263D

 86 94  0     1  0  0  0  0  0999 V2000
  -29.0211  -32.5756   23.4519 C   0  0  0  0  0  0  0  0  0  0  0  0
  -28.8219  -31.1988   23.4644 C   0  0  0  0  0  0  0  0  0  0  0  0
  -24.6193  -14.7841   23.6341 C   0  0  0  0  0  0  0  0  0  0  0  0
  -23.7550  -15.9742   21.7175 C   0  0  0  0  0  0  0  0  0  0  0  0
  -27.9282  -33.4376   23.5322 C   0  0  0  0  0  0  0  0  0  0  0  0
  -27.5297  -30.6832   23.5584 C   0  0  0  0  0  0  0  0  0  0  0  0
  -26.7141  -26.8817   20.3137 C   0  0  0  0  0  0  0  0  0  0  0  0
  -27.9035  -16.9016   16.9935 C   0  0  0  0  0  0  0  0  0  0  0  0
  -27.6793  -17.9725   17.8587 C   0  0  0  0  0  0  0  0  0  0  0  0
  -24.1497  -15.7945   24.4733 C   0  0  0  0  0  0  0  0  0  0  0  0
  -23.2853  -16.9846   22.5566 C   0  0  0  0  0  0  0  0  0  0  0  0
  -27.2297  -25.6320   20.6544 C   0  0  0  0  0  0  0  0  0  0  0  0
  -20.6540  -17.4867   24.6168 C   0  0  0  0  0  0  0  0  0  0  0  0
  -19.3621  -17.9633   24.3946 C   0  0  0  0  0  0  0  0  0  0  0  0
  -25.0488  -24.9495   21.4272 C   0  0  0  0  0  0  0  0  0  0  0  0
  -29.8473  -16.2683   18.2809 C   0  0  0  0  0  0  0  0  0  0  0  0
  -20.2461  -20.1777   24.0045 C   0  0  0  0  0  0  0  0  0  0  0  0
  -24.4220  -14.8740   22.2562 C   0  0  0  0  0  0  0  0  0  0  0  0
  -24.2167  -12.6738   20.9816 C   0  0  0  0  0  0  0  0  0  0  0  0
  -26.6213  -32.9324   23.6175 C   0  0  0  0  0  0  0  0  0  0  0  0
  -25.3620  -27.1789   20.5376 C   0  0  0  0  0  0  0  0  0  0  0  0
  -26.4184  -31.5393   23.6413 C   0  0  0  0  0  0  0  0  0  0  0  0
  -24.5179  -26.2029   21.0860 C   0  0  0  0  0  0  0  0  0  0  0  0
  -28.9875  -16.0495   17.2046 C   0  0  0  0  0  0  0  0  0  0  0  0
  -28.5391  -18.1912   18.9350 C   0  0  0  0  0  0  0  0  0  0  0  0
  -29.6231  -17.3391   19.1462 C   0  0  0  0  0  0  0  0  0  0  0  0
  -23.4827  -16.8947   23.9346 C   0  0  0  0  0  0  0  0  0  0  0  0
  -26.3978  -24.6667   21.2139 C   0  0  0  0  0  0  0  0  0  0  0  0
  -21.7420  -18.3556   24.5330 C   0  0  0  0  0  0  0  0  0  0  0  0
  -19.1581  -19.3088   24.0884 C   0  0  0  0  0  0  0  0  0  0  0  0
  -21.5381  -19.7010   24.2268 C   0  0  0  0  0  0  0  0  0  0  0  0
  -24.9074  -13.8309   21.3888 C   0  0  0  0  0  0  0  0  0  0  0  0
  -25.1045  -12.0119   20.1692 C   0  0  0  0  0  0  0  0  0  0  0  0
  -29.0601  -13.9707   14.1257 C   0  0  0  0  0  0  0  0  0  0  0  0
  -28.8549  -14.9838   14.9703 C   0  0  0  0  0  0  0  0  0  0  0  0
  -26.8705  -22.4588   20.6038 C   0  0  0  0  0  0  0  0  0  1  0  0
  -22.8909  -12.2364   21.3084 C   0  0  0  0  0  0  0  0  0  0  0  0
  -27.3354  -21.2230   20.8236 C   0  0  0  0  0  0  0  0  0  0  0  0
  -27.2597  -20.2103   19.7204 C   0  0  0  0  0  0  0  0  0  0  0  0
  -23.7959  -29.3029   22.3095 C   0  0  0  0  0  0  0  0  0  0  0  0
  -21.2066  -28.0917   20.7762 C   0  0  0  0  0  0  0  0  0  0  0  0
  -19.7928  -25.4766   19.1001 C   0  0  0  0  0  0  0  0  0  0  0  0
  -29.6899  -13.7110   16.8433 C   0  0  0  0  0  0  0  0  0  0  0  0
  -25.4748  -33.9033   23.7499 C   0  0  0  0  0  0  0  0  0  0  0  0
  -24.8153  -28.5225   20.1397 C   0  0  0  0  0  0  0  0  0  0  0  0
  -23.0546  -26.4650   21.3278 C   0  0  0  0  0  0  0  0  0  0  0  0
  -24.1110  -33.2774   23.4694 C   0  0  0  0  0  0  0  0  0  0  0  0
  -29.7833  -11.3858   19.4459 C   0  0  0  0  0  0  0  0  0  0  0  0
  -23.9750  -31.9448   24.1991 C   0  0  0  0  0  0  0  0  0  0  0  0
  -28.4829  -11.6342   20.2095 C   0  0  0  0  0  0  0  0  0  0  0  0
  -30.4104  -12.6990   18.9918 C   0  0  0  0  0  0  0  0  0  0  0  0
  -28.1963  -13.8011   18.9093 C   0  0  0  0  0  0  0  0  0  0  0  0
  -25.0301  -30.9418   23.7172 C   0  0  1  0  0  0  0  0  0  0  0  0
  -23.5380  -28.8929   20.8872 C   0  0  1  0  0  0  0  0  0  0  0  0
  -27.5156  -12.5020   19.3853 C   0  0  2  0  0  0  0  0  0  0  0  0
  -17.6503  -24.7676   18.0026 C   0  0  0  0  0  0  0  0  0  0  0  0
  -19.9636  -27.6087   23.5206 C   0  0  0  0  0  0  0  0  0  0  0  0
  -18.3130  -26.0770   22.4262 C   0  0  0  0  0  0  0  0  0  0  0  0
  -18.3791  -28.4903   21.7982 C   0  0  0  0  0  0  0  0  0  0  0  0
  -21.1068  -25.1748   16.4654 C   0  0  0  0  0  0  0  0  0  0  0  0
  -20.2421  -26.9600   21.0371 C   0  0  1  0  0  0  0  0  0  0  0  0
  -19.0100  -25.4181   17.8007 C   0  0  2  0  0  0  0  0  0  0  0  0
  -19.2524  -27.2794   22.1929 C   0  0  0  0  0  0  0  0  0  0  0  0
  -26.1392  -13.9029   20.8773 N   0  0  0  0  0  0  0  0  0  0  0  0
  -26.2294  -12.7826   20.1405 N   0  0  0  0  0  0  0  0  0  0  0  0
  -22.5687  -27.7960   20.9280 N   0  0  0  0  0  0  0  0  0  0  0  0
  -29.4590  -13.4961   18.2167 N   0  0  0  0  0  0  0  0  0  0  0  0
  -30.5063  -17.5422   20.2303 N   0  0  0  0  0  0  0  0  0  0  0  0
  -25.0250  -10.8516   19.4837 N   0  0  0  0  0  0  0  0  0  0  0  0
  -22.1135  -13.0366   22.1568 N   0  0  0  0  0  0  0  0  0  0  0  0
  -28.2909  -19.2845   19.7997 N   0  0  0  0  0  0  0  0  0  0  0  0
  -24.6488  -30.3825   22.4380 N   0  0  0  0  0  0  0  0  0  0  0  0
  -19.5972  -26.6709   19.7609 N   0  0  0  0  0  0  0  0  0  0  0  0
  -29.2198  -14.9375   16.3060 N   0  0  0  0  0  0  0  0  0  0  0  0
  -19.7595  -24.6333   16.7794 N   0  3  0  0  0  0  0  0  0  0  0  0
  -22.4159  -11.1595   20.8746 O   0  0  0  0  0  0  0  0  0  0  0  0
  -26.3650  -20.2566   18.8831 O   0  0  0  0  0  0  0  0  0  0  0  0
  -23.2596  -28.6863   23.2227 O   0  0  0  0  0  0  0  0  0  0  0  0
  -20.7679  -29.1954   20.4429 O   0  0  0  0  0  0  0  0  0  0  0  0
  -20.5036  -24.5536   19.4916 O   0  0  0  0  0  0  0  0  0  0  0  0
  -30.2901  -12.8824   16.1465 O   0  0  0  0  0  0  0  0  0  0  0  0
  -27.8859  -20.8409   22.0301 O   0  0  0  0  0  0  0  0  0  0  0  0
  -23.0240  -17.8807   24.7531 O   0  0  0  0  0  0  0  0  0  0  0  0
  -26.8987  -23.4463   21.5481 O   0  0  0  0  0  0  0  0  0  1  0  0
  -17.9176  -19.7660   23.8735 F   0  0  0  0  0  0  0  0  0  0  0  0
  -22.5795  -20.5403   24.1437 F   0  0  0  0  0  0  0  0  0  0  0  0
  1  2  1  0  0  0  0
  1  5  2  0  0  0  0
  2  6  2  0  0  0  0
  3 10  2  0  0  0  0
  3 18  1  0  0  0  0
  4 11  1  0  0  0  0
  4 18  2  0  0  0  0
  5 20  1  0  0  0  0
  6 22  1  0  0  0  0
  7 12  2  0  0  0  0
  7 21  1  0  0  0  0
  8  9  2  0  0  0  0
  8 24  1  0  0  0  0
  9 25  1  0  0  0  0
 10 27  1  0  0  0  0
 11 27  2  0  0  0  0
 12 28  1  0  0  0  0
 13 14  2  0  0  0  0
 13 29  1  0  0  0  0
 14 30  1  0  0  0  0
 15 23  1  0  0  0  0
 15 28  2  0  0  0  0
 16 24  2  0  0  0  0
 16 26  1  0  0  0  0
 17 30  2  0  0  0  0
 17 31  1  0  0  0  0
 18 32  1  0  0  0  0
 19 32  1  0  0  0  0
 19 33  2  0  0  0  0
 19 37  1  0  0  0  0
 20 22  2  0  0  0  0
 20 44  1  0  0  0  0
 21 23  2  0  0  0  0
 21 45  1  0  0  0  0
 22 53  1  0  0  0  0
 23 46  1  0  0  0  0
 24 74  1  0  0  0  0
 25 26  2  0  0  0  0
 25 71  1  0  0  0  0
 26 68  1  0  0  0  0
 27 83  1  0  0  0  0
 28 84  1  0  0  0  0
 29 31  2  0  0  0  0
 29 83  1  0  0  0  0
 30 85  1  0  0  0  0
 31 86  1  0  0  0  0
 32 64  2  0  0  0  0
 33 65  1  0  0  0  0
 33 69  1  0  0  0  0
 34 35  2  0  0  0  0
 35 74  1  0  0  0  0
 36 38  2  0  0  0  0
 36 84  1  0  0  0  0
 37 70  1  0  0  0  0
 37 76  2  0  0  0  0
 38 39  1  0  0  0  0
 38 82  1  0  0  0  0
 39 71  1  0  0  0  0
 39 77  2  0  0  0  0
 40 54  1  0  0  0  0
 40 72  1  0  0  0  0
 40 78  2  0  0  0  0
 41 61  1  0  0  0  0
 41 66  1  0  0  0  0
 41 79  2  0  0  0  0
 42 62  1  0  0  0  0
 42 73  1  0  0  0  0
 42 80  2  0  0  0  0
 43 67  1  0  0  0  0
 43 74  1  0  0  0  0
 43 81  2  0  0  0  0
 44 47  1  0  0  0  0
 45 54  1  0  0  0  0
 46 66  1  0  0  0  0
 47 49  1  0  0  0  0
 48 50  1  0  0  0  0
 48 51  1  0  0  0  0
 49 53  1  0  0  0  0
 50 55  1  0  0  0  0
 51 67  1  0  0  0  0
 52 55  1  0  0  0  0
 52 67  1  0  0  0  0
 53 72  1  0  0  0  0
 54 66  1  0  0  0  0
 55 65  1  0  0  0  0
 56 62  1  0  0  0  0
 57 63  1  0  0  0  0
 58 63  1  0  0  0  0
 59 63  1  0  0  0  0
 60 75  1  0  0  0  0
 61 63  1  0  0  0  0
 61 73  1  0  0  0  0
 62 75  1  0  0  0  0
 64 65  1  0  0  0  0
M  CHG  1  75   1
M  ISO  4  36 101  43 100  74 100  84 101
M  END
> <Batch ID>
0089

> <Smiles>
C=C[100N:0](c1ccc(NC(=O)C(=O)[101CH2:1][101O:1]c2ccc3c(c2)CN(C(=O)C(NC(=O)C(C)NC)C(C)(C)C)C(C(=O)NC2CCCc4ccccc42)C3)c(N)c1)[100C:0](=O)N1CCCC(n2nc(-c3ccc(Oc4ccc(F)cc4F)cc3)c(C(N)=O)c2N)C1

> <Shape>
0.252

> <Color>
0.086

> <Negative vol penalty>
0.000

$$$$

  -OEChem-04052300263D

 83 91  0     1  0  0  0  0  0999 V2000
  -30.6218  -24.4084   17.3282 C   0  0  0  0  0  0  0  0  0  0  0  0
  -29.3913  -24.3435   17.9741 C   0  0  0  0  0  0  0  0  0  0  0  0
  -23.8565  -11.7978   20.8181 C   0  0  0  0  0  0  0  0  0  0  0  0
  -24.7154  -14.0440   21.0494 C   0  0  0  0  0  0  0  0  0  0  0  0
  -17.1382  -21.8138   21.6386 C   0  0  0  0  0  0  0  0  0  0  0  0
  -19.5209  -21.9284   22.0214 C   0  0  0  0  0  0  0  0  0  0  0  0
  -31.6187  -25.2538   17.8134 C   0  0  0  0  0  0  0  0  0  0  0  0
  -29.1575  -25.1233   19.1062 C   0  0  0  0  0  0  0  0  0  0  0  0
  -24.6307  -27.3911   19.0019 C   0  0  0  0  0  0  0  0  0  0  0  0
  -17.2222  -20.4256   21.5314 C   0  0  0  0  0  0  0  0  0  0  0  0
  -19.6049  -20.5402   21.9144 C   0  0  0  0  0  0  0  0  0  0  0  0
  -24.9266  -11.4744   19.9839 C   0  0  0  0  0  0  0  0  0  0  0  0
  -25.7855  -13.7207   20.2152 C   0  0  0  0  0  0  0  0  0  0  0  0
  -23.5200  -26.6103   19.3190 C   0  0  0  0  0  0  0  0  0  0  0  0
  -28.7336  -12.0881   20.4679 C   0  0  0  0  0  0  0  0  0  0  0  0
  -30.0070  -12.5000   20.8608 C   0  0  0  0  0  0  0  0  0  0  0  0
  -23.5174  -27.5305   21.5489 C   0  0  0  0  0  0  0  0  0  0  0  0
  -30.2139  -13.7956   18.8321 C   0  0  0  0  0  0  0  0  0  0  0  0
  -23.7508  -13.0826   21.3508 C   0  0  0  0  0  0  0  0  0  0  0  0
  -18.2876  -22.5652   21.8835 C   0  0  0  0  0  0  0  0  0  0  0  0
  -22.5916  -13.2938   23.6134 C   0  0  0  0  0  0  0  0  0  0  0  0
  -31.3936  -26.0515   18.9463 C   0  0  0  0  0  0  0  0  0  0  0  0
  -25.2008  -28.2407   19.9608 C   0  0  0  0  0  0  0  0  0  0  0  0
  -30.1528  -25.9792   19.6077 C   0  0  0  0  0  0  0  0  0  0  0  0
  -24.6338  -28.3229   21.2406 C   0  0  0  0  0  0  0  0  0  0  0  0
  -18.4555  -19.7888   21.6694 C   0  0  0  0  0  0  0  0  0  0  0  0
  -25.8911  -12.4359   19.6825 C   0  0  0  0  0  0  0  0  0  0  0  0
  -22.9649  -26.6778   20.5935 C   0  0  0  0  0  0  0  0  0  0  0  0
  -28.2003  -12.5299   19.2570 C   0  0  0  0  0  0  0  0  0  0  0  0
  -30.7471  -13.3538   20.0429 C   0  0  0  0  0  0  0  0  0  0  0  0
  -28.9405  -13.3837   18.4392 C   0  0  0  0  0  0  0  0  0  0  0  0
  -22.6453  -13.4173   22.2121 C   0  0  0  0  0  0  0  0  0  0  0  0
  -21.3369  -13.7398   23.9497 C   0  0  0  0  0  0  0  0  0  0  0  0
  -18.1986  -24.0384   21.9970 C   0  0  0  0  0  0  0  0  0  0  0  0
  -23.5871  -12.8184   24.5293 C   0  0  0  0  0  0  0  0  0  0  0  0
  -28.0391  -28.4391   21.3780 C   0  0  0  0  0  0  0  0  0  0  0  0
  -26.7914  -31.1614   22.6249 C   0  0  0  0  0  0  0  0  0  0  0  0
  -24.0126  -32.9447   23.4879 C   0  0  0  0  0  0  0  0  0  0  0  0
  -17.4955  -17.4860   21.3200 C   0  0  0  0  0  0  0  0  0  0  0  0
  -19.5622  -26.1641   21.6522 C   0  0  0  0  0  0  0  0  0  0  0  0
  -32.5180  -26.9148   19.4614 C   0  0  0  0  0  0  0  0  0  0  0  0
  -26.3825  -29.0963   19.5948 C   0  0  0  0  0  0  0  0  0  0  0  0
  -25.1958  -29.2342   22.2999 C   0  0  0  0  0  0  0  0  0  0  0  0
  -32.0602  -27.9874   20.4464 C   0  0  0  0  0  0  0  0  0  0  0  0
  -16.8929  -14.0889   22.1994 C   0  0  0  0  0  0  0  0  0  0  0  0
  -31.1165  -27.3903   21.4854 C   0  0  0  0  0  0  0  0  0  0  0  0
  -18.2944  -13.5215   22.4360 C   0  0  0  0  0  0  0  0  0  0  0  0
  -16.8749  -15.0950   21.0501 C   0  0  0  0  0  0  0  0  0  0  0  0
  -19.2579  -15.6143   21.3972 C   0  0  0  0  0  0  0  0  0  0  0  0
  -29.8524  -26.8280   20.8241 C   0  0  1  0  0  0  0  0  0  0  0  0
  -27.1949  -29.5429   20.8064 C   0  0  1  0  0  0  0  0  0  0  0  0
  -19.3389  -14.6447   22.5876 C   0  0  2  0  0  0  0  0  0  0  0  0
  -23.3111  -35.1215   24.5210 C   0  0  0  0  0  0  0  0  0  0  0  0
  -27.5266  -30.0861   25.3841 C   0  0  0  0  0  0  0  0  0  0  0  0
  -25.9905  -31.7928   26.3818 C   0  0  0  0  0  0  0  0  0  0  0  0
  -27.9761  -32.5249   25.0612 C   0  0  0  0  0  0  0  0  0  0  0  0
  -22.5830  -33.7813   21.0353 C   0  0  0  0  0  0  0  0  0  0  0  0
  -25.9977  -31.5048   23.8623 C   0  0  1  0  0  0  0  0  0  0  0  0
  -23.6198  -34.3874   23.2254 C   0  0  2  0  0  0  0  0  0  0  0  0
  -26.8631  -31.4584   25.1532 C   0  0  0  0  0  0  0  0  0  0  0  0
  -21.5144  -13.9037   21.6937 N   0  0  0  0  0  0  0  0  0  0  0  0
  -20.7384  -14.0895   22.7751 N   0  0  0  0  0  0  0  0  0  0  0  0
  -26.3554  -30.0461   21.8955 N   0  0  0  0  0  0  0  0  0  0  0  0
  -17.8870  -16.1316   21.2642 N   0  0  0  0  0  0  0  0  0  0  0  0
  -20.6981  -13.8630   25.1326 N   0  0  0  0  0  0  0  0  0  0  0  0
  -24.8216  -12.3984   24.0155 N   0  0  0  0  0  0  0  0  0  0  0  0
  -18.4919  -26.9725   22.0256 N   0  0  0  0  0  0  0  0  0  0  0  0
  -18.5396  -18.3786   21.5606 N   0  0  0  0  0  0  0  0  0  0  0  0
  -19.3919  -24.7720   21.6486 N   0  0  0  0  0  0  0  0  0  0  0  0
  -28.9418  -27.8994   20.4817 N   0  0  0  0  0  0  0  0  0  0  0  0
  -25.3790  -32.8004   23.6039 N   0  0  0  0  0  0  0  0  0  0  0  0
  -20.7774  -26.7438   21.2906 N   0  3  0  0  0  0  0  0  0  1  0  0
  -22.4126  -34.4451   22.3534 N   0  3  0  0  0  0  0  0  0  0  0  0
  -17.1568  -24.5756   22.3500 O   0  0  0  0  0  0  0  0  0  0  0  0
  -23.3818  -12.7520   25.7650 O   0  0  0  0  0  0  0  0  0  0  0  0
  -27.8839  -28.1030   22.5462 O   0  0  0  0  0  0  0  0  0  0  0  0
  -27.7580  -31.8613   22.3129 O   0  0  0  0  0  0  0  0  0  0  0  0
  -23.1894  -32.0373   23.5845 O   0  0  0  0  0  0  0  0  0  0  0  0
  -16.3166  -17.8266   21.1929 O   0  0  0  0  0  0  0  0  0  0  0  0
  -26.9357  -12.1207   18.8687 O   0  0  0  0  0  0  0  0  0  0  0  0
  -21.8812  -25.9164   20.9059 O   0  0  0  0  0  0  0  0  0  1  0  0
  -31.9694  -13.7505   20.4211 F   0  0  0  0  0  0  0  0  0  0  0  0
  -28.4330  -13.8124   17.2753 F   0  0  0  0  0  0  0  0  0  0  0  0
  1  2  1  0  0  0  0
  1  7  2  0  0  0  0
  2  8  2  0  0  0  0
  3 12  2  0  0  0  0
  3 19  1  0  0  0  0
  4 13  1  0  0  0  0
  4 19  2  0  0  0  0
  5 10  2  0  0  0  0
  5 20  1  0  0  0  0
  6 11  1  0  0  0  0
  6 20  2  0  0  0  0
  7 22  1  0  0  0  0
  8 24  1  0  0  0  0
  9 14  2  0  0  0  0
  9 23  1  0  0  0  0
 10 26  1  0  0  0  0
 11 26  2  0  0  0  0
 12 27  1  0  0  0  0
 13 27  2  0  0  0  0
 14 28  1  0  0  0  0
 15 16  2  0  0  0  0
 15 29  1  0  0  0  0
 16 30  1  0  0  0  0
 17 25  1  0  0  0  0
 17 28  2  0  0  0  0
 18 30  2  0  0  0  0
 18 31  1  0  0  0  0
 19 32  1  0  0  0  0
 20 34  1  0  0  0  0
 21 32  1  0  0  0  0
 21 33  2  0  0  0  0
 21 35  1  0  0  0  0
 22 24  2  0  0  0  0
 22 41  1  0  0  0  0
 23 25  2  0  0  0  0
 23 42  1  0  0  0  0
 24 50  1  0  0  0  0
 25 43  1  0  0  0  0
 26 68  1  0  0  0  0
 27 80  1  0  0  0  0
 28 81  1  0  0  0  0
 29 31  2  0  0  0  0
 29 80  1  0  0  0  0
 30 82  1  0  0  0  0
 31 83  1  0  0  0  0
 32 61  2  0  0  0  0
 33 62  1  0  0  0  0
 33 65  1  0  0  0  0
 34 69  1  0  0  0  0
 34 74  2  0  0  0  0
 35 66  1  0  0  0  0
 35 75  2  0  0  0  0
 36 51  1  0  0  0  0
 36 70  1  0  0  0  0
 36 76  2  0  0  0  0
 37 58  1  0  0  0  0
 37 63  1  0  0  0  0
 37 77  2  0  0  0  0
 38 59  1  0  0  0  0
 38 71  1  0  0  0  0
 38 78  2  0  0  0  0
 39 64  1  0  0  0  0
 39 68  1  0  0  0  0
 39 79  2  0  0  0  0
 40 67  1  0  0  0  0
 40 69  1  0  0  0  0
 40 72  2  0  0  0  0
 41 44  1  0  0  0  0
 42 51  1  0  0  0  0
 43 63  1  0  0  0  0
 44 46  1  0  0  0  0
 45 47  1  0  0  0  0
 45 48  1  0  0  0  0
 46 50  1  0  0  0  0
 47 52  1  0  0  0  0
 48 64  1  0  0  0  0
 49 52  1  0  0  0  0
 49 64  1  0  0  0  0
 50 70  1  0  0  0  0
 51 63  1  0  0  0  0
 52 62  1  0  0  0  0
 53 59  1  0  0  0  0
 54 60  1  0  0  0  0
 55 60  1  0  0  0  0
 56 60  1  0  0  0  0
 57 73  1  0  0  0  0
 58 60  1  0  0  0  0
 58 71  1  0  0  0  0
 59 73  1  0  0  0  0
 61 62  1  0  0  0  0
 72 81  1  0  0  0  0
M  CHG  2  72   1  73   1
M  ISO  4  39 100  68 100  72 101  81 101
M  END
> <Batch ID>
0089

> <Smiles>
CNC(C)C(=O)NC(C(=O)N1Cc2cc([101O:1][101NH:1]C(N)=NC(=O)c3ccc([100NH:0][100C:0](=O)N4CCCC(n5nc(-c6ccc(Oc7ccc(F)cc7F)cc6)c(C(N)=O)c5N)C4)cc3)ccc2CC1C(=O)NC1CCCc2ccccc21)C(C)(C)C

> <Shape>
0.281

> <Color>
0.074

> <Negative vol penalty>
0.000

$$$$

  -OEChem-04052300263D

 86 95  0     1  0  0  0  0  0999 V2000
  -29.3427  -36.9996   19.9805 C   0  0  0  0  0  0  0  0  0  0  0  0
  -29.4905  -35.6397   19.7273 C   0  0  0  0  0  0  0  0  0  0  0  0
  -24.2789   -9.0095   21.5088 C   0  0  0  0  0  0  0  0  0  0  0  0
  -24.6675  -10.4044   23.4428 C   0  0  0  0  0  0  0  0  0  0  0  0
  -28.6045  -37.4259   21.0838 C   0  0  0  0  0  0  0  0  0  0  0  0
  -28.9011  -34.7051   20.5780 C   0  0  0  0  0  0  0  0  0  0  0  0
  -26.5236  -29.2836   19.0094 C   0  0  0  0  0  0  0  0  0  0  0  0
  -30.3684  -20.1137   20.2141 C   0  0  0  0  0  0  0  0  0  0  0  0
  -30.2014  -18.7617   19.9142 C   0  0  0  0  0  0  0  0  0  0  0  0
  -23.9138   -7.9535   22.3438 C   0  0  0  0  0  0  0  0  0  0  0  0
  -24.3023   -9.3485   24.2778 C   0  0  0  0  0  0  0  0  0  0  0  0
  -27.0312  -27.9862   19.0619 C   0  0  0  0  0  0  0  0  0  0  0  0
  -21.2000   -7.0122   24.1277 C   0  0  0  0  0  0  0  0  0  0  0  0
  -20.0576   -6.2857   23.7922 C   0  0  0  0  0  0  0  0  0  0  0  0
  -25.9337  -27.6491   21.1835 C   0  0  0  0  0  0  0  0  0  0  0  0
  -27.9728  -20.3695   20.3951 C   0  0  0  0  0  0  0  0  0  0  0  0
  -21.3866   -4.2754   23.6201 C   0  0  0  0  0  0  0  0  0  0  0  0
  -24.6559  -10.2350   22.0583 C   0  0  0  0  0  0  0  0  0  0  0  0
  -24.1889  -12.3130   20.6544 C   0  0  0  0  0  0  0  0  0  0  0  0
  -27.9977  -36.4963   21.9429 C   0  0  0  0  0  0  0  0  0  0  0  0
  -25.7247  -29.7781   20.0504 C   0  0  0  0  0  0  0  0  0  0  0  0
  -28.1553  -35.1194   21.6946 C   0  0  0  0  0  0  0  0  0  0  0  0
  -25.4150  -28.9523   21.1405 C   0  0  0  0  0  0  0  0  0  0  0  0
  -29.2541  -20.9176   20.4547 C   0  0  0  0  0  0  0  0  0  0  0  0
  -28.9201  -18.2137   19.8547 C   0  0  0  0  0  0  0  0  0  0  0  0
  -27.8058  -19.0175   20.0951 C   0  0  0  0  0  0  0  0  0  0  0  0
  -23.9255   -8.1230   23.7283 C   0  0  0  0  0  0  0  0  0  0  0  0
  -26.7387  -27.1697   20.1504 C   0  0  0  0  0  0  0  0  0  0  0  0
  -22.4358   -6.3704   24.2094 C   0  0  0  0  0  0  0  0  0  0  0  0
  -20.1509   -4.9173   23.5384 C   0  0  0  0  0  0  0  0  0  0  0  0
  -22.5291   -5.0020   23.9556 C   0  0  0  0  0  0  0  0  0  0  0  0
  -25.0337  -11.3260   21.1963 C   0  0  0  0  0  0  0  0  0  0  0  0
  -25.0251  -13.1108   19.9121 C   0  0  0  0  0  0  0  0  0  0  0  0
  -29.0282  -24.5165   20.9086 C   0  0  0  0  0  0  0  0  0  0  0  0
  -30.3302  -24.2539   21.5370 C   0  0  0  0  0  0  0  0  0  0  0  0
  -28.4598  -23.2458   20.4152 C   0  0  0  0  0  0  0  0  0  0  0  0
  -28.4488  -25.7121   20.7997 C   0  0  0  0  0  0  0  0  0  1  0  0
  -22.7748  -12.4929   20.8082 C   0  0  0  0  0  0  0  0  0  0  0  0
  -25.9798  -32.1652   22.1338 C   0  0  0  0  0  0  0  0  0  0  0  0
  -22.9605  -31.2809   22.9242 C   0  0  0  0  0  0  0  0  0  0  0  0
  -20.5808  -28.8356   22.9885 C   0  0  0  0  0  0  0  0  0  0  0  0
  -29.7921  -15.9193   19.2872 C   0  0  0  0  0  0  0  0  0  0  0  0
  -27.2489  -37.0041   23.1497 C   0  0  0  0  0  0  0  0  0  0  0  0
  -25.1628  -31.1708   19.9660 C   0  0  0  0  0  0  0  0  0  0  0  0
  -24.5453  -29.4286   22.2742 C   0  0  0  0  0  0  0  0  0  0  0  0
  -30.6150  -22.7835   21.4496 C   0  0  0  0  0  0  0  0  0  0  0  0
  -26.3428  -35.9556   23.7899 C   0  0  0  0  0  0  0  0  0  0  0  0
  -29.8482  -12.4407   18.5300 C   0  0  0  0  0  0  0  0  0  0  0  0
  -27.0846  -34.6316   23.9444 C   0  0  0  0  0  0  0  0  0  0  0  0
  -28.5312  -11.9218   19.1116 C   0  0  0  0  0  0  0  0  0  0  0  0
  -30.4647  -13.5301   19.4057 C   0  0  0  0  0  0  0  0  0  0  0  0
  -28.2525  -14.1300   20.3088 C   0  0  0  0  0  0  0  0  0  0  0  0
  -27.5103  -34.0754   22.5802 C   0  0  1  0  0  0  0  0  0  0  0  0
  -24.7835  -31.7456   21.3272 C   0  0  1  0  0  0  0  0  0  0  0  0
  -27.5609  -13.0768   19.4278 C   0  0  2  0  0  0  0  0  0  0  0  0
  -18.2235  -28.4000   23.7305 C   0  0  0  0  0  0  0  0  0  0  0  0
  -23.9110  -31.0780   25.8165 C   0  0  0  0  0  0  0  0  0  0  0  0
  -21.8458  -29.7588   26.3293 C   0  0  0  0  0  0  0  0  0  0  0  0
  -21.6528  -32.1141   25.5307 C   0  0  0  0  0  0  0  0  0  0  0  0
  -19.6949  -28.2560   20.2248 C   0  0  0  0  0  0  0  0  0  0  0  0
  -22.3539  -30.3081   23.9063 C   0  0  1  0  0  0  0  0  0  0  0  0
  -19.1179  -28.8428   22.5831 C   0  0  2  0  0  0  0  0  0  0  0  0
  -22.4589  -30.8061   25.3754 C   0  0  0  0  0  0  0  0  0  0  0  0
  -26.3087  -11.4803   20.8294 N   0  0  0  0  0  0  0  0  0  0  0  0
  -26.2713  -12.5737   20.0489 N   0  0  0  0  0  0  0  0  0  0  0  0
  -29.4213  -22.2676   20.7544 N   0  0  0  0  0  0  0  0  0  0  0  0
  -24.0250  -30.8000   22.1486 N   0  0  0  0  0  0  0  0  0  0  0  0
  -29.4893  -14.5926   19.6599 N   0  0  0  0  0  0  0  0  0  0  0  0
  -26.4989  -18.4829   20.0403 N   0  0  0  0  0  0  0  0  0  0  0  0
  -24.8085  -14.2121   19.1621 N   0  0  0  0  0  0  0  0  0  0  0  0
  -22.0684  -11.5824   21.6060 N   0  0  0  0  0  0  0  0  0  0  0  0
  -28.7758  -16.8378   19.5484 N   0  0  0  0  0  0  0  0  0  0  0  0
  -26.3820  -33.4677   21.9078 N   0  0  0  0  0  0  0  0  0  0  0  0
  -20.9882  -30.0684   23.4528 N   0  0  0  0  0  0  0  0  0  0  0  0
  -18.8950  -27.9233   21.4316 N   0  3  0  0  0  0  0  0  0  0  0  0
  -31.0576  -25.0902   22.0442 O   0  0  0  0  0  0  0  0  0  0  0  0
  -27.3912  -23.1125   19.8447 O   0  0  0  0  0  0  0  0  0  0  0  0
  -22.1534  -13.4235   20.2415 O   0  0  0  0  0  0  0  0  0  0  0  0
  -26.4985  -31.3668   22.9053 O   0  0  0  0  0  0  0  0  0  0  0  0
  -22.5020  -32.4232   22.8429 O   0  0  0  0  0  0  0  0  0  0  0  0
  -21.2902  -27.8354   22.9055 O   0  0  0  0  0  0  0  0  0  0  0  0
  -30.8624  -16.2141   18.7492 O   0  0  0  0  0  0  0  0  0  0  0  0
  -23.5690   -7.0929   24.5434 O   0  0  0  0  0  0  0  0  0  0  0  0
  -27.2335  -25.9032   20.2046 O   0  0  0  0  0  0  0  0  0  1  0  0
  -19.0534   -4.2194   23.2177 F   0  0  0  0  0  0  0  0  0  0  0  0
  -23.7133   -4.3796   24.0336 F   0  0  0  0  0  0  0  0  0  0  0  0
  1  2  1  0  0  0  0
  1  5  2  0  0  0  0
  2  6  2  0  0  0  0
  3 10  2  0  0  0  0
  3 18  1  0  0  0  0
  4 11  1  0  0  0  0
  4 18  2  0  0  0  0
  5 20  1  0  0  0  0
  6 22  1  0  0  0  0
  7 12  2  0  0  0  0
  7 21  1  0  0  0  0
  8  9  2  0  0  0  0
  8 24  1  0  0  0  0
  9 25  1  0  0  0  0
 10 27  1  0  0  0  0
 11 27  2  0  0  0  0
 12 28  1  0  0  0  0
 13 14  2  0  0  0  0
 13 29  1  0  0  0  0
 14 30  1  0  0  0  0
 15 23  1  0  0  0  0
 15 28  2  0  0  0  0
 16 24  2  0  0  0  0
 16 26  1  0  0  0  0
 17 30  2  0  0  0  0
 17 31  1  0  0  0  0
 18 32  1  0  0  0  0
 19 32  1  0  0  0  0
 19 33  2  0  0  0  0
 19 38  1  0  0  0  0
 20 22  2  0  0  0  0
 20 43  1  0  0  0  0
 21 23  2  0  0  0  0
 21 44  1  0  0  0  0
 22 53  1  0  0  0  0
 23 45  1  0  0  0  0
 24 66  1  0  0  0  0
 25 26  2  0  0  0  0
 25 72  1  0  0  0  0
 26 69  1  0  0  0  0
 27 83  1  0  0  0  0
 28 84  1  0  0  0  0
 29 31  2  0  0  0  0
 29 83  1  0  0  0  0
 30 85  1  0  0  0  0
 31 86  1  0  0  0  0
 32 64  2  0  0  0  0
 33 65  1  0  0  0  0
 33 70  1  0  0  0  0
 34 35  1  0  0  0  0
 34 36  1  0  0  0  0
 34 37  2  0  0  0  0
 35 46  1  0  0  0  0
 35 76  2  0  0  0  0
 36 66  1  0  0  0  0
 36 77  2  0  0  0  0
 37 84  1  0  0  0  0
 38 71  1  0  0  0  0
 38 78  2  0  0  0  0
 39 54  1  0  0  0  0
 39 73  1  0  0  0  0
 39 79  2  0  0  0  0
 40 61  1  0  0  0  0
 40 67  1  0  0  0  0
 40 80  2  0  0  0  0
 41 62  1  0  0  0  0
 41 74  1  0  0  0  0
 41 81  2  0  0  0  0
 42 68  1  0  0  0  0
 42 72  1  0  0  0  0
 42 82  2  0  0  0  0
 43 47  1  0  0  0  0
 44 54  1  0  0  0  0
 45 67  1  0  0  0  0
 46 66  1  0  0  0  0
 47 49  1  0  0  0  0
 48 50  1  0  0  0  0
 48 51  1  0  0  0  0
 49 53  1  0  0  0  0
 50 55  1  0  0  0  0
 51 68  1  0  0  0  0
 52 55  1  0  0  0  0
 52 68  1  0  0  0  0
 53 73  1  0  0  0  0
 54 67  1  0  0  0  0
 55 65  1  0  0  0  0
 56 62  1  0  0  0  0
 57 63  1  0  0  0  0
 58 63  1  0  0  0  0
 59 63  1  0  0  0  0
 60 75  1  0  0  0  0
 61 63  1  0  0  0  0
 61 74  1  0  0  0  0
 62 75  1  0  0  0  0
 64 65  1  0  0  0  0
M  CHG  1  75   1
M  ISO  4  37 101  42 100  72 100  84 101
M  END
> <Batch ID>
0089

> <Smiles>
CNC(C)C(=O)NC(C(=O)N1Cc2cc([101O:1][101CH:1]=C3C(=O)CN(c4ccc([100NH:0][100C:0](=O)N5CCCC(n6nc(-c7ccc(Oc8ccc(F)cc8F)cc7)c(C(N)=O)c6N)C5)c(N)c4)C3=O)ccc2CC1C(=O)NC1CCCc2ccccc21)C(C)(C)C

> <Shape>
0.340

> <Color>
0.109

> <Negative vol penalty>
0.000

$$$$

  -OEChem-04052300263D

 90 99  0     1  0  0  0  0  0999 V2000
  -29.2224   -9.5114   18.7566 C   0  0  0  0  0  0  0  0  0  0  0  0
  -29.4967  -10.8713   18.6525 C   0  0  0  0  0  0  0  0  0  0  0  0
  -20.8470  -27.2333   21.9283 C   0  0  0  0  0  0  0  0  0  0  0  0
  -19.3512  -28.8345   22.9459 C   0  0  0  0  0  0  0  0  0  0  0  0
  -27.9471   -9.0850   19.1250 C   0  0  0  0  0  0  0  0  0  0  0  0
  -28.4956  -11.8056   18.9157 C   0  0  0  0  0  0  0  0  0  0  0  0
  -29.1895  -17.3181   21.4918 C   0  0  0  0  0  0  0  0  0  0  0  0
  -19.9481  -26.2076   22.2208 C   0  0  0  0  0  0  0  0  0  0  0  0
  -18.4522  -27.8089   23.2384 C   0  0  0  0  0  0  0  0  0  0  0  0
  -29.2871  -18.6000   20.9523 C   0  0  0  0  0  0  0  0  0  0  0  0
  -19.0723  -24.3550   24.9088 C   0  0  0  0  0  0  0  0  0  0  0  0
  -19.5879  -23.1767   25.4484 C   0  0  0  0  0  0  0  0  0  0  0  0
  -26.9254  -18.9274   21.3186 C   0  0  0  0  0  0  0  0  0  0  0  0
  -28.5885  -27.1929   20.0999 C   0  0  0  0  0  0  0  0  0  0  0  0
  -29.7868  -25.9858   21.8157 C   0  0  0  0  0  0  0  0  0  0  0  0
  -18.7267  -21.9362   23.5625 C   0  0  0  0  0  0  0  0  0  0  0  0
  -20.5486  -28.5467   22.2909 C   0  0  0  0  0  0  0  0  0  0  0  0
  -29.1038  -28.2712   22.1996 C   0  0  0  0  0  0  0  0  0  0  0  0
  -21.5217  -30.3910   20.8214 C   0  0  0  0  0  0  0  0  0  0  0  0
  -26.9325  -10.0147   19.4023 C   0  0  0  0  0  0  0  0  0  0  0  0
  -27.9549  -16.8264   21.9394 C   0  0  0  0  0  0  0  0  0  0  0  0
  -27.2052  -11.3912   19.2868 C   0  0  0  0  0  0  0  0  0  0  0  0
  -26.8153  -17.6399   21.8657 C   0  0  0  0  0  0  0  0  0  0  0  0
  -29.2156  -26.0287   20.5439 C   0  0  0  0  0  0  0  0  0  0  0  0
  -28.5326  -28.3141   20.9278 C   0  0  0  0  0  0  0  0  0  0  0  0
  -18.7507  -26.4954   22.8759 C   0  0  0  0  0  0  0  0  0  0  0  0
  -28.1544  -19.4038   20.8630 C   0  0  0  0  0  0  0  0  0  0  0  0
  -18.3838  -24.3240   23.6960 C   0  0  0  0  0  0  0  0  0  0  0  0
  -19.4151  -21.9673   24.7753 C   0  0  0  0  0  0  0  0  0  0  0  0
  -29.7309  -27.1071   22.6436 C   0  0  0  0  0  0  0  0  0  0  0  0
  -18.2111  -23.1146   23.0229 C   0  0  0  0  0  0  0  0  0  0  0  0
  -21.4771  -29.6066   21.9895 C   0  0  0  0  0  0  0  0  0  0  0  0
  -22.5756  -31.2482   21.0236 C   0  0  0  0  0  0  0  0  0  0  0  0
  -29.4830  -22.6816   17.9963 C   0  0  0  0  0  0  0  0  0  0  0  0
  -29.3071  -25.0561   18.3249 C   0  0  0  0  0  0  0  0  0  0  0  0
  -29.4465  -22.4449   19.3146 C   0  0  0  0  0  0  0  0  0  0  0  0
  -29.4007  -24.0200   17.4864 C   0  0  0  0  0  0  0  0  0  0  0  0
  -29.2965  -23.5984   20.2759 C   0  0  0  0  0  0  0  0  0  0  0  0
  -29.0577  -29.4494   23.1032 C   0  0  0  0  0  0  0  0  0  0  0  0
  -20.6853  -30.3485   19.6576 C   0  0  0  0  0  0  0  0  0  0  0  0
  -26.0786  -14.3949   21.1203 C   0  0  0  0  0  0  0  0  0  0  0  0
  -24.3729  -15.3462   23.7102 C   0  0  0  0  0  0  0  0  0  0  0  0
  -23.5428  -17.8539   25.8711 C   0  0  0  0  0  0  0  0  0  0  0  0
  -27.5175  -30.9611   24.3141 C   0  0  0  0  0  0  0  0  0  0  0  0
  -25.5564   -9.5051   19.7509 C   0  0  0  0  0  0  0  0  0  0  0  0
  -27.8715  -15.4514   22.5434 C   0  0  0  0  0  0  0  0  0  0  0  0
  -25.4703  -17.1665   22.3509 C   0  0  0  0  0  0  0  0  0  0  0  0
  -24.6547  -10.5658   20.3770 C   0  0  0  0  0  0  0  0  0  0  0  0
  -25.0041  -33.4378   24.5288 C   0  0  0  0  0  0  0  0  0  0  0  0
  -24.7287  -11.8660   19.5826 C   0  0  0  0  0  0  0  0  0  0  0  0
  -23.8205  -32.8168   23.7819 C   0  0  0  0  0  0  0  0  0  0  0  0
  -25.7741  -32.3955   25.3384 C   0  0  0  0  0  0  0  0  0  0  0  0
  -25.0198  -30.5936   23.8410 C   0  0  0  0  0  0  0  0  0  0  0  0
  -26.1524  -12.4356   19.5884 C   0  0  1  0  0  0  0  0  0  0  0  0
  -26.4653  -14.8618   22.4951 C   0  0  1  0  0  0  0  0  0  0  0  0
  -24.2543  -31.5898   22.9550 C   0  0  1  0  0  0  0  0  0  0  0  0
  -22.0947  -18.3398   27.8621 C   0  0  0  0  0  0  0  0  0  0  0  0
  -21.9231  -15.4694   21.8954 C   0  0  0  0  0  0  0  0  0  0  0  0
  -20.7762  -16.8346   23.6529 C   0  0  0  0  0  0  0  0  0  0  0  0
  -21.4954  -14.5007   24.1610 C   0  0  0  0  0  0  0  0  0  0  0  0
  -25.8837  -18.5088   27.5595 C   0  0  0  0  0  0  0  0  0  0  0  0
  -29.5353  -21.0805   19.8946 C   0  0  0  0  0  0  0  0  0  1  0  0
  -23.2412  -16.3168   23.9473 C   0  0  1  0  0  0  0  0  0  0  0  0
  -23.4689  -17.8942   27.3868 C   0  0  2  0  0  0  0  0  0  0  0  0
  -21.8838  -15.7889   23.4031 C   0  0  0  0  0  0  0  0  0  0  0  0
  -22.4271  -29.9362   22.8686 N   0  0  0  0  0  0  0  0  0  0  0  0
  -23.0788  -30.9371   22.2525 N   0  0  0  0  0  0  0  0  0  0  0  0
  -29.2730  -24.9002   19.7101 N   0  0  0  0  0  0  0  0  0  0  0  0
  -25.4388  -15.8123   22.9276 N   0  0  0  0  0  0  0  0  0  0  0  0
  -26.1567  -31.2718   24.4816 N   0  0  0  0  0  0  0  0  0  0  0  0
  -27.8927  -29.4834   20.4590 N   0  0  0  0  0  0  0  0  0  0  0  0
  -23.1119  -32.2302   20.2682 N   0  0  0  0  0  0  0  0  0  0  0  0
  -19.6485  -29.4065   19.6141 N   0  0  0  0  0  0  0  0  0  0  0  0
  -27.7812  -29.8982   23.4430 N   0  0  0  0  0  0  0  0  0  0  0  0
  -26.4313  -13.0863   20.8506 N   0  0  0  0  0  0  0  0  0  0  0  0
  -23.2411  -16.6021   25.3781 N   0  0  0  0  0  0  0  0  0  0  0  0
  -24.4838  -18.8407   27.9299 N   0  3  0  0  0  0  0  0  0  0  0  0
  -29.2217  -23.3750   21.4855 O   0  0  0  0  0  0  0  0  0  0  0  0
  -30.1103  -29.9244   23.5207 O   0  0  0  0  0  0  0  0  0  0  0  0
  -20.8627  -31.1120   18.6783 O   0  0  0  0  0  0  0  0  0  0  0  0
  -25.5016  -15.1644   20.3609 O   0  0  0  0  0  0  0  0  0  0  0  0
  -24.3166  -14.2186   24.2071 O   0  0  0  0  0  0  0  0  0  0  0  0
  -23.8352  -18.8358   25.1921 O   0  0  0  0  0  0  0  0  0  0  0  0
  -28.4217  -31.5990   24.8625 O   0  0  0  0  0  0  0  0  0  0  0  0
  -29.4373  -24.1384   16.1185 O   0  0  0  0  0  0  0  0  0  0  0  0
  -17.8732  -25.4949   23.1612 O   0  0  0  0  0  0  0  0  0  0  0  0
  -28.2467  -20.6551   20.3362 O   0  0  0  0  0  0  0  0  0  1  0  0
  -19.9117  -20.8360   25.2928 F   0  0  0  0  0  0  0  0  0  0  0  0
  -30.2825  -27.0530   23.8643 F   0  0  0  0  0  0  0  0  0  0  0  0
  -17.5516  -23.0787   21.8568 F   0  0  0  0  0  0  0  0  0  0  0  0
  1  2  1  0  0  0  0
  1  5  2  0  0  0  0
  2  6  2  0  0  0  0
  3  8  2  0  0  0  0
  3 17  1  0  0  0  0
  4  9  1  0  0  0  0
  4 17  2  0  0  0  0
  5 20  1  0  0  0  0
  6 22  1  0  0  0  0
  7 10  2  0  0  0  0
  7 21  1  0  0  0  0
  8 26  1  0  0  0  0
  9 26  2  0  0  0  0
 10 27  1  0  0  0  0
 11 12  2  0  0  0  0
 11 28  1  0  0  0  0
 12 29  1  0  0  0  0
 13 23  1  0  0  0  0
 13 27  2  0  0  0  0
 14 24  1  0  0  0  0
 14 25  2  0  0  0  0
 15 24  2  0  0  0  0
 15 30  1  0  0  0  0
 16 29  2  0  0  0  0
 16 31  1  0  0  0  0
 17 32  1  0  0  0  0
 18 25  1  0  0  0  0
 18 30  2  0  0  0  0
 18 39  1  0  0  0  0
 19 32  1  0  0  0  0
 19 33  2  0  0  0  0
 19 40  1  0  0  0  0
 20 22  2  0  0  0  0
 20 45  1  0  0  0  0
 21 23  2  0  0  0  0
 21 46  1  0  0  0  0
 22 54  1  0  0  0  0
 23 47  1  0  0  0  0
 24 68  1  0  0  0  0
 25 71  1  0  0  0  0
 26 86  1  0  0  0  0
 27 87  1  0  0  0  0
 28 31  2  0  0  0  0
 28 86  1  0  0  0  0
 29 88  1  0  0  0  0
 30 89  1  0  0  0  0
 31 90  1  0  0  0  0
 32 66  2  0  0  0  0
 33 67  1  0  0  0  0
 33 72  1  0  0  0  0
 34 36  2  0  0  0  0
 34 37  1  0  0  0  0
 35 37  2  0  0  0  0
 35 68  1  0  0  0  0
 36 38  1  0  0  0  0
 36 62  1  0  0  0  0
 37 85  1  0  0  0  0
 38 68  1  0  0  0  0
 38 78  2  0  0  0  0
 39 74  1  0  0  0  0
 39 79  2  0  0  0  0
 40 73  1  0  0  0  0
 40 80  2  0  0  0  0
 41 55  1  0  0  0  0
 41 75  1  0  0  0  0
 41 81  2  0  0  0  0
 42 63  1  0  0  0  0
 42 69  1  0  0  0  0
 42 82  2  0  0  0  0
 43 64  1  0  0  0  0
 43 76  1  0  0  0  0
 43 83  2  0  0  0  0
 44 70  1  0  0  0  0
 44 74  1  0  0  0  0
 44 84  2  0  0  0  0
 45 48  1  0  0  0  0
 46 55  1  0  0  0  0
 47 69  1  0  0  0  0
 48 50  1  0  0  0  0
 49 51  1  0  0  0  0
 49 52  1  0  0  0  0
 50 54  1  0  0  0  0
 51 56  1  0  0  0  0
 52 70  1  0  0  0  0
 53 56  1  0  0  0  0
 53 70  1  0  0  0  0
 54 75  1  0  0  0  0
 55 69  1  0  0  0  0
 56 67  1  0  0  0  0
 57 64  1  0  0  0  0
 58 65  1  0  0  0  0
 59 65  1  0  0  0  0
 60 65  1  0  0  0  0
 61 77  1  0  0  0  0
 62 87  1  0  0  0  0
 63 65  1  0  0  0  0
 63 76  1  0  0  0  0
 64 77  1  0  0  0  0
 66 67  1  0  0  0  0
M  CHG  1  77   1
M  ISO  4  44 100  62 101  74 100  87 101
M  END
> <Batch ID>
0089

> <Smiles>
CNC(C)C(=O)NC(C(=O)N1Cc2cc([101O:1][101CH2:1]C3=CC(=O)CN(c4cc(N)c(C(=O)[100NH:0][100C:0](=O)N5CCCC(n6nc(-c7ccc(Oc8ccc(F)cc8F)cc7)c(C(N)=O)c6N)C5)c(F)c4)C3=O)ccc2CC1C(=O)NC1CCCc2ccccc21)C(C)(C)C

> <Shape>
0.269

> <Color>
0.038

> <Negative vol penalty>
0.000

$$$$

  -OEChem-04052300263D

 86 94  0     1  0  0  0  0  0999 V2000
  -28.6974  -33.4805   18.9020 C   0  0  0  0  0  0  0  0  0  0  0  0
  -28.2657  -32.4259   18.1040 C   0  0  0  0  0  0  0  0  0  0  0  0
  -23.1679  -10.4323   18.7435 C   0  0  0  0  0  0  0  0  0  0  0  0
  -22.9370  -10.0865   21.1234 C   0  0  0  0  0  0  0  0  0  0  0  0
  -28.3605  -17.6376   17.4094 C   0  0  0  0  0  0  0  0  0  0  0  0
  -28.7937  -33.3141   20.2830 C   0  0  0  0  0  0  0  0  0  0  0  0
  -27.9310  -31.2039   18.6864 C   0  0  0  0  0  0  0  0  0  0  0  0
  -23.5392  -27.3408   16.8715 C   0  0  0  0  0  0  0  0  0  0  0  0
  -27.4722  -18.5750   16.8824 C   0  0  0  0  0  0  0  0  0  0  0  0
  -22.2959   -9.3703   18.5045 C   0  0  0  0  0  0  0  0  0  0  0  0
  -22.0649   -9.0245   20.8845 C   0  0  0  0  0  0  0  0  0  0  0  0
  -23.5711  -26.1802   16.0996 C   0  0  0  0  0  0  0  0  0  0  0  0
  -18.8147   -8.6105   20.0565 C   0  0  0  0  0  0  0  0  0  0  0  0
  -17.6496   -8.5462   20.8206 C   0  0  0  0  0  0  0  0  0  0  0  0
  -29.6723  -19.4227   18.3737 C   0  0  0  0  0  0  0  0  0  0  0  0
  -23.6557  -24.8517   18.1113 C   0  0  0  0  0  0  0  0  0  0  0  0
  -18.3279   -6.3899   21.6735 C   0  0  0  0  0  0  0  0  0  0  0  0
  -23.4886  -10.7904   20.0529 C   0  0  0  0  0  0  0  0  0  0  0  0
  -29.4606  -18.0615   18.1551 C   0  0  0  0  0  0  0  0  0  0  0  0
  -24.0527  -13.2439   20.4650 C   0  0  0  0  0  0  0  0  0  0  0  0
  -28.4509  -32.0925   20.8836 C   0  0  0  0  0  0  0  0  0  0  0  0
  -23.5764  -27.2658   18.2713 C   0  0  0  0  0  0  0  0  0  0  0  0
  -28.0241  -31.0206   20.0765 C   0  0  0  0  0  0  0  0  0  0  0  0
  -23.6216  -26.0127   18.8988 C   0  0  0  0  0  0  0  0  0  0  0  0
  -27.6839  -19.9363   17.1011 C   0  0  0  0  0  0  0  0  0  0  0  0
  -28.7839  -20.3602   17.8467 C   0  0  0  0  0  0  0  0  0  0  0  0
  -21.7443   -8.6664   19.5750 C   0  0  0  0  0  0  0  0  0  0  0  0
  -23.6323  -24.9355   16.7194 C   0  0  0  0  0  0  0  0  0  0  0  0
  -19.7364   -7.5644   20.1008 C   0  0  0  0  0  0  0  0  0  0  0  0
  -17.4061   -7.4359   21.6291 C   0  0  0  0  0  0  0  0  0  0  0  0
  -19.4930   -6.4542   20.9093 C   0  0  0  0  0  0  0  0  0  0  0  0
  -24.3898  -11.8871   20.3004 C   0  0  0  0  0  0  0  0  0  0  0  0
  -25.2553  -13.8736   20.6740 C   0  0  0  0  0  0  0  0  0  0  0  0
  -30.4062  -17.0626   18.7163 C   0  0  0  0  0  0  0  0  0  0  0  0
  -22.7674  -13.8784   20.4320 C   0  0  0  0  0  0  0  0  0  0  0  0
  -24.9130  -21.8320   15.4018 C   0  0  0  0  0  0  0  0  0  0  0  0
  -25.6473  -20.5873   15.8083 C   0  0  0  0  0  0  0  0  0  0  0  0
  -25.5772  -28.2878   20.5199 C   0  0  0  0  0  0  0  0  0  0  0  0
  -23.2721  -27.1900   22.5209 C   0  0  0  0  0  0  0  0  0  0  0  0
  -20.6294  -25.0893   23.0209 C   0  0  0  0  0  0  0  0  0  0  0  0
  -30.5959  -14.7096   19.4586 C   0  0  0  0  0  0  0  0  0  0  0  0
  -28.6163  -31.9454   22.3754 C   0  0  0  0  0  0  0  0  0  0  0  0
  -23.5144  -28.5259   19.0902 C   0  0  0  0  0  0  0  0  0  0  0  0
  -23.6431  -25.8771   20.3987 C   0  0  0  0  0  0  0  0  0  0  0  0
  -27.8850  -30.7363   22.9531 C   0  0  0  0  0  0  0  0  0  0  0  0
  -29.8627  -11.9691   21.5680 C   0  0  0  0  0  0  0  0  0  0  0  0
  -28.1485  -29.4971   22.1036 C   0  0  0  0  0  0  0  0  0  0  0  0
  -28.3438  -11.8174   21.4481 C   0  0  0  0  0  0  0  0  0  0  0  0
  -30.5011  -12.3572   20.2350 C   0  0  0  0  0  0  0  0  0  0  0  0
  -28.3993  -13.3782   19.4619 C   0  0  0  0  0  0  0  0  0  0  0  0
  -27.6284  -29.6876   20.6737 C   0  0  1  0  0  0  0  0  0  0  0  0
  -24.0761  -28.3520   20.4979 C   0  0  1  0  0  0  0  0  0  0  0  0
  -27.7015  -13.0568   20.7934 C   0  0  1  0  0  0  0  0  0  0  0  0
  -18.9720  -24.3906   24.7708 C   0  0  0  0  0  0  0  0  0  0  0  0
  -25.4365  -25.5502   23.9126 C   0  0  0  0  0  0  0  0  0  0  0  0
  -23.6237  -24.1944   24.9821 C   0  0  0  0  0  0  0  0  0  0  0  0
  -23.7967  -26.6373   25.4565 C   0  0  0  0  0  0  0  0  0  0  0  0
  -18.3387  -25.9858   21.3752 C   0  0  0  0  0  0  0  0  0  0  0  0
  -24.3550  -22.6790   16.5157 C   0  0  0  0  0  0  0  0  0  1  0  0
  -22.9781  -25.8696   23.1910 C   0  0  1  0  0  0  0  0  0  0  0  0
  -19.2493  -25.3284   23.6062 C   0  0  2  0  0  0  0  0  0  0  0  0
  -23.9603  -25.5652   24.3572 C   0  0  0  0  0  0  0  0  0  0  0  0
  -25.7037  -11.6669   20.3964 N   0  0  0  0  0  0  0  0  0  0  0  0
  -26.2028  -12.8939   20.6235 N   0  0  0  0  0  0  0  0  0  0  0  0
  -23.5871  -27.1386   21.1557 N   0  0  0  0  0  0  0  0  0  0  0  0
  -29.8432  -13.5442   19.6862 N   0  0  0  0  0  0  0  0  0  0  0  0
  -29.0175  -21.7337   18.0817 N   0  0  0  0  0  0  0  0  0  0  0  0
  -25.5842  -15.1643   20.8942 N   0  0  0  0  0  0  0  0  0  0  0  0
  -21.6355  -13.0834   20.2059 N   0  0  0  0  0  0  0  0  0  0  0  0
  -26.7690  -20.8684   16.5581 N   0  0  0  0  0  0  0  0  0  0  0  0
  -29.8676  -15.8015   18.9733 N   0  0  0  0  0  0  0  0  0  0  0  0
  -26.1915  -29.5204   20.6320 N   0  0  0  0  0  0  0  0  0  0  0  0
  -21.5751  -25.9168   23.5883 N   0  0  0  0  0  0  0  0  0  0  0  0
  -18.2018  -25.1116   22.5685 N   0  3  0  0  0  0  0  0  0  0  0  0
  -31.5814  -17.3783   18.8809 O   0  0  0  0  0  0  0  0  0  0  0  0
  -22.6284  -15.1160   20.5818 O   0  0  0  0  0  0  0  0  0  0  0  0
  -24.8027  -22.0586   14.2063 O   0  0  0  0  0  0  0  0  0  0  0  0
  -25.1873  -19.5283   15.4145 O   0  0  0  0  0  0  0  0  0  0  0  0
  -26.1365  -27.2002   20.4426 O   0  0  0  0  0  0  0  0  0  0  0  0
  -23.2170  -28.2295   23.1828 O   0  0  0  0  0  0  0  0  0  0  0  0
  -20.8473  -24.2497   22.1502 O   0  0  0  0  0  0  0  0  0  0  0  0
  -31.8043  -14.7838   19.7024 O   0  0  0  0  0  0  0  0  0  0  0  0
  -20.8931   -7.6301   19.3422 O   0  0  0  0  0  0  0  0  0  0  0  0
  -23.6641  -23.8012   15.9683 O   0  0  0  0  0  0  0  0  0  1  0  0
  -16.2879   -7.3750   22.3640 F   0  0  0  0  0  0  0  0  0  0  0  0
  -20.3754   -5.4467   20.9569 F   0  0  0  0  0  0  0  0  0  0  0  0
  1  2  1  0  0  0  0
  1  6  2  0  0  0  0
  2  7  2  0  0  0  0
  3 10  2  0  0  0  0
  3 18  1  0  0  0  0
  4 11  1  0  0  0  0
  4 18  2  0  0  0  0
  5  9  2  0  0  0  0
  5 19  1  0  0  0  0
  6 21  1  0  0  0  0
  7 23  1  0  0  0  0
  8 12  2  0  0  0  0
  8 22  1  0  0  0  0
  9 25  1  0  0  0  0
 10 27  1  0  0  0  0
 11 27  2  0  0  0  0
 12 28  1  0  0  0  0
 13 14  2  0  0  0  0
 13 29  1  0  0  0  0
 14 30  1  0  0  0  0
 15 19  2  0  0  0  0
 15 26  1  0  0  0  0
 16 24  1  0  0  0  0
 16 28  2  0  0  0  0
 17 30  2  0  0  0  0
 17 31  1  0  0  0  0
 18 32  1  0  0  0  0
 19 34  1  0  0  0  0
 20 32  1  0  0  0  0
 20 33  2  0  0  0  0
 20 35  1  0  0  0  0
 21 23  2  0  0  0  0
 21 42  1  0  0  0  0
 22 24  2  0  0  0  0
 22 43  1  0  0  0  0
 23 51  1  0  0  0  0
 24 44  1  0  0  0  0
 25 26  2  0  0  0  0
 25 70  1  0  0  0  0
 26 67  1  0  0  0  0
 27 83  1  0  0  0  0
 28 84  1  0  0  0  0
 29 31  2  0  0  0  0
 29 83  1  0  0  0  0
 30 85  1  0  0  0  0
 31 86  1  0  0  0  0
 32 63  2  0  0  0  0
 33 64  1  0  0  0  0
 33 68  1  0  0  0  0
 34 71  1  0  0  0  0
 34 75  2  0  0  0  0
 35 69  1  0  0  0  0
 35 76  2  0  0  0  0
 36 37  1  0  0  0  0
 36 59  1  0  0  0  0
 36 77  2  0  0  0  0
 37 70  1  0  0  0  0
 37 78  2  0  0  0  0
 38 52  1  0  0  0  0
 38 72  1  0  0  0  0
 38 79  2  0  0  0  0
 39 60  1  0  0  0  0
 39 65  1  0  0  0  0
 39 80  2  0  0  0  0
 40 61  1  0  0  0  0
 40 73  1  0  0  0  0
 40 81  2  0  0  0  0
 41 66  1  0  0  0  0
 41 71  1  0  0  0  0
 41 82  2  0  0  0  0
 42 45  1  0  0  0  0
 43 52  1  0  0  0  0
 44 65  1  0  0  0  0
 45 47  1  0  0  0  0
 46 48  1  0  0  0  0
 46 49  1  0  0  0  0
 47 51  1  0  0  0  0
 48 53  1  0  0  0  0
 49 66  1  0  0  0  0
 50 53  1  0  0  0  0
 50 66  1  0  0  0  0
 51 72  1  0  0  0  0
 52 65  1  0  0  0  0
 53 64  1  0  0  0  0
 54 61  1  0  0  0  0
 55 62  1  0  0  0  0
 56 62  1  0  0  0  0
 57 62  1  0  0  0  0
 58 74  1  0  0  0  0
 59 84  1  0  0  0  0
 60 62  1  0  0  0  0
 60 73  1  0  0  0  0
 61 74  1  0  0  0  0
 63 64  1  0  0  0  0
M  CHG  1  74   1
M  ISO  4  41 100  59 101  71 100  84 101
M  END
> <Batch ID>
0089

> <Smiles>
CNC(C)C(=O)NC(C(=O)N1Cc2cc([101O:1][101CH2:1]C(=O)C(=O)Nc3ccc(C(=O)[100NH:0][100C:0](=O)N4CCCC(n5nc(-c6ccc(Oc7ccc(F)cc7F)cc6)c(C(N)=O)c5N)C4)cc3N)ccc2CC1C(=O)NC1CCCc2ccccc21)C(C)(C)C

> <Shape>
0.193

> <Color>
0.118

> <Negative vol penalty>
0.000

$$$$

  -OEChem-04052300263D

 88 97  0     1  0  0  0  0  0999 V2000
  -30.3177  -23.7681   14.0525 C   0  0  0  0  0  0  0  0  0  0  0  0
  -30.0320  -23.2288   15.3027 C   0  0  0  0  0  0  0  0  0  0  0  0
  -31.2907  -16.4092   26.3418 C   0  0  0  0  0  0  0  0  0  0  0  0
  -23.1657  -16.0178   21.4149 C   0  0  0  0  0  0  0  0  0  0  0  0
  -22.5201  -14.9800   19.3309 C   0  0  0  0  0  0  0  0  0  0  0  0
  -31.7952  -15.8521   25.1667 C   0  0  0  0  0  0  0  0  0  0  0  0
  -30.3488  -25.1515   13.8820 C   0  0  0  0  0  0  0  0  0  0  0  0
  -29.7782  -24.0727   16.3834 C   0  0  0  0  0  0  0  0  0  0  0  0
  -25.7795  -22.5862   19.1121 C   0  0  0  0  0  0  0  0  0  0  0  0
  -30.0805  -17.1026   26.3213 C   0  0  0  0  0  0  0  0  0  0  0  0
  -22.1610  -16.9715   21.2512 C   0  0  0  0  0  0  0  0  0  0  0  0
  -21.5154  -15.9336   19.1672 C   0  0  0  0  0  0  0  0  0  0  0  0
  -25.9706  -21.5245   19.9953 C   0  0  0  0  0  0  0  0  0  0  0  0
  -21.6826  -19.8045   19.4709 C   0  0  0  0  0  0  0  0  0  0  0  0
  -22.0093  -21.1378   19.7176 C   0  0  0  0  0  0  0  0  0  0  0  0
  -29.8795  -16.6819   23.9508 C   0  0  0  0  0  0  0  0  0  0  0  0
  -26.1692  -23.0877   21.8218 C   0  0  0  0  0  0  0  0  0  0  0  0
  -20.3267  -21.2297   21.4490 C   0  0  0  0  0  0  0  0  0  0  0  0
  -23.3453  -15.0221   20.4547 C   0  0  0  0  0  0  0  0  0  0  0  0
  -31.0896  -15.9885   23.9712 C   0  0  0  0  0  0  0  0  0  0  0  0
  -24.2778  -12.7937   21.2746 C   0  0  0  0  0  0  0  0  0  0  0  0
  -30.0857  -26.0127   14.9588 C   0  0  0  0  0  0  0  0  0  0  0  0
  -25.7928  -23.9094   19.5762 C   0  0  0  0  0  0  0  0  0  0  0  0
  -29.8071  -25.4690   16.2273 C   0  0  0  0  0  0  0  0  0  0  0  0
  -25.9755  -24.1643   20.9428 C   0  0  0  0  0  0  0  0  0  0  0  0
  -29.3749  -17.2390   25.1258 C   0  0  0  0  0  0  0  0  0  0  0  0
  -21.3358  -16.9294   20.1274 C   0  0  0  0  0  0  0  0  0  0  0  0
  -26.1684  -21.7753   21.3500 C   0  0  0  0  0  0  0  0  0  0  0  0
  -20.6779  -19.1837   20.2131 C   0  0  0  0  0  0  0  0  0  0  0  0
  -21.3314  -21.8505   20.7067 C   0  0  0  0  0  0  0  0  0  0  0  0
  -20.0000  -19.8963   21.2022 C   0  0  0  0  0  0  0  0  0  0  0  0
  -24.3833  -14.0371   20.6229 C   0  0  0  0  0  0  0  0  0  0  0  0
  -25.5295  -12.2396   21.1618 C   0  0  0  0  0  0  0  0  0  0  0  0
  -25.7262  -19.3481   25.1762 C   0  0  0  0  0  0  0  0  0  0  0  0
  -27.0884  -17.5004   25.8885 C   0  0  0  0  0  0  0  0  0  0  0  0
  -26.6992  -19.8289   24.3906 C   0  0  0  0  0  0  0  0  0  0  0  0
  -25.9204  -18.1476   25.9371 C   0  0  0  0  0  0  0  0  0  0  0  0
  -28.0098  -19.0881   24.2879 C   0  0  0  0  0  0  0  0  0  0  0  0
  -31.6282  -15.3946   22.7206 C   0  0  0  0  0  0  0  0  0  0  0  0
  -23.1492  -12.1932   21.9237 C   0  0  0  0  0  0  0  0  0  0  0  0
  -27.6009  -26.4637   19.0195 C   0  0  0  0  0  0  0  0  0  0  0  0
  -25.4004  -27.9451   20.8865 C   0  0  0  0  0  0  0  0  0  0  0  0
  -23.0222  -27.6887   23.3206 C   0  0  0  0  0  0  0  0  0  0  0  0
  -30.9767  -14.5241   20.4976 C   0  0  0  0  0  0  0  0  0  0  0  0
  -30.1773  -27.5017   14.7367 C   0  0  0  0  0  0  0  0  0  0  0  0
  -25.5585  -25.0421   18.6147 C   0  0  0  0  0  0  0  0  0  0  0  0
  -25.9782  -25.5656   21.4947 C   0  0  0  0  0  0  0  0  0  0  0  0
  -29.5283  -28.3242   15.8469 C   0  0  0  0  0  0  0  0  0  0  0  0
  -29.3855  -12.2443   18.3141 C   0  0  0  0  0  0  0  0  0  0  0  0
  -29.9537  -27.8029   17.2158 C   0  0  0  0  0  0  0  0  0  0  0  0
  -27.9126  -12.3179   18.7260 C   0  0  0  0  0  0  0  0  0  0  0  0
  -30.0624  -13.6126   18.3812 C   0  0  0  0  0  0  0  0  0  0  0  0
  -28.4478  -14.3907   20.0681 C   0  0  0  0  0  0  0  0  0  0  0  0
  -29.5020  -26.3515   17.4182 C   0  0  1  0  0  0  0  0  0  0  0  0
  -26.1041  -26.3751   19.1175 C   0  0  1  0  0  0  0  0  0  0  0  0
  -27.7399  -13.0262   20.0846 C   0  0  1  0  0  0  0  0  0  0  0  0
  -21.4217  -29.0773   24.6650 C   0  0  0  0  0  0  0  0  0  0  0  0
  -27.7151  -28.9453   22.6045 C   0  0  0  0  0  0  0  0  0  0  0  0
  -26.0564  -29.4898   24.3991 C   0  0  0  0  0  0  0  0  0  0  0  0
  -25.9194  -30.6352   22.1873 C   0  0  0  0  0  0  0  0  0  0  0  0
  -20.6786  -26.2305   22.2527 C   0  0  0  0  0  0  0  0  0  0  0  0
  -26.5526  -21.0704   23.5886 C   0  0  0  0  0  0  0  0  0  1  0  0
  -25.2538  -28.2028   22.3667 C   0  0  1  0  0  0  0  0  0  0  0  0
  -21.6099  -28.2380   23.4109 C   0  0  2  0  0  0  0  0  0  0  0  0
  -26.2381  -29.2918   22.8790 C   0  0  0  0  0  0  0  0  0  0  0  0
  -25.6055  -14.2602   20.1326 N   0  0  0  0  0  0  0  0  0  0  0  0
  -26.2795  -13.1495   20.4765 N   0  0  0  0  0  0  0  0  0  0  0  0
  -28.1565  -17.9369   25.1056 N   0  0  0  0  0  0  0  0  0  0  0  0
  -25.7512  -26.6398   20.5137 N   0  0  0  0  0  0  0  0  0  0  0  0
  -29.8608  -14.2119   19.7016 N   0  0  0  0  0  0  0  0  0  0  0  0
  -26.0507  -11.0678   21.5831 N   0  0  0  0  0  0  0  0  0  0  0  0
  -21.9387  -12.8992   21.9480 N   0  0  0  0  0  0  0  0  0  0  0  0
  -30.6776  -15.0529   21.7582 N   0  0  0  0  0  0  0  0  0  0  0  0
  -28.0914  -26.3011   17.7379 N   0  0  0  0  0  0  0  0  0  0  0  0
  -23.8466  -28.5170   22.5889 N   0  0  0  0  0  0  0  0  0  0  0  0
  -20.6213  -27.1232   23.4388 N   0  3  0  0  0  0  0  0  0  0  0  0
  -28.8881  -19.5095   23.5331 O   0  0  0  0  0  0  0  0  0  0  0  0
  -32.8434  -15.2773   22.5892 O   0  0  0  0  0  0  0  0  0  0  0  0
  -23.2167  -11.0712   22.4805 O   0  0  0  0  0  0  0  0  0  0  0  0
  -28.2617  -26.6662   20.0314 O   0  0  0  0  0  0  0  0  0  0  0  0
  -25.2036  -28.8661   20.0899 O   0  0  0  0  0  0  0  0  0  0  0  0
  -23.3611  -26.6324   23.8497 O   0  0  0  0  0  0  0  0  0  0  0  0
  -32.1380  -14.3148   20.1332 O   0  0  0  0  0  0  0  0  0  0  0  0
  -24.8494  -17.7456   26.6973 O   0  0  0  0  0  0  0  0  0  0  0  0
  -20.3552  -17.8596   19.9675 O   0  0  0  0  0  0  0  0  0  0  0  0
  -26.3557  -20.7409   22.2142 O   0  0  0  0  0  0  0  0  0  1  0  0
  -21.6463  -23.1305   20.9446 F   0  0  0  0  0  0  0  0  0  0  0  0
  -19.0347  -19.3050   21.9193 F   0  0  0  0  0  0  0  0  0  0  0  0
  1  2  1  0  0  0  0
  1  7  2  0  0  0  0
  2  8  2  0  0  0  0
  3  6  1  0  0  0  0
  3 10  2  0  0  0  0
  4 11  2  0  0  0  0
  4 19  1  0  0  0  0
  5 12  1  0  0  0  0
  5 19  2  0  0  0  0
  6 20  2  0  0  0  0
  7 22  1  0  0  0  0
  8 24  1  0  0  0  0
  9 13  2  0  0  0  0
  9 23  1  0  0  0  0
 10 26  1  0  0  0  0
 11 27  1  0  0  0  0
 12 27  2  0  0  0  0
 13 28  1  0  0  0  0
 14 15  2  0  0  0  0
 14 29  1  0  0  0  0
 15 30  1  0  0  0  0
 16 20  1  0  0  0  0
 16 26  2  0  0  0  0
 17 25  1  0  0  0  0
 17 28  2  0  0  0  0
 18 30  2  0  0  0  0
 18 31  1  0  0  0  0
 19 32  1  0  0  0  0
 20 39  1  0  0  0  0
 21 32  1  0  0  0  0
 21 33  2  0  0  0  0
 21 40  1  0  0  0  0
 22 24  2  0  0  0  0
 22 45  1  0  0  0  0
 23 25  2  0  0  0  0
 23 46  1  0  0  0  0
 24 54  1  0  0  0  0
 25 47  1  0  0  0  0
 26 68  1  0  0  0  0
 27 85  1  0  0  0  0
 28 86  1  0  0  0  0
 29 31  2  0  0  0  0
 29 85  1  0  0  0  0
 30 87  1  0  0  0  0
 31 88  1  0  0  0  0
 32 66  2  0  0  0  0
 33 67  1  0  0  0  0
 33 71  1  0  0  0  0
 34 36  2  0  0  0  0
 34 37  1  0  0  0  0
 35 37  2  0  0  0  0
 35 68  1  0  0  0  0
 36 38  1  0  0  0  0
 36 62  1  0  0  0  0
 37 84  1  0  0  0  0
 38 68  1  0  0  0  0
 38 77  2  0  0  0  0
 39 73  1  0  0  0  0
 39 78  2  0  0  0  0
 40 72  1  0  0  0  0
 40 79  2  0  0  0  0
 41 55  1  0  0  0  0
 41 74  1  0  0  0  0
 41 80  2  0  0  0  0
 42 63  1  0  0  0  0
 42 69  1  0  0  0  0
 42 81  2  0  0  0  0
 43 64  1  0  0  0  0
 43 75  1  0  0  0  0
 43 82  2  0  0  0  0
 44 70  1  0  0  0  0
 44 73  1  0  0  0  0
 44 83  2  0  0  0  0
 45 48  1  0  0  0  0
 46 55  1  0  0  0  0
 47 69  1  0  0  0  0
 48 50  1  0  0  0  0
 49 51  1  0  0  0  0
 49 52  1  0  0  0  0
 50 54  1  0  0  0  0
 51 56  1  0  0  0  0
 52 70  1  0  0  0  0
 53 56  1  0  0  0  0
 53 70  1  0  0  0  0
 54 74  1  0  0  0  0
 55 69  1  0  0  0  0
 56 67  1  0  0  0  0
 57 64  1  0  0  0  0
 58 65  1  0  0  0  0
 59 65  1  0  0  0  0
 60 65  1  0  0  0  0
 61 76  1  0  0  0  0
 62 86  1  0  0  0  0
 63 65  1  0  0  0  0
 63 75  1  0  0  0  0
 64 76  1  0  0  0  0
 66 67  1  0  0  0  0
M  CHG  1  76   1
M  ISO  4  44 100  62 101  73 100  86 101
M  END
> <Batch ID>
0089

> <Smiles>
CNC(C)C(=O)NC(C(=O)N1Cc2cc([101O:1][101CH:1]=C3CC(=O)CN(c4cccc(C(=O)[100NH:0][100C:0](=O)N5CCCC(n6nc(-c7ccc(Oc8ccc(F)cc8F)cc7)c(C(N)=O)c6N)C5)c4)C3=O)ccc2CC1C(=O)NC1CCCc2ccccc21)C(C)(C)C

> <Shape>
0.186

> <Color>
0.085

> <Negative vol penalty>
0.000

$$$$

  -OEChem-04052300263D

 84 92  0     1  0  0  0  0  0999 V2000
  -28.5502  -36.5485   25.1766 C   0  0  0  0  0  0  0  0  0  0  0  0
  -29.0054  -35.6339   24.2323 C   0  0  0  0  0  0  0  0  0  0  0  0
  -23.9843   -8.9280   21.0942 C   0  0  0  0  0  0  0  0  0  0  0  0
  -23.1790  -11.2019   20.9597 C   0  0  0  0  0  0  0  0  0  0  0  0
  -30.4900  -18.5303   21.4892 C   0  0  0  0  0  0  0  0  0  0  0  0
  -28.2616  -18.8093   20.5985 C   0  0  0  0  0  0  0  0  0  0  0  0
  -27.5228  -36.1941   26.0500 C   0  0  0  0  0  0  0  0  0  0  0  0
  -28.4341  -34.3639   24.1616 C   0  0  0  0  0  0  0  0  0  0  0  0
  -26.8087  -29.2286   19.4389 C   0  0  0  0  0  0  0  0  0  0  0  0
  -30.5051  -17.2105   21.0383 C   0  0  0  0  0  0  0  0  0  0  0  0
  -28.2767  -17.4894   20.1475 C   0  0  0  0  0  0  0  0  0  0  0  0
  -22.9861   -8.6294   22.0216 C   0  0  0  0  0  0  0  0  0  0  0  0
  -22.1808  -10.9032   21.8871 C   0  0  0  0  0  0  0  0  0  0  0  0
  -26.9930  -27.8630   19.2266 C   0  0  0  0  0  0  0  0  0  0  0  0
  -19.6779   -7.9316   21.9828 C   0  0  0  0  0  0  0  0  0  0  0  0
  -18.9676   -6.7435   21.8107 C   0  0  0  0  0  0  0  0  0  0  0  0
  -25.1704  -27.3888   20.7340 C   0  0  0  0  0  0  0  0  0  0  0  0
  -19.7134   -5.9834   23.9794 C   0  0  0  0  0  0  0  0  0  0  0  0
  -24.0808  -10.2143   20.5632 C   0  0  0  0  0  0  0  0  0  0  0  0
  -29.3682  -19.3297   21.2694 C   0  0  0  0  0  0  0  0  0  0  0  0
  -25.0319  -10.4125   18.2045 C   0  0  0  0  0  0  0  0  0  0  0  0
  -26.9321  -34.9224   25.9835 C   0  0  0  0  0  0  0  0  0  0  0  0
  -25.8092  -29.6849   20.3103 C   0  0  0  0  0  0  0  0  0  0  0  0
  -27.3988  -33.9916   25.0358 C   0  0  0  0  0  0  0  0  0  0  0  0
  -24.9738  -28.7607   20.9537 C   0  0  0  0  0  0  0  0  0  0  0  0
  -29.3985  -16.6900   20.3674 C   0  0  0  0  0  0  0  0  0  0  0  0
  -22.0844   -9.6169   22.4181 C   0  0  0  0  0  0  0  0  0  0  0  0
  -26.1757  -26.9428   19.8764 C   0  0  0  0  0  0  0  0  0  0  0  0
  -20.4061   -8.1455   23.1531 C   0  0  0  0  0  0  0  0  0  0  0  0
  -18.9853   -5.7695   22.8090 C   0  0  0  0  0  0  0  0  0  0  0  0
  -20.4238   -7.1715   24.1514 C   0  0  0  0  0  0  0  0  0  0  0  0
  -25.1120  -10.5235   19.6056 C   0  0  0  0  0  0  0  0  0  0  0  0
  -26.2637  -10.8231   17.7566 C   0  0  0  0  0  0  0  0  0  0  0  0
  -27.4572  -23.6335   20.3779 C   0  0  0  0  0  0  0  0  0  0  0  0
  -27.2141  -24.9408   20.4966 C   0  0  0  0  0  0  0  0  0  1  0  0
  -29.3521  -20.7349   21.7497 C   0  0  0  0  0  0  0  0  0  0  0  0
  -23.9416   -9.9772   17.3815 C   0  0  0  0  0  0  0  0  0  0  0  0
  -28.4067  -22.9681   21.3105 C   0  0  0  0  0  0  0  0  0  0  0  0
  -25.7824  -31.3536   23.0156 C   0  0  0  0  0  0  0  0  0  0  0  0
  -22.5675  -31.2362   22.5999 C   0  0  0  0  0  0  0  0  0  0  0  0
  -19.8805  -29.6468   21.2212 C   0  0  0  0  0  0  0  0  0  0  0  0
  -30.4480  -14.4226   20.0458 C   0  0  0  0  0  0  0  0  0  0  0  0
  -25.8567  -34.5685   26.9800 C   0  0  0  0  0  0  0  0  0  0  0  0
  -25.6058  -31.1620   20.5080 C   0  0  0  0  0  0  0  0  0  0  0  0
  -23.8731  -29.1997   21.8834 C   0  0  0  0  0  0  0  0  0  0  0  0
  -25.0496  -33.3323   26.5918 C   0  0  0  0  0  0  0  0  0  0  0  0
  -30.8592  -11.0176   19.0899 C   0  0  0  0  0  0  0  0  0  0  0  0
  -25.9780  -32.2060   26.1488 C   0  0  0  0  0  0  0  0  0  0  0  0
  -29.4246  -10.4960   18.9802 C   0  0  0  0  0  0  0  0  0  0  0  0
  -31.0152  -12.0110   20.2399 C   0  0  0  0  0  0  0  0  0  0  0  0
  -28.6278  -12.6068   20.1189 C   0  0  0  0  0  0  0  0  0  0  0  0
  -26.7876  -32.6128   24.9116 C   0  0  1  0  0  0  0  0  0  0  0  0
  -24.8920  -31.4974   21.8139 C   0  0  1  0  0  0  0  0  0  0  0  0
  -28.4066  -11.6523   18.9341 C   0  0  2  0  0  0  0  0  0  0  0  0
  -17.3772  -29.7634   21.0894 C   0  0  0  0  0  0  0  0  0  0  0  0
  -22.3685  -30.1119   25.4295 C   0  0  0  0  0  0  0  0  0  0  0  0
  -20.0358  -29.3744   24.8975 C   0  0  0  0  0  0  0  0  0  0  0  0
  -20.6160  -31.8001   24.8521 C   0  0  0  0  0  0  0  0  0  0  0  0
  -19.9357  -29.9962   18.2829 C   0  0  0  0  0  0  0  0  0  0  0  0
  -21.4697  -30.2868   23.0154 C   0  0  1  0  0  0  0  0  0  0  0  0
  -18.6900  -30.1738   20.4405 C   0  0  2  0  0  0  0  0  0  0  0  0
  -21.1444  -30.3846   24.5327 C   0  0  0  0  0  0  0  0  0  0  0  0
  -26.3007  -10.9695   20.0204 N   0  0  0  0  0  0  0  0  0  0  0  0
  -26.9789  -11.1423   18.8732 N   0  0  0  0  0  0  0  0  0  0  0  0
  -23.7180  -30.6544   22.0490 N   0  0  0  0  0  0  0  0  0  0  0  0
  -30.0208  -13.0804   20.1280 N   0  0  0  0  0  0  0  0  0  0  0  0
  -26.7940  -10.9386   16.5205 N   0  0  0  0  0  0  0  0  0  0  0  0
  -22.7472   -9.5903   18.0044 N   0  0  0  0  0  0  0  0  0  0  0  0
  -29.4149  -15.3492   19.9095 N   0  0  0  0  0  0  0  0  0  0  0  0
  -28.5329  -21.6080   21.0348 N   0  0  0  0  0  0  0  0  0  0  0  0
  -25.9689  -32.5269   23.7213 N   0  0  0  0  0  0  0  0  0  0  0  0
  -20.3354  -30.5670   22.1418 N   0  0  0  0  0  0  0  0  0  0  0  0
  -18.7103  -29.6468   19.0467 N   0  3  0  0  0  0  0  0  0  0  0  0
  -30.0596  -21.0483   22.7033 O   0  0  0  0  0  0  0  0  0  0  0  0
  -24.0296   -9.9171   16.1316 O   0  0  0  0  0  0  0  0  0  0  0  0
  -28.9869  -23.5772   22.2034 O   0  0  0  0  0  0  0  0  0  0  0  0
  -26.2634  -30.2588   23.2836 O   0  0  0  0  0  0  0  0  0  0  0  0
  -22.4071  -32.4498   22.7519 O   0  0  0  0  0  0  0  0  0  0  0  0
  -20.3568  -28.5291   21.0357 O   0  0  0  0  0  0  0  0  0  0  0  0
  -31.6438  -14.7253   20.0655 O   0  0  0  0  0  0  0  0  0  0  0  0
  -21.1101   -9.3258   23.3228 O   0  0  0  0  0  0  0  0  0  0  0  0
  -26.3539  -25.6093   19.6714 O   0  0  0  0  0  0  0  0  0  1  0  0
  -18.3019   -4.6293   22.6442 F   0  0  0  0  0  0  0  0  0  0  0  0
  -21.1206   -7.3718   25.2784 F   0  0  0  0  0  0  0  0  0  0  0  0
  1  2  1  0  0  0  0
  1  7  2  0  0  0  0
  2  8  2  0  0  0  0
  3 12  2  0  0  0  0
  3 19  1  0  0  0  0
  4 13  1  0  0  0  0
  4 19  2  0  0  0  0
  5 10  2  0  0  0  0
  5 20  1  0  0  0  0
  6 11  1  0  0  0  0
  6 20  2  0  0  0  0
  7 22  1  0  0  0  0
  8 24  1  0  0  0  0
  9 14  2  0  0  0  0
  9 23  1  0  0  0  0
 10 26  1  0  0  0  0
 11 26  2  0  0  0  0
 12 27  1  0  0  0  0
 13 27  2  0  0  0  0
 14 28  1  0  0  0  0
 15 16  2  0  0  0  0
 15 29  1  0  0  0  0
 16 30  1  0  0  0  0
 17 25  1  0  0  0  0
 17 28  2  0  0  0  0
 18 30  2  0  0  0  0
 18 31  1  0  0  0  0
 19 32  1  0  0  0  0
 20 36  1  0  0  0  0
 21 32  1  0  0  0  0
 21 33  2  0  0  0  0
 21 37  1  0  0  0  0
 22 24  2  0  0  0  0
 22 43  1  0  0  0  0
 23 25  2  0  0  0  0
 23 44  1  0  0  0  0
 24 52  1  0  0  0  0
 25 45  1  0  0  0  0
 26 69  1  0  0  0  0
 27 81  1  0  0  0  0
 28 82  1  0  0  0  0
 29 31  2  0  0  0  0
 29 81  1  0  0  0  0
 30 83  1  0  0  0  0
 31 84  1  0  0  0  0
 32 63  2  0  0  0  0
 33 64  1  0  0  0  0
 33 67  1  0  0  0  0
 34 35  2  0  0  0  0
 34 38  1  0  0  0  0
 35 82  1  0  0  0  0
 36 70  1  0  0  0  0
 36 74  2  0  0  0  0
 37 68  1  0  0  0  0
 37 75  2  0  0  0  0
 38 70  1  0  0  0  0
 38 76  2  0  0  0  0
 39 53  1  0  0  0  0
 39 71  1  0  0  0  0
 39 77  2  0  0  0  0
 40 60  1  0  0  0  0
 40 65  1  0  0  0  0
 40 78  2  0  0  0  0
 41 61  1  0  0  0  0
 41 72  1  0  0  0  0
 41 79  2  0  0  0  0
 42 66  1  0  0  0  0
 42 69  1  0  0  0  0
 42 80  2  0  0  0  0
 43 46  1  0  0  0  0
 44 53  1  0  0  0  0
 45 65  1  0  0  0  0
 46 48  1  0  0  0  0
 47 49  1  0  0  0  0
 47 50  1  0  0  0  0
 48 52  1  0  0  0  0
 49 54  1  0  0  0  0
 50 66  1  0  0  0  0
 51 54  1  0  0  0  0
 51 66  1  0  0  0  0
 52 71  1  0  0  0  0
 53 65  1  0  0  0  0
 54 64  1  0  0  0  0
 55 61  1  0  0  0  0
 56 62  1  0  0  0  0
 57 62  1  0  0  0  0
 58 62  1  0  0  0  0
 59 73  1  0  0  0  0
 60 62  1  0  0  0  0
 60 72  1  0  0  0  0
 61 73  1  0  0  0  0
 63 64  1  0  0  0  0
M  CHG  1  73   1
M  ISO  4  35 101  42 100  69 100  82 101
M  END
> <Batch ID>
0089

> <Smiles>
CNC(C)C(=O)NC(C(=O)N1Cc2cc([101O:1][101CH:1]=CC(=O)NC(=O)c3ccc([100NH:0][100C:0](=O)N4CCCC(n5nc(-c6ccc(Oc7ccc(F)cc7F)cc6)c(C(N)=O)c5N)C4)cc3)ccc2CC1C(=O)NC1CCCc2ccccc21)C(C)(C)C

> <Shape>
0.284

> <Color>
0.083

> <Negative vol penalty>
0.000

$$$$

  -OEChem-04052300263D

 90 99  0     1  0  0  0  0  0999 V2000
  -25.8293   -6.2836   21.3961 C   0  0  0  0  0  0  0  0  0  0  0  0
  -26.2894   -7.0741   20.3478 C   0  0  0  0  0  0  0  0  0  0  0  0
  -26.1509  -33.0032   22.5579 C   0  0  0  0  0  0  0  0  0  0  0  0
  -24.4048  -32.0250   23.9112 C   0  0  0  0  0  0  0  0  0  0  0  0
  -24.6447   -6.6170   22.0513 C   0  0  0  0  0  0  0  0  0  0  0  0
  -25.5643   -8.1981   19.9535 C   0  0  0  0  0  0  0  0  0  0  0  0
  -28.7498  -14.0005   21.1334 C   0  0  0  0  0  0  0  0  0  0  0  0
  -26.3775  -33.9632   23.5441 C   0  0  0  0  0  0  0  0  0  0  0  0
  -24.6314  -32.9850   24.8975 C   0  0  0  0  0  0  0  0  0  0  0  0
  -29.6569  -15.0305   20.8834 C   0  0  0  0  0  0  0  0  0  0  0  0
  -24.9538  -36.8456   24.5877 C   0  0  0  0  0  0  0  0  0  0  0  0
  -25.1024  -38.1709   24.1790 C   0  0  0  0  0  0  0  0  0  0  0  0
  -28.1687  -15.9503   19.2138 C   0  0  0  0  0  0  0  0  0  0  0  0
  -29.5997  -23.6238   20.2544 C   0  0  0  0  0  0  0  0  0  0  0  0
  -30.4664  -25.8731   20.0922 C   0  0  0  0  0  0  0  0  0  0  0  0
  -27.3190  -38.2183   25.1391 C   0  0  0  0  0  0  0  0  0  0  0  0
  -25.1645  -32.0341   22.7414 C   0  0  0  0  0  0  0  0  0  0  0  0
  -24.5435  -31.2697   20.3882 C   0  0  0  0  0  0  0  0  0  0  0  0
  -23.9098   -7.7511   21.6711 C   0  0  0  0  0  0  0  0  0  0  0  0
  -27.5404  -13.9502   20.4346 C   0  0  0  0  0  0  0  0  0  0  0  0
  -24.3680   -8.5463   20.6034 C   0  0  0  0  0  0  0  0  0  0  0  0
  -27.2507  -14.9280   19.4688 C   0  0  0  0  0  0  0  0  0  0  0  0
  -31.8757  -23.9923   19.5323 C   0  0  0  0  0  0  0  0  0  0  0  0
  -29.4189  -25.0005   20.3869 C   0  0  0  0  0  0  0  0  0  0  0  0
  -30.8282  -23.1197   19.8271 C   0  0  0  0  0  0  0  0  0  0  0  0
  -25.6178  -33.9541   24.7139 C   0  0  0  0  0  0  0  0  0  0  0  0
  -29.3671  -16.0028   19.9258 C   0  0  0  0  0  0  0  0  0  0  0  0
  -25.9877  -36.2066   25.2722 C   0  0  0  0  0  0  0  0  0  0  0  0
  -26.2851  -38.8572   24.4547 C   0  0  0  0  0  0  0  0  0  0  0  0
  -31.6948  -25.3690   19.6649 C   0  0  0  0  0  0  0  0  0  0  0  0
  -27.1703  -36.8930   25.5479 C   0  0  0  0  0  0  0  0  0  0  0  0
  -24.9296  -31.0425   21.7228 C   0  0  0  0  0  0  0  0  0  0  0  0
  -24.4537  -30.0143   19.8383 C   0  0  0  0  0  0  0  0  0  0  0  0
  -35.6796  -22.4981   18.2157 C   0  0  0  0  0  0  0  0  0  0  0  0
  -30.6012  -19.3756   19.7024 C   0  0  0  0  0  0  0  0  0  0  0  0
  -29.8391  -18.2939   19.8933 C   0  0  0  0  0  0  0  0  0  1  0  0
  -24.2888  -32.5051   19.7066 C   0  0  0  0  0  0  0  0  0  0  0  0
  -30.0420  -20.7353   19.9567 C   0  0  0  0  0  0  0  0  0  0  0  0
  -24.2855  -12.1687   19.8795 C   0  0  0  0  0  0  0  0  0  0  0  0
  -23.6810  -15.1751   19.7981 C   0  0  0  0  0  0  0  0  0  0  0  0
  -23.3682  -18.5484   20.1982 C   0  0  0  0  0  0  0  0  0  0  0  0
  -27.0297  -24.7864   21.1567 C   0  0  0  0  0  0  0  0  0  0  0  0
  -22.6103   -8.0446   22.3782 C   0  0  0  0  0  0  0  0  0  0  0  0
  -26.5609  -12.8244   20.6274 C   0  0  0  0  0  0  0  0  0  0  0  0
  -25.9529  -14.8143   18.7168 C   0  0  0  0  0  0  0  0  0  0  0  0
  -34.8721  -23.4574   17.3754 C   0  0  0  0  0  0  0  0  0  0  0  0
  -35.0849  -22.0914   19.5420 C   0  0  0  0  0  0  0  0  0  0  0  0
  -22.0970   -9.4632   22.1449 C   0  0  0  0  0  0  0  0  0  0  0  0
  -23.5371  -25.4649   21.0205 C   0  0  0  0  0  0  0  0  0  0  0  0
  -22.1738   -9.8220   20.6643 C   0  0  0  0  0  0  0  0  0  0  0  0
  -23.4630  -26.9931   21.0575 C   0  0  0  0  0  0  0  0  0  0  0  0
  -33.3832  -23.3114   17.6769 C   0  0  0  0  0  0  0  0  0  0  0  0
  -34.1637  -23.1855   20.0742 C   0  0  0  0  0  0  0  0  0  0  0  0
  -24.6638  -24.9302   21.9028 C   0  0  0  0  0  0  0  0  0  0  0  0
  -25.9117  -27.0427   21.6807 C   0  0  0  0  0  0  0  0  0  0  0  0
  -23.6225   -9.7873   20.1627 C   0  0  1  0  0  0  0  0  0  0  0  0
  -25.0940  -13.2719   20.4966 C   0  0  1  0  0  0  0  0  0  0  0  0
  -24.8333  -27.6313   20.7564 C   0  0  2  0  0  0  0  0  0  0  0  0
  -21.6606  -20.3868   20.1576 C   0  0  0  0  0  0  0  0  0  0  0  0
  -23.6372  -15.0620   16.7503 C   0  0  0  0  0  0  0  0  0  0  0  0
  -22.7457  -17.4015   16.7470 C   0  0  0  0  0  0  0  0  0  0  0  0
  -21.4281  -15.5681   17.8077 C   0  0  0  0  0  0  0  0  0  0  0  0
  -23.8915  -19.2547   23.0242 C   0  0  0  0  0  0  0  0  0  0  0  0
  -23.5209  -16.4106   18.9488 C   0  0  1  0  0  0  0  0  0  0  0  0
  -22.4023  -19.3799   21.0229 C   0  0  2  0  0  0  0  0  0  0  0  0
  -22.8576  -16.1045   17.5764 C   0  0  0  0  0  0  0  0  0  0  0  0
  -25.0749  -29.7448   22.0037 N   0  0  0  0  0  0  0  0  0  0  0  0
  -24.7785  -29.1453   20.8381 N   0  0  0  0  0  0  0  0  0  0  0  0
  -33.1108  -23.5079   19.1049 N   0  0  0  0  0  0  0  0  0  0  0  0
  -24.8675  -14.4485   19.6404 N   0  0  0  0  0  0  0  0  0  0  0  0
  -25.9319  -25.5767   21.5578 N   0  0  0  0  0  0  0  0  0  0  0  0
  -24.1293  -29.5800   18.6019 N   0  0  0  0  0  0  0  0  0  0  0  0
  -24.4276  -33.7031   20.4205 N   0  0  0  0  0  0  0  0  0  0  0  0
  -30.9889  -21.7179   19.7004 N   0  0  0  0  0  0  0  0  0  0  0  0
  -28.1717  -25.5134   20.8221 N   0  0  0  0  0  0  0  0  0  0  0  0
  -24.3306  -10.9785   20.5801 N   0  0  0  0  0  0  0  0  0  0  0  0
  -22.7897  -17.3744   19.7642 N   0  0  0  0  0  0  0  0  0  0  0  0
  -23.1359  -20.1237   22.0856 N   0  3  0  0  0  0  0  0  0  0  0  0
  -36.7691  -22.0696   17.8386 O   0  0  0  0  0  0  0  0  0  0  0  0
  -23.9323  -32.5445   18.5045 O   0  0  0  0  0  0  0  0  0  0  0  0
  -28.8880  -20.8858   20.3405 O   0  0  0  0  0  0  0  0  0  0  0  0
  -23.6648  -12.3809   18.8444 O   0  0  0  0  0  0  0  0  0  0  0  0
  -22.7778  -14.8573   20.5768 O   0  0  0  0  0  0  0  0  0  0  0  0
  -24.5195  -18.9064   19.9595 O   0  0  0  0  0  0  0  0  0  0  0  0
  -26.9534  -23.5570   21.0871 O   0  0  0  0  0  0  0  0  0  0  0  0
  -25.8388  -34.8906   25.6766 O   0  0  0  0  0  0  0  0  0  0  0  0
  -30.2551  -17.0081   19.6899 O   0  0  0  0  0  0  0  0  0  1  0  0
  -26.4283  -40.1294   24.0608 F   0  0  0  0  0  0  0  0  0  0  0  0
  -32.6946  -26.2175   19.3855 F   0  0  0  0  0  0  0  0  0  0  0  0
  -28.1675  -36.2840   26.2040 F   0  0  0  0  0  0  0  0  0  0  0  0
  1  2  1  0  0  0  0
  1  5  2  0  0  0  0
  2  6  2  0  0  0  0
  3  8  2  0  0  0  0
  3 17  1  0  0  0  0
  4  9  1  0  0  0  0
  4 17  2  0  0  0  0
  5 19  1  0  0  0  0
  6 21  1  0  0  0  0
  7 10  2  0  0  0  0
  7 20  1  0  0  0  0
  8 26  1  0  0  0  0
  9 26  2  0  0  0  0
 10 27  1  0  0  0  0
 11 12  2  0  0  0  0
 11 28  1  0  0  0  0
 12 29  1  0  0  0  0
 13 22  1  0  0  0  0
 13 27  2  0  0  0  0
 14 24  2  0  0  0  0
 14 25  1  0  0  0  0
 15 24  1  0  0  0  0
 15 30  2  0  0  0  0
 16 29  2  0  0  0  0
 16 31  1  0  0  0  0
 17 32  1  0  0  0  0
 18 32  1  0  0  0  0
 18 33  2  0  0  0  0
 18 37  1  0  0  0  0
 19 21  2  0  0  0  0
 19 43  1  0  0  0  0
 20 22  2  0  0  0  0
 20 44  1  0  0  0  0
 21 56  1  0  0  0  0
 22 45  1  0  0  0  0
 23 25  2  0  0  0  0
 23 30  1  0  0  0  0
 23 69  1  0  0  0  0
 24 75  1  0  0  0  0
 25 74  1  0  0  0  0
 26 86  1  0  0  0  0
 27 87  1  0  0  0  0
 28 31  2  0  0  0  0
 28 86  1  0  0  0  0
 29 88  1  0  0  0  0
 30 89  1  0  0  0  0
 31 90  1  0  0  0  0
 32 67  2  0  0  0  0
 33 68  1  0  0  0  0
 33 72  1  0  0  0  0
 34 46  1  0  0  0  0
 34 47  1  0  0  0  0
 34 79  2  0  0  0  0
 35 36  2  0  0  0  0
 35 38  1  0  0  0  0
 36 87  1  0  0  0  0
 37 73  1  0  0  0  0
 37 80  2  0  0  0  0
 38 74  1  0  0  0  0
 38 81  2  0  0  0  0
 39 57  1  0  0  0  0
 39 76  1  0  0  0  0
 39 82  2  0  0  0  0
 40 64  1  0  0  0  0
 40 70  1  0  0  0  0
 40 83  2  0  0  0  0
 41 65  1  0  0  0  0
 41 77  1  0  0  0  0
 41 84  2  0  0  0  0
 42 71  1  0  0  0  0
 42 75  1  0  0  0  0
 42 85  2  0  0  0  0
 43 48  1  0  0  0  0
 44 57  1  0  0  0  0
 45 70  1  0  0  0  0
 46 52  1  0  0  0  0
 47 53  1  0  0  0  0
 48 50  1  0  0  0  0
 49 51  1  0  0  0  0
 49 54  1  0  0  0  0
 50 56  1  0  0  0  0
 51 58  1  0  0  0  0
 52 69  1  0  0  0  0
 53 69  1  0  0  0  0
 54 71  1  0  0  0  0
 55 58  1  0  0  0  0
 55 71  1  0  0  0  0
 56 76  1  0  0  0  0
 57 70  1  0  0  0  0
 58 68  1  0  0  0  0
 59 65  1  0  0  0  0
 60 66  1  0  0  0  0
 61 66  1  0  0  0  0
 62 66  1  0  0  0  0
 63 78  1  0  0  0  0
 64 66  1  0  0  0  0
 64 77  1  0  0  0  0
 65 78  1  0  0  0  0
 67 68  1  0  0  0  0
M  CHG  1  78   1
M  ISO  4  36 101  42 100  75 100  87 101
M  END
> <Batch ID>
0089

> <Smiles>
CNC(C)C(=O)NC(C(=O)N1Cc2cc([101O:1][101CH:1]=CC(=O)Nc3cc([100NH:0][100C:0](=O)N4CCCC(n5nc(-c6ccc(Oc7ccc(F)cc7F)cc6)c(C(N)=O)c5N)C4)cc(F)c3N3CCC(=O)CC3)ccc2CC1C(=O)NC1CCCc2ccccc21)C(C)(C)C

> <Shape>
0.246

> <Color>
0.071

> <Negative vol penalty>
0.000

$$$$

  -OEChem-04052300263D

 80 88  0     1  0  0  0  0  0999 V2000
  -28.2378  -33.6470   24.8006 C   0  0  0  0  0  0  0  0  0  0  0  0
  -28.3538  -32.4528   24.0964 C   0  0  0  0  0  0  0  0  0  0  0  0
  -26.1228  -14.1569   21.1940 C   0  0  0  0  0  0  0  0  0  0  0  0
  -26.5101  -12.4433   19.5356 C   0  0  0  0  0  0  0  0  0  0  0  0
  -27.1019  -33.8935   25.5705 C   0  0  0  0  0  0  0  0  0  0  0  0
  -27.3342  -31.5038   24.1627 C   0  0  0  0  0  0  0  0  0  0  0  0
  -26.1706  -29.5825   19.6240 C   0  0  0  0  0  0  0  0  0  0  0  0
  -24.8482  -13.6415   21.4290 C   0  0  0  0  0  0  0  0  0  0  0  0
  -25.2355  -11.9277   19.7706 C   0  0  0  0  0  0  0  0  0  0  0  0
  -27.0282  -28.6142   19.1036 C   0  0  0  0  0  0  0  0  0  0  0  0
  -23.7261   -9.9783   22.0819 C   0  0  0  0  0  0  0  0  0  0  0  0
  -23.6017   -8.5949   22.2101 C   0  0  0  0  0  0  0  0  0  0  0  0
  -25.5008  -26.8879   19.8149 C   0  0  0  0  0  0  0  0  0  0  0  0
  -29.6880  -22.1763   20.0097 C   0  0  0  0  0  0  0  0  0  0  0  0
  -22.0966   -8.5552   20.3206 C   0  0  0  0  0  0  0  0  0  0  0  0
  -28.2920  -23.6222   18.1277 C   0  0  0  0  0  0  0  0  0  0  0  0
  -26.9537  -13.5579   20.2472 C   0  0  0  0  0  0  0  0  0  0  0  0
  -29.4662  -13.7311   20.6537 C   0  0  0  0  0  0  0  0  0  0  0  0
  -26.0635  -32.9512   25.6385 C   0  0  0  0  0  0  0  0  0  0  0  0
  -24.9749  -29.2095   20.2545 C   0  0  0  0  0  0  0  0  0  0  0  0
  -26.1839  -31.7374   24.9353 C   0  0  0  0  0  0  0  0  0  0  0  0
  -24.6286  -27.8535   20.3402 C   0  0  0  0  0  0  0  0  0  0  0  0
  -29.1902  -23.4340   20.3368 C   0  0  0  0  0  0  0  0  0  0  0  0
  -28.4841  -24.1684   19.3888 C   0  0  0  0  0  0  0  0  0  0  0  0
  -24.4045  -12.5269   20.7174 C   0  0  0  0  0  0  0  0  0  0  0  0
  -26.6948  -27.2665   19.2016 C   0  0  0  0  0  0  0  0  0  0  0  0
  -23.0357  -10.6501   21.0731 C   0  0  0  0  0  0  0  0  0  0  0  0
  -22.7870   -7.8834   21.3295 C   0  0  0  0  0  0  0  0  0  0  0  0
  -22.2210   -9.9386   20.1924 C   0  0  0  0  0  0  0  0  0  0  0  0
  -28.2703  -14.0902   20.0036 C   0  0  0  0  0  0  0  0  0  0  0  0
  -30.4265  -14.5169   20.0648 C   0  0  0  0  0  0  0  0  0  0  0  0
  -29.4653  -21.6805   18.7330 C   0  0  0  0  0  0  0  0  0  0  0  0
  -29.6891  -12.7729   21.6967 C   0  0  0  0  0  0  0  0  0  0  0  0
  -23.7881  -29.5350   23.1852 C   0  0  0  0  0  0  0  0  0  0  0  0
  -21.1294  -28.2648   21.8285 C   0  0  0  0  0  0  0  0  0  0  0  0
  -19.7718  -26.3696   19.3362 C   0  0  0  0  0  0  0  0  0  0  0  0
  -29.7806  -19.8257   17.1034 C   0  0  0  0  0  0  0  0  0  0  0  0
  -24.8761  -33.2419   26.5218 C   0  0  0  0  0  0  0  0  0  0  0  0
  -24.0479  -30.2676   20.7869 C   0  0  0  0  0  0  0  0  0  0  0  0
  -23.3468  -27.4019   20.9894 C   0  0  0  0  0  0  0  0  0  0  0  0
  -23.6732  -32.3453   26.2398 C   0  0  0  0  0  0  0  0  0  0  0  0
  -31.4620  -16.7450   15.9665 C   0  0  0  0  0  0  0  0  0  0  0  0
  -24.1088  -30.8879   26.1261 C   0  0  0  0  0  0  0  0  0  0  0  0
  -30.8807  -15.6782   16.8928 C   0  0  0  0  0  0  0  0  0  0  0  0
  -30.4778  -17.8864   15.7286 C   0  0  0  0  0  0  0  0  0  0  0  0
  -29.3916  -17.4483   17.9100 C   0  0  0  0  0  0  0  0  0  0  0  0
  -25.0881  -30.6939   24.9622 C   0  0  1  0  0  0  0  0  0  0  0  0
  -23.1026  -29.7463   21.8649 C   0  0  1  0  0  0  0  0  0  0  0  0
  -30.3756  -16.3057   18.2035 C   0  0  1  0  0  0  0  0  0  0  0  0
  -17.5751  -25.4784   18.5131 C   0  0  0  0  0  0  0  0  0  0  0  0
  -21.1528  -26.1674   24.0445 C   0  0  0  0  0  0  0  0  0  0  0  0
  -19.5740  -24.7963   22.6677 C   0  0  0  0  0  0  0  0  0  0  0  0
  -18.8859  -27.0551   23.4721 C   0  0  0  0  0  0  0  0  0  0  0  0
  -30.9210  -19.7293   19.3079 C   0  0  0  0  0  0  0  0  0  0  0  0
  -20.0197  -27.8100   16.7627 C   0  0  0  0  0  0  0  0  0  0  0  0
  -20.5984  -26.8669   21.6218 C   0  0  1  0  0  0  0  0  0  0  0  0
  -18.5860  -26.6106   18.4195 C   0  0  2  0  0  0  0  0  0  0  0  0
  -20.0779  -26.2295   22.9410 C   0  0  0  0  0  0  0  0  0  0  0  0
  -28.4517  -15.0311   19.0731 N   0  0  0  0  0  0  0  0  0  0  0  0
  -29.7728  -15.2698   19.1342 N   0  0  0  0  0  0  0  0  0  0  0  0
  -28.7821  -22.4088   17.8395 N   0  3  0  0  0  0  0  0  0  0  0  0
  -22.4765  -28.4738   21.5004 N   0  0  0  0  0  0  0  0  0  0  0  0
  -29.9785  -18.4349   16.9902 N   0  0  0  0  0  0  0  0  0  0  0  0
  -29.4124  -23.9463   21.6342 N   0  0  0  0  0  0  0  0  0  0  0  0
  -31.7578  -14.6304   20.2575 N   0  0  0  0  0  0  0  0  0  0  0  0
  -28.5919  -12.0515   22.1869 N   0  0  0  0  0  0  0  0  0  0  0  0
  -27.9681  -25.4380   19.6794 N   0  0  0  0  0  0  0  0  0  1  0  0
  -24.3773  -30.6732   23.7017 N   0  0  0  0  0  0  0  0  0  0  0  0
  -19.5942  -26.9634   20.5679 N   0  0  0  0  0  0  0  0  0  0  0  0
  -29.9794  -20.3760   18.3881 N   0  0  0  0  0  0  0  0  0  0  0  0
  -19.0394  -26.7201   17.0041 N   0  3  0  0  0  0  0  0  0  0  0  0
  -30.8248  -12.5742   22.1910 O   0  0  0  0  0  0  0  0  0  0  0  0
  -23.7816  -28.4221   23.6981 O   0  0  0  0  0  0  0  0  0  0  0  0
  -20.3749  -29.1409   22.2584 O   0  0  0  0  0  0  0  0  0  0  0  0
  -20.7555  -25.7165   18.9951 O   0  0  0  0  0  0  0  0  0  0  0  0
  -29.4796  -20.5234   16.1276 O   0  0  0  0  0  0  0  0  0  0  0  0
  -23.1609  -12.0234   20.9466 O   0  0  0  0  0  0  0  0  0  0  0  0
  -27.5303  -26.3194   18.6951 O   0  0  0  0  0  0  0  0  0  1  0  0
  -22.6688   -6.5547   21.4517 F   0  0  0  0  0  0  0  0  0  0  0  0
  -21.5563  -10.5783   19.2205 F   0  0  0  0  0  0  0  0  0  0  0  0
  1  2  1  0  0  0  0
  1  5  2  0  0  0  0
  2  6  2  0  0  0  0
  3  8  2  0  0  0  0
  3 17  1  0  0  0  0
  4  9  1  0  0  0  0
  4 17  2  0  0  0  0
  5 19  1  0  0  0  0
  6 21  1  0  0  0  0
  7 10  2  0  0  0  0
  7 20  1  0  0  0  0
  8 25  1  0  0  0  0
  9 25  2  0  0  0  0
 10 26  1  0  0  0  0
 11 12  2  0  0  0  0
 11 27  1  0  0  0  0
 12 28  1  0  0  0  0
 13 22  1  0  0  0  0
 13 26  2  0  0  0  0
 14 23  1  0  0  0  0
 14 32  2  0  0  0  0
 15 28  2  0  0  0  0
 15 29  1  0  0  0  0
 16 24  1  0  0  0  0
 16 61  2  0  0  0  0
 17 30  1  0  0  0  0
 18 30  1  0  0  0  0
 18 31  2  0  0  0  0
 18 33  1  0  0  0  0
 19 21  2  0  0  0  0
 19 38  1  0  0  0  0
 20 22  2  0  0  0  0
 20 39  1  0  0  0  0
 21 47  1  0  0  0  0
 22 40  1  0  0  0  0
 23 24  2  0  0  0  0
 23 64  1  0  0  0  0
 24 67  1  0  0  0  0
 25 77  1  0  0  0  0
 26 78  1  0  0  0  0
 27 29  2  0  0  0  0
 27 77  1  0  0  0  0
 28 79  1  0  0  0  0
 29 80  1  0  0  0  0
 30 59  2  0  0  0  0
 31 60  1  0  0  0  0
 31 65  1  0  0  0  0
 32 61  1  0  0  0  0
 32 70  1  0  0  0  0
 33 66  1  0  0  0  0
 33 72  2  0  0  0  0
 34 48  1  0  0  0  0
 34 68  1  0  0  0  0
 34 73  2  0  0  0  0
 35 56  1  0  0  0  0
 35 62  1  0  0  0  0
 35 74  2  0  0  0  0
 36 57  1  0  0  0  0
 36 69  1  0  0  0  0
 36 75  2  0  0  0  0
 37 63  1  0  0  0  0
 37 70  1  0  0  0  0
 37 76  2  0  0  0  0
 38 41  1  0  0  0  0
 39 48  1  0  0  0  0
 40 62  1  0  0  0  0
 41 43  1  0  0  0  0
 42 44  1  0  0  0  0
 42 45  1  0  0  0  0
 43 47  1  0  0  0  0
 44 49  1  0  0  0  0
 45 63  1  0  0  0  0
 46 49  1  0  0  0  0
 46 63  1  0  0  0  0
 47 68  1  0  0  0  0
 48 62  1  0  0  0  0
 49 60  1  0  0  0  0
 50 57  1  0  0  0  0
 51 58  1  0  0  0  0
 52 58  1  0  0  0  0
 53 58  1  0  0  0  0
 54 70  1  0  0  0  0
 55 71  1  0  0  0  0
 56 58  1  0  0  0  0
 56 69  1  0  0  0  0
 57 71  1  0  0  0  0
 59 60  1  0  0  0  0
 67 78  1  0  0  0  0
M  CHG  2  61   1  71   1
M  ISO  4  37 100  67 101  70 100  78 101
M  END
> <Batch ID>
0089

> <Smiles>
CNC(C)C(=O)NC(C(=O)N1Cc2cc([101O:1][101NH:1]c3cnc([100N:0](C)[100C:0](=O)N4CCCC(n5nc(-c6ccc(Oc7ccc(F)cc7F)cc6)c(C(N)=O)c5N)C4)cc3N)ccc2CC1C(=O)NC1CCCc2ccccc21)C(C)(C)C

> <Shape>
0.321

> <Color>
0.080

> <Negative vol penalty>
0.000

$$$$

  -OEChem-04052300263D

 85 93  0     1  0  0  0  0  0999 V2000
  -21.4617  -34.3463   15.6397 C   0  0  0  0  0  0  0  0  0  0  0  0
  -22.3235  -33.2544   15.6628 C   0  0  0  0  0  0  0  0  0  0  0  0
  -32.7986  -20.0577   23.0275 C   0  0  0  0  0  0  0  0  0  0  0  0
  -23.1996  -10.3297   20.0937 C   0  0  0  0  0  0  0  0  0  0  0  0
  -23.1974  -10.5147   22.5027 C   0  0  0  0  0  0  0  0  0  0  0  0
  -31.8137  -19.1475   23.4110 C   0  0  0  0  0  0  0  0  0  0  0  0
  -21.4844  -35.2729   16.6813 C   0  0  0  0  0  0  0  0  0  0  0  0
  -23.2092  -33.0891   16.7270 C   0  0  0  0  0  0  0  0  0  0  0  0
  -25.0448  -27.7959   19.2007 C   0  0  0  0  0  0  0  0  0  0  0  0
  -32.4449  -21.2218   22.3452 C   0  0  0  0  0  0  0  0  0  0  0  0
  -23.2727   -8.9409   20.2004 C   0  0  0  0  0  0  0  0  0  0  0  0
  -23.2704   -9.1259   22.6094 C   0  0  0  0  0  0  0  0  0  0  0  0
  -26.1943  -27.0270   19.0246 C   0  0  0  0  0  0  0  0  0  0  0  0
  -21.1624   -6.4961   22.3624 C   0  0  0  0  0  0  0  0  0  0  0  0
  -20.3220   -5.8735   23.2852 C   0  0  0  0  0  0  0  0  0  0  0  0
  -30.1213  -20.5654   22.4299 C   0  0  0  0  0  0  0  0  0  0  0  0
  -27.1795  -28.0663   20.9658 C   0  0  0  0  0  0  0  0  0  0  0  0
  -22.2491   -4.9874   24.4422 C   0  0  0  0  0  0  0  0  0  0  0  0
  -23.1621  -11.1167   21.2449 C   0  0  0  0  0  0  0  0  0  0  0  0
  -30.4751  -19.4014   23.1122 C   0  0  0  0  0  0  0  0  0  0  0  0
  -21.9224  -13.3397   21.0739 C   0  0  0  0  0  0  0  0  0  0  0  0
  -22.3641  -35.1136   17.7635 C   0  0  0  0  0  0  0  0  0  0  0  0
  -24.9581  -28.7152   20.2560 C   0  0  0  0  0  0  0  0  0  0  0  0
  -23.2446  -34.0151   17.7833 C   0  0  0  0  0  0  0  0  0  0  0  0
  -26.0268  -28.8438   21.1546 C   0  0  0  0  0  0  0  0  0  0  0  0
  -31.1063  -21.4757   22.0464 C   0  0  0  0  0  0  0  0  0  0  0  0
  -23.3081   -8.3390   21.4582 C   0  0  0  0  0  0  0  0  0  0  0  0
  -27.2631  -27.1642   19.9055 C   0  0  0  0  0  0  0  0  0  0  0  0
  -22.5461   -6.3644   22.4793 C   0  0  0  0  0  0  0  0  0  0  0  0
  -20.8654   -5.1192   24.3252 C   0  0  0  0  0  0  0  0  0  0  0  0
  -23.0894   -5.6100   23.5192 C   0  0  0  0  0  0  0  0  0  0  0  0
  -23.0872  -12.5514   21.1353 C   0  0  0  0  0  0  0  0  0  0  0  0
  -22.3852  -14.6291   20.9762 C   0  0  0  0  0  0  0  0  0  0  0  0
  -28.4499  -25.1999   20.3570 C   0  0  0  0  0  0  0  0  0  1  0  0
  -29.4307  -18.4379   23.5186 C   0  0  0  0  0  0  0  0  0  0  0  0
  -20.5452  -12.9418   21.1027 C   0  0  0  0  0  0  0  0  0  0  0  0
  -29.5050  -24.3822   20.2590 C   0  0  0  0  0  0  0  0  0  0  0  0
  -29.4760  -23.0676   20.9795 C   0  0  0  0  0  0  0  0  0  0  0  0
  -24.6123  -31.8683   20.4616 C   0  0  0  0  0  0  0  0  0  0  0  0
  -24.3823  -31.2446   23.6366 C   0  0  0  0  0  0  0  0  0  0  0  0
  -25.0926  -29.1517   26.2370 C   0  0  0  0  0  0  0  0  0  0  0  0
  -27.6122  -16.9241   22.7582 C   0  0  0  0  0  0  0  0  0  0  0  0
  -22.3852  -36.1668   18.8429 C   0  0  0  0  0  0  0  0  0  0  0  0
  -23.7006  -29.5179   20.4481 C   0  0  0  0  0  0  0  0  0  0  0  0
  -25.9757  -29.8018   22.3157 C   0  0  0  0  0  0  0  0  0  0  0  0
  -23.0924  -35.7172   20.1189 C   0  0  0  0  0  0  0  0  0  0  0  0
  -26.0731  -17.1909   19.3941 C   0  0  0  0  0  0  0  0  0  0  0  0
  -24.4199  -35.0442   19.7847 C   0  0  0  0  0  0  0  0  0  0  0  0
  -25.0783  -16.0364   19.4431 C   0  0  0  0  0  0  0  0  0  0  0  0
  -27.3263  -16.9092   20.2218 C   0  0  0  0  0  0  0  0  0  0  0  0
  -26.0263  -15.3784   21.6856 C   0  0  0  0  0  0  0  0  0  0  0  0
  -24.2025  -33.7879   18.9327 C   0  0  1  0  0  0  0  0  0  0  0  0
  -23.9234  -30.7937   21.2543 C   0  0  1  0  0  0  0  0  0  0  0  0
  -24.7429  -15.6797   20.8983 C   0  0  2  0  0  0  0  0  0  0  0  0
  -24.8081  -28.9285   28.7203 C   0  0  0  0  0  0  0  0  0  0  0  0
  -26.6006  -33.2938   24.0725 C   0  0  0  0  0  0  0  0  0  0  0  0
  -26.9232  -32.3525   26.3699 C   0  0  0  0  0  0  0  0  0  0  0  0
  -24.7443  -33.3941   25.7454 C   0  0  0  0  0  0  0  0  0  0  0  0
  -23.5195  -26.6614   25.9497 C   0  0  0  0  0  0  0  0  0  0  0  0
  -25.3630  -31.1410   24.7796 C   0  0  1  0  0  0  0  0  0  0  0  0
  -24.2240  -28.6028   27.3545 C   0  0  2  0  0  0  0  0  0  0  0  0
  -25.9098  -32.5286   25.2189 C   0  0  0  0  0  0  0  0  0  0  0  0
  -24.2058  -13.2793   21.0809 N   0  0  0  0  0  0  0  0  0  0  0  0
  -23.7460  -14.5384   20.9843 N   0  0  0  0  0  0  0  0  0  0  0  0
  -24.7271  -30.5689   22.4575 N   0  0  0  0  0  0  0  0  0  0  0  0
  -27.0005  -16.4706   21.5858 N   0  0  0  0  0  0  0  0  0  0  0  0
  -21.7568  -15.8204   20.8848 N   0  0  0  0  0  0  0  0  0  0  0  0
  -20.2462  -11.5765   21.2066 N   0  0  0  0  0  0  0  0  0  0  0  0
  -30.7482  -22.6574   21.3539 N   0  0  0  0  0  0  0  0  0  0  0  0
  -28.6772  -17.8829   22.5567 N   0  0  0  0  0  0  0  0  0  0  0  0
  -23.7509  -32.6889   19.7588 N   0  0  0  0  0  0  0  0  0  0  0  0
  -24.6799  -30.4055   25.8382 N   0  0  0  0  0  0  0  0  0  0  0  0
  -29.2988  -18.1840   24.8204 N   0  3  0  0  0  0  0  0  0  0  0  0
  -24.1022  -27.1223   27.2362 N   0  3  0  0  0  0  0  0  0  0  0  0
  -19.6076  -13.7712   21.0218 O   0  0  0  0  0  0  0  0  0  0  0  0
  -28.4173  -22.4815   21.1786 O   0  0  0  0  0  0  0  0  0  0  0  0
  -25.8349  -31.9480   20.4870 O   0  0  0  0  0  0  0  0  0  0  0  0
  -23.3450  -31.8951   23.7869 O   0  0  0  0  0  0  0  0  0  0  0  0
  -26.0445  -28.5320   25.7676 O   0  0  0  0  0  0  0  0  0  0  0  0
  -27.3372  -16.5553   23.8950 O   0  0  0  0  0  0  0  0  0  0  0  0
  -30.6242  -24.7005   19.5168 O   0  0  0  0  0  0  0  0  0  0  0  0
  -23.3791   -6.9837   21.5627 O   0  0  0  0  0  0  0  0  0  0  0  0
  -28.3866  -26.4154   19.7355 O   0  0  0  0  0  0  0  0  0  1  0  0
  -20.0583   -4.5226   25.2122 F   0  0  0  0  0  0  0  0  0  0  0  0
  -24.4180   -5.4808   23.6374 F   0  0  0  0  0  0  0  0  0  0  0  0
  1  2  1  0  0  0  0
  1  7  2  0  0  0  0
  2  8  2  0  0  0  0
  3  6  1  0  0  0  0
  3 10  2  0  0  0  0
  4 11  2  0  0  0  0
  4 19  1  0  0  0  0
  5 12  1  0  0  0  0
  5 19  2  0  0  0  0
  6 20  2  0  0  0  0
  7 22  1  0  0  0  0
  8 24  1  0  0  0  0
  9 13  2  0  0  0  0
  9 23  1  0  0  0  0
 10 26  1  0  0  0  0
 11 27  1  0  0  0  0
 12 27  2  0  0  0  0
 13 28  1  0  0  0  0
 14 15  2  0  0  0  0
 14 29  1  0  0  0  0
 15 30  1  0  0  0  0
 16 20  1  0  0  0  0
 16 26  2  0  0  0  0
 17 25  1  0  0  0  0
 17 28  2  0  0  0  0
 18 30  2  0  0  0  0
 18 31  1  0  0  0  0
 19 32  1  0  0  0  0
 20 35  1  0  0  0  0
 21 32  1  0  0  0  0
 21 33  2  0  0  0  0
 21 36  1  0  0  0  0
 22 24  2  0  0  0  0
 22 43  1  0  0  0  0
 23 25  2  0  0  0  0
 23 44  1  0  0  0  0
 24 52  1  0  0  0  0
 25 45  1  0  0  0  0
 26 69  1  0  0  0  0
 27 82  1  0  0  0  0
 28 83  1  0  0  0  0
 29 31  2  0  0  0  0
 29 82  1  0  0  0  0
 30 84  1  0  0  0  0
 31 85  1  0  0  0  0
 32 63  2  0  0  0  0
 33 64  1  0  0  0  0
 33 67  1  0  0  0  0
 34 37  2  0  0  0  0
 34 83  1  0  0  0  0
 35 70  1  0  0  0  0
 35 73  2  0  0  0  0
 36 68  1  0  0  0  0
 36 75  2  0  0  0  0
 37 38  1  0  0  0  0
 37 81  1  0  0  0  0
 38 69  1  0  0  0  0
 38 76  2  0  0  0  0
 39 53  1  0  0  0  0
 39 71  1  0  0  0  0
 39 77  2  0  0  0  0
 40 60  1  0  0  0  0
 40 65  1  0  0  0  0
 40 78  2  0  0  0  0
 41 61  1  0  0  0  0
 41 72  1  0  0  0  0
 41 79  2  0  0  0  0
 42 66  1  0  0  0  0
 42 70  1  0  0  0  0
 42 80  2  0  0  0  0
 43 46  1  0  0  0  0
 44 53  1  0  0  0  0
 45 65  1  0  0  0  0
 46 48  1  0  0  0  0
 47 49  1  0  0  0  0
 47 50  1  0  0  0  0
 48 52  1  0  0  0  0
 49 54  1  0  0  0  0
 50 66  1  0  0  0  0
 51 54  1  0  0  0  0
 51 66  1  0  0  0  0
 52 71  1  0  0  0  0
 53 65  1  0  0  0  0
 54 64  1  0  0  0  0
 55 61  1  0  0  0  0
 56 62  1  0  0  0  0
 57 62  1  0  0  0  0
 58 62  1  0  0  0  0
 59 74  1  0  0  0  0
 60 62  1  0  0  0  0
 60 72  1  0  0  0  0
 61 74  1  0  0  0  0
 63 64  1  0  0  0  0
M  CHG  2  73   1  74   1
M  ISO  4  34 101  42 100  70 100  83 101
M  END
> <Batch ID>
0089

> <Smiles>
CNC(C)C(=O)NC(C(=O)N1Cc2cc([101O:1][101CH2:1]C(=O)C(=O)Nc3cccc(C(=N)[100NH:0][100C:0](=O)N4CCCC(n5nc(-c6ccc(Oc7ccc(F)cc7F)cc6)c(C(N)=O)c5N)C4)c3)ccc2CC1C(=O)NC1CCCc2ccccc21)C(C)(C)C

> <Shape>
0.252

> <Color>
0.097

> <Negative vol penalty>
0.000

$$$$

  -OEChem-04052300263D

 86 95  0     1  0  0  0  0  0999 V2000
  -23.3332  -32.5729   17.7280 C   0  0  0  0  0  0  0  0  0  0  0  0
  -24.2681  -31.7629   18.3645 C   0  0  0  0  0  0  0  0  0  0  0  0
  -23.3190   -9.6687   19.9119 C   0  0  0  0  0  0  0  0  0  0  0  0
  -23.7113   -9.9239   22.2821 C   0  0  0  0  0  0  0  0  0  0  0  0
  -22.2031  -33.0072   18.4195 C   0  0  0  0  0  0  0  0  0  0  0  0
  -24.0740  -31.3876   19.6934 C   0  0  0  0  0  0  0  0  0  0  0  0
  -25.0086  -26.4732   20.4806 C   0  0  0  0  0  0  0  0  0  0  0  0
  -22.6337   -8.4781   20.1535 C   0  0  0  0  0  0  0  0  0  0  0  0
  -23.0260   -8.7333   22.5238 C   0  0  0  0  0  0  0  0  0  0  0  0
  -26.3447  -26.0861   20.5741 C   0  0  0  0  0  0  0  0  0  0  0  0
  -23.6473   -5.4160   22.3223 C   0  0  0  0  0  0  0  0  0  0  0  0
  -24.2190   -4.5088   23.2144 C   0  0  0  0  0  0  0  0  0  0  0  0
  -26.1618  -26.0570   22.9792 C   0  0  0  0  0  0  0  0  0  0  0  0
  -30.1470  -19.5920   20.5683 C   0  0  0  0  0  0  0  0  0  0  0  0
  -29.2532  -19.7829   22.8047 C   0  0  0  0  0  0  0  0  0  0  0  0
  -22.2653   -4.6669   24.6270 C   0  0  0  0  0  0  0  0  0  0  0  0
  -23.8579  -10.3916   20.9762 C   0  0  0  0  0  0  0  0  0  0  0  0
  -24.0244  -12.9195   20.6773 C   0  0  0  0  0  0  0  0  0  0  0  0
  -21.9902  -32.6292   19.7545 C   0  0  0  0  0  0  0  0  0  0  0  0
  -24.2408  -26.6660   21.6381 C   0  0  0  0  0  0  0  0  0  0  0  0
  -22.9407  -31.8184   20.4038 C   0  0  0  0  0  0  0  0  0  0  0  0
  -24.8155  -26.4440   22.8977 C   0  0  0  0  0  0  0  0  0  0  0  0
  -29.7309  -20.3826   21.6395 C   0  0  0  0  0  0  0  0  0  0  0  0
  -30.0854  -18.2017   20.6623 C   0  0  0  0  0  0  0  0  0  0  0  0
  -29.1916  -18.3925   22.8988 C   0  0  0  0  0  0  0  0  0  0  0  0
  -29.6077  -17.6019   21.8276 C   0  0  0  0  0  0  0  0  0  0  0  0
  -22.4871   -8.0104   21.4595 C   0  0  0  0  0  0  0  0  0  0  0  0
  -26.9223  -25.8808   21.8235 C   0  0  0  0  0  0  0  0  0  0  0  0
  -22.3847   -5.9488   22.5826 C   0  0  0  0  0  0  0  0  0  0  0  0
  -23.5279   -4.1342   24.3667 C   0  0  0  0  0  0  0  0  0  0  0  0
  -21.6937   -5.5741   23.7349 C   0  0  0  0  0  0  0  0  0  0  0  0
  -24.5664  -11.6212   20.7272 C   0  0  0  0  0  0  0  0  0  0  0  0
  -25.1006  -13.7309   20.4127 C   0  0  0  0  0  0  0  0  0  0  0  0
  -30.2078  -22.5921   20.5471 C   0  0  0  0  0  0  0  0  0  0  0  0
  -29.4126  -22.7530   22.4033 C   0  0  0  0  0  0  0  0  0  0  0  0
  -22.6694  -13.3533   20.8545 C   0  0  0  0  0  0  0  0  0  0  0  0
  -22.7273  -29.1396   22.9398 C   0  0  0  0  0  0  0  0  0  0  0  0
  -21.6734  -26.8952   25.0313 C   0  0  0  0  0  0  0  0  0  0  0  0
  -22.1638  -23.8624   26.5173 C   0  0  0  0  0  0  0  0  0  0  0  0
  -30.3799  -15.2631   21.2984 C   0  0  0  0  0  0  0  0  0  0  0  0
  -20.7774  -33.1623   20.4754 C   0  0  0  0  0  0  0  0  0  0  0  0
  -22.7934  -27.0576   21.5196 C   0  0  0  0  0  0  0  0  0  0  0  0
  -24.0286  -26.6178   24.1702 C   0  0  0  0  0  0  0  0  0  0  0  0
  -20.4575  -32.4125   21.7660 C   0  0  0  0  0  0  0  0  0  0  0  0
  -29.8299  -12.5809   19.0224 C   0  0  0  0  0  0  0  0  0  0  0  0
  -21.7221  -32.2142   22.5956 C   0  0  0  0  0  0  0  0  0  0  0  0
  -28.3669  -12.1989   19.2589 C   0  0  0  0  0  0  0  0  0  0  0  0
  -30.5278  -12.9836   20.3202 C   0  0  0  0  0  0  0  0  0  0  0  0
  -28.3810  -13.6448   21.3316 C   0  0  0  0  0  0  0  0  0  0  0  0
  -22.7529  -31.3698   21.8368 C   0  0  1  0  0  0  0  0  0  0  0  0
  -29.8512  -23.8292   21.3925 C   0  0  0  0  0  0  0  0  0  0  0  0
  -22.2496  -27.7240   22.7795 C   0  0  1  0  0  0  0  0  0  0  0  0
  -27.6183  -13.2941   20.0436 C   0  0  2  0  0  0  0  0  0  0  0  0
  -21.1529  -22.3131   28.2130 C   0  0  0  0  0  0  0  0  0  0  0  0
  -22.7064  -28.6835   27.2775 C   0  0  0  0  0  0  0  0  0  0  0  0
  -22.5459  -26.7190   28.8211 C   0  0  0  0  0  0  0  0  0  0  0  0
  -20.4903  -27.6162   27.7292 C   0  0  0  0  0  0  0  0  0  0  0  0
  -21.8000  -21.7170   24.5114 C   0  0  0  0  0  0  0  0  0  0  0  0
  -28.7561  -24.7243   20.8459 C   0  0  0  0  0  0  0  0  0  1  0  0
  -22.1729  -26.3370   26.3420 C   0  0  1  0  0  0  0  0  0  0  0  0
  -21.2290  -22.6874   26.7409 C   0  0  2  0  0  0  0  0  0  0  0  0
  -21.9945  -27.3374   27.5187 C   0  0  0  0  0  0  0  0  0  0  0  0
  -25.8844  -11.6041   20.5114 N   0  0  0  0  0  0  0  0  0  0  0  0
  -26.1796  -12.9016   20.3233 N   0  0  0  0  0  0  0  0  0  0  0  0
  -29.7919  -21.7531   21.5470 N   0  0  0  0  0  0  0  0  0  0  0  0
  -22.6189  -27.0078   24.0021 N   0  0  0  0  0  0  0  0  0  0  0  0
  -29.7641  -14.0275   21.0070 N   0  0  0  0  0  0  0  0  0  0  0  0
  -30.5118  -17.4217   19.5636 N   0  0  0  0  0  0  0  0  0  0  0  0
  -28.7037  -17.8082   24.0895 N   0  0  0  0  0  0  0  0  0  0  0  0
  -25.2196  -15.0657   20.2500 N   0  0  0  0  0  0  0  0  0  0  0  0
  -21.6882  -12.3883   21.1200 N   0  0  0  0  0  0  0  0  0  0  0  0
  -29.5461  -16.1896   21.9237 N   0  0  0  0  0  0  0  0  0  0  0  0
  -22.3934  -29.9688   21.8861 N   0  0  0  0  0  0  0  0  0  0  0  0
  -21.4867  -25.0635   26.5312 N   0  0  0  0  0  0  0  0  0  0  0  0
  -21.7006  -21.4976   25.9773 N   0  3  0  0  0  0  0  0  0  0  0  0
  -30.6569  -22.3923   19.4410 O   0  0  0  0  0  0  0  0  0  0  0  0
  -28.9162  -22.7455   23.5071 O   0  0  0  0  0  0  0  0  0  0  0  0
  -22.3357  -14.5591   20.7632 O   0  0  0  0  0  0  0  0  0  0  0  0
  -23.3514  -29.4564   23.9457 O   0  0  0  0  0  0  0  0  0  0  0  0
  -20.4865  -27.2129   24.9224 O   0  0  0  0  0  0  0  0  0  0  0  0
  -23.3741  -23.7284   26.3509 O   0  0  0  0  0  0  0  0  0  0  0  0
  -31.5520  -15.4928   20.9897 O   0  0  0  0  0  0  0  0  0  0  0  0
  -21.8183   -6.8487   21.6956 O   0  0  0  0  0  0  0  0  0  0  0  0
  -28.2265  -25.5036   21.9176 O   0  0  0  0  0  0  0  0  0  1  0  0
  -24.0763   -3.2618   25.2225 F   0  0  0  0  0  0  0  0  0  0  0  0
  -20.4799   -6.0816   23.9898 F   0  0  0  0  0  0  0  0  0  0  0  0
  1  2  1  0  0  0  0
  1  5  2  0  0  0  0
  2  6  2  0  0  0  0
  3  8  2  0  0  0  0
  3 17  1  0  0  0  0
  4  9  1  0  0  0  0
  4 17  2  0  0  0  0
  5 19  1  0  0  0  0
  6 21  1  0  0  0  0
  7 10  2  0  0  0  0
  7 20  1  0  0  0  0
  8 27  1  0  0  0  0
  9 27  2  0  0  0  0
 10 28  1  0  0  0  0
 11 12  2  0  0  0  0
 11 29  1  0  0  0  0
 12 30  1  0  0  0  0
 13 22  1  0  0  0  0
 13 28  2  0  0  0  0
 14 23  1  0  0  0  0
 14 24  2  0  0  0  0
 15 23  2  0  0  0  0
 15 25  1  0  0  0  0
 16 30  2  0  0  0  0
 16 31  1  0  0  0  0
 17 32  1  0  0  0  0
 18 32  1  0  0  0  0
 18 33  2  0  0  0  0
 18 36  1  0  0  0  0
 19 21  2  0  0  0  0
 19 41  1  0  0  0  0
 20 22  2  0  0  0  0
 20 42  1  0  0  0  0
 21 50  1  0  0  0  0
 22 43  1  0  0  0  0
 23 65  1  0  0  0  0
 24 26  1  0  0  0  0
 24 68  1  0  0  0  0
 25 26  2  0  0  0  0
 25 69  1  0  0  0  0
 26 72  1  0  0  0  0
 27 83  1  0  0  0  0
 28 84  1  0  0  0  0
 29 31  2  0  0  0  0
 29 83  1  0  0  0  0
 30 85  1  0  0  0  0
 31 86  1  0  0  0  0
 32 63  2  0  0  0  0
 33 64  1  0  0  0  0
 33 70  1  0  0  0  0
 34 51  1  0  0  0  0
 34 65  1  0  0  0  0
 34 76  2  0  0  0  0
 35 51  1  0  0  0  0
 35 65  1  0  0  0  0
 35 77  2  0  0  0  0
 36 71  1  0  0  0  0
 36 78  2  0  0  0  0
 37 52  1  0  0  0  0
 37 73  1  0  0  0  0
 37 79  2  0  0  0  0
 38 60  1  0  0  0  0
 38 66  1  0  0  0  0
 38 80  2  0  0  0  0
 39 61  1  0  0  0  0
 39 74  1  0  0  0  0
 39 81  2  0  0  0  0
 40 67  1  0  0  0  0
 40 72  1  0  0  0  0
 40 82  2  0  0  0  0
 41 44  1  0  0  0  0
 42 52  1  0  0  0  0
 43 66  1  0  0  0  0
 44 46  1  0  0  0  0
 45 47  1  0  0  0  0
 45 48  1  0  0  0  0
 46 50  1  0  0  0  0
 47 53  1  0  0  0  0
 48 67  1  0  0  0  0
 49 53  1  0  0  0  0
 49 67  1  0  0  0  0
 50 73  1  0  0  0  0
 51 59  1  0  0  0  0
 52 66  1  0  0  0  0
 53 64  1  0  0  0  0
 54 61  1  0  0  0  0
 55 62  1  0  0  0  0
 56 62  1  0  0  0  0
 57 62  1  0  0  0  0
 58 75  1  0  0  0  0
 59 84  1  0  0  0  0
 60 62  1  0  0  0  0
 60 74  1  0  0  0  0
 61 75  1  0  0  0  0
 63 64  1  0  0  0  0
M  CHG  1  75   1
M  ISO  4  40 100  59 101  72 100  84 101
M  END
> <Batch ID>
0089

> <Smiles>
CNC(C)C(=O)NC(C(=O)N1Cc2cc([101O:1][101CH2:1]C3C(=O)N(c4cc(N)c([100NH:0][100C:0](=O)N5CCCC(n6nc(-c7ccc(Oc8ccc(F)cc8F)cc7)c(C(N)=O)c6N)C5)c(N)c4)C3=O)ccc2CC1C(=O)NC1CCCc2ccccc21)C(C)(C)C

> <Shape>
0.257

> <Color>
0.181

> <Negative vol penalty>
0.000

$$$$

  -OEChem-04052300263D

 87 96  0     1  0  0  0  0  0999 V2000
  -23.1814  -31.3745   14.5589 C   0  0  0  0  0  0  0  0  0  0  0  0
  -24.0086  -30.4258   15.1514 C   0  0  0  0  0  0  0  0  0  0  0  0
  -23.6500   -8.9965   20.0760 C   0  0  0  0  0  0  0  0  0  0  0  0
  -23.0953  -10.8576   21.5132 C   0  0  0  0  0  0  0  0  0  0  0  0
  -22.8865  -32.5589   15.2328 C   0  0  0  0  0  0  0  0  0  0  0  0
  -24.5424  -30.6615   16.4179 C   0  0  0  0  0  0  0  0  0  0  0  0
  -24.2088  -26.6191   19.4498 C   0  0  0  0  0  0  0  0  0  0  0  0
  -30.9896  -19.4026   20.1362 C   0  0  0  0  0  0  0  0  0  0  0  0
  -30.8350  -18.0165   20.1130 C   0  0  0  0  0  0  0  0  0  0  0  0
  -22.7257   -8.1995   20.7512 C   0  0  0  0  0  0  0  0  0  0  0  0
  -22.1709  -10.0605   22.1885 C   0  0  0  0  0  0  0  0  0  0  0  0
  -25.1391  -25.5990   19.2555 C   0  0  0  0  0  0  0  0  0  0  0  0
  -19.3738   -7.7559   20.7849 C   0  0  0  0  0  0  0  0  0  0  0  0
  -18.5208   -6.9616   20.0188 C   0  0  0  0  0  0  0  0  0  0  0  0
  -26.4283  -26.4281   21.1182 C   0  0  0  0  0  0  0  0  0  0  0  0
  -28.9708  -19.6497   18.8323 C   0  0  0  0  0  0  0  0  0  0  0  0
  -19.3965   -4.9835   21.0947 C   0  0  0  0  0  0  0  0  0  0  0  0
  -23.8349  -10.3255   20.4570 C   0  0  0  0  0  0  0  0  0  0  0  0
  -24.5539  -11.9529   18.6288 C   0  0  0  0  0  0  0  0  0  0  0  0
  -23.4091  -32.8050   16.5122 C   0  0  0  0  0  0  0  0  0  0  0  0
  -24.3873  -27.5595   20.4746 C   0  0  0  0  0  0  0  0  0  0  0  0
  -24.2553  -31.8509   17.1090 C   0  0  0  0  0  0  0  0  0  0  0  0
  -25.4976  -27.4577   21.3250 C   0  0  0  0  0  0  0  0  0  0  0  0
  -30.0575  -20.2192   19.4959 C   0  0  0  0  0  0  0  0  0  0  0  0
  -29.7483  -17.4471   19.4494 C   0  0  0  0  0  0  0  0  0  0  0  0
  -21.9861   -8.7315   21.8074 C   0  0  0  0  0  0  0  0  0  0  0  0
  -26.2506  -25.5051   20.0880 C   0  0  0  0  0  0  0  0  0  0  0  0
  -20.2382   -7.1640   21.7060 C   0  0  0  0  0  0  0  0  0  0  0  0
  -18.5321   -5.5754   20.1737 C   0  0  0  0  0  0  0  0  0  0  0  0
  -28.8161  -18.2636   18.8090 C   0  0  0  0  0  0  0  0  0  0  0  0
  -20.2495   -5.7779   21.8609 C   0  0  0  0  0  0  0  0  0  0  0  0
  -24.7899  -11.1492   19.7602 C   0  0  0  0  0  0  0  0  0  0  0  0
  -25.7711  -12.5276   18.3559 C   0  0  0  0  0  0  0  0  0  0  0  0
  -29.4303  -23.9695   19.4239 C   0  0  0  0  0  0  0  0  0  0  0  0
  -30.7996  -24.4745   19.1333 C   0  0  0  0  0  0  0  0  0  0  0  0
  -29.1002  -22.5082   19.4753 C   0  0  0  0  0  0  0  0  0  0  0  0
  -28.4520  -24.8638   19.6265 C   0  0  0  0  0  0  0  0  0  1  0  0
  -23.3426  -12.1614   17.8906 C   0  0  0  0  0  0  0  0  0  0  0  0
  -24.7927  -30.7103   20.5822 C   0  0  0  0  0  0  0  0  0  0  0  0
  -24.5731  -30.2376   23.7839 C   0  0  0  0  0  0  0  0  0  0  0  0
  -24.8993  -28.1028   26.4264 C   0  0  0  0  0  0  0  0  0  0  0  0
  -30.4298  -15.0880   20.0124 C   0  0  0  0  0  0  0  0  0  0  0  0
  -23.1004  -34.1207   17.1817 C   0  0  0  0  0  0  0  0  0  0  0  0
  -23.3608  -28.6380   20.6879 C   0  0  0  0  0  0  0  0  0  0  0  0
  -25.7246  -28.4301   22.4526 C   0  0  0  0  0  0  0  0  0  0  0  0
  -31.8500  -23.4247   18.9163 C   0  0  0  0  0  0  0  0  0  0  0  0
  -23.4038  -34.1288   18.6778 C   0  0  0  0  0  0  0  0  0  0  0  0
  -30.3737  -11.5337   20.2134 C   0  0  0  0  0  0  0  0  0  0  0  0
  -24.7774  -33.5225   18.9472 C   0  0  0  0  0  0  0  0  0  0  0  0
  -28.8966  -11.1829   20.0203 C   0  0  0  0  0  0  0  0  0  0  0  0
  -31.5606  -22.1989   19.7661 C   0  0  0  0  0  0  0  0  0  0  0  0
  -30.5506  -12.8194   21.0192 C   0  0  0  0  0  0  0  0  0  0  0  0
  -28.3332  -13.6290   20.3143 C   0  0  0  0  0  0  0  0  0  0  0  0
  -24.8335  -32.0593   18.4919 C   0  0  1  0  0  0  0  0  0  0  0  0
  -23.9110  -29.8465   21.4390 C   0  0  1  0  0  0  0  0  0  0  0  0
  -28.1034  -12.3764   19.4529 C   0  0  2  0  0  0  0  0  0  0  0  0
  -24.6874  -28.0145   28.9253 C   0  0  0  0  0  0  0  0  0  0  0  0
  -27.2242  -31.7228   24.0587 C   0  0  0  0  0  0  0  0  0  0  0  0
  -27.4268  -30.7902   26.3733 C   0  0  0  0  0  0  0  0  0  0  0  0
  -25.5223  -32.2955   25.7993 C   0  0  0  0  0  0  0  0  0  0  0  0
  -22.7796  -26.0419   26.2899 C   0  0  0  0  0  0  0  0  0  0  0  0
  -25.5554  -29.9367   24.8900 C   0  0  1  0  0  0  0  0  0  0  0  0
  -23.9803  -27.8000   27.5961 C   0  0  2  0  0  0  0  0  0  0  0  0
  -26.4292  -31.1690   25.2580 C   0  0  0  0  0  0  0  0  0  0  0  0
  -26.0575  -11.2056   20.1774 N   0  0  0  0  0  0  0  0  0  0  0  0
  -26.6289  -12.0515   19.3033 N   0  0  0  0  0  0  0  0  0  0  0  0
  -30.2176  -21.6528   19.5193 N   0  0  0  0  0  0  0  0  0  0  0  0
  -24.6961  -29.4706   22.6166 N   0  0  0  0  0  0  0  0  0  0  0  0
  -29.7741  -13.9072   20.4204 N   0  0  0  0  0  0  0  0  0  0  0  0
  -26.1807  -13.3887   17.4002 N   0  0  0  0  0  0  0  0  0  0  0  0
  -22.1830  -11.4932   18.3069 N   0  0  0  0  0  0  0  0  0  0  0  0
  -29.5942  -16.0387   19.4271 N   0  0  0  0  0  0  0  0  0  0  0  0
  -24.1690  -31.2052   19.4528 N   0  0  0  0  0  0  0  0  0  0  0  0
  -24.7705  -29.4078   26.0002 N   0  0  0  0  0  0  0  0  0  0  0  0
  -23.5129  -26.3862   27.5352 N   0  3  0  0  0  0  0  0  0  0  0  0
  -31.0578  -25.6700   19.0217 O   0  0  0  0  0  0  0  0  0  0  0  0
  -27.9227  -22.1512   19.5022 O   0  0  0  0  0  0  0  0  0  0  0  0
  -23.2939  -12.9050   16.8815 O   0  0  0  0  0  0  0  0  0  0  0  0
  -25.9524  -30.9141   20.9215 O   0  0  0  0  0  0  0  0  0  0  0  0
  -23.7232  -31.1157   23.9521 O   0  0  0  0  0  0  0  0  0  0  0  0
  -25.6583  -27.2664   25.9418 O   0  0  0  0  0  0  0  0  0  0  0  0
  -31.6476  -15.2334   20.1459 O   0  0  0  0  0  0  0  0  0  0  0  0
  -21.0839   -7.9541   22.4664 O   0  0  0  0  0  0  0  0  0  0  0  0
  -27.1604  -24.5108   19.9001 O   0  0  0  0  0  0  0  0  0  1  0  0
  -17.7118   -4.8128   19.4389 F   0  0  0  0  0  0  0  0  0  0  0  0
  -27.7685  -17.7272   18.1668 F   0  0  0  0  0  0  0  0  0  0  0  0
  -21.0768   -5.2036   22.7449 F   0  0  0  0  0  0  0  0  0  0  0  0
  1  2  1  0  0  0  0
  1  5  2  0  0  0  0
  2  6  2  0  0  0  0
  3 10  2  0  0  0  0
  3 18  1  0  0  0  0
  4 11  1  0  0  0  0
  4 18  2  0  0  0  0
  5 20  1  0  0  0  0
  6 22  1  0  0  0  0
  7 12  2  0  0  0  0
  7 21  1  0  0  0  0
  8  9  2  0  0  0  0
  8 24  1  0  0  0  0
  9 25  1  0  0  0  0
 10 26  1  0  0  0  0
 11 26  2  0  0  0  0
 12 27  1  0  0  0  0
 13 14  2  0  0  0  0
 13 28  1  0  0  0  0
 14 29  1  0  0  0  0
 15 23  1  0  0  0  0
 15 27  2  0  0  0  0
 16 24  2  0  0  0  0
 16 30  1  0  0  0  0
 17 29  2  0  0  0  0
 17 31  1  0  0  0  0
 18 32  1  0  0  0  0
 19 32  1  0  0  0  0
 19 33  2  0  0  0  0
 19 38  1  0  0  0  0
 20 22  2  0  0  0  0
 20 43  1  0  0  0  0
 21 23  2  0  0  0  0
 21 44  1  0  0  0  0
 22 54  1  0  0  0  0
 23 45  1  0  0  0  0
 24 67  1  0  0  0  0
 25 30  2  0  0  0  0
 25 72  1  0  0  0  0
 26 83  1  0  0  0  0
 27 84  1  0  0  0  0
 28 31  2  0  0  0  0
 28 83  1  0  0  0  0
 29 85  1  0  0  0  0
 30 86  1  0  0  0  0
 31 87  1  0  0  0  0
 32 65  2  0  0  0  0
 33 66  1  0  0  0  0
 33 70  1  0  0  0  0
 34 35  1  0  0  0  0
 34 36  1  0  0  0  0
 34 37  2  0  0  0  0
 35 46  1  0  0  0  0
 35 76  2  0  0  0  0
 36 67  1  0  0  0  0
 36 77  2  0  0  0  0
 37 84  1  0  0  0  0
 38 71  1  0  0  0  0
 38 78  2  0  0  0  0
 39 55  1  0  0  0  0
 39 73  1  0  0  0  0
 39 79  2  0  0  0  0
 40 62  1  0  0  0  0
 40 68  1  0  0  0  0
 40 80  2  0  0  0  0
 41 63  1  0  0  0  0
 41 74  1  0  0  0  0
 41 81  2  0  0  0  0
 42 69  1  0  0  0  0
 42 72  1  0  0  0  0
 42 82  2  0  0  0  0
 43 47  1  0  0  0  0
 44 55  1  0  0  0  0
 45 68  1  0  0  0  0
 46 51  1  0  0  0  0
 47 49  1  0  0  0  0
 48 50  1  0  0  0  0
 48 52  1  0  0  0  0
 49 54  1  0  0  0  0
 50 56  1  0  0  0  0
 51 67  1  0  0  0  0
 52 69  1  0  0  0  0
 53 56  1  0  0  0  0
 53 69  1  0  0  0  0
 54 73  1  0  0  0  0
 55 68  1  0  0  0  0
 56 66  1  0  0  0  0
 57 63  1  0  0  0  0
 58 64  1  0  0  0  0
 59 64  1  0  0  0  0
 60 64  1  0  0  0  0
 61 75  1  0  0  0  0
 62 64  1  0  0  0  0
 62 74  1  0  0  0  0
 63 75  1  0  0  0  0
 65 66  1  0  0  0  0
M  CHG  1  75   1
M  ISO  4  37 101  42 100  72 100  84 101
M  END
> <Batch ID>
0089

> <Smiles>
CNC(C)C(=O)NC(C(=O)N1Cc2cc([101O:1][101CH:1]=C3C(=O)CCN(c4ccc([100NH:0][100C:0](=O)N5CCCC(n6nc(-c7ccc(Oc8ccc(F)cc8F)cc7)c(C(N)=O)c6N)C5)c(F)c4)C3=O)ccc2CC1C(=O)NC1CCCc2ccccc21)C(C)(C)C

> <Shape>
0.258

> <Color>
0.100

> <Negative vol penalty>
0.000

$$$$

  -OEChem-04052300263D

 85 93  0     1  0  0  0  0  0999 V2000
  -28.2338  -16.5076   18.4744 C   0  0  0  0  0  0  0  0  0  0  0  0
  -27.2672  -17.4642   18.1812 C   0  0  0  0  0  0  0  0  0  0  0  0
  -18.0856  -28.6285   23.2549 C   0  0  0  0  0  0  0  0  0  0  0  0
  -24.0703  -14.4173   22.1356 C   0  0  0  0  0  0  0  0  0  0  0  0
  -26.0924  -15.3222   21.1715 C   0  0  0  0  0  0  0  0  0  0  0  0
  -17.8159  -27.3379   22.7998 C   0  0  0  0  0  0  0  0  0  0  0  0
  -29.2446  -16.7975   19.3900 C   0  0  0  0  0  0  0  0  0  0  0  0
  -27.3101  -18.7109   18.8042 C   0  0  0  0  0  0  0  0  0  0  0  0
  -25.7931  -25.6080   17.6020 C   0  0  0  0  0  0  0  0  0  0  0  0
  -19.3599  -29.1727   23.0940 C   0  0  0  0  0  0  0  0  0  0  0  0
  -24.4258  -13.1452   21.6873 C   0  0  0  0  0  0  0  0  0  0  0  0
  -26.4480  -14.0500   20.7234 C   0  0  0  0  0  0  0  0  0  0  0  0
  -25.0863  -26.6695   18.1655 C   0  0  0  0  0  0  0  0  0  0  0  0
  -25.6233  -11.9853   18.1762 C   0  0  0  0  0  0  0  0  0  0  0  0
  -26.0950  -11.8671   16.8689 C   0  0  0  0  0  0  0  0  0  0  0  0
  -20.0946  -27.1356   22.0230 C   0  0  0  0  0  0  0  0  0  0  0  0
  -26.9246  -27.0866   19.6708 C   0  0  0  0  0  0  0  0  0  0  0  0
  -28.1839  -10.9845   17.7023 C   0  0  0  0  0  0  0  0  0  0  0  0
  -24.9036  -15.5058   21.8776 C   0  0  0  0  0  0  0  0  0  0  0  0
  -18.8204  -26.5914   22.1839 C   0  0  0  0  0  0  0  0  0  0  0  0
  -24.8632  -17.4084   23.5765 C   0  0  0  0  0  0  0  0  0  0  0  0
  -29.3055  -18.0519   20.0173 C   0  0  0  0  0  0  0  0  0  0  0  0
  -27.0687  -25.2705   18.0768 C   0  0  0  0  0  0  0  0  0  0  0  0
  -28.3219  -19.0174   19.7301 C   0  0  0  0  0  0  0  0  0  0  0  0
  -27.6466  -26.0221   19.1099 C   0  0  0  0  0  0  0  0  0  0  0  0
  -20.3644  -28.4263   22.4781 C   0  0  0  0  0  0  0  0  0  0  0  0
  -25.6147  -12.9615   20.9813 C   0  0  0  0  0  0  0  0  0  0  0  0
  -25.6508  -27.4071   19.2020 C   0  0  0  0  0  0  0  0  0  0  0  0
  -26.4320  -11.6031   19.2466 C   0  0  0  0  0  0  0  0  0  0  0  0
  -27.3752  -11.3667   16.6319 C   0  0  0  0  0  0  0  0  0  0  0  0
  -27.7122  -11.1027   19.0096 C   0  0  0  0  0  0  0  0  0  0  0  0
  -24.5366  -16.8203   22.3399 C   0  0  0  0  0  0  0  0  0  0  0  0
  -24.2843  -18.6530   23.5283 C   0  0  0  0  0  0  0  0  0  0  0  0
  -19.3266  -24.1005   22.2766 C   0  0  0  0  0  0  0  0  0  0  0  0
  -19.0813  -22.8487   21.8760 C   0  0  0  0  0  0  0  0  0  0  0  0
  -18.5377  -25.2461   21.7098 C   0  0  0  0  0  0  0  0  0  0  0  0
  -25.6220  -16.8773   24.6709 C   0  0  0  0  0  0  0  0  0  0  0  0
  -19.8779  -21.7558   22.4690 C   0  0  0  0  0  0  0  0  0  0  0  0
  -28.3454  -22.7014   19.4456 C   0  0  0  0  0  0  0  0  0  0  0  0
  -31.1017  -24.3818   19.1271 C   0  0  0  0  0  0  0  0  0  0  0  0
  -22.7682  -28.3795   21.7275 C   0  0  0  0  0  0  0  0  0  0  0  0
  -32.6215  -27.4201   18.8025 C   0  0  0  0  0  0  0  0  0  0  0  0
  -30.3896  -18.3024   21.0355 C   0  0  0  0  0  0  0  0  0  0  0  0
  -27.8292  -24.1396   17.4403 C   0  0  0  0  0  0  0  0  0  0  0  0
  -29.0214  -25.7132   19.6420 C   0  0  0  0  0  0  0  0  0  0  0  0
  -30.5805  -19.7793   21.3710 C   0  0  0  0  0  0  0  0  0  0  0  0
  -22.2043  -21.1852   19.6952 C   0  0  0  0  0  0  0  0  0  0  0  0
  -29.2326  -20.4491   21.6186 C   0  0  0  0  0  0  0  0  0  0  0  0
  -23.0151  -20.0075   20.2295 C   0  0  0  0  0  0  0  0  0  0  0  0
  -20.7473  -21.1302   20.1518 C   0  0  0  0  0  0  0  0  0  0  0  0
  -21.4012  -19.8426   22.1655 C   0  0  0  0  0  0  0  0  0  0  0  0
  -28.3490  -20.3900   20.3667 C   0  0  1  0  0  0  0  0  0  0  0  0
  -28.9090  -23.5597   18.3487 C   0  0  1  0  0  0  0  0  0  0  0  0
  -22.8813  -19.9030   21.7570 C   0  0  1  0  0  0  0  0  0  0  0  0
  -34.8885  -28.4774   18.6030 C   0  0  0  0  0  0  0  0  0  0  0  0
  -31.5630  -23.9501   22.1122 C   0  0  0  0  0  0  0  0  0  0  0  0
  -33.2734  -25.7770   22.0411 C   0  0  0  0  0  0  0  0  0  0  0  0
  -33.6083  -23.7042   20.6942 C   0  0  0  0  0  0  0  0  0  0  0  0
  -31.9858  -28.5559   16.1445 C   0  0  0  0  0  0  0  0  0  0  0  0
  -23.9630  -29.3259   21.7578 C   0  0  0  0  0  0  0  0  0  0  0  0
  -25.2135  -28.7298   21.1295 C   0  0  0  0  0  0  0  0  0  1  0  0
  -31.8519  -25.3764   19.9796 C   0  0  1  0  0  0  0  0  0  0  0  0
  -33.6948  -27.9127   17.8487 C   0  0  2  0  0  0  0  0  0  0  0  0
  -32.5475  -24.7068   21.1983 C   0  0  0  0  0  0  0  0  0  0  0  0
  -23.8067  -17.6250   21.5629 N   0  0  0  0  0  0  0  0  0  0  0  0
  -23.6698  -18.7315   22.3132 N   0  0  0  0  0  0  0  0  0  0  0  0
  -20.6460  -20.9714   21.6104 N   0  0  0  0  0  0  0  0  0  0  0  0
  -29.7225  -24.5940   18.9912 N   0  0  0  0  0  0  0  0  0  0  0  0
  -24.2460  -19.6770   24.4072 N   0  0  0  0  0  0  0  0  0  0  0  0
  -26.1453  -15.5823   24.5548 N   0  0  0  0  0  0  0  0  0  0  0  0
  -21.6570  -28.9787   22.3147 N   0  0  0  0  0  0  0  0  0  0  0  0
  -28.7684  -21.3865   19.4046 N   0  0  0  0  0  0  0  0  0  0  0  0
  -32.7638  -26.0774   19.0820 N   0  0  0  0  0  0  0  0  0  0  0  0
  -33.1504  -28.9806   16.9632 N   0  3  0  0  0  0  0  0  0  0  0  0
  -17.6455  -25.0402   20.8727 O   0  0  0  0  0  0  0  0  0  0  0  0
  -25.8161  -17.5254   25.7271 O   0  0  0  0  0  0  0  0  0  0  0  0
  -19.8108  -21.6009   23.6897 O   0  0  0  0  0  0  0  0  0  0  0  0
  -27.5843  -23.1957   20.2690 O   0  0  0  0  0  0  0  0  0  0  0  0
  -31.7179  -23.4548   18.5955 O   0  0  0  0  0  0  0  0  0  0  0  0
  -22.8374  -27.2562   21.2400 O   0  0  0  0  0  0  0  0  0  0  0  0
  -31.7467  -28.1540   19.2572 O   0  0  0  0  0  0  0  0  0  0  0  0
  -25.9620  -11.7203   20.5440 O   0  0  0  0  0  0  0  0  0  0  0  0
  -24.9628  -28.4432   19.7543 O   0  0  0  0  0  0  0  0  0  1  0  0
  -27.8274  -11.2518   15.3763 F   0  0  0  0  0  0  0  0  0  0  0  0
  -28.4933  -10.7328   20.0338 F   0  0  0  0  0  0  0  0  0  0  0  0
  1  2  1  0  0  0  0
  1  7  2  0  0  0  0
  2  8  2  0  0  0  0
  3  6  1  0  0  0  0
  3 10  2  0  0  0  0
  4 11  2  0  0  0  0
  4 19  1  0  0  0  0
  5 12  1  0  0  0  0
  5 19  2  0  0  0  0
  6 20  2  0  0  0  0
  7 22  1  0  0  0  0
  8 24  1  0  0  0  0
  9 13  2  0  0  0  0
  9 23  1  0  0  0  0
 10 26  1  0  0  0  0
 11 27  1  0  0  0  0
 12 27  2  0  0  0  0
 13 28  1  0  0  0  0
 14 15  2  0  0  0  0
 14 29  1  0  0  0  0
 15 30  1  0  0  0  0
 16 20  1  0  0  0  0
 16 26  2  0  0  0  0
 17 25  1  0  0  0  0
 17 28  2  0  0  0  0
 18 30  2  0  0  0  0
 18 31  1  0  0  0  0
 19 32  1  0  0  0  0
 20 36  1  0  0  0  0
 21 32  1  0  0  0  0
 21 33  2  0  0  0  0
 21 37  1  0  0  0  0
 22 24  2  0  0  0  0
 22 43  1  0  0  0  0
 23 25  2  0  0  0  0
 23 44  1  0  0  0  0
 24 52  1  0  0  0  0
 25 45  1  0  0  0  0
 26 71  1  0  0  0  0
 27 82  1  0  0  0  0
 28 83  1  0  0  0  0
 29 31  2  0  0  0  0
 29 82  1  0  0  0  0
 30 84  1  0  0  0  0
 31 85  1  0  0  0  0
 32 65  2  0  0  0  0
 33 66  1  0  0  0  0
 33 69  1  0  0  0  0
 34 35  2  0  0  0  0
 34 36  1  0  0  0  0
 35 38  1  0  0  0  0
 36 75  2  0  0  0  0
 37 70  1  0  0  0  0
 37 76  2  0  0  0  0
 38 67  1  0  0  0  0
 38 77  2  0  0  0  0
 39 53  1  0  0  0  0
 39 72  1  0  0  0  0
 39 78  2  0  0  0  0
 40 62  1  0  0  0  0
 40 68  1  0  0  0  0
 40 79  2  0  0  0  0
 41 60  1  0  0  0  0
 41 71  1  0  0  0  0
 41 80  2  0  0  0  0
 42 63  1  0  0  0  0
 42 73  1  0  0  0  0
 42 81  2  0  0  0  0
 43 46  1  0  0  0  0
 44 53  1  0  0  0  0
 45 68  1  0  0  0  0
 46 48  1  0  0  0  0
 47 49  1  0  0  0  0
 47 50  1  0  0  0  0
 48 52  1  0  0  0  0
 49 54  1  0  0  0  0
 50 67  1  0  0  0  0
 51 54  1  0  0  0  0
 51 67  1  0  0  0  0
 52 72  1  0  0  0  0
 53 68  1  0  0  0  0
 54 66  1  0  0  0  0
 55 63  1  0  0  0  0
 56 64  1  0  0  0  0
 57 64  1  0  0  0  0
 58 64  1  0  0  0  0
 59 74  1  0  0  0  0
 60 61  1  0  0  0  0
 61 83  1  0  0  0  0
 62 64  1  0  0  0  0
 62 73  1  0  0  0  0
 63 74  1  0  0  0  0
 65 66  1  0  0  0  0
M  CHG  1  74   1
M  ISO  4  35 100  38 100  61 101  83 101
M  END
> <Batch ID>
0089

> <Smiles>
CNC(C)C(=O)NC(C(=O)N1Cc2cc([101O:1][101CH2:1]CC(=O)Nc3cccc(C(=O)C=[100CH:0][100C:0](=O)N4CCCC(n5nc(-c6ccc(Oc7ccc(F)cc7F)cc6)c(C(N)=O)c5N)C4)c3)ccc2CC1C(=O)NC1CCCc2ccccc21)C(C)(C)C

> <Shape>
0.224

> <Color>
0.052

> <Negative vol penalty>
0.000

$$$$

  -OEChem-04052300263D

 87 96  0     1  0  0  0  0  0999 V2000
  -32.0721  -31.8979   19.4075 C   0  0  0  0  0  0  0  0  0  0  0  0
  -31.3268  -30.7296   19.5298 C   0  0  0  0  0  0  0  0  0  0  0  0
  -24.3154   -8.7039   19.4829 C   0  0  0  0  0  0  0  0  0  0  0  0
  -24.9189   -8.8870   21.8152 C   0  0  0  0  0  0  0  0  0  0  0  0
  -31.8809  -32.9430   20.3103 C   0  0  0  0  0  0  0  0  0  0  0  0
  -30.3906  -30.6053   20.5558 C   0  0  0  0  0  0  0  0  0  0  0  0
  -26.0006  -28.6542   18.9540 C   0  0  0  0  0  0  0  0  0  0  0  0
  -23.0917   -8.1401   19.8438 C   0  0  0  0  0  0  0  0  0  0  0  0
  -23.6951   -8.3232   22.1761 C   0  0  0  0  0  0  0  0  0  0  0  0
  -25.9523  -27.2754   18.7527 C   0  0  0  0  0  0  0  0  0  0  0  0
  -22.3163   -5.2392   22.3117 C   0  0  0  0  0  0  0  0  0  0  0  0
  -22.3240   -4.2461   23.2912 C   0  0  0  0  0  0  0  0  0  0  0  0
  -24.8665  -27.0075   20.8901 C   0  0  0  0  0  0  0  0  0  0  0  0
  -25.5897  -18.9434   16.7156 C   0  0  0  0  0  0  0  0  0  0  0  0
  -27.0408  -18.2029   18.4996 C   0  0  0  0  0  0  0  0  0  0  0  0
  -20.8883   -5.6050   24.6802 C   0  0  0  0  0  0  0  0  0  0  0  0
  -25.2291   -9.0773   20.4686 C   0  0  0  0  0  0  0  0  0  0  0  0
  -27.4977   -9.0741   19.3020 C   0  0  0  0  0  0  0  0  0  0  0  0
  -30.9351  -32.8353   21.3420 C   0  0  0  0  0  0  0  0  0  0  0  0
  -25.4911  -29.2198   20.1317 C   0  0  0  0  0  0  0  0  0  0  0  0
  -30.1876  -31.6494   21.4740 C   0  0  0  0  0  0  0  0  0  0  0  0
  -24.9072  -28.3939   21.1028 C   0  0  0  0  0  0  0  0  0  0  0  0
  -26.3479  -19.2256   17.8518 C   0  0  0  0  0  0  0  0  0  0  0  0
  -25.5243  -17.6384   16.2271 C   0  0  0  0  0  0  0  0  0  0  0  0
  -26.9755  -16.8979   18.0112 C   0  0  0  0  0  0  0  0  0  0  0  0
  -22.7815   -7.9498   21.1904 C   0  0  0  0  0  0  0  0  0  0  0  0
  -25.3878  -26.4515   19.7221 C   0  0  0  0  0  0  0  0  0  0  0  0
  -21.5947   -6.4152   22.5166 C   0  0  0  0  0  0  0  0  0  0  0  0
  -21.6100   -4.4290   24.4754 C   0  0  0  0  0  0  0  0  0  0  0  0
  -20.8807   -6.5981   23.7008 C   0  0  0  0  0  0  0  0  0  0  0  0
  -26.2172  -16.6157   16.8749 C   0  0  0  0  0  0  0  0  0  0  0  0
  -26.4936   -9.6592   20.0965 C   0  0  0  0  0  0  0  0  0  0  0  0
  -28.4881  -10.0240   19.2457 C   0  0  0  0  0  0  0  0  0  0  0  0
  -26.5305  -23.2896   19.1929 C   0  0  0  0  0  0  0  0  0  0  0  0
  -27.7741  -22.4774   19.0008 C   0  0  0  0  0  0  0  0  0  0  0  0
  -27.5320   -7.7870   18.6712 C   0  0  0  0  0  0  0  0  0  0  0  0
  -26.7273  -30.8992   22.5307 C   0  0  0  0  0  0  0  0  0  0  0  0
  -23.6268  -31.1219   23.4580 C   0  0  0  0  0  0  0  0  0  0  0  0
  -20.4741  -29.8186   23.3646 C   0  0  0  0  0  0  0  0  0  0  0  0
  -28.4759  -15.9726   19.8108 C   0  0  0  0  0  0  0  0  0  0  0  0
  -30.7974  -33.9731   22.3224 C   0  0  0  0  0  0  0  0  0  0  0  0
  -25.5267  -30.7114   20.3218 C   0  0  0  0  0  0  0  0  0  0  0  0
  -24.3280  -28.9535   22.3755 C   0  0  0  0  0  0  0  0  0  0  0  0
  -25.2384  -22.5395   19.1994 C   0  0  0  0  0  0  0  0  0  0  0  0
  -27.6178  -20.9822   19.0433 C   0  0  0  0  0  0  0  0  0  0  0  0
  -29.5196  -33.9083   23.1551 C   0  0  0  0  0  0  0  0  0  0  0  0
  -30.3442  -13.6522   21.7608 C   0  0  0  0  0  0  0  0  0  0  0  0
  -29.3077  -32.4990   23.6989 C   0  0  0  0  0  0  0  0  0  0  0  0
  -29.6640  -12.3107   21.4782 C   0  0  0  0  0  0  0  0  0  0  0  0
  -25.2800  -21.4435   18.1441 C   0  0  0  0  0  0  0  0  0  0  0  0
  -29.3352  -14.7974   21.8247 C   0  0  0  0  0  0  0  0  0  0  0  0
  -27.7665  -13.5663   20.3781 C   0  0  0  0  0  0  0  0  0  0  0  0
  -29.1450  -31.4865   22.5587 C   0  0  1  0  0  0  0  0  0  0  0  0
  -25.4423  -31.1293   21.7866 C   0  0  1  0  0  0  0  0  0  0  0  0
  -28.7495  -12.3923   20.2402 C   0  0  2  0  0  0  0  0  0  0  0  0
  -18.1578  -30.2001   24.2515 C   0  0  0  0  0  0  0  0  0  0  0  0
  -24.4931  -30.0434   26.1776 C   0  0  0  0  0  0  0  0  0  0  0  0
  -22.0879  -29.5548   26.6721 C   0  0  0  0  0  0  0  0  0  0  0  0
  -22.8258  -31.9047   26.2765 C   0  0  0  0  0  0  0  0  0  0  0  0
  -19.3596  -30.1413   20.6420 C   0  0  0  0  0  0  0  0  0  0  0  0
  -22.7094  -30.2974   24.3283 C   0  0  1  0  0  0  0  0  0  0  0  0
  -19.1245  -30.4643   23.1076 C   0  0  2  0  0  0  0  0  0  0  0  0
  -23.0416  -30.4390   25.8406 C   0  0  0  0  0  0  0  0  0  0  0  0
  -26.8166  -10.8858   20.5150 N   0  0  0  0  0  0  0  0  0  0  0  0
  -26.6282  -24.5631   19.3730 N   0  0  0  0  0  0  0  0  0  1  0  0
  -28.0349  -11.0791   19.9816 N   0  0  0  0  0  0  0  0  0  0  0  0
  -26.4128  -20.5338   18.3429 N   0  0  3  0  0  0  0  0  0  0  0  0
  -24.3922  -30.4175   22.5179 N   0  0  0  0  0  0  0  0  0  0  0  0
  -28.5070  -14.8150   20.6169 N   0  0  0  0  0  0  0  0  0  0  0  0
  -24.7572  -17.3559   15.0774 N   0  0  0  0  0  0  0  0  0  0  0  0
  -29.6938  -10.0513   18.6392 N   0  0  0  0  0  0  0  0  0  0  0  0
  -28.0662   -6.7065   19.3863 N   0  0  0  0  0  0  0  0  0  0  0  0
  -27.6795  -15.8607   18.6716 N   0  0  0  0  0  0  0  0  0  0  0  0
  -27.8134  -31.5668   21.9976 N   0  0  0  0  0  0  0  0  0  0  0  0
  -21.3496  -30.6911   23.9759 N   0  0  0  0  0  0  0  0  0  0  0  0
  -18.5249  -29.9292   21.8525 N   0  3  0  0  0  0  0  0  0  0  0  0
  -28.8453  -23.0563   18.8952 O   0  0  0  0  0  0  0  0  0  0  0  0
  -27.1167   -7.6040   17.5017 O   0  0  0  0  0  0  0  0  0  0  0  0
  -26.7327  -30.1712   23.5164 O   0  0  0  0  0  0  0  0  0  0  0  0
  -23.6578  -32.3467   23.6019 O   0  0  0  0  0  0  0  0  0  0  0  0
  -20.7254  -28.6554   23.0574 O   0  0  0  0  0  0  0  0  0  0  0  0
  -29.1307  -16.9789   20.0947 O   0  0  0  0  0  0  0  0  0  0  0  0
  -21.5874   -7.3999   21.5429 O   0  0  0  0  0  0  0  0  0  0  0  0
  -25.3401  -25.1054   19.5284 O   0  0  0  0  0  0  0  0  0  1  0  0
  -21.6162   -3.4746   25.4152 F   0  0  0  0  0  0  0  0  0  0  0  0
  -20.1846   -7.7253   23.9027 F   0  0  0  0  0  0  0  0  0  0  0  0
  -26.1540  -15.3606   16.4045 F   0  0  0  0  0  0  0  0  0  0  0  0
  1  2  1  0  0  0  0
  1  5  2  0  0  0  0
  2  6  2  0  0  0  0
  3  8  2  0  0  0  0
  3 17  1  0  0  0  0
  4  9  1  0  0  0  0
  4 17  2  0  0  0  0
  5 19  1  0  0  0  0
  6 21  1  0  0  0  0
  7 10  2  0  0  0  0
  7 20  1  0  0  0  0
  8 26  1  0  0  0  0
  9 26  2  0  0  0  0
 10 27  1  0  0  0  0
 11 12  2  0  0  0  0
 11 28  1  0  0  0  0
 12 29  1  0  0  0  0
 13 22  1  0  0  0  0
 13 27  2  0  0  0  0
 14 23  1  0  0  0  0
 14 24  2  0  0  0  0
 15 23  2  0  0  0  0
 15 25  1  0  0  0  0
 16 29  2  0  0  0  0
 16 30  1  0  0  0  0
 17 32  1  0  0  0  0
 18 32  1  0  0  0  0
 18 33  2  0  0  0  0
 18 36  1  0  0  0  0
 19 21  2  0  0  0  0
 19 41  1  0  0  0  0
 20 22  2  0  0  0  0
 20 42  1  0  0  0  0
 21 53  1  0  0  0  0
 22 43  1  0  0  0  0
 23 67  1  0  0  0  0
 24 31  1  0  0  0  0
 24 70  1  0  0  0  0
 25 31  2  0  0  0  0
 25 73  1  0  0  0  0
 26 83  1  0  0  0  0
 27 84  1  0  0  0  0
 28 30  2  0  0  0  0
 28 83  1  0  0  0  0
 29 85  1  0  0  0  0
 30 86  1  0  0  0  0
 31 87  1  0  0  0  0
 32 64  2  0  0  0  0
 33 66  1  0  0  0  0
 33 71  1  0  0  0  0
 34 35  1  0  0  0  0
 34 44  1  0  0  0  0
 34 65  2  0  0  0  0
 35 45  1  0  0  0  0
 35 77  2  0  0  0  0
 36 72  1  0  0  0  0
 36 78  2  0  0  0  0
 37 54  1  0  0  0  0
 37 74  1  0  0  0  0
 37 79  2  0  0  0  0
 38 61  1  0  0  0  0
 38 68  1  0  0  0  0
 38 80  2  0  0  0  0
 39 62  1  0  0  0  0
 39 75  1  0  0  0  0
 39 81  2  0  0  0  0
 40 69  1  0  0  0  0
 40 73  1  0  0  0  0
 40 82  2  0  0  0  0
 41 46  1  0  0  0  0
 42 54  1  0  0  0  0
 43 68  1  0  0  0  0
 44 50  1  0  0  0  0
 45 67  1  0  0  0  0
 46 48  1  0  0  0  0
 47 49  1  0  0  0  0
 47 51  1  0  0  0  0
 48 53  1  0  0  0  0
 49 55  1  0  0  0  0
 50 67  1  0  0  0  0
 51 69  1  0  0  0  0
 52 55  1  0  0  0  0
 52 69  1  0  0  0  0
 53 74  1  0  0  0  0
 54 68  1  0  0  0  0
 55 66  1  0  0  0  0
 56 62  1  0  0  0  0
 57 63  1  0  0  0  0
 58 63  1  0  0  0  0
 59 63  1  0  0  0  0
 60 76  1  0  0  0  0
 61 63  1  0  0  0  0
 61 75  1  0  0  0  0
 62 76  1  0  0  0  0
 64 66  1  0  0  0  0
 65 84  1  0  0  0  0
M  CHG  1  76   1
M  ISO  4  40 100  65 101  73 100  84 101
M  END
> <Batch ID>
0089

> <Smiles>
CNC(C)C(=O)NC(C(=O)N1Cc2cc([101O:1][101N:1]=C3CCN(c4cc(N)c(F)c([100NH:0][100C:0](=O)N5CCCC(n6nc(-c7ccc(Oc8ccc(F)cc8F)cc7)c(C(N)=O)c6N)C5)c4)CC3=O)ccc2CC1C(=O)NC1CCCc2ccccc21)C(C)(C)C

> <Shape>
0.230

> <Color>
0.107

> <Negative vol penalty>
0.000

$$$$

  -OEChem-04052300263D

 86 95  0     1  0  0  0  0  0999 V2000
  -26.2919  -37.7396   19.3476 C   0  0  0  0  0  0  0  0  0  0  0  0
  -26.8841  -36.5045   19.1041 C   0  0  0  0  0  0  0  0  0  0  0  0
  -24.4284   -8.6377   20.6703 C   0  0  0  0  0  0  0  0  0  0  0  0
  -23.0684  -10.5457   21.2593 C   0  0  0  0  0  0  0  0  0  0  0  0
  -25.5467  -37.9371   20.5093 C   0  0  0  0  0  0  0  0  0  0  0  0
  -26.7323  -35.4665   20.0227 C   0  0  0  0  0  0  0  0  0  0  0  0
  -26.2775  -29.4871   18.7791 C   0  0  0  0  0  0  0  0  0  0  0  0
  -23.3759   -7.7849   21.0028 C   0  0  0  0  0  0  0  0  0  0  0  0
  -22.0159   -9.6930   21.5917 C   0  0  0  0  0  0  0  0  0  0  0  0
  -27.2092  -28.4503   18.8043 C   0  0  0  0  0  0  0  0  0  0  0  0
  -22.0013   -6.5035   23.8122 C   0  0  0  0  0  0  0  0  0  0  0  0
  -22.2991   -5.3748   24.5757 C   0  0  0  0  0  0  0  0  0  0  0  0
  -26.4809  -27.8580   21.0265 C   0  0  0  0  0  0  0  0  0  0  0  0
  -28.6261  -18.4343   19.9443 C   0  0  0  0  0  0  0  0  0  0  0  0
  -29.7759  -18.7636   22.0434 C   0  0  0  0  0  0  0  0  0  0  0  0
  -21.4679   -3.9573   22.8045 C   0  0  0  0  0  0  0  0  0  0  0  0
  -24.2747  -10.0181   20.7986 C   0  0  0  0  0  0  0  0  0  0  0  0
  -25.6251  -11.4755   19.1986 C   0  0  0  0  0  0  0  0  0  0  0  0
  -25.3775  -36.8980   21.4379 C   0  0  0  0  0  0  0  0  0  0  0  0
  -25.4466  -29.7244   19.8834 C   0  0  0  0  0  0  0  0  0  0  0  0
  -25.9851  -35.6506   21.1985 C   0  0  0  0  0  0  0  0  0  0  0  0
  -25.5377  -28.8969   21.0117 C   0  0  0  0  0  0  0  0  0  0  0  0
  -29.1801  -20.6676   20.6807 C   0  0  0  0  0  0  0  0  0  0  0  0
  -29.2080  -17.9094   21.0982 C   0  0  0  0  0  0  0  0  0  0  0  0
  -28.6122  -19.8134   19.7355 C   0  0  0  0  0  0  0  0  0  0  0  0
  -22.1696   -8.3125   21.4635 C   0  0  0  0  0  0  0  0  0  0  0  0
  -27.3131  -27.6374   19.9292 C   0  0  0  0  0  0  0  0  0  0  0  0
  -21.4367   -6.3591   22.5449 C   0  0  0  0  0  0  0  0  0  0  0  0
  -22.0324   -4.1017   24.0719 C   0  0  0  0  0  0  0  0  0  0  0  0
  -29.7620  -20.1428   21.8347 C   0  0  0  0  0  0  0  0  0  0  0  0
  -21.1700   -5.0861   22.0410 C   0  0  0  0  0  0  0  0  0  0  0  0
  -25.3617  -10.8995   20.4558 C   0  0  0  0  0  0  0  0  0  0  0  0
  -26.7595  -12.2245   19.3948 C   0  0  0  0  0  0  0  0  0  0  0  0
  -28.5603  -24.2817   20.1638 C   0  0  0  0  0  0  0  0  0  0  0  0
  -28.0450  -22.8983   20.3440 C   0  0  0  0  0  0  0  0  0  0  0  0
  -27.7599  -25.3496   20.1219 C   0  0  0  0  0  0  0  0  0  1  0  0
  -24.9083  -11.3452   17.9637 C   0  0  0  0  0  0  0  0  0  0  0  0
  -25.0248  -32.1509   21.8930 C   0  0  0  0  0  0  0  0  0  0  0  0
  -22.5829  -30.3149   22.9832 C   0  0  0  0  0  0  0  0  0  0  0  0
  -21.2227  -27.2027   23.3156 C   0  0  0  0  0  0  0  0  0  0  0  0
  -29.7593  -15.8252   22.4014 C   0  0  0  0  0  0  0  0  0  0  0  0
  -24.6026  -37.1733   22.7022 C   0  0  0  0  0  0  0  0  0  0  0  0
  -24.4282  -30.8301   19.8300 C   0  0  0  0  0  0  0  0  0  0  0  0
  -24.6548  -29.0971   22.2154 C   0  0  0  0  0  0  0  0  0  0  0  0
  -30.0459  -24.2707   20.0690 C   0  0  0  0  0  0  0  0  0  0  0  0
  -24.1774  -35.9084   23.4436 C   0  0  0  0  0  0  0  0  0  0  0  0
  -29.9613  -12.3890   23.3119 C   0  0  0  0  0  0  0  0  0  0  0  0
  -25.3453  -34.9329   23.5482 C   0  0  0  0  0  0  0  0  0  0  0  0
  -28.8043  -11.7425   22.5466 C   0  0  0  0  0  0  0  0  0  0  0  0
  -30.4086  -22.8562   20.4901 C   0  0  0  0  0  0  0  0  0  0  0  0
  -29.5995  -13.7861   23.8128 C   0  0  0  0  0  0  0  0  0  0  0  0
  -27.9327  -14.0553   22.0188 C   0  0  0  0  0  0  0  0  0  0  0  0
  -25.8226  -34.4926   22.1590 C   0  0  1  0  0  0  0  0  0  0  0  0
  -23.9875  -31.3038   21.2116 C   0  0  1  0  0  0  0  0  0  0  0  0
  -28.2721  -12.6725   21.4387 C   0  0  2  0  0  0  0  0  0  0  0  0
  -19.2375  -26.0139   24.2870 C   0  0  0  0  0  0  0  0  0  0  0  0
  -23.7834  -30.5958   25.7742 C   0  0  0  0  0  0  0  0  0  0  0  0
  -22.3606  -28.6694   26.5042 C   0  0  0  0  0  0  0  0  0  0  0  0
  -21.2901  -30.7698   25.6888 C   0  0  0  0  0  0  0  0  0  0  0  0
  -20.3668  -26.2174   20.6594 C   0  0  0  0  0  0  0  0  0  0  0  0
  -22.4394  -29.2414   24.0349 C   0  0  1  0  0  0  0  0  0  0  0  0
  -19.8211  -26.6825   23.0520 C   0  0  2  0  0  0  0  0  0  0  0  0
  -22.4865  -29.8163   25.4788 C   0  0  0  0  0  0  0  0  0  0  0  0
  -26.2569  -11.2522   21.3822 N   0  0  0  0  0  0  0  0  0  0  0  0
  -27.0939  -12.0578   20.7065 N   0  0  0  0  0  0  0  0  0  0  0  0
  -29.1760  -22.0840   20.4867 N   0  0  0  0  0  0  0  0  0  0  0  0
  -23.6792  -30.1953   22.1174 N   0  0  0  0  0  0  0  0  0  0  0  0
  -29.1073  -14.6120   22.7080 N   0  0  0  0  0  0  0  0  0  0  0  0
  -28.0177  -20.3236   18.5594 N   0  0  0  0  0  0  0  0  0  0  0  0
  -27.4937  -13.0028   18.5716 N   0  0  0  0  0  0  0  0  0  0  0  0
  -23.7638  -10.5366   17.9376 N   0  0  0  0  0  0  0  0  0  0  0  0
  -29.2226  -16.5086   21.3108 N   0  0  0  0  0  0  0  0  0  0  0  0
  -24.9258  -33.4993   21.6078 N   0  0  0  0  0  0  0  0  0  0  0  0
  -21.2107  -28.5214   23.7182 N   0  0  0  0  0  0  0  0  0  0  0  0
  -19.8379  -25.6876   21.9426 N   0  3  0  0  0  0  0  0  0  0  0  0
  -26.8568  -22.6230   20.3592 O   0  0  0  0  0  0  0  0  0  0  0  0
  -25.2812  -11.9154   16.9105 O   0  0  0  0  0  0  0  0  0  0  0  0
  -25.8527  -31.6205   22.6244 O   0  0  0  0  0  0  0  0  0  0  0  0
  -21.7489  -31.2220   22.9273 O   0  0  0  0  0  0  0  0  0  0  0  0
  -22.2273  -26.5075   23.1816 O   0  0  0  0  0  0  0  0  0  0  0  0
  -30.7396  -16.2147   23.0411 O   0  0  0  0  0  0  0  0  0  0  0  0
  -21.1423   -7.4807   21.7878 O   0  0  0  0  0  0  0  0  0  0  0  0
  -28.2221  -26.6251   19.9568 O   0  0  0  0  0  0  0  0  0  1  0  0
  -22.3199   -3.0179   24.8046 F   0  0  0  0  0  0  0  0  0  0  0  0
  -30.3108  -20.9537   22.7506 F   0  0  0  0  0  0  0  0  0  0  0  0
  -20.6288   -4.9411   20.8237 F   0  0  0  0  0  0  0  0  0  0  0  0
  1  2  1  0  0  0  0
  1  5  2  0  0  0  0
  2  6  2  0  0  0  0
  3  8  2  0  0  0  0
  3 17  1  0  0  0  0
  4  9  1  0  0  0  0
  4 17  2  0  0  0  0
  5 19  1  0  0  0  0
  6 21  1  0  0  0  0
  7 10  2  0  0  0  0
  7 20  1  0  0  0  0
  8 26  1  0  0  0  0
  9 26  2  0  0  0  0
 10 27  1  0  0  0  0
 11 12  2  0  0  0  0
 11 28  1  0  0  0  0
 12 29  1  0  0  0  0
 13 22  1  0  0  0  0
 13 27  2  0  0  0  0
 14 24  1  0  0  0  0
 14 25  2  0  0  0  0
 15 24  2  0  0  0  0
 15 30  1  0  0  0  0
 16 29  2  0  0  0  0
 16 31  1  0  0  0  0
 17 32  1  0  0  0  0
 18 32  1  0  0  0  0
 18 33  2  0  0  0  0
 18 37  1  0  0  0  0
 19 21  2  0  0  0  0
 19 42  1  0  0  0  0
 20 22  2  0  0  0  0
 20 43  1  0  0  0  0
 21 53  1  0  0  0  0
 22 44  1  0  0  0  0
 23 25  1  0  0  0  0
 23 30  2  0  0  0  0
 23 66  1  0  0  0  0
 24 72  1  0  0  0  0
 25 69  1  0  0  0  0
 26 82  1  0  0  0  0
 27 83  1  0  0  0  0
 28 31  2  0  0  0  0
 28 82  1  0  0  0  0
 29 84  1  0  0  0  0
 30 85  1  0  0  0  0
 31 86  1  0  0  0  0
 32 64  2  0  0  0  0
 33 65  1  0  0  0  0
 33 70  1  0  0  0  0
 34 35  1  0  0  0  0
 34 36  2  0  0  0  0
 34 45  1  0  0  0  0
 35 66  1  0  0  0  0
 35 76  2  0  0  0  0
 36 83  1  0  0  0  0
 37 71  1  0  0  0  0
 37 77  2  0  0  0  0
 38 54  1  0  0  0  0
 38 73  1  0  0  0  0
 38 78  2  0  0  0  0
 39 61  1  0  0  0  0
 39 67  1  0  0  0  0
 39 79  2  0  0  0  0
 40 62  1  0  0  0  0
 40 74  1  0  0  0  0
 40 80  2  0  0  0  0
 41 68  1  0  0  0  0
 41 72  1  0  0  0  0
 41 81  2  0  0  0  0
 42 46  1  0  0  0  0
 43 54  1  0  0  0  0
 44 67  1  0  0  0  0
 45 50  1  0  0  0  0
 46 48  1  0  0  0  0
 47 49  1  0  0  0  0
 47 51  1  0  0  0  0
 48 53  1  0  0  0  0
 49 55  1  0  0  0  0
 50 66  1  0  0  0  0
 51 68  1  0  0  0  0
 52 55  1  0  0  0  0
 52 68  1  0  0  0  0
 53 73  1  0  0  0  0
 54 67  1  0  0  0  0
 55 65  1  0  0  0  0
 56 62  1  0  0  0  0
 57 63  1  0  0  0  0
 58 63  1  0  0  0  0
 59 63  1  0  0  0  0
 60 75  1  0  0  0  0
 61 63  1  0  0  0  0
 61 74  1  0  0  0  0
 62 75  1  0  0  0  0
 64 65  1  0  0  0  0
M  CHG  1  75   1
M  ISO  4  36 101  41 100  72 100  83 101
M  END
> <Batch ID>
0089

> <Smiles>
CNC(C)C(=O)NC(C(=O)N1Cc2cc([101O:1][101CH:1]=C3CCN(c4c(N)cc([100NH:0][100C:0](=O)N5CCCC(n6nc(-c7ccc(Oc8ccc(F)cc8F)cc7)c(C(N)=O)c6N)C5)cc4F)C3=O)ccc2CC1C(=O)NC1CCCc2ccccc21)C(C)(C)C

> <Shape>
0.340

> <Color>
0.108

> <Negative vol penalty>
0.000

$$$$

  -OEChem-04052300263D

 88 97  0     1  0  0  0  0  0999 V2000
  -25.7382  -38.4436   21.9994 C   0  0  0  0  0  0  0  0  0  0  0  0
  -26.5204  -37.5380   21.2898 C   0  0  0  0  0  0  0  0  0  0  0  0
  -24.2337  -10.1156   22.9974 C   0  0  0  0  0  0  0  0  0  0  0  0
  -24.4062  -12.1275   24.3238 C   0  0  0  0  0  0  0  0  0  0  0  0
  -31.2247  -19.3574   20.2815 C   0  0  0  0  0  0  0  0  0  0  0  0
  -25.0128  -38.0156   23.1105 C   0  0  0  0  0  0  0  0  0  0  0  0
  -26.5786  -36.2040   21.6918 C   0  0  0  0  0  0  0  0  0  0  0  0
  -27.2601  -29.5927   19.0192 C   0  0  0  0  0  0  0  0  0  0  0  0
  -31.0649  -17.9719   20.2600 C   0  0  0  0  0  0  0  0  0  0  0  0
  -23.8494   -9.4006   24.1317 C   0  0  0  0  0  0  0  0  0  0  0  0
  -24.0219  -11.4126   25.4582 C   0  0  0  0  0  0  0  0  0  0  0  0
  -28.0303  -28.4413   19.1768 C   0  0  0  0  0  0  0  0  0  0  0  0
  -21.0457   -8.9663   25.9711 C   0  0  0  0  0  0  0  0  0  0  0  0
  -19.9663   -8.0911   25.8509 C   0  0  0  0  0  0  0  0  0  0  0  0
  -29.9076  -19.4779   22.3033 C   0  0  0  0  0  0  0  0  0  0  0  0
  -26.6725  -27.7987   21.0643 C   0  0  0  0  0  0  0  0  0  0  0  0
  -21.3908   -6.2466   26.4877 C   0  0  0  0  0  0  0  0  0  0  0  0
  -24.5121  -11.4791   23.0934 C   0  0  0  0  0  0  0  0  0  0  0  0
  -30.6460  -20.1104   21.3032 C   0  0  0  0  0  0  0  0  0  0  0  0
  -24.0686  -12.8890   21.0142 C   0  0  0  0  0  0  0  0  0  0  0  0
  -25.0545  -36.6737   23.5205 C   0  0  0  0  0  0  0  0  0  0  0  0
  -26.1952  -29.8616   19.8911 C   0  0  0  0  0  0  0  0  0  0  0  0
  -25.8542  -35.7579   22.8102 C   0  0  0  0  0  0  0  0  0  0  0  0
  -25.8887  -28.9529   20.9140 C   0  0  0  0  0  0  0  0  0  0  0  0
  -30.3264  -17.3394   21.2601 C   0  0  0  0  0  0  0  0  0  0  0  0
  -23.7435  -10.0491   25.3621 C   0  0  0  0  0  0  0  0  0  0  0  0
  -27.7384  -27.5456   20.2012 C   0  0  0  0  0  0  0  0  0  0  0  0
  -22.2978   -8.4816   26.3495 C   0  0  0  0  0  0  0  0  0  0  0  0
  -20.1387   -6.7313   26.1093 C   0  0  0  0  0  0  0  0  0  0  0  0
  -29.7477  -18.0924   22.2818 C   0  0  0  0  0  0  0  0  0  0  0  0
  -22.4703   -7.1217   26.6079 C   0  0  0  0  0  0  0  0  0  0  0  0
  -24.9097  -12.2181   21.9221 C   0  0  0  0  0  0  0  0  0  0  0  0
  -24.9257  -13.4283   20.0863 C   0  0  0  0  0  0  0  0  0  0  0  0
  -28.7621  -24.1296   19.7765 C   0  0  0  0  0  0  0  0  0  0  0  0
  -28.1000  -25.2907   19.6959 C   0  0  0  0  0  0  0  0  0  1  0  0
  -30.8145  -21.5744   21.3268 C   0  0  0  0  0  0  0  0  0  0  0  0
  -22.6403  -13.0137   21.0101 C   0  0  0  0  0  0  0  0  0  0  0  0
  -25.5218  -32.1770   21.9621 C   0  0  0  0  0  0  0  0  0  0  0  0
  -22.6895  -30.6128   22.1940 C   0  0  0  0  0  0  0  0  0  0  0  0
  -20.9542  -27.6950   21.8450 C   0  0  0  0  0  0  0  0  0  0  0  0
  -30.6760  -15.0400   20.2923 C   0  0  0  0  0  0  0  0  0  0  0  0
  -24.2905  -36.2680   24.7559 C   0  0  0  0  0  0  0  0  0  0  0  0
  -25.3573  -31.0946   19.6912 C   0  0  0  0  0  0  0  0  0  0  0  0
  -24.7434  -29.1852   21.8642 C   0  0  0  0  0  0  0  0  0  0  0  0
  -28.3414  -22.8824   19.0524 C   0  0  0  0  0  0  0  0  0  0  0  0
  -24.1112  -34.7582   24.8929 C   0  0  0  0  0  0  0  0  0  0  0  0
  -29.2025  -12.6870   18.0630 C   0  0  0  0  0  0  0  0  0  0  0  0
  -25.4296  -34.0379   24.6287 C   0  0  0  0  0  0  0  0  0  0  0  0
  -27.8553  -12.3654   18.7139 C   0  0  0  0  0  0  0  0  0  0  0  0
  -28.7779  -21.7675   19.9885 C   0  0  0  0  0  0  0  0  0  0  0  0
  -30.3016  -12.8896   19.1045 C   0  0  0  0  0  0  0  0  0  0  0  0
  -28.6436  -13.5487   20.8032 C   0  0  0  0  0  0  0  0  0  0  0  0
  -25.9235  -34.2974   23.2004 C   0  0  1  0  0  0  0  0  0  0  0  0
  -24.6179  -31.5257   20.9540 C   0  0  1  0  0  0  0  0  0  0  0  0
  -27.4911  -13.4002   19.7965 C   0  0  2  0  0  0  0  0  0  0  0  0
  -29.9680  -23.8299   20.6505 C   0  0  0  0  0  0  0  0  0  0  0  0
  -29.8477  -24.3893   22.0694 C   0  0  0  0  0  0  0  0  0  0  0  0
  -31.2601  -24.2791   19.9664 C   0  0  0  0  0  0  0  0  0  0  0  0
  -18.6625  -26.7179   22.1463 C   0  0  0  0  0  0  0  0  0  0  0  0
  -23.1220  -30.5358   25.2134 C   0  0  0  0  0  0  0  0  0  0  0  0
  -21.3516  -28.7710   25.3519 C   0  0  0  0  0  0  0  0  0  0  0  0
  -20.7778  -31.0473   24.5081 C   0  0  0  0  0  0  0  0  0  0  0  0
  -20.7375  -27.0203   18.9716 C   0  0  0  0  0  0  0  0  0  0  0  0
  -22.1517  -29.4977   23.0578 C   0  0  1  0  0  0  0  0  0  0  0  0
  -19.6258  -27.3867   21.1781 C   0  0  2  0  0  0  0  0  0  0  0  0
  -21.8736  -29.9592   24.5162 C   0  0  0  0  0  0  0  0  0  0  0  0
  -26.2019  -12.3202   21.6001 N   0  0  0  0  0  0  0  0  0  0  0  0
  -26.1792  -13.0616   20.4794 N   0  0  0  0  0  0  0  0  0  0  0  0
  -29.9309  -22.3410   20.7059 N   0  0  0  0  0  0  0  0  0  0  0  0
  -23.9575  -30.4082   21.6317 N   0  0  0  0  0  0  0  0  0  0  0  0
  -29.8880  -13.8863   20.0946 N   0  0  0  0  0  0  0  0  0  0  0  0
  -24.7219  -14.1756   18.9807 N   0  0  0  0  0  0  0  0  0  0  0  0
  -21.9128  -12.3977   22.0375 N   0  0  0  0  0  0  0  0  0  0  0  0
  -30.1662  -15.9318   21.2354 N   0  0  0  0  0  0  0  0  0  0  0  0
  -25.1873  -33.4852   22.2556 N   0  0  0  0  0  0  0  0  0  0  0  0
  -20.9809  -28.9723   22.3639 N   0  0  0  0  0  0  0  0  0  0  0  0
  -31.8500  -22.1026   21.9726 N   0  3  0  0  0  0  0  0  0  0  0  0
  -19.8290  -26.4780   20.0144 N   0  3  0  0  0  0  0  0  0  0  0  0
  -22.0261  -13.6386   20.1124 O   0  0  0  0  0  0  0  0  0  0  0  0
  -26.4530  -31.5393   22.4396 O   0  0  0  0  0  0  0  0  0  0  0  0
  -22.0067  -31.6250   22.0187 O   0  0  0  0  0  0  0  0  0  0  0  0
  -21.8747  -26.8827   21.9034 O   0  0  0  0  0  0  0  0  0  0  0  0
  -31.7114  -15.2363   19.6510 O   0  0  0  0  0  0  0  0  0  0  0  0
  -23.3683   -9.3518   26.4692 O   0  0  0  0  0  0  0  0  0  0  0  0
  -28.4890  -26.4213   20.3577 O   0  0  0  0  0  0  0  0  0  1  0  0
  -19.1017   -5.8913   25.9953 F   0  0  0  0  0  0  0  0  0  0  0  0
  -29.0348  -17.4952   23.2475 F   0  0  0  0  0  0  0  0  0  0  0  0
  -23.6704   -6.6504   26.9729 F   0  0  0  0  0  0  0  0  0  0  0  0
  1  2  1  0  0  0  0
  1  6  2  0  0  0  0
  2  7  2  0  0  0  0
  3 10  2  0  0  0  0
  3 18  1  0  0  0  0
  4 11  1  0  0  0  0
  4 18  2  0  0  0  0
  5  9  2  0  0  0  0
  5 19  1  0  0  0  0
  6 21  1  0  0  0  0
  7 23  1  0  0  0  0
  8 12  2  0  0  0  0
  8 22  1  0  0  0  0
  9 25  1  0  0  0  0
 10 26  1  0  0  0  0
 11 26  2  0  0  0  0
 12 27  1  0  0  0  0
 13 14  2  0  0  0  0
 13 28  1  0  0  0  0
 14 29  1  0  0  0  0
 15 19  2  0  0  0  0
 15 30  1  0  0  0  0
 16 24  1  0  0  0  0
 16 27  2  0  0  0  0
 17 29  2  0  0  0  0
 17 31  1  0  0  0  0
 18 32  1  0  0  0  0
 19 36  1  0  0  0  0
 20 32  1  0  0  0  0
 20 33  2  0  0  0  0
 20 37  1  0  0  0  0
 21 23  2  0  0  0  0
 21 42  1  0  0  0  0
 22 24  2  0  0  0  0
 22 43  1  0  0  0  0
 23 53  1  0  0  0  0
 24 44  1  0  0  0  0
 25 30  2  0  0  0  0
 25 74  1  0  0  0  0
 26 84  1  0  0  0  0
 27 85  1  0  0  0  0
 28 31  2  0  0  0  0
 28 84  1  0  0  0  0
 29 86  1  0  0  0  0
 30 87  1  0  0  0  0
 31 88  1  0  0  0  0
 32 67  2  0  0  0  0
 33 68  1  0  0  0  0
 33 72  1  0  0  0  0
 34 35  2  0  0  0  0
 34 45  1  0  0  0  0
 34 56  1  0  0  0  0
 35 85  1  0  0  0  0
 36 69  1  0  0  0  0
 36 77  2  0  0  0  0
 37 73  1  0  0  0  0
 37 79  2  0  0  0  0
 38 54  1  0  0  0  0
 38 75  1  0  0  0  0
 38 80  2  0  0  0  0
 39 64  1  0  0  0  0
 39 70  1  0  0  0  0
 39 81  2  0  0  0  0
 40 65  1  0  0  0  0
 40 76  1  0  0  0  0
 40 82  2  0  0  0  0
 41 71  1  0  0  0  0
 41 74  1  0  0  0  0
 41 83  2  0  0  0  0
 42 46  1  0  0  0  0
 43 54  1  0  0  0  0
 44 70  1  0  0  0  0
 45 50  1  0  0  0  0
 46 48  1  0  0  0  0
 47 49  1  0  0  0  0
 47 51  1  0  0  0  0
 48 53  1  0  0  0  0
 49 55  1  0  0  0  0
 50 69  1  0  0  0  0
 51 71  1  0  0  0  0
 52 55  1  0  0  0  0
 52 71  1  0  0  0  0
 53 75  1  0  0  0  0
 54 70  1  0  0  0  0
 55 68  1  0  0  0  0
 56 57  1  0  0  0  0
 56 58  1  0  0  0  0
 56 69  1  0  0  0  0
 59 65  1  0  0  0  0
 60 66  1  0  0  0  0
 61 66  1  0  0  0  0
 62 66  1  0  0  0  0
 63 78  1  0  0  0  0
 64 66  1  0  0  0  0
 64 76  1  0  0  0  0
 65 78  1  0  0  0  0
 67 68  1  0  0  0  0
M  CHG  2  77   1  78   1
M  ISO  4  35 101  41 100  74 100  85 101
M  END
> <Batch ID>
0089

> <Smiles>
CNC(C)C(=O)NC(C(=O)N1Cc2cc([101O:1][101CH:1]=C3CCN(C(=N)c4ccc([100NH:0][100C:0](=O)N5CCCC(n6nc(-c7ccc(Oc8ccc(F)cc8F)cc7)c(C(N)=O)c6N)C5)c(F)c4)C3(C)C)ccc2CC1C(=O)NC1CCCc2ccccc21)C(C)(C)C

> <Shape>
0.338

> <Color>
0.124

> <Negative vol penalty>
0.000

$$$$

  -OEChem-04052300263D

 90 98  0     1  0  0  0  0  0999 V2000
  -25.0166  -28.8925   20.4163 C   0  0  0  0  0  0  0  0  0  0  0  0
  -24.7722  -27.7369   19.6813 C   0  0  0  0  0  0  0  0  0  0  0  0
  -20.5986  -22.4586   23.2182 C   0  0  0  0  0  0  0  0  0  0  0  0
  -20.2673  -22.4889   25.6112 C   0  0  0  0  0  0  0  0  0  0  0  0
  -26.3044  -29.1659   20.8754 C   0  0  0  0  0  0  0  0  0  0  0  0
  -25.8157  -26.8545   19.4040 C   0  0  0  0  0  0  0  0  0  0  0  0
  -24.5204  -22.0168   20.1546 C   0  0  0  0  0  0  0  0  0  0  0  0
  -19.8546  -23.6326   23.1003 C   0  0  0  0  0  0  0  0  0  0  0  0
  -19.5233  -23.6629   25.4933 C   0  0  0  0  0  0  0  0  0  0  0  0
  -23.7494  -21.4036   19.1679 C   0  0  0  0  0  0  0  0  0  0  0  0
  -20.3360  -26.9452   23.5774 C   0  0  0  0  0  0  0  0  0  0  0  0
  -20.8400  -27.9522   22.7542 C   0  0  0  0  0  0  0  0  0  0  0  0
  -25.7308  -20.3501   18.2828 C   0  0  0  0  0  0  0  0  0  0  0  0
  -25.3444  -12.5794   21.9519 C   0  0  0  0  0  0  0  0  0  0  0  0
  -25.1938  -13.3095   19.2636 C   0  0  0  0  0  0  0  0  0  0  0  0
  -18.8529  -27.8278   21.3855 C   0  0  0  0  0  0  0  0  0  0  0  0
  -20.8049  -21.8868   24.4737 C   0  0  0  0  0  0  0  0  0  0  0  0
  -22.9629  -20.5636   24.7901 C   0  0  0  0  0  0  0  0  0  0  0  0
  -27.3623  -28.2816   20.6119 C   0  0  0  0  0  0  0  0  0  0  0  0
  -25.9064  -21.8095   20.2061 C   0  0  0  0  0  0  0  0  0  0  0  0
  -27.1191  -27.1171   19.8589 C   0  0  0  0  0  0  0  0  0  0  0  0
  -26.5168  -20.9598   19.2726 C   0  0  0  0  0  0  0  0  0  0  0  0
  -26.1597  -11.9497   21.0115 C   0  0  0  0  0  0  0  0  0  0  0  0
  -26.0845  -12.3148   19.6673 C   0  0  0  0  0  0  0  0  0  0  0  0
  -24.3785  -13.9391   20.2041 C   0  0  0  0  0  0  0  0  0  0  0  0
  -24.4537  -13.5740   21.5482 C   0  0  0  0  0  0  0  0  0  0  0  0
  -19.3170  -24.2347   24.2379 C   0  0  0  0  0  0  0  0  0  0  0  0
  -24.3550  -20.5725   18.2301 C   0  0  0  0  0  0  0  0  0  0  0  0
  -19.0905  -26.3795   23.3046 C   0  0  0  0  0  0  0  0  0  0  0  0
  -20.0985  -28.3935   21.6583 C   0  0  0  0  0  0  0  0  0  0  0  0
  -18.3490  -26.8208   22.2087 C   0  0  0  0  0  0  0  0  0  0  0  0
  -21.5729  -20.6738   24.5961 C   0  0  0  0  0  0  0  0  0  0  0  0
  -23.1964  -19.2110   24.8404 C   0  0  0  0  0  0  0  0  0  0  0  0
  -23.9543  -21.5919   24.9140 C   0  0  0  0  0  0  0  0  0  0  0  0
  -28.4651  -23.6770   19.9429 C   0  0  0  0  0  0  0  0  0  0  0  0
  -30.0475  -20.9607   20.7431 C   0  0  0  0  0  0  0  0  0  0  0  0
  -26.9377  -11.9459   17.3306 C   0  0  0  0  0  0  0  0  0  0  0  0
  -22.3606  -16.4181   18.2566 C   0  0  0  0  0  0  0  0  0  0  0  0
  -30.0812  -17.5496   20.8421 C   0  0  0  0  0  0  0  0  0  0  0  0
  -22.2117  -14.1559   22.4590 C   0  0  0  0  0  0  0  0  0  0  0  0
  -28.7467  -28.6434   21.0885 C   0  0  0  0  0  0  0  0  0  0  0  0
  -26.7200  -22.4570   21.2929 C   0  0  0  0  0  0  0  0  0  0  0  0
  -27.9981  -20.6884   19.2970 C   0  0  0  0  0  0  0  0  0  0  0  0
  -29.7226  -27.4697   21.0722 C   0  0  0  0  0  0  0  0  0  0  0  0
  -20.0064  -15.3121   25.1812 C   0  0  0  0  0  0  0  0  0  0  0  0
  -29.6230  -26.7109   19.7527 C   0  0  0  0  0  0  0  0  0  0  0  0
  -20.2901  -16.8123   25.2353 C   0  0  0  0  0  0  0  0  0  0  0  0
  -20.1992  -14.7491   23.7763 C   0  0  0  0  0  0  0  0  0  0  0  0
  -21.8243  -16.5402   23.2460 C   0  0  0  0  0  0  0  0  0  0  0  0
  -28.2200  -26.1230   19.5589 C   0  0  1  0  0  0  0  0  0  0  0  0
  -28.1983  -22.5831   20.9379 C   0  0  1  0  0  0  0  0  0  0  0  0
  -21.6804  -17.1290   24.6575 C   0  0  1  0  0  0  0  0  0  0  0  0
  -27.9474  -11.0646   16.6391 C   0  0  0  0  0  0  0  0  0  0  0  0
  -31.5271  -15.6126   21.5167 C   0  0  0  0  0  0  0  0  0  0  0  0
  -31.7537  -21.3681   18.2466 C   0  0  0  0  0  0  0  0  0  0  0  0
  -32.4947  -18.9852   18.4489 C   0  0  0  0  0  0  0  0  0  0  0  0
  -33.0221  -20.6121   20.2650 C   0  0  0  0  0  0  0  0  0  0  0  0
  -24.2492  -14.7112   23.7666 C   0  0  0  0  0  0  0  0  0  0  0  0
  -28.0942  -16.6060   22.8221 C   0  0  0  0  0  0  0  0  0  0  0  0
  -23.3963  -15.3299   18.3801 C   0  0  0  0  0  0  0  0  0  0  0  0
  -21.8250  -18.4097   16.8563 C   0  0  0  0  0  0  0  0  0  0  0  0
  -22.2501  -19.6673   17.5930 C   0  0  0  0  0  0  0  0  0  1  0  0
  -30.6435  -19.8052   19.9759 C   0  0  1  0  0  0  0  0  0  0  0  0
  -30.4356  -16.5776   21.9530 C   0  0  2  0  0  0  0  0  0  0  0  0
  -31.9509  -20.1991   19.2322 C   0  0  0  0  0  0  0  0  0  0  0  0
  -20.9661  -19.4859   24.5276 N   0  0  0  0  0  0  0  0  0  0  0  0
  -21.9796  -18.6165   24.6794 N   0  0  0  0  0  0  0  0  0  0  0  0
  -28.7517  -21.3497   20.3751 N   0  0  0  0  0  0  0  0  0  0  0  0
  -21.5111  -15.1030   23.2327 N   0  0  0  0  0  0  0  0  0  0  0  0
  -27.0554  -10.9455   21.4425 N   0  0  0  0  0  0  0  0  0  0  0  0
  -24.3219  -18.4842   25.0062 N   0  0  0  0  0  0  0  0  0  0  0  0
  -23.5425  -22.9295   24.8392 N   0  0  0  0  0  0  0  0  0  0  0  0
  -26.8916  -11.6977   18.7073 N   0  0  0  0  0  0  0  0  0  0  0  0
  -23.5095  -14.9139   19.7857 N   0  0  0  0  0  0  0  0  0  0  0  0
  -28.0571  -24.9293   20.3607 N   0  0  0  0  0  0  0  0  0  0  0  0
  -22.6477  -17.2818   17.2046 N   0  0  0  0  0  0  0  0  0  0  0  0
  -30.8063  -18.7186   20.9358 N   0  0  0  0  0  0  0  0  0  0  0  0
  -23.6199  -14.2115   22.5398 N   0  0  0  0  0  0  0  0  0  0  0  0
  -29.2378  -15.7843   22.3489 N   0  3  0  0  0  0  0  0  0  0  0  0
  -25.1716  -21.3321   25.0693 O   0  0  0  0  0  0  0  0  0  0  0  0
  -29.0026  -23.4051   18.8758 O   0  0  0  0  0  0  0  0  0  0  0  0
  -30.7046  -21.4938   21.6407 O   0  0  0  0  0  0  0  0  0  0  0  0
  -26.2763  -12.7611   16.6958 O   0  0  0  0  0  0  0  0  0  0  0  0
  -21.3881  -16.5131   19.0007 O   0  0  0  0  0  0  0  0  0  0  0  0
  -29.2474  -17.2956   19.9757 O   0  0  0  0  0  0  0  0  0  0  0  0
  -21.6243  -13.3096   21.7746 O   0  0  0  0  0  0  0  0  0  0  0  0
  -18.5911  -25.3804   24.1232 O   0  0  0  0  0  0  0  0  0  0  0  0
  -23.6049  -19.9733   17.2656 O   0  0  0  0  0  0  0  0  0  1  0  0
  -20.5819  -29.3616   20.8688 F   0  0  0  0  0  0  0  0  0  0  0  0
  -17.1513  -26.2819   21.9422 F   0  0  0  0  0  0  0  0  0  0  0  0
  1  2  1  0  0  0  0
  1  5  2  0  0  0  0
  2  6  2  0  0  0  0
  3  8  2  0  0  0  0
  3 17  1  0  0  0  0
  4  9  1  0  0  0  0
  4 17  2  0  0  0  0
  5 19  1  0  0  0  0
  6 21  1  0  0  0  0
  7 10  2  0  0  0  0
  7 20  1  0  0  0  0
  8 27  1  0  0  0  0
  9 27  2  0  0  0  0
 10 28  1  0  0  0  0
 11 12  2  0  0  0  0
 11 29  1  0  0  0  0
 12 30  1  0  0  0  0
 13 22  1  0  0  0  0
 13 28  2  0  0  0  0
 14 23  2  0  0  0  0
 14 26  1  0  0  0  0
 15 24  2  0  0  0  0
 15 25  1  0  0  0  0
 16 30  2  0  0  0  0
 16 31  1  0  0  0  0
 17 32  1  0  0  0  0
 18 32  1  0  0  0  0
 18 33  2  0  0  0  0
 18 34  1  0  0  0  0
 19 21  2  0  0  0  0
 19 41  1  0  0  0  0
 20 22  2  0  0  0  0
 20 42  1  0  0  0  0
 21 50  1  0  0  0  0
 22 43  1  0  0  0  0
 23 24  1  0  0  0  0
 23 70  1  0  0  0  0
 24 73  1  0  0  0  0
 25 26  2  0  0  0  0
 25 74  1  0  0  0  0
 26 78  1  0  0  0  0
 27 87  1  0  0  0  0
 28 88  1  0  0  0  0
 29 31  2  0  0  0  0
 29 87  1  0  0  0  0
 30 89  1  0  0  0  0
 31 90  1  0  0  0  0
 32 66  2  0  0  0  0
 33 67  1  0  0  0  0
 33 71  1  0  0  0  0
 34 72  1  0  0  0  0
 34 80  2  0  0  0  0
 35 51  1  0  0  0  0
 35 75  1  0  0  0  0
 35 81  2  0  0  0  0
 36 63  1  0  0  0  0
 36 68  1  0  0  0  0
 36 82  2  0  0  0  0
 37 53  1  0  0  0  0
 37 73  1  0  0  0  0
 37 83  2  0  0  0  0
 38 60  1  0  0  0  0
 38 76  1  0  0  0  0
 38 84  2  0  0  0  0
 39 64  1  0  0  0  0
 39 77  1  0  0  0  0
 39 85  2  0  0  0  0
 40 69  1  0  0  0  0
 40 78  1  0  0  0  0
 40 86  2  0  0  0  0
 41 44  1  0  0  0  0
 42 51  1  0  0  0  0
 43 68  1  0  0  0  0
 44 46  1  0  0  0  0
 45 47  1  0  0  0  0
 45 48  1  0  0  0  0
 46 50  1  0  0  0  0
 47 52  1  0  0  0  0
 48 69  1  0  0  0  0
 49 52  1  0  0  0  0
 49 69  1  0  0  0  0
 50 75  1  0  0  0  0
 51 68  1  0  0  0  0
 52 67  1  0  0  0  0
 54 64  1  0  0  0  0
 55 65  1  0  0  0  0
 56 65  1  0  0  0  0
 57 65  1  0  0  0  0
 58 78  1  0  0  0  0
 59 79  1  0  0  0  0
 60 74  1  0  0  0  0
 61 62  1  0  0  0  0
 61 76  1  0  0  0  0
 62 88  1  0  0  0  0
 63 65  1  0  0  0  0
 63 77  1  0  0  0  0
 64 79  1  0  0  0  0
 66 67  1  0  0  0  0
M  CHG  1  79   1
M  ISO  4  40 100  62 101  78 100  88 101
M  END
> <Batch ID>
0089

> <Smiles>
CNC(C)C(=O)NC(C(=O)N1Cc2cc([101O:1][101CH2:1]CNC(=O)CNc3cc(NC(C)=O)c(N)cc3[100N:0](C)[100C:0](=O)N3CCCC(n4nc(-c5ccc(Oc6ccc(F)cc6F)cc5)c(C(N)=O)c4N)C3)ccc2CC1C(=O)NC1CCCc2ccccc21)C(C)(C)C

> <Shape>
0.214

> <Color>
0.071

> <Negative vol penalty>
0.000

$$$$

  -OEChem-04052300263D

 84 92  0     1  0  0  0  0  0999 V2000
  -22.7872  -30.3057   29.1039 C   0  0  0  0  0  0  0  0  0  0  0  0
  -23.7885  -29.6838   28.3650 C   0  0  0  0  0  0  0  0  0  0  0  0
  -23.4379   -9.6090   20.4794 C   0  0  0  0  0  0  0  0  0  0  0  0
  -24.0771  -10.1381   22.7484 C   0  0  0  0  0  0  0  0  0  0  0  0
  -21.5427  -30.5479   28.5238 C   0  0  0  0  0  0  0  0  0  0  0  0
  -23.5456  -29.3028   27.0458 C   0  0  0  0  0  0  0  0  0  0  0  0
  -27.5481  -29.3260   22.4106 C   0  0  0  0  0  0  0  0  0  0  0  0
  -22.8310   -8.4345   20.9242 C   0  0  0  0  0  0  0  0  0  0  0  0
  -23.4702   -8.9636   23.1933 C   0  0  0  0  0  0  0  0  0  0  0  0
  -28.3202  -28.3190   21.8330 C   0  0  0  0  0  0  0  0  0  0  0  0
  -20.3398   -7.8755   23.8544 C   0  0  0  0  0  0  0  0  0  0  0  0
  -19.5368   -7.9535   24.9922 C   0  0  0  0  0  0  0  0  0  0  0  0
  -26.6341  -28.0077   20.1362 C   0  0  0  0  0  0  0  0  0  0  0  0
  -28.7314  -20.0961   21.2375 C   0  0  0  0  0  0  0  0  0  0  0  0
  -30.4468  -18.3952   19.8421 C   0  0  0  0  0  0  0  0  0  0  0  0
  -20.9706   -6.3644   26.1130 C   0  0  0  0  0  0  0  0  0  0  0  0
  -24.0610  -10.4607   21.3915 C   0  0  0  0  0  0  0  0  0  0  0  0
  -24.0933  -12.9431   20.8045 C   0  0  0  0  0  0  0  0  0  0  0  0
  -21.2875  -30.1784   27.1938 C   0  0  0  0  0  0  0  0  0  0  0  0
  -26.3060  -29.6745   21.8607 C   0  0  0  0  0  0  0  0  0  0  0  0
  -22.2961  -29.5392   26.4478 C   0  0  0  0  0  0  0  0  0  0  0  0
  -25.8493  -29.0212   20.7071 C   0  0  0  0  0  0  0  0  0  0  0  0
  -28.7210  -18.7262   21.5002 C   0  0  0  0  0  0  0  0  0  0  0  0
  -29.5994  -20.6155   20.2770 C   0  0  0  0  0  0  0  0  0  0  0  0
  -29.5788  -17.8758   20.8025 C   0  0  0  0  0  0  0  0  0  0  0  0
  -30.4572  -19.7651   19.5794 C   0  0  0  0  0  0  0  0  0  0  0  0
  -22.8471   -8.1118   22.2812 C   0  0  0  0  0  0  0  0  0  0  0  0
  -27.8620  -27.6577   20.6973 C   0  0  0  0  0  0  0  0  0  0  0  0
  -21.4581   -7.0418   23.8458 C   0  0  0  0  0  0  0  0  0  0  0  0
  -19.8522   -7.1980   26.1215 C   0  0  0  0  0  0  0  0  0  0  0  0
  -21.7735   -6.2863   24.9751 C   0  0  0  0  0  0  0  0  0  0  0  0
  -24.6887  -11.6738   20.9325 C   0  0  0  0  0  0  0  0  0  0  0  0
  -25.1010  -13.7490   20.3336 C   0  0  0  0  0  0  0  0  0  0  0  0
  -29.0878  -24.3291   20.0960 C   0  0  0  0  0  0  0  0  0  0  0  0
  -28.4220  -25.3909   20.5616 C   0  0  0  0  0  0  0  0  0  1  0  0
  -22.7497  -13.3567   21.0861 C   0  0  0  0  0  0  0  0  0  0  0  0
  -28.7964  -22.9702   20.6388 C   0  0  0  0  0  0  0  0  0  0  0  0
  -23.3002  -29.6159   22.8927 C   0  0  0  0  0  0  0  0  0  0  0  0
  -22.7158  -31.1227   20.0801 C   0  0  0  0  0  0  0  0  0  0  0  0
  -23.7027  -31.7627   16.8765 C   0  0  0  0  0  0  0  0  0  0  0  0
  -30.3805  -15.5145   20.4449 C   0  0  0  0  0  0  0  0  0  0  0  0
  -19.9114  -30.4183   26.6250 C   0  0  0  0  0  0  0  0  0  0  0  0
  -25.4974  -30.7812   22.4800 C   0  0  0  0  0  0  0  0  0  0  0  0
  -24.5322  -29.3717   20.0662 C   0  0  0  0  0  0  0  0  0  0  0  0
  -19.8563  -30.3218   25.1025 C   0  0  0  0  0  0  0  0  0  0  0  0
  -29.6914  -12.5807   18.5489 C   0  0  0  0  0  0  0  0  0  0  0  0
  -20.5961  -29.0784   24.6193 C   0  0  0  0  0  0  0  0  0  0  0  0
  -28.2794  -12.1876   18.9895 C   0  0  0  0  0  0  0  0  0  0  0  0
  -30.5108  -13.1449   19.7082 C   0  0  0  0  0  0  0  0  0  0  0  0
  -28.4631  -13.8559   20.8789 C   0  0  0  0  0  0  0  0  0  0  0  0
  -22.0789  -29.1335   25.0061 C   0  0  1  0  0  0  0  0  0  0  0  0
  -24.0131  -30.7010   22.1365 C   0  0  1  0  0  0  0  0  0  0  0  0
  -27.5784  -13.3427   19.7311 C   0  0  2  0  0  0  0  0  0  0  0  0
  -27.7800  -18.1970   22.5334 C   0  0  0  0  0  0  0  0  0  0  0  0
  -23.0003  -32.9988   14.8086 C   0  0  0  0  0  0  0  0  0  0  0  0
  -20.6350  -28.9673   19.5016 C   0  0  0  0  0  0  0  0  0  0  0  0
  -20.6646  -29.6811   17.1020 C   0  0  0  0  0  0  0  0  0  0  0  0
  -19.9397  -31.2850   18.8697 C   0  0  0  0  0  0  0  0  0  0  0  0
  -26.1349  -33.4484   16.9176 C   0  0  0  0  0  0  0  0  0  0  0  0
  -22.3859  -30.6760   18.6764 C   0  0  1  0  0  0  0  0  0  0  0  0
  -23.8086  -33.0600   16.0953 C   0  0  2  0  0  0  0  0  0  0  0  0
  -20.9303  -30.1442   18.5504 C   0  0  0  0  0  0  0  0  0  0  0  0
  -25.9747  -11.6687   20.5720 N   0  0  0  0  0  0  0  0  0  0  0  0
  -26.1958  -12.9447   20.2126 N   0  0  0  0  0  0  0  0  0  0  0  0
  -23.7750  -30.4564   20.7125 N   0  0  0  0  0  0  0  0  0  0  0  0
  -29.7860  -14.2377   20.3603 N   0  0  0  0  0  0  0  0  0  0  0  0
  -31.3425  -20.2698   18.6003 N   0  0  0  0  0  0  0  0  0  0  0  0
  -25.1484  -15.0600   20.0153 N   0  0  0  0  0  0  0  0  0  0  0  0
  -21.8427  -12.4009   21.5637 N   0  0  0  0  0  0  0  0  0  0  0  0
  -29.5906  -22.0098   20.0266 N   0  0  0  0  0  0  0  0  0  0  0  0
  -29.5841  -16.4819   21.0569 N   0  0  0  0  0  0  0  0  0  0  0  0
  -22.8008  -30.0180   24.1168 N   0  0  0  0  0  0  0  0  0  0  0  0
  -22.6857  -31.8082   17.8066 N   0  0  0  0  0  0  0  0  0  0  0  0
  -25.2299  -33.3389   15.7446 N   0  3  0  0  0  0  0  0  0  0  0  0
  -22.3605  -14.5351   20.9035 O   0  0  0  0  0  0  0  0  0  0  0  0
  -27.9521  -22.8023   21.5110 O   0  0  0  0  0  0  0  0  0  0  0  0
  -23.2086  -28.4970   22.4013 O   0  0  0  0  0  0  0  0  0  0  0  0
  -22.0625  -32.0342   20.5940 O   0  0  0  0  0  0  0  0  0  0  0  0
  -24.4451  -30.8035   16.6787 O   0  0  0  0  0  0  0  0  0  0  0  0
  -31.5017  -15.7403   19.9824 O   0  0  0  0  0  0  0  0  0  0  0  0
  -22.2548   -6.9660   22.7156 O   0  0  0  0  0  0  0  0  0  0  0  0
  -28.6134  -26.6740   20.1319 O   0  0  0  0  0  0  0  0  0  1  0  0
  -19.0819   -7.2743   27.2147 F   0  0  0  0  0  0  0  0  0  0  0  0
  -22.8473   -5.4845   24.9732 F   0  0  0  0  0  0  0  0  0  0  0  0
  1  2  1  0  0  0  0
  1  5  2  0  0  0  0
  2  6  2  0  0  0  0
  3  8  2  0  0  0  0
  3 17  1  0  0  0  0
  4  9  1  0  0  0  0
  4 17  2  0  0  0  0
  5 19  1  0  0  0  0
  6 21  1  0  0  0  0
  7 10  2  0  0  0  0
  7 20  1  0  0  0  0
  8 27  1  0  0  0  0
  9 27  2  0  0  0  0
 10 28  1  0  0  0  0
 11 12  2  0  0  0  0
 11 29  1  0  0  0  0
 12 30  1  0  0  0  0
 13 22  1  0  0  0  0
 13 28  2  0  0  0  0
 14 23  2  0  0  0  0
 14 24  1  0  0  0  0
 15 25  2  0  0  0  0
 15 26  1  0  0  0  0
 16 30  2  0  0  0  0
 16 31  1  0  0  0  0
 17 32  1  0  0  0  0
 18 32  1  0  0  0  0
 18 33  2  0  0  0  0
 18 36  1  0  0  0  0
 19 21  2  0  0  0  0
 19 42  1  0  0  0  0
 20 22  2  0  0  0  0
 20 43  1  0  0  0  0
 21 51  1  0  0  0  0
 22 44  1  0  0  0  0
 23 25  1  0  0  0  0
 23 54  1  0  0  0  0
 24 26  2  0  0  0  0
 24 70  1  0  0  0  0
 25 71  1  0  0  0  0
 26 67  1  0  0  0  0
 27 81  1  0  0  0  0
 28 82  1  0  0  0  0
 29 31  2  0  0  0  0
 29 81  1  0  0  0  0
 30 83  1  0  0  0  0
 31 84  1  0  0  0  0
 32 63  2  0  0  0  0
 33 64  1  0  0  0  0
 33 68  1  0  0  0  0
 34 35  2  0  0  0  0
 34 37  1  0  0  0  0
 35 82  1  0  0  0  0
 36 69  1  0  0  0  0
 36 75  2  0  0  0  0
 37 70  1  0  0  0  0
 37 76  2  0  0  0  0
 38 52  1  0  0  0  0
 38 72  1  0  0  0  0
 38 77  2  0  0  0  0
 39 60  1  0  0  0  0
 39 65  1  0  0  0  0
 39 78  2  0  0  0  0
 40 61  1  0  0  0  0
 40 73  1  0  0  0  0
 40 79  2  0  0  0  0
 41 66  1  0  0  0  0
 41 71  1  0  0  0  0
 41 80  2  0  0  0  0
 42 45  1  0  0  0  0
 43 52  1  0  0  0  0
 44 65  1  0  0  0  0
 45 47  1  0  0  0  0
 46 48  1  0  0  0  0
 46 49  1  0  0  0  0
 47 51  1  0  0  0  0
 48 53  1  0  0  0  0
 49 66  1  0  0  0  0
 50 53  1  0  0  0  0
 50 66  1  0  0  0  0
 51 72  1  0  0  0  0
 52 65  1  0  0  0  0
 53 64  1  0  0  0  0
 55 61  1  0  0  0  0
 56 62  1  0  0  0  0
 57 62  1  0  0  0  0
 58 62  1  0  0  0  0
 59 74  1  0  0  0  0
 60 62  1  0  0  0  0
 60 73  1  0  0  0  0
 61 74  1  0  0  0  0
 63 64  1  0  0  0  0
M  CHG  1  74   1
M  ISO  4  35 101  41 100  71 100  82 101
M  END
> <Batch ID>
0089

> <Smiles>
CNC(C)C(=O)NC(C(=O)N1Cc2cc([101O:1][101CH:1]=CC(=O)Nc3cc(C)c([100NH:0][100C:0](=O)N4CCCC(n5nc(-c6ccc(Oc7ccc(F)cc7F)cc6)c(C(N)=O)c5N)C4)cc3N)ccc2CC1C(=O)NC1CCCc2ccccc21)C(C)(C)C

> <Shape>
0.311

> <Color>
0.190

> <Negative vol penalty>
0.000

$$$$

  -OEChem-04052300263D

 84 92  0     1  0  0  0  0  0999 V2000
  -28.1446  -37.4650   22.4634 C   0  0  0  0  0  0  0  0  0  0  0  0
  -28.6066  -36.2411   21.9900 C   0  0  0  0  0  0  0  0  0  0  0  0
  -22.2473  -15.0705   24.0614 C   0  0  0  0  0  0  0  0  0  0  0  0
  -21.6994  -15.8690   21.8479 C   0  0  0  0  0  0  0  0  0  0  0  0
  -27.1310  -37.5034   23.4200 C   0  0  0  0  0  0  0  0  0  0  0  0
  -28.0560  -35.0548   22.4738 C   0  0  0  0  0  0  0  0  0  0  0  0
  -27.1630  -29.8661   19.3457 C   0  0  0  0  0  0  0  0  0  0  0  0
  -27.6411  -20.4477   18.2769 C   0  0  0  0  0  0  0  0  0  0  0  0
  -27.5155  -21.8367   18.2932 C   0  0  0  0  0  0  0  0  0  0  0  0
  -21.0602  -15.6146   24.5515 C   0  0  0  0  0  0  0  0  0  0  0  0
  -20.5122  -16.4131   22.3381 C   0  0  0  0  0  0  0  0  0  0  0  0
  -27.8966  -28.6836   19.2613 C   0  0  0  0  0  0  0  0  0  0  0  0
  -17.4332  -15.3101   23.1889 C   0  0  0  0  0  0  0  0  0  0  0  0
  -16.2708  -15.0993   22.4474 C   0  0  0  0  0  0  0  0  0  0  0  0
  -26.4857  -27.6948   20.9497 C   0  0  0  0  0  0  0  0  0  0  0  0
  -29.5047  -22.0326   16.9361 C   0  0  0  0  0  0  0  0  0  0  0  0
  -16.0005  -17.4866   22.1923 C   0  0  0  0  0  0  0  0  0  0  0  0
  -22.5669  -15.1977   22.7095 C   0  0  0  0  0  0  0  0  0  0  0  0
  -23.9859  -13.3405   21.6873 C   0  0  0  0  0  0  0  0  0  0  0  0
  -26.5610  -36.3173   23.9086 C   0  0  0  0  0  0  0  0  0  0  0  0
  -26.0901  -29.9757   20.2420 C   0  0  0  0  0  0  0  0  0  0  0  0
  -27.0348  -35.0774   23.4388 C   0  0  0  0  0  0  0  0  0  0  0  0
  -25.7383  -28.8789   21.0417 C   0  0  0  0  0  0  0  0  0  0  0  0
  -28.6987  -19.8510   17.5903 C   0  0  0  0  0  0  0  0  0  0  0  0
  -28.4472  -22.6292   17.6228 C   0  0  0  0  0  0  0  0  0  0  0  0
  -20.1926  -16.2859   23.6899 C   0  0  0  0  0  0  0  0  0  0  0  0
  -27.5599  -27.5986   20.0655 C   0  0  0  0  0  0  0  0  0  0  0  0
  -17.8793  -16.6092   23.4322 C   0  0  0  0  0  0  0  0  0  0  0  0
  -15.5544  -16.1875   21.9491 C   0  0  0  0  0  0  0  0  0  0  0  0
  -29.6304  -20.6435   16.9199 C   0  0  0  0  0  0  0  0  0  0  0  0
  -17.1630  -17.6974   22.9339 C   0  0  0  0  0  0  0  0  0  0  0  0
  -23.7933  -14.6363   22.2027 C   0  0  0  0  0  0  0  0  0  0  0  0
  -25.3151  -13.3019   21.3435 C   0  0  0  0  0  0  0  0  0  0  0  0
  -28.6134  -16.9127   15.5259 C   0  0  0  0  0  0  0  0  0  0  0  0
  -28.0609  -17.7077   16.4501 C   0  0  0  0  0  0  0  0  0  0  0  0
  -28.9215  -24.6366   18.6082 C   0  0  0  0  0  0  0  0  0  0  0  0
  -23.0473  -12.2677   21.5332 C   0  0  0  0  0  0  0  0  0  0  0  0
  -25.4448  -31.8130   22.7543 C   0  0  0  0  0  0  0  0  0  0  0  0
  -22.5648  -30.3274   22.6098 C   0  0  0  0  0  0  0  0  0  0  0  0
  -20.7531  -27.6098   21.6202 C   0  0  0  0  0  0  0  0  0  0  0  0
  -29.2725  -17.5491   19.8765 C   0  0  0  0  0  0  0  0  0  0  0  0
  -25.5004  -36.4080   24.9771 C   0  0  0  0  0  0  0  0  0  0  0  0
  -25.2919  -31.2491   20.3018 C   0  0  0  0  0  0  0  0  0  0  0  0
  -24.5826  -28.9386   22.0056 C   0  0  0  0  0  0  0  0  0  0  0  0
  -24.7106  -35.1149   25.1626 C   0  0  0  0  0  0  0  0  0  0  0  0
  -29.5467  -15.1924   22.5312 C   0  0  0  0  0  0  0  0  0  0  0  0
  -25.6537  -33.9177   25.2259 C   0  0  0  0  0  0  0  0  0  0  0  0
  -28.1206  -14.6657   22.7016 C   0  0  0  0  0  0  0  0  0  0  0  0
  -29.5612  -16.6778   22.1774 C   0  0  0  0  0  0  0  0  0  0  0  0
  -27.3138  -16.5174   21.1788 C   0  0  0  0  0  0  0  0  0  0  0  0
  -26.4455  -33.7696   23.9210 C   0  0  1  0  0  0  0  0  0  0  0  0
  -24.5416  -31.4227   21.6187 C   0  0  1  0  0  0  0  0  0  0  0  0
  -27.2460  -15.0107   21.4812 C   0  0  2  0  0  0  0  0  0  0  0  0
  -18.4290  -26.6650   21.6764 C   0  0  0  0  0  0  0  0  0  0  0  0
  -22.9381  -29.5902   25.5470 C   0  0  0  0  0  0  0  0  0  0  0  0
  -21.1153  -27.8947   25.2810 C   0  0  0  0  0  0  0  0  0  0  0  0
  -20.6232  -30.3163   24.9397 C   0  0  0  0  0  0  0  0  0  0  0  0
  -20.5711  -27.5748   18.6665 C   0  0  0  0  0  0  0  0  0  0  0  0
  -28.8644  -26.1304   18.7244 C   0  0  0  0  0  0  0  0  0  1  0  0
  -28.8299  -18.3655   17.5751 C   0  0  2  0  0  0  0  0  0  0  0  0
  -21.9789  -29.0707   23.2069 C   0  0  1  0  0  0  0  0  0  0  0  0
  -19.4292  -27.4946   20.8865 C   0  0  2  0  0  0  0  0  0  0  0  0
  -21.6869  -29.2172   24.7270 C   0  0  0  0  0  0  0  0  0  0  0  0
  -24.9108  -15.3679   22.1894 N   0  0  0  0  0  0  0  0  0  0  0  0
  -28.3202  -24.0285   17.6385 N   0  0  0  0  0  0  0  0  0  0  0  0
  -25.8183  -14.5289   21.6617 N   0  0  0  0  0  0  0  0  0  0  0  0
  -23.8367  -30.2076   22.0320 N   0  0  0  0  0  0  0  0  0  0  0  0
  -28.7139  -16.9375   21.0110 N   0  0  0  0  0  0  0  0  0  0  0  0
  -26.0909  -12.3383   20.8030 N   0  0  0  0  0  0  0  0  0  0  0  0
  -21.7217  -12.4766   21.9375 N   0  0  0  0  0  0  0  0  0  0  0  0
  -25.6179  -33.1770   22.8922 N   0  0  0  0  0  0  0  0  0  0  0  0
  -20.8068  -28.7444   22.4020 N   0  0  0  0  0  0  0  0  0  0  0  0
  -28.4018  -17.7531   18.8130 N   0  0  0  0  0  0  0  0  0  0  0  0
  -19.6280  -26.8508   19.5572 N   0  3  0  0  0  0  0  0  0  0  0  0
  -23.3782  -11.1514   21.0664 O   0  0  0  0  0  0  0  0  0  0  0  0
  -25.9463  -30.9413   23.4545 O   0  0  0  0  0  0  0  0  0  0  0  0
  -21.9148  -31.3751   22.6480 O   0  0  0  0  0  0  0  0  0  0  0  0
  -21.6485  -26.7747   21.5137 O   0  0  0  0  0  0  0  0  0  0  0  0
  -30.4605  -17.8833   19.8140 O   0  0  0  0  0  0  0  0  0  0  0  0
  -19.0340  -16.8168   24.1678 O   0  0  0  0  0  0  0  0  0  0  0  0
  -28.2748  -26.4435   19.9856 O   0  0  0  0  0  0  0  0  0  1  0  0
  -14.4390  -15.9849   21.2357 F   0  0  0  0  0  0  0  0  0  0  0  0
  -30.6502  -20.0793   16.2578 F   0  0  0  0  0  0  0  0  0  0  0  0
  -17.5873  -18.9476   23.1634 F   0  0  0  0  0  0  0  0  0  0  0  0
  1  2  1  0  0  0  0
  1  5  2  0  0  0  0
  2  6  2  0  0  0  0
  3 10  2  0  0  0  0
  3 18  1  0  0  0  0
  4 11  1  0  0  0  0
  4 18  2  0  0  0  0
  5 20  1  0  0  0  0
  6 22  1  0  0  0  0
  7 12  2  0  0  0  0
  7 21  1  0  0  0  0
  8  9  2  0  0  0  0
  8 24  1  0  0  0  0
  9 25  1  0  0  0  0
 10 26  1  0  0  0  0
 11 26  2  0  0  0  0
 12 27  1  0  0  0  0
 13 14  2  0  0  0  0
 13 28  1  0  0  0  0
 14 29  1  0  0  0  0
 15 23  1  0  0  0  0
 15 27  2  0  0  0  0
 16 25  2  0  0  0  0
 16 30  1  0  0  0  0
 17 29  2  0  0  0  0
 17 31  1  0  0  0  0
 18 32  1  0  0  0  0
 19 32  1  0  0  0  0
 19 33  2  0  0  0  0
 19 37  1  0  0  0  0
 20 22  2  0  0  0  0
 20 42  1  0  0  0  0
 21 23  2  0  0  0  0
 21 43  1  0  0  0  0
 22 51  1  0  0  0  0
 23 44  1  0  0  0  0
 24 30  2  0  0  0  0
 24 60  1  0  0  0  0
 25 65  1  0  0  0  0
 26 80  1  0  0  0  0
 27 81  1  0  0  0  0
 28 31  2  0  0  0  0
 28 80  1  0  0  0  0
 29 82  1  0  0  0  0
 30 83  1  0  0  0  0
 31 84  1  0  0  0  0
 32 64  2  0  0  0  0
 33 66  1  0  0  0  0
 33 69  1  0  0  0  0
 34 35  2  0  0  0  0
 35 60  1  0  0  0  0
 36 59  1  0  0  0  0
 36 65  2  0  0  0  0
 37 70  1  0  0  0  0
 37 75  2  0  0  0  0
 38 52  1  0  0  0  0
 38 71  1  0  0  0  0
 38 76  2  0  0  0  0
 39 61  1  0  0  0  0
 39 67  1  0  0  0  0
 39 77  2  0  0  0  0
 40 62  1  0  0  0  0
 40 72  1  0  0  0  0
 40 78  2  0  0  0  0
 41 68  1  0  0  0  0
 41 73  1  0  0  0  0
 41 79  2  0  0  0  0
 42 45  1  0  0  0  0
 43 52  1  0  0  0  0
 44 67  1  0  0  0  0
 45 47  1  0  0  0  0
 46 48  1  0  0  0  0
 46 49  1  0  0  0  0
 47 51  1  0  0  0  0
 48 53  1  0  0  0  0
 49 68  1  0  0  0  0
 50 53  1  0  0  0  0
 50 68  1  0  0  0  0
 51 71  1  0  0  0  0
 52 67  1  0  0  0  0
 53 66  1  0  0  0  0
 54 62  1  0  0  0  0
 55 63  1  0  0  0  0
 56 63  1  0  0  0  0
 57 63  1  0  0  0  0
 58 74  1  0  0  0  0
 59 81  1  0  0  0  0
 60 73  1  0  0  0  0
 61 63  1  0  0  0  0
 61 72  1  0  0  0  0
 62 74  1  0  0  0  0
 64 66  1  0  0  0  0
M  CHG  1  74   1
M  ISO  4  41 100  59 101  73 100  81 101
M  END
> <Batch ID>
0089

> <Smiles>
C=CC([100NH:0][100C:0](=O)N1CCCC(n2nc(-c3ccc(Oc4ccc(F)cc4F)cc3)c(C(N)=O)c2N)C1)c1ccc(NC=[101CH:1][101O:1]c2ccc3c(c2)CN(C(=O)C(NC(=O)C(C)NC)C(C)(C)C)C(C(=O)NC2CCCc4ccccc42)C3)cc1F

> <Shape>
0.264

> <Color>
0.103

> <Negative vol penalty>
0.000

$$$$

  -OEChem-04052300263D

 87 96  0     1  0  0  0  0  0999 V2000
  -25.8094  -36.2770   16.1087 C   0  0  0  0  0  0  0  0  0  0  0  0
  -26.1326  -34.9240   16.0852 C   0  0  0  0  0  0  0  0  0  0  0  0
  -23.5703   -8.9862   20.2153 C   0  0  0  0  0  0  0  0  0  0  0  0
  -23.1650  -10.6261   21.9426 C   0  0  0  0  0  0  0  0  0  0  0  0
  -25.8364  -36.9781   17.3135 C   0  0  0  0  0  0  0  0  0  0  0  0
  -26.4840  -34.2716   17.2664 C   0  0  0  0  0  0  0  0  0  0  0  0
  -25.2463  -28.4665   18.7745 C   0  0  0  0  0  0  0  0  0  0  0  0
  -22.7981   -8.0587   20.9146 C   0  0  0  0  0  0  0  0  0  0  0  0
  -22.3927   -9.6985   22.6419 C   0  0  0  0  0  0  0  0  0  0  0  0
  -26.0065  -27.2994   18.7147 C   0  0  0  0  0  0  0  0  0  0  0  0
  -23.1727   -6.0072   23.5746 C   0  0  0  0  0  0  0  0  0  0  0  0
  -23.6741   -4.7118   23.7011 C   0  0  0  0  0  0  0  0  0  0  0  0
  -26.6111  -27.5816   21.0329 C   0  0  0  0  0  0  0  0  0  0  0  0
  -30.2967  -23.9893   20.5450 C   0  0  0  0  0  0  0  0  0  0  0  0
  -28.5666  -20.0708   19.0889 C   0  0  0  0  0  0  0  0  0  0  0  0
  -29.9887  -19.6958   21.0056 C   0  0  0  0  0  0  0  0  0  0  0  0
  -21.7332   -3.8483   22.5501 C   0  0  0  0  0  0  0  0  0  0  0  0
  -23.7538  -10.2699   20.7293 C   0  0  0  0  0  0  0  0  0  0  0  0
  -24.1076  -12.1437   19.0348 C   0  0  0  0  0  0  0  0  0  0  0  0
  -26.1790  -36.3317   18.5116 C   0  0  0  0  0  0  0  0  0  0  0  0
  -25.1715  -29.2071   19.9629 C   0  0  0  0  0  0  0  0  0  0  0  0
  -26.5169  -34.9651   18.4882 C   0  0  0  0  0  0  0  0  0  0  0  0
  -25.8472  -28.7564   21.1059 C   0  0  0  0  0  0  0  0  0  0  0  0
  -28.8923  -24.0743   20.7108 C   0  0  0  0  0  0  0  0  0  0  0  0
  -29.3300  -20.5721   20.1432 C   0  0  0  0  0  0  0  0  0  0  0  0
  -28.4619  -18.6931   18.8971 C   0  0  0  0  0  0  0  0  0  0  0  0
  -29.1207  -17.8168   19.7595 C   0  0  0  0  0  0  0  0  0  0  0  0
  -22.2093   -8.4148   22.1279 C   0  0  0  0  0  0  0  0  0  0  0  0
  -26.6914  -26.8583   19.8432 C   0  0  0  0  0  0  0  0  0  0  0  0
  -21.9516   -6.2233   22.9359 C   0  0  0  0  0  0  0  0  0  0  0  0
  -22.9543   -3.6323   23.1888 C   0  0  0  0  0  0  0  0  0  0  0  0
  -29.8841  -18.3181   20.8138 C   0  0  0  0  0  0  0  0  0  0  0  0
  -21.2319   -5.1438   22.4236 C   0  0  0  0  0  0  0  0  0  0  0  0
  -24.5518  -11.2283   20.0077 C   0  0  0  0  0  0  0  0  0  0  0  0
  -28.3846  -22.8009   20.5773 C   0  0  0  0  0  0  0  0  0  0  0  0
  -25.2412  -12.8217   18.6583 C   0  0  0  0  0  0  0  0  0  0  0  0
  -30.6044  -22.6665   20.3151 C   0  0  0  0  0  0  0  0  0  0  0  0
  -22.7882  -12.3616   18.5176 C   0  0  0  0  0  0  0  0  0  0  0  0
  -26.0005  -32.1516   20.8270 C   0  0  0  0  0  0  0  0  0  0  0  0
  -24.5166  -31.3381   23.5944 C   0  0  0  0  0  0  0  0  0  0  0  0
  -23.4781  -28.8674   25.7073 C   0  0  0  0  0  0  0  0  0  0  0  0
  -29.9842  -15.4551   19.9121 C   0  0  0  0  0  0  0  0  0  0  0  0
  -26.2402  -37.1424   19.7820 C   0  0  0  0  0  0  0  0  0  0  0  0
  -24.3255  -30.4496   20.0185 C   0  0  0  0  0  0  0  0  0  0  0  0
  -25.7829  -29.5043   22.4117 C   0  0  0  0  0  0  0  0  0  0  0  0
  -26.2596  -36.2899   21.0482 C   0  0  0  0  0  0  0  0  0  0  0  0
  -30.1158  -11.9054   19.6685 C   0  0  0  0  0  0  0  0  0  0  0  0
  -27.2622  -35.1488   20.9082 C   0  0  0  0  0  0  0  0  0  0  0  0
  -28.6434  -11.4881   19.6550 C   0  0  0  0  0  0  0  0  0  0  0  0
  -30.3595  -13.0955   20.5948 C   0  0  0  0  0  0  0  0  0  0  0  0
  -28.0261  -13.8422   20.3363 C   0  0  0  0  0  0  0  0  0  0  0  0
  -26.8792  -34.2166   19.7525 C   0  0  1  0  0  0  0  0  0  0  0  0
  -24.7357  -31.4021   21.1373 C   0  0  1  0  0  0  0  0  0  0  0  0
  -27.7201  -12.6883   19.3675 C   0  0  2  0  0  0  0  0  0  0  0  0
  -26.9838  -22.3291   20.6600 C   0  0  0  0  0  0  0  0  0  0  0  0
  -22.3274  -28.5129   27.9090 C   0  0  0  0  0  0  0  0  0  0  0  0
  -27.0672  -32.1553   25.0562 C   0  0  0  0  0  0  0  0  0  0  0  0
  -26.2303  -30.9161   27.0643 C   0  0  0  0  0  0  0  0  0  0  0  0
  -24.9482  -32.8645   26.1794 C   0  0  0  0  0  0  0  0  0  0  0  0
  -21.2688  -27.3587   24.4416 C   0  0  0  0  0  0  0  0  0  0  0  0
  -28.1104  -25.3260   20.9811 C   0  0  0  0  0  0  0  0  0  1  0  0
  -24.9475  -30.6907   24.8884 C   0  0  1  0  0  0  0  0  0  0  0  0
  -22.1501  -28.6293   26.4031 C   0  0  2  0  0  0  0  0  0  0  0  0
  -25.8013  -31.6434   25.7721 C   0  0  0  0  0  0  0  0  0  0  0  0
  -25.8652  -11.3143   20.2350 N   0  0  0  0  0  0  0  0  0  0  0  0
  -29.4344  -21.9534   20.3366 N   0  0  0  0  0  0  0  0  0  0  0  0
  -26.2560  -12.2916   19.3995 N   0  0  0  0  0  0  0  0  0  0  0  0
  -24.9477  -30.7167   22.4138 N   0  0  0  0  0  0  0  0  0  0  0  0
  -29.4523  -14.1956   20.2607 N   0  0  0  0  0  0  0  0  0  0  0  0
  -27.6830  -18.2072   17.8228 N   0  0  0  0  0  0  0  0  0  0  0  0
  -25.4589  -13.8135   17.7688 N   0  0  0  0  0  0  0  0  0  0  0  0
  -21.7379  -11.5777   19.0143 N   0  0  0  0  0  0  0  0  0  0  0  0
  -29.0268  -16.4141   19.5826 N   0  0  0  0  0  0  0  0  0  0  0  0
  -25.7992  -33.3383   20.1483 N   0  0  0  0  0  0  0  0  0  0  0  0
  -23.7285  -30.2118   25.5310 N   0  0  0  0  0  0  0  0  0  0  0  0
  -21.5224  -27.3727   25.9053 N   0  3  0  0  0  0  0  0  0  0  0  0
  -22.5505  -13.2147   17.6292 O   0  0  0  0  0  0  0  0  0  0  0  0
  -27.0791  -31.6882   21.1787 O   0  0  0  0  0  0  0  0  0  0  0  0
  -23.8170  -32.3535   23.6299 O   0  0  0  0  0  0  0  0  0  0  0  0
  -24.2208  -27.9524   25.3585 O   0  0  0  0  0  0  0  0  0  0  0  0
  -31.2003  -15.6596   19.8798 O   0  0  0  0  0  0  0  0  0  0  0  0
  -31.7760  -22.0799   20.1002 O   0  0  0  0  0  0  0  0  0  0  0  0
  -21.4556   -7.5101   22.8104 O   0  0  0  0  0  0  0  0  0  0  0  0
  -27.4347  -25.7197   19.7874 O   0  0  0  0  0  0  0  0  0  1  0  0
  -23.4366   -2.3885   23.3090 F   0  0  0  0  0  0  0  0  0  0  0  0
  -30.5219  -17.4860   21.6495 F   0  0  0  0  0  0  0  0  0  0  0  0
  -20.0587   -5.3452   21.8080 F   0  0  0  0  0  0  0  0  0  0  0  0
  1  2  1  0  0  0  0
  1  5  2  0  0  0  0
  2  6  2  0  0  0  0
  3  8  2  0  0  0  0
  3 18  1  0  0  0  0
  4  9  1  0  0  0  0
  4 18  2  0  0  0  0
  5 20  1  0  0  0  0
  6 22  1  0  0  0  0
  7 10  2  0  0  0  0
  7 21  1  0  0  0  0
  8 28  1  0  0  0  0
  9 28  2  0  0  0  0
 10 29  1  0  0  0  0
 11 12  2  0  0  0  0
 11 30  1  0  0  0  0
 12 31  1  0  0  0  0
 13 23  1  0  0  0  0
 13 29  2  0  0  0  0
 14 24  1  0  0  0  0
 14 37  2  0  0  0  0
 15 25  1  0  0  0  0
 15 26  2  0  0  0  0
 16 25  2  0  0  0  0
 16 32  1  0  0  0  0
 17 31  2  0  0  0  0
 17 33  1  0  0  0  0
 18 34  1  0  0  0  0
 19 34  1  0  0  0  0
 19 36  2  0  0  0  0
 19 38  1  0  0  0  0
 20 22  2  0  0  0  0
 20 43  1  0  0  0  0
 21 23  2  0  0  0  0
 21 44  1  0  0  0  0
 22 52  1  0  0  0  0
 23 45  1  0  0  0  0
 24 35  2  0  0  0  0
 24 61  1  0  0  0  0
 25 66  1  0  0  0  0
 26 27  1  0  0  0  0
 26 70  1  0  0  0  0
 27 32  2  0  0  0  0
 27 73  1  0  0  0  0
 28 83  1  0  0  0  0
 29 84  1  0  0  0  0
 30 33  2  0  0  0  0
 30 83  1  0  0  0  0
 31 85  1  0  0  0  0
 32 86  1  0  0  0  0
 33 87  1  0  0  0  0
 34 65  2  0  0  0  0
 35 55  1  0  0  0  0
 35 66  1  0  0  0  0
 36 67  1  0  0  0  0
 36 71  1  0  0  0  0
 37 66  1  0  0  0  0
 37 82  1  0  0  0  0
 38 72  1  0  0  0  0
 38 77  2  0  0  0  0
 39 53  1  0  0  0  0
 39 74  1  0  0  0  0
 39 78  2  0  0  0  0
 40 62  1  0  0  0  0
 40 68  1  0  0  0  0
 40 79  2  0  0  0  0
 41 63  1  0  0  0  0
 41 75  1  0  0  0  0
 41 80  2  0  0  0  0
 42 69  1  0  0  0  0
 42 73  1  0  0  0  0
 42 81  2  0  0  0  0
 43 46  1  0  0  0  0
 44 53  1  0  0  0  0
 45 68  1  0  0  0  0
 46 48  1  0  0  0  0
 47 49  1  0  0  0  0
 47 50  1  0  0  0  0
 48 52  1  0  0  0  0
 49 54  1  0  0  0  0
 50 69  1  0  0  0  0
 51 54  1  0  0  0  0
 51 69  1  0  0  0  0
 52 74  1  0  0  0  0
 53 68  1  0  0  0  0
 54 67  1  0  0  0  0
 56 63  1  0  0  0  0
 57 64  1  0  0  0  0
 58 64  1  0  0  0  0
 59 64  1  0  0  0  0
 60 76  1  0  0  0  0
 61 84  1  0  0  0  0
 62 64  1  0  0  0  0
 62 75  1  0  0  0  0
 63 76  1  0  0  0  0
 65 67  1  0  0  0  0
M  CHG  1  76   1
M  ISO  4  42 100  61 101  73 100  84 101
M  END
> <Batch ID>
0089

> <Smiles>
CNC(C)C(=O)NC(C(=O)N1Cc2cc([101O:1][101CH2:1]C3=C(C)N(c4cc(N)c([100NH:0][100C:0](=O)N5CCCC(n6nc(-c7ccc(Oc8ccc(F)cc8F)cc7)c(C(N)=O)c6N)C5)c(F)c4)C(=O)C3)ccc2CC1C(=O)NC1CCCc2ccccc21)C(C)(C)C

> <Shape>
0.314

> <Color>
0.123

> <Negative vol penalty>
0.000

$$$$

  -OEChem-04052300263D

 88 96  0     1  0  0  0  0  0999 V2000
  -30.5329  -23.2138   16.2687 C   0  0  0  0  0  0  0  0  0  0  0  0
  -30.3545  -23.3501   17.4483 C   0  0  0  0  0  0  0  0  0  0  0  0
  -24.8158  -34.7209   23.9438 C   0  0  0  0  0  0  0  0  0  0  0  0
  -25.5369  -33.5670   23.6543 C   0  0  0  0  0  0  0  0  0  0  0  0
  -21.5432  -10.2032   23.2136 C   0  0  0  0  0  0  0  0  0  0  0  0
  -23.3432  -10.3368   21.6077 C   0  0  0  0  0  0  0  0  0  0  0  0
  -23.4700  -34.6305   24.2965 C   0  0  0  0  0  0  0  0  0  0  0  0
  -24.9128  -32.3217   23.7184 C   0  0  0  0  0  0  0  0  0  0  0  0
  -26.0379  -29.3784   19.7540 C   0  0  0  0  0  0  0  0  0  0  0  0
  -21.3086   -8.8798   22.8407 C   0  0  0  0  0  0  0  0  0  0  0  0
  -23.1087   -9.0133   21.2348 C   0  0  0  0  0  0  0  0  0  0  0  0
  -27.2812  -28.7476   19.7619 C   0  0  0  0  0  0  0  0  0  0  0  0
  -20.4712   -5.3530   22.5658 C   0  0  0  0  0  0  0  0  0  0  0  0
  -20.2736   -4.4182   23.5820 C   0  0  0  0  0  0  0  0  0  0  0  0
  -27.9268  -20.2334   21.8101 C   0  0  0  0  0  0  0  0  0  0  0  0
  -26.2344  -26.7069   20.5092 C   0  0  0  0  0  0  0  0  0  0  0  0
  -25.4992  -20.6945   20.5152 C   0  0  0  0  0  0  0  0  0  0  0  0
  -22.4709   -4.9074   24.4593 C   0  0  0  0  0  0  0  0  0  0  0  0
  -22.5605  -10.9318   22.5971 C   0  0  0  0  0  0  0  0  0  0  0  0
  -27.8139  -21.2762   20.8908 C   0  0  0  0  0  0  0  0  0  0  0  0
  -23.6701  -12.7573   23.9914 C   0  0  0  0  0  0  0  0  0  0  0  0
  -22.8265  -33.3842   24.3555 C   0  0  0  0  0  0  0  0  0  0  0  0
  -24.8831  -28.6801   20.1348 C   0  0  0  0  0  0  0  0  0  0  0  0
  -23.5574  -32.2143   24.0735 C   0  0  0  0  0  0  0  0  0  0  0  0
  -24.9773  -27.3303   20.5029 C   0  0  0  0  0  0  0  0  0  0  0  0
  -25.6122  -19.6516   21.4346 C   0  0  0  0  0  0  0  0  0  0  0  0
  -22.0914   -8.2848   21.8513 C   0  0  0  0  0  0  0  0  0  0  0  0
  -27.3800  -27.4125   20.1423 C   0  0  0  0  0  0  0  0  0  0  0  0
  -21.6687   -6.0650   22.4963 C   0  0  0  0  0  0  0  0  0  0  0  0
  -21.2735   -4.1954   24.5287 C   0  0  0  0  0  0  0  0  0  0  0  0
  -26.8260  -19.4210   22.0820 C   0  0  0  0  0  0  0  0  0  0  0  0
  -26.6001  -21.5069   20.2433 C   0  0  0  0  0  0  0  0  0  0  0  0
  -22.6685   -5.8422   23.4430 C   0  0  0  0  0  0  0  0  0  0  0  0
  -22.8029  -12.2991   22.9815 C   0  0  0  0  0  0  0  0  0  0  0  0
  -23.5417  -14.1244   23.9600 C   0  0  0  0  0  0  0  0  0  0  0  0
  -28.9888  -22.1393   20.6047 C   0  0  0  0  0  0  0  0  0  0  0  0
  -24.5161  -12.0136   24.8785 C   0  0  0  0  0  0  0  0  0  0  0  0
  -22.7311  -28.9983   22.4525 C   0  0  0  0  0  0  0  0  0  0  0  0
  -29.9192  -24.9825   19.2477 C   0  0  0  0  0  0  0  0  0  0  0  0
  -21.2427  -26.5904   20.8687 C   0  0  0  0  0  0  0  0  0  0  0  0
  -21.4908  -23.9333   18.7414 C   0  0  0  0  0  0  0  0  0  0  0  0
  -23.2170  -18.9230   21.1545 C   0  0  0  0  0  0  0  0  0  0  0  0
  -21.3824  -33.3326   24.7876 C   0  0  0  0  0  0  0  0  0  0  0  0
  -23.5457  -29.3673   20.0953 C   0  0  0  0  0  0  0  0  0  0  0  0
  -23.7647  -26.5304   20.9009 C   0  0  0  0  0  0  0  0  0  0  0  0
  -20.6980  -32.0061   24.4678 C   0  0  0  0  0  0  0  0  0  0  0  0
  -20.2048  -17.0649   21.5435 C   0  0  0  0  0  0  0  0  0  0  0  0
  -21.5844  -30.8351   24.8801 C   0  0  0  0  0  0  0  0  0  0  0  0
  -20.6835  -15.6971   22.0353 C   0  0  0  0  0  0  0  0  0  0  0  0
  -21.1669  -17.6690   20.5222 C   0  0  0  0  0  0  0  0  0  0  0  0
  -23.0467  -16.3734   21.4481 C   0  0  0  0  0  0  0  0  0  0  0  0
  -22.9091  -30.8473   24.1079 C   0  0  1  0  0  0  0  0  0  0  0  0
  -22.5071  -28.7057   20.9958 C   0  0  1  0  0  0  0  0  0  0  0  0
  -22.1432  -15.7542   22.5269 C   0  0  2  0  0  0  0  0  0  0  0  0
  -20.1093  -22.1364   17.6644 C   0  0  0  0  0  0  0  0  0  0  0  0
  -21.1736  -25.0639   23.5097 C   0  0  0  0  0  0  0  0  0  0  0  0
  -20.6798  -22.9803   22.2123 C   0  0  0  0  0  0  0  0  0  0  0  0
  -19.0806  -24.8939   22.1515 C   0  0  0  0  0  0  0  0  0  0  0  0
  -22.1300  -24.9104   16.0219 C   0  0  0  0  0  0  0  0  0  0  0  0
  -28.6079  -25.3908   19.8954 C   0  0  0  0  0  0  0  0  0  1  0  0
  -30.1403  -23.5147   18.8905 C   0  0  1  0  0  0  0  0  0  0  0  0
  -21.2863  -25.0826   20.9304 C   0  0  1  0  0  0  0  0  0  0  0  0
  -20.6770  -23.5400   17.5217 C   0  0  2  0  0  0  0  0  0  0  0  0
  -20.5784  -24.5205   22.1954 C   0  0  0  0  0  0  0  0  0  0  0  0
  -22.1702  -13.2944   22.3544 N   0  0  0  0  0  0  0  0  0  0  0  0
  -22.6403  -14.3916   22.9719 N   0  0  0  0  0  0  0  0  0  0  0  0
  -22.4805  -27.2487   20.8522 N   0  0  0  0  0  0  0  0  0  0  0  0
  -22.5295  -17.6946   21.0586 N   0  0  0  0  0  0  0  0  0  0  0  0
  -24.1131  -15.1120   24.6815 N   0  0  0  0  0  0  0  0  0  0  0  0
  -24.5272  -10.6158   24.7759 N   0  0  0  0  0  0  0  0  0  0  0  0
  -24.4925  -18.8280   21.7099 N   0  0  0  0  0  0  0  0  0  0  0  0
  -29.0539  -22.6803   19.3259 N   0  0  0  0  0  0  0  0  0  0  0  0
  -22.7159  -30.3444   22.7647 N   0  0  0  0  0  0  0  0  0  0  0  0
  -20.7258  -24.6061   19.6706 N   0  0  0  0  0  0  0  0  0  0  0  0
  -21.5257  -23.5816   16.2974 N   0  3  0  0  0  0  0  0  0  0  0  0
  -29.8333  -22.3124   21.4796 O   0  0  0  0  0  0  0  0  0  0  0  0
  -25.2282  -12.5711   25.7477 O   0  0  0  0  0  0  0  0  0  0  0  0
  -22.9035  -28.0715   23.2354 O   0  0  0  0  0  0  0  0  0  0  0  0
  -30.8140  -25.8116   19.0586 O   0  0  0  0  0  0  0  0  0  0  0  0
  -20.1506  -27.1626   20.8291 O   0  0  0  0  0  0  0  0  0  0  0  0
  -22.6848  -23.6668   18.8597 O   0  0  0  0  0  0  0  0  0  0  0  0
  -22.7009  -19.9851   20.7972 O   0  0  0  0  0  0  0  0  0  0  0  0
  -21.8630   -6.9934   21.4873 O   0  0  0  0  0  0  0  0  0  0  0  0
  -28.5924  -26.7945   20.1515 O   0  0  0  0  0  0  0  0  0  1  0  0
  -21.0830   -3.2987   25.5054 F   0  0  0  0  0  0  0  0  0  0  0  0
  -26.9461  -18.4214   22.9674 F   0  0  0  0  0  0  0  0  0  0  0  0
  -26.4793  -22.5071   19.3585 F   0  0  0  0  0  0  0  0  0  0  0  0
  -23.8205   -6.5241   23.3821 F   0  0  0  0  0  0  0  0  0  0  0  0
  1  2  3  0  0  0  0
  2 61  1  0  0  0  0
  3  4  1  0  0  0  0
  3  7  2  0  0  0  0
  4  8  2  0  0  0  0
  5 10  2  0  0  0  0
  5 19  1  0  0  0  0
  6 11  1  0  0  0  0
  6 19  2  0  0  0  0
  7 22  1  0  0  0  0
  8 24  1  0  0  0  0
  9 12  2  0  0  0  0
  9 23  1  0  0  0  0
 10 27  1  0  0  0  0
 11 27  2  0  0  0  0
 12 28  1  0  0  0  0
 13 14  2  0  0  0  0
 13 29  1  0  0  0  0
 14 30  1  0  0  0  0
 15 20  1  0  0  0  0
 15 31  2  0  0  0  0
 16 25  1  0  0  0  0
 16 28  2  0  0  0  0
 17 26  2  0  0  0  0
 17 32  1  0  0  0  0
 18 30  2  0  0  0  0
 18 33  1  0  0  0  0
 19 34  1  0  0  0  0
 20 32  2  0  0  0  0
 20 36  1  0  0  0  0
 21 34  1  0  0  0  0
 21 35  2  0  0  0  0
 21 37  1  0  0  0  0
 22 24  2  0  0  0  0
 22 43  1  0  0  0  0
 23 25  2  0  0  0  0
 23 44  1  0  0  0  0
 24 52  1  0  0  0  0
 25 45  1  0  0  0  0
 26 31  1  0  0  0  0
 26 71  1  0  0  0  0
 27 83  1  0  0  0  0
 28 84  1  0  0  0  0
 29 33  2  0  0  0  0
 29 83  1  0  0  0  0
 30 85  1  0  0  0  0
 31 86  1  0  0  0  0
 32 87  1  0  0  0  0
 33 88  1  0  0  0  0
 34 65  2  0  0  0  0
 35 66  1  0  0  0  0
 35 69  1  0  0  0  0
 36 72  1  0  0  0  0
 36 76  2  0  0  0  0
 37 70  1  0  0  0  0
 37 77  2  0  0  0  0
 38 53  1  0  0  0  0
 38 73  1  0  0  0  0
 38 78  2  0  0  0  0
 39 60  1  0  0  0  0
 39 61  1  0  0  0  0
 39 79  2  0  0  0  0
 40 62  1  0  0  0  0
 40 67  1  0  0  0  0
 40 80  2  0  0  0  0
 41 63  1  0  0  0  0
 41 74  1  0  0  0  0
 41 81  2  0  0  0  0
 42 68  1  0  0  0  0
 42 71  1  0  0  0  0
 42 82  2  0  0  0  0
 43 46  1  0  0  0  0
 44 53  1  0  0  0  0
 45 67  1  0  0  0  0
 46 48  1  0  0  0  0
 47 49  1  0  0  0  0
 47 50  1  0  0  0  0
 48 52  1  0  0  0  0
 49 54  1  0  0  0  0
 50 68  1  0  0  0  0
 51 54  1  0  0  0  0
 51 68  1  0  0  0  0
 52 73  1  0  0  0  0
 53 67  1  0  0  0  0
 54 66  1  0  0  0  0
 55 63  1  0  0  0  0
 56 64  1  0  0  0  0
 57 64  1  0  0  0  0
 58 64  1  0  0  0  0
 59 75  1  0  0  0  0
 60 84  1  0  0  0  0
 61 72  1  0  0  0  0
 62 64  1  0  0  0  0
 62 74  1  0  0  0  0
 63 75  1  0  0  0  0
 65 66  1  0  0  0  0
M  CHG  1  75   1
M  ISO  4  42 100  60 101  71 100  84 101
M  END
> <Batch ID>
0089

> <Smiles>
C#CC(NC(=O)c1cc(F)c([100NH:0][100C:0](=O)N2CCCC(n3nc(-c4ccc(Oc5ccc(F)cc5F)cc4)c(C(N)=O)c3N)C2)cc1F)C(=O)[101CH2:1][101O:1]c1ccc2c(c1)CN(C(=O)C(NC(=O)C(C)NC)C(C)(C)C)C(C(=O)NC1CCCc3ccccc31)C2

> <Shape>
0.229

> <Color>
0.097

> <Negative vol penalty>
0.000

$$$$

  -OEChem-04052300263D

 87 95  0     1  0  0  0  0  0999 V2000
  -27.9779  -31.9968   18.8635 C   0  0  0  0  0  0  0  0  0  0  0  0
  -27.6381  -30.6489   18.8057 C   0  0  0  0  0  0  0  0  0  0  0  0
  -26.2987  -12.8588   21.5874 C   0  0  0  0  0  0  0  0  0  0  0  0
  -25.9400  -13.6429   19.3305 C   0  0  0  0  0  0  0  0  0  0  0  0
  -27.6607  -32.7465   19.9954 C   0  0  0  0  0  0  0  0  0  0  0  0
  -26.9819  -30.0498   19.8803 C   0  0  0  0  0  0  0  0  0  0  0  0
  -23.1292  -27.1106   18.4097 C   0  0  0  0  0  0  0  0  0  0  0  0
  -25.0854  -12.1723   21.5418 C   0  0  0  0  0  0  0  0  0  0  0  0
  -24.7267  -12.9564   19.2849 C   0  0  0  0  0  0  0  0  0  0  0  0
  -23.4461  -25.8486   17.9090 C   0  0  0  0  0  0  0  0  0  0  0  0
  -23.9067   -9.2806   20.2449 C   0  0  0  0  0  0  0  0  0  0  0  0
  -23.8838   -7.9720   20.7272 C   0  0  0  0  0  0  0  0  0  0  0  0
  -22.8940  -24.8697   20.0434 C   0  0  0  0  0  0  0  0  0  0  0  0
  -31.0645  -18.9648   16.7233 C   0  0  0  0  0  0  0  0  0  0  0  0
  -29.4888  -20.3537   17.9171 C   0  0  0  0  0  0  0  0  0  0  0  0
  -22.2315   -8.6070   22.3715 C   0  0  0  0  0  0  0  0  0  0  0  0
  -26.7260  -13.5942   20.4818 C   0  0  0  0  0  0  0  0  0  0  0  0
  -29.2466  -13.8166   20.1576 C   0  0  0  0  0  0  0  0  0  0  0  0
  -26.9916  -32.1586   21.0804 C   0  0  0  0  0  0  0  0  0  0  0  0
  -22.7019  -27.2631   19.7366 C   0  0  0  0  0  0  0  0  0  0  0  0
  -26.6566  -30.7921   21.0283 C   0  0  0  0  0  0  0  0  0  0  0  0
  -22.5697  -26.1343   20.5578 C   0  0  0  0  0  0  0  0  0  0  0  0
  -30.7661  -19.8067   17.7947 C   0  0  0  0  0  0  0  0  0  0  0  0
  -30.0856  -18.6700   15.7743 C   0  0  0  0  0  0  0  0  0  0  0  0
  -28.5099  -20.0588   16.9682 C   0  0  0  0  0  0  0  0  0  0  0  0
  -28.8083  -19.2170   15.8968 C   0  0  0  0  0  0  0  0  0  0  0  0
  -24.2994  -12.2210   20.3905 C   0  0  0  0  0  0  0  0  0  0  0  0
  -23.3313  -24.7282   18.7267 C   0  0  0  0  0  0  0  0  0  0  0  0
  -23.0921  -10.2525   20.8260 C   0  0  0  0  0  0  0  0  0  0  0  0
  -23.0462   -7.6352   21.7904 C   0  0  0  0  0  0  0  0  0  0  0  0
  -22.2545   -9.9156   21.8893 C   0  0  0  0  0  0  0  0  0  0  0  0
  -27.9790  -14.3040   20.5286 C   0  0  0  0  0  0  0  0  0  0  0  0
  -30.0995  -14.8685   20.3866 C   0  0  0  0  0  0  0  0  0  0  0  0
  -34.0814  -20.4283   19.3529 C   0  0  0  0  0  0  0  0  0  0  0  0
  -33.1296  -20.1480   18.4600 C   0  0  0  0  0  0  0  0  0  0  0  0
  -24.9288  -23.0575   18.3699 C   0  0  0  0  0  0  0  0  0  1  0  0
  -29.6196  -12.5282   19.6511 C   0  0  0  0  0  0  0  0  0  0  0  0
  -25.3433  -21.8637   17.9287 C   0  0  0  0  0  0  0  0  0  0  0  0
  -26.7791  -21.4759   18.1200 C   0  0  0  0  0  0  0  0  0  0  0  0
  -23.8155  -28.7946   22.2897 C   0  0  0  0  0  0  0  0  0  0  0  0
  -21.0072  -27.8406   23.6034 C   0  0  0  0  0  0  0  0  0  0  0  0
  -18.4051  -25.6325   23.5913 C   0  0  0  0  0  0  0  0  0  0  0  0
  -31.4010  -20.2258   20.1428 C   0  0  0  0  0  0  0  0  0  0  0  0
  -26.7119  -32.9979   22.3019 C   0  0  0  0  0  0  0  0  0  0  0  0
  -22.3382  -28.6280   20.2535 C   0  0  0  0  0  0  0  0  0  0  0  0
  -22.0960  -26.2419   21.9834 C   0  0  0  0  0  0  0  0  0  0  0  0
  -25.6822  -32.3789   23.2436 C   0  0  0  0  0  0  0  0  0  0  0  0
  -29.3755  -19.2394   22.8098 C   0  0  0  0  0  0  0  0  0  0  0  0
  -25.9903  -30.9030   23.4756 C   0  0  0  0  0  0  0  0  0  0  0  0
  -28.9253  -17.8293   22.4293 C   0  0  0  0  0  0  0  0  0  0  0  0
  -29.3878  -20.1568   21.5924 C   0  0  0  0  0  0  0  0  0  0  0  0
  -29.7960  -18.2442   20.0762 C   0  0  0  0  0  0  0  0  0  0  0  0
  -25.9223  -30.1123   22.1636 C   0  0  1  0  0  0  0  0  0  0  0  0
  -22.4056  -28.7285   21.7743 C   0  0  1  0  0  0  0  0  0  0  0  0
  -29.7735  -17.2719   21.2727 C   0  0  2  0  0  0  0  0  0  0  0  0
  -16.2803  -25.0852   24.8091 C   0  0  0  0  0  0  0  0  0  0  0  0
  -22.6302  -26.6309   25.8865 C   0  0  0  0  0  0  0  0  0  0  0  0
  -20.6020  -25.3159   26.5387 C   0  0  0  0  0  0  0  0  0  0  0  0
  -20.5428  -27.8090   26.6003 C   0  0  0  0  0  0  0  0  0  0  0  0
  -16.7672  -26.0599   21.1637 C   0  0  0  0  0  0  0  0  0  0  0  0
  -20.5428  -26.6240   24.3670 C   0  0  1  0  0  0  0  0  0  0  0  0
  -16.9032  -25.8453   23.6485 C   0  0  2  0  0  0  0  0  0  0  0  0
  -21.0902  -26.5928   25.8219 C   0  0  0  0  0  0  0  0  0  0  0  0
  -28.0186  -15.5672   20.9606 N   0  0  0  0  0  0  0  0  0  0  0  0
  -29.3213  -15.8825   20.8626 N   0  0  0  0  0  0  0  0  0  0  0  0
  -21.7585  -27.5988   22.4446 N   0  0  0  0  0  0  0  0  0  0  0  0
  -30.1996  -19.5903   20.5147 N   0  0  0  0  0  0  0  0  0  0  0  0
  -30.4108  -17.8152   14.6971 N   0  0  0  0  0  0  0  0  0  0  0  0
  -27.8152  -18.9168   14.9333 N   0  0  0  0  0  0  0  0  0  0  0  0
  -31.4316  -15.0158   20.2252 N   0  0  0  0  0  0  0  0  0  0  0  0
  -28.6181  -11.5635   19.4759 N   0  0  0  0  0  0  0  0  0  0  0  0
  -27.2211  -20.6260   17.1154 N   0  0  0  0  0  0  0  0  0  0  0  0
  -24.5454  -29.8594   21.7967 N   0  0  0  0  0  0  0  0  0  0  0  0
  -19.0868  -26.6162   24.2761 N   0  0  0  0  0  0  0  0  0  0  0  0
  -31.7821  -20.1131   18.7804 N   0  0  0  0  0  0  0  0  0  0  0  0
  -16.2654  -25.3788   22.3849 N   0  3  0  0  0  0  0  0  0  0  0  0
  -30.8084  -12.2355   19.3779 O   0  0  0  0  0  0  0  0  0  0  0  0
  -27.4240  -21.8980   19.0738 O   0  0  0  0  0  0  0  0  0  0  0  0
  -24.2113  -27.9435   23.0774 O   0  0  0  0  0  0  0  0  0  0  0  0
  -20.7081  -28.9640   24.0158 O   0  0  0  0  0  0  0  0  0  0  0  0
  -18.9218  -24.6861   23.0015 O   0  0  0  0  0  0  0  0  0  0  0  0
  -32.0778  -20.8668   20.9573 O   0  0  0  0  0  0  0  0  0  0  0  0
  -24.4987  -20.9696   17.3028 O   0  0  0  0  0  0  0  0  0  0  0  0
  -23.1154  -11.5511   20.3456 O   0  0  0  0  0  0  0  0  0  0  0  0
  -23.6407  -23.4954   18.2407 O   0  0  0  0  0  0  0  0  0  1  0  0
  -23.0231   -6.3781   22.2525 F   0  0  0  0  0  0  0  0  0  0  0  0
  -21.4688  -10.8447   22.4508 F   0  0  0  0  0  0  0  0  0  0  0  0
  1  2  1  0  0  0  0
  1  5  2  0  0  0  0
  2  6  2  0  0  0  0
  3  8  2  0  0  0  0
  3 17  1  0  0  0  0
  4  9  1  0  0  0  0
  4 17  2  0  0  0  0
  5 19  1  0  0  0  0
  6 21  1  0  0  0  0
  7 10  2  0  0  0  0
  7 20  1  0  0  0  0
  8 27  1  0  0  0  0
  9 27  2  0  0  0  0
 10 28  1  0  0  0  0
 11 12  2  0  0  0  0
 11 29  1  0  0  0  0
 12 30  1  0  0  0  0
 13 22  1  0  0  0  0
 13 28  2  0  0  0  0
 14 23  1  0  0  0  0
 14 24  2  0  0  0  0
 15 23  2  0  0  0  0
 15 25  1  0  0  0  0
 16 30  2  0  0  0  0
 16 31  1  0  0  0  0
 17 32  1  0  0  0  0
 18 32  1  0  0  0  0
 18 33  2  0  0  0  0
 18 37  1  0  0  0  0
 19 21  2  0  0  0  0
 19 44  1  0  0  0  0
 20 22  2  0  0  0  0
 20 45  1  0  0  0  0
 21 53  1  0  0  0  0
 22 46  1  0  0  0  0
 23 75  1  0  0  0  0
 24 26  1  0  0  0  0
 24 68  1  0  0  0  0
 25 26  2  0  0  0  0
 25 72  1  0  0  0  0
 26 69  1  0  0  0  0
 27 84  1  0  0  0  0
 28 85  1  0  0  0  0
 29 31  2  0  0  0  0
 29 84  1  0  0  0  0
 30 86  1  0  0  0  0
 31 87  1  0  0  0  0
 32 64  2  0  0  0  0
 33 65  1  0  0  0  0
 33 70  1  0  0  0  0
 34 35  2  0  0  0  0
 35 75  1  0  0  0  0
 36 38  2  0  0  0  0
 36 85  1  0  0  0  0
 37 71  1  0  0  0  0
 37 77  2  0  0  0  0
 38 39  1  0  0  0  0
 38 83  1  0  0  0  0
 39 72  1  0  0  0  0
 39 78  2  0  0  0  0
 40 54  1  0  0  0  0
 40 73  1  0  0  0  0
 40 79  2  0  0  0  0
 41 61  1  0  0  0  0
 41 66  1  0  0  0  0
 41 80  2  0  0  0  0
 42 62  1  0  0  0  0
 42 74  1  0  0  0  0
 42 81  2  0  0  0  0
 43 67  1  0  0  0  0
 43 75  1  0  0  0  0
 43 82  2  0  0  0  0
 44 47  1  0  0  0  0
 45 54  1  0  0  0  0
 46 66  1  0  0  0  0
 47 49  1  0  0  0  0
 48 50  1  0  0  0  0
 48 51  1  0  0  0  0
 49 53  1  0  0  0  0
 50 55  1  0  0  0  0
 51 67  1  0  0  0  0
 52 55  1  0  0  0  0
 52 67  1  0  0  0  0
 53 73  1  0  0  0  0
 54 66  1  0  0  0  0
 55 65  1  0  0  0  0
 56 62  1  0  0  0  0
 57 63  1  0  0  0  0
 58 63  1  0  0  0  0
 59 63  1  0  0  0  0
 60 76  1  0  0  0  0
 61 63  1  0  0  0  0
 61 74  1  0  0  0  0
 62 76  1  0  0  0  0
 64 65  1  0  0  0  0
M  CHG  1  76   1
M  ISO  4  36 101  43 100  75 100  85 101
M  END
> <Batch ID>
0089

> <Smiles>
C=C[100N:0](c1cc(N)c(N)c(NC(=O)C(=O)[101CH2:1][101O:1]c2ccc3c(c2)CN(C(=O)C(NC(=O)C(C)NC)C(C)(C)C)C(C(=O)NC2CCCc4ccccc42)C3)c1)[100C:0](=O)N1CCCC(n2nc(-c3ccc(Oc4ccc(F)cc4F)cc3)c(C(N)=O)c2N)C1

> <Shape>
0.232

> <Color>
0.048

> <Negative vol penalty>
0.000

$$$$

  -OEChem-04052300263D

 86 95  0     1  0  0  0  0  0999 V2000
  -29.3469  -35.8765   20.9881 C   0  0  0  0  0  0  0  0  0  0  0  0
  -29.2552  -34.6812   21.6940 C   0  0  0  0  0  0  0  0  0  0  0  0
  -24.5015   -9.7034   21.1779 C   0  0  0  0  0  0  0  0  0  0  0  0
  -24.9521  -10.6151   23.3695 C   0  0  0  0  0  0  0  0  0  0  0  0
  -28.1874  -36.5519   20.6094 C   0  0  0  0  0  0  0  0  0  0  0  0
  -28.0038  -34.1611   22.0226 C   0  0  0  0  0  0  0  0  0  0  0  0
  -27.6756  -29.1852   21.1412 C   0  0  0  0  0  0  0  0  0  0  0  0
  -30.0850  -21.0889   22.2987 C   0  0  0  0  0  0  0  0  0  0  0  0
  -29.9510  -19.8408   21.6907 C   0  0  0  0  0  0  0  0  0  0  0  0
  -24.2263   -8.4619   21.7510 C   0  0  0  0  0  0  0  0  0  0  0  0
  -24.6768   -9.3736   23.9425 C   0  0  0  0  0  0  0  0  0  0  0  0
  -28.2665  -28.3331   22.0732 C   0  0  0  0  0  0  0  0  0  0  0  0
  -23.0542   -5.1458   22.6700 C   0  0  0  0  0  0  0  0  0  0  0  0
  -21.9238   -4.4616   22.2232 C   0  0  0  0  0  0  0  0  0  0  0  0
  -26.1043  -27.9255   23.0622 C   0  0  0  0  0  0  0  0  0  0  0  0
  -27.6965  -21.1730   22.6525 C   0  0  0  0  0  0  0  0  0  0  0  0
  -20.5286   -6.3005   22.9368 C   0  0  0  0  0  0  0  0  0  0  0  0
  -24.8645  -10.7801   21.9872 C   0  0  0  0  0  0  0  0  0  0  0  0
  -24.2378  -13.1066   21.1491 C   0  0  0  0  0  0  0  0  0  0  0  0
  -26.9211  -36.0349   20.9251 C   0  0  0  0  0  0  0  0  0  0  0  0
  -26.2939  -29.4227   21.1695 C   0  0  0  0  0  0  0  0  0  0  0  0
  -26.8263  -34.8309   21.6490 C   0  0  0  0  0  0  0  0  0  0  0  0
  -25.4980  -28.7790   22.1279 C   0  0  0  0  0  0  0  0  0  0  0  0
  -28.9578  -21.7551   22.7796 C   0  0  0  0  0  0  0  0  0  0  0  0
  -28.6898  -19.2587   21.5635 C   0  0  0  0  0  0  0  0  0  0  0  0
  -27.5625  -19.9249   22.0444 C   0  0  0  0  0  0  0  0  0  0  0  0
  -24.3139   -8.2970   23.1333 C   0  0  0  0  0  0  0  0  0  0  0  0
  -27.4812  -27.7054   23.0357 C   0  0  0  0  0  0  0  0  0  0  0  0
  -22.9218   -6.4073   23.2504 C   0  0  0  0  0  0  0  0  0  0  0  0
  -20.6611   -5.0389   22.3565 C   0  0  0  0  0  0  0  0  0  0  0  0
  -21.6590   -6.9847   23.3837 C   0  0  0  0  0  0  0  0  0  0  0  0
  -25.1495  -12.0627   21.3957 C   0  0  0  0  0  0  0  0  0  0  0  0
  -24.9980  -14.0993   20.5808 C   0  0  0  0  0  0  0  0  0  0  0  0
  -30.1825  -23.7740   23.6320 C   0  0  0  0  0  0  0  0  0  0  0  0
  -28.1756  -23.8455   23.9291 C   0  0  0  0  0  0  0  0  0  0  0  0
  -22.8296  -13.1730   21.4105 C   0  0  0  0  0  0  0  0  0  0  0  0
  -24.4673  -31.9873   21.6055 C   0  0  0  0  0  0  0  0  0  0  0  0
  -22.0732  -29.9260   20.8696 C   0  0  0  0  0  0  0  0  0  0  0  0
  -20.9666  -26.7005   20.7337 C   0  0  0  0  0  0  0  0  0  0  0  0
  -29.6114  -17.2127   20.4187 C   0  0  0  0  0  0  0  0  0  0  0  0
  -25.6967  -36.8248   20.5357 C   0  0  0  0  0  0  0  0  0  0  0  0
  -25.6681  -30.3237   20.1405 C   0  0  0  0  0  0  0  0  0  0  0  0
  -24.0072  -28.9848   22.1883 C   0  0  0  0  0  0  0  0  0  0  0  0
  -24.4044  -36.0147   20.5964 C   0  0  0  0  0  0  0  0  0  0  0  0
  -29.7521  -14.0221   18.8447 C   0  0  0  0  0  0  0  0  0  0  0  0
  -24.3306  -35.2242   21.8989 C   0  0  0  0  0  0  0  0  0  0  0  0
  -28.4923  -13.3138   19.3477 C   0  0  0  0  0  0  0  0  0  0  0  0
  -30.3786  -14.9011   19.9257 C   0  0  0  0  0  0  0  0  0  0  0  0
  -28.2031  -15.1561   21.0534 C   0  0  0  0  0  0  0  0  0  0  0  0
  -25.4867  -34.2221   22.0024 C   0  0  1  0  0  0  0  0  0  0  0  0
  -24.3247  -30.8947   20.5840 C   0  0  1  0  0  0  0  0  0  0  0  0
  -27.5001  -14.3097   19.9796 C   0  0  2  0  0  0  0  0  0  0  0  0
  -29.2918  -24.8557   24.2903 C   0  0  0  0  0  0  0  0  0  0  0  0
  -29.5207  -25.0468   25.7834 C   0  0  0  0  0  0  0  0  0  0  0  0
  -18.9529  -25.3328   20.1240 C   0  0  0  0  0  0  0  0  0  0  0  0
  -20.7149  -30.7722   23.4675 C   0  0  0  0  0  0  0  0  0  0  0  0
  -19.2546  -28.7470   23.2822 C   0  0  0  0  0  0  0  0  0  0  0  0
  -19.1688  -30.5099   21.5194 C   0  0  0  0  0  0  0  0  0  0  0  0
  -22.4503  -25.2424   18.6286 C   0  0  0  0  0  0  0  0  0  0  0  0
  -29.2268  -26.1697   23.5363 C   0  0  0  0  0  0  0  0  0  1  0  0
  -21.1863  -28.9924   21.6575 C   0  0  1  0  0  0  0  0  0  0  0  0
  -20.2672  -25.9210   19.6347 C   0  0  2  0  0  0  0  0  0  0  0  0
  -20.1095  -29.7528   22.4820 C   0  0  0  0  0  0  0  0  0  0  0  0
  -26.3938  -12.3641   21.0151 N   0  0  0  0  0  0  0  0  0  0  0  0
  -26.2693  -13.6087   20.5234 N   0  0  0  0  0  0  0  0  0  0  0  0
  -29.0903  -22.9853   23.3791 N   0  0  0  0  0  0  0  0  0  0  0  0
  -23.4431  -29.8798   21.1645 N   0  0  0  0  0  0  0  0  0  0  0  0
  -29.3811  -15.8218   20.4754 N   0  0  0  0  0  0  0  0  0  0  0  0
  -26.2756  -19.3534   21.9263 N   0  0  0  0  0  0  0  0  0  0  0  0
  -24.6964  -15.3353   20.1294 N   0  0  0  0  0  0  0  0  0  0  0  0
  -22.2063  -12.0642   21.9991 N   0  0  0  0  0  0  0  0  0  0  0  0
  -28.5789  -17.9899   20.9425 N   0  0  0  0  0  0  0  0  0  0  0  0
  -25.2246  -33.0614   21.1786 N   0  0  0  0  0  0  0  0  0  0  0  0
  -20.6407  -28.0398   20.6967 N   0  0  0  0  0  0  0  0  0  0  0  0
  -21.1333  -24.8053   19.1593 N   0  3  0  0  0  0  0  0  0  0  0  0
  -31.3639  -23.6343   23.4080 O   0  0  0  0  0  0  0  0  0  0  0  0
  -26.9733  -23.7906   24.0580 O   0  0  0  0  0  0  0  0  0  0  0  0
  -22.1413  -14.1793   21.1154 O   0  0  0  0  0  0  0  0  0  0  0  0
  -23.9287  -31.8656   22.6995 O   0  0  0  0  0  0  0  0  0  0  0  0
  -21.5699  -30.6638   20.0187 O   0  0  0  0  0  0  0  0  0  0  0  0
  -21.7233  -26.1734   21.5461 O   0  0  0  0  0  0  0  0  0  0  0  0
  -30.6362  -17.6808   19.9160 O   0  0  0  0  0  0  0  0  0  0  0  0
  -24.0451   -7.0857   23.6928 O   0  0  0  0  0  0  0  0  0  0  0  0
  -28.0555  -26.8738   23.9470 O   0  0  0  0  0  0  0  0  0  1  0  0
  -19.5758   -4.3824   21.9260 F   0  0  0  0  0  0  0  0  0  0  0  0
  -21.5257   -8.1968   23.9393 F   0  0  0  0  0  0  0  0  0  0  0  0
  1  2  1  0  0  0  0
  1  5  2  0  0  0  0
  2  6  2  0  0  0  0
  3 10  2  0  0  0  0
  3 18  1  0  0  0  0
  4 11  1  0  0  0  0
  4 18  2  0  0  0  0
  5 20  1  0  0  0  0
  6 22  1  0  0  0  0
  7 12  2  0  0  0  0
  7 21  1  0  0  0  0
  8  9  2  0  0  0  0
  8 24  1  0  0  0  0
  9 25  1  0  0  0  0
 10 27  1  0  0  0  0
 11 27  2  0  0  0  0
 12 28  1  0  0  0  0
 13 14  2  0  0  0  0
 13 29  1  0  0  0  0
 14 30  1  0  0  0  0
 15 23  1  0  0  0  0
 15 28  2  0  0  0  0
 16 24  2  0  0  0  0
 16 26  1  0  0  0  0
 17 30  2  0  0  0  0
 17 31  1  0  0  0  0
 18 32  1  0  0  0  0
 19 32  1  0  0  0  0
 19 33  2  0  0  0  0
 19 36  1  0  0  0  0
 20 22  2  0  0  0  0
 20 41  1  0  0  0  0
 21 23  2  0  0  0  0
 21 42  1  0  0  0  0
 22 50  1  0  0  0  0
 23 43  1  0  0  0  0
 24 66  1  0  0  0  0
 25 26  2  0  0  0  0
 25 72  1  0  0  0  0
 26 69  1  0  0  0  0
 27 83  1  0  0  0  0
 28 84  1  0  0  0  0
 29 31  2  0  0  0  0
 29 83  1  0  0  0  0
 30 85  1  0  0  0  0
 31 86  1  0  0  0  0
 32 64  2  0  0  0  0
 33 65  1  0  0  0  0
 33 70  1  0  0  0  0
 34 53  1  0  0  0  0
 34 66  1  0  0  0  0
 34 76  2  0  0  0  0
 35 53  1  0  0  0  0
 35 66  1  0  0  0  0
 35 77  2  0  0  0  0
 36 71  1  0  0  0  0
 36 78  2  0  0  0  0
 37 51  1  0  0  0  0
 37 73  1  0  0  0  0
 37 79  2  0  0  0  0
 38 61  1  0  0  0  0
 38 67  1  0  0  0  0
 38 80  2  0  0  0  0
 39 62  1  0  0  0  0
 39 74  1  0  0  0  0
 39 81  2  0  0  0  0
 40 68  1  0  0  0  0
 40 72  1  0  0  0  0
 40 82  2  0  0  0  0
 41 44  1  0  0  0  0
 42 51  1  0  0  0  0
 43 67  1  0  0  0  0
 44 46  1  0  0  0  0
 45 47  1  0  0  0  0
 45 48  1  0  0  0  0
 46 50  1  0  0  0  0
 47 52  1  0  0  0  0
 48 68  1  0  0  0  0
 49 52  1  0  0  0  0
 49 68  1  0  0  0  0
 50 73  1  0  0  0  0
 51 67  1  0  0  0  0
 52 65  1  0  0  0  0
 53 54  1  0  0  0  0
 53 60  1  0  0  0  0
 55 62  1  0  0  0  0
 56 63  1  0  0  0  0
 57 63  1  0  0  0  0
 58 63  1  0  0  0  0
 59 75  1  0  0  0  0
 60 84  1  0  0  0  0
 61 63  1  0  0  0  0
 61 74  1  0  0  0  0
 62 75  1  0  0  0  0
 64 65  1  0  0  0  0
M  CHG  1  75   1
M  ISO  4  40 100  60 101  72 100  84 101
M  END
> <Batch ID>
0089

> <Smiles>
CNC(C)C(=O)NC(C(=O)N1Cc2cc([101O:1][101CH2:1]C3(C)C(=O)N(c4ccc([100NH:0][100C:0](=O)N5CCCC(n6nc(-c7ccc(Oc8ccc(F)cc8F)cc7)c(C(N)=O)c6N)C5)c(N)c4)C3=O)ccc2CC1C(=O)NC1CCCc2ccccc21)C(C)(C)C

> <Shape>
0.259

> <Color>
0.111

> <Negative vol penalty>
0.000

$$$$
