
  -OEChem-04052300293D

 82 91  0     1  0  0  0  0  0999 V2000
  -32.1236  -33.0225   24.5239 C   0  0  0  0  0  0  0  0  0  0  0  0
  -31.7553  -31.9362   23.7366 C   0  0  0  0  0  0  0  0  0  0  0  0
  -24.7606   -8.5600   21.4386 C   0  0  0  0  0  0  0  0  0  0  0  0
  -23.0663  -10.2162   20.9662 C   0  0  0  0  0  0  0  0  0  0  0  0
  -31.2435  -33.5141   25.4870 C   0  0  0  0  0  0  0  0  0  0  0  0
  -30.5070  -31.3403   23.9127 C   0  0  0  0  0  0  0  0  0  0  0  0
  -26.9699  -28.8534   19.5757 C   0  0  0  0  0  0  0  0  0  0  0  0
  -23.9108   -7.9546   22.3642 C   0  0  0  0  0  0  0  0  0  0  0  0
  -22.2164   -9.6108   21.8918 C   0  0  0  0  0  0  0  0  0  0  0  0
  -26.7742  -27.5350   19.1668 C   0  0  0  0  0  0  0  0  0  0  0  0
  -22.0526   -5.7599   24.5882 C   0  0  0  0  0  0  0  0  0  0  0  0
  -21.9479   -4.3694   24.5598 C   0  0  0  0  0  0  0  0  0  0  0  0
  -24.8260  -27.3915   20.5822 C   0  0  0  0  0  0  0  0  0  0  0  0
  -27.1869  -19.0581   19.2126 C   0  0  0  0  0  0  0  0  0  0  0  0
  -21.1456   -4.4763   22.2833 C   0  0  0  0  0  0  0  0  0  0  0  0
  -25.1585  -18.1585   18.9826 C   0  0  0  0  0  0  0  0  0  0  0  0
  -24.3385   -9.6909   20.7396 C   0  0  0  0  0  0  0  0  0  0  0  0
  -25.3191  -10.0307   18.4093 C   0  0  0  0  0  0  0  0  0  0  0  0
  -29.9800  -32.9300   25.6684 C   0  0  0  0  0  0  0  0  0  0  0  0
  -26.0999  -29.4482   20.5008 C   0  0  0  0  0  0  0  0  0  0  0  0
  -29.6097  -31.8237   24.8801 C   0  0  0  0  0  0  0  0  0  0  0  0
  -25.0113  -28.7184   20.9993 C   0  0  0  0  0  0  0  0  0  0  0  0
  -26.4654  -17.8419   19.2719 C   0  0  0  0  0  0  0  0  0  0  0  0
  -22.6387   -8.4799   22.5908 C   0  0  0  0  0  0  0  0  0  0  0  0
  -25.7038  -26.8028   19.6723 C   0  0  0  0  0  0  0  0  0  0  0  0
  -21.7038   -6.5088   23.4642 C   0  0  0  0  0  0  0  0  0  0  0  0
  -21.4945   -3.7275   23.4073 C   0  0  0  0  0  0  0  0  0  0  0  0
  -21.2503   -5.8670   22.3118 C   0  0  0  0  0  0  0  0  0  0  0  0
  -25.2161  -10.3171   19.7838 C   0  0  0  0  0  0  0  0  0  0  0  0
  -26.2867  -10.8910   17.9509 C   0  0  0  0  0  0  0  0  0  0  0  0
  -26.2694  -20.0312   18.8911 C   0  0  0  0  0  0  0  0  0  0  0  0
  -26.4239  -23.3136   19.1730 C   0  0  0  0  0  0  0  0  0  0  0  0
  -27.3184  -22.1640   19.3134 C   0  0  0  0  0  0  0  0  0  0  0  0
  -26.5053  -24.6107   19.5206 C   0  0  0  0  0  0  0  0  0  1  0  0
  -24.6040   -9.0727   17.6177 C   0  0  0  0  0  0  0  0  0  0  0  0
  -26.4198  -30.6629   23.4208 C   0  0  0  0  0  0  0  0  0  0  0  0
  -23.3223  -31.5200   22.9809 C   0  0  0  0  0  0  0  0  0  0  0  0
  -20.3627  -30.9648   21.3750 C   0  0  0  0  0  0  0  0  0  0  0  0
  -28.2746  -16.1916   19.8632 C   0  0  0  0  0  0  0  0  0  0  0  0
  -29.0814  -33.4665   26.7545 C   0  0  0  0  0  0  0  0  0  0  0  0
  -26.3092  -30.8800   20.9115 C   0  0  0  0  0  0  0  0  0  0  0  0
  -24.0369  -29.3175   21.9792 C   0  0  0  0  0  0  0  0  0  0  0  0
  -25.4153  -22.4119   18.4989 C   0  0  0  0  0  0  0  0  0  0  0  0
  -27.6293  -33.0147   26.6220 C   0  0  0  0  0  0  0  0  0  0  0  0
  -30.2038  -13.2353   19.3984 C   0  0  0  0  0  0  0  0  0  0  0  0
  -27.5595  -31.5161   26.3457 C   0  0  0  0  0  0  0  0  0  0  0  0
  -29.1527  -12.1262   19.3133 C   0  0  0  0  0  0  0  0  0  0  0  0
  -29.8095  -14.3141   20.4056 C   0  0  0  0  0  0  0  0  0  0  0  0
  -27.4213  -13.7792   20.1238 C   0  0  0  0  0  0  0  0  0  0  0  0
  -28.2545  -31.1659   25.0244 C   0  0  1  0  0  0  0  0  0  0  0  0
  -25.6599  -31.2188   22.2498 C   0  0  1  0  0  0  0  0  0  0  0  0
  -27.7433  -12.7025   19.0746 C   0  0  2  0  0  0  0  0  0  0  0  0
  -18.0004  -31.8029   21.2526 C   0  0  0  0  0  0  0  0  0  0  0  0
  -22.6902  -30.1159   25.6150 C   0  0  0  0  0  0  0  0  0  0  0  0
  -20.2706  -30.1508   24.9726 C   0  0  0  0  0  0  0  0  0  0  0  0
  -21.5076  -32.2945   25.2842 C   0  0  0  0  0  0  0  0  0  0  0  0
  -20.6450  -31.6895   18.5195 C   0  0  0  0  0  0  0  0  0  0  0  0
  -21.9854  -30.8723   23.2492 C   0  0  1  0  0  0  0  0  0  0  0  0
  -19.4033  -31.9107   20.6754 C   0  0  2  0  0  0  0  0  0  0  0  0
  -21.6328  -30.8462   24.7633 C   0  0  0  0  0  0  0  0  0  0  0  0
  -26.0517  -11.2836   20.1731 N   0  0  0  0  0  0  0  0  0  0  0  0
  -26.6890  -11.6120   19.0364 N   0  0  0  0  0  0  0  0  0  0  0  0
  -26.4041  -21.3685   18.7049 N   0  0  0  0  0  0  0  0  0  0  0  0
  -24.2877  -30.7187   22.3549 N   0  0  0  0  0  0  0  0  0  0  0  0
  -28.4649  -14.8163   20.1145 N   0  0  0  0  0  0  0  0  0  0  0  0
  -26.8242  -11.0934   16.7292 N   0  0  0  0  0  0  0  0  0  0  0  0
  -23.6439   -8.2691   18.2474 N   0  0  0  0  0  0  0  0  0  0  0  0
  -26.9592  -16.5468   19.5662 N   0  0  0  0  0  0  0  0  0  0  0  0
  -27.4056  -31.5032   23.9019 N   0  0  0  0  0  0  0  0  0  0  0  0
  -21.0151  -31.5811   22.4218 N   0  0  0  0  0  0  0  0  0  0  0  0
  -19.3378  -31.5988   19.2196 N   0  3  0  0  0  0  0  0  0  0  0  0
  -28.3951  -21.9782   19.8418 O   0  0  0  0  0  0  0  0  0  0  0  0
  -24.8220   -8.9222   16.3916 O   0  0  0  0  0  0  0  0  0  0  0  0
  -26.1319  -29.5543   23.8565 O   0  0  0  0  0  0  0  0  0  0  0  0
  -23.5011  -32.6959   23.3079 O   0  0  0  0  0  0  0  0  0  0  0  0
  -20.5151  -29.7951   21.0299 O   0  0  0  0  0  0  0  0  0  0  0  0
  -29.2143  -16.9907   19.8813 O   0  0  0  0  0  0  0  0  0  0  0  0
  -25.0306  -19.4911   18.7492 O   0  0  0  0  0  0  0  0  0  0  0  0
  -21.8090   -7.8893   23.4938 O   0  0  0  0  0  0  0  0  0  0  0  0
  -25.5109  -25.5156   19.2753 O   0  0  0  0  0  0  0  0  0  1  0  0
  -21.3954   -2.3920   23.3796 F   0  0  0  0  0  0  0  0  0  0  0  0
  -20.9148   -6.5810   21.2285 F   0  0  0  0  0  0  0  0  0  0  0  0
  1  2  1  0  0  0  0
  1  5  2  0  0  0  0
  2  6  2  0  0  0  0
  3  8  2  0  0  0  0
  3 17  1  0  0  0  0
  4  9  1  0  0  0  0
  4 17  2  0  0  0  0
  5 19  1  0  0  0  0
  6 21  1  0  0  0  0
  7 10  2  0  0  0  0
  7 20  1  0  0  0  0
  8 24  1  0  0  0  0
  9 24  2  0  0  0  0
 10 25  1  0  0  0  0
 11 12  2  0  0  0  0
 11 26  1  0  0  0  0
 12 27  1  0  0  0  0
 13 22  1  0  0  0  0
 13 25  2  0  0  0  0
 14 23  1  0  0  0  0
 14 31  2  0  0  0  0
 15 27  2  0  0  0  0
 15 28  1  0  0  0  0
 16 23  2  0  0  0  0
 16 78  1  0  0  0  0
 17 29  1  0  0  0  0
 18 29  1  0  0  0  0
 18 30  2  0  0  0  0
 18 35  1  0  0  0  0
 19 21  2  0  0  0  0
 19 40  1  0  0  0  0
 20 22  2  0  0  0  0
 20 41  1  0  0  0  0
 21 50  1  0  0  0  0
 22 42  1  0  0  0  0
 23 68  1  0  0  0  0
 24 79  1  0  0  0  0
 25 80  1  0  0  0  0
 26 28  2  0  0  0  0
 26 79  1  0  0  0  0
 27 81  1  0  0  0  0
 28 82  1  0  0  0  0
 29 61  2  0  0  0  0
 30 62  1  0  0  0  0
 30 66  1  0  0  0  0
 31 63  1  0  0  0  0
 31 78  1  0  0  0  0
 32 33  1  0  0  0  0
 32 34  2  0  0  0  0
 32 43  1  0  0  0  0
 33 63  1  0  0  0  0
 33 72  2  0  0  0  0
 34 80  1  0  0  0  0
 35 67  1  0  0  0  0
 35 73  2  0  0  0  0
 36 51  1  0  0  0  0
 36 69  1  0  0  0  0
 36 74  2  0  0  0  0
 37 58  1  0  0  0  0
 37 64  1  0  0  0  0
 37 75  2  0  0  0  0
 38 59  1  0  0  0  0
 38 70  1  0  0  0  0
 38 76  2  0  0  0  0
 39 65  1  0  0  0  0
 39 68  1  0  0  0  0
 39 77  2  0  0  0  0
 40 44  1  0  0  0  0
 41 51  1  0  0  0  0
 42 64  1  0  0  0  0
 43 63  1  0  0  0  0
 44 46  1  0  0  0  0
 45 47  1  0  0  0  0
 45 48  1  0  0  0  0
 46 50  1  0  0  0  0
 47 52  1  0  0  0  0
 48 65  1  0  0  0  0
 49 52  1  0  0  0  0
 49 65  1  0  0  0  0
 50 69  1  0  0  0  0
 51 64  1  0  0  0  0
 52 62  1  0  0  0  0
 53 59  1  0  0  0  0
 54 60  1  0  0  0  0
 55 60  1  0  0  0  0
 56 60  1  0  0  0  0
 57 71  1  0  0  0  0
 58 60  1  0  0  0  0
 58 70  1  0  0  0  0
 59 71  1  0  0  0  0
 61 62  1  0  0  0  0
M  CHG  1  71   1
M  ISO  4  34 101  39 100  68 100  80 101
M  END
> <Batch ID>
0090

> <Smiles>
CNC(C)C(=O)NC(C(=O)N1Cc2cc([101O:1][101CH:1]=C3CN(c4cc([100NH:0][100C:0](=O)N5CCCC(n6nc(-c7ccc(Oc8ccc(F)cc8F)cc7)c(C(N)=O)c6N)C5)co4)C3=O)ccc2CC1C(=O)NC1CCCc2ccccc21)C(C)(C)C

> <Shape>
0.257

> <Color>
0.105

> <Negative vol penalty>
0.000

$$$$

  -OEChem-04052300293D

 87 96  0     1  0  0  0  0  0999 V2000
  -22.5126  -24.0430   30.1703 C   0  0  0  0  0  0  0  0  0  0  0  0
  -23.3150  -23.4124   29.2249 C   0  0  0  0  0  0  0  0  0  0  0  0
  -26.8386  -13.1102   22.6483 C   0  0  0  0  0  0  0  0  0  0  0  0
  -26.2621  -12.8982   20.3117 C   0  0  0  0  0  0  0  0  0  0  0  0
  -30.4112  -24.0433   17.5632 C   0  0  0  0  0  0  0  0  0  0  0  0
  -28.0856  -24.5813   17.1896 C   0  0  0  0  0  0  0  0  0  0  0  0
  -21.5952  -25.0130   29.7687 C   0  0  0  0  0  0  0  0  0  0  0  0
  -23.1997  -23.7507   27.8770 C   0  0  0  0  0  0  0  0  0  0  0  0
  -28.6415  -26.2655   22.8681 C   0  0  0  0  0  0  0  0  0  0  0  0
  -30.7045  -25.4008   17.6920 C   0  0  0  0  0  0  0  0  0  0  0  0
  -28.3790  -25.9388   17.3185 C   0  0  0  0  0  0  0  0  0  0  0  0
  -25.6774  -12.4209   22.9974 C   0  0  0  0  0  0  0  0  0  0  0  0
  -25.1009  -12.2088   20.6608 C   0  0  0  0  0  0  0  0  0  0  0  0
  -29.4822  -26.8665   21.9310 C   0  0  0  0  0  0  0  0  0  0  0  0
  -24.2559   -9.0786   21.6142 C   0  0  0  0  0  0  0  0  0  0  0  0
  -23.9465   -7.9260   20.8921 C   0  0  0  0  0  0  0  0  0  0  0  0
  -27.5707  -27.8799   20.8505 C   0  0  0  0  0  0  0  0  0  0  0  0
  -21.8585   -8.9224   20.1961 C   0  0  0  0  0  0  0  0  0  0  0  0
  -27.1310  -13.3490   21.3055 C   0  0  0  0  0  0  0  0  0  0  0  0
  -29.1017  -23.6335   17.3119 C   0  0  0  0  0  0  0  0  0  0  0  0
  -29.5990  -13.5117   20.6810 C   0  0  0  0  0  0  0  0  0  0  0  0
  -21.4753  -25.3703   28.4164 C   0  0  0  0  0  0  0  0  0  0  0  0
  -27.2620  -26.4821   22.8092 C   0  0  0  0  0  0  0  0  0  0  0  0
  -22.2789  -24.7254   27.4568 C   0  0  0  0  0  0  0  0  0  0  0  0
  -26.7249  -27.2906   21.7939 C   0  0  0  0  0  0  0  0  0  0  0  0
  -29.6885  -26.3486   17.5697 C   0  0  0  0  0  0  0  0  0  0  0  0
  -24.8085  -11.9701   22.0037 C   0  0  0  0  0  0  0  0  0  0  0  0
  -28.9480  -27.6715   20.9245 C   0  0  0  0  0  0  0  0  0  0  0  0
  -23.3665  -10.1532   21.6272 C   0  0  0  0  0  0  0  0  0  0  0  0
  -22.7479   -7.8479   20.1831 C   0  0  0  0  0  0  0  0  0  0  0  0
  -22.1679  -10.0751   20.9182 C   0  0  0  0  0  0  0  0  0  0  0  0
  -28.3301  -14.0616   20.9443 C   0  0  0  0  0  0  0  0  0  0  0  0
  -30.3888  -14.5962   20.3868 C   0  0  0  0  0  0  0  0  0  0  0  0
  -30.2150  -30.4973   17.5928 C   0  0  0  0  0  0  0  0  0  0  0  0
  -29.2660  -29.9927   18.4021 C   0  0  0  0  0  0  0  0  0  0  0  0
  -31.2845  -29.6583   17.0127 C   0  0  0  0  0  0  0  0  0  0  0  0
  -28.7906  -22.1952   17.1755 C   0  0  0  0  0  0  0  0  0  0  0  0
  -30.0256  -12.1430   20.7004 C   0  0  0  0  0  0  0  0  0  0  0  0
  -23.8920  -25.8066   24.3133 C   0  0  0  0  0  0  0  0  0  0  0  0
  -23.9297  -28.7653   23.5039 C   0  0  0  0  0  0  0  0  0  0  0  0
  -24.5264  -32.0607   22.8548 C   0  0  0  0  0  0  0  0  0  0  0  0
  -28.8180  -19.9655   18.2731 C   0  0  0  0  0  0  0  0  0  0  0  0
  -20.4361  -26.3907   28.0246 C   0  0  0  0  0  0  0  0  0  0  0  0
  -26.3130  -25.8054   23.7606 C   0  0  0  0  0  0  0  0  0  0  0  0
  -25.2317  -27.4675   21.7487 C   0  0  0  0  0  0  0  0  0  0  0  0
  -31.3077  -28.1828   17.3048 C   0  0  0  0  0  0  0  0  0  0  0  0
  -20.6394  -26.9595   26.6226 C   0  0  0  0  0  0  0  0  0  0  0  0
  -30.8720  -19.2481   21.2772 C   0  0  0  0  0  0  0  0  0  0  0  0
  -20.9159  -25.8380   25.6264 C   0  0  0  0  0  0  0  0  0  0  0  0
  -30.4914  -17.7958   21.5427 C   0  0  0  0  0  0  0  0  0  0  0  0
  -29.7225  -20.0428   20.6588 C   0  0  0  0  0  0  0  0  0  0  0  0
  -28.7878  -17.9539   19.6898 C   0  0  0  0  0  0  0  0  0  0  0  0
  -22.2005  -25.0828   25.9884 C   0  0  1  0  0  0  0  0  0  0  0  0
  -29.2424  -28.4911   18.7058 C   0  0  1  0  0  0  0  0  0  1  0  0
  -25.0985  -26.6783   24.1244 C   0  0  1  0  0  0  0  0  0  0  0  0
  -29.9568  -17.1392   20.2619 C   0  0  2  0  0  0  0  0  0  0  0  0
  -23.4264  -34.3148   22.9352 C   0  0  0  0  0  0  0  0  0  0  0  0
  -22.3425  -28.0762   20.9920 C   0  0  0  0  0  0  0  0  0  0  0  0
  -22.0471  -30.5299   20.5913 C   0  0  0  0  0  0  0  0  0  0  0  0
  -21.1098  -29.4827   22.6523 C   0  0  0  0  0  0  0  0  0  0  0  0
  -26.5226  -33.0949   24.7796 C   0  0  0  0  0  0  0  0  0  0  0  0
  -23.6106  -29.7916   22.4464 C   0  0  1  0  0  0  0  0  0  0  0  0
  -24.2884  -33.3101   23.6836 C   0  0  2  0  0  0  0  0  0  0  0  0
  -22.3035  -29.4589   21.6730 C   0  0  0  0  0  0  0  0  0  0  0  0
  -28.3104  -15.3920   20.8279 N   0  0  0  0  0  0  0  0  0  0  0  0
  -29.5767  -15.6873   20.4883 N   0  0  0  0  0  0  0  0  0  0  0  0
  -29.9838  -27.7143   17.6990 N   0  0  2  0  0  0  0  0  0  0  0  0
  -24.7085  -27.6709   23.1086 N   0  0  0  0  0  0  0  0  0  0  0  0
  -29.1460  -19.3624   19.4910 N   0  0  0  0  0  0  0  0  0  0  0  0
  -31.6918  -14.7135   20.0540 N   0  0  0  0  0  0  0  0  0  0  0  0
  -29.0856  -11.1547   21.0228 N   0  0  0  0  0  0  0  0  0  0  0  0
  -29.0527  -21.3924   18.2186 N   0  0  0  0  0  0  0  0  0  0  0  0
  -23.3643  -25.8452   25.5898 N   0  0  0  0  0  0  0  0  0  0  0  0
  -23.5916  -31.0835   23.1239 N   0  0  0  0  0  0  0  0  0  0  0  0
  -28.2725  -21.7833   16.0186 N   0  3  0  0  0  0  0  0  0  0  0  0
  -25.5851  -33.9626   24.0211 N   0  3  0  0  0  0  0  0  0  0  0  0
  -28.3150  -30.5957   18.9764 O   0  5  0  0  0  0  0  0  0  0  0  0
  -32.1654  -30.1878   16.3354 O   0  0  0  0  0  0  0  0  0  0  0  0
  -31.2093  -11.8079   20.4557 O   0  0  0  0  0  0  0  0  0  0  0  0
  -23.4688  -25.1480   23.3705 O   0  0  0  0  0  0  0  0  0  0  0  0
  -23.4967  -28.9242   24.6487 O   0  0  0  0  0  0  0  0  0  0  0  0
  -25.4471  -31.9630   22.0465 O   0  0  0  0  0  0  0  0  0  0  0  0
  -28.3369  -19.3939   17.3007 O   0  0  0  0  0  0  0  0  0  0  0  0
  -23.6754  -11.2971   22.3439 O   0  0  0  0  0  0  0  0  0  0  0  0
  -29.7748  -28.2589   20.0156 O   0  0  0  0  0  0  0  0  0  1  0  0
  -22.4517   -6.7416   19.4885 F   0  0  0  0  0  0  0  0  0  0  0  0
  -21.3100  -11.1046   20.9260 F   0  0  0  0  0  0  0  0  0  0  0  0
  1  2  1  0  0  0  0
  1  7  2  0  0  0  0
  2  8  2  0  0  0  0
  3 12  2  0  0  0  0
  3 19  1  0  0  0  0
  4 13  1  0  0  0  0
  4 19  2  0  0  0  0
  5 10  2  0  0  0  0
  5 20  1  0  0  0  0
  6 11  1  0  0  0  0
  6 20  2  0  0  0  0
  7 22  1  0  0  0  0
  8 24  1  0  0  0  0
  9 14  2  0  0  0  0
  9 23  1  0  0  0  0
 10 26  1  0  0  0  0
 11 26  2  0  0  0  0
 12 27  1  0  0  0  0
 13 27  2  0  0  0  0
 14 28  1  0  0  0  0
 15 16  2  0  0  0  0
 15 29  1  0  0  0  0
 16 30  1  0  0  0  0
 17 25  1  0  0  0  0
 17 28  2  0  0  0  0
 18 30  2  0  0  0  0
 18 31  1  0  0  0  0
 19 32  1  0  0  0  0
 20 37  1  0  0  0  0
 21 32  1  0  0  0  0
 21 33  2  0  0  0  0
 21 38  1  0  0  0  0
 22 24  2  0  0  0  0
 22 43  1  0  0  0  0
 23 25  2  0  0  0  0
 23 44  1  0  0  0  0
 24 53  1  0  0  0  0
 25 45  1  0  0  0  0
 26 67  1  0  0  0  0
 27 84  1  0  0  0  0
 28 85  1  0  0  0  0
 29 31  2  0  0  0  0
 29 84  1  0  0  0  0
 30 86  1  0  0  0  0
 31 87  1  0  0  0  0
 32 65  2  0  0  0  0
 33 66  1  0  0  0  0
 33 70  1  0  0  0  0
 34 35  2  0  0  0  0
 34 36  1  0  0  0  0
 35 54  1  0  0  0  0
 35 77  1  0  0  0  0
 36 46  1  0  0  0  0
 36 78  2  0  0  0  0
 37 72  1  0  0  0  0
 37 75  2  0  0  0  0
 38 71  1  0  0  0  0
 38 79  2  0  0  0  0
 39 55  1  0  0  0  0
 39 73  1  0  0  0  0
 39 80  2  0  0  0  0
 40 62  1  0  0  0  0
 40 68  1  0  0  0  0
 40 81  2  0  0  0  0
 41 63  1  0  0  0  0
 41 74  1  0  0  0  0
 41 82  2  0  0  0  0
 42 69  1  0  0  0  0
 42 72  1  0  0  0  0
 42 83  2  0  0  0  0
 43 47  1  0  0  0  0
 44 55  1  0  0  0  0
 45 68  1  0  0  0  0
 46 67  1  0  0  0  0
 47 49  1  0  0  0  0
 48 50  1  0  0  0  0
 48 51  1  0  0  0  0
 49 53  1  0  0  0  0
 50 56  1  0  0  0  0
 51 69  1  0  0  0  0
 52 56  1  0  0  0  0
 52 69  1  0  0  0  0
 53 73  1  0  0  0  0
 54 67  1  0  0  0  0
 54 85  1  0  0  0  0
 55 68  1  0  0  0  0
 56 66  1  0  0  0  0
 57 63  1  0  0  0  0
 58 64  1  0  0  0  0
 59 64  1  0  0  0  0
 60 64  1  0  0  0  0
 61 76  1  0  0  0  0
 62 64  1  0  0  0  0
 62 74  1  0  0  0  0
 63 76  1  0  0  0  0
 65 66  1  0  0  0  0
M  CHG  3  75   1  76   1  77  -1
M  ISO  4  42 100  54 101  72 100  85 101
M  END
> <Batch ID>
0090

> <Smiles>
CNC(C)C(=O)NC(C(=O)N1Cc2cc([101O:1][101CH:1]3C(=O)CC(=O)CN3c3ccc(C(=N)[100NH:0][100C:0](=O)N4CCCC(n5nc(-c6ccc(Oc7ccc(F)cc7F)cc6)c(C(N)=O)c5N)C4)cc3)ccc2CC1C(=O)NC1CCCc2ccccc21)C(C)(C)C

> <Shape>
0.255

> <Color>
0.060

> <Negative vol penalty>
0.000

$$$$

  -OEChem-04052300293D

 85 93  0     1  0  0  0  0  0999 V2000
  -28.1685  -38.2155   24.6391 C   0  0  0  0  0  0  0  0  0  0  0  0
  -28.7554  -37.0923   24.0652 C   0  0  0  0  0  0  0  0  0  0  0  0
  -24.7215   -8.6719   22.7011 C   0  0  0  0  0  0  0  0  0  0  0  0
  -24.7868   -8.4938   20.2926 C   0  0  0  0  0  0  0  0  0  0  0  0
  -27.8703  -19.9012   19.1369 C   0  0  0  0  0  0  0  0  0  0  0  0
  -27.0435  -38.0751   25.4507 C   0  0  0  0  0  0  0  0  0  0  0  0
  -28.2183  -35.8277   24.3036 C   0  0  0  0  0  0  0  0  0  0  0  0
  -28.0205  -31.1158   20.3966 C   0  0  0  0  0  0  0  0  0  0  0  0
  -28.1673  -21.2454   19.3616 C   0  0  0  0  0  0  0  0  0  0  0  0
  -23.4857   -8.0252   22.7155 C   0  0  0  0  0  0  0  0  0  0  0  0
  -23.5510   -7.8470   20.3069 C   0  0  0  0  0  0  0  0  0  0  0  0
  -28.8259  -29.9878   20.2460 C   0  0  0  0  0  0  0  0  0  0  0  0
  -20.4828   -6.0995   23.4146 C   0  0  0  0  0  0  0  0  0  0  0  0
  -20.2883   -5.0933   24.3608 C   0  0  0  0  0  0  0  0  0  0  0  0
  -29.8325  -19.7011   17.7415 C   0  0  0  0  0  0  0  0  0  0  0  0
  -27.2757  -28.7101   21.5815 C   0  0  0  0  0  0  0  0  0  0  0  0
  -22.1334   -3.8505   23.4183 C   0  0  0  0  0  0  0  0  0  0  0  0
  -25.3721   -8.9062   21.4897 C   0  0  0  0  0  0  0  0  0  0  0  0
  -28.7030  -19.1290   18.3268 C   0  0  0  0  0  0  0  0  0  0  0  0
  -27.9213   -8.9786   21.5526 C   0  0  0  0  0  0  0  0  0  0  0  0
  -26.4866  -36.8092   25.6912 C   0  0  0  0  0  0  0  0  0  0  0  0
  -26.8403  -31.0521   21.1511 C   0  0  0  0  0  0  0  0  0  0  0  0
  -27.0856  -35.6701   25.1202 C   0  0  0  0  0  0  0  0  0  0  0  0
  -26.4558  -29.8380   21.7380 C   0  0  0  0  0  0  0  0  0  0  0  0
  -29.2968  -21.8175   18.7763 C   0  0  0  0  0  0  0  0  0  0  0  0
  -30.1294  -21.0453   17.9663 C   0  0  0  0  0  0  0  0  0  0  0  0
  -22.9005   -7.6128   21.5184 C   0  0  0  0  0  0  0  0  0  0  0  0
  -28.4551  -28.7854   20.8408 C   0  0  0  0  0  0  0  0  0  0  0  0
  -21.5025   -5.9813   22.4702 C   0  0  0  0  0  0  0  0  0  0  0  0
  -21.1137   -3.9688   24.3627 C   0  0  0  0  0  0  0  0  0  0  0  0
  -22.3278   -4.8568   22.4721 C   0  0  0  0  0  0  0  0  0  0  0  0
  -26.6484   -9.5747   21.4742 C   0  0  0  0  0  0  0  0  0  0  0  0
  -28.7986  -10.0339   21.4975 C   0  0  0  0  0  0  0  0  0  0  0  0
  -28.3897  -17.7042   18.0903 C   0  0  0  0  0  0  0  0  0  0  0  0
  -28.2786   -7.5946   21.6651 C   0  0  0  0  0  0  0  0  0  0  0  0
  -25.7835  -32.4793   23.7875 C   0  0  0  0  0  0  0  0  0  0  0  0
  -29.3515  -25.4032   19.8818 C   0  0  0  0  0  0  0  0  0  0  0  0
  -23.0341  -30.9181   23.0624 C   0  0  0  0  0  0  0  0  0  0  0  0
  -21.5187  -28.3033   21.4770 C   0  0  0  0  0  0  0  0  0  0  0  0
  -28.0429  -15.4696   19.1212 C   0  0  0  0  0  0  0  0  0  0  0  0
  -25.2982  -36.7023   26.6137 C   0  0  0  0  0  0  0  0  0  0  0  0
  -25.9688  -32.2710   21.2818 C   0  0  0  0  0  0  0  0  0  0  0  0
  -25.1879  -29.7119   22.5411 C   0  0  0  0  0  0  0  0  0  0  0  0
  -24.5673  -35.3659   26.5132 C   0  0  0  0  0  0  0  0  0  0  0  0
  -29.1879  -14.6595   22.5550 C   0  0  0  0  0  0  0  0  0  0  0  0
  -25.5627  -34.2103   26.5328 C   0  0  0  0  0  0  0  0  0  0  0  0
  -28.6992  -13.2213   22.6867 C   0  0  0  0  0  0  0  0  0  0  0  0
  -28.2754  -15.5003   21.6630 C   0  0  0  0  0  0  0  0  0  0  0  0
  -27.5627  -13.4533   20.4474 C   0  0  0  0  0  0  0  0  0  0  0  0
  -26.5174  -34.2840   25.3351 C   0  0  1  0  0  0  0  0  0  0  0  0
  -25.0521  -32.2223   22.5003 C   0  0  1  0  0  0  0  0  0  0  0  0
  -28.5057  -12.5920   21.2997 C   0  0  2  0  0  0  0  0  0  0  0  0
  -19.2639  -27.2696   21.0967 C   0  0  0  0  0  0  0  0  0  0  0  0
  -23.0820  -29.7784   25.8924 C   0  0  0  0  0  0  0  0  0  0  0  0
  -21.4070  -28.0689   25.1575 C   0  0  0  0  0  0  0  0  0  0  0  0
  -20.8224  -30.4931   25.0937 C   0  0  0  0  0  0  0  0  0  0  0  0
  -21.7069  -28.6895   18.5488 C   0  0  0  0  0  0  0  0  0  0  0  0
  -28.7588  -24.0108   19.8373 C   0  0  0  0  0  0  0  0  0  0  0  0
  -28.5868  -26.4142   20.7139 C   0  0  0  0  0  0  0  0  0  1  0  0
  -22.4521  -29.5661   23.3976 C   0  0  1  0  0  0  0  0  0  0  0  0
  -20.3049  -28.2437   20.5673 C   0  0  2  0  0  0  0  0  0  0  0  0
  -21.9658  -29.4792   24.8719 C   0  0  0  0  0  0  0  0  0  0  0  0
  -26.7074  -10.9056   21.3769 N   0  0  0  0  0  0  0  0  0  0  0  0
  -28.0279  -11.1544   21.3938 N   0  0  0  0  0  0  0  0  0  0  0  0
  -24.3726  -30.9334   22.6453 N   0  0  0  0  0  0  0  0  0  0  0  0
  -28.0103  -14.8482   20.3732 N   0  0  0  0  0  0  0  0  0  0  0  0
  -31.2782  -21.6052   17.3631 N   0  0  0  0  0  0  0  0  0  0  0  0
  -30.1465  -10.1034   21.5282 N   0  0  0  0  0  0  0  0  0  0  0  0
  -27.2525   -6.6410   21.7085 N   0  0  0  0  0  0  0  0  0  0  0  0
  -29.5742  -23.1563   19.0127 N   0  0  0  0  0  0  0  0  0  0  0  0
  -28.3336  -16.8868   19.1532 N   0  0  0  0  0  0  0  0  0  0  0  0
  -25.8594  -33.8146   24.1346 N   0  0  0  0  0  0  0  0  0  0  0  0
  -21.4096  -29.3139   22.4087 N   0  0  0  0  0  0  0  0  0  0  0  0
  -28.1872  -17.3182   16.8307 N   0  3  0  0  0  0  0  0  0  0  0  0
  -20.7038  -27.8076   19.1992 N   0  3  0  0  0  0  0  0  0  0  0  0
  -29.4721   -7.2162   21.7418 O   0  0  0  0  0  0  0  0  0  0  0  0
  -26.2437  -31.5357   24.4197 O   0  0  0  0  0  0  0  0  0  0  0  0
  -30.3845  -25.7059   19.2859 O   0  0  0  0  0  0  0  0  0  0  0  0
  -22.3251  -31.9227   23.1600 O   0  0  0  0  0  0  0  0  0  0  0  0
  -22.4671  -27.5284   21.3740 O   0  0  0  0  0  0  0  0  0  0  0  0
  -27.8209  -14.9216   18.0468 O   0  0  0  0  0  0  0  0  0  0  0  0
  -21.6947   -6.9815   21.5320 O   0  0  0  0  0  0  0  0  0  0  0  0
  -29.2397  -27.6830   20.6959 O   0  0  0  0  0  0  0  0  0  1  0  0
  -20.9278   -3.0033   25.2723 F   0  0  0  0  0  0  0  0  0  0  0  0
  -23.3099   -4.7381   21.5681 F   0  0  0  0  0  0  0  0  0  0  0  0
  1  2  1  0  0  0  0
  1  6  2  0  0  0  0
  2  7  2  0  0  0  0
  3 10  2  0  0  0  0
  3 18  1  0  0  0  0
  4 11  1  0  0  0  0
  4 18  2  0  0  0  0
  5  9  2  0  0  0  0
  5 19  1  0  0  0  0
  6 21  1  0  0  0  0
  7 23  1  0  0  0  0
  8 12  2  0  0  0  0
  8 22  1  0  0  0  0
  9 25  1  0  0  0  0
 10 27  1  0  0  0  0
 11 27  2  0  0  0  0
 12 28  1  0  0  0  0
 13 14  2  0  0  0  0
 13 29  1  0  0  0  0
 14 30  1  0  0  0  0
 15 19  2  0  0  0  0
 15 26  1  0  0  0  0
 16 24  1  0  0  0  0
 16 28  2  0  0  0  0
 17 30  2  0  0  0  0
 17 31  1  0  0  0  0
 18 32  1  0  0  0  0
 19 34  1  0  0  0  0
 20 32  1  0  0  0  0
 20 33  2  0  0  0  0
 20 35  1  0  0  0  0
 21 23  2  0  0  0  0
 21 41  1  0  0  0  0
 22 24  2  0  0  0  0
 22 42  1  0  0  0  0
 23 50  1  0  0  0  0
 24 43  1  0  0  0  0
 25 26  2  0  0  0  0
 25 70  1  0  0  0  0
 26 67  1  0  0  0  0
 27 82  1  0  0  0  0
 28 83  1  0  0  0  0
 29 31  2  0  0  0  0
 29 82  1  0  0  0  0
 30 84  1  0  0  0  0
 31 85  1  0  0  0  0
 32 63  2  0  0  0  0
 33 64  1  0  0  0  0
 33 68  1  0  0  0  0
 34 71  1  0  0  0  0
 34 74  2  0  0  0  0
 35 69  1  0  0  0  0
 35 76  2  0  0  0  0
 36 51  1  0  0  0  0
 36 72  1  0  0  0  0
 36 77  2  0  0  0  0
 37 58  1  0  0  0  0
 37 59  1  0  0  0  0
 37 78  2  0  0  0  0
 38 60  1  0  0  0  0
 38 65  1  0  0  0  0
 38 79  2  0  0  0  0
 39 61  1  0  0  0  0
 39 73  1  0  0  0  0
 39 80  2  0  0  0  0
 40 66  1  0  0  0  0
 40 71  1  0  0  0  0
 40 81  2  0  0  0  0
 41 44  1  0  0  0  0
 42 51  1  0  0  0  0
 43 65  1  0  0  0  0
 44 46  1  0  0  0  0
 45 47  1  0  0  0  0
 45 48  1  0  0  0  0
 46 50  1  0  0  0  0
 47 52  1  0  0  0  0
 48 66  1  0  0  0  0
 49 52  1  0  0  0  0
 49 66  1  0  0  0  0
 50 72  1  0  0  0  0
 51 65  1  0  0  0  0
 52 64  1  0  0  0  0
 53 61  1  0  0  0  0
 54 62  1  0  0  0  0
 55 62  1  0  0  0  0
 56 62  1  0  0  0  0
 57 75  1  0  0  0  0
 58 70  1  0  0  0  0
 59 83  1  0  0  0  0
 60 62  1  0  0  0  0
 60 73  1  0  0  0  0
 61 75  1  0  0  0  0
 63 64  1  0  0  0  0
M  CHG  2  74   1  75   1
M  ISO  4  40 100  59 101  71 100  83 101
M  END
> <Batch ID>
0090

> <Smiles>
CNC(C)C(=O)NC(C(=O)N1Cc2cc([101O:1][101CH2:1]C(=O)CNc3ccc(C(=N)[100NH:0][100C:0](=O)N4CCCC(n5nc(-c6ccc(Oc7ccc(F)cc7F)cc6)c(C(N)=O)c5N)C4)cc3N)ccc2CC1C(=O)NC1CCCc2ccccc21)C(C)(C)C

> <Shape>
0.308

> <Color>
0.095

> <Negative vol penalty>
0.000

$$$$

  -OEChem-04052300293D

 83 91  0     1  0  0  0  0  0999 V2000
  -16.6220  -28.0476   23.6655 C   0  0  0  0  0  0  0  0  0  0  0  0
  -17.5553  -27.5543   22.7594 C   0  0  0  0  0  0  0  0  0  0  0  0
  -23.8142  -13.3473   24.6198 C   0  0  0  0  0  0  0  0  0  0  0  0
  -23.1004  -15.4664   23.7050 C   0  0  0  0  0  0  0  0  0  0  0  0
  -30.6184  -21.2318   19.4987 C   0  0  0  0  0  0  0  0  0  0  0  0
  -16.9471  -29.1330   24.4779 C   0  0  0  0  0  0  0  0  0  0  0  0
  -18.8140  -28.1469   22.6645 C   0  0  0  0  0  0  0  0  0  0  0  0
  -24.1253  -25.3389   21.4767 C   0  0  0  0  0  0  0  0  0  0  0  0
  -30.4590  -19.8556   19.6605 C   0  0  0  0  0  0  0  0  0  0  0  0
  -23.0729  -13.5962   25.7748 C   0  0  0  0  0  0  0  0  0  0  0  0
  -22.3589  -15.7153   24.8600 C   0  0  0  0  0  0  0  0  0  0  0  0
  -24.8672  -25.1919   20.3055 C   0  0  0  0  0  0  0  0  0  0  0  0
  -19.8366  -13.4337   26.7407 C   0  0  0  0  0  0  0  0  0  0  0  0
  -19.0552  -12.3946   27.2459 C   0  0  0  0  0  0  0  0  0  0  0  0
  -28.2515  -21.4556   19.0692 C   0  0  0  0  0  0  0  0  0  0  0  0
  -26.2191  -27.0894   20.9310 C   0  0  0  0  0  0  0  0  0  0  0  0
  -20.2946  -12.4702   29.3184 C   0  0  0  0  0  0  0  0  0  0  0  0
  -23.8280  -14.2825   23.5849 C   0  0  0  0  0  0  0  0  0  0  0  0
  -29.5147  -22.0318   19.2031 C   0  0  0  0  0  0  0  0  0  0  0  0
  -24.1556  -13.3744   21.2236 C   0  0  0  0  0  0  0  0  0  0  0  0
  -18.2137  -29.7332   24.3997 C   0  0  0  0  0  0  0  0  0  0  0  0
  -24.4182  -26.3706   22.3801 C   0  0  0  0  0  0  0  0  0  0  0  0
  -19.1558  -29.2423   23.4756 C   0  0  0  0  0  0  0  0  0  0  0  0
  -25.4810  -27.2457   22.1141 C   0  0  0  0  0  0  0  0  0  0  0  0
  -29.1958  -19.2794   19.5266 C   0  0  0  0  0  0  0  0  0  0  0  0
  -22.3452  -14.7801   25.8949 C   0  0  0  0  0  0  0  0  0  0  0  0
  -25.9124  -26.0690   20.0310 C   0  0  0  0  0  0  0  0  0  0  0  0
  -20.8471  -13.9911   27.5244 C   0  0  0  0  0  0  0  0  0  0  0  0
  -19.2842  -11.9129   28.5347 C   0  0  0  0  0  0  0  0  0  0  0  0
  -28.0920  -20.0794   19.2310 C   0  0  0  0  0  0  0  0  0  0  0  0
  -21.0760  -13.5093   28.8132 C   0  0  0  0  0  0  0  0  0  0  0  0
  -24.5941  -14.0262   22.3918 C   0  0  0  0  0  0  0  0  0  0  0  0
  -25.2495  -13.3853   20.3931 C   0  0  0  0  0  0  0  0  0  0  0  0
  -29.6847  -23.4976   19.0306 C   0  0  0  0  0  0  0  0  0  0  0  0
  -22.8740  -12.8096   20.9166 C   0  0  0  0  0  0  0  0  0  0  0  0
  -22.8337  -28.8880   23.5007 C   0  0  0  0  0  0  0  0  0  0  0  0
  -25.4402  -29.1894   25.4079 C   0  0  0  0  0  0  0  0  0  0  0  0
  -28.7543  -28.5462   25.9078 C   0  0  0  0  0  0  0  0  0  0  0  0
  -30.0300  -16.9470   19.9856 C   0  0  0  0  0  0  0  0  0  0  0  0
  -18.5026  -30.9342   25.2650 C   0  0  0  0  0  0  0  0  0  0  0  0
  -23.6256  -26.4993   23.6519 C   0  0  0  0  0  0  0  0  0  0  0  0
  -25.8489  -28.3574   23.0614 C   0  0  0  0  0  0  0  0  0  0  0  0
  -19.9887  -31.2681   25.3670 C   0  0  0  0  0  0  0  0  0  0  0  0
  -30.0370  -13.4248   20.5064 C   0  0  0  0  0  0  0  0  0  0  0  0
  -20.6384  -31.2388   23.9872 C   0  0  0  0  0  0  0  0  0  0  0  0
  -28.6005  -13.1192   20.9368 C   0  0  0  0  0  0  0  0  0  0  0  0
  -30.5231  -14.7623   21.0620 C   0  0  0  0  0  0  0  0  0  0  0  0
  -28.2115  -15.6014   21.2094 C   0  0  0  0  0  0  0  0  0  0  0  0
  -20.5402  -29.8426   23.3607 C   0  0  1  0  0  0  0  0  0  0  0  0
  -23.6817  -27.9008   24.2518 C   0  0  1  0  0  0  0  0  0  0  0  0
  -27.6552  -14.2947   20.6205 C   0  0  2  0  0  0  0  0  0  0  0  0
  -30.6152  -28.9524   27.5417 C   0  0  0  0  0  0  0  0  0  0  0  0
  -25.6706  -32.0691   24.4260 C   0  0  0  0  0  0  0  0  0  0  0  0
  -28.0111  -32.1111   25.3141 C   0  0  0  0  0  0  0  0  0  0  0  0
  -26.0939  -31.7639   26.8718 C   0  0  0  0  0  0  0  0  0  0  0  0
  -29.1314  -25.6484   26.3762 C   0  0  0  0  0  0  0  0  0  0  0  0
  -28.8052  -25.5368   17.9241 C   0  0  0  0  0  0  0  0  0  0  0  0
  -28.0028  -26.3422   18.9303 C   0  0  0  0  0  0  0  0  0  1  0  0
  -26.7671  -29.9013   25.3003 C   0  0  1  0  0  0  0  0  0  0  0  0
  -29.5052  -28.0060   27.1115 C   0  0  2  0  0  0  0  0  0  0  0  0
  -26.6277  -31.4417   25.4591 C   0  0  0  0  0  0  0  0  0  0  0  0
  -25.8674  -14.4223   22.3142 N   0  0  0  0  0  0  0  0  0  0  0  0
  -26.2383  -14.0181   21.0874 N   0  0  0  0  0  0  0  0  0  0  0  0
  -25.0403  -28.4459   24.2885 N   0  0  0  0  0  0  0  0  0  0  0  0
  -29.5802  -15.8293   20.7199 N   0  0  0  0  0  0  0  0  0  0  0  0
  -25.4525  -12.9153   19.1440 N   0  0  0  0  0  0  0  0  0  0  0  0
  -21.8618  -12.8850   21.8831 N   0  0  0  0  0  0  0  0  0  0  0  0
  -29.0373  -17.8809   19.6910 N   0  0  0  0  0  0  0  0  0  0  0  0
  -28.7585  -24.1270   18.2083 N   0  0  0  0  0  0  0  0  0  0  0  0
  -21.5262  -28.9571   23.9424 N   0  0  0  0  0  0  0  0  0  0  0  0
  -27.6464  -29.2765   26.2826 N   0  0  0  0  0  0  0  0  0  0  0  0
  -30.1128  -26.6833   26.7921 N   0  3  0  0  0  0  0  0  0  0  0  0
  -30.6205  -24.0630   19.5901 O   0  0  0  0  0  0  0  0  0  0  0  0
  -22.6385  -12.2400   19.8241 O   0  0  0  0  0  0  0  0  0  0  0  0
  -23.3293  -29.5398   22.5890 O   0  0  0  0  0  0  0  0  0  0  0  0
  -24.7862  -29.2834   26.4496 O   0  0  0  0  0  0  0  0  0  0  0  0
  -29.1166  -28.3439   24.7510 O   0  0  0  0  0  0  0  0  0  0  0  0
  -31.2035  -17.0537   19.6200 O   0  0  0  0  0  0  0  0  0  0  0  0
  -21.6215  -15.0232   27.0217 O   0  0  0  0  0  0  0  0  0  0  0  0
  -26.6378  -25.9282   18.8883 O   0  0  0  0  0  0  0  0  0  1  0  0
  -18.5327  -10.9160   29.0203 F   0  0  0  0  0  0  0  0  0  0  0  0
  -26.8730  -19.5365   19.0994 F   0  0  0  0  0  0  0  0  0  0  0  0
  -22.0445  -14.0415   29.5712 F   0  0  0  0  0  0  0  0  0  0  0  0
  1  2  1  0  0  0  0
  1  6  2  0  0  0  0
  2  7  2  0  0  0  0
  3 10  2  0  0  0  0
  3 18  1  0  0  0  0
  4 11  1  0  0  0  0
  4 18  2  0  0  0  0
  5  9  2  0  0  0  0
  5 19  1  0  0  0  0
  6 21  1  0  0  0  0
  7 23  1  0  0  0  0
  8 12  2  0  0  0  0
  8 22  1  0  0  0  0
  9 25  1  0  0  0  0
 10 26  1  0  0  0  0
 11 26  2  0  0  0  0
 12 27  1  0  0  0  0
 13 14  2  0  0  0  0
 13 28  1  0  0  0  0
 14 29  1  0  0  0  0
 15 19  2  0  0  0  0
 15 30  1  0  0  0  0
 16 24  1  0  0  0  0
 16 27  2  0  0  0  0
 17 29  2  0  0  0  0
 17 31  1  0  0  0  0
 18 32  1  0  0  0  0
 19 34  1  0  0  0  0
 20 32  1  0  0  0  0
 20 33  2  0  0  0  0
 20 35  1  0  0  0  0
 21 23  2  0  0  0  0
 21 40  1  0  0  0  0
 22 24  2  0  0  0  0
 22 41  1  0  0  0  0
 23 49  1  0  0  0  0
 24 42  1  0  0  0  0
 25 30  2  0  0  0  0
 25 68  1  0  0  0  0
 26 79  1  0  0  0  0
 27 80  1  0  0  0  0
 28 31  2  0  0  0  0
 28 79  1  0  0  0  0
 29 81  1  0  0  0  0
 30 82  1  0  0  0  0
 31 83  1  0  0  0  0
 32 62  2  0  0  0  0
 33 63  1  0  0  0  0
 33 66  1  0  0  0  0
 34 69  1  0  0  0  0
 34 73  2  0  0  0  0
 35 67  1  0  0  0  0
 35 74  2  0  0  0  0
 36 50  1  0  0  0  0
 36 70  1  0  0  0  0
 36 75  2  0  0  0  0
 37 59  1  0  0  0  0
 37 64  1  0  0  0  0
 37 76  2  0  0  0  0
 38 60  1  0  0  0  0
 38 71  1  0  0  0  0
 38 77  2  0  0  0  0
 39 65  1  0  0  0  0
 39 68  1  0  0  0  0
 39 78  2  0  0  0  0
 40 43  1  0  0  0  0
 41 50  1  0  0  0  0
 42 64  1  0  0  0  0
 43 45  1  0  0  0  0
 44 46  1  0  0  0  0
 44 47  1  0  0  0  0
 45 49  1  0  0  0  0
 46 51  1  0  0  0  0
 47 65  1  0  0  0  0
 48 51  1  0  0  0  0
 48 65  1  0  0  0  0
 49 70  1  0  0  0  0
 50 64  1  0  0  0  0
 51 63  1  0  0  0  0
 52 60  1  0  0  0  0
 53 61  1  0  0  0  0
 54 61  1  0  0  0  0
 55 61  1  0  0  0  0
 56 72  1  0  0  0  0
 57 58  1  0  0  0  0
 57 69  1  0  0  0  0
 58 80  1  0  0  0  0
 59 61  1  0  0  0  0
 59 71  1  0  0  0  0
 60 72  1  0  0  0  0
 62 63  1  0  0  0  0
M  CHG  1  72   1
M  ISO  4  39 100  58 101  68 100  80 101
M  END
> <Batch ID>
0090

> <Smiles>
CNC(C)C(=O)NC(C(=O)N1Cc2cc([101O:1][101CH2:1]CNC(=O)c3ccc([100NH:0][100C:0](=O)N4CCCC(n5nc(-c6ccc(Oc7ccc(F)cc7F)cc6)c(C(N)=O)c5N)C4)c(F)c3)ccc2CC1C(=O)NC1CCCc2ccccc21)C(C)(C)C

> <Shape>
0.250

> <Color>
0.066

> <Negative vol penalty>
0.000

$$$$

  -OEChem-04052300293D

 82 90  0     1  0  0  0  0  0999 V2000
  -34.1336  -23.8323   24.8094 C   0  0  0  0  0  0  0  0  0  0  0  0
  -32.7660  -23.7993   25.0624 C   0  0  0  0  0  0  0  0  0  0  0  0
  -25.3970  -24.4537   18.1209 C   0  0  0  0  0  0  0  0  0  0  0  0
  -27.0616  -25.7696   16.9656 C   0  0  0  0  0  0  0  0  0  0  0  0
  -34.6185  -23.4633   23.5554 C   0  0  0  0  0  0  0  0  0  0  0  0
  -31.8824  -23.3984   24.0610 C   0  0  0  0  0  0  0  0  0  0  0  0
  -26.6679  -20.2702   24.7884 C   0  0  0  0  0  0  0  0  0  0  0  0
  -25.2661  -23.6346   16.9995 C   0  0  0  0  0  0  0  0  0  0  0  0
  -26.9307  -24.9505   15.8442 C   0  0  0  0  0  0  0  0  0  0  0  0
  -25.3340  -20.6713   24.8482 C   0  0  0  0  0  0  0  0  0  0  0  0
  -26.7749  -23.4252   12.5489 C   0  0  0  0  0  0  0  0  0  0  0  0
  -26.6901  -24.0429   11.3012 C   0  0  0  0  0  0  0  0  0  0  0  0
  -18.3378  -27.7471   22.8823 C   0  0  0  0  0  0  0  0  0  0  0  0
  -18.3035  -26.3622   23.1725 C   0  0  0  0  0  0  0  0  0  0  0  0
  -25.0876  -20.1811   22.4991 C   0  0  0  0  0  0  0  0  0  0  0  0
  -24.6949  -25.2052   12.0122 C   0  0  0  0  0  0  0  0  0  0  0  0
  -26.2947  -25.5212   18.1040 C   0  0  0  0  0  0  0  0  0  0  0  0
  -27.3161  -26.1958   20.3421 C   0  0  0  0  0  0  0  0  0  0  0  0
  -33.7412  -23.0484   22.5411 C   0  0  0  0  0  0  0  0  0  0  0  0
  -27.2256  -19.8311   23.5790 C   0  0  0  0  0  0  0  0  0  0  0  0
  -32.3559  -23.0248   22.7917 C   0  0  0  0  0  0  0  0  0  0  0  0
  -26.4281  -19.7726   22.4272 C   0  0  0  0  0  0  0  0  0  0  0  0
  -26.0330  -23.8830   15.8611 C   0  0  0  0  0  0  0  0  0  0  0  0
  -24.5444  -20.6296   23.7028 C   0  0  0  0  0  0  0  0  0  0  0  0
  -25.8197  -23.6973   13.5283 C   0  0  0  0  0  0  0  0  0  0  0  0
  -25.6501  -24.9329   11.0328 C   0  0  0  0  0  0  0  0  0  0  0  0
  -24.7797  -24.5873   13.2600 C   0  0  0  0  0  0  0  0  0  0  0  0
  -26.4300  -26.3680   19.2619 C   0  0  0  0  0  0  0  0  0  0  0  0
  -19.6611  -28.0619   22.6783 C   0  0  0  0  0  0  0  0  0  0  0  0
  -27.0547  -27.2577   21.1732 C   0  0  0  0  0  0  0  0  0  0  0  0
  -19.6083  -25.9295   23.1250 C   0  0  0  0  0  0  0  0  0  0  0  0
  -20.3210  -29.3369   22.3453 C   0  0  0  0  0  0  0  0  0  0  0  0
  -21.7242  -22.8575   23.5382 C   0  0  0  0  0  0  0  0  0  0  0  0
  -22.9548  -22.3352   23.5172 C   0  0  0  0  0  0  0  0  0  1  0  0
  -28.2886  -25.1681   20.5736 C   0  0  0  0  0  0  0  0  0  0  0  0
  -21.5263  -24.3097   23.2588 C   0  0  0  0  0  0  0  0  0  0  0  0
  -29.5860  -20.8354   21.7020 C   0  0  0  0  0  0  0  0  0  0  0  0
  -28.9474  -18.0941   20.0896 C   0  0  0  0  0  0  0  0  0  0  0  0
  -26.7008  -15.6446   19.3155 C   0  0  0  0  0  0  0  0  0  0  0  0
  -22.1530  -30.6499   21.8859 C   0  0  0  0  0  0  0  0  0  0  0  0
  -34.3083  -22.7042   21.1867 C   0  0  0  0  0  0  0  0  0  0  0  0
  -28.6587  -19.3765   23.5371 C   0  0  0  0  0  0  0  0  0  0  0  0
  -26.9734  -19.2899   21.1088 C   0  0  0  0  0  0  0  0  0  0  0  0
  -33.3363  -21.9329   20.2975 C   0  0  0  0  0  0  0  0  0  0  0  0
  -25.4933  -31.7729   21.1203 C   0  0  0  0  0  0  0  0  0  0  0  0
  -31.9573  -22.5843   20.3234 C   0  0  0  0  0  0  0  0  0  0  0  0
  -26.1814  -30.5017   20.6232 C   0  0  0  0  0  0  0  0  0  0  0  0
  -24.0237  -31.8103   20.7123 C   0  0  0  0  0  0  0  0  0  0  0  0
  -23.9334  -29.3332   20.6475 C   0  0  0  0  0  0  0  0  0  0  0  0
  -31.3677  -22.5718   21.7389 C   0  0  1  0  0  0  0  0  0  0  0  0
  -29.2632  -19.4341   22.1376 C   0  0  1  0  0  0  0  0  0  0  0  0
  -25.4106  -29.2458   21.0676 C   0  0  1  0  0  0  0  0  0  0  0  0
  -26.4562  -13.5584   17.9423 C   0  0  0  0  0  0  0  0  0  0  0  0
  -28.6710  -19.7894   17.5677 C   0  0  0  0  0  0  0  0  0  0  0  0
  -27.5220  -17.8518   16.4751 C   0  0  0  0  0  0  0  0  0  0  0  0
  -29.8847  -17.6269   17.2433 C   0  0  0  0  0  0  0  0  0  0  0  0
  -26.1921  -13.9866   21.7137 C   0  0  0  0  0  0  0  0  0  0  0  0
  -28.0270  -17.7101   18.9563 C   0  0  1  0  0  0  0  0  0  0  0  0
  -26.8250  -14.1317   19.3018 C   0  0  2  0  0  0  0  0  0  0  0  0
  -28.5161  -18.2555   17.5849 C   0  0  0  0  0  0  0  0  0  0  0  0
  -25.6629  -27.4536   19.3922 N   0  0  0  0  0  0  0  0  0  0  0  0
  -21.6025  -29.4212   22.1967 N   0  0  0  0  0  0  0  0  0  0  0  0
  -26.0662  -27.9732   20.5642 N   0  0  0  0  0  0  0  0  0  0  0  0
  -28.3821  -18.8622   21.1174 N   0  0  0  0  0  0  0  0  0  0  0  0
  -23.3327  -30.5869   21.1218 N   0  0  0  0  0  0  0  0  0  0  0  0
  -27.5763  -27.6397   22.3583 N   0  0  0  0  0  0  0  0  0  0  0  0
  -28.4274  -24.1522   19.6180 N   0  0  0  0  0  0  0  0  0  0  0  0
  -20.1821  -24.6505   23.3292 N   0  0  0  0  0  0  0  0  0  0  0  0
  -30.8519  -21.2583   22.0600 N   0  0  0  0  0  0  0  0  0  0  0  0
  -27.8973  -16.2580   19.0099 N   0  0  0  0  0  0  0  0  0  0  0  0
  -25.9255  -13.5288   20.3258 N   0  3  0  0  0  0  0  0  0  0  0  0
  -29.0016  -25.1420   21.6053 O   0  0  0  0  0  0  0  0  0  0  0  0
  -22.4752  -25.0433   23.0079 O   0  0  0  0  0  0  0  0  0  0  0  0
  -28.7492  -21.4844   21.0854 O   0  0  0  0  0  0  0  0  0  0  0  0
  -30.1227  -17.7202   20.0674 O   0  0  0  0  0  0  0  0  0  0  0  0
  -25.6468  -16.2241   19.5680 O   0  0  0  0  0  0  0  0  0  0  0  0
  -21.6664  -31.7288   22.2328 O   0  0  0  0  0  0  0  0  0  0  0  0
  -20.4421  -26.9595   22.8242 O   0  0  0  0  0  0  0  0  0  0  0  0
  -25.9057  -23.0838   14.7668 O   0  0  0  0  0  0  0  0  0  0  0  0
  -23.2423  -21.0211   23.7583 O   0  0  0  0  0  0  0  0  0  1  0  0
  -25.5696  -25.5273    9.8352 F   0  0  0  0  0  0  0  0  0  0  0  0
  -23.8598  -24.8537   14.1973 F   0  0  0  0  0  0  0  0  0  0  0  0
  1  2  1  0  0  0  0
  1  5  2  0  0  0  0
  2  6  2  0  0  0  0
  3  8  2  0  0  0  0
  3 17  1  0  0  0  0
  4  9  1  0  0  0  0
  4 17  2  0  0  0  0
  5 19  1  0  0  0  0
  6 21  1  0  0  0  0
  7 10  2  0  0  0  0
  7 20  1  0  0  0  0
  8 23  1  0  0  0  0
  9 23  2  0  0  0  0
 10 24  1  0  0  0  0
 11 12  2  0  0  0  0
 11 25  1  0  0  0  0
 12 26  1  0  0  0  0
 13 14  1  0  0  0  0
 13 29  2  0  0  0  0
 14 31  2  0  0  0  0
 15 22  1  0  0  0  0
 15 24  2  0  0  0  0
 16 26  2  0  0  0  0
 16 27  1  0  0  0  0
 17 28  1  0  0  0  0
 18 28  1  0  0  0  0
 18 30  2  0  0  0  0
 18 35  1  0  0  0  0
 19 21  2  0  0  0  0
 19 41  1  0  0  0  0
 20 22  2  0  0  0  0
 20 42  1  0  0  0  0
 21 50  1  0  0  0  0
 22 43  1  0  0  0  0
 23 79  1  0  0  0  0
 24 80  1  0  0  0  0
 25 27  2  0  0  0  0
 25 79  1  0  0  0  0
 26 81  1  0  0  0  0
 27 82  1  0  0  0  0
 28 61  2  0  0  0  0
 29 32  1  0  0  0  0
 29 78  1  0  0  0  0
 30 63  1  0  0  0  0
 30 66  1  0  0  0  0
 31 68  1  0  0  0  0
 31 78  1  0  0  0  0
 32 62  2  0  0  0  0
 33 34  2  0  0  0  0
 33 36  1  0  0  0  0
 34 80  1  0  0  0  0
 35 67  1  0  0  0  0
 35 72  2  0  0  0  0
 36 68  1  0  0  0  0
 36 73  2  0  0  0  0
 37 51  1  0  0  0  0
 37 69  1  0  0  0  0
 37 74  2  0  0  0  0
 38 58  1  0  0  0  0
 38 64  1  0  0  0  0
 38 75  2  0  0  0  0
 39 59  1  0  0  0  0
 39 70  1  0  0  0  0
 39 76  2  0  0  0  0
 40 62  1  0  0  0  0
 40 65  1  0  0  0  0
 40 77  2  0  0  0  0
 41 44  1  0  0  0  0
 42 51  1  0  0  0  0
 43 64  1  0  0  0  0
 44 46  1  0  0  0  0
 45 47  1  0  0  0  0
 45 48  1  0  0  0  0
 46 50  1  0  0  0  0
 47 52  1  0  0  0  0
 48 65  1  0  0  0  0
 49 52  1  0  0  0  0
 49 65  1  0  0  0  0
 50 69  1  0  0  0  0
 51 64  1  0  0  0  0
 52 63  1  0  0  0  0
 53 59  1  0  0  0  0
 54 60  1  0  0  0  0
 55 60  1  0  0  0  0
 56 60  1  0  0  0  0
 57 71  1  0  0  0  0
 58 60  1  0  0  0  0
 58 70  1  0  0  0  0
 59 71  1  0  0  0  0
 61 63  1  0  0  0  0
M  CHG  1  71   1
M  ISO  4  34 101  40 100  62 100  80 101
M  END
> <Batch ID>
0090

> <Smiles>
CNC(C)C(=O)NC(C(=O)N1Cc2cc([101O:1][101CH:1]=CC(=O)Nc3ccc(C=[100N:0][100C:0](=O)N4CCCC(n5nc(-c6ccc(Oc7ccc(F)cc7F)cc6)c(C(N)=O)c5N)C4)o3)ccc2CC1C(=O)NC1CCCc2ccccc21)C(C)(C)C

> <Shape>
0.181

> <Color>
0.069

> <Negative vol penalty>
0.000

$$$$

  -OEChem-04052300293D

 86 95  0     1  0  0  0  0  0999 V2000
  -29.7222  -31.8044   26.0425 C   0  0  0  0  0  0  0  0  0  0  0  0
  -29.3840  -30.7052   25.2596 C   0  0  0  0  0  0  0  0  0  0  0  0
  -24.5540   -8.4227   20.5744 C   0  0  0  0  0  0  0  0  0  0  0  0
  -23.0408  -10.3031   20.6813 C   0  0  0  0  0  0  0  0  0  0  0  0
  -28.7196  -32.5990   26.5967 C   0  0  0  0  0  0  0  0  0  0  0  0
  -28.0428  -30.3994   25.0314 C   0  0  0  0  0  0  0  0  0  0  0  0
  -27.1058  -29.2669   20.1853 C   0  0  0  0  0  0  0  0  0  0  0  0
  -23.5211   -7.5694   20.9625 C   0  0  0  0  0  0  0  0  0  0  0  0
  -22.0079   -9.4498   21.0694 C   0  0  0  0  0  0  0  0  0  0  0  0
  -27.4633  -27.9920   19.7488 C   0  0  0  0  0  0  0  0  0  0  0  0
  -21.9433   -6.7106   23.8256 C   0  0  0  0  0  0  0  0  0  0  0  0
  -22.2237   -5.7590   24.8060 C   0  0  0  0  0  0  0  0  0  0  0  0
  -25.1699  -27.2785   19.9739 C   0  0  0  0  0  0  0  0  0  0  0  0
  -28.2100  -19.5522   18.0078 C   0  0  0  0  0  0  0  0  0  0  0  0
  -28.5784  -23.6991   17.0854 C   0  0  0  0  0  0  0  0  0  0  0  0
  -29.1867  -18.9732   20.5561 C   0  0  0  0  0  0  0  0  0  0  0  0
  -21.6519   -3.9950   23.2572 C   0  0  0  0  0  0  0  0  0  0  0  0
  -28.3927  -22.9924   19.2151 C   0  0  0  0  0  0  0  0  0  0  0  0
  -24.3139   -9.7896   20.4338 C   0  0  0  0  0  0  0  0  0  0  0  0
  -25.7370  -11.0333   18.7205 C   0  0  0  0  0  0  0  0  0  0  0  0
  -27.3655  -32.3084   26.3672 C   0  0  0  0  0  0  0  0  0  0  0  0
  -25.7774  -29.5547   20.5304 C   0  0  0  0  0  0  0  0  0  0  0  0
  -27.0211  -31.1901   25.5842 C   0  0  0  0  0  0  0  0  0  0  0  0
  -24.7977  -28.5585   20.4121 C   0  0  0  0  0  0  0  0  0  0  0  0
  -28.2705  -18.2299   18.4477 C   0  0  0  0  0  0  0  0  0  0  0  0
  -28.3884  -24.1203   18.4246 C   0  0  0  0  0  0  0  0  0  0  0  0
  -28.6380  -20.5850   18.8420 C   0  0  0  0  0  0  0  0  0  0  0  0
  -28.7587  -17.9404   19.7218 C   0  0  0  0  0  0  0  0  0  0  0  0
  -22.2481   -8.0830   21.2100 C   0  0  0  0  0  0  0  0  0  0  0  0
  -26.4958  -26.9968   19.6458 C   0  0  0  0  0  0  0  0  0  0  0  0
  -21.5171   -6.3045   22.5610 C   0  0  0  0  0  0  0  0  0  0  0  0
  -22.0780   -4.4011   24.5218 C   0  0  0  0  0  0  0  0  0  0  0  0
  -29.1263  -20.2955   20.1162 C   0  0  0  0  0  0  0  0  0  0  0  0
  -21.3714   -4.9467   22.2768 C   0  0  0  0  0  0  0  0  0  0  0  0
  -25.3806  -10.6716   20.0335 C   0  0  0  0  0  0  0  0  0  0  0  0
  -26.8039  -11.8841   18.8764 C   0  0  0  0  0  0  0  0  0  0  0  0
  -28.6927  -22.3264   17.0983 C   0  0  0  0  0  0  0  0  0  0  0  0
  -25.1556  -10.6359   17.4717 C   0  0  0  0  0  0  0  0  0  0  0  0
  -24.2992  -30.4709   23.1911 C   0  0  0  0  0  0  0  0  0  0  0  0
  -21.7303  -30.6943   21.2230 C   0  0  0  0  0  0  0  0  0  0  0  0
  -20.1960  -29.7083   18.3385 C   0  0  0  0  0  0  0  0  0  0  0  0
  -29.2886  -16.1642   21.4279 C   0  0  0  0  0  0  0  0  0  0  0  0
  -26.3166  -33.1687   27.0264 C   0  0  0  0  0  0  0  0  0  0  0  0
  -25.4032  -30.9423   20.9741 C   0  0  0  0  0  0  0  0  0  0  0  0
  -23.3540  -28.8219   20.7510 C   0  0  0  0  0  0  0  0  0  0  0  0
  -24.9230  -32.9959   26.4279 C   0  0  0  0  0  0  0  0  0  0  0  0
  -29.5837  -12.9666   22.9658 C   0  0  0  0  0  0  0  0  0  0  0  0
  -24.5949  -31.5160   26.2574 C   0  0  0  0  0  0  0  0  0  0  0  0
  -28.5458  -12.1142   22.2320 C   0  0  0  0  0  0  0  0  0  0  0  0
  -29.0987  -14.4009   23.1685 C   0  0  0  0  0  0  0  0  0  0  0  0
  -27.6078  -14.2290   21.2149 C   0  0  0  0  0  0  0  0  0  0  0  0
  -25.5777  -30.8406   25.2934 C   0  0  1  0  0  0  0  0  0  0  0  0
  -24.1147  -30.9816   21.7901 C   0  0  1  0  0  0  0  0  0  0  0  0
  -28.0778  -12.7932   20.9299 C   0  0  2  0  0  0  0  0  0  0  0  0
  -27.8073  -17.1435   17.5323 C   0  0  0  0  0  0  0  0  0  0  0  0
  -18.0866  -30.0336   17.0187 C   0  0  0  0  0  0  0  0  0  0  0  0
  -20.2307  -28.8989   23.1820 C   0  0  0  0  0  0  0  0  0  0  0  0
  -18.5253  -28.4913   21.3949 C   0  0  0  0  0  0  0  0  0  0  0  0
  -18.8856  -30.7996   22.2695 C   0  0  0  0  0  0  0  0  0  0  0  0
  -21.6776  -30.7951   16.0184 C   0  0  0  0  0  0  0  0  0  0  0  0
  -28.2148  -25.5340   18.8966 C   0  0  0  0  0  0  0  0  0  1  0  0
  -20.6383  -29.7512   20.7792 C   0  0  1  0  0  0  0  0  0  0  0  0
  -19.5170  -30.5017   17.2367 C   0  0  2  0  0  0  0  0  0  0  0  0
  -19.5975  -29.4794   21.9018 C   0  0  0  0  0  0  0  0  0  0  0  0
  -26.1581  -11.2455   20.9555 N   0  0  0  0  0  0  0  0  0  0  0  0
  -28.5780  -21.9077   18.3982 N   0  0  0  0  0  0  0  0  0  0  0  0
  -27.0138  -11.9764   20.2209 N   0  0  0  0  0  0  0  0  0  0  0  0
  -23.0390  -30.1926   21.1862 N   0  0  0  0  0  0  0  0  0  0  0  0
  -28.6757  -14.9812   21.8921 N   0  0  0  0  0  0  0  0  0  0  0  0
  -27.5738  -12.5547   17.9932 N   0  0  0  0  0  0  0  0  0  0  0  0
  -24.0648   -9.7560   17.4924 N   0  0  0  0  0  0  0  0  0  0  0  0
  -28.8277  -16.6039   20.1874 N   0  0  0  0  0  0  0  0  0  0  0  0
  -25.2443  -31.1643   23.9228 N   0  0  0  0  0  0  0  0  0  0  0  0
  -20.0707  -30.3266   19.5646 N   0  0  0  0  0  0  0  0  0  0  0  0
  -20.2617  -30.3500   15.9548 N   0  3  0  0  0  0  0  0  0  0  0  0
  -25.6008  -11.0359   16.3693 O   0  0  0  0  0  0  0  0  0  0  0  0
  -23.6323  -29.5192   23.5800 O   0  0  0  0  0  0  0  0  0  0  0  0
  -21.4338  -31.8366   21.5822 O   0  0  0  0  0  0  0  0  0  0  0  0
  -20.7761  -28.6445   18.1327 O   0  0  0  0  0  0  0  0  0  0  0  0
  -30.1775  -16.7296   22.0700 O   0  0  0  0  0  0  0  0  0  0  0  0
  -28.8785  -21.4675   16.1032 O   0  0  0  0  0  0  0  0  0  0  0  0
  -21.2399   -7.2506   21.5885 O   0  0  0  0  0  0  0  0  0  0  0  0
  -26.8422  -25.7513   19.2206 O   0  0  0  0  0  0  0  0  0  1  0  0
  -22.3488   -3.4873   25.4630 F   0  0  0  0  0  0  0  0  0  0  0  0
  -29.5415  -21.2785   20.9283 F   0  0  0  0  0  0  0  0  0  0  0  0
  -20.9635   -4.5505   21.0634 F   0  0  0  0  0  0  0  0  0  0  0  0
  1  2  1  0  0  0  0
  1  5  2  0  0  0  0
  2  6  2  0  0  0  0
  3  8  2  0  0  0  0
  3 19  1  0  0  0  0
  4  9  1  0  0  0  0
  4 19  2  0  0  0  0
  5 21  1  0  0  0  0
  6 23  1  0  0  0  0
  7 10  2  0  0  0  0
  7 22  1  0  0  0  0
  8 29  1  0  0  0  0
  9 29  2  0  0  0  0
 10 30  1  0  0  0  0
 11 12  2  0  0  0  0
 11 31  1  0  0  0  0
 12 32  1  0  0  0  0
 13 24  1  0  0  0  0
 13 30  2  0  0  0  0
 14 25  2  0  0  0  0
 14 27  1  0  0  0  0
 15 26  1  0  0  0  0
 15 37  2  0  0  0  0
 16 28  2  0  0  0  0
 16 33  1  0  0  0  0
 17 32  2  0  0  0  0
 17 34  1  0  0  0  0
 18 26  2  0  0  0  0
 18 66  1  0  0  0  0
 19 35  1  0  0  0  0
 20 35  1  0  0  0  0
 20 36  2  0  0  0  0
 20 38  1  0  0  0  0
 21 23  2  0  0  0  0
 21 43  1  0  0  0  0
 22 24  2  0  0  0  0
 22 44  1  0  0  0  0
 23 52  1  0  0  0  0
 24 45  1  0  0  0  0
 25 28  1  0  0  0  0
 25 55  1  0  0  0  0
 26 61  1  0  0  0  0
 27 33  2  0  0  0  0
 27 66  1  0  0  0  0
 28 72  1  0  0  0  0
 29 82  1  0  0  0  0
 30 83  1  0  0  0  0
 31 34  2  0  0  0  0
 31 82  1  0  0  0  0
 32 84  1  0  0  0  0
 33 85  1  0  0  0  0
 34 86  1  0  0  0  0
 35 65  2  0  0  0  0
 36 67  1  0  0  0  0
 36 70  1  0  0  0  0
 37 66  1  0  0  0  0
 37 81  1  0  0  0  0
 38 71  1  0  0  0  0
 38 76  2  0  0  0  0
 39 53  1  0  0  0  0
 39 73  1  0  0  0  0
 39 77  2  0  0  0  0
 40 62  1  0  0  0  0
 40 68  1  0  0  0  0
 40 78  2  0  0  0  0
 41 63  1  0  0  0  0
 41 74  1  0  0  0  0
 41 79  2  0  0  0  0
 42 69  1  0  0  0  0
 42 72  1  0  0  0  0
 42 80  2  0  0  0  0
 43 46  1  0  0  0  0
 44 53  1  0  0  0  0
 45 68  1  0  0  0  0
 46 48  1  0  0  0  0
 47 49  1  0  0  0  0
 47 50  1  0  0  0  0
 48 52  1  0  0  0  0
 49 54  1  0  0  0  0
 50 69  1  0  0  0  0
 51 54  1  0  0  0  0
 51 69  1  0  0  0  0
 52 73  1  0  0  0  0
 53 68  1  0  0  0  0
 54 67  1  0  0  0  0
 56 63  1  0  0  0  0
 57 64  1  0  0  0  0
 58 64  1  0  0  0  0
 59 64  1  0  0  0  0
 60 75  1  0  0  0  0
 61 83  1  0  0  0  0
 62 64  1  0  0  0  0
 62 74  1  0  0  0  0
 63 75  1  0  0  0  0
 65 67  1  0  0  0  0
M  CHG  1  75   1
M  ISO  4  42 100  61 101  72 100  83 101
M  END
> <Batch ID>
0090

> <Smiles>
CNC(C)C(=O)NC(C(=O)N1Cc2cc([101O:1][101CH2:1]C3=CN(c4cc(C)c([100NH:0][100C:0](=O)N5CCCC(n6nc(-c7ccc(Oc8ccc(F)cc8F)cc7)c(C(N)=O)c6N)C5)cc4F)C(=O)C3)ccc2CC1C(=O)NC1CCCc2ccccc21)C(C)(C)C

> <Shape>
0.347

> <Color>
0.108

> <Negative vol penalty>
0.000

$$$$

  -OEChem-04052300293D

 86 95  0     1  0  0  0  0  0999 V2000
  -29.4936  -36.3718   23.9082 C   0  0  0  0  0  0  0  0  0  0  0  0
  -29.7117  -35.4537   22.8859 C   0  0  0  0  0  0  0  0  0  0  0  0
  -22.9674  -16.5158   21.2015 C   0  0  0  0  0  0  0  0  0  0  0  0
  -22.2637  -15.3167   19.2257 C   0  0  0  0  0  0  0  0  0  0  0  0
  -28.7997  -35.9856   25.0541 C   0  0  0  0  0  0  0  0  0  0  0  0
  -29.2368  -34.1485   23.0095 C   0  0  0  0  0  0  0  0  0  0  0  0
  -26.6513  -28.7520   19.0713 C   0  0  0  0  0  0  0  0  0  0  0  0
  -28.4235  -19.7256   20.4939 C   0  0  0  0  0  0  0  0  0  0  0  0
  -29.3498  -19.1994   18.3255 C   0  0  0  0  0  0  0  0  0  0  0  0
  -29.0408  -18.5963   21.0317 C   0  0  0  0  0  0  0  0  0  0  0  0
  -29.9671  -18.0701   18.8632 C   0  0  0  0  0  0  0  0  0  0  0  0
  -21.8934  -17.3931   21.0516 C   0  0  0  0  0  0  0  0  0  0  0  0
  -21.1896  -16.1939   19.0758 C   0  0  0  0  0  0  0  0  0  0  0  0
  -26.8607  -27.3939   18.8357 C   0  0  0  0  0  0  0  0  0  0  0  0
  -21.1177  -20.0788   19.1518 C   0  0  0  0  0  0  0  0  0  0  0  0
  -21.3699  -21.4424   19.3018 C   0  0  0  0  0  0  0  0  0  0  0  0
  -25.6061  -26.8613   20.8261 C   0  0  0  0  0  0  0  0  0  0  0  0
  -26.6659  -22.4512   17.3403 C   0  0  0  0  0  0  0  0  0  0  0  0
  -19.7960  -21.5320   21.1327 C   0  0  0  0  0  0  0  0  0  0  0  0
  -23.1527  -15.4777   20.2884 C   0  0  0  0  0  0  0  0  0  0  0  0
  -24.2805  -13.3652   21.1678 C   0  0  0  0  0  0  0  0  0  0  0  0
  -28.3077  -34.6776   25.1876 C   0  0  0  0  0  0  0  0  0  0  0  0
  -25.9258  -29.1761   20.1940 C   0  0  0  0  0  0  0  0  0  0  0  0
  -28.5368  -33.7440   24.1589 C   0  0  0  0  0  0  0  0  0  0  0  0
  -25.3868  -28.2253   21.0723 C   0  0  0  0  0  0  0  0  0  0  0  0
  -27.3882  -23.2751   18.2384 C   0  0  0  0  0  0  0  0  0  0  0  0
  -28.5779  -20.0272   19.1408 C   0  0  0  0  0  0  0  0  0  0  0  0
  -29.8126  -17.7686   20.2164 C   0  0  0  0  0  0  0  0  0  0  0  0
  -21.0044  -17.2321   19.9889 C   0  0  0  0  0  0  0  0  0  0  0  0
  -26.3405  -26.4484   19.7147 C   0  0  0  0  0  0  0  0  0  0  0  0
  -20.2047  -19.4417   19.9922 C   0  0  0  0  0  0  0  0  0  0  0  0
  -20.7090  -22.1691   20.2922 C   0  0  0  0  0  0  0  0  0  0  0  0
  -19.5439  -20.1684   20.9826 C   0  0  0  0  0  0  0  0  0  0  0  0
  -24.2623  -14.5715   20.4423 C   0  0  0  0  0  0  0  0  0  0  0  0
  -28.1803  -22.4507   19.0065 C   0  0  0  0  0  0  0  0  0  0  0  0
  -25.5568  -12.8850   21.0036 C   0  0  0  0  0  0  0  0  0  0  0  0
  -27.0384  -21.1483   17.5872 C   0  0  0  0  0  0  0  0  0  0  0  0
  -23.2370  -12.7350   21.9225 C   0  0  0  0  0  0  0  0  0  0  0  0
  -26.5850  -30.9375   22.7565 C   0  0  0  0  0  0  0  0  0  0  0  0
  -23.4084  -30.6031   23.3219 C   0  0  0  0  0  0  0  0  0  0  0  0
  -20.5531  -28.7985   22.8344 C   0  0  0  0  0  0  0  0  0  0  0  0
  -30.6861  -15.4498   19.9888 C   0  0  0  0  0  0  0  0  0  0  0  0
  -27.6044  -34.2935   26.4653 C   0  0  0  0  0  0  0  0  0  0  0  0
  -25.6860  -30.6437   20.4195 C   0  0  0  0  0  0  0  0  0  0  0  0
  -24.5835  -28.6279   22.2811 C   0  0  0  0  0  0  0  0  0  0  0  0
  -26.8083  -32.9956   26.3559 C   0  0  0  0  0  0  0  0  0  0  0  0
  -29.2215  -12.9397   17.9401 C   0  0  0  0  0  0  0  0  0  0  0  0
  -27.6409  -31.9145   25.6741 C   0  0  0  0  0  0  0  0  0  0  0  0
  -27.7703  -12.9658   18.4188 C   0  0  0  0  0  0  0  0  0  0  0  0
  -29.8242  -14.3428   17.8632 C   0  0  0  0  0  0  0  0  0  0  0  0
  -28.2526  -15.1445   19.5986 C   0  0  0  0  0  0  0  0  0  0  0  0
  -28.0157  -32.3259   24.2452 C   0  0  1  0  0  0  0  0  0  0  0  0
  -25.3701  -30.9811   21.8734 C   0  0  1  0  0  0  0  0  0  0  0  0
  -27.6388  -13.7429   19.7406 C   0  0  1  0  0  0  0  0  0  0  0  0
  -29.1273  -22.7935   20.0915 C   0  0  0  0  0  0  0  0  0  0  0  0
  -18.1218  -28.7525   23.4542 C   0  0  0  0  0  0  0  0  0  0  0  0
  -24.1386  -29.5726   26.0995 C   0  0  0  0  0  0  0  0  0  0  0  0
  -21.8116  -28.6709   26.3004 C   0  0  0  0  0  0  0  0  0  0  0  0
  -22.1786  -31.1250   26.0447 C   0  0  0  0  0  0  0  0  0  0  0  0
  -31.0713  -16.7051   22.0986 C   0  0  0  0  0  0  0  0  0  0  0  0
  -19.7086  -29.0430   20.0084 C   0  0  0  0  0  0  0  0  0  0  0  0
  -27.2995  -24.7702   18.3291 C   0  0  0  0  0  0  0  0  0  1  0  0
  -22.5537  -29.6023   24.0615 C   0  0  1  0  0  0  0  0  0  0  0  0
  -19.1503  -29.2206   22.4365 C   0  0  2  0  0  0  0  0  0  0  0  0
  -22.6874  -29.7349   25.6049 C   0  0  0  0  0  0  0  0  0  0  0  0
  -25.4341  -14.8412   19.8607 N   0  0  0  0  0  0  0  0  0  0  0  0
  -27.9592  -21.1600   18.6022 N   0  0  0  0  0  0  0  0  0  0  0  0
  -26.2005  -13.7975   20.2206 N   0  0  0  0  0  0  0  0  0  0  0  0
  -24.3817  -30.0750   22.4619 N   0  0  0  0  0  0  0  0  0  0  0  0
  -29.6389  -15.0598   19.1327 N   0  0  0  0  0  0  0  0  0  0  0  0
  -26.1800  -11.7755   21.4541 N   0  0  0  0  0  0  0  0  0  0  0  0
  -21.9861  -13.3639   21.9872 N   0  0  0  0  0  0  0  0  0  0  0  0
  -26.8888  -32.1453   23.3552 N   0  0  0  0  0  0  0  0  0  0  0  0
  -21.1943  -29.7785   23.5621 N   0  0  0  0  0  0  0  0  0  0  0  0
  -30.4506  -16.5991   20.7737 N   0  0  0  0  0  0  0  0  0  0  0  0
  -18.7932  -28.6454   21.1088 N   0  3  0  0  0  0  0  0  0  0  0  0
  -23.4135  -11.6548   22.5352 O   0  0  0  0  0  0  0  0  0  0  0  0
  -27.2002  -29.8857   22.8862 O   0  0  0  0  0  0  0  0  0  0  0  0
  -23.2146  -31.8089   23.4952 O   0  0  0  0  0  0  0  0  0  0  0  0
  -21.0309  -27.7069   22.5331 O   0  0  0  0  0  0  0  0  0  0  0  0
  -31.7396  -14.8063   20.0657 O   0  0  0  0  0  0  0  0  0  0  0  0
  -26.6459  -20.0171   17.0135 O   0  0  0  0  0  0  0  0  0  0  0  0
  -19.9561  -18.0877   19.8425 O   0  0  0  0  0  0  0  0  0  0  0  0
  -26.5440  -25.1222   19.4874 O   0  0  0  0  0  0  0  0  0  1  0  0
  -20.9524  -23.4782   20.4372 F   0  0  0  0  0  0  0  0  0  0  0  0
  -18.6666  -19.5616   21.7938 F   0  0  0  0  0  0  0  0  0  0  0  0
  1  2  1  0  0  0  0
  1  5  2  0  0  0  0
  2  6  2  0  0  0  0
  3 12  2  0  0  0  0
  3 20  1  0  0  0  0
  4 13  1  0  0  0  0
  4 20  2  0  0  0  0
  5 22  1  0  0  0  0
  6 24  1  0  0  0  0
  7 14  2  0  0  0  0
  7 23  1  0  0  0  0
  8 10  2  0  0  0  0
  8 27  1  0  0  0  0
  9 11  1  0  0  0  0
  9 27  2  0  0  0  0
 10 28  1  0  0  0  0
 11 28  2  0  0  0  0
 12 29  1  0  0  0  0
 13 29  2  0  0  0  0
 14 30  1  0  0  0  0
 15 16  2  0  0  0  0
 15 31  1  0  0  0  0
 16 32  1  0  0  0  0
 17 25  1  0  0  0  0
 17 30  2  0  0  0  0
 18 26  1  0  0  0  0
 18 37  2  0  0  0  0
 19 32  2  0  0  0  0
 19 33  1  0  0  0  0
 20 34  1  0  0  0  0
 21 34  1  0  0  0  0
 21 36  2  0  0  0  0
 21 38  1  0  0  0  0
 22 24  2  0  0  0  0
 22 43  1  0  0  0  0
 23 25  2  0  0  0  0
 23 44  1  0  0  0  0
 24 52  1  0  0  0  0
 25 45  1  0  0  0  0
 26 35  2  0  0  0  0
 26 62  1  0  0  0  0
 27 67  1  0  0  0  0
 28 75  1  0  0  0  0
 29 83  1  0  0  0  0
 30 84  1  0  0  0  0
 31 33  2  0  0  0  0
 31 83  1  0  0  0  0
 32 85  1  0  0  0  0
 33 86  1  0  0  0  0
 34 66  2  0  0  0  0
 35 55  1  0  0  0  0
 35 67  1  0  0  0  0
 36 68  1  0  0  0  0
 36 71  1  0  0  0  0
 37 67  1  0  0  0  0
 37 82  1  0  0  0  0
 38 72  1  0  0  0  0
 38 77  2  0  0  0  0
 39 53  1  0  0  0  0
 39 73  1  0  0  0  0
 39 78  2  0  0  0  0
 40 63  1  0  0  0  0
 40 69  1  0  0  0  0
 40 79  2  0  0  0  0
 41 64  1  0  0  0  0
 41 74  1  0  0  0  0
 41 80  2  0  0  0  0
 42 70  1  0  0  0  0
 42 75  1  0  0  0  0
 42 81  2  0  0  0  0
 43 46  1  0  0  0  0
 44 53  1  0  0  0  0
 45 69  1  0  0  0  0
 46 48  1  0  0  0  0
 47 49  1  0  0  0  0
 47 50  1  0  0  0  0
 48 52  1  0  0  0  0
 49 54  1  0  0  0  0
 50 70  1  0  0  0  0
 51 54  1  0  0  0  0
 51 70  1  0  0  0  0
 52 73  1  0  0  0  0
 53 69  1  0  0  0  0
 54 68  1  0  0  0  0
 56 64  1  0  0  0  0
 57 65  1  0  0  0  0
 58 65  1  0  0  0  0
 59 65  1  0  0  0  0
 60 75  1  0  0  0  0
 61 76  1  0  0  0  0
 62 84  1  0  0  0  0
 63 65  1  0  0  0  0
 63 74  1  0  0  0  0
 64 76  1  0  0  0  0
 66 68  1  0  0  0  0
M  CHG  1  76   1
M  ISO  4  42 100  62 101  75 100  84 101
M  END
> <Batch ID>
0090

> <Smiles>
CNC(C)C(=O)NC(C(=O)N1Cc2cc([101O:1][101CH2:1]C3=C(C)N(c4ccc([100N:0](C)[100C:0](=O)N5CCCC(n6nc(-c7ccc(Oc8ccc(F)cc8F)cc7)c(C(N)=O)c6N)C5)cc4)C(=O)C3)ccc2CC1C(=O)NC1CCCc2ccccc21)C(C)(C)C

> <Shape>
0.289

> <Color>
0.106

> <Negative vol penalty>
0.000

$$$$

  -OEChem-04052300293D

 85 93  0     1  0  0  0  0  0999 V2000
  -23.6901  -30.9509   21.9224 C   0  0  0  0  0  0  0  0  0  0  0  0
  -23.0674  -30.0175   21.1000 C   0  0  0  0  0  0  0  0  0  0  0  0
  -23.3964  -14.5120   24.4665 C   0  0  0  0  0  0  0  0  0  0  0  0
  -23.1966  -15.8734   22.4806 C   0  0  0  0  0  0  0  0  0  0  0  0
  -25.0788  -31.0740   21.9085 C   0  0  0  0  0  0  0  0  0  0  0  0
  -23.8331  -29.2073   20.2623 C   0  0  0  0  0  0  0  0  0  0  0  0
  -23.9302  -22.6349   17.4145 C   0  0  0  0  0  0  0  0  0  0  0  0
  -28.6595  -16.0381   16.6184 C   0  0  0  0  0  0  0  0  0  0  0  0
  -27.7344  -16.6641   15.7830 C   0  0  0  0  0  0  0  0  0  0  0  0
  -22.5389  -15.3772   25.1459 C   0  0  0  0  0  0  0  0  0  0  0  0
  -22.3390  -16.7385   23.1600 C   0  0  0  0  0  0  0  0  0  0  0  0
  -24.0530  -21.9974   16.1807 C   0  0  0  0  0  0  0  0  0  0  0  0
  -19.0871  -16.8080   24.0771 C   0  0  0  0  0  0  0  0  0  0  0  0
  -17.9314  -17.2239   23.4161 C   0  0  0  0  0  0  0  0  0  0  0  0
  -26.4498  -22.2435   16.2988 C   0  0  0  0  0  0  0  0  0  0  0  0
  -28.8715  -18.7717   16.1033 C   0  0  0  0  0  0  0  0  0  0  0  0
  -18.6531  -19.5222   23.6004 C   0  0  0  0  0  0  0  0  0  0  0  0
  -23.7254  -14.7601   23.1339 C   0  0  0  0  0  0  0  0  0  0  0  0
  -24.2547  -12.7275   21.6861 C   0  0  0  0  0  0  0  0  0  0  0  0
  -25.8626  -30.2583   21.0772 C   0  0  0  0  0  0  0  0  0  0  0  0
  -25.0675  -23.0920   18.0957 C   0  0  0  0  0  0  0  0  0  0  0  0
  -25.2335  -29.3206   20.2362 C   0  0  0  0  0  0  0  0  0  0  0  0
  -26.3390  -22.8842   17.5423 C   0  0  0  0  0  0  0  0  0  0  0  0
  -29.6905  -16.7788   17.1964 C   0  0  0  0  0  0  0  0  0  0  0  0
  -27.8404  -18.0309   15.5254 C   0  0  0  0  0  0  0  0  0  0  0  0
  -22.0101  -16.4904   24.4927 C   0  0  0  0  0  0  0  0  0  0  0  0
  -25.3126  -21.8042   15.6213 C   0  0  0  0  0  0  0  0  0  0  0  0
  -20.0258  -17.7493   24.4999 C   0  0  0  0  0  0  0  0  0  0  0  0
  -17.7144  -18.5810   23.1777 C   0  0  0  0  0  0  0  0  0  0  0  0
  -29.7965  -18.1456   16.9388 C   0  0  0  0  0  0  0  0  0  0  0  0
  -19.8088  -19.1063   24.2615 C   0  0  0  0  0  0  0  0  0  0  0  0
  -24.6116  -13.8671   22.4316 C   0  0  0  0  0  0  0  0  0  0  0  0
  -25.4494  -12.2311   21.2246 C   0  0  0  0  0  0  0  0  0  0  0  0
  -22.9592  -12.1677   21.4333 C   0  0  0  0  0  0  0  0  0  0  0  0
  -26.1202  -25.9363   19.0472 C   0  0  0  0  0  0  0  0  0  0  0  0
  -28.4381  -24.1686   20.4701 C   0  0  0  0  0  0  0  0  0  0  0  0
  -25.8177  -18.0857   14.0265 C   0  0  0  0  0  0  0  0  0  0  0  0
  -30.2231  -21.2611   20.5550 C   0  0  0  0  0  0  0  0  0  0  0  0
  -30.7760  -14.7525   20.1662 C   0  0  0  0  0  0  0  0  0  0  0  0
  -27.3571  -30.4606   21.0619 C   0  0  0  0  0  0  0  0  0  0  0  0
  -24.9201  -23.7540   19.4383 C   0  0  0  0  0  0  0  0  0  0  0  0
  -27.5926  -23.3380   18.2428 C   0  0  0  0  0  0  0  0  0  0  0  0
  -28.1215  -29.3054   20.4204 C   0  0  0  0  0  0  0  0  0  0  0  0
  -30.0967  -12.0167   22.3412 C   0  0  0  0  0  0  0  0  0  0  0  0
  -27.4665  -28.8971   19.1047 C   0  0  0  0  0  0  0  0  0  0  0  0
  -28.5817  -12.0779   22.5437 C   0  0  0  0  0  0  0  0  0  0  0  0
  -30.7105  -13.4119   22.2483 C   0  0  0  0  0  0  0  0  0  0  0  0
  -28.5815  -14.3537   21.4395 C   0  0  0  0  0  0  0  0  0  0  0  0
  -26.0315  -28.4066   19.3318 C   0  0  1  0  0  0  0  0  0  0  0  0
  -26.1092  -24.6375   19.8026 C   0  0  1  0  0  0  0  0  0  0  0  0
  -27.9098  -12.9705   21.4831 C   0  0  2  0  0  0  0  0  0  0  0  0
  -32.0758  -20.1229   21.8078 C   0  0  0  0  0  0  0  0  0  0  0  0
  -30.4817  -25.9247   19.0383 C   0  0  0  0  0  0  0  0  0  0  0  0
  -32.2196  -24.1952   19.5455 C   0  0  0  0  0  0  0  0  0  0  0  0
  -31.0567  -25.3764   21.4097 C   0  0  0  0  0  0  0  0  0  0  0  0
  -28.4500  -19.0458   21.3961 C   0  0  0  0  0  0  0  0  0  0  0  0
  -30.6787  -16.1051   18.0877 C   0  0  0  0  0  0  0  0  0  0  0  0
  -24.4451  -20.2107   14.0837 C   0  0  0  0  0  0  0  0  0  1  0  0
  -29.7954  -23.6533   20.0561 C   0  0  1  0  0  0  0  0  0  0  0  0
  -25.0492  -19.1171   13.2090 C   0  0  2  0  0  0  0  0  0  0  0  0
  -30.5727  -20.3268   21.6993 C   0  0  2  0  0  0  0  0  0  0  0  0
  -30.8648  -24.7805   19.9980 C   0  0  0  0  0  0  0  0  0  0  0  0
  -25.9298  -14.0820   22.4457 N   0  0  0  0  0  0  0  0  0  0  0  0
  -26.4117  -13.0707   21.7034 N   0  0  0  0  0  0  0  0  0  0  0  0
  -27.3959  -23.9858   19.5502 N   0  0  0  0  0  0  0  0  0  0  0  0
  -30.0294  -14.2067   21.2234 N   0  0  0  0  0  0  0  0  0  0  0  0
  -25.7600  -11.1628   20.4601 N   0  0  0  0  0  0  0  0  0  0  0  0
  -21.8377  -12.8037   21.9830 N   0  0  0  0  0  0  0  0  0  0  0  0
  -26.9008  -18.6664   14.6794 N   0  0  0  0  0  0  0  0  0  0  0  0
  -26.0354  -27.0562   19.8523 N   0  0  0  0  0  0  0  0  0  0  0  0
  -30.1190  -22.5695   20.9776 N   0  0  0  0  0  0  0  0  0  0  0  0
  -30.0521  -15.4868   19.2348 N   0  0  0  0  0  0  0  0  0  0  0  0
  -23.9559  -18.4593   12.4365 N   0  3  0  0  0  0  0  0  0  0  0  0
  -29.9314  -18.9970   21.4966 N   0  3  0  0  0  0  0  0  0  0  0  0
  -22.8021  -11.1249   20.7541 O   0  0  0  0  0  0  0  0  0  0  0  0
  -26.2012  -25.9235   17.8245 O   0  0  0  0  0  0  0  0  0  0  0  0
  -28.3060  -24.7069   21.5721 O   0  0  0  0  0  0  0  0  0  0  0  0
  -25.4721  -16.9084   14.0632 O   0  0  0  0  0  0  0  0  0  0  0  0
  -30.0624  -20.8699   19.4010 O   0  0  0  0  0  0  0  0  0  0  0  0
  -31.9965  -14.5924   20.0573 O   0  0  0  0  0  0  0  0  0  0  0  0
  -21.1731  -17.3347   25.1553 O   0  0  0  0  0  0  0  0  0  0  0  0
  -25.4352  -21.1828   14.4168 O   0  0  0  0  0  0  0  0  0  1  0  0
  -16.6052  -18.9801   22.5416 F   0  0  0  0  0  0  0  0  0  0  0  0
  -30.7837  -18.8657   17.4895 F   0  0  0  0  0  0  0  0  0  0  0  0
  -20.7075  -20.0152   24.6642 F   0  0  0  0  0  0  0  0  0  0  0  0
  1  2  1  0  0  0  0
  1  5  2  0  0  0  0
  2  6  2  0  0  0  0
  3 10  2  0  0  0  0
  3 18  1  0  0  0  0
  4 11  1  0  0  0  0
  4 18  2  0  0  0  0
  5 20  1  0  0  0  0
  6 22  1  0  0  0  0
  7 12  2  0  0  0  0
  7 21  1  0  0  0  0
  8  9  2  0  0  0  0
  8 24  1  0  0  0  0
  9 25  1  0  0  0  0
 10 26  1  0  0  0  0
 11 26  2  0  0  0  0
 12 27  1  0  0  0  0
 13 14  2  0  0  0  0
 13 28  1  0  0  0  0
 14 29  1  0  0  0  0
 15 23  1  0  0  0  0
 15 27  2  0  0  0  0
 16 25  2  0  0  0  0
 16 30  1  0  0  0  0
 17 29  2  0  0  0  0
 17 31  1  0  0  0  0
 18 32  1  0  0  0  0
 19 32  1  0  0  0  0
 19 33  2  0  0  0  0
 19 34  1  0  0  0  0
 20 22  2  0  0  0  0
 20 40  1  0  0  0  0
 21 23  2  0  0  0  0
 21 41  1  0  0  0  0
 22 49  1  0  0  0  0
 23 42  1  0  0  0  0
 24 30  2  0  0  0  0
 24 57  1  0  0  0  0
 25 69  1  0  0  0  0
 26 81  1  0  0  0  0
 27 82  1  0  0  0  0
 28 31  2  0  0  0  0
 28 81  1  0  0  0  0
 29 83  1  0  0  0  0
 30 84  1  0  0  0  0
 31 85  1  0  0  0  0
 32 63  2  0  0  0  0
 33 64  1  0  0  0  0
 33 67  1  0  0  0  0
 34 68  1  0  0  0  0
 34 75  2  0  0  0  0
 35 50  1  0  0  0  0
 35 70  1  0  0  0  0
 35 76  2  0  0  0  0
 36 59  1  0  0  0  0
 36 65  1  0  0  0  0
 36 77  2  0  0  0  0
 37 60  1  0  0  0  0
 37 69  1  0  0  0  0
 37 78  2  0  0  0  0
 38 61  1  0  0  0  0
 38 71  1  0  0  0  0
 38 79  2  0  0  0  0
 39 66  1  0  0  0  0
 39 72  1  0  0  0  0
 39 80  2  0  0  0  0
 40 43  1  0  0  0  0
 41 50  1  0  0  0  0
 42 65  1  0  0  0  0
 43 45  1  0  0  0  0
 44 46  1  0  0  0  0
 44 47  1  0  0  0  0
 45 49  1  0  0  0  0
 46 51  1  0  0  0  0
 47 66  1  0  0  0  0
 48 51  1  0  0  0  0
 48 66  1  0  0  0  0
 49 70  1  0  0  0  0
 50 65  1  0  0  0  0
 51 64  1  0  0  0  0
 52 61  1  0  0  0  0
 53 62  1  0  0  0  0
 54 62  1  0  0  0  0
 55 62  1  0  0  0  0
 56 74  1  0  0  0  0
 57 72  1  0  0  0  0
 58 60  1  0  0  0  0
 58 82  1  0  0  0  0
 59 62  1  0  0  0  0
 59 71  1  0  0  0  0
 60 73  1  0  0  0  0
 61 74  1  0  0  0  0
 63 64  1  0  0  0  0
M  CHG  2  73   1  74   1
M  ISO  4  39 100  58 101  72 100  82 101
M  END
> <Batch ID>
0090

> <Smiles>
CNC(C)C(=O)NC(C(=O)N1Cc2cc([101O:1][101CH2:1]C(N)C(=O)Nc3ccc(C[100NH:0][100C:0](=O)N4CCCC(n5nc(-c6ccc(Oc7ccc(F)cc7F)cc6)c(C(N)=O)c5N)C4)c(F)c3)ccc2CC1C(=O)NC1CCCc2ccccc21)C(C)(C)C

> <Shape>
0.181

> <Color>
0.079

> <Negative vol penalty>
0.000

$$$$

  -OEChem-04052300293D

 84 92  0     1  0  0  0  0  0999 V2000
  -16.7598  -30.1772   24.2049 C   0  0  0  0  0  0  0  0  0  0  0  0
  -17.9595  -30.6182   24.7541 C   0  0  0  0  0  0  0  0  0  0  0  0
  -34.2690  -28.1548   28.5115 C   0  0  0  0  0  0  0  0  0  0  0  0
  -29.3506  -22.9911   22.2967 C   0  0  0  0  0  0  0  0  0  0  0  0
  -27.4081  -21.5609   22.4320 C   0  0  0  0  0  0  0  0  0  0  0  0
  -33.3851  -27.5510   29.4058 C   0  0  0  0  0  0  0  0  0  0  0  0
  -16.7598  -29.1342   23.2797 C   0  0  0  0  0  0  0  0  0  0  0  0
  -19.1598  -30.0156   24.3792 C   0  0  0  0  0  0  0  0  0  0  0  0
  -26.0865  -31.5302   23.3573 C   0  0  0  0  0  0  0  0  0  0  0  0
  -33.8987  -28.3340   27.1787 C   0  0  0  0  0  0  0  0  0  0  0  0
  -29.9003  -22.1528   21.3269 C   0  0  0  0  0  0  0  0  0  0  0  0
  -27.9578  -20.7226   21.4621 C   0  0  0  0  0  0  0  0  0  0  0  0
  -27.3530  -31.0884   23.7373 C   0  0  0  0  0  0  0  0  0  0  0  0
  -30.2971  -18.2863   21.3109 C   0  0  0  0  0  0  0  0  0  0  0  0
  -30.2407  -16.9109   21.5359 C   0  0  0  0  0  0  0  0  0  0  0  0
  -31.7607  -27.3053   27.6343 C   0  0  0  0  0  0  0  0  0  0  0  0
  -27.2393  -29.3479   22.0708 C   0  0  0  0  0  0  0  0  0  0  0  0
  -28.9549  -16.6322   19.5095 C   0  0  0  0  0  0  0  0  0  0  0  0
  -28.1045  -22.6952   22.8493 C   0  0  0  0  0  0  0  0  0  0  0  0
  -32.1310  -27.1261   28.9672 C   0  0  0  0  0  0  0  0  0  0  0  0
  -26.7016  -24.6739   23.6392 C   0  0  0  0  0  0  0  0  0  0  0  0
  -17.9616  -28.5249   22.8860 C   0  0  0  0  0  0  0  0  0  0  0  0
  -25.3810  -30.8763   22.3369 C   0  0  0  0  0  0  0  0  0  0  0  0
  -19.1757  -28.9626   23.4489 C   0  0  0  0  0  0  0  0  0  0  0  0
  -25.9650  -29.7850   21.6780 C   0  0  0  0  0  0  0  0  0  0  0  0
  -32.6446  -27.9092   26.7401 C   0  0  0  0  0  0  0  0  0  0  0  0
  -29.2039  -21.0185   20.9095 C   0  0  0  0  0  0  0  0  0  0  0  0
  -27.9284  -29.9953   23.0960 C   0  0  0  0  0  0  0  0  0  0  0  0
  -29.6824  -18.8347   20.1853 C   0  0  0  0  0  0  0  0  0  0  0  0
  -29.5696  -16.0838   20.6351 C   0  0  0  0  0  0  0  0  0  0  0  0
  -29.0113  -18.0077   19.2846 C   0  0  0  0  0  0  0  0  0  0  0  0
  -27.5364  -23.5605   23.8516 C   0  0  0  0  0  0  0  0  0  0  0  0
  -26.4375  -25.1505   24.8999 C   0  0  0  0  0  0  0  0  0  0  0  0
  -31.1907  -26.4832   29.9208 C   0  0  0  0  0  0  0  0  0  0  0  0
  -26.2089  -25.2278   22.4119 C   0  0  0  0  0  0  0  0  0  0  0  0
  -22.6254  -29.3009   22.1689 C   0  0  0  0  0  0  0  0  0  0  0  0
  -23.2912  -29.2582   18.9944 C   0  0  0  0  0  0  0  0  0  0  0  0
  -31.0671  -27.7305   24.7847 C   0  0  0  0  0  0  0  0  0  0  0  0
  -25.6411  -29.4166   16.5247 C   0  0  0  0  0  0  0  0  0  0  0  0
  -29.3342  -24.8549   30.0819 C   0  0  0  0  0  0  0  0  0  0  0  0
  -17.9069  -27.3694   21.9183 C   0  0  0  0  0  0  0  0  0  0  0  0
  -24.0269  -31.3818   21.9206 C   0  0  0  0  0  0  0  0  0  0  0  0
  -25.2577  -29.0610   20.5627 C   0  0  0  0  0  0  0  0  0  0  0  0
  -19.2583  -27.0346   21.2923 C   0  0  0  0  0  0  0  0  0  0  0  0
  -26.0551  -23.6947   29.4510 C   0  0  0  0  0  0  0  0  0  0  0  0
  -20.3452  -26.9888   22.3616 C   0  0  0  0  0  0  0  0  0  0  0  0
  -25.9779  -23.6437   27.9227 C   0  0  0  0  0  0  0  0  0  0  0  0
  -27.4307  -23.2711   29.9641 C   0  0  0  0  0  0  0  0  0  0  0  0
  -28.4870  -23.9294   27.8407 C   0  0  0  0  0  0  0  0  0  0  0  0
  -20.5008  -28.3508   23.0488 C   0  0  1  0  0  0  0  0  0  0  0  0
  -23.1835  -30.3220   21.2184 C   0  0  1  0  0  0  0  0  0  0  0  0
  -27.1439  -24.4142   27.2714 C   0  0  1  0  0  0  0  0  0  0  0  0
  -25.8862  -29.3144   14.0293 C   0  0  0  0  0  0  0  0  0  0  0  0
  -22.9173  -26.2313   19.0841 C   0  0  0  0  0  0  0  0  0  0  0  0
  -24.0779  -26.0923   16.8701 C   0  0  0  0  0  0  0  0  0  0  0  0
  -21.9305  -27.3452   17.0741 C   0  0  0  0  0  0  0  0  0  0  0  0
  -26.7561  -32.1555   16.4058 C   0  0  0  0  0  0  0  0  0  0  0  0
  -31.0767  -28.1088   23.3079 C   0  0  0  0  0  0  0  0  0  0  0  0
  -29.6935  -28.4360   22.7659 C   0  0  0  0  0  0  0  0  0  1  0  0
  -24.0371  -28.3255   18.0710 C   0  0  1  0  0  0  0  0  0  0  0  0
  -25.6967  -30.2188   15.2371 C   0  0  2  0  0  0  0  0  0  0  0  0
  -23.2535  -27.0108   17.7971 C   0  0  0  0  0  0  0  0  0  0  0  0
  -27.7862  -23.3427   25.1455 N   0  0  0  0  0  0  0  0  0  0  0  0
  -27.1044  -24.3259   25.7575 N   0  0  0  0  0  0  0  0  0  0  0  0
  -23.9332  -29.5891   20.1962 N   0  0  0  0  0  0  0  0  0  0  0  0
  -28.4784  -24.0537   29.3060 N   0  0  0  0  0  0  0  0  0  0  0  0
  -25.7021  -26.1904   25.3476 N   0  0  0  0  0  0  0  0  0  0  0  0
  -26.5773  -24.6147   21.2067 N   0  0  0  0  0  0  0  0  0  0  0  0
  -32.2690  -28.0913   25.3878 N   0  0  0  0  0  0  0  0  0  0  0  0
  -30.2734  -25.5963   29.3564 N   0  0  0  0  0  0  0  0  0  0  0  0
  -21.2446  -29.2609   22.2044 N   0  0  0  0  0  0  0  0  0  0  0  0
  -24.3454  -29.0981   16.8724 N   0  0  0  0  0  0  0  0  0  0  0  0
  -26.8271  -31.1891   15.2797 N   0  3  0  0  0  0  0  0  0  0  0  0
  -31.2940  -26.7282   31.1196 O   0  0  0  0  0  0  0  0  0  0  0  0
  -25.4773  -26.2464   22.3840 O   0  0  0  0  0  0  0  0  0  0  0  0
  -23.3908  -28.6001   22.8206 O   0  0  0  0  0  0  0  0  0  0  0  0
  -22.1830  -29.6833   18.6586 O   0  0  0  0  0  0  0  0  0  0  0  0
  -30.1040  -27.1845   25.3125 O   0  0  0  0  0  0  0  0  0  0  0  0
  -26.6468  -29.1007   17.1566 O   0  0  0  0  0  0  0  0  0  0  0  0
  -29.2454  -24.9332   31.3113 O   0  0  0  0  0  0  0  0  0  0  0  0
  -29.7399  -20.2004   19.9630 O   0  0  0  0  0  0  0  0  0  0  0  0
  -29.1643  -29.5616   23.4654 O   0  0  0  0  0  0  0  0  0  1  0  0
  -29.5169  -14.7628   20.8504 F   0  0  0  0  0  0  0  0  0  0  0  0
  -28.4198  -18.5287   18.2008 F   0  0  0  0  0  0  0  0  0  0  0  0
  1  2  1  0  0  0  0
  1  7  2  0  0  0  0
  2  8  2  0  0  0  0
  3  6  1  0  0  0  0
  3 10  2  0  0  0  0
  4 11  2  0  0  0  0
  4 19  1  0  0  0  0
  5 12  1  0  0  0  0
  5 19  2  0  0  0  0
  6 20  2  0  0  0  0
  7 22  1  0  0  0  0
  8 24  1  0  0  0  0
  9 13  2  0  0  0  0
  9 23  1  0  0  0  0
 10 26  1  0  0  0  0
 11 27  1  0  0  0  0
 12 27  2  0  0  0  0
 13 28  1  0  0  0  0
 14 15  2  0  0  0  0
 14 29  1  0  0  0  0
 15 30  1  0  0  0  0
 16 20  1  0  0  0  0
 16 26  2  0  0  0  0
 17 25  1  0  0  0  0
 17 28  2  0  0  0  0
 18 30  2  0  0  0  0
 18 31  1  0  0  0  0
 19 32  1  0  0  0  0
 20 34  1  0  0  0  0
 21 32  1  0  0  0  0
 21 33  2  0  0  0  0
 21 35  1  0  0  0  0
 22 24  2  0  0  0  0
 22 41  1  0  0  0  0
 23 25  2  0  0  0  0
 23 42  1  0  0  0  0
 24 50  1  0  0  0  0
 25 43  1  0  0  0  0
 26 69  1  0  0  0  0
 27 81  1  0  0  0  0
 28 82  1  0  0  0  0
 29 31  2  0  0  0  0
 29 81  1  0  0  0  0
 30 83  1  0  0  0  0
 31 84  1  0  0  0  0
 32 63  2  0  0  0  0
 33 64  1  0  0  0  0
 33 67  1  0  0  0  0
 34 70  1  0  0  0  0
 34 74  2  0  0  0  0
 35 68  1  0  0  0  0
 35 75  2  0  0  0  0
 36 51  1  0  0  0  0
 36 71  1  0  0  0  0
 36 76  2  0  0  0  0
 37 60  1  0  0  0  0
 37 65  1  0  0  0  0
 37 77  2  0  0  0  0
 38 58  1  0  0  0  0
 38 69  1  0  0  0  0
 38 78  2  0  0  0  0
 39 61  1  0  0  0  0
 39 72  1  0  0  0  0
 39 79  2  0  0  0  0
 40 66  1  0  0  0  0
 40 70  1  0  0  0  0
 40 80  2  0  0  0  0
 41 44  1  0  0  0  0
 42 51  1  0  0  0  0
 43 65  1  0  0  0  0
 44 46  1  0  0  0  0
 45 47  1  0  0  0  0
 45 48  1  0  0  0  0
 46 50  1  0  0  0  0
 47 52  1  0  0  0  0
 48 66  1  0  0  0  0
 49 52  1  0  0  0  0
 49 66  1  0  0  0  0
 50 71  1  0  0  0  0
 51 65  1  0  0  0  0
 52 64  1  0  0  0  0
 53 61  1  0  0  0  0
 54 62  1  0  0  0  0
 55 62  1  0  0  0  0
 56 62  1  0  0  0  0
 57 73  1  0  0  0  0
 58 59  1  0  0  0  0
 59 82  1  0  0  0  0
 60 62  1  0  0  0  0
 60 72  1  0  0  0  0
 61 73  1  0  0  0  0
 63 64  1  0  0  0  0
M  CHG  1  73   1
M  ISO  4  40 100  59 101  70 100  82 101
M  END
> <Batch ID>
0090

> <Smiles>
CNC(C)C(=O)NC(C(=O)N1Cc2cc([101O:1][101CH2:1]CC(=O)Nc3cccc(C(=O)[100NH:0][100C:0](=O)N4CCCC(n5nc(-c6ccc(Oc7ccc(F)cc7F)cc6)c(C(N)=O)c5N)C4)c3)ccc2CC1C(=O)NC1CCCc2ccccc21)C(C)(C)C

> <Shape>
0.206

> <Color>
0.100

> <Negative vol penalty>
0.000

$$$$

  -OEChem-04052300293D

 85 94  0     1  0  0  0  0  0999 V2000
  -28.3725  -37.1054   18.3737 C   0  0  0  0  0  0  0  0  0  0  0  0
  -28.6624  -35.7454   18.3320 C   0  0  0  0  0  0  0  0  0  0  0  0
  -23.8651   -8.9460   21.0781 C   0  0  0  0  0  0  0  0  0  0  0  0
  -23.8365  -10.5499   22.8848 C   0  0  0  0  0  0  0  0  0  0  0  0
  -27.6433  -37.6292   19.4404 C   0  0  0  0  0  0  0  0  0  0  0  0
  -28.2241  -34.9085   19.3576 C   0  0  0  0  0  0  0  0  0  0  0  0
  -26.4091  -29.0829   18.8337 C   0  0  0  0  0  0  0  0  0  0  0  0
  -30.3604  -19.8483   20.0174 C   0  0  0  0  0  0  0  0  0  0  0  0
  -30.2533  -18.4687   19.8425 C   0  0  0  0  0  0  0  0  0  0  0  0
  -23.2884   -7.9917   21.9162 C   0  0  0  0  0  0  0  0  0  0  0  0
  -23.2598   -9.5956   23.7228 C   0  0  0  0  0  0  0  0  0  0  0  0
  -27.0633  -27.8727   19.0598 C   0  0  0  0  0  0  0  0  0  0  0  0
  -20.2118   -7.2623   23.1143 C   0  0  0  0  0  0  0  0  0  0  0  0
  -19.1576   -6.5043   22.6047 C   0  0  0  0  0  0  0  0  0  0  0  0
  -26.1124  -27.7793   21.2748 C   0  0  0  0  0  0  0  0  0  0  0  0
  -30.0233  -24.0308   20.7753 C   0  0  0  0  0  0  0  0  0  0  0  0
  -27.8851  -18.7052   19.4271 C   0  0  0  0  0  0  0  0  0  0  0  0
  -20.4343   -4.4853   22.9666 C   0  0  0  0  0  0  0  0  0  0  0  0
  -28.5460  -22.9649   19.4520 C   0  0  0  0  0  0  0  0  0  0  0  0
  -24.1392  -10.2251   21.5624 C   0  0  0  0  0  0  0  0  0  0  0  0
  -24.0658  -12.1320   19.8695 C   0  0  0  0  0  0  0  0  0  0  0  0
  -27.1876  -36.7967   20.4747 C   0  0  0  0  0  0  0  0  0  0  0  0
  -25.6090  -29.6569   19.8322 C   0  0  0  0  0  0  0  0  0  0  0  0
  -27.4893  -35.4218   20.4399 C   0  0  0  0  0  0  0  0  0  0  0  0
  -25.4471  -28.9956   21.0580 C   0  0  0  0  0  0  0  0  0  0  0  0
  -28.9492  -24.2139   19.8699 C   0  0  0  0  0  0  0  0  0  0  0  0
  -29.2298  -20.6565   19.8972 C   0  0  0  0  0  0  0  0  0  0  0  0
  -29.0157  -17.8971   19.5473 C   0  0  0  0  0  0  0  0  0  0  0  0
  -22.9857   -8.3165   23.2385 C   0  0  0  0  0  0  0  0  0  0  0  0
  -26.9174  -27.2221   20.2815 C   0  0  0  0  0  0  0  0  0  0  0  0
  -21.3773   -6.6318   23.5500 C   0  0  0  0  0  0  0  0  0  0  0  0
  -19.2688   -5.1159   22.5309 C   0  0  0  0  0  0  0  0  0  0  0  0
  -27.9922  -20.0849   19.6020 C   0  0  0  0  0  0  0  0  0  0  0  0
  -21.4885   -5.2433   23.4762 C   0  0  0  0  0  0  0  0  0  0  0  0
  -24.7354  -11.2112   20.6974 C   0  0  0  0  0  0  0  0  0  0  0  0
  -25.0721  -12.8395   19.2585 C   0  0  0  0  0  0  0  0  0  0  0  0
  -30.2439  -22.6754   20.8830 C   0  0  0  0  0  0  0  0  0  0  0  0
  -22.6598  -12.3303   19.6707 C   0  0  0  0  0  0  0  0  0  0  0  0
  -25.6880  -32.3701   21.4862 C   0  0  0  0  0  0  0  0  0  0  0  0
  -22.8298  -31.3178   22.6026 C   0  0  0  0  0  0  0  0  0  0  0  0
  -20.7502  -28.6814   23.2116 C   0  0  0  0  0  0  0  0  0  0  0  0
  -29.9309  -15.5519   19.4523 C   0  0  0  0  0  0  0  0  0  0  0  0
  -26.4435  -37.4164   21.6309 C   0  0  0  0  0  0  0  0  0  0  0  0
  -24.8886  -30.9495   19.5630 C   0  0  0  0  0  0  0  0  0  0  0  0
  -24.5832  -29.5597   22.1552 C   0  0  0  0  0  0  0  0  0  0  0  0
  -25.6940  -36.3997   22.4882 C   0  0  0  0  0  0  0  0  0  0  0  0
  -30.0634  -12.0100   19.1144 C   0  0  0  0  0  0  0  0  0  0  0  0
  -26.5883  -35.2049   22.8035 C   0  0  0  0  0  0  0  0  0  0  0  0
  -28.6340  -11.5622   19.4280 C   0  0  0  0  0  0  0  0  0  0  0  0
  -30.4917  -13.1903   19.9845 C   0  0  0  0  0  0  0  0  0  0  0  0
  -28.1486  -13.8919   20.2787 C   0  0  0  0  0  0  0  0  0  0  0  0
  -27.0100  -34.4776   21.5210 C   0  0  1  0  0  0  0  0  0  0  0  0
  -24.5107  -31.6994   20.8366 C   0  0  1  0  0  0  0  0  0  0  0  0
  -27.6494  -12.7471   19.3822 C   0  0  2  0  0  0  0  0  0  0  0  0
  -18.4954  -28.1304   24.1655 C   0  0  0  0  0  0  0  0  0  0  0  0
  -23.9323  -31.6986   25.4220 C   0  0  0  0  0  0  0  0  0  0  0  0
  -22.0575  -30.2738   26.2725 C   0  0  0  0  0  0  0  0  0  0  0  0
  -21.5598  -32.4305   25.1220 C   0  0  0  0  0  0  0  0  0  0  0  0
  -19.8070  -27.5614   20.6396 C   0  0  0  0  0  0  0  0  0  0  0  0
  -28.3583  -25.5257   19.4438 C   0  0  0  0  0  0  0  0  0  1  0  0
  -22.3850  -30.4634   23.7649 C   0  0  1  0  0  0  0  0  0  0  0  0
  -19.2786  -28.4678   22.9063 C   0  0  2  0  0  0  0  0  0  0  0  0
  -22.5016  -31.2066   25.1256 C   0  0  0  0  0  0  0  0  0  0  0  0
  -26.0644  -11.3211   20.6215 N   0  0  0  0  0  0  0  0  0  0  0  0
  -29.3403  -22.0373   20.0740 N   0  0  0  0  0  0  0  0  0  0  0  0
  -26.2380  -12.3193   19.7386 N   0  0  0  0  0  0  0  0  0  0  0  0
  -23.9045  -30.8291   21.8462 N   0  0  0  0  0  0  0  0  0  0  0  0
  -29.5139  -14.2763   19.8876 N   0  0  0  0  0  0  0  0  0  0  0  0
  -25.0646  -13.8494   18.3628 N   0  0  0  0  0  0  0  0  0  0  0  0
  -21.7638  -11.5169   20.3777 N   0  0  0  0  0  0  0  0  0  0  0  0
  -28.9077  -16.4956   19.3685 N   0  0  0  0  0  0  0  0  0  0  0  0
  -25.9280  -33.6519   21.0292 N   0  0  0  0  0  0  0  0  0  0  0  0
  -21.0357  -30.0100   23.4454 N   0  0  0  0  0  0  0  0  0  0  0  0
  -19.1080  -27.3517   21.9336 N   0  3  0  0  0  0  0  0  0  0  0  0
  -22.2115  -13.1920   18.8769 O   0  0  0  0  0  0  0  0  0  0  0  0
  -26.3301  -31.7696   22.3400 O   0  0  0  0  0  0  0  0  0  0  0  0
  -22.2407  -32.3763   22.3698 O   0  0  0  0  0  0  0  0  0  0  0  0
  -21.5642  -27.7612   23.2435 O   0  0  0  0  0  0  0  0  0  0  0  0
  -31.1041  -15.7824   19.1482 O   0  0  0  0  0  0  0  0  0  0  0  0
  -31.1343  -22.0013   21.6008 O   0  0  0  0  0  0  0  0  0  0  0  0
  -22.4227   -7.3856   24.0565 O   0  0  0  0  0  0  0  0  0  0  0  0
  -27.5553  -26.0411   20.5050 O   0  0  0  0  0  0  0  0  0  1  0  0
  -18.2558   -4.3880   22.0429 F   0  0  0  0  0  0  0  0  0  0  0  0
  -26.8966  -20.8494   19.4858 F   0  0  0  0  0  0  0  0  0  0  0  0
  -22.6052   -4.6319   23.8944 F   0  0  0  0  0  0  0  0  0  0  0  0
  1  2  1  0  0  0  0
  1  5  2  0  0  0  0
  2  6  2  0  0  0  0
  3 10  2  0  0  0  0
  3 20  1  0  0  0  0
  4 11  1  0  0  0  0
  4 20  2  0  0  0  0
  5 22  1  0  0  0  0
  6 24  1  0  0  0  0
  7 12  2  0  0  0  0
  7 23  1  0  0  0  0
  8  9  2  0  0  0  0
  8 27  1  0  0  0  0
  9 28  1  0  0  0  0
 10 29  1  0  0  0  0
 11 29  2  0  0  0  0
 12 30  1  0  0  0  0
 13 14  2  0  0  0  0
 13 31  1  0  0  0  0
 14 32  1  0  0  0  0
 15 25  1  0  0  0  0
 15 30  2  0  0  0  0
 16 26  1  0  0  0  0
 16 37  2  0  0  0  0
 17 28  2  0  0  0  0
 17 33  1  0  0  0  0
 18 32  2  0  0  0  0
 18 34  1  0  0  0  0
 19 26  2  0  0  0  0
 19 65  1  0  0  0  0
 20 35  1  0  0  0  0
 21 35  1  0  0  0  0
 21 36  2  0  0  0  0
 21 38  1  0  0  0  0
 22 24  2  0  0  0  0
 22 43  1  0  0  0  0
 23 25  2  0  0  0  0
 23 44  1  0  0  0  0
 24 52  1  0  0  0  0
 25 45  1  0  0  0  0
 26 60  1  0  0  0  0
 27 33  2  0  0  0  0
 27 65  1  0  0  0  0
 28 71  1  0  0  0  0
 29 81  1  0  0  0  0
 30 82  1  0  0  0  0
 31 34  2  0  0  0  0
 31 81  1  0  0  0  0
 32 83  1  0  0  0  0
 33 84  1  0  0  0  0
 34 85  1  0  0  0  0
 35 64  2  0  0  0  0
 36 66  1  0  0  0  0
 36 69  1  0  0  0  0
 37 65  1  0  0  0  0
 37 80  1  0  0  0  0
 38 70  1  0  0  0  0
 38 75  2  0  0  0  0
 39 53  1  0  0  0  0
 39 72  1  0  0  0  0
 39 76  2  0  0  0  0
 40 61  1  0  0  0  0
 40 67  1  0  0  0  0
 40 77  2  0  0  0  0
 41 62  1  0  0  0  0
 41 73  1  0  0  0  0
 41 78  2  0  0  0  0
 42 68  1  0  0  0  0
 42 71  1  0  0  0  0
 42 79  2  0  0  0  0
 43 46  1  0  0  0  0
 44 53  1  0  0  0  0
 45 67  1  0  0  0  0
 46 48  1  0  0  0  0
 47 49  1  0  0  0  0
 47 50  1  0  0  0  0
 48 52  1  0  0  0  0
 49 54  1  0  0  0  0
 50 68  1  0  0  0  0
 51 54  1  0  0  0  0
 51 68  1  0  0  0  0
 52 72  1  0  0  0  0
 53 67  1  0  0  0  0
 54 66  1  0  0  0  0
 55 62  1  0  0  0  0
 56 63  1  0  0  0  0
 57 63  1  0  0  0  0
 58 63  1  0  0  0  0
 59 74  1  0  0  0  0
 60 82  1  0  0  0  0
 61 63  1  0  0  0  0
 61 73  1  0  0  0  0
 62 74  1  0  0  0  0
 64 66  1  0  0  0  0
M  CHG  1  74   1
M  ISO  4  42 100  60 101  71 100  82 101
M  END
> <Batch ID>
0090

> <Smiles>
CNC(C)C(=O)NC(C(=O)N1Cc2cc([101O:1][101CH2:1]C3=CN(c4ccc([100NH:0][100C:0](=O)N5CCCC(n6nc(-c7ccc(Oc8ccc(F)cc8F)cc7)c(C(N)=O)c6N)C5)cc4F)C(=O)C3)ccc2CC1C(=O)NC1CCCc2ccccc21)C(C)(C)C

> <Shape>
0.326

> <Color>
0.095

> <Negative vol penalty>
0.000

$$$$

  -OEChem-04052300293D

 84 92  0     1  0  0  0  0  0999 V2000
  -26.8881  -35.6027   23.0406 C   0  0  0  0  0  0  0  0  0  0  0  0
  -27.3296  -34.3007   22.8274 C   0  0  0  0  0  0  0  0  0  0  0  0
  -23.9228   -9.6229   22.1447 C   0  0  0  0  0  0  0  0  0  0  0  0
  -24.3430  -11.2674   23.8640 C   0  0  0  0  0  0  0  0  0  0  0  0
  -30.7625  -20.0258   19.4692 C   0  0  0  0  0  0  0  0  0  0  0  0
  -25.6283  -35.8285   23.5935 C   0  0  0  0  0  0  0  0  0  0  0  0
  -26.5120  -33.2238   23.1682 C   0  0  0  0  0  0  0  0  0  0  0  0
  -26.3955  -29.6593   19.5729 C   0  0  0  0  0  0  0  0  0  0  0  0
  -30.5351  -18.6534   19.3677 C   0  0  0  0  0  0  0  0  0  0  0  0
  -23.4601   -8.7303   23.1115 C   0  0  0  0  0  0  0  0  0  0  0  0
  -23.8802  -10.3748   24.8308 C   0  0  0  0  0  0  0  0  0  0  0  0
  -27.4878  -28.7964   19.4963 C   0  0  0  0  0  0  0  0  0  0  0  0
  -20.6327   -8.2408   24.9001 C   0  0  0  0  0  0  0  0  0  0  0  0
  -19.4549   -7.5446   24.6287 C   0  0  0  0  0  0  0  0  0  0  0  0
  -28.3788  -20.4180   19.5056 C   0  0  0  0  0  0  0  0  0  0  0  0
  -26.2342  -27.1136   20.6863 C   0  0  0  0  0  0  0  0  0  0  0  0
  -20.6490   -5.4525   24.8138 C   0  0  0  0  0  0  0  0  0  0  0  0
  -24.3643  -10.8915   22.5209 C   0  0  0  0  0  0  0  0  0  0  0  0
  -29.6843  -20.9082   19.5382 C   0  0  0  0  0  0  0  0  0  0  0  0
  -24.0851  -12.7582   20.8049 C   0  0  0  0  0  0  0  0  0  0  0  0
  -24.7908  -34.7540   23.9322 C   0  0  0  0  0  0  0  0  0  0  0  0
  -25.2161  -29.2592   20.2175 C   0  0  0  0  0  0  0  0  0  0  0  0
  -25.2403  -33.4355   23.7274 C   0  0  0  0  0  0  0  0  0  0  0  0
  -25.1275  -27.9724   20.7675 C   0  0  0  0  0  0  0  0  0  0  0  0
  -29.2296  -18.1633   19.3351 C   0  0  0  0  0  0  0  0  0  0  0  0
  -23.4388   -9.1062   24.4545 C   0  0  0  0  0  0  0  0  0  0  0  0
  -27.4083  -27.5243   20.0555 C   0  0  0  0  0  0  0  0  0  0  0  0
  -21.8187   -7.5429   25.1282 C   0  0  0  0  0  0  0  0  0  0  0  0
  -19.4630   -6.1504   24.5856 C   0  0  0  0  0  0  0  0  0  0  0  0
  -28.1514  -19.0456   19.4041 C   0  0  0  0  0  0  0  0  0  0  0  0
  -21.8269   -6.1488   25.0851 C   0  0  0  0  0  0  0  0  0  0  0  0
  -24.8430  -11.8138   21.5228 C   0  0  0  0  0  0  0  0  0  0  0  0
  -24.9969  -13.3807   19.9879 C   0  0  0  0  0  0  0  0  0  0  0  0
  -29.9272  -22.3738   19.6464 C   0  0  0  0  0  0  0  0  0  0  0  0
  -22.6823  -13.0471   20.8708 C   0  0  0  0  0  0  0  0  0  0  0  0
  -23.5846  -30.2812   22.7468 C   0  0  0  0  0  0  0  0  0  0  0  0
  -29.2746  -24.5410   19.1858 C   0  0  0  0  0  0  0  0  0  0  0  0
  -21.4390  -28.0503   21.7762 C   0  0  0  0  0  0  0  0  0  0  0  0
  -20.8381  -25.1617   20.0609 C   0  0  0  0  0  0  0  0  0  0  0  0
  -29.9614  -15.7596   19.1526 C   0  0  0  0  0  0  0  0  0  0  0  0
  -23.4564  -35.0470   24.5711 C   0  0  0  0  0  0  0  0  0  0  0  0
  -24.0374  -30.1921   20.2683 C   0  0  0  0  0  0  0  0  0  0  0  0
  -23.8770  -27.4872   21.4526 C   0  0  0  0  0  0  0  0  0  0  0  0
  -22.5002  -33.8571   24.5574 C   0  0  0  0  0  0  0  0  0  0  0  0
  -29.8053  -12.2098   18.9248 C   0  0  0  0  0  0  0  0  0  0  0  0
  -23.2186  -32.5897   25.0093 C   0  0  0  0  0  0  0  0  0  0  0  0
  -28.4380  -11.8680   19.5213 C   0  0  0  0  0  0  0  0  0  0  0  0
  -30.4660  -13.3786   19.6537 C   0  0  0  0  0  0  0  0  0  0  0  0
  -28.2718  -14.2450   20.3637 C   0  0  0  0  0  0  0  0  0  0  0  0
  -24.3723  -32.2416   24.0609 C   0  0  1  0  0  0  0  0  0  0  0  0
  -23.0661  -29.8667   21.3988 C   0  0  1  0  0  0  0  0  0  0  0  0
  -27.5388  -13.1159   19.6210 C   0  0  2  0  0  0  0  0  0  0  0  0
  -31.1898  -22.8350   20.3483 C   0  0  0  0  0  0  0  0  0  0  0  0
  -18.9926  -23.5642   19.4784 C   0  0  0  0  0  0  0  0  0  0  0  0
  -21.5487  -26.8978   24.5993 C   0  0  0  0  0  0  0  0  0  0  0  0
  -20.4739  -24.8162   23.7163 C   0  0  0  0  0  0  0  0  0  0  0  0
  -19.2585  -26.9914   23.5990 C   0  0  0  0  0  0  0  0  0  0  0  0
  -21.1686  -25.6557   17.1617 C   0  0  0  0  0  0  0  0  0  0  0  0
  -28.1921  -25.2819   19.9418 C   0  0  0  0  0  0  0  0  0  1  0  0
  -21.2206  -26.5833   22.0578 C   0  0  1  0  0  0  0  0  0  0  0  0
  -19.7707  -24.7969   19.0451 C   0  0  2  0  0  0  0  0  0  0  0  0
  -20.6498  -26.3317   23.4819 C   0  0  0  0  0  0  0  0  0  0  0  0
  -26.1367  -11.8310   21.1909 N   0  0  0  0  0  0  0  0  0  0  0  0
  -29.0502  -23.1856   19.1338 N   0  0  0  0  0  0  0  0  0  0  0  0
  -26.1987  -12.7939   20.2554 N   0  0  0  0  0  0  0  0  0  0  0  0
  -22.7537  -28.4386   21.4820 N   0  0  0  0  0  0  0  0  0  0  0  0
  -29.5574  -14.5260   19.7056 N   0  0  0  0  0  0  0  0  0  0  0  0
  -24.8800  -14.3673   19.0739 N   0  0  0  0  0  0  0  0  0  0  0  0
  -21.8903  -12.3136   21.7647 N   0  0  0  0  0  0  0  0  0  0  0  0
  -29.0021  -16.7686   19.2313 N   0  0  0  0  0  0  0  0  0  0  0  0
  -23.8652  -31.6302   22.8512 N   0  0  0  0  0  0  0  0  0  0  0  0
  -20.3768  -26.0817   20.9786 N   0  0  0  0  0  0  0  0  0  0  0  0
  -20.3912  -24.5190   17.7189 N   0  3  0  0  0  0  0  0  0  0  0  0
  -22.1440  -13.9182   20.1462 O   0  0  0  0  0  0  0  0  0  0  0  0
  -23.7186  -29.4396   23.6274 O   0  0  0  0  0  0  0  0  0  0  0  0
  -30.2177  -25.1215   18.6545 O   0  0  0  0  0  0  0  0  0  0  0  0
  -20.4772  -28.8220   21.8088 O   0  0  0  0  0  0  0  0  0  0  0  0
  -21.9671  -24.6761   20.0445 O   0  0  0  0  0  0  0  0  0  0  0  0
  -31.0661  -15.9023   18.6222 O   0  0  0  0  0  0  0  0  0  0  0  0
  -22.9870   -8.2356   25.3982 O   0  0  0  0  0  0  0  0  0  0  0  0
  -28.4733  -26.6803   19.9827 O   0  0  0  0  0  0  0  0  0  1  0  0
  -18.3316   -5.4819   24.3266 F   0  0  0  0  0  0  0  0  0  0  0  0
  -26.8922  -18.5860   19.3731 F   0  0  0  0  0  0  0  0  0  0  0  0
  -22.9629   -5.4727   25.3046 F   0  0  0  0  0  0  0  0  0  0  0  0
  1  2  1  0  0  0  0
  1  6  2  0  0  0  0
  2  7  2  0  0  0  0
  3 10  2  0  0  0  0
  3 18  1  0  0  0  0
  4 11  1  0  0  0  0
  4 18  2  0  0  0  0
  5  9  2  0  0  0  0
  5 19  1  0  0  0  0
  6 21  1  0  0  0  0
  7 23  1  0  0  0  0
  8 12  2  0  0  0  0
  8 22  1  0  0  0  0
  9 25  1  0  0  0  0
 10 26  1  0  0  0  0
 11 26  2  0  0  0  0
 12 27  1  0  0  0  0
 13 14  2  0  0  0  0
 13 28  1  0  0  0  0
 14 29  1  0  0  0  0
 15 19  2  0  0  0  0
 15 30  1  0  0  0  0
 16 24  1  0  0  0  0
 16 27  2  0  0  0  0
 17 29  2  0  0  0  0
 17 31  1  0  0  0  0
 18 32  1  0  0  0  0
 19 34  1  0  0  0  0
 20 32  1  0  0  0  0
 20 33  2  0  0  0  0
 20 35  1  0  0  0  0
 21 23  2  0  0  0  0
 21 41  1  0  0  0  0
 22 24  2  0  0  0  0
 22 42  1  0  0  0  0
 23 50  1  0  0  0  0
 24 43  1  0  0  0  0
 25 30  2  0  0  0  0
 25 70  1  0  0  0  0
 26 80  1  0  0  0  0
 27 81  1  0  0  0  0
 28 31  2  0  0  0  0
 28 80  1  0  0  0  0
 29 82  1  0  0  0  0
 30 83  1  0  0  0  0
 31 84  1  0  0  0  0
 32 63  2  0  0  0  0
 33 65  1  0  0  0  0
 33 68  1  0  0  0  0
 34 53  1  0  0  0  0
 34 64  2  0  0  0  0
 35 69  1  0  0  0  0
 35 74  2  0  0  0  0
 36 51  1  0  0  0  0
 36 71  1  0  0  0  0
 36 75  2  0  0  0  0
 37 59  1  0  0  0  0
 37 64  1  0  0  0  0
 37 76  2  0  0  0  0
 38 60  1  0  0  0  0
 38 66  1  0  0  0  0
 38 77  2  0  0  0  0
 39 61  1  0  0  0  0
 39 72  1  0  0  0  0
 39 78  2  0  0  0  0
 40 67  1  0  0  0  0
 40 70  1  0  0  0  0
 40 79  2  0  0  0  0
 41 44  1  0  0  0  0
 42 51  1  0  0  0  0
 43 66  1  0  0  0  0
 44 46  1  0  0  0  0
 45 47  1  0  0  0  0
 45 48  1  0  0  0  0
 46 50  1  0  0  0  0
 47 52  1  0  0  0  0
 48 67  1  0  0  0  0
 49 52  1  0  0  0  0
 49 67  1  0  0  0  0
 50 71  1  0  0  0  0
 51 66  1  0  0  0  0
 52 65  1  0  0  0  0
 54 61  1  0  0  0  0
 55 62  1  0  0  0  0
 56 62  1  0  0  0  0
 57 62  1  0  0  0  0
 58 73  1  0  0  0  0
 59 81  1  0  0  0  0
 60 62  1  0  0  0  0
 60 72  1  0  0  0  0
 61 73  1  0  0  0  0
 63 65  1  0  0  0  0
M  CHG  1  73   1
M  ISO  4  40 100  59 101  70 100  81 101
M  END
> <Batch ID>
0090

> <Smiles>
C=C(NC(=O)[101CH2:1][101O:1]c1ccc2c(c1)CN(C(=O)C(NC(=O)C(C)NC)C(C)(C)C)C(C(=O)NC1CCCc3ccccc31)C2)c1ccc([100NH:0][100C:0](=O)N2CCCC(n3nc(-c4ccc(Oc5ccc(F)cc5F)cc4)c(C(N)=O)c3N)C2)c(F)c1

> <Shape>
0.345

> <Color>
0.155

> <Negative vol penalty>
0.000

$$$$

  -OEChem-04052300293D

 83 91  0     1  0  0  0  0  0999 V2000
  -32.1606  -34.7740   22.5672 C   0  0  0  0  0  0  0  0  0  0  0  0
  -31.8555  -33.4359   22.3393 C   0  0  0  0  0  0  0  0  0  0  0  0
  -23.9009   -9.7751   22.0253 C   0  0  0  0  0  0  0  0  0  0  0  0
  -24.4879  -11.2427   23.8525 C   0  0  0  0  0  0  0  0  0  0  0  0
  -31.1263  -20.0388   19.8782 C   0  0  0  0  0  0  0  0  0  0  0  0
  -31.3513  -35.5392   23.4060 C   0  0  0  0  0  0  0  0  0  0  0  0
  -30.7416  -32.8620   22.9509 C   0  0  0  0  0  0  0  0  0  0  0  0
  -28.0202  -30.0235   19.7599 C   0  0  0  0  0  0  0  0  0  0  0  0
  -30.8243  -18.6925   19.6736 C   0  0  0  0  0  0  0  0  0  0  0  0
  -23.4406   -8.8247   22.9365 C   0  0  0  0  0  0  0  0  0  0  0  0
  -24.0276  -10.2923   24.7638 C   0  0  0  0  0  0  0  0  0  0  0  0
  -28.5067  -28.7501   19.4673 C   0  0  0  0  0  0  0  0  0  0  0  0
  -20.6823   -8.3149   24.8245 C   0  0  0  0  0  0  0  0  0  0  0  0
  -19.4585   -7.7009   24.5581 C   0  0  0  0  0  0  0  0  0  0  0  0
  -28.7705  -20.5377   20.0736 C   0  0  0  0  0  0  0  0  0  0  0  0
  -26.9549  -27.7999   21.0512 C   0  0  0  0  0  0  0  0  0  0  0  0
  -20.5515   -5.5469   24.5028 C   0  0  0  0  0  0  0  0  0  0  0  0
  -24.4246  -10.9842   22.4833 C   0  0  0  0  0  0  0  0  0  0  0  0
  -30.0994  -20.9614   20.0783 C   0  0  0  0  0  0  0  0  0  0  0  0
  -24.1582  -13.0038   20.9478 C   0  0  0  0  0  0  0  0  0  0  0  0
  -30.2214  -34.9769   24.0206 C   0  0  0  0  0  0  0  0  0  0  0  0
  -27.0033  -30.1960   20.7100 C   0  0  0  0  0  0  0  0  0  0  0  0
  -29.9172  -33.6200   23.7998 C   0  0  0  0  0  0  0  0  0  0  0  0
  -26.4555  -29.0763   21.3522 C   0  0  0  0  0  0  0  0  0  0  0  0
  -29.4954  -18.2688   19.6689 C   0  0  0  0  0  0  0  0  0  0  0  0
  -23.5040   -9.0832   24.3057 C   0  0  0  0  0  0  0  0  0  0  0  0
  -27.9760  -27.6384   20.1151 C   0  0  0  0  0  0  0  0  0  0  0  0
  -21.8406   -7.5450   24.9299 C   0  0  0  0  0  0  0  0  0  0  0  0
  -19.3931   -6.3169   24.3973 C   0  0  0  0  0  0  0  0  0  0  0  0
  -28.4684  -19.1914   19.8689 C   0  0  0  0  0  0  0  0  0  0  0  0
  -21.7752   -6.1610   24.7691 C   0  0  0  0  0  0  0  0  0  0  0  0
  -24.9008  -11.9661   21.5425 C   0  0  0  0  0  0  0  0  0  0  0  0
  -25.0599  -13.6514   20.1391 C   0  0  0  0  0  0  0  0  0  0  0  0
  -29.5508  -24.4822   20.6781 C   0  0  0  0  0  0  0  0  0  0  0  0
  -30.4226  -22.4013   20.2970 C   0  0  0  0  0  0  0  0  0  0  0  0
  -22.7769  -13.3513   21.1119 C   0  0  0  0  0  0  0  0  0  0  0  0
  -26.7684  -31.7108   23.4945 C   0  0  0  0  0  0  0  0  0  0  0  0
  -23.6513  -30.8442   23.2599 C   0  0  0  0  0  0  0  0  0  0  0  0
  -21.3276  -28.7101   21.9587 C   0  0  0  0  0  0  0  0  0  0  0  0
  -30.0933  -15.8584   19.2460 C   0  0  0  0  0  0  0  0  0  0  0  0
  -29.4035  -35.8310   24.9566 C   0  0  0  0  0  0  0  0  0  0  0  0
  -26.4710  -31.5737   20.9948 C   0  0  0  0  0  0  0  0  0  0  0  0
  -25.3486  -29.2058   22.3652 C   0  0  0  0  0  0  0  0  0  0  0  0
  -28.0284  -35.2469   25.2695 C   0  0  0  0  0  0  0  0  0  0  0  0
  -29.7445  -12.3531   18.7283 C   0  0  0  0  0  0  0  0  0  0  0  0
  -28.1430  -33.7644   25.6100 C   0  0  0  0  0  0  0  0  0  0  0  0
  -28.3922  -12.0253   19.3654 C   0  0  0  0  0  0  0  0  0  0  0  0
  -30.4989  -13.4218   19.5172 C   0  0  0  0  0  0  0  0  0  0  0  0
  -28.3892  -14.3253   20.4127 C   0  0  0  0  0  0  0  0  0  0  0  0
  -28.7033  -32.9680   24.4254 C   0  0  1  0  0  0  0  0  0  0  0  0
  -25.7892  -31.6813   22.3553 C   0  0  1  0  0  0  0  0  0  0  0  0
  -27.5640  -13.3005   19.6173 C   0  0  2  0  0  0  0  0  0  0  0  0
  -18.8645  -28.2302   21.9779 C   0  0  0  0  0  0  0  0  0  0  0  0
  -23.9172  -29.6031   26.0346 C   0  0  0  0  0  0  0  0  0  0  0  0
  -21.7938  -28.3496   25.6010 C   0  0  0  0  0  0  0  0  0  0  0  0
  -21.7806  -30.8437   25.6470 C   0  0  0  0  0  0  0  0  0  0  0  0
  -21.0978  -29.1688   19.0440 C   0  0  0  0  0  0  0  0  0  0  0  0
  -28.4036  -25.4276   20.8805 C   0  0  0  0  0  0  0  0  0  1  0  0
  -22.8397  -29.6457   23.6887 C   0  0  1  0  0  0  0  0  0  0  0  0
  -19.9959  -28.9655   21.2763 C   0  0  2  0  0  0  0  0  0  0  0  0
  -22.6050  -29.6079   25.2252 C   0  0  0  0  0  0  0  0  0  0  0  0
  -26.1759  -11.9515   21.1453 N   0  0  0  0  0  0  0  0  0  0  0  0
  -29.3328  -23.2245   20.4840 N   0  0  0  0  0  0  0  0  0  0  0  0
  -26.2416  -12.9879   20.2923 N   0  0  0  0  0  0  0  0  0  0  0  0
  -24.8662  -30.5743   22.6141 N   0  0  0  0  0  0  0  0  0  0  0  0
  -29.6539  -14.6018   19.7136 N   0  0  0  0  0  0  0  0  0  0  0  0
  -24.9493  -14.7180   19.3190 N   0  0  0  0  0  0  0  0  0  0  0  0
  -21.9929  -12.5810   21.9815 N   0  0  0  0  0  0  0  0  0  0  0  0
  -29.1918  -16.9006   19.4601 N   0  0  0  0  0  0  0  0  0  0  0  0
  -27.6750  -32.7517   23.4303 N   0  0  0  0  0  0  0  0  0  0  0  0
  -21.6143  -29.6784   22.8977 N   0  0  0  0  0  0  0  0  0  0  0  0
  -20.0446  -28.5095   19.8583 N   0  3  0  0  0  0  0  0  0  0  0  0
  -31.6004  -22.7489   20.2951 O   0  0  0  0  0  0  0  0  0  0  0  0
  -22.2494  -14.3063   20.4928 O   0  0  0  0  0  0  0  0  0  0  0  0
  -26.7051  -30.8537   24.3680 O   0  0  0  0  0  0  0  0  0  0  0  0
  -23.2198  -31.9780   23.4830 O   0  0  0  0  0  0  0  0  0  0  0  0
  -22.0404  -27.7460   21.6887 O   0  0  0  0  0  0  0  0  0  0  0  0
  -31.1767  -15.9946   18.6718 O   0  0  0  0  0  0  0  0  0  0  0  0
  -23.0547   -8.1561   25.1952 O   0  0  0  0  0  0  0  0  0  0  0  0
  -28.4495  -26.3944   19.8318 O   0  0  0  0  0  0  0  0  0  1  0  0
  -18.2176   -5.7271   24.1430 F   0  0  0  0  0  0  0  0  0  0  0  0
  -27.1872  -18.7958   19.8659 F   0  0  0  0  0  0  0  0  0  0  0  0
  -22.8845   -5.4160   24.8705 F   0  0  0  0  0  0  0  0  0  0  0  0
  1  2  1  0  0  0  0
  1  6  2  0  0  0  0
  2  7  2  0  0  0  0
  3 10  2  0  0  0  0
  3 18  1  0  0  0  0
  4 11  1  0  0  0  0
  4 18  2  0  0  0  0
  5  9  2  0  0  0  0
  5 19  1  0  0  0  0
  6 21  1  0  0  0  0
  7 23  1  0  0  0  0
  8 12  2  0  0  0  0
  8 22  1  0  0  0  0
  9 25  1  0  0  0  0
 10 26  1  0  0  0  0
 11 26  2  0  0  0  0
 12 27  1  0  0  0  0
 13 14  2  0  0  0  0
 13 28  1  0  0  0  0
 14 29  1  0  0  0  0
 15 19  2  0  0  0  0
 15 30  1  0  0  0  0
 16 24  1  0  0  0  0
 16 27  2  0  0  0  0
 17 29  2  0  0  0  0
 17 31  1  0  0  0  0
 18 32  1  0  0  0  0
 19 35  1  0  0  0  0
 20 32  1  0  0  0  0
 20 33  2  0  0  0  0
 20 36  1  0  0  0  0
 21 23  2  0  0  0  0
 21 41  1  0  0  0  0
 22 24  2  0  0  0  0
 22 42  1  0  0  0  0
 23 50  1  0  0  0  0
 24 43  1  0  0  0  0
 25 30  2  0  0  0  0
 25 69  1  0  0  0  0
 26 79  1  0  0  0  0
 27 80  1  0  0  0  0
 28 31  2  0  0  0  0
 28 79  1  0  0  0  0
 29 81  1  0  0  0  0
 30 82  1  0  0  0  0
 31 83  1  0  0  0  0
 32 62  2  0  0  0  0
 33 64  1  0  0  0  0
 33 67  1  0  0  0  0
 34 58  1  0  0  0  0
 34 63  2  0  0  0  0
 35 63  1  0  0  0  0
 35 73  2  0  0  0  0
 36 68  1  0  0  0  0
 36 74  2  0  0  0  0
 37 51  1  0  0  0  0
 37 70  1  0  0  0  0
 37 75  2  0  0  0  0
 38 59  1  0  0  0  0
 38 65  1  0  0  0  0
 38 76  2  0  0  0  0
 39 60  1  0  0  0  0
 39 71  1  0  0  0  0
 39 77  2  0  0  0  0
 40 66  1  0  0  0  0
 40 69  1  0  0  0  0
 40 78  2  0  0  0  0
 41 44  1  0  0  0  0
 42 51  1  0  0  0  0
 43 65  1  0  0  0  0
 44 46  1  0  0  0  0
 45 47  1  0  0  0  0
 45 48  1  0  0  0  0
 46 50  1  0  0  0  0
 47 52  1  0  0  0  0
 48 66  1  0  0  0  0
 49 52  1  0  0  0  0
 49 66  1  0  0  0  0
 50 70  1  0  0  0  0
 51 65  1  0  0  0  0
 52 64  1  0  0  0  0
 53 60  1  0  0  0  0
 54 61  1  0  0  0  0
 55 61  1  0  0  0  0
 56 61  1  0  0  0  0
 57 72  1  0  0  0  0
 58 80  1  0  0  0  0
 59 61  1  0  0  0  0
 59 71  1  0  0  0  0
 60 72  1  0  0  0  0
 62 64  1  0  0  0  0
M  CHG  1  72   1
M  ISO  4  40 100  58 101  69 100  80 101
M  END
> <Batch ID>
0090

> <Smiles>
CNC(C)C(=O)NC(C(=O)N1Cc2cc([101O:1][101CH:1]=CNC(=O)c3ccc([100NH:0][100C:0](=O)N4CCCC(n5nc(-c6ccc(Oc7ccc(F)cc7F)cc6)c(C(N)=O)c5N)C4)c(F)c3)ccc2CC1C(=O)NC1CCCc2ccccc21)C(C)(C)C

> <Shape>
0.308

> <Color>
0.144

> <Negative vol penalty>
0.000

$$$$

  -OEChem-04052300293D

 84 92  0     1  0  0  0  0  0999 V2000
  -25.8985  -31.5351   34.2920 C   0  0  0  0  0  0  0  0  0  0  0  0
  -26.0672  -30.2233   33.8604 C   0  0  0  0  0  0  0  0  0  0  0  0
  -32.6551  -17.4736   23.4828 C   0  0  0  0  0  0  0  0  0  0  0  0
  -23.0764   -9.8734   19.9274 C   0  0  0  0  0  0  0  0  0  0  0  0
  -23.8428   -9.8595   22.2186 C   0  0  0  0  0  0  0  0  0  0  0  0
  -25.6526  -32.5467   33.3646 C   0  0  0  0  0  0  0  0  0  0  0  0
  -25.9889  -29.9222   32.5011 C   0  0  0  0  0  0  0  0  0  0  0  0
  -29.2034  -25.6739   29.4805 C   0  0  0  0  0  0  0  0  0  0  0  0
  -31.8609  -18.3331   24.2417 C   0  0  0  0  0  0  0  0  0  0  0  0
  -32.0628  -16.5986   22.5721 C   0  0  0  0  0  0  0  0  0  0  0  0
  -22.3347   -8.7170   20.1685 C   0  0  0  0  0  0  0  0  0  0  0  0
  -23.1010   -8.7031   22.4597 C   0  0  0  0  0  0  0  0  0  0  0  0
  -28.8970  -24.3737   29.0814 C   0  0  0  0  0  0  0  0  0  0  0  0
  -19.8756   -7.8955   23.0637 C   0  0  0  0  0  0  0  0  0  0  0  0
  -19.1220   -7.8435   24.2363 C   0  0  0  0  0  0  0  0  0  0  0  0
  -28.2782  -25.1957   26.8995 C   0  0  0  0  0  0  0  0  0  0  0  0
  -20.3679   -5.9007   24.9508 C   0  0  0  0  0  0  0  0  0  0  0  0
  -23.8305  -10.4447   20.9525 C   0  0  0  0  0  0  0  0  0  0  0  0
  -24.1689  -12.9713   20.8555 C   0  0  0  0  0  0  0  0  0  0  0  0
  -25.5809  -32.2594   31.9923 C   0  0  0  0  0  0  0  0  0  0  0  0
  -29.0389  -26.7480   28.5940 C   0  0  0  0  0  0  0  0  0  0  0  0
  -25.7405  -30.9307   31.5546 C   0  0  0  0  0  0  0  0  0  0  0  0
  -28.5857  -26.5082   27.2890 C   0  0  0  0  0  0  0  0  0  0  0  0
  -30.4744  -18.3176   24.0902 C   0  0  0  0  0  0  0  0  0  0  0  0
  -30.6763  -16.5831   22.4205 C   0  0  0  0  0  0  0  0  0  0  0  0
  -22.3470   -8.1319   21.4347 C   0  0  0  0  0  0  0  0  0  0  0  0
  -28.4316  -24.1347   27.7917 C   0  0  0  0  0  0  0  0  0  0  0  0
  -20.8753   -6.9501   22.8346 C   0  0  0  0  0  0  0  0  0  0  0  0
  -19.3682   -6.8461   25.1799 C   0  0  0  0  0  0  0  0  0  0  0  0
  -21.1215   -5.9527   23.7782 C   0  0  0  0  0  0  0  0  0  0  0  0
  -29.8821  -17.4426   23.1795 C   0  0  0  0  0  0  0  0  0  0  0  0
  -24.5974  -11.6389   20.7039 C   0  0  0  0  0  0  0  0  0  0  0  0
  -25.2591  -13.7256   20.4963 C   0  0  0  0  0  0  0  0  0  0  0  0
  -29.1230  -22.1163   26.8332 C   0  0  0  0  0  0  0  0  0  1  0  0
  -22.8989  -13.4815   21.2829 C   0  0  0  0  0  0  0  0  0  0  0  0
  -28.9392  -20.8592   26.4120 C   0  0  0  0  0  0  0  0  0  0  0  0
  -30.0933  -20.1195   25.8043 C   0  0  0  0  0  0  0  0  0  0  0  0
  -27.2523  -29.3768   28.5625 C   0  0  0  0  0  0  0  0  0  0  0  0
  -28.9814  -30.0506   25.9020 C   0  0  0  0  0  0  0  0  0  0  0  0
  -30.8583  -28.8945   23.2966 C   0  0  0  0  0  0  0  0  0  0  0  0
  -30.7244  -14.7764   20.6655 C   0  0  0  0  0  0  0  0  0  0  0  0
  -25.2661  -33.3787   31.0318 C   0  0  0  0  0  0  0  0  0  0  0  0
  -29.3993  -28.1413   29.0314 C   0  0  0  0  0  0  0  0  0  0  0  0
  -28.4110  -27.6242   26.2926 C   0  0  0  0  0  0  0  0  0  0  0  0
  -25.5705  -33.0355   29.5758 C   0  0  0  0  0  0  0  0  0  0  0  0
  -29.6063  -12.3838   18.2776 C   0  0  0  0  0  0  0  0  0  0  0  0
  -25.0263  -31.6536   29.2280 C   0  0  0  0  0  0  0  0  0  0  0  0
  -28.1683  -12.0863   18.7084 C   0  0  0  0  0  0  0  0  0  0  0  0
  -30.5245  -12.6023   19.4787 C   0  0  0  0  0  0  0  0  0  0  0  0
  -28.6206  -13.3112   20.8722 C   0  0  0  0  0  0  0  0  0  0  0  0
  -25.6873  -30.5683   30.0863 C   0  0  1  0  0  0  0  0  0  0  0  0
  -28.7049  -29.2236   28.2104 C   0  0  1  0  0  0  0  0  0  0  0  0
  -27.6447  -13.1479   19.6955 C   0  0  2  0  0  0  0  0  0  0  0  0
  -32.1039  -29.6804   21.2648 C   0  0  0  0  0  0  0  0  0  0  0  0
  -26.3356  -30.4349   24.4316 C   0  0  0  0  0  0  0  0  0  0  0  0
  -27.5919  -30.2709   22.2722 C   0  0  0  0  0  0  0  0  0  0  0  0
  -28.0960  -32.1198   23.8691 C   0  0  0  0  0  0  0  0  0  0  0  0
  -33.4294  -27.8517   24.3266 C   0  0  0  0  0  0  0  0  0  0  0  0
  -28.8292  -29.7655   24.4273 C   0  0  1  0  0  0  0  0  0  0  0  0
  -32.1995  -29.3426   22.7445 C   0  0  2  0  0  0  0  0  0  0  0  0
  -27.7145  -30.6268   23.7692 C   0  0  0  0  0  0  0  0  0  0  0  0
  -25.8612  -11.5487   20.2812 N   0  0  0  0  0  0  0  0  0  0  0  0
  -26.2361  -12.8339   20.1640 N   0  0  0  0  0  0  0  0  0  0  0  0
  -28.7707  -28.9697   26.7698 N   0  0  0  0  0  0  0  0  0  0  0  0
  -29.9668  -13.6241   20.3675 N   0  0  0  0  0  0  0  0  0  0  0  0
  -25.4676  -15.0579   20.4354 N   0  0  0  0  0  0  0  0  0  0  0  0
  -21.8891  -12.5678   21.6144 N   0  0  0  0  0  0  0  0  0  0  0  0
  -29.6714  -19.1915   24.8621 N   0  0  0  0  0  0  0  0  0  0  0  0
  -30.0782  -15.6928   21.4945 N   0  0  0  0  0  0  0  0  0  0  0  0
  -27.0135  -30.2694   29.5899 N   0  0  0  0  0  0  0  0  0  0  0  0
  -30.1512  -29.9473   23.8378 N   0  0  0  0  0  0  0  0  0  0  0  0
  -33.2160  -28.2665   22.9162 N   0  3  0  0  0  0  0  0  0  0  0  0
  -22.6613  -14.7112   21.3526 O   0  0  0  0  0  0  0  0  0  0  0  0
  -31.2460  -20.3590   26.1475 O   0  0  0  0  0  0  0  0  0  0  0  0
  -26.4103  -28.7339   27.9465 O   0  0  0  0  0  0  0  0  0  0  0  0
  -29.2835  -31.1886   26.2699 O   0  0  0  0  0  0  0  0  0  0  0  0
  -30.4746  -27.7279   23.2490 O   0  0  0  0  0  0  0  0  0  0  0  0
  -31.8520  -14.9510   20.1963 O   0  0  0  0  0  0  0  0  0  0  0  0
  -27.7249  -20.2116   26.5159 O   0  0  0  0  0  0  0  0  0  0  0  0
  -21.6231   -7.0036   21.6703 O   0  0  0  0  0  0  0  0  0  0  0  0
  -28.1312  -22.8667   27.3997 O   0  0  0  0  0  0  0  0  0  1  0  0
  -18.6455   -6.7972   26.3066 F   0  0  0  0  0  0  0  0  0  0  0  0
  -22.0813   -5.0424   23.5642 F   0  0  0  0  0  0  0  0  0  0  0  0
  -28.5480  -17.4271   23.0345 F   0  0  0  0  0  0  0  0  0  0  0  0
  1  2  1  0  0  0  0
  1  6  2  0  0  0  0
  2  7  2  0  0  0  0
  3  9  2  0  0  0  0
  3 10  1  0  0  0  0
  4 11  2  0  0  0  0
  4 18  1  0  0  0  0
  5 12  1  0  0  0  0
  5 18  2  0  0  0  0
  6 20  1  0  0  0  0
  7 22  1  0  0  0  0
  8 13  2  0  0  0  0
  8 21  1  0  0  0  0
  9 24  1  0  0  0  0
 10 25  2  0  0  0  0
 11 26  1  0  0  0  0
 12 26  2  0  0  0  0
 13 27  1  0  0  0  0
 14 15  2  0  0  0  0
 14 28  1  0  0  0  0
 15 29  1  0  0  0  0
 16 23  1  0  0  0  0
 16 27  2  0  0  0  0
 17 29  2  0  0  0  0
 17 30  1  0  0  0  0
 18 32  1  0  0  0  0
 19 32  1  0  0  0  0
 19 33  2  0  0  0  0
 19 35  1  0  0  0  0
 20 22  2  0  0  0  0
 20 42  1  0  0  0  0
 21 23  2  0  0  0  0
 21 43  1  0  0  0  0
 22 51  1  0  0  0  0
 23 44  1  0  0  0  0
 24 31  2  0  0  0  0
 24 68  1  0  0  0  0
 25 31  1  0  0  0  0
 25 69  1  0  0  0  0
 26 80  1  0  0  0  0
 27 81  1  0  0  0  0
 28 30  2  0  0  0  0
 28 80  1  0  0  0  0
 29 82  1  0  0  0  0
 30 83  1  0  0  0  0
 31 84  1  0  0  0  0
 32 62  2  0  0  0  0
 33 63  1  0  0  0  0
 33 66  1  0  0  0  0
 34 36  2  0  0  0  0
 34 81  1  0  0  0  0
 35 67  1  0  0  0  0
 35 73  2  0  0  0  0
 36 37  1  0  0  0  0
 36 79  1  0  0  0  0
 37 68  1  0  0  0  0
 37 74  2  0  0  0  0
 38 52  1  0  0  0  0
 38 70  1  0  0  0  0
 38 75  2  0  0  0  0
 39 59  1  0  0  0  0
 39 64  1  0  0  0  0
 39 76  2  0  0  0  0
 40 60  1  0  0  0  0
 40 71  1  0  0  0  0
 40 77  2  0  0  0  0
 41 65  1  0  0  0  0
 41 69  1  0  0  0  0
 41 78  2  0  0  0  0
 42 45  1  0  0  0  0
 43 52  1  0  0  0  0
 44 64  1  0  0  0  0
 45 47  1  0  0  0  0
 46 48  1  0  0  0  0
 46 49  1  0  0  0  0
 47 51  1  0  0  0  0
 48 53  1  0  0  0  0
 49 65  1  0  0  0  0
 50 53  1  0  0  0  0
 50 65  1  0  0  0  0
 51 70  1  0  0  0  0
 52 64  1  0  0  0  0
 53 63  1  0  0  0  0
 54 60  1  0  0  0  0
 55 61  1  0  0  0  0
 56 61  1  0  0  0  0
 57 61  1  0  0  0  0
 58 72  1  0  0  0  0
 59 61  1  0  0  0  0
 59 71  1  0  0  0  0
 60 72  1  0  0  0  0
 62 63  1  0  0  0  0
M  CHG  1  72   1
M  ISO  4  34 101  41 100  69 100  81 101
M  END
> <Batch ID>
0090

> <Smiles>
CNC(C)C(=O)NC(C(=O)N1Cc2cc([101O:1][101CH2:1]C(=O)C(=O)Nc3cccc([100NH:0][100C:0](=O)N4CCCC(n5nc(-c6ccc(Oc7ccc(F)cc7F)cc6)c(C(N)=O)c5N)C4)c3F)ccc2CC1C(=O)NC1CCCc2ccccc21)C(C)(C)C

> <Shape>
0.199

> <Color>
0.188

> <Negative vol penalty>
0.000

$$$$

  -OEChem-04052300293D

 85 94  0     1  0  0  0  0  0999 V2000
  -30.8159  -34.7872   18.9072 C   0  0  0  0  0  0  0  0  0  0  0  0
  -30.4718  -33.4611   18.6657 C   0  0  0  0  0  0  0  0  0  0  0  0
  -31.3523  -19.3327   21.0522 C   0  0  0  0  0  0  0  0  0  0  0  0
  -23.2416   -9.5202   20.7615 C   0  0  0  0  0  0  0  0  0  0  0  0
  -23.2828  -10.9970   22.6731 C   0  0  0  0  0  0  0  0  0  0  0  0
  -30.5429  -35.3622   20.1476 C   0  0  0  0  0  0  0  0  0  0  0  0
  -29.8553  -32.7088   19.6650 C   0  0  0  0  0  0  0  0  0  0  0  0
  -25.6183  -28.3520   18.9087 C   0  0  0  0  0  0  0  0  0  0  0  0
  -30.3718  -20.3131   20.9010 C   0  0  0  0  0  0  0  0  0  0  0  0
  -31.0562  -18.0001   20.7655 C   0  0  0  0  0  0  0  0  0  0  0  0
  -22.4547   -8.6171   21.4762 C   0  0  0  0  0  0  0  0  0  0  0  0
  -22.4958  -10.0939   23.3878 C   0  0  0  0  0  0  0  0  0  0  0  0
  -25.7000  -26.9607   18.8704 C   0  0  0  0  0  0  0  0  0  0  0  0
  -22.9074   -6.2576   23.8536 C   0  0  0  0  0  0  0  0  0  0  0  0
  -23.2491   -4.9069   23.7865 C   0  0  0  0  0  0  0  0  0  0  0  0
  -25.1160  -26.8681   21.2091 C   0  0  0  0  0  0  0  0  0  0  0  0
  -21.0783   -4.4042   22.8524 C   0  0  0  0  0  0  0  0  0  0  0  0
  -23.6557  -10.7102   21.3600 C   0  0  0  0  0  0  0  0  0  0  0  0
  -24.0229  -12.7046   19.8124 C   0  0  0  0  0  0  0  0  0  0  0  0
  -29.9140  -34.6195   21.1594 C   0  0  0  0  0  0  0  0  0  0  0  0
  -25.2950  -29.0134   20.1022 C   0  0  0  0  0  0  0  0  0  0  0  0
  -29.5748  -33.2741   20.9206 C   0  0  0  0  0  0  0  0  0  0  0  0
  -25.0284  -28.2677   21.2593 C   0  0  0  0  0  0  0  0  0  0  0  0
  -29.0951  -19.9610   20.4631 C   0  0  0  0  0  0  0  0  0  0  0  0
  -29.7795  -17.6479   20.3277 C   0  0  0  0  0  0  0  0  0  0  0  0
  -22.0818   -8.9039   22.7893 C   0  0  0  0  0  0  0  0  0  0  0  0
  -25.4517  -26.2187   20.0214 C   0  0  0  0  0  0  0  0  0  0  0  0
  -21.6511   -6.6816   23.4203 C   0  0  0  0  0  0  0  0  0  0  0  0
  -22.3346   -3.9803   23.2859 C   0  0  0  0  0  0  0  0  0  0  0  0
  -20.7366   -5.7549   22.9197 C   0  0  0  0  0  0  0  0  0  0  0  0
  -28.7989  -18.6284   20.1765 C   0  0  0  0  0  0  0  0  0  0  0  0
  -24.4691  -11.6432   20.6225 C   0  0  0  0  0  0  0  0  0  0  0  0
  -25.1752  -13.2844   19.3407 C   0  0  0  0  0  0  0  0  0  0  0  0
  -26.9305  -22.9586   20.2573 C   0  0  0  0  0  0  0  0  0  0  0  0
  -28.2482  -22.3383   20.5586 C   0  0  0  0  0  0  0  0  0  0  0  0
  -26.7374  -24.2797   20.2622 C   0  0  0  0  0  0  0  0  0  1  0  0
  -22.6864  -13.1285   19.5131 C   0  0  0  0  0  0  0  0  0  0  0  0
  -26.7795  -31.1031   21.9818 C   0  0  0  0  0  0  0  0  0  0  0  0
  -23.9311  -31.1405   23.5333 C   0  0  0  0  0  0  0  0  0  0  0  0
  -21.0109  -29.5344   24.2682 C   0  0  0  0  0  0  0  0  0  0  0  0
  -30.3426  -15.2000   20.1356 C   0  0  0  0  0  0  0  0  0  0  0  0
  -29.6820  -35.2702   22.5001 C   0  0  0  0  0  0  0  0  0  0  0  0
  -25.1848  -30.5134   20.1204 C   0  0  0  0  0  0  0  0  0  0  0  0
  -24.6574  -28.9288   22.5608 C   0  0  0  0  0  0  0  0  0  0  0  0
  -25.9254  -21.9069   19.9414 C   0  0  0  0  0  0  0  0  0  0  0  0
  -28.6873  -34.5163   23.3790 C   0  0  0  0  0  0  0  0  0  0  0  0
  -29.9804  -11.7069   19.5490 C   0  0  0  0  0  0  0  0  0  0  0  0
  -29.0012  -33.0236   23.3811 C   0  0  0  0  0  0  0  0  0  0  0  0
  -28.4776  -11.4662   19.7094 C   0  0  0  0  0  0  0  0  0  0  0  0
  -26.7725  -20.6549   19.7852 C   0  0  0  0  0  0  0  0  0  0  0  0
  -30.4959  -12.7524   20.5364 C   0  0  0  0  0  0  0  0  0  0  0  0
  -28.2652  -13.7871   20.6869 C   0  0  0  0  0  0  0  0  0  0  0  0
  -28.8825  -32.4329   21.9709 C   0  0  1  0  0  0  0  0  0  0  0  0
  -25.3512  -31.1079   21.5155 C   0  0  1  0  0  0  0  0  0  0  0  0
  -27.6877  -12.7891   19.6699 C   0  0  2  0  0  0  0  0  0  0  0  0
  -18.8961  -29.7998   25.5928 C   0  0  0  0  0  0  0  0  0  0  0  0
  -25.4616  -30.5145   26.0977 C   0  0  0  0  0  0  0  0  0  0  0  0
  -23.2873  -29.8618   27.1534 C   0  0  0  0  0  0  0  0  0  0  0  0
  -23.6335  -32.2010   26.3591 C   0  0  0  0  0  0  0  0  0  0  0  0
  -19.3318  -29.3900   21.8353 C   0  0  0  0  0  0  0  0  0  0  0  0
  -23.3198  -30.3505   24.6652 C   0  0  1  0  0  0  0  0  0  0  0  0
  -19.5682  -30.0062   24.2443 C   0  0  2  0  0  0  0  0  0  0  0  0
  -23.9344  -30.7193   26.0450 C   0  0  0  0  0  0  0  0  0  0  0  0
  -25.8009  -11.5517   20.6651 N   0  0  0  0  0  0  0  0  0  0  0  0
  -26.2015  -12.5629   19.8758 N   0  0  0  0  0  0  0  0  0  0  0  0
  -28.0927  -20.9685   20.3092 N   0  0  0  0  0  0  0  0  0  0  0  0
  -24.5687  -30.3980   22.5294 N   0  0  0  0  0  0  0  0  0  0  0  0
  -29.7028  -13.9797   20.4395 N   0  0  0  0  0  0  0  0  0  0  0  0
  -25.4005  -14.3358   18.5245 N   0  0  0  0  0  0  0  0  0  0  0  0
  -21.6180  -12.4214   20.0815 N   0  0  0  0  0  0  0  0  0  0  0  0
  -29.4824  -16.2932   20.0375 N   0  0  0  0  0  0  0  0  0  0  0  0
  -27.4923  -32.2312   21.6229 N   0  0  0  0  0  0  0  0  0  0  0  0
  -21.8787  -30.5603   24.5778 N   0  0  0  0  0  0  0  0  0  0  0  0
  -18.7951  -29.2565   23.2142 N   0  3  0  0  0  0  0  0  0  0  0  0
  -29.2177  -22.9754   20.9352 O   0  0  0  0  0  0  0  0  0  0  0  0
  -22.4463  -14.0953   18.7508 O   0  0  0  0  0  0  0  0  0  0  0  0
  -27.2032  -30.1475   22.6213 O   0  0  0  0  0  0  0  0  0  0  0  0
  -23.8398  -32.3707   23.5361 O   0  0  0  0  0  0  0  0  0  0  0  0
  -21.3353  -28.3713   24.0390 O   0  0  0  0  0  0  0  0  0  0  0  0
  -31.5601  -15.2651   19.9475 O   0  0  0  0  0  0  0  0  0  0  0  0
  -21.3137   -8.0230   23.4869 O   0  0  0  0  0  0  0  0  0  0  0  0
  -25.5314  -24.8606   19.9870 O   0  0  0  0  0  0  0  0  0  1  0  0
  -22.6634   -2.6834   23.2200 F   0  0  0  0  0  0  0  0  0  0  0  0
  -19.5287   -6.1565   22.5007 F   0  0  0  0  0  0  0  0  0  0  0  0
  -27.5703  -18.2896   19.7562 F   0  0  0  0  0  0  0  0  0  0  0  0
  1  2  1  0  0  0  0
  1  6  2  0  0  0  0
  2  7  2  0  0  0  0
  3  9  2  0  0  0  0
  3 10  1  0  0  0  0
  4 11  2  0  0  0  0
  4 18  1  0  0  0  0
  5 12  1  0  0  0  0
  5 18  2  0  0  0  0
  6 20  1  0  0  0  0
  7 22  1  0  0  0  0
  8 13  2  0  0  0  0
  8 21  1  0  0  0  0
  9 24  1  0  0  0  0
 10 25  2  0  0  0  0
 11 26  1  0  0  0  0
 12 26  2  0  0  0  0
 13 27  1  0  0  0  0
 14 15  2  0  0  0  0
 14 28  1  0  0  0  0
 15 29  1  0  0  0  0
 16 23  1  0  0  0  0
 16 27  2  0  0  0  0
 17 29  2  0  0  0  0
 17 30  1  0  0  0  0
 18 32  1  0  0  0  0
 19 32  1  0  0  0  0
 19 33  2  0  0  0  0
 19 37  1  0  0  0  0
 20 22  2  0  0  0  0
 20 42  1  0  0  0  0
 21 23  2  0  0  0  0
 21 43  1  0  0  0  0
 22 53  1  0  0  0  0
 23 44  1  0  0  0  0
 24 31  2  0  0  0  0
 24 66  1  0  0  0  0
 25 31  1  0  0  0  0
 25 71  1  0  0  0  0
 26 81  1  0  0  0  0
 27 82  1  0  0  0  0
 28 30  2  0  0  0  0
 28 81  1  0  0  0  0
 29 83  1  0  0  0  0
 30 84  1  0  0  0  0
 31 85  1  0  0  0  0
 32 64  2  0  0  0  0
 33 65  1  0  0  0  0
 33 69  1  0  0  0  0
 34 35  1  0  0  0  0
 34 36  2  0  0  0  0
 34 45  1  0  0  0  0
 35 66  1  0  0  0  0
 35 75  2  0  0  0  0
 36 82  1  0  0  0  0
 37 70  1  0  0  0  0
 37 76  2  0  0  0  0
 38 54  1  0  0  0  0
 38 72  1  0  0  0  0
 38 77  2  0  0  0  0
 39 61  1  0  0  0  0
 39 67  1  0  0  0  0
 39 78  2  0  0  0  0
 40 62  1  0  0  0  0
 40 73  1  0  0  0  0
 40 79  2  0  0  0  0
 41 68  1  0  0  0  0
 41 71  1  0  0  0  0
 41 80  2  0  0  0  0
 42 46  1  0  0  0  0
 43 54  1  0  0  0  0
 44 67  1  0  0  0  0
 45 50  1  0  0  0  0
 46 48  1  0  0  0  0
 47 49  1  0  0  0  0
 47 51  1  0  0  0  0
 48 53  1  0  0  0  0
 49 55  1  0  0  0  0
 50 66  1  0  0  0  0
 51 68  1  0  0  0  0
 52 55  1  0  0  0  0
 52 68  1  0  0  0  0
 53 72  1  0  0  0  0
 54 67  1  0  0  0  0
 55 65  1  0  0  0  0
 56 62  1  0  0  0  0
 57 63  1  0  0  0  0
 58 63  1  0  0  0  0
 59 63  1  0  0  0  0
 60 74  1  0  0  0  0
 61 63  1  0  0  0  0
 61 73  1  0  0  0  0
 62 74  1  0  0  0  0
 64 65  1  0  0  0  0
M  CHG  1  74   1
M  ISO  4  36 101  41 100  71 100  82 101
M  END
> <Batch ID>
0090

> <Smiles>
CNC(C)C(=O)NC(C(=O)N1Cc2cc([101O:1][101CH:1]=C3CCN(c4cccc([100NH:0][100C:0](=O)N5CCCC(n6nc(-c7ccc(Oc8ccc(F)cc8F)cc7)c(C(N)=O)c6N)C5)c4F)C3=O)ccc2CC1C(=O)NC1CCCc2ccccc21)C(C)(C)C

> <Shape>
0.307

> <Color>
0.124

> <Negative vol penalty>
0.000

$$$$

  -OEChem-04052300293D

 84 92  0     1  0  0  0  0  0999 V2000
  -26.9991  -37.8183   20.8893 C   0  0  0  0  0  0  0  0  0  0  0  0
  -27.5766  -36.6026   20.5372 C   0  0  0  0  0  0  0  0  0  0  0  0
  -26.5171  -10.9259   21.0921 C   0  0  0  0  0  0  0  0  0  0  0  0
  -25.3726  -12.6626   19.8629 C   0  0  0  0  0  0  0  0  0  0  0  0
  -31.1192  -21.6589   18.7952 C   0  0  0  0  0  0  0  0  0  0  0  0
  -26.0780  -37.8744   21.9345 C   0  0  0  0  0  0  0  0  0  0  0  0
  -27.2341  -35.4424   21.2308 C   0  0  0  0  0  0  0  0  0  0  0  0
  -26.7683  -29.7834   18.9365 C   0  0  0  0  0  0  0  0  0  0  0  0
  -31.0268  -20.6008   19.6992 C   0  0  0  0  0  0  0  0  0  0  0  0
  -25.2888  -10.3790   21.4631 C   0  0  0  0  0  0  0  0  0  0  0  0
  -24.1443  -12.1157   20.2339 C   0  0  0  0  0  0  0  0  0  0  0  0
  -27.6429  -28.6976   18.9333 C   0  0  0  0  0  0  0  0  0  0  0  0
  -22.1818   -9.5325   19.2872 C   0  0  0  0  0  0  0  0  0  0  0  0
  -21.2060   -9.4047   18.2988 C   0  0  0  0  0  0  0  0  0  0  0  0
  -28.8849  -21.1826   18.0091 C   0  0  0  0  0  0  0  0  0  0  0  0
  -26.5313  -27.8043   20.8789 C   0  0  0  0  0  0  0  0  0  0  0  0
  -19.7333  -10.8398   19.5672 C   0  0  0  0  0  0  0  0  0  0  0  0
  -26.5591  -12.0677   20.2920 C   0  0  0  0  0  0  0  0  0  0  0  0
  -30.0483  -21.9499   17.9501 C   0  0  0  0  0  0  0  0  0  0  0  0
  -28.5858  -12.3231   18.7640 C   0  0  0  0  0  0  0  0  0  0  0  0
  -25.7168  -36.7127   22.6350 C   0  0  0  0  0  0  0  0  0  0  0  0
  -25.7739  -29.8935   19.9191 C   0  0  0  0  0  0  0  0  0  0  0  0
  -26.3083  -35.4833   22.2872 C   0  0  0  0  0  0  0  0  0  0  0  0
  -25.6437  -28.8911   20.8908 C   0  0  0  0  0  0  0  0  0  0  0  0
  -29.8635  -19.8334   19.7582 C   0  0  0  0  0  0  0  0  0  0  0  0
  -24.1024  -10.9739   21.0341 C   0  0  0  0  0  0  0  0  0  0  0  0
  -27.5263  -27.7093   19.9063 C   0  0  0  0  0  0  0  0  0  0  0  0
  -21.9334  -10.3139   20.4157 C   0  0  0  0  0  0  0  0  0  0  0  0
  -19.9817  -10.0583   18.4388 C   0  0  0  0  0  0  0  0  0  0  0  0
  -28.7925  -20.1243   18.9131 C   0  0  0  0  0  0  0  0  0  0  0  0
  -20.7092  -10.9675   20.5557 C   0  0  0  0  0  0  0  0  0  0  0  0
  -27.8276  -12.6334   19.9088 C   0  0  0  0  0  0  0  0  0  0  0  0
  -29.6969  -13.1247   18.8603 C   0  0  0  0  0  0  0  0  0  0  0  0
  -28.3103  -11.3934   17.7078 C   0  0  0  0  0  0  0  0  0  0  0  0
  -30.1459  -23.0652   16.9971 C   0  0  0  0  0  0  0  0  0  0  0  0
  -25.1139  -31.9874   22.2177 C   0  0  0  0  0  0  0  0  0  0  0  0
  -22.4565  -30.1627   22.5798 C   0  0  0  0  0  0  0  0  0  0  0  0
  -29.2043  -24.7452   18.6580 C   0  0  0  0  0  0  0  0  0  0  0  0
  -20.9432  -27.1327   22.1603 C   0  0  0  0  0  0  0  0  0  0  0  0
  -30.7453  -18.3387   21.5842 C   0  0  0  0  0  0  0  0  0  0  0  0
  -24.7522  -36.8309   23.7883 C   0  0  0  0  0  0  0  0  0  0  0  0
  -24.8214  -31.0573   19.8928 C   0  0  0  0  0  0  0  0  0  0  0  0
  -24.5802  -28.9521   21.9555 C   0  0  0  0  0  0  0  0  0  0  0  0
  -24.1615  -35.4937   24.2278 C   0  0  0  0  0  0  0  0  0  0  0  0
  -32.4912  -15.2786   22.0987 C   0  0  0  0  0  0  0  0  0  0  0  0
  -25.2579  -34.4401   24.3497 C   0  0  0  0  0  0  0  0  0  0  0  0
  -31.5652  -14.2254   21.4859 C   0  0  0  0  0  0  0  0  0  0  0  0
  -31.7054  -16.3905   22.7915 C   0  0  0  0  0  0  0  0  0  0  0  0
  -29.7499  -15.9786   21.3509 C   0  0  0  0  0  0  0  0  0  0  0  0
  -25.9438  -34.1989   22.9996 C   0  0  1  0  0  0  0  0  0  0  0  0
  -24.1740  -31.3302   21.2469 C   0  0  1  0  0  0  0  0  0  0  0  0
  -30.4941  -14.8720   20.5858 C   0  0  2  0  0  0  0  0  0  0  0  0
  -18.7801  -25.9350   22.5889 C   0  0  0  0  0  0  0  0  0  0  0  0
  -23.1830  -29.9123   25.5327 C   0  0  0  0  0  0  0  0  0  0  0  0
  -21.5864  -27.9903   25.6908 C   0  0  0  0  0  0  0  0  0  0  0  0
  -20.7474  -30.2596   25.0834 C   0  0  0  0  0  0  0  0  0  0  0  0
  -20.5071  -26.6454   19.2739 C   0  0  0  0  0  0  0  0  0  0  0  0
  -28.8913  -26.2278   18.6423 C   0  0  0  0  0  0  0  0  0  1  0  0
  -22.0986  -28.9457   23.3983 C   0  0  1  0  0  0  0  0  0  0  0  0
  -19.5869  -26.7541   21.5934 C   0  0  2  0  0  0  0  0  0  0  0  0
  -21.9252  -29.2766   24.9075 C   0  0  0  0  0  0  0  0  0  0  0  0
  -28.4082  -13.5598   20.6762 N   0  0  0  0  0  0  0  0  0  0  0  0
  -29.5429  -13.8384   20.0123 N   0  0  0  0  0  0  0  0  0  0  0  0
  -23.6769  -30.1129   21.8914 N   0  0  0  0  0  0  0  0  0  0  0  0
  -30.7126  -16.9589   21.8772 N   0  0  0  0  0  0  0  0  0  0  0  0
  -30.7810  -13.2815   18.0712 N   0  0  0  0  0  0  0  0  0  0  0  0
  -27.1233  -10.6503   17.7646 N   0  0  0  0  0  0  0  0  0  0  0  0
  -29.7729  -18.7588   20.6772 N   0  0  0  0  0  0  0  0  0  0  0  0
  -29.7277  -24.3300   17.4199 N   0  0  0  0  0  0  0  0  0  0  0  0
  -25.1150  -33.3677   22.1530 N   0  0  0  0  0  0  0  0  0  0  0  0
  -20.9139  -28.3675   22.7733 N   0  0  0  0  0  0  0  0  0  0  0  0
  -19.7515  -25.9516   20.3485 N   0  3  0  0  0  0  0  0  0  0  0  0
  -29.1013  -11.2146   16.7508 O   0  0  0  0  0  0  0  0  0  0  0  0
  -25.7871  -31.2935   22.9707 O   0  0  0  0  0  0  0  0  0  0  0  0
  -21.6784  -31.1194   22.5467 O   0  0  0  0  0  0  0  0  0  0  0  0
  -29.0084  -24.0411   19.6434 O   0  0  0  0  0  0  0  0  0  0  0  0
  -21.9292  -26.4043   22.0717 O   0  0  0  0  0  0  0  0  0  0  0  0
  -31.5919  -19.0873   22.0790 O   0  0  0  0  0  0  0  0  0  0  0  0
  -22.9036  -10.4404   21.3958 O   0  0  0  0  0  0  0  0  0  0  0  0
  -28.3790  -26.6488   19.9059 O   0  0  0  0  0  0  0  0  0  1  0  0
  -19.0453   -9.9368   17.4888 F   0  0  0  0  0  0  0  0  0  0  0  0
  -27.6694  -19.3933   18.9604 F   0  0  0  0  0  0  0  0  0  0  0  0
  -20.4652  -11.7206   21.6370 F   0  0  0  0  0  0  0  0  0  0  0  0
  -30.7439  -22.8407   15.4436 S   0  0  0  0  0  0  0  0  0  0  0  0
  1  2  1  0  0  0  0
  1  6  2  0  0  0  0
  2  7  2  0  0  0  0
  3 10  2  0  0  0  0
  3 18  1  0  0  0  0
  4 11  1  0  0  0  0
  4 18  2  0  0  0  0
  5  9  2  0  0  0  0
  5 19  1  0  0  0  0
  6 21  1  0  0  0  0
  7 23  1  0  0  0  0
  8 12  2  0  0  0  0
  8 22  1  0  0  0  0
  9 25  1  0  0  0  0
 10 26  1  0  0  0  0
 11 26  2  0  0  0  0
 12 27  1  0  0  0  0
 13 14  2  0  0  0  0
 13 28  1  0  0  0  0
 14 29  1  0  0  0  0
 15 19  2  0  0  0  0
 15 30  1  0  0  0  0
 16 24  1  0  0  0  0
 16 27  2  0  0  0  0
 17 29  2  0  0  0  0
 17 31  1  0  0  0  0
 18 32  1  0  0  0  0
 19 35  1  0  0  0  0
 20 32  1  0  0  0  0
 20 33  2  0  0  0  0
 20 34  1  0  0  0  0
 21 23  2  0  0  0  0
 21 41  1  0  0  0  0
 22 24  2  0  0  0  0
 22 42  1  0  0  0  0
 23 50  1  0  0  0  0
 24 43  1  0  0  0  0
 25 30  2  0  0  0  0
 25 68  1  0  0  0  0
 26 79  1  0  0  0  0
 27 80  1  0  0  0  0
 28 31  2  0  0  0  0
 28 79  1  0  0  0  0
 29 81  1  0  0  0  0
 30 82  1  0  0  0  0
 31 83  1  0  0  0  0
 32 62  2  0  0  0  0
 33 63  1  0  0  0  0
 33 66  1  0  0  0  0
 34 67  1  0  0  0  0
 34 73  2  0  0  0  0
 35 69  1  0  0  0  0
 35 84  2  0  0  0  0
 36 51  1  0  0  0  0
 36 70  1  0  0  0  0
 36 74  2  0  0  0  0
 37 59  1  0  0  0  0
 37 64  1  0  0  0  0
 37 75  2  0  0  0  0
 38 58  1  0  0  0  0
 38 69  1  0  0  0  0
 38 76  2  0  0  0  0
 39 60  1  0  0  0  0
 39 71  1  0  0  0  0
 39 77  2  0  0  0  0
 40 65  1  0  0  0  0
 40 68  1  0  0  0  0
 40 78  2  0  0  0  0
 41 44  1  0  0  0  0
 42 51  1  0  0  0  0
 43 64  1  0  0  0  0
 44 46  1  0  0  0  0
 45 47  1  0  0  0  0
 45 48  1  0  0  0  0
 46 50  1  0  0  0  0
 47 52  1  0  0  0  0
 48 65  1  0  0  0  0
 49 52  1  0  0  0  0
 49 65  1  0  0  0  0
 50 70  1  0  0  0  0
 51 64  1  0  0  0  0
 52 63  1  0  0  0  0
 53 60  1  0  0  0  0
 54 61  1  0  0  0  0
 55 61  1  0  0  0  0
 56 61  1  0  0  0  0
 57 72  1  0  0  0  0
 58 80  1  0  0  0  0
 59 61  1  0  0  0  0
 59 71  1  0  0  0  0
 60 72  1  0  0  0  0
 62 63  1  0  0  0  0
M  CHG  1  72   1
M  ISO  4  40 100  58 101  68 100  80 101
M  END
> <Batch ID>
0090

> <Smiles>
CNC(C)C(=O)NC(C(=O)N1Cc2cc([101O:1][101CH2:1]C(=O)NC(=S)c3ccc([100NH:0][100C:0](=O)N4CCCC(n5nc(-c6ccc(Oc7ccc(F)cc7F)cc6)c(C(N)=O)c5N)C4)c(F)c3)ccc2CC1C(=O)NC1CCCc2ccccc21)C(C)(C)C

> <Shape>
0.361

> <Color>
0.077

> <Negative vol penalty>
0.000

$$$$

  -OEChem-04052300293D

 87 96  0     1  0  0  0  0  0999 V2000
  -27.0213  -36.9386   22.2134 C   0  0  0  0  0  0  0  0  0  0  0  0
  -27.7665  -35.9219   22.8018 C   0  0  0  0  0  0  0  0  0  0  0  0
  -24.0769  -12.6801   23.9149 C   0  0  0  0  0  0  0  0  0  0  0  0
  -24.9635  -10.5212   23.2905 C   0  0  0  0  0  0  0  0  0  0  0  0
  -30.5614  -16.5375   21.6676 C   0  0  0  0  0  0  0  0  0  0  0  0
  -25.6338  -36.8272   22.1327 C   0  0  0  0  0  0  0  0  0  0  0  0
  -27.1246  -34.7935   23.3108 C   0  0  0  0  0  0  0  0  0  0  0  0
  -28.7928  -28.2187   20.9872 C   0  0  0  0  0  0  0  0  0  0  0  0
  -30.9101  -17.8819   21.5390 C   0  0  0  0  0  0  0  0  0  0  0  0
  -23.7598  -12.1842   25.1795 C   0  0  0  0  0  0  0  0  0  0  0  0
  -24.6465  -10.0252   24.5550 C   0  0  0  0  0  0  0  0  0  0  0  0
  -29.2336  -26.9103   20.7868 C   0  0  0  0  0  0  0  0  0  0  0  0
  -21.3360  -10.2857   26.5741 C   0  0  0  0  0  0  0  0  0  0  0  0
  -20.0798  -10.5960   27.0949 C   0  0  0  0  0  0  0  0  0  0  0  0
  -27.4855  -26.0879   22.2411 C   0  0  0  0  0  0  0  0  0  0  0  0
  -29.0304  -18.5020   22.9243 C   0  0  0  0  0  0  0  0  0  0  0  0
  -21.1299  -11.6967   28.9719 C   0  0  0  0  0  0  0  0  0  0  0  0
  -24.6787  -11.8486   22.9704 C   0  0  0  0  0  0  0  0  0  0  0  0
  -29.4471  -16.1753   22.4245 C   0  0  0  0  0  0  0  0  0  0  0  0
  -24.1164  -12.8969   20.7137 C   0  0  0  0  0  0  0  0  0  0  0  0
  -24.9754  -35.6925   22.6323 C   0  0  0  0  0  0  0  0  0  0  0  0
  -27.6858  -28.4661   21.8043 C   0  0  0  0  0  0  0  0  0  0  0  0
  -25.7269  -34.6674   23.2379 C   0  0  0  0  0  0  0  0  0  0  0  0
  -27.0317  -27.3952   22.4351 C   0  0  0  0  0  0  0  0  0  0  0  0
  -30.1447  -18.8641   22.1674 C   0  0  0  0  0  0  0  0  0  0  0  0
  -24.0446  -10.8568   25.4995 C   0  0  0  0  0  0  0  0  0  0  0  0
  -28.5817  -25.8476   21.4126 C   0  0  0  0  0  0  0  0  0  0  0  0
  -22.4892  -10.6808   27.2522 C   0  0  0  0  0  0  0  0  0  0  0  0
  -19.9767  -11.3016   28.2938 C   0  0  0  0  0  0  0  0  0  0  0  0
  -28.6817  -17.1575   23.0529 C   0  0  0  0  0  0  0  0  0  0  0  0
  -22.3861  -11.3863   28.4511 C   0  0  0  0  0  0  0  0  0  0  0  0
  -25.0059  -12.3602   21.6637 C   0  0  0  0  0  0  0  0  0  0  0  0
  -24.9150  -13.2362   19.6489 C   0  0  0  0  0  0  0  0  0  0  0  0
  -29.5837  -21.2810   22.0685 C   0  0  0  0  0  0  0  0  0  0  0  0
  -29.8737  -22.5815   22.2274 C   0  0  0  0  0  0  0  0  0  0  0  0
  -32.2298  -22.0135   21.7752 C   0  0  0  0  0  0  0  0  0  0  0  0
  -29.0869  -14.7722   22.5554 C   0  0  0  0  0  0  0  0  0  0  0  0
  -22.6954  -13.0731   20.7871 C   0  0  0  0  0  0  0  0  0  0  0  0
  -29.8807  -13.7079   21.8991 C   0  0  0  0  0  0  0  0  0  0  0  0
  -25.4159  -30.9877   23.3655 C   0  0  0  0  0  0  0  0  0  0  0  0
  -23.6613  -28.4686   22.5122 C   0  0  0  0  0  0  0  0  0  0  0  0
  -20.7746  -30.6230   22.7208 C   0  0  0  0  0  0  0  0  0  0  0  0
  -23.4697  -35.6384   22.5649 C   0  0  0  0  0  0  0  0  0  0  0  0
  -27.2189  -29.8666   22.0977 C   0  0  0  0  0  0  0  0  0  0  0  0
  -25.8668  -27.7100   23.3310 C   0  0  0  0  0  0  0  0  0  0  0  0
  -31.2917  -23.0281   22.3901 C   0  0  0  0  0  0  0  0  0  0  0  0
  -31.9455  -20.5373   21.9696 C   0  0  0  0  0  0  0  0  0  0  0  0
  -22.8997  -34.2405   22.7914 C   0  0  0  0  0  0  0  0  0  0  0  0
  -29.5835  -11.8103   18.6476 C   0  0  0  0  0  0  0  0  0  0  0  0
  -23.5608  -33.5837   23.9990 C   0  0  0  0  0  0  0  0  0  0  0  0
  -28.0768  -11.6951   18.8427 C   0  0  0  0  0  0  0  0  0  0  0  0
  -30.2503  -12.3064   19.9269 C   0  0  0  0  0  0  0  0  0  0  0  0
  -28.4542  -14.0397   19.8396 C   0  0  0  0  0  0  0  0  0  0  0  0
  -25.0692  -33.4166   23.7792 C   0  0  1  0  0  0  0  0  0  0  0  0
  -25.6932  -29.9804   22.2884 C   0  0  1  0  0  0  0  0  0  0  0  0
  -27.4514  -13.0617   19.1899 C   0  0  2  0  0  0  0  0  0  0  0  0
  -18.3486  -30.1462   22.2915 C   0  0  0  0  0  0  0  0  0  0  0  0
  -24.2559  -29.4937   19.7005 C   0  0  0  0  0  0  0  0  0  0  0  0
  -22.0102  -30.6005   19.7044 C   0  0  0  0  0  0  0  0  0  0  0  0
  -22.1758  -28.1185   19.8913 C   0  0  0  0  0  0  0  0  0  0  0  0
  -19.9903  -31.5870   25.4068 C   0  0  0  0  0  0  0  0  0  0  0  0
  -28.8175  -23.6432   22.2744 C   0  0  0  0  0  0  0  0  0  1  0  0
  -22.8429  -29.5571   21.8605 C   0  0  1  0  0  0  0  0  0  0  0  0
  -19.4335  -30.2872   23.3478 C   0  0  2  0  0  0  0  0  0  0  0  0
  -22.8403  -29.4483   20.3095 C   0  0  0  0  0  0  0  0  0  0  0  0
  -26.2725  -12.3565   21.2398 N   0  0  0  0  0  0  0  0  0  0  0  0
  -28.0606  -14.3576   23.2478 N   0  0  0  0  0  0  0  0  0  0  0  0
  -26.1847  -12.8950   20.0117 N   0  0  0  0  0  0  0  0  0  0  0  0
  -30.5021  -20.2425   22.0358 N   0  0  0  0  0  0  0  0  0  0  0  0
  -29.4944  -13.3538   20.6123 N   0  0  0  0  0  0  0  0  0  0  0  0
  -25.0213  -28.7367   22.7113 N   0  0  0  0  0  0  0  0  0  0  0  0
  -24.6479  -13.7900   18.4471 N   0  0  0  0  0  0  0  0  0  0  0  0
  -22.0317  -12.6705   21.9540 N   0  0  0  0  0  0  0  0  0  0  0  0
  -25.3315  -32.2896   22.9100 N   0  0  0  0  0  0  0  0  0  0  0  0
  -21.5176  -29.4896   22.4665 N   0  0  0  0  0  0  0  0  0  0  0  0
  -19.0250  -31.3574   24.3012 N   0  3  0  0  0  0  0  0  0  0  0  0
  -33.2704  -22.3805   21.2239 O   0  0  0  0  0  0  0  0  0  0  0  0
  -22.0317  -13.5577   19.8394 O   0  0  0  0  0  0  0  0  0  0  0  0
  -30.8010  -13.2458   22.5611 O   0  0  0  0  0  0  0  0  0  0  0  0
  -25.2864  -30.6124   24.5248 O   0  0  0  0  0  0  0  0  0  0  0  0
  -23.1105  -27.4102   22.8263 O   0  0  0  0  0  0  0  0  0  0  0  0
  -21.1263  -31.7752   22.4774 O   0  0  0  0  0  0  0  0  0  0  0  0
  -23.7356  -10.3726   26.7335 O   0  0  0  0  0  0  0  0  0  0  0  0
  -29.0143  -24.5723   21.2094 O   0  0  0  0  0  0  0  0  0  1  0  0
  -18.7703  -11.6009   28.7930 F   0  0  0  0  0  0  0  0  0  0  0  0
  -27.6074  -16.8206   23.7806 F   0  0  0  0  0  0  0  0  0  0  0  0
  -23.4904  -11.7696   29.1064 F   0  0  0  0  0  0  0  0  0  0  0  0
  1  2  1  0  0  0  0
  1  6  2  0  0  0  0
  2  7  2  0  0  0  0
  3 10  2  0  0  0  0
  3 18  1  0  0  0  0
  4 11  1  0  0  0  0
  4 18  2  0  0  0  0
  5  9  2  0  0  0  0
  5 19  1  0  0  0  0
  6 21  1  0  0  0  0
  7 23  1  0  0  0  0
  8 12  2  0  0  0  0
  8 22  1  0  0  0  0
  9 25  1  0  0  0  0
 10 26  1  0  0  0  0
 11 26  2  0  0  0  0
 12 27  1  0  0  0  0
 13 14  2  0  0  0  0
 13 28  1  0  0  0  0
 14 29  1  0  0  0  0
 15 24  1  0  0  0  0
 15 27  2  0  0  0  0
 16 25  2  0  0  0  0
 16 30  1  0  0  0  0
 17 29  2  0  0  0  0
 17 31  1  0  0  0  0
 18 32  1  0  0  0  0
 19 30  2  0  0  0  0
 19 37  1  0  0  0  0
 20 32  1  0  0  0  0
 20 33  2  0  0  0  0
 20 38  1  0  0  0  0
 21 23  2  0  0  0  0
 21 43  1  0  0  0  0
 22 24  2  0  0  0  0
 22 44  1  0  0  0  0
 23 54  1  0  0  0  0
 24 45  1  0  0  0  0
 25 69  1  0  0  0  0
 26 83  1  0  0  0  0
 27 84  1  0  0  0  0
 28 31  2  0  0  0  0
 28 83  1  0  0  0  0
 29 85  1  0  0  0  0
 30 86  1  0  0  0  0
 31 87  1  0  0  0  0
 32 66  2  0  0  0  0
 33 68  1  0  0  0  0
 33 72  1  0  0  0  0
 34 35  2  0  0  0  0
 34 69  1  0  0  0  0
 35 46  1  0  0  0  0
 35 62  1  0  0  0  0
 36 46  1  0  0  0  0
 36 47  1  0  0  0  0
 36 77  2  0  0  0  0
 37 39  1  0  0  0  0
 37 67  2  0  0  0  0
 38 73  1  0  0  0  0
 38 78  2  0  0  0  0
 39 70  1  0  0  0  0
 39 79  2  0  0  0  0
 40 55  1  0  0  0  0
 40 74  1  0  0  0  0
 40 80  2  0  0  0  0
 41 63  1  0  0  0  0
 41 71  1  0  0  0  0
 41 81  2  0  0  0  0
 42 64  1  0  0  0  0
 42 75  1  0  0  0  0
 42 82  2  0  0  0  0
 43 48  1  0  0  0  0
 44 55  1  0  0  0  0
 45 71  1  0  0  0  0
 47 69  1  0  0  0  0
 48 50  1  0  0  0  0
 49 51  1  0  0  0  0
 49 52  1  0  0  0  0
 50 54  1  0  0  0  0
 51 56  1  0  0  0  0
 52 70  1  0  0  0  0
 53 56  1  0  0  0  0
 53 70  1  0  0  0  0
 54 74  1  0  0  0  0
 55 71  1  0  0  0  0
 56 68  1  0  0  0  0
 57 64  1  0  0  0  0
 58 65  1  0  0  0  0
 59 65  1  0  0  0  0
 60 65  1  0  0  0  0
 61 76  1  0  0  0  0
 62 84  1  0  0  0  0
 63 65  1  0  0  0  0
 63 75  1  0  0  0  0
 64 76  1  0  0  0  0
 66 68  1  0  0  0  0
M  CHG  1  76   1
M  ISO  4  37 100  39 100  62 101  84 101
M  END
> <Batch ID>
0090

> <Smiles>
CNC(C)C(=O)NC(C(=O)N1Cc2cc([101O:1][101CH2:1]C3=CN(c4ccc([100C:0](=N)[100C:0](=O)N5CCCC(n6nc(-c7ccc(Oc8ccc(F)cc8F)cc7)c(C(N)=O)c6N)C5)c(F)c4)CC(=O)C3)ccc2CC1C(=O)NC1CCCc2ccccc21)C(C)(C)C

> <Shape>
0.262

> <Color>
0.087

> <Negative vol penalty>
0.000

$$$$

  -OEChem-04052300293D

 87 96  0     1  0  0  0  0  0999 V2000
  -29.4872  -36.3755   23.9131 C   0  0  0  0  0  0  0  0  0  0  0  0
  -29.7068  -35.4574   22.8913 C   0  0  0  0  0  0  0  0  0  0  0  0
  -22.9693  -16.5188   21.2070 C   0  0  0  0  0  0  0  0  0  0  0  0
  -22.2641  -15.3258   19.2280 C   0  0  0  0  0  0  0  0  0  0  0  0
  -28.7921  -35.9892   25.0583 C   0  0  0  0  0  0  0  0  0  0  0  0
  -29.2324  -34.1519   23.0146 C   0  0  0  0  0  0  0  0  0  0  0  0
  -26.6540  -28.7534   19.0746 C   0  0  0  0  0  0  0  0  0  0  0  0
  -29.3572  -19.2017   18.3333 C   0  0  0  0  0  0  0  0  0  0  0  0
  -29.9725  -18.0714   18.8711 C   0  0  0  0  0  0  0  0  0  0  0  0
  -21.8959  -17.3974   21.0600 C   0  0  0  0  0  0  0  0  0  0  0  0
  -21.1906  -16.2043   19.0810 C   0  0  0  0  0  0  0  0  0  0  0  0
  -26.8643  -27.3953   18.8395 C   0  0  0  0  0  0  0  0  0  0  0  0
  -21.1221  -20.0891   19.1679 C   0  0  0  0  0  0  0  0  0  0  0  0
  -21.3754  -21.4521   19.3217 C   0  0  0  0  0  0  0  0  0  0  0  0
  -25.6077  -26.8626   20.8286 C   0  0  0  0  0  0  0  0  0  0  0  0
  -26.6735  -22.4522   17.3449 C   0  0  0  0  0  0  0  0  0  0  0  0
  -28.4274  -19.7267   20.5005 C   0  0  0  0  0  0  0  0  0  0  0  0
  -19.8021  -21.5378   21.1532 C   0  0  0  0  0  0  0  0  0  0  0  0
  -23.1534  -15.4831   20.2910 C   0  0  0  0  0  0  0  0  0  0  0  0
  -24.2797  -13.3672   21.1641 C   0  0  0  0  0  0  0  0  0  0  0  0
  -28.3006  -34.6811   25.1915 C   0  0  0  0  0  0  0  0  0  0  0  0
  -25.9270  -29.1773   20.1963 C   0  0  0  0  0  0  0  0  0  0  0  0
  -28.5313  -33.7474   24.1633 C   0  0  0  0  0  0  0  0  0  0  0  0
  -25.3875  -28.2265   21.0743 C   0  0  0  0  0  0  0  0  0  0  0  0
  -27.3944  -23.2767   18.2436 C   0  0  0  0  0  0  0  0  0  0  0  0
  -28.5847  -20.0295   19.1480 C   0  0  0  0  0  0  0  0  0  0  0  0
  -29.8153  -17.7686   20.2236 C   0  0  0  0  0  0  0  0  0  0  0  0
  -21.0066  -17.2401   19.9970 C   0  0  0  0  0  0  0  0  0  0  0  0
  -26.3436  -26.4498   19.7181 C   0  0  0  0  0  0  0  0  0  0  0  0
  -20.2087  -19.4505   20.0067 C   0  0  0  0  0  0  0  0  0  0  0  0
  -20.7154  -22.1765   20.3143 C   0  0  0  0  0  0  0  0  0  0  0  0
  -29.0427  -18.5963   21.0383 C   0  0  0  0  0  0  0  0  0  0  0  0
  -19.5488  -20.1748   20.9994 C   0  0  0  0  0  0  0  0  0  0  0  0
  -24.2624  -14.5756   20.4420 C   0  0  0  0  0  0  0  0  0  0  0  0
  -28.1861  -22.4528   19.0128 C   0  0  0  0  0  0  0  0  0  0  0  0
  -25.5556  -12.8864   20.9982 C   0  0  0  0  0  0  0  0  0  0  0  0
  -27.0464  -21.1495   17.5924 C   0  0  0  0  0  0  0  0  0  0  0  0
  -23.2359  -12.7358   21.9173 C   0  0  0  0  0  0  0  0  0  0  0  0
  -26.5824  -30.9396   22.7592 C   0  0  0  0  0  0  0  0  0  0  0  0
  -23.4053  -30.6038   23.3210 C   0  0  0  0  0  0  0  0  0  0  0  0
  -20.5515  -28.7977   22.8306 C   0  0  0  0  0  0  0  0  0  0  0  0
  -30.6867  -15.4498   19.9893 C   0  0  0  0  0  0  0  0  0  0  0  0
  -27.5961  -34.2968   26.4685 C   0  0  0  0  0  0  0  0  0  0  0  0
  -25.6863  -30.6449   20.4212 C   0  0  0  0  0  0  0  0  0  0  0  0
  -24.5826  -28.6290   22.2820 C   0  0  0  0  0  0  0  0  0  0  0  0
  -26.8007  -32.9986   26.3585 C   0  0  0  0  0  0  0  0  0  0  0  0
  -29.2195  -12.9467   17.9339 C   0  0  0  0  0  0  0  0  0  0  0  0
  -27.6345  -31.9177   25.6778 C   0  0  0  0  0  0  0  0  0  0  0  0
  -27.7685  -12.9727   18.4131 C   0  0  0  0  0  0  0  0  0  0  0  0
  -29.8234  -14.3495   17.8607 C   0  0  0  0  0  0  0  0  0  0  0  0
  -28.2529  -15.1476   19.5989 C   0  0  0  0  0  0  0  0  0  0  0  0
  -28.0108  -32.3290   24.2493 C   0  0  1  0  0  0  0  0  0  0  0  0
  -25.3685  -30.9824   21.8747 C   0  0  1  0  0  0  0  0  0  0  0  0
  -27.6380  -13.7462   19.7370 C   0  0  1  0  0  0  0  0  0  0  0  0
  -29.1316  -22.7963   20.0988 C   0  0  0  0  0  0  0  0  0  0  0  0
  -18.1195  -28.7507   23.4478 C   0  0  0  0  0  0  0  0  0  0  0  0
  -24.1329  -29.5743   26.0997 C   0  0  0  0  0  0  0  0  0  0  0  0
  -21.8061  -28.6714   26.2982 C   0  0  0  0  0  0  0  0  0  0  0  0
  -22.1722  -31.1257   26.0423 C   0  0  0  0  0  0  0  0  0  0  0  0
  -31.0736  -16.6988   22.1025 C   0  0  0  0  0  0  0  0  0  0  0  0
  -19.7101  -29.0413   20.0037 C   0  0  0  0  0  0  0  0  0  0  0  0
  -27.3049  -24.7717   18.3339 C   0  0  0  0  0  0  0  0  0  1  0  0
  -22.5503  -29.6028   24.0599 C   0  0  1  0  0  0  0  0  0  0  0  0
  -19.1489  -29.2192   22.4311 C   0  0  2  0  0  0  0  0  0  0  0  0
  -22.6821  -29.7357   25.6034 C   0  0  0  0  0  0  0  0  0  0  0  0
  -25.4342  -14.8459   19.8609 N   0  0  0  0  0  0  0  0  0  0  0  0
  -27.9660  -21.1619   18.6085 N   0  0  0  0  0  0  0  0  0  0  0  0
  -26.1999  -13.8006   20.2176 N   0  0  0  0  0  0  0  0  0  0  0  0
  -24.3799  -30.0760   22.4623 N   0  0  0  0  0  0  0  0  0  0  0  0
  -29.6390  -15.0631   19.1323 N   0  0  0  0  0  0  0  0  0  0  0  0
  -26.1780  -11.7751   21.4454 N   0  0  0  0  0  0  0  0  0  0  0  0
  -21.9855  -13.3655   21.9842 N   0  0  0  0  0  0  0  0  0  0  0  0
  -26.8850  -32.1476   23.3581 N   0  0  0  0  0  0  0  0  0  0  0  0
  -21.1914  -29.7782   23.5590 N   0  0  0  0  0  0  0  0  0  0  0  0
  -30.4524  -16.5971   20.7774 N   0  0  0  0  0  0  0  0  0  0  0  0
  -18.7936  -28.6435   21.1031 N   0  3  0  0  0  0  0  0  0  0  0  0
  -23.4117  -11.6537   22.5269 O   0  0  0  0  0  0  0  0  0  0  0  0
  -27.1980  -29.8881   22.8899 O   0  0  0  0  0  0  0  0  0  0  0  0
  -23.2108  -31.8096   23.4939 O   0  0  0  0  0  0  0  0  0  0  0  0
  -21.0301  -27.7063   22.5302 O   0  0  0  0  0  0  0  0  0  0  0  0
  -31.7397  -14.8052   20.0640 O   0  0  0  0  0  0  0  0  0  0  0  0
  -26.6551  -20.0181   17.0185 O   0  0  0  0  0  0  0  0  0  0  0  0
  -19.9589  -18.0970   19.8533 O   0  0  0  0  0  0  0  0  0  0  0  0
  -26.5479  -25.1236   19.4913 O   0  0  0  0  0  0  0  0  0  1  0  0
  -20.9599  -23.4850   20.4629 F   0  0  0  0  0  0  0  0  0  0  0  0
  -28.8834  -18.3140   22.3392 F   0  0  0  0  0  0  0  0  0  0  0  0
  -18.6712  -19.5665   21.8091 F   0  0  0  0  0  0  0  0  0  0  0  0
  1  2  1  0  0  0  0
  1  5  2  0  0  0  0
  2  6  2  0  0  0  0
  3 10  2  0  0  0  0
  3 19  1  0  0  0  0
  4 11  1  0  0  0  0
  4 19  2  0  0  0  0
  5 21  1  0  0  0  0
  6 23  1  0  0  0  0
  7 12  2  0  0  0  0
  7 22  1  0  0  0  0
  8  9  2  0  0  0  0
  8 26  1  0  0  0  0
  9 27  1  0  0  0  0
 10 28  1  0  0  0  0
 11 28  2  0  0  0  0
 12 29  1  0  0  0  0
 13 14  2  0  0  0  0
 13 30  1  0  0  0  0
 14 31  1  0  0  0  0
 15 24  1  0  0  0  0
 15 29  2  0  0  0  0
 16 25  1  0  0  0  0
 16 37  2  0  0  0  0
 17 26  2  0  0  0  0
 17 32  1  0  0  0  0
 18 31  2  0  0  0  0
 18 33  1  0  0  0  0
 19 34  1  0  0  0  0
 20 34  1  0  0  0  0
 20 36  2  0  0  0  0
 20 38  1  0  0  0  0
 21 23  2  0  0  0  0
 21 43  1  0  0  0  0
 22 24  2  0  0  0  0
 22 44  1  0  0  0  0
 23 52  1  0  0  0  0
 24 45  1  0  0  0  0
 25 35  2  0  0  0  0
 25 62  1  0  0  0  0
 26 67  1  0  0  0  0
 27 32  2  0  0  0  0
 27 75  1  0  0  0  0
 28 83  1  0  0  0  0
 29 84  1  0  0  0  0
 30 33  2  0  0  0  0
 30 83  1  0  0  0  0
 31 85  1  0  0  0  0
 32 86  1  0  0  0  0
 33 87  1  0  0  0  0
 34 66  2  0  0  0  0
 35 55  1  0  0  0  0
 35 67  1  0  0  0  0
 36 68  1  0  0  0  0
 36 71  1  0  0  0  0
 37 67  1  0  0  0  0
 37 82  1  0  0  0  0
 38 72  1  0  0  0  0
 38 77  2  0  0  0  0
 39 53  1  0  0  0  0
 39 73  1  0  0  0  0
 39 78  2  0  0  0  0
 40 63  1  0  0  0  0
 40 69  1  0  0  0  0
 40 79  2  0  0  0  0
 41 64  1  0  0  0  0
 41 74  1  0  0  0  0
 41 80  2  0  0  0  0
 42 70  1  0  0  0  0
 42 75  1  0  0  0  0
 42 81  2  0  0  0  0
 43 46  1  0  0  0  0
 44 53  1  0  0  0  0
 45 69  1  0  0  0  0
 46 48  1  0  0  0  0
 47 49  1  0  0  0  0
 47 50  1  0  0  0  0
 48 52  1  0  0  0  0
 49 54  1  0  0  0  0
 50 70  1  0  0  0  0
 51 54  1  0  0  0  0
 51 70  1  0  0  0  0
 52 73  1  0  0  0  0
 53 69  1  0  0  0  0
 54 68  1  0  0  0  0
 56 64  1  0  0  0  0
 57 65  1  0  0  0  0
 58 65  1  0  0  0  0
 59 65  1  0  0  0  0
 60 75  1  0  0  0  0
 61 76  1  0  0  0  0
 62 84  1  0  0  0  0
 63 65  1  0  0  0  0
 63 74  1  0  0  0  0
 64 76  1  0  0  0  0
 66 68  1  0  0  0  0
M  CHG  1  76   1
M  ISO  4  42 100  62 101  75 100  84 101
M  END
> <Batch ID>
0090

> <Smiles>
CNC(C)C(=O)NC(C(=O)N1Cc2cc([101O:1][101CH2:1]C3=C(C)N(c4ccc([100N:0](C)[100C:0](=O)N5CCCC(n6nc(-c7ccc(Oc8ccc(F)cc8F)cc7)c(C(N)=O)c6N)C5)c(F)c4)C(=O)C3)ccc2CC1C(=O)NC1CCCc2ccccc21)C(C)(C)C

> <Shape>
0.292

> <Color>
0.106

> <Negative vol penalty>
0.000

$$$$

  -OEChem-04052300293D

 86 95  0     1  0  0  0  0  0999 V2000
  -19.1288  -26.5534   26.0513 C   0  0  0  0  0  0  0  0  0  0  0  0
  -20.3681  -26.0939   25.6170 C   0  0  0  0  0  0  0  0  0  0  0  0
  -23.5384   -9.7907   21.2141 C   0  0  0  0  0  0  0  0  0  0  0  0
  -24.2327  -10.6727   23.3535 C   0  0  0  0  0  0  0  0  0  0  0  0
  -18.3363  -27.3252   25.2027 C   0  0  0  0  0  0  0  0  0  0  0  0
  -20.8151  -26.4051   24.3333 C   0  0  0  0  0  0  0  0  0  0  0  0
  -26.5923  -27.4742   22.6052 C   0  0  0  0  0  0  0  0  0  0  0  0
  -22.9477   -8.7016   21.8547 C   0  0  0  0  0  0  0  0  0  0  0  0
  -23.6419   -9.5837   23.9942 C   0  0  0  0  0  0  0  0  0  0  0  0
  -27.5543  -26.6679   21.9984 C   0  0  0  0  0  0  0  0  0  0  0  0
  -20.5336   -8.6142   24.8992 C   0  0  0  0  0  0  0  0  0  0  0  0
  -19.7593   -8.8716   26.0304 C   0  0  0  0  0  0  0  0  0  0  0  0
  -26.9366  -27.5621   19.8448 C   0  0  0  0  0  0  0  0  0  0  0  0
  -29.3271  -20.3616   20.4817 C   0  0  0  0  0  0  0  0  0  0  0  0
  -29.9214  -19.5959   18.2687 C   0  0  0  0  0  0  0  0  0  0  0  0
  -21.2273   -7.4802   27.3518 C   0  0  0  0  0  0  0  0  0  0  0  0
  -24.1810  -10.7763   21.9634 C   0  0  0  0  0  0  0  0  0  0  0  0
  -24.1885  -13.1342   20.9898 C   0  0  0  0  0  0  0  0  0  0  0  0
  -18.7781  -27.6542   23.9114 C   0  0  0  0  0  0  0  0  0  0  0  0
  -25.7864  -28.3239   21.8338 C   0  0  0  0  0  0  0  0  0  0  0  0
  -20.0272  -27.1810   23.4662 C   0  0  0  0  0  0  0  0  0  0  0  0
  -25.9669  -28.3800   20.4445 C   0  0  0  0  0  0  0  0  0  0  0  0
  -29.3458  -19.0451   20.9422 C   0  0  0  0  0  0  0  0  0  0  0  0
  -29.6149  -20.6370   19.1449 C   0  0  0  0  0  0  0  0  0  0  0  0
  -29.9400  -18.2794   18.7292 C   0  0  0  0  0  0  0  0  0  0  0  0
  -29.6522  -18.0040   20.0660 C   0  0  0  0  0  0  0  0  0  0  0  0
  -22.9994   -8.5981   23.2448 C   0  0  0  0  0  0  0  0  0  0  0  0
  -27.7246  -26.7096   20.6177 C   0  0  0  0  0  0  0  0  0  0  0  0
  -21.6547   -7.7896   24.9942 C   0  0  0  0  0  0  0  0  0  0  0  0
  -20.1061   -8.3047   27.2568 C   0  0  0  0  0  0  0  0  0  0  0  0
  -22.0015   -7.2227   26.2205 C   0  0  0  0  0  0  0  0  0  0  0  0
  -24.7919  -11.9012   21.3021 C   0  0  0  0  0  0  0  0  0  0  0  0
  -25.1806  -13.8552   20.3716 C   0  0  0  0  0  0  0  0  0  0  0  0
  -29.9999  -23.8747   17.5337 C   0  0  0  0  0  0  0  0  0  0  0  0
  -29.0676  -24.1908   18.4351 C   0  0  0  0  0  0  0  0  0  0  0  0
  -28.7756  -22.9597   19.2068 C   0  0  0  0  0  0  0  0  0  0  0  0
  -22.8507  -13.5872   21.2366 C   0  0  0  0  0  0  0  0  0  0  0  0
  -22.6656  -28.5624   21.2792 C   0  0  0  0  0  0  0  0  0  0  0  0
  -23.5497  -31.2447   19.6836 C   0  0  0  0  0  0  0  0  0  0  0  0
  -25.9957  -32.9623   18.0362 C   0  0  0  0  0  0  0  0  0  0  0  0
  -30.4541  -15.6159   20.0667 C   0  0  0  0  0  0  0  0  0  0  0  0
  -17.8658  -28.4515   23.0133 C   0  0  0  0  0  0  0  0  0  0  0  0
  -24.7714  -29.2070   22.5064 C   0  0  0  0  0  0  0  0  0  0  0  0
  -25.1411  -29.2901   19.5736 C   0  0  0  0  0  0  0  0  0  0  0  0
  -30.4152  -22.4504   17.6038 C   0  0  0  0  0  0  0  0  0  0  0  0
  -18.5755  -29.0514   21.8022 C   0  0  0  0  0  0  0  0  0  0  0  0
  -29.7291  -12.4186   18.6777 C   0  0  0  0  0  0  0  0  0  0  0  0
  -19.4637  -28.0074   21.1327 C   0  0  0  0  0  0  0  0  0  0  0  0
  -28.3304  -12.1004   19.2110 C   0  0  0  0  0  0  0  0  0  0  0  0
  -30.5753  -13.1594   19.7117 C   0  0  0  0  0  0  0  0  0  0  0  0
  -28.5550  -14.0471   20.8069 C   0  0  0  0  0  0  0  0  0  0  0  0
  -20.5576  -27.5183   22.0896 C   0  0  1  0  0  0  0  0  0  0  0  0
  -23.6549  -29.6557   21.5686 C   0  0  1  0  0  0  0  0  0  0  0  0
  -27.6437  -13.3585   19.7779 C   0  0  2  0  0  0  0  0  0  0  0  0
  -29.0338  -18.7820   22.3801 C   0  0  0  0  0  0  0  0  0  0  0  0
  -26.4084  -35.1126   16.8101 C   0  0  0  0  0  0  0  0  0  0  0  0
  -22.0426  -30.1525   17.2658 C   0  0  0  0  0  0  0  0  0  0  0  0
  -23.2579  -31.8167   15.8440 C   0  0  0  0  0  0  0  0  0  0  0  0
  -21.7422  -32.6034   17.6624 C   0  0  0  0  0  0  0  0  0  0  0  0
  -28.0773  -33.7985   19.9667 C   0  0  0  0  0  0  0  0  0  0  0  0
  -28.3967  -25.4912   18.6890 C   0  0  0  0  0  0  0  0  0  1  0  0
  -23.9636  -31.5579   18.2660 C   0  0  1  0  0  0  0  0  0  0  0  0
  -26.4697  -34.3998   18.1521 C   0  0  2  0  0  0  0  0  0  0  0  0
  -22.7660  -31.5140   17.2755 C   0  0  0  0  0  0  0  0  0  0  0  0
  -26.0685  -11.8390   20.9141 N   0  0  0  0  0  0  0  0  0  0  0  0
  -26.2753  -13.0419   20.3516 N   0  0  0  0  0  0  0  0  0  0  0  0
  -29.5943  -21.9481   18.6850 N   0  0  0  0  0  0  0  0  0  0  0  0
  -24.1575  -30.1295   20.2775 N   0  0  0  0  0  0  0  0  0  0  0  0
  -29.8629  -14.3418   20.2007 N   0  0  0  0  0  0  0  0  0  0  0  0
  -30.2531  -17.2410   17.8229 N   0  0  0  0  0  0  0  0  0  0  0  0
  -25.2147  -15.0992   19.8484 N   0  0  0  0  0  0  0  0  0  0  0  0
  -21.9599  -12.7193   21.8827 N   0  0  0  0  0  0  0  0  0  0  0  0
  -29.6696  -16.6681   20.5378 N   0  0  0  0  0  0  0  0  0  0  0  0
  -21.6217  -28.4948   22.1821 N   0  0  0  0  0  0  0  0  0  0  0  0
  -24.6507  -32.8439   18.3161 N   0  0  0  0  0  0  0  0  0  0  0  0
  -27.8759  -34.4435   18.6437 N   0  3  0  0  0  0  0  0  0  0  0  0
  -27.9648  -22.8925   20.1167 O   0  0  0  0  0  0  0  0  0  0  0  0
  -22.4523  -14.7218   20.8797 O   0  0  0  0  0  0  0  0  0  0  0  0
  -22.8359  -27.8351   20.3078 O   0  0  0  0  0  0  0  0  0  0  0  0
  -22.7230  -31.9673   20.2458 O   0  0  0  0  0  0  0  0  0  0  0  0
  -26.7429  -32.0376   17.7248 O   0  0  0  0  0  0  0  0  0  0  0  0
  -31.5624  -15.7654   19.5457 O   0  0  0  0  0  0  0  0  0  0  0  0
  -22.4228   -7.5356   23.8703 O   0  0  0  0  0  0  0  0  0  0  0  0
  -28.6625  -25.9232   20.0229 O   0  0  0  0  0  0  0  0  0  1  0  0
  -19.3634   -8.5532   28.3434 F   0  0  0  0  0  0  0  0  0  0  0  0
  -23.0781   -6.4307   26.3183 F   0  0  0  0  0  0  0  0  0  0  0  0
  1  2  1  0  0  0  0
  1  5  2  0  0  0  0
  2  6  2  0  0  0  0
  3  8  2  0  0  0  0
  3 17  1  0  0  0  0
  4  9  1  0  0  0  0
  4 17  2  0  0  0  0
  5 19  1  0  0  0  0
  6 21  1  0  0  0  0
  7 10  2  0  0  0  0
  7 20  1  0  0  0  0
  8 27  1  0  0  0  0
  9 27  2  0  0  0  0
 10 28  1  0  0  0  0
 11 12  2  0  0  0  0
 11 29  1  0  0  0  0
 12 30  1  0  0  0  0
 13 22  1  0  0  0  0
 13 28  2  0  0  0  0
 14 23  2  0  0  0  0
 14 24  1  0  0  0  0
 15 24  2  0  0  0  0
 15 25  1  0  0  0  0
 16 30  2  0  0  0  0
 16 31  1  0  0  0  0
 17 32  1  0  0  0  0
 18 32  1  0  0  0  0
 18 33  2  0  0  0  0
 18 37  1  0  0  0  0
 19 21  2  0  0  0  0
 19 42  1  0  0  0  0
 20 22  2  0  0  0  0
 20 43  1  0  0  0  0
 21 52  1  0  0  0  0
 22 44  1  0  0  0  0
 23 26  1  0  0  0  0
 23 55  1  0  0  0  0
 24 67  1  0  0  0  0
 25 26  2  0  0  0  0
 25 70  1  0  0  0  0
 26 73  1  0  0  0  0
 27 83  1  0  0  0  0
 28 84  1  0  0  0  0
 29 31  2  0  0  0  0
 29 83  1  0  0  0  0
 30 85  1  0  0  0  0
 31 86  1  0  0  0  0
 32 65  2  0  0  0  0
 33 66  1  0  0  0  0
 33 71  1  0  0  0  0
 34 35  2  0  0  0  0
 34 45  1  0  0  0  0
 35 36  1  0  0  0  0
 35 61  1  0  0  0  0
 36 67  1  0  0  0  0
 36 77  2  0  0  0  0
 37 72  1  0  0  0  0
 37 78  2  0  0  0  0
 38 53  1  0  0  0  0
 38 74  1  0  0  0  0
 38 79  2  0  0  0  0
 39 62  1  0  0  0  0
 39 68  1  0  0  0  0
 39 80  2  0  0  0  0
 40 63  1  0  0  0  0
 40 75  1  0  0  0  0
 40 81  2  0  0  0  0
 41 69  1  0  0  0  0
 41 73  1  0  0  0  0
 41 82  2  0  0  0  0
 42 46  1  0  0  0  0
 43 53  1  0  0  0  0
 44 68  1  0  0  0  0
 45 67  1  0  0  0  0
 46 48  1  0  0  0  0
 47 49  1  0  0  0  0
 47 50  1  0  0  0  0
 48 52  1  0  0  0  0
 49 54  1  0  0  0  0
 50 69  1  0  0  0  0
 51 54  1  0  0  0  0
 51 69  1  0  0  0  0
 52 74  1  0  0  0  0
 53 68  1  0  0  0  0
 54 66  1  0  0  0  0
 56 63  1  0  0  0  0
 57 64  1  0  0  0  0
 58 64  1  0  0  0  0
 59 64  1  0  0  0  0
 60 76  1  0  0  0  0
 61 84  1  0  0  0  0
 62 64  1  0  0  0  0
 62 75  1  0  0  0  0
 63 76  1  0  0  0  0
 65 66  1  0  0  0  0
M  CHG  1  76   1
M  ISO  4  41 100  61 101  73 100  84 101
M  END
> <Batch ID>
0090

> <Smiles>
CNC(C)C(=O)NC(C(=O)N1Cc2cc([101O:1][101CH2:1]C3=CCN(c4cc(C)c([100NH:0][100C:0](=O)N5CCCC(n6nc(-c7ccc(Oc8ccc(F)cc8F)cc7)c(C(N)=O)c6N)C5)c(N)c4)C3=O)ccc2CC1C(=O)NC1CCCc2ccccc21)C(C)(C)C

> <Shape>
0.308

> <Color>
0.175

> <Negative vol penalty>
0.000

$$$$

  -OEChem-04052300293D

 82 90  0     1  0  0  0  0  0999 V2000
  -18.5216  -27.3087   27.0758 C   0  0  0  0  0  0  0  0  0  0  0  0
  -19.3056  -26.2458   26.6386 C   0  0  0  0  0  0  0  0  0  0  0  0
  -23.0391   -9.9026   20.0092 C   0  0  0  0  0  0  0  0  0  0  0  0
  -23.8064   -9.9780   22.2988 C   0  0  0  0  0  0  0  0  0  0  0  0
  -29.3691  -16.9026   19.6821 C   0  0  0  0  0  0  0  0  0  0  0  0
  -17.8925  -28.1374   26.1477 C   0  0  0  0  0  0  0  0  0  0  0  0
  -19.4601  -26.0105   25.2729 C   0  0  0  0  0  0  0  0  0  0  0  0
  -24.4579  -23.8797   22.4466 C   0  0  0  0  0  0  0  0  0  0  0  0
  -22.2754   -8.7728   20.3022 C   0  0  0  0  0  0  0  0  0  0  0  0
  -23.0426   -8.8482   22.5920 C   0  0  0  0  0  0  0  0  0  0  0  0
  -28.6808  -18.0090   19.1845 C   0  0  0  0  0  0  0  0  0  0  0  0
  -24.8146  -22.6064   22.0049 C   0  0  0  0  0  0  0  0  0  0  0  0
  -19.8026   -8.1311   23.2310 C   0  0  0  0  0  0  0  0  0  0  0  0
  -19.0488   -8.1468   24.4045 C   0  0  0  0  0  0  0  0  0  0  0  0
  -28.9395  -17.6504   21.9390 C   0  0  0  0  0  0  0  0  0  0  0  0
  -24.0214  -23.1574   19.7944 C   0  0  0  0  0  0  0  0  0  0  0  0
  -20.2575   -6.2148   25.2068 C   0  0  0  0  0  0  0  0  0  0  0  0
  -23.8046  -10.5052   21.0075 C   0  0  0  0  0  0  0  0  0  0  0  0
  -29.4984  -16.7233   21.0594 C   0  0  0  0  0  0  0  0  0  0  0  0
  -24.1915  -13.0178   20.7961 C   0  0  0  0  0  0  0  0  0  0  0  0
  -18.0472  -27.9179   24.7698 C   0  0  0  0  0  0  0  0  0  0  0  0
  -23.8692  -24.7993   21.5666 C   0  0  0  0  0  0  0  0  0  0  0  0
  -18.8314  -26.8363   24.3255 C   0  0  0  0  0  0  0  0  0  0  0  0
  -23.6605  -24.4427   20.2267 C   0  0  0  0  0  0  0  0  0  0  0  0
  -28.2512  -18.7568   21.4413 C   0  0  0  0  0  0  0  0  0  0  0  0
  -22.2771   -8.2456   21.5936 C   0  0  0  0  0  0  0  0  0  0  0  0
  -24.5938  -22.2440   20.6794 C   0  0  0  0  0  0  0  0  0  0  0  0
  -28.1218  -18.9361   20.0640 C   0  0  0  0  0  0  0  0  0  0  0  0
  -20.7838   -7.1571   23.0453 C   0  0  0  0  0  0  0  0  0  0  0  0
  -19.2762   -7.1887   25.3924 C   0  0  0  0  0  0  0  0  0  0  0  0
  -21.0112   -6.1991   24.0332 C   0  0  0  0  0  0  0  0  0  0  0  0
  -24.5942  -11.6720   20.7052 C   0  0  0  0  0  0  0  0  0  0  0  0
  -25.2958  -13.7339   20.4033 C   0  0  0  0  0  0  0  0  0  0  0  0
  -30.2161  -15.5691   21.5774 C   0  0  0  0  0  0  0  0  0  0  0  0
  -22.9318  -13.5712   21.1995 C   0  0  0  0  0  0  0  0  0  0  0  0
  -30.8209  -14.5666   20.6705 C   0  0  0  0  0  0  0  0  0  0  0  0
  -21.0731  -26.3055   21.4365 C   0  0  0  0  0  0  0  0  0  0  0  0
  -22.4535  -27.8321   18.9292 C   0  0  0  0  0  0  0  0  0  0  0  0
  -24.8095  -27.8031   16.4604 C   0  0  0  0  0  0  0  0  0  0  0  0
  -17.3093  -28.8119   23.8050 C   0  0  0  0  0  0  0  0  0  0  0  0
  -23.5146  -26.1781   22.0520 C   0  0  0  0  0  0  0  0  0  0  0  0
  -23.0502  -25.4001   19.2371 C   0  0  0  0  0  0  0  0  0  0  0  0
  -17.8275  -28.7206   22.3720 C   0  0  0  0  0  0  0  0  0  0  0  0
  -29.6022  -12.2384   18.2311 C   0  0  0  0  0  0  0  0  0  0  0  0
  -18.0088  -27.2627   21.9617 C   0  0  0  0  0  0  0  0  0  0  0  0
  -28.1699  -11.9649   18.6886 C   0  0  0  0  0  0  0  0  0  0  0  0
  -30.5336  -12.4652   19.4174 C   0  0  0  0  0  0  0  0  0  0  0  0
  -28.6453  -13.2815   20.8019 C   0  0  0  0  0  0  0  0  0  0  0  0
  -19.0432  -26.5636   22.8521 C   0  0  1  0  0  0  0  0  0  0  0  0
  -22.4499  -26.8574   21.1963 C   0  0  1  0  0  0  0  0  0  0  0  0
  -27.6697  -13.0748   19.6302 C   0  0  2  0  0  0  0  0  0  0  0  0
  -25.6716  -29.1747   14.5439 C   0  0  0  0  0  0  0  0  0  0  0  0
  -20.0277  -27.0251   17.2636 C   0  0  0  0  0  0  0  0  0  0  0  0
  -21.3476  -27.5665   15.2062 C   0  0  0  0  0  0  0  0  0  0  0  0
  -20.8371  -29.3576   16.8657 C   0  0  0  0  0  0  0  0  0  0  0  0
  -27.5018  -28.0141   17.6711 C   0  0  0  0  0  0  0  0  0  0  0  0
  -25.3194  -20.8739   18.8760 C   0  0  0  0  0  0  0  0  0  1  0  0
  -26.3154  -19.7384   18.7415 C   0  0  0  0  0  0  0  0  0  0  0  0
  -22.5423  -27.5825   17.4430 C   0  0  1  0  0  0  0  0  0  0  0  0
  -25.8212  -28.8461   16.0212 C   0  0  2  0  0  0  0  0  0  0  0  0
  -21.1984  -27.8640   16.7135 C   0  0  0  0  0  0  0  0  0  0  0  0
  -25.8558  -11.5383   20.2874 N   0  0  0  0  0  0  0  0  0  0  0  0
  -30.3777  -15.3389   22.8524 N   0  0  0  0  0  0  0  0  0  0  0  0
  -26.2553  -12.8094   20.1121 N   0  0  0  0  0  0  0  0  0  0  0  0
  -30.0115  -13.4986   20.3093 N   0  0  0  0  0  0  0  0  0  0  0  0
  -22.7148  -26.7343   19.7614 N   0  0  0  0  0  0  0  0  0  0  0  0
  -27.6894  -19.6870   22.3429 N   0  0  0  0  0  0  0  0  0  0  0  0
  -25.5299  -15.0579   20.2821 N   0  0  0  0  0  0  0  0  0  0  0  0
  -21.9048  -12.6932   21.5717 N   0  0  0  0  0  0  0  0  0  0  0  0
  -20.3846  -26.9352   22.4558 N   0  0  0  0  0  0  0  0  0  0  0  0
  -23.6629  -28.3827   16.9610 N   0  0  0  0  0  0  0  0  0  0  0  0
  -27.2081  -28.3532   16.2549 N   0  3  0  0  0  0  0  0  0  0  0  0
  -22.7180  -14.8072   21.2132 O   0  0  0  0  0  0  0  0  0  0  0  0
  -31.9770  -14.7884   20.3351 O   0  0  0  0  0  0  0  0  0  0  0  0
  -20.6651  -25.3782   20.7471 O   0  0  0  0  0  0  0  0  0  0  0  0
  -22.1700  -28.9613   19.3369 O   0  0  0  0  0  0  0  0  0  0  0  0
  -25.0142  -26.5949   16.3652 O   0  0  0  0  0  0  0  0  0  0  0  0
  -21.5318   -7.1433   21.8800 O   0  0  0  0  0  0  0  0  0  0  0  0
  -24.9405  -21.0016   20.2459 O   0  0  0  0  0  0  0  0  0  1  0  0
  -27.4487  -20.0155   19.5553 O   0  0  0  0  0  0  0  0  0  0  0  0
  -18.5534   -7.2049   26.5200 F   0  0  0  0  0  0  0  0  0  0  0  0
  -21.9533   -5.2617   23.8610 F   0  0  0  0  0  0  0  0  0  0  0  0
  1  2  1  0  0  0  0
  1  6  2  0  0  0  0
  2  7  2  0  0  0  0
  3  9  2  0  0  0  0
  3 18  1  0  0  0  0
  4 10  1  0  0  0  0
  4 18  2  0  0  0  0
  5 11  2  0  0  0  0
  5 19  1  0  0  0  0
  6 21  1  0  0  0  0
  7 23  1  0  0  0  0
  8 12  2  0  0  0  0
  8 22  1  0  0  0  0
  9 26  1  0  0  0  0
 10 26  2  0  0  0  0
 11 28  1  0  0  0  0
 12 27  1  0  0  0  0
 13 14  2  0  0  0  0
 13 29  1  0  0  0  0
 14 30  1  0  0  0  0
 15 19  2  0  0  0  0
 15 25  1  0  0  0  0
 16 24  1  0  0  0  0
 16 27  2  0  0  0  0
 17 30  2  0  0  0  0
 17 31  1  0  0  0  0
 18 32  1  0  0  0  0
 19 34  1  0  0  0  0
 20 32  1  0  0  0  0
 20 33  2  0  0  0  0
 20 35  1  0  0  0  0
 21 23  2  0  0  0  0
 21 40  1  0  0  0  0
 22 24  2  0  0  0  0
 22 41  1  0  0  0  0
 23 49  1  0  0  0  0
 24 42  1  0  0  0  0
 25 28  2  0  0  0  0
 25 67  1  0  0  0  0
 26 78  1  0  0  0  0
 27 79  1  0  0  0  0
 28 80  1  0  0  0  0
 29 31  2  0  0  0  0
 29 78  1  0  0  0  0
 30 81  1  0  0  0  0
 31 82  1  0  0  0  0
 32 62  2  0  0  0  0
 33 64  1  0  0  0  0
 33 68  1  0  0  0  0
 34 36  1  0  0  0  0
 34 63  2  0  0  0  0
 35 69  1  0  0  0  0
 35 73  2  0  0  0  0
 36 65  1  0  0  0  0
 36 74  2  0  0  0  0
 37 50  1  0  0  0  0
 37 70  1  0  0  0  0
 37 75  2  0  0  0  0
 38 59  1  0  0  0  0
 38 66  1  0  0  0  0
 38 76  2  0  0  0  0
 39 60  1  0  0  0  0
 39 71  1  0  0  0  0
 39 77  2  0  0  0  0
 40 43  1  0  0  0  0
 41 50  1  0  0  0  0
 42 66  1  0  0  0  0
 43 45  1  0  0  0  0
 44 46  1  0  0  0  0
 44 47  1  0  0  0  0
 45 49  1  0  0  0  0
 46 51  1  0  0  0  0
 47 65  1  0  0  0  0
 48 51  1  0  0  0  0
 48 65  1  0  0  0  0
 49 70  1  0  0  0  0
 50 66  1  0  0  0  0
 51 64  1  0  0  0  0
 52 60  1  0  0  0  0
 53 61  1  0  0  0  0
 54 61  1  0  0  0  0
 55 61  1  0  0  0  0
 56 72  1  0  0  0  0
 57 58  1  0  0  0  0
 57 79  1  0  0  0  0
 58 80  1  0  0  0  0
 59 61  1  0  0  0  0
 59 71  1  0  0  0  0
 60 72  1  0  0  0  0
 62 64  1  0  0  0  0
M  CHG  1  72   1
M  ISO  4  34 100  36 100  57 101  79 101
M  END
> <Batch ID>
0090

> <Smiles>
CNC(C)C(=O)NC(C(=O)N1Cc2cc([101O:1][101CH2:1]COc3ccc([100C:0](=N)[100C:0](=O)N4CCCC(n5nc(-c6ccc(Oc7ccc(F)cc7F)cc6)c(C(N)=O)c5N)C4)cc3N)ccc2CC1C(=O)NC1CCCc2ccccc21)C(C)(C)C

> <Shape>
0.258

> <Color>
0.183

> <Negative vol penalty>
0.000

$$$$

  -OEChem-04052300293D

 87 96  0     1  0  0  0  0  0999 V2000
  -28.8338  -37.5658   22.0846 C   0  0  0  0  0  0  0  0  0  0  0  0
  -28.9359  -36.5836   21.1047 C   0  0  0  0  0  0  0  0  0  0  0  0
  -30.2343  -19.8863   17.4650 C   0  0  0  0  0  0  0  0  0  0  0  0
  -23.0529  -10.5726   19.3405 C   0  0  0  0  0  0  0  0  0  0  0  0
  -23.7640   -9.3963   21.3274 C   0  0  0  0  0  0  0  0  0  0  0  0
  -28.5382  -37.2090   23.3996 C   0  0  0  0  0  0  0  0  0  0  0  0
  -28.7434  -35.2437   21.4394 C   0  0  0  0  0  0  0  0  0  0  0  0
  -26.2047  -29.1201   18.7243 C   0  0  0  0  0  0  0  0  0  0  0  0
  -29.2327  -20.7982   17.7979 C   0  0  0  0  0  0  0  0  0  0  0  0
  -30.2167  -18.6018   18.0085 C   0  0  0  0  0  0  0  0  0  0  0  0
  -22.2380   -9.4950   18.9941 C   0  0  0  0  0  0  0  0  0  0  0  0
  -22.9489   -8.3186   20.9810 C   0  0  0  0  0  0  0  0  0  0  0  0
  -26.5786  -27.7910   18.5306 C   0  0  0  0  0  0  0  0  0  0  0  0
  -19.6679   -7.5259   21.1439 C   0  0  0  0  0  0  0  0  0  0  0  0
  -18.8856   -6.9575   22.1492 C   0  0  0  0  0  0  0  0  0  0  0  0
  -25.9944  -27.2996   20.8189 C   0  0  0  0  0  0  0  0  0  0  0  0
  -19.9961   -4.8380   21.8150 C   0  0  0  0  0  0  0  0  0  0  0  0
  -23.8160  -10.5233   20.5071 C   0  0  0  0  0  0  0  0  0  0  0  0
  -24.3072  -12.7500   21.6508 C   0  0  0  0  0  0  0  0  0  0  0  0
  -28.3325  -35.8649   23.7487 C   0  0  0  0  0  0  0  0  0  0  0  0
  -25.7324  -29.5521   19.9719 C   0  0  0  0  0  0  0  0  0  0  0  0
  -28.4461  -34.8684   22.7606 C   0  0  0  0  0  0  0  0  0  0  0  0
  -25.6128  -28.6341   21.0251 C   0  0  0  0  0  0  0  0  0  0  0  0
  -28.2135  -20.4257   18.6743 C   0  0  0  0  0  0  0  0  0  0  0  0
  -29.1975  -18.2292   18.8849 C   0  0  0  0  0  0  0  0  0  0  0  0
  -22.1859   -8.3680   19.8143 C   0  0  0  0  0  0  0  0  0  0  0  0
  -26.4762  -26.8811   19.5788 C   0  0  0  0  0  0  0  0  0  0  0  0
  -20.6142   -6.7503   20.4740 C   0  0  0  0  0  0  0  0  0  0  0  0
  -19.0498   -5.6136   22.4848 C   0  0  0  0  0  0  0  0  0  0  0  0
  -20.7783   -5.4064   20.8096 C   0  0  0  0  0  0  0  0  0  0  0  0
  -28.1959  -19.1412   19.2178 C   0  0  0  0  0  0  0  0  0  0  0  0
  -24.6585  -11.6359   20.8652 C   0  0  0  0  0  0  0  0  0  0  0  0
  -25.4486  -13.5128   21.6949 C   0  0  0  0  0  0  0  0  0  0  0  0
  -26.1404  -23.3146   19.4265 C   0  0  0  0  0  0  0  0  0  0  0  0
  -25.1630  -22.2338   19.6153 C   0  0  0  0  0  0  0  0  0  0  0  0
  -27.4412  -22.7331   19.0378 C   0  0  0  0  0  0  0  0  0  0  0  0
  -25.8946  -24.6156   19.5809 C   0  0  0  0  0  0  0  0  0  1  0  0
  -23.0605  -13.0671   22.2841 C   0  0  0  0  0  0  0  0  0  0  0  0
  -26.7160  -31.6641   22.1342 C   0  0  0  0  0  0  0  0  0  0  0  0
  -23.9023  -30.9226   23.5678 C   0  0  0  0  0  0  0  0  0  0  0  0
  -21.3766  -28.6686   24.0002 C   0  0  0  0  0  0  0  0  0  0  0  0
  -29.7185  -15.7997   18.7399 C   0  0  0  0  0  0  0  0  0  0  0  0
  -28.0618  -35.5232   25.1926 C   0  0  0  0  0  0  0  0  0  0  0  0
  -25.3079  -30.9832   20.1569 C   0  0  0  0  0  0  0  0  0  0  0  0
  -25.0925  -29.0429   22.3781 C   0  0  0  0  0  0  0  0  0  0  0  0
  -25.8417  -20.9234   19.3452 C   0  0  0  0  0  0  0  0  0  0  0  0
  -27.5025  -34.1168   25.3911 C   0  0  0  0  0  0  0  0  0  0  0  0
  -30.1800  -12.4747   20.2701 C   0  0  0  0  0  0  0  0  0  0  0  0
  -28.3049  -33.1039   24.5805 C   0  0  0  0  0  0  0  0  0  0  0  0
  -28.7470  -12.0322   20.5616 C   0  0  0  0  0  0  0  0  0  0  0  0
  -30.2519  -13.4019   19.0605 C   0  0  0  0  0  0  0  0  0  0  0  0
  -27.9242  -14.1488   19.4533 C   0  0  0  0  0  0  0  0  0  0  0  0
  -28.2196  -33.4065   23.0797 C   0  0  1  0  0  0  0  0  0  0  0  0
  -25.3255  -31.4277   21.6162 C   0  0  1  0  0  0  0  0  0  0  0  0
  -27.8133  -13.2479   20.6926 C   0  0  1  0  0  0  0  0  0  0  0  0
  -19.2350  -28.3281   25.2631 C   0  0  0  0  0  0  0  0  0  0  0  0
  -25.4941  -30.3258   26.1015 C   0  0  0  0  0  0  0  0  0  0  0  0
  -23.4918  -29.1138   26.9904 C   0  0  0  0  0  0  0  0  0  0  0  0
  -23.3480  -31.5518   26.4824 C   0  0  0  0  0  0  0  0  0  0  0  0
  -28.8255  -16.7388   20.8589 C   0  0  0  0  0  0  0  0  0  0  0  0
  -19.8001  -28.4708   21.5033 C   0  0  0  0  0  0  0  0  0  0  0  0
  -23.4555  -29.8931   24.5774 C   0  0  1  0  0  0  0  0  0  0  0  0
  -19.8673  -28.8297   23.9742 C   0  0  2  0  0  0  0  0  0  0  0  0
  -23.9590  -30.2135   26.0131 C   0  0  0  0  0  0  0  0  0  0  0  0
  -25.9241  -11.6829   20.4407 N   0  0  0  0  0  0  0  0  0  0  0  0
  -26.3779  -12.8357   20.9614 N   0  0  0  0  0  0  0  0  0  0  0  0
  -27.2148  -21.3389   19.0044 N   0  0  0  0  0  0  0  0  0  0  0  0
  -24.6962  -30.4545   22.5112 N   0  0  0  0  0  0  0  0  0  0  0  0
  -29.3219  -14.5243   19.1899 N   0  0  0  0  0  0  0  0  0  0  0  0
  -25.7379  -14.6899   22.2892 N   0  0  0  0  0  0  0  0  0  0  0  0
  -21.9904  -12.1739   22.1373 N   0  0  0  0  0  0  0  0  0  0  0  0
  -26.9499  -32.9623   22.5458 N   0  0  0  0  0  0  0  0  0  0  0  0
  -22.0040  -29.8078   24.4584 N   0  0  0  0  0  0  0  0  0  0  0  0
  -29.1827  -16.8987   19.4455 N   0  0  0  0  0  0  0  0  0  0  0  0
  -19.2843  -28.0646   22.8359 N   0  3  0  0  0  0  0  0  0  0  0  0
  -23.9962  -22.3773   19.9377 O   0  0  0  0  0  0  0  0  0  0  0  0
  -28.4632  -23.3549   18.8053 O   0  0  0  0  0  0  0  0  0  0  0  0
  -22.8954  -14.1195   22.9464 O   0  0  0  0  0  0  0  0  0  0  0  0
  -27.5169  -30.7370   22.1599 O   0  0  0  0  0  0  0  0  0  0  0  0
  -23.5535  -32.0976   23.7074 O   0  0  0  0  0  0  0  0  0  0  0  0
  -21.9422  -27.6343   23.6526 O   0  0  0  0  0  0  0  0  0  0  0  0
  -30.5116  -15.9430   17.8017 O   0  0  0  0  0  0  0  0  0  0  0  0
  -21.3906   -7.3163   19.4767 O   0  0  0  0  0  0  0  0  0  0  0  0
  -26.8410  -25.5834   19.3927 O   0  0  0  0  0  0  0  0  0  1  0  0
  -18.2996   -5.0683   23.4512 F   0  0  0  0  0  0  0  0  0  0  0  0
  -21.6867   -4.6566   20.1704 F   0  0  0  0  0  0  0  0  0  0  0  0
  -27.2158  -18.7832   20.0617 F   0  0  0  0  0  0  0  0  0  0  0  0
  1  2  1  0  0  0  0
  1  6  2  0  0  0  0
  2  7  2  0  0  0  0
  3  9  2  0  0  0  0
  3 10  1  0  0  0  0
  4 11  2  0  0  0  0
  4 18  1  0  0  0  0
  5 12  1  0  0  0  0
  5 18  2  0  0  0  0
  6 20  1  0  0  0  0
  7 22  1  0  0  0  0
  8 13  2  0  0  0  0
  8 21  1  0  0  0  0
  9 24  1  0  0  0  0
 10 25  2  0  0  0  0
 11 26  1  0  0  0  0
 12 26  2  0  0  0  0
 13 27  1  0  0  0  0
 14 15  2  0  0  0  0
 14 28  1  0  0  0  0
 15 29  1  0  0  0  0
 16 23  1  0  0  0  0
 16 27  2  0  0  0  0
 17 29  2  0  0  0  0
 17 30  1  0  0  0  0
 18 32  1  0  0  0  0
 19 32  1  0  0  0  0
 19 33  2  0  0  0  0
 19 38  1  0  0  0  0
 20 22  2  0  0  0  0
 20 43  1  0  0  0  0
 21 23  2  0  0  0  0
 21 44  1  0  0  0  0
 22 53  1  0  0  0  0
 23 45  1  0  0  0  0
 24 31  2  0  0  0  0
 24 67  1  0  0  0  0
 25 31  1  0  0  0  0
 25 74  1  0  0  0  0
 26 83  1  0  0  0  0
 27 84  1  0  0  0  0
 28 30  2  0  0  0  0
 28 83  1  0  0  0  0
 29 85  1  0  0  0  0
 30 86  1  0  0  0  0
 31 87  1  0  0  0  0
 32 65  2  0  0  0  0
 33 66  1  0  0  0  0
 33 70  1  0  0  0  0
 34 35  1  0  0  0  0
 34 36  1  0  0  0  0
 34 37  2  0  0  0  0
 35 46  1  0  0  0  0
 35 76  2  0  0  0  0
 36 67  1  0  0  0  0
 36 77  2  0  0  0  0
 37 84  1  0  0  0  0
 38 71  1  0  0  0  0
 38 78  2  0  0  0  0
 39 54  1  0  0  0  0
 39 72  1  0  0  0  0
 39 79  2  0  0  0  0
 40 62  1  0  0  0  0
 40 68  1  0  0  0  0
 40 80  2  0  0  0  0
 41 63  1  0  0  0  0
 41 73  1  0  0  0  0
 41 81  2  0  0  0  0
 42 69  1  0  0  0  0
 42 74  1  0  0  0  0
 42 82  2  0  0  0  0
 43 47  1  0  0  0  0
 44 54  1  0  0  0  0
 45 68  1  0  0  0  0
 46 67  1  0  0  0  0
 47 49  1  0  0  0  0
 48 50  1  0  0  0  0
 48 51  1  0  0  0  0
 49 53  1  0  0  0  0
 50 55  1  0  0  0  0
 51 69  1  0  0  0  0
 52 55  1  0  0  0  0
 52 69  1  0  0  0  0
 53 72  1  0  0  0  0
 54 68  1  0  0  0  0
 55 66  1  0  0  0  0
 56 63  1  0  0  0  0
 57 64  1  0  0  0  0
 58 64  1  0  0  0  0
 59 64  1  0  0  0  0
 60 74  1  0  0  0  0
 61 75  1  0  0  0  0
 62 64  1  0  0  0  0
 62 73  1  0  0  0  0
 63 75  1  0  0  0  0
 65 66  1  0  0  0  0
M  CHG  1  75   1
M  ISO  4  37 101  42 100  74 100  84 101
M  END
> <Batch ID>
0090

> <Smiles>
CNC(C)C(=O)NC(C(=O)N1Cc2cc([101O:1][101CH:1]=C3C(=O)CN(c4cccc([100N:0](C)[100C:0](=O)N5CCCC(n6nc(-c7ccc(Oc8ccc(F)cc8F)cc7)c(C(N)=O)c6N)C5)c4F)C3=O)ccc2CC1C(=O)NC1CCCc2ccccc21)C(C)(C)C

> <Shape>
0.289

> <Color>
0.137

> <Negative vol penalty>
0.000

$$$$

  -OEChem-04052300293D

 85 93  0     1  0  0  0  0  0999 V2000
  -18.6136  -25.5644   22.1457 C   0  0  0  0  0  0  0  0  0  0  0  0
  -20.0020  -25.6112   22.0718 C   0  0  0  0  0  0  0  0  0  0  0  0
  -23.4128  -10.3621   22.2773 C   0  0  0  0  0  0  0  0  0  0  0  0
  -22.9677  -12.6506   21.6435 C   0  0  0  0  0  0  0  0  0  0  0  0
  -31.3577  -18.5759   20.2525 C   0  0  0  0  0  0  0  0  0  0  0  0
  -17.8673  -26.7279   21.9630 C   0  0  0  0  0  0  0  0  0  0  0  0
  -20.6450  -26.8214   21.8140 C   0  0  0  0  0  0  0  0  0  0  0  0
  -24.6374  -27.5821   24.8351 C   0  0  0  0  0  0  0  0  0  0  0  0
  -31.1356  -17.2053   20.1191 C   0  0  0  0  0  0  0  0  0  0  0  0
  -22.4440  -10.4506   23.2769 C   0  0  0  0  0  0  0  0  0  0  0  0
  -21.9989  -12.7391   22.6431 C   0  0  0  0  0  0  0  0  0  0  0  0
  -25.8121  -26.8996   24.5218 C   0  0  0  0  0  0  0  0  0  0  0  0
  -18.7930  -11.7703   23.0951 C   0  0  0  0  0  0  0  0  0  0  0  0
  -17.5749  -12.3636   22.7642 C   0  0  0  0  0  0  0  0  0  0  0  0
  -26.6861  -28.8933   23.4824 C   0  0  0  0  0  0  0  0  0  0  0  0
  -28.9243  -17.6480   19.2523 C   0  0  0  0  0  0  0  0  0  0  0  0
  -17.9345  -14.0473   24.4591 C   0  0  0  0  0  0  0  0  0  0  0  0
  -23.6747  -11.4622   21.4606 C   0  0  0  0  0  0  0  0  0  0  0  0
  -30.3631  -19.4825   19.8858 C   0  0  0  0  0  0  0  0  0  0  0  0
  -24.4863  -10.9654   19.0937 C   0  0  0  0  0  0  0  0  0  0  0  0
  -18.5019  -27.9548   21.7125 C   0  0  0  0  0  0  0  0  0  0  0  0
  -24.4736  -28.9244   24.4641 C   0  0  0  0  0  0  0  0  0  0  0  0
  -19.9064  -28.0022   21.6265 C   0  0  0  0  0  0  0  0  0  0  0  0
  -25.5094  -29.5913   23.7943 C   0  0  0  0  0  0  0  0  0  0  0  0
  -29.9189  -16.7414   19.6190 C   0  0  0  0  0  0  0  0  0  0  0  0
  -21.7371  -11.6390   23.4598 C   0  0  0  0  0  0  0  0  0  0  0  0
  -26.8355  -27.5543   23.8428 C   0  0  0  0  0  0  0  0  0  0  0  0
  -19.5820  -12.3154   24.1081 C   0  0  0  0  0  0  0  0  0  0  0  0
  -17.1456  -13.5022   23.4461 C   0  0  0  0  0  0  0  0  0  0  0  0
  -29.1464  -19.0186   19.3857 C   0  0  0  0  0  0  0  0  0  0  0  0
  -19.1527  -13.4539   24.7901 C   0  0  0  0  0  0  0  0  0  0  0  0
  -24.6757  -11.3716   20.4282 C   0  0  0  0  0  0  0  0  0  0  0  0
  -25.7347  -11.0523   18.5278 C   0  0  0  0  0  0  0  0  0  0  0  0
  -30.6011  -20.9329   20.0288 C   0  0  0  0  0  0  0  0  0  0  0  0
  -23.2888  -10.5469   18.4254 C   0  0  0  0  0  0  0  0  0  0  0  0
  -22.4548  -30.5012   22.5821 C   0  0  0  0  0  0  0  0  0  0  0  0
  -23.9890  -33.1007   23.7700 C   0  0  0  0  0  0  0  0  0  0  0  0
  -26.8019  -34.4037   25.1973 C   0  0  0  0  0  0  0  0  0  0  0  0
  -30.5755  -14.3160   19.8008 C   0  0  0  0  0  0  0  0  0  0  0  0
  -17.6508  -29.1770   21.4749 C   0  0  0  0  0  0  0  0  0  0  0  0
  -23.2112  -29.6542   24.8329 C   0  0  0  0  0  0  0  0  0  0  0  0
  -25.3913  -31.0378   23.3916 C   0  0  0  0  0  0  0  0  0  0  0  0
  -18.4258  -30.4882   21.5777 C   0  0  0  0  0  0  0  0  0  0  0  0
  -30.3821  -10.7641   19.6474 C   0  0  0  0  0  0  0  0  0  0  0  0
  -19.7351  -30.3967   20.8004 C   0  0  0  0  0  0  0  0  0  0  0  0
  -28.8793  -10.4801   19.7026 C   0  0  0  0  0  0  0  0  0  0  0  0
  -30.7683  -11.9487   20.5313 C   0  0  0  0  0  0  0  0  0  0  0  0
  -28.5015  -12.8952   20.3443 C   0  0  0  0  0  0  0  0  0  0  0  0
  -20.6415  -29.3005   21.3734 C   0  0  1  0  0  0  0  0  0  0  0  0
  -22.9460  -30.8718   23.9529 C   0  0  1  0  0  0  0  0  0  0  0  0
  -28.0548  -11.7512   19.4194 C   0  0  2  0  0  0  0  0  0  0  0  0
  -27.7732  -36.5670   26.0183 C   0  0  0  0  0  0  0  0  0  0  0  0
  -24.4884  -33.9677   20.8875 C   0  0  0  0  0  0  0  0  0  0  0  0
  -26.2260  -35.5561   21.7398 C   0  0  0  0  0  0  0  0  0  0  0  0
  -23.8460  -35.8217   22.4381 C   0  0  0  0  0  0  0  0  0  0  0  0
  -27.0707  -33.3696   27.9572 C   0  0  0  0  0  0  0  0  0  0  0  0
  -28.8737  -23.5375   22.0503 C   0  0  0  0  0  0  0  0  0  0  0  0
  -28.9610  -25.0367   22.3355 C   0  0  0  0  0  0  0  0  0  0  0  0
  -29.9211  -23.0772   21.0467 C   0  0  0  0  0  0  0  0  0  0  0  0
  -27.8796  -25.4849   23.3104 C   0  0  0  0  0  0  0  0  0  1  0  0
  -25.2035  -33.9020   23.3675 C   0  0  1  0  0  0  0  0  0  0  0  0
  -26.9934  -35.3168   26.3948 C   0  0  2  0  0  0  0  0  0  0  0  0
  -24.9428  -34.7841   22.1140 C   0  0  0  0  0  0  0  0  0  0  0  0
  -25.9446  -11.6927   20.6943 N   0  0  0  0  0  0  0  0  0  0  0  0
  -26.5639  -11.4881   19.5192 N   0  0  0  0  0  0  0  0  0  0  0  0
  -24.1352  -31.7063   23.7693 N   0  0  0  0  0  0  0  0  0  0  0  0
  -29.9491  -13.1176   20.2036 N   0  0  0  0  0  0  0  0  0  0  0  0
  -26.1932  -10.7977   17.2838 N   0  0  0  0  0  0  0  0  0  0  0  0
  -31.6171  -21.4721   19.3552 N   0  0  0  0  0  0  0  0  0  0  0  0
  -22.0926  -10.5156   19.1550 N   0  0  0  0  0  0  0  0  0  0  0  0
  -29.6940  -15.3489   19.4835 N   0  0  0  0  0  0  0  0  0  0  0  0
  -21.2882  -29.7608   22.5836 N   0  0  0  0  0  0  0  0  0  0  0  0
  -25.6089  -34.6515   24.5517 N   0  0  0  0  0  0  0  0  0  0  0  0
  -29.7887  -21.6365   20.8280 N   0  3  0  0  0  0  0  0  0  0  0  0
  -27.7363  -34.6067   27.4740 N   0  3  0  0  0  0  0  0  0  0  0  0
  -23.2829  -10.1951   17.2213 O   0  0  0  0  0  0  0  0  0  0  0  0
  -23.0868  -30.8618   21.5960 O   0  0  0  0  0  0  0  0  0  0  0  0
  -22.9512  -33.6906   24.0808 O   0  0  0  0  0  0  0  0  0  0  0  0
  -27.6296  -33.5580   24.8653 O   0  0  0  0  0  0  0  0  0  0  0  0
  -31.8026  -14.4100   19.7156 O   0  0  0  0  0  0  0  0  0  0  0  0
  -20.7915  -11.7256   24.4350 O   0  0  0  0  0  0  0  0  0  0  0  0
  -27.9828  -26.8903   23.5353 O   0  0  0  0  0  0  0  0  0  1  0  0
  -15.9765  -14.0728   23.1272 F   0  0  0  0  0  0  0  0  0  0  0  0
  -28.1839  -19.8820   19.0324 F   0  0  0  0  0  0  0  0  0  0  0  0
  -19.9068  -13.9829   25.7634 F   0  0  0  0  0  0  0  0  0  0  0  0
  1  2  1  0  0  0  0
  1  6  2  0  0  0  0
  2  7  2  0  0  0  0
  3 10  2  0  0  0  0
  3 18  1  0  0  0  0
  4 11  1  0  0  0  0
  4 18  2  0  0  0  0
  5  9  2  0  0  0  0
  5 19  1  0  0  0  0
  6 21  1  0  0  0  0
  7 23  1  0  0  0  0
  8 12  2  0  0  0  0
  8 22  1  0  0  0  0
  9 25  1  0  0  0  0
 10 26  1  0  0  0  0
 11 26  2  0  0  0  0
 12 27  1  0  0  0  0
 13 14  2  0  0  0  0
 13 28  1  0  0  0  0
 14 29  1  0  0  0  0
 15 24  1  0  0  0  0
 15 27  2  0  0  0  0
 16 25  2  0  0  0  0
 16 30  1  0  0  0  0
 17 29  2  0  0  0  0
 17 31  1  0  0  0  0
 18 32  1  0  0  0  0
 19 30  2  0  0  0  0
 19 34  1  0  0  0  0
 20 32  1  0  0  0  0
 20 33  2  0  0  0  0
 20 35  1  0  0  0  0
 21 23  2  0  0  0  0
 21 40  1  0  0  0  0
 22 24  2  0  0  0  0
 22 41  1  0  0  0  0
 23 49  1  0  0  0  0
 24 42  1  0  0  0  0
 25 71  1  0  0  0  0
 26 81  1  0  0  0  0
 27 82  1  0  0  0  0
 28 31  2  0  0  0  0
 28 81  1  0  0  0  0
 29 83  1  0  0  0  0
 30 84  1  0  0  0  0
 31 85  1  0  0  0  0
 32 64  2  0  0  0  0
 33 65  1  0  0  0  0
 33 68  1  0  0  0  0
 34 69  1  0  0  0  0
 34 74  2  0  0  0  0
 35 70  1  0  0  0  0
 35 76  2  0  0  0  0
 36 50  1  0  0  0  0
 36 72  1  0  0  0  0
 36 77  2  0  0  0  0
 37 61  1  0  0  0  0
 37 66  1  0  0  0  0
 37 78  2  0  0  0  0
 38 62  1  0  0  0  0
 38 73  1  0  0  0  0
 38 79  2  0  0  0  0
 39 67  1  0  0  0  0
 39 71  1  0  0  0  0
 39 80  2  0  0  0  0
 40 43  1  0  0  0  0
 41 50  1  0  0  0  0
 42 66  1  0  0  0  0
 43 45  1  0  0  0  0
 44 46  1  0  0  0  0
 44 47  1  0  0  0  0
 45 49  1  0  0  0  0
 46 51  1  0  0  0  0
 47 67  1  0  0  0  0
 48 51  1  0  0  0  0
 48 67  1  0  0  0  0
 49 72  1  0  0  0  0
 50 66  1  0  0  0  0
 51 65  1  0  0  0  0
 52 62  1  0  0  0  0
 53 63  1  0  0  0  0
 54 63  1  0  0  0  0
 55 63  1  0  0  0  0
 56 75  1  0  0  0  0
 57 58  1  0  0  0  0
 57 59  1  0  0  0  0
 58 60  1  0  0  0  0
 59 74  1  0  0  0  0
 60 82  1  0  0  0  0
 61 63  1  0  0  0  0
 61 73  1  0  0  0  0
 62 75  1  0  0  0  0
 64 65  1  0  0  0  0
M  CHG  2  74   1  75   1
M  ISO  4  39 100  60 101  71 100  82 101
M  END
> <Batch ID>
0090

> <Smiles>
CNC(C)C(=O)NC(C(=O)N1Cc2cc([101O:1][101CH2:1]CCCNC(=N)c3ccc([100NH:0][100C:0](=O)N4CCCC(n5nc(-c6ccc(Oc7ccc(F)cc7F)cc6)c(C(N)=O)c5N)C4)cc3F)ccc2CC1C(=O)NC1CCCc2ccccc21)C(C)(C)C

> <Shape>
0.262

> <Color>
0.073

> <Negative vol penalty>
0.000

$$$$

  -OEChem-04052300293D

 88 97  0     1  0  0  0  0  0999 V2000
  -28.2814  -33.9712   27.0268 C   0  0  0  0  0  0  0  0  0  0  0  0
  -28.2563  -32.6789   26.5123 C   0  0  0  0  0  0  0  0  0  0  0  0
  -22.8119  -10.5068   21.2414 C   0  0  0  0  0  0  0  0  0  0  0  0
  -24.5941   -8.9773   21.8082 C   0  0  0  0  0  0  0  0  0  0  0  0
  -27.1805  -34.8097   26.8563 C   0  0  0  0  0  0  0  0  0  0  0  0
  -27.1298  -32.2240   25.8278 C   0  0  0  0  0  0  0  0  0  0  0  0
  -27.0217  -28.3849   21.0575 C   0  0  0  0  0  0  0  0  0  0  0  0
  -21.9199   -9.4375   21.1607 C   0  0  0  0  0  0  0  0  0  0  0  0
  -23.7021   -7.9080   21.7276 C   0  0  0  0  0  0  0  0  0  0  0  0
  -26.7831  -27.0146   20.9614 C   0  0  0  0  0  0  0  0  0  0  0  0
  -21.2962   -6.5227   23.6545 C   0  0  0  0  0  0  0  0  0  0  0  0
  -21.3376   -5.5681   24.6707 C   0  0  0  0  0  0  0  0  0  0  0  0
  -28.2705  -20.1926   19.7038 C   0  0  0  0  0  0  0  0  0  0  0  0
  -27.2705  -20.9819   20.2441 C   0  0  0  0  0  0  0  0  0  0  0  0
  -24.4745  -27.4607   20.4223 C   0  0  0  0  0  0  0  0  0  0  0  0
  -21.8576   -3.8591   23.0441 C   0  0  0  0  0  0  0  0  0  0  0  0
  -24.1490  -10.2767   21.5651 C   0  0  0  0  0  0  0  0  0  0  0  0
  -24.9911  -12.4923   22.5082 C   0  0  0  0  0  0  0  0  0  0  0  0
  -26.0438  -34.3681   26.1610 C   0  0  0  0  0  0  0  0  0  0  0  0
  -25.9843  -29.3046   20.8470 C   0  0  0  0  0  0  0  0  0  0  0  0
  -26.0122  -33.0569   25.6489 C   0  0  0  0  0  0  0  0  0  0  0  0
  -24.7032  -28.8421   20.5137 C   0  0  0  0  0  0  0  0  0  0  0  0
  -22.3650   -8.1381   21.4038 C   0  0  0  0  0  0  0  0  0  0  0  0
  -25.5086  -26.5522   20.6466 C   0  0  0  0  0  0  0  0  0  0  0  0
  -21.5354   -6.1454   22.3331 C   0  0  0  0  0  0  0  0  0  0  0  0
  -21.6183   -4.2363   24.3655 C   0  0  0  0  0  0  0  0  0  0  0  0
  -21.8162   -4.8137   22.0279 C   0  0  0  0  0  0  0  0  0  0  0  0
  -25.0711  -11.3808   21.6480 C   0  0  0  0  0  0  0  0  0  0  0  0
  -28.0549  -18.8307   19.6398 C   0  0  0  0  0  0  0  0  0  0  0  0
  -26.1210  -20.3571   20.6843 C   0  0  0  0  0  0  0  0  0  0  0  0
  -26.0966  -13.2463   22.1985 C   0  0  0  0  0  0  0  0  0  0  0  0
  -23.5771  -23.0560   22.6269 C   0  0  0  0  0  0  0  0  0  0  0  0
  -24.0193  -23.3501   21.3969 C   0  0  0  0  0  0  0  0  0  0  0  0
  -23.6284  -21.6651   23.1212 C   0  0  0  0  0  0  0  0  0  0  0  0
  -24.0058  -12.8144   23.4986 C   0  0  0  0  0  0  0  0  0  0  0  0
  -29.0829  -17.9204   19.0729 C   0  0  0  0  0  0  0  0  0  0  0  0
  -24.5512  -31.5153   22.6254 C   0  0  0  0  0  0  0  0  0  0  0  0
  -23.0478  -32.2235   19.8396 C   0  0  0  0  0  0  0  0  0  0  0  0
  -22.0192  -31.1826   16.7565 C   0  0  0  0  0  0  0  0  0  0  0  0
  -29.5539  -15.5516   18.5337 C   0  0  0  0  0  0  0  0  0  0  0  0
  -24.8596  -35.2946   26.0429 C   0  0  0  0  0  0  0  0  0  0  0  0
  -26.2643  -30.7802   20.9280 C   0  0  0  0  0  0  0  0  0  0  0  0
  -23.5599  -29.7888   20.2583 C   0  0  0  0  0  0  0  0  0  0  0  0
  -24.2377  -20.5879   22.2590 C   0  0  0  0  0  0  0  0  0  0  0  0
  -23.8521  -34.8629   24.9805 C   0  0  0  0  0  0  0  0  0  0  0  0
  -30.1341  -12.1589   19.3400 C   0  0  0  0  0  0  0  0  0  0  0  0
  -23.5529  -33.3721   25.1028 C   0  0  0  0  0  0  0  0  0  0  0  0
  -28.8658  -11.7443   20.0910 C   0  0  0  0  0  0  0  0  0  0  0  0
  -29.8244  -13.1119   18.1864 C   0  0  0  0  0  0  0  0  0  0  0  0
  -27.7640  -13.8745   19.2959 C   0  0  0  0  0  0  0  0  0  0  0  0
  -24.8183  -32.5354   24.8790 C   0  0  1  0  0  0  0  0  0  0  0  0
  -24.6214  -22.3196   20.4644 C   0  0  2  0  0  0  0  0  0  0  0  0
  -25.0142  -31.6115   21.1992 C   0  0  1  0  0  0  0  0  0  0  0  0
  -28.0303  -12.9705   20.5104 C   0  0  1  0  0  0  0  0  0  0  0  0
  -23.6109  -21.8698   19.4036 C   0  0  0  0  0  0  0  0  0  0  0  0
  -20.7809  -31.9734   14.7222 C   0  0  0  0  0  0  0  0  0  0  0  0
  -20.4050  -31.9238   21.3348 C   0  0  0  0  0  0  0  0  0  0  0  0
  -19.2483  -31.7769   19.1192 C   0  0  0  0  0  0  0  0  0  0  0  0
  -20.4895  -33.8494   19.7413 C   0  0  0  0  0  0  0  0  0  0  0  0
  -24.3809  -30.7785   15.0192 C   0  0  0  0  0  0  0  0  0  0  0  0
  -23.9602  -24.7626   20.8825 C   0  0  0  0  0  0  0  0  0  1  0  0
  -21.7839  -31.7573   19.1583 C   0  0  1  0  0  0  0  0  0  0  0  0
  -22.1412  -31.8218   15.3850 C   0  0  2  0  0  0  0  0  0  0  0  0
  -20.5025  -32.3087   19.8451 C   0  0  0  0  0  0  0  0  0  0  0  0
  -26.1426  -11.4211   20.8516 N   0  0  0  0  0  0  0  0  0  0  0  0
  -26.9199  -18.2461   20.0783 N   0  0  0  0  0  0  0  0  0  0  0  0
  -25.9370  -19.0220   20.6089 N   0  0  0  0  0  0  0  0  0  0  0  0
  -26.7460  -12.5672   21.2100 N   0  0  0  0  0  0  0  0  0  0  0  0
  -25.1080  -21.1574   21.2314 N   0  0  2  0  0  0  0  0  0  0  0  0
  -23.8824  -31.2220   20.3557 N   0  0  0  0  0  0  0  0  0  0  0  0
  -29.0397  -14.2501   18.6680 N   0  0  0  0  0  0  0  0  0  0  0  0
  -26.5668  -14.4174   22.6780 N   0  0  0  0  0  0  0  0  0  0  0  0
  -24.2000  -12.3551   24.8084 N   0  0  0  0  0  0  0  0  0  0  0  0
  -28.7483  -16.5660   19.0630 N   0  0  0  0  0  0  0  0  0  0  0  0
  -25.1243  -32.4494   23.4671 N   0  0  0  0  0  0  0  0  0  0  0  0
  -21.9162  -32.1292   17.7538 N   0  0  0  0  0  0  0  0  0  0  0  0
  -23.0049  -30.9895   14.5006 N   0  3  0  0  0  0  0  0  0  0  0  0
  -23.1375  -21.3990   24.2184 O   0  0  0  0  0  0  0  0  0  0  0  0
  -22.9751  -13.4756   23.2264 O   0  0  0  0  0  0  0  0  0  0  0  0
  -30.1207  -18.3972   18.6219 O   0  0  0  0  0  0  0  0  0  0  0  0
  -23.7335  -30.6581   22.9386 O   0  0  0  0  0  0  0  0  0  0  0  0
  -23.2894  -33.4314   19.9050 O   0  0  0  0  0  0  0  0  0  0  0  0
  -22.0120  -29.9653   16.9258 O   0  0  0  0  0  0  0  0  0  0  0  0
  -30.6527  -15.7872   18.0214 O   0  0  0  0  0  0  0  0  0  0  0  0
  -21.4947   -7.0945   21.3254 O   0  0  0  0  0  0  0  0  0  0  0  0
  -25.2728  -25.2153   20.5529 O   0  0  0  0  0  0  0  0  0  1  0  0
  -21.6595   -3.3200   25.3417 F   0  0  0  0  0  0  0  0  0  0  0  0
  -22.0481   -4.4454   20.7604 F   0  0  0  0  0  0  0  0  0  0  0  0
  1  2  1  0  0  0  0
  1  5  2  0  0  0  0
  2  6  2  0  0  0  0
  3  8  2  0  0  0  0
  3 17  1  0  0  0  0
  4  9  1  0  0  0  0
  4 17  2  0  0  0  0
  5 19  1  0  0  0  0
  6 21  1  0  0  0  0
  7 10  2  0  0  0  0
  7 20  1  0  0  0  0
  8 23  1  0  0  0  0
  9 23  2  0  0  0  0
 10 24  1  0  0  0  0
 11 12  2  0  0  0  0
 11 25  1  0  0  0  0
 12 26  1  0  0  0  0
 13 14  2  0  0  0  0
 13 29  1  0  0  0  0
 14 30  1  0  0  0  0
 15 22  1  0  0  0  0
 15 24  2  0  0  0  0
 16 26  2  0  0  0  0
 16 27  1  0  0  0  0
 17 28  1  0  0  0  0
 18 28  1  0  0  0  0
 18 31  2  0  0  0  0
 18 35  1  0  0  0  0
 19 21  2  0  0  0  0
 19 41  1  0  0  0  0
 20 22  2  0  0  0  0
 20 42  1  0  0  0  0
 21 51  1  0  0  0  0
 22 43  1  0  0  0  0
 23 85  1  0  0  0  0
 24 86  1  0  0  0  0
 25 27  2  0  0  0  0
 25 85  1  0  0  0  0
 26 87  1  0  0  0  0
 27 88  1  0  0  0  0
 28 65  2  0  0  0  0
 29 36  1  0  0  0  0
 29 66  2  0  0  0  0
 30 67  2  0  0  0  0
 30 69  1  0  0  0  0
 31 68  1  0  0  0  0
 31 72  1  0  0  0  0
 32 33  2  0  0  0  0
 32 34  1  0  0  0  0
 33 52  1  0  0  0  0
 33 61  1  0  0  0  0
 34 44  1  0  0  0  0
 34 78  2  0  0  0  0
 35 73  1  0  0  0  0
 35 79  2  0  0  0  0
 36 74  1  0  0  0  0
 36 80  2  0  0  0  0
 37 53  1  0  0  0  0
 37 75  1  0  0  0  0
 37 81  2  0  0  0  0
 38 62  1  0  0  0  0
 38 70  1  0  0  0  0
 38 82  2  0  0  0  0
 39 63  1  0  0  0  0
 39 76  1  0  0  0  0
 39 83  2  0  0  0  0
 40 71  1  0  0  0  0
 40 74  1  0  0  0  0
 40 84  2  0  0  0  0
 41 45  1  0  0  0  0
 42 53  1  0  0  0  0
 43 70  1  0  0  0  0
 44 69  1  0  0  0  0
 45 47  1  0  0  0  0
 46 48  1  0  0  0  0
 46 49  1  0  0  0  0
 47 51  1  0  0  0  0
 48 54  1  0  0  0  0
 49 71  1  0  0  0  0
 50 54  1  0  0  0  0
 50 71  1  0  0  0  0
 51 75  1  0  0  0  0
 52 55  1  0  0  0  0
 52 69  1  0  0  0  0
 53 70  1  0  0  0  0
 54 68  1  0  0  0  0
 56 63  1  0  0  0  0
 57 64  1  0  0  0  0
 58 64  1  0  0  0  0
 59 64  1  0  0  0  0
 60 77  1  0  0  0  0
 61 86  1  0  0  0  0
 62 64  1  0  0  0  0
 62 76  1  0  0  0  0
 63 77  1  0  0  0  0
 65 68  1  0  0  0  0
 66 67  1  0  0  0  0
M  CHG  1  77   1
M  ISO  4  40 100  61 101  74 100  86 101
M  END
> <Batch ID>
0090

> <Smiles>
CNC(C)C(=O)NC(C(=O)N1Cc2cc([101O:1][101CH2:1]C3=C(C)N(c4ccc(C(=O)[100NH:0][100C:0](=O)N5CCCC(n6nc(-c7ccc(Oc8ccc(F)cc8F)cc7)c(C(N)=O)c6N)C5)nn4)CC(=O)C3)ccc2CC1C(=O)NC1CCCc2ccccc21)C(C)(C)C

> <Shape>
0.281

> <Color>
0.120

> <Negative vol penalty>
0.000

$$$$

  -OEChem-04052300293D

 86 94  0     1  0  0  0  0  0999 V2000
  -29.5464  -37.6682   22.6544 C   0  0  0  0  0  0  0  0  0  0  0  0
  -29.3430  -36.3935   22.1356 C   0  0  0  0  0  0  0  0  0  0  0  0
  -24.4444   -9.3569   21.5977 C   0  0  0  0  0  0  0  0  0  0  0  0
  -24.6092  -10.6700   23.6190 C   0  0  0  0  0  0  0  0  0  0  0  0
  -29.8514  -20.8818   21.2795 C   0  0  0  0  0  0  0  0  0  0  0  0
  -28.9750  -38.0217   23.8760 C   0  0  0  0  0  0  0  0  0  0  0  0
  -28.5691  -35.4711   22.8389 C   0  0  0  0  0  0  0  0  0  0  0  0
  -24.8673  -31.2059   20.4702 C   0  0  0  0  0  0  0  0  0  0  0  0
  -29.8142  -19.5388   20.9049 C   0  0  0  0  0  0  0  0  0  0  0  0
  -24.0914   -8.2387   22.3529 C   0  0  0  0  0  0  0  0  0  0  0  0
  -24.2561   -9.5517   24.3743 C   0  0  0  0  0  0  0  0  0  0  0  0
  -25.0381  -29.8428   20.2325 C   0  0  0  0  0  0  0  0  0  0  0  0
  -21.3277   -7.0427   23.8906 C   0  0  0  0  0  0  0  0  0  0  0  0
  -20.2599   -6.2667   23.4397 C   0  0  0  0  0  0  0  0  0  0  0  0
  -27.4363  -20.9461   21.2894 C   0  0  0  0  0  0  0  0  0  0  0  0
  -23.9637  -29.3477   22.3348 C   0  0  0  0  0  0  0  0  0  0  0  0
  -21.7238   -4.3525   23.2675 C   0  0  0  0  0  0  0  0  0  0  0  0
  -24.7034  -10.5727   22.2308 C   0  0  0  0  0  0  0  0  0  0  0  0
  -28.6625  -21.5855   21.4718 C   0  0  0  0  0  0  0  0  0  0  0  0
  -24.2015  -12.6890   20.8979 C   0  0  0  0  0  0  0  0  0  0  0  0
  -28.1857  -37.1064   24.5900 C   0  0  0  0  0  0  0  0  0  0  0  0
  -24.2521  -31.6513   21.6490 C   0  0  0  0  0  0  0  0  0  0  0  0
  -27.9877  -35.8123   24.0719 C   0  0  0  0  0  0  0  0  0  0  0  0
  -23.7839  -30.7169   22.5838 C   0  0  0  0  0  0  0  0  0  0  0  0
  -28.5880  -18.8994   20.7224 C   0  0  0  0  0  0  0  0  0  0  0  0
  -23.9972   -8.3360   23.7412 C   0  0  0  0  0  0  0  0  0  0  0  0
  -24.5889  -28.9135   21.1662 C   0  0  0  0  0  0  0  0  0  0  0  0
  -22.5936   -6.4736   24.0299 C   0  0  0  0  0  0  0  0  0  0  0  0
  -20.4580   -4.9216   23.1282 C   0  0  0  0  0  0  0  0  0  0  0  0
  -27.3991  -19.6030   20.9146 C   0  0  0  0  0  0  0  0  0  0  0  0
  -22.7916   -5.1285   23.7183 C   0  0  0  0  0  0  0  0  0  0  0  0
  -25.0687  -11.7281   21.4512 C   0  0  0  0  0  0  0  0  0  0  0  0
  -25.0336  -13.5736   20.2564 C   0  0  0  0  0  0  0  0  0  0  0  0
  -25.9042  -26.9915   21.3819 C   0  0  0  0  0  0  0  0  0  1  0  0
  -28.7023  -23.0156   21.8706 C   0  0  0  0  0  0  0  0  0  0  0  0
  -22.7715  -12.7745   20.9584 C   0  0  0  0  0  0  0  0  0  0  0  0
  -26.1713  -25.6912   21.2114 C   0  0  0  0  0  0  0  0  0  0  0  0
  -27.4594  -25.1433   21.7367 C   0  0  0  0  0  0  0  0  0  0  0  0
  -25.1626  -33.4313   24.1200 C   0  0  0  0  0  0  0  0  0  0  0  0
  -22.0468  -33.1440   24.9756 C   0  0  0  0  0  0  0  0  0  0  0  0
  -19.1377  -31.3714   24.7708 C   0  0  0  0  0  0  0  0  0  0  0  0
  -29.6422  -16.6949   20.1098 C   0  0  0  0  0  0  0  0  0  0  0  0
  -27.6279  -37.5187   25.9292 C   0  0  0  0  0  0  0  0  0  0  0  0
  -24.0513  -33.1242   21.8780 C   0  0  0  0  0  0  0  0  0  0  0  0
  -23.0987  -31.1428   23.8557 C   0  0  0  0  0  0  0  0  0  0  0  0
  -26.5119  -36.6061   26.4312 C   0  0  0  0  0  0  0  0  0  0  0  0
  -29.9732  -13.2704   19.1932 C   0  0  0  0  0  0  0  0  0  0  0  0
  -26.9062  -35.1415   26.2687 C   0  0  0  0  0  0  0  0  0  0  0  0
  -28.6554  -12.6429   19.6534 C   0  0  0  0  0  0  0  0  0  0  0  0
  -30.4571  -14.3479   20.1619 C   0  0  0  0  0  0  0  0  0  0  0  0
  -28.1543  -14.7646   20.9317 C   0  0  0  0  0  0  0  0  0  0  0  0
  -27.1339  -34.7920   24.7931 C   0  0  1  0  0  0  0  0  0  0  0  0
  -23.8730  -33.4811   23.3505 C   0  0  1  0  0  0  0  0  0  0  0  0
  -27.5936  -13.7189   19.9541 C   0  0  2  0  0  0  0  0  0  0  0  0
  -16.7726  -31.3635   25.6095 C   0  0  0  0  0  0  0  0  0  0  0  0
  -23.0143  -32.1338   27.6873 C   0  0  0  0  0  0  0  0  0  0  0  0
  -20.7047  -31.2645   28.1094 C   0  0  0  0  0  0  0  0  0  0  0  0
  -21.0761  -33.7108   27.7925 C   0  0  0  0  0  0  0  0  0  0  0  0
  -18.0426  -31.5967   22.0305 C   0  0  0  0  0  0  0  0  0  0  0  0
  -21.2511  -32.1623   25.8015 C   0  0  1  0  0  0  0  0  0  0  0  0
  -17.7097  -31.8074   24.4970 C   0  0  2  0  0  0  0  0  0  0  0  0
  -21.5262  -32.3096   27.3247 C   0  0  0  0  0  0  0  0  0  0  0  0
  -26.3533  -11.9784   21.1845 N   0  0  0  0  0  0  0  0  0  0  0  0
  -26.2994  -13.1067   20.4564 N   0  0  0  0  0  0  0  0  0  0  0  0
  -22.9315  -32.5942   24.0370 N   0  0  0  0  0  0  0  0  0  0  0  0
  -29.4004  -15.3346   20.3960 N   0  0  0  0  0  0  0  0  0  0  0  0
  -24.7988  -14.6975   19.5463 N   0  0  0  0  0  0  0  0  0  0  0  0
  -22.0720  -11.7825   21.6590 N   0  0  0  0  0  0  0  0  0  0  0  0
  -28.5536  -17.5351   20.3411 N   0  0  0  0  0  0  0  0  0  0  0  0
  -27.6008  -23.7796   21.4874 N   0  0  0  0  0  0  0  0  0  0  0  0
  -25.8680  -34.6195   24.1134 N   0  0  0  0  0  0  0  0  0  0  0  0
  -19.8541  -32.3508   25.4257 N   0  0  0  0  0  0  0  0  0  0  0  0
  -17.2265  -31.2228   23.2142 N   0  3  0  0  0  0  0  0  0  0  0  0
  -29.6840  -23.4412   22.4732 O   0  0  0  0  0  0  0  0  0  0  0  0
  -22.1319  -13.6940   20.3937 O   0  0  0  0  0  0  0  0  0  0  0  0
  -28.2777  -25.8473   22.3214 O   0  0  0  0  0  0  0  0  0  0  0  0
  -25.4924  -32.3922   24.6797 O   0  0  0  0  0  0  0  0  0  0  0  0
  -21.8840  -34.3540   25.1516 O   0  0  0  0  0  0  0  0  0  0  0  0
  -19.5731  -30.2706   24.4403 O   0  0  0  0  0  0  0  0  0  0  0  0
  -30.7258  -17.0817   19.6647 O   0  0  0  0  0  0  0  0  0  0  0  0
  -25.3052  -24.8308   20.5689 O   0  0  0  0  0  0  0  0  0  0  0  0
  -23.6525   -7.2451   24.4784 O   0  0  0  0  0  0  0  0  0  0  0  0
  -24.7550  -27.5825   20.9370 O   0  0  0  0  0  0  0  0  0  1  0  0
  -19.4321   -4.1762   22.6966 F   0  0  0  0  0  0  0  0  0  0  0  0
  -26.2145  -18.9990   20.7416 F   0  0  0  0  0  0  0  0  0  0  0  0
  -24.0052   -4.5758   23.8512 F   0  0  0  0  0  0  0  0  0  0  0  0
  1  2  1  0  0  0  0
  1  6  2  0  0  0  0
  2  7  2  0  0  0  0
  3 10  2  0  0  0  0
  3 18  1  0  0  0  0
  4 11  1  0  0  0  0
  4 18  2  0  0  0  0
  5  9  2  0  0  0  0
  5 19  1  0  0  0  0
  6 21  1  0  0  0  0
  7 23  1  0  0  0  0
  8 12  2  0  0  0  0
  8 22  1  0  0  0  0
  9 25  1  0  0  0  0
 10 26  1  0  0  0  0
 11 26  2  0  0  0  0
 12 27  1  0  0  0  0
 13 14  2  0  0  0  0
 13 28  1  0  0  0  0
 14 29  1  0  0  0  0
 15 19  2  0  0  0  0
 15 30  1  0  0  0  0
 16 24  1  0  0  0  0
 16 27  2  0  0  0  0
 17 29  2  0  0  0  0
 17 31  1  0  0  0  0
 18 32  1  0  0  0  0
 19 35  1  0  0  0  0
 20 32  1  0  0  0  0
 20 33  2  0  0  0  0
 20 36  1  0  0  0  0
 21 23  2  0  0  0  0
 21 43  1  0  0  0  0
 22 24  2  0  0  0  0
 22 44  1  0  0  0  0
 23 52  1  0  0  0  0
 24 45  1  0  0  0  0
 25 30  2  0  0  0  0
 25 69  1  0  0  0  0
 26 82  1  0  0  0  0
 27 83  1  0  0  0  0
 28 31  2  0  0  0  0
 28 82  1  0  0  0  0
 29 84  1  0  0  0  0
 30 85  1  0  0  0  0
 31 86  1  0  0  0  0
 32 63  2  0  0  0  0
 33 64  1  0  0  0  0
 33 67  1  0  0  0  0
 34 37  2  0  0  0  0
 34 83  1  0  0  0  0
 35 70  1  0  0  0  0
 35 74  2  0  0  0  0
 36 68  1  0  0  0  0
 36 75  2  0  0  0  0
 37 38  1  0  0  0  0
 37 81  1  0  0  0  0
 38 70  1  0  0  0  0
 38 76  2  0  0  0  0
 39 53  1  0  0  0  0
 39 71  1  0  0  0  0
 39 77  2  0  0  0  0
 40 60  1  0  0  0  0
 40 65  1  0  0  0  0
 40 78  2  0  0  0  0
 41 61  1  0  0  0  0
 41 72  1  0  0  0  0
 41 79  2  0  0  0  0
 42 66  1  0  0  0  0
 42 69  1  0  0  0  0
 42 80  2  0  0  0  0
 43 46  1  0  0  0  0
 44 53  1  0  0  0  0
 45 65  1  0  0  0  0
 46 48  1  0  0  0  0
 47 49  1  0  0  0  0
 47 50  1  0  0  0  0
 48 52  1  0  0  0  0
 49 54  1  0  0  0  0
 50 66  1  0  0  0  0
 51 54  1  0  0  0  0
 51 66  1  0  0  0  0
 52 71  1  0  0  0  0
 53 65  1  0  0  0  0
 54 64  1  0  0  0  0
 55 61  1  0  0  0  0
 56 62  1  0  0  0  0
 57 62  1  0  0  0  0
 58 62  1  0  0  0  0
 59 73  1  0  0  0  0
 60 62  1  0  0  0  0
 60 72  1  0  0  0  0
 61 73  1  0  0  0  0
 63 64  1  0  0  0  0
M  CHG  1  73   1
M  ISO  4  34 101  42 100  69 100  83 101
M  END
> <Batch ID>
0090

> <Smiles>
CNC(C)C(=O)NC(C(=O)N1Cc2cc([101O:1][101CH2:1]C(=O)C(=O)NC(=O)c3ccc([100NH:0][100C:0](=O)N4CCCC(n5nc(-c6ccc(Oc7ccc(F)cc7F)cc6)c(C(N)=O)c5N)C4)c(F)c3)ccc2CC1C(=O)NC1CCCc2ccccc21)C(C)(C)C

> <Shape>
0.289

> <Color>
0.105

> <Negative vol penalty>
0.000

$$$$

  -OEChem-04052300293D

 87 96  0     1  0  0  0  0  0999 V2000
  -24.1934  -35.5451   21.8079 C   0  0  0  0  0  0  0  0  0  0  0  0
  -24.9981  -34.4598   21.4767 C   0  0  0  0  0  0  0  0  0  0  0  0
  -22.5927  -10.6453   21.8452 C   0  0  0  0  0  0  0  0  0  0  0  0
  -24.4574   -9.1230   21.6387 C   0  0  0  0  0  0  0  0  0  0  0  0
  -23.1151  -35.3731   22.6748 C   0  0  0  0  0  0  0  0  0  0  0  0
  -24.7257  -33.2018   22.0131 C   0  0  0  0  0  0  0  0  0  0  0  0
  -25.5055  -27.7822   19.2699 C   0  0  0  0  0  0  0  0  0  0  0  0
  -21.9595   -9.7524   22.7097 C   0  0  0  0  0  0  0  0  0  0  0  0
  -23.8242   -8.2301   22.5033 C   0  0  0  0  0  0  0  0  0  0  0  0
  -26.5227  -26.8316   19.3431 C   0  0  0  0  0  0  0  0  0  0  0  0
  -21.3501   -5.9318   22.3371 C   0  0  0  0  0  0  0  0  0  0  0  0
  -21.3397   -4.5830   21.9820 C   0  0  0  0  0  0  0  0  0  0  0  0
  -25.2541  -25.6099   20.9916 C   0  0  0  0  0  0  0  0  0  0  0  0
  -22.5265   -4.0386   24.0148 C   0  0  0  0  0  0  0  0  0  0  0  0
  -23.8417  -10.3305   21.3096 C   0  0  0  0  0  0  0  0  0  0  0  0
  -24.0165  -11.7220   19.1787 C   0  0  0  0  0  0  0  0  0  0  0  0
  -22.8235  -34.1104   23.2146 C   0  0  0  0  0  0  0  0  0  0  0  0
  -24.3579  -27.6594   20.0663 C   0  0  0  0  0  0  0  0  0  0  0  0
  -23.6433  -33.0130   22.8891 C   0  0  0  0  0  0  0  0  0  0  0  0
  -24.2227  -26.5590   20.9248 C   0  0  0  0  0  0  0  0  0  0  0  0
  -22.5752   -8.5449   23.0388 C   0  0  0  0  0  0  0  0  0  0  0  0
  -26.3984  -25.7468   20.2062 C   0  0  0  0  0  0  0  0  0  0  0  0
  -21.9488   -6.3341   23.5310 C   0  0  0  0  0  0  0  0  0  0  0  0
  -21.9278   -3.6363   22.8209 C   0  0  0  0  0  0  0  0  0  0  0  0
  -22.5370   -5.3875   24.3699 C   0  0  0  0  0  0  0  0  0  0  0  0
  -24.4960  -11.2522   20.4161 C   0  0  0  0  0  0  0  0  0  0  0  0
  -25.0004  -12.5677   18.7278 C   0  0  0  0  0  0  0  0  0  0  0  0
  -29.6422  -19.8948   21.4048 C   0  0  0  0  0  0  0  0  0  0  0  0
  -29.6565  -18.4574   21.3046 C   0  0  0  0  0  0  0  0  0  0  0  0
  -32.5555  -19.1719   21.9575 C   0  0  0  0  0  0  0  0  0  0  0  0
  -32.0823  -20.3266   21.4569 C   0  0  0  0  0  0  0  0  0  0  0  0
  -30.6767  -20.7548   21.4805 C   0  0  0  0  0  0  0  0  0  0  0  0
  -30.5460  -17.6142   21.8430 C   0  0  0  0  0  0  0  0  0  0  0  0
  -31.7811  -18.0510   22.5421 C   0  0  0  0  0  0  0  0  0  0  0  0
  -29.4130  -24.1681   21.3499 C   0  0  0  0  0  0  0  0  0  0  0  0
  -28.3896  -25.0148   21.1910 C   0  0  0  0  0  0  0  0  0  1  0  0
  -22.7911  -11.4211   18.4978 C   0  0  0  0  0  0  0  0  0  0  0  0
  -23.0194  -29.4101   22.3570 C   0  0  0  0  0  0  0  0  0  0  0  0
  -20.6457  -27.2131   22.1104 C   0  0  0  0  0  0  0  0  0  0  0  0
  -19.6982  -24.0600   21.2120 C   0  0  0  0  0  0  0  0  0  0  0  0
  -29.0859  -15.6731   21.7633 C   0  0  0  0  0  0  0  0  0  0  0  0
  -21.6756  -33.9831   24.1845 C   0  0  0  0  0  0  0  0  0  0  0  0
  -23.2577  -28.6791   19.9560 C   0  0  0  0  0  0  0  0  0  0  0  0
  -23.0015  -26.3704   21.7860 C   0  0  0  0  0  0  0  0  0  0  0  0
  -30.5276  -24.3434   22.3330 C   0  0  0  0  0  0  0  0  0  0  0  0
  -21.2298  -32.5414   24.4148 C   0  0  0  0  0  0  0  0  0  0  0  0
  -29.6986  -13.3293   18.9722 C   0  0  0  0  0  0  0  0  0  0  0  0
  -22.4377  -31.6406   24.6524 C   0  0  0  0  0  0  0  0  0  0  0  0
  -28.3938  -12.5388   18.9616 C   0  0  0  0  0  0  0  0  0  0  0  0
  -30.8688  -22.9061   22.7049 C   0  0  0  0  0  0  0  0  0  0  0  0
  -30.0999  -13.7555   20.3838 C   0  0  0  0  0  0  0  0  0  0  0  0
  -27.7254  -13.7156   21.0929 C   0  0  0  0  0  0  0  0  0  0  0  0
  -23.3650  -31.6277   23.4311 C   0  0  1  0  0  0  0  0  0  0  0  0
  -29.5544  -22.8357   20.6631 C   0  0  1  0  0  0  0  0  0  0  0  0
  -22.3625  -28.7282   21.1904 C   0  0  1  0  0  0  0  0  0  0  0  0
  -27.2812  -13.3207   19.6761 C   0  0  2  0  0  0  0  0  0  0  0  0
  -33.0740  -21.2948   20.8497 C   0  0  0  0  0  0  0  0  0  0  0  0
  -30.2044  -22.9799   19.2899 C   0  0  0  0  0  0  0  0  0  0  0  0
  -17.7005  -22.5420   21.1633 C   0  0  0  0  0  0  0  0  0  0  0  0
  -20.9057  -26.7786   25.1193 C   0  0  0  0  0  0  0  0  0  0  0  0
  -19.6142  -24.6503   24.8532 C   0  0  0  0  0  0  0  0  0  0  0  0
  -18.5531  -26.8319   24.2724 C   0  0  0  0  0  0  0  0  0  0  0  0
  -19.8220  -23.8004   18.2665 C   0  0  0  0  0  0  0  0  0  0  0  0
  -20.3463  -25.8849   22.7625 C   0  0  1  0  0  0  0  0  0  0  0  0
  -18.5268  -23.5565   20.3882 C   0  0  2  0  0  0  0  0  0  0  0  0
  -19.8788  -26.0407   24.2372 C   0  0  0  0  0  0  0  0  0  0  0  0
  -25.6917  -11.7573   20.7311 N   0  0  0  0  0  0  0  0  0  0  0  0
  -25.9718  -12.5532   19.6851 N   0  0  0  0  0  0  0  0  0  0  0  0
  -30.4263  -22.0901   21.5764 N   0  0  3  0  0  0  0  0  0  0  0  0
  -21.9561  -27.3976   21.6471 N   0  0  0  0  0  0  0  0  0  0  0  0
  -28.9992  -14.4463   21.0749 N   0  0  0  0  0  0  0  0  0  0  0  0
  -25.1207  -13.3147   17.6099 N   0  0  0  0  0  0  0  0  0  0  0  0
  -22.7692  -10.3373   17.6094 N   0  0  0  0  0  0  0  0  0  0  0  0
  -30.3466  -16.2635   21.7855 N   0  0  0  0  0  0  0  0  0  0  0  0
  -22.8223  -30.7774   22.3934 N   0  0  0  0  0  0  0  0  0  0  0  0
  -19.3820  -25.2137   21.8977 N   0  0  0  0  0  0  0  0  0  0  0  0
  -19.0136  -22.9088   19.1374 N   0  3  0  0  0  0  0  0  0  0  0  0
  -32.2351  -17.4204   23.4933 O   0  0  0  0  0  0  0  0  0  0  0  0
  -21.7510  -12.1034   18.6597 O   0  0  0  0  0  0  0  0  0  0  0  0
  -23.6566  -28.7449   23.1652 O   0  0  0  0  0  0  0  0  0  0  0  0
  -19.7480  -28.0531   22.0093 O   0  0  0  0  0  0  0  0  0  0  0  0
  -20.7840  -23.4852   21.2469 O   0  0  0  0  0  0  0  0  0  0  0  0
  -28.1107  -16.1900   22.3204 O   0  0  0  0  0  0  0  0  0  0  0  0
  -21.9577   -7.6735   23.8826 O   0  0  0  0  0  0  0  0  0  0  0  0
  -27.3901  -24.8178   20.2801 O   0  0  0  0  0  0  0  0  0  1  0  0
  -21.9163   -2.3409   22.4805 F   0  0  0  0  0  0  0  0  0  0  0  0
  -23.1126   -5.7677   25.5188 F   0  0  0  0  0  0  0  0  0  0  0  0
  1  2  1  0  0  0  0
  1  5  2  0  0  0  0
  2  6  2  0  0  0  0
  3  8  2  0  0  0  0
  3 15  1  0  0  0  0
  4  9  1  0  0  0  0
  4 15  2  0  0  0  0
  5 17  1  0  0  0  0
  6 19  1  0  0  0  0
  7 10  2  0  0  0  0
  7 18  1  0  0  0  0
  8 21  1  0  0  0  0
  9 21  2  0  0  0  0
 10 22  1  0  0  0  0
 11 12  2  0  0  0  0
 11 23  1  0  0  0  0
 12 24  1  0  0  0  0
 13 20  1  0  0  0  0
 13 22  2  0  0  0  0
 14 24  2  0  0  0  0
 14 25  1  0  0  0  0
 15 26  1  0  0  0  0
 16 26  1  0  0  0  0
 16 27  2  0  0  0  0
 16 37  1  0  0  0  0
 17 19  2  0  0  0  0
 17 42  1  0  0  0  0
 18 20  2  0  0  0  0
 18 43  1  0  0  0  0
 19 53  1  0  0  0  0
 20 44  1  0  0  0  0
 21 84  1  0  0  0  0
 22 85  1  0  0  0  0
 23 25  2  0  0  0  0
 23 84  1  0  0  0  0
 24 86  1  0  0  0  0
 25 87  1  0  0  0  0
 26 67  2  0  0  0  0
 27 68  1  0  0  0  0
 27 72  1  0  0  0  0
 28 29  1  0  0  0  0
 28 32  2  0  0  0  0
 29 33  2  0  0  0  0
 30 31  2  0  0  0  0
 30 34  1  0  0  0  0
 31 32  1  0  0  0  0
 31 57  1  0  0  0  0
 32 69  1  0  0  0  0
 33 34  1  0  0  0  0
 33 74  1  0  0  0  0
 34 78  2  0  0  0  0
 35 36  2  0  0  0  0
 35 45  1  0  0  0  0
 35 54  1  0  0  0  0
 36 85  1  0  0  0  0
 37 73  1  0  0  0  0
 37 79  2  0  0  0  0
 38 55  1  0  0  0  0
 38 75  1  0  0  0  0
 38 80  2  0  0  0  0
 39 64  1  0  0  0  0
 39 70  1  0  0  0  0
 39 81  2  0  0  0  0
 40 65  1  0  0  0  0
 40 76  1  0  0  0  0
 40 82  2  0  0  0  0
 41 71  1  0  0  0  0
 41 74  1  0  0  0  0
 41 83  2  0  0  0  0
 42 46  1  0  0  0  0
 43 55  1  0  0  0  0
 44 70  1  0  0  0  0
 45 50  1  0  0  0  0
 46 48  1  0  0  0  0
 47 49  1  0  0  0  0
 47 51  1  0  0  0  0
 48 53  1  0  0  0  0
 49 56  1  0  0  0  0
 50 69  1  0  0  0  0
 51 71  1  0  0  0  0
 52 56  1  0  0  0  0
 52 71  1  0  0  0  0
 53 75  1  0  0  0  0
 54 58  1  0  0  0  0
 54 69  1  0  0  0  0
 55 70  1  0  0  0  0
 56 68  1  0  0  0  0
 59 65  1  0  0  0  0
 60 66  1  0  0  0  0
 61 66  1  0  0  0  0
 62 66  1  0  0  0  0
 63 77  1  0  0  0  0
 64 66  1  0  0  0  0
 64 76  1  0  0  0  0
 65 77  1  0  0  0  0
 67 68  1  0  0  0  0
M  CHG  1  77   1
M  ISO  4  36 101  41 100  74 100  85 101
M  END
> <Batch ID>
0090

> <Smiles>
CNC(C)C(=O)NC(C(=O)N1Cc2cc([101O:1][101CH:1]=C3CCN(c4ccc([100NH:0][100C:0](=O)N5CCCC(n6nc(-c7ccc(Oc8ccc(F)cc8F)cc7)c(C(N)=O)c6N)C5)c(=O)cc4C)C3C)ccc2CC1C(=O)NC1CCCc2ccccc21)C(C)(C)C

> <Shape>
0.275

> <Color>
0.071

> <Negative vol penalty>
0.000

$$$$

  -OEChem-04052300293D

 89 98  0     1  0  0  0  0  0999 V2000
  -29.3269  -34.0179   27.3232 C   0  0  0  0  0  0  0  0  0  0  0  0
  -28.9452  -32.8705   26.6355 C   0  0  0  0  0  0  0  0  0  0  0  0
  -24.3459   -8.9344   21.4917 C   0  0  0  0  0  0  0  0  0  0  0  0
  -24.3427  -10.4634   23.3623 C   0  0  0  0  0  0  0  0  0  0  0  0
  -28.4072  -35.0458   27.5265 C   0  0  0  0  0  0  0  0  0  0  0  0
  -27.6430  -32.7498   26.1515 C   0  0  0  0  0  0  0  0  0  0  0  0
  -27.4887  -30.9751   21.4111 C   0  0  0  0  0  0  0  0  0  0  0  0
  -24.0009   -7.8877   22.3466 C   0  0  0  0  0  0  0  0  0  0  0  0
  -23.9977   -9.4167   24.2173 C   0  0  0  0  0  0  0  0  0  0  0  0
  -27.6723  -29.6039   21.2383 C   0  0  0  0  0  0  0  0  0  0  0  0
  -22.7680   -4.8827   23.9791 C   0  0  0  0  0  0  0  0  0  0  0  0
  -21.7637   -4.0090   23.5622 C   0  0  0  0  0  0  0  0  0  0  0  0
  -25.2862  -29.3168   21.0298 C   0  0  0  0  0  0  0  0  0  0  0  0
  -26.8771  -20.5749   20.0710 C   0  0  0  0  0  0  0  0  0  0  0  0
  -29.3102  -19.2154   19.9501 C   0  0  0  0  0  0  0  0  0  0  0  0
  -20.2067   -5.8529   23.4487 C   0  0  0  0  0  0  0  0  0  0  0  0
  -24.5169  -10.2223   21.9995 C   0  0  0  0  0  0  0  0  0  0  0  0
  -23.9972  -12.1561   20.4191 C   0  0  0  0  0  0  0  0  0  0  0  0
  -27.0958  -34.9419   27.0365 C   0  0  0  0  0  0  0  0  0  0  0  0
  -26.1996  -31.5269   21.4055 C   0  0  0  0  0  0  0  0  0  0  0  0
  -26.7044  -33.7767   26.3497 C   0  0  0  0  0  0  0  0  0  0  0  0
  -25.0892  -30.6957   21.2002 C   0  0  0  0  0  0  0  0  0  0  0  0
  -28.0740  -21.2708   20.2403 C   0  0  0  0  0  0  0  0  0  0  0  0
  -26.8967  -19.1992   19.8413 C   0  0  0  0  0  0  0  0  0  0  0  0
  -28.1132  -18.5194   19.7809 C   0  0  0  0  0  0  0  0  0  0  0  0
  -23.8268   -8.1288   23.7094 C   0  0  0  0  0  0  0  0  0  0  0  0
  -26.5708  -28.7741   21.0505 C   0  0  0  0  0  0  0  0  0  0  0  0
  -22.4916   -6.2415   24.1308 C   0  0  0  0  0  0  0  0  0  0  0  0
  -20.4831   -4.4941   23.2970 C   0  0  0  0  0  0  0  0  0  0  0  0
  -29.2905  -20.5911   20.1798 C   0  0  0  0  0  0  0  0  0  0  0  0
  -21.2110   -6.7266   23.8656 C   0  0  0  0  0  0  0  0  0  0  0  0
  -24.8738  -11.3038   21.1169 C   0  0  0  0  0  0  0  0  0  0  0  0
  -24.8241  -13.0065   19.7265 C   0  0  0  0  0  0  0  0  0  0  0  0
  -28.7435  -24.9156   19.7254 C   0  0  0  0  0  0  0  0  0  0  0  0
  -28.0935  -25.4714   20.7521 C   0  0  0  0  0  0  0  0  0  0  0  0
  -27.4094  -24.6267   21.7243 C   0  0  0  0  0  0  0  0  0  0  0  0
  -27.3949  -23.2694   21.6028 C   0  0  0  0  0  0  0  0  0  0  0  0
  -28.7485  -23.4511   19.5240 C   0  0  0  0  0  0  0  0  0  0  0  0
  -22.5638  -12.1773   20.3987 C   0  0  0  0  0  0  0  0  0  0  0  0
  -24.4270  -33.1077   23.5180 C   0  0  0  0  0  0  0  0  0  0  0  0
  -22.3944  -33.4029   21.0073 C   0  0  0  0  0  0  0  0  0  0  0  0
  -21.3040  -32.2002   18.0054 C   0  0  0  0  0  0  0  0  0  0  0  0
  -29.2940  -16.3163   19.4672 C   0  0  0  0  0  0  0  0  0  0  0  0
  -26.1235  -36.0588   27.3219 C   0  0  0  0  0  0  0  0  0  0  0  0
  -26.0203  -33.0116   21.5665 C   0  0  0  0  0  0  0  0  0  0  0  0
  -23.6858  -31.2413   21.1656 C   0  0  0  0  0  0  0  0  0  0  0  0
  -24.8704  -36.0130   26.4513 C   0  0  0  0  0  0  0  0  0  0  0  0
  -29.8229  -12.8336   18.9496 C   0  0  0  0  0  0  0  0  0  0  0  0
  -24.3027  -34.5978   26.4069 C   0  0  0  0  0  0  0  0  0  0  0  0
  -28.5104  -12.1952   19.4099 C   0  0  0  0  0  0  0  0  0  0  0  0
  -30.2059  -14.0313   19.8170 C   0  0  0  0  0  0  0  0  0  0  0  0
  -27.8485  -14.4148   20.4211 C   0  0  0  0  0  0  0  0  0  0  0  0
  -25.3081  -33.6193   25.7879 C   0  0  1  0  0  0  0  0  0  0  0  0
  -24.6277  -33.3955   22.0570 C   0  0  1  0  0  0  0  0  0  0  0  0
  -27.3880  -13.2439   19.5376 C   0  0  2  0  0  0  0  0  0  0  0  0
  -26.7260  -25.3341   22.8771 C   0  0  0  0  0  0  0  0  0  0  0  0
  -19.6034  -32.6308   16.2110 C   0  0  0  0  0  0  0  0  0  0  0  0
  -20.2161  -32.2314   22.7940 C   0  0  0  0  0  0  0  0  0  0  0  0
  -18.8548  -31.8052   20.7365 C   0  0  0  0  0  0  0  0  0  0  0  0
  -19.4736  -34.1402   21.3589 C   0  0  0  0  0  0  0  0  0  0  0  0
  -23.3998  -32.6241   15.9591 C   0  0  0  0  0  0  0  0  0  0  0  0
  -28.0882  -26.9483   20.9092 C   0  0  0  0  0  0  0  0  0  1  0  0
  -21.2512  -32.5859   20.4554 C   0  0  1  0  0  0  0  0  0  0  0  0
  -21.0247  -32.8932   16.6840 C   0  0  2  0  0  0  0  0  0  0  0  0
  -19.9751  -32.6798   21.3387 C   0  0  0  0  0  0  0  0  0  0  0  0
  -26.1590  -11.5868   20.8884 N   0  0  0  0  0  0  0  0  0  0  0  0
  -26.0960  -12.6264   20.0391 N   0  0  0  0  0  0  0  0  0  0  0  0
  -28.0514  -22.6711   20.4753 N   0  0  0  0  0  0  0  0  0  0  0  0
  -23.5618  -32.6986   21.3341 N   0  0  0  0  0  0  0  0  0  0  0  0
  -29.0962  -14.9844   19.8886 N   0  0  0  0  0  0  0  0  0  0  0  0
  -25.6727  -18.5140   19.6721 N   0  0  0  0  0  0  0  0  0  0  0  0
  -24.5799  -14.0347   18.8865 N   0  0  0  0  0  0  0  0  0  0  0  0
  -21.8706  -11.2331   21.1684 N   0  0  0  0  0  0  0  0  0  0  0  0
  -28.1589  -17.1221   19.5505 N   0  0  0  0  0  0  0  0  0  0  0  0
  -25.3235  -33.7545   24.3471 N   0  0  0  0  0  0  0  0  0  0  0  0
  -21.0592  -33.0299   19.0791 N   0  0  0  0  0  0  0  0  0  0  0  0
  -21.9660  -32.4081   15.6354 N   0  3  0  0  0  0  0  0  0  0  0  0
  -26.8538  -22.4123   22.3620 O   0  5  0  0  0  0  0  0  0  0  0  0
  -29.3491  -22.9988   18.5475 O   0  0  0  0  0  0  0  0  0  0  0  0
  -21.9167  -12.9984   19.7054 O   0  0  0  0  0  0  0  0  0  0  0  0
  -23.5246  -32.3557   23.8672 O   0  0  0  0  0  0  0  0  0  0  0  0
  -22.2591  -34.6222   21.1366 O   0  0  0  0  0  0  0  0  0  0  0  0
  -21.6964  -31.0377   18.0779 O   0  0  0  0  0  0  0  0  0  0  0  0
  -30.3825  -16.7059   19.0366 O   0  0  0  0  0  0  0  0  0  0  0  0
  -23.4899   -7.1077   24.5439 O   0  0  0  0  0  0  0  0  0  0  0  0
  -26.7471  -27.4353   20.8823 O   0  0  0  0  0  0  0  0  0  1  0  0
  -19.5192   -3.6552   22.8953 F   0  0  0  0  0  0  0  0  0  0  0  0
  -30.4471  -21.2498   20.3405 F   0  0  0  0  0  0  0  0  0  0  0  0
  -20.9398   -8.0311   24.0084 F   0  0  0  0  0  0  0  0  0  0  0  0
  1  2  1  0  0  0  0
  1  5  2  0  0  0  0
  2  6  2  0  0  0  0
  3  8  2  0  0  0  0
  3 17  1  0  0  0  0
  4  9  1  0  0  0  0
  4 17  2  0  0  0  0
  5 19  1  0  0  0  0
  6 21  1  0  0  0  0
  7 10  2  0  0  0  0
  7 20  1  0  0  0  0
  8 26  1  0  0  0  0
  9 26  2  0  0  0  0
 10 27  1  0  0  0  0
 11 12  2  0  0  0  0
 11 28  1  0  0  0  0
 12 29  1  0  0  0  0
 13 22  1  0  0  0  0
 13 27  2  0  0  0  0
 14 23  1  0  0  0  0
 14 24  2  0  0  0  0
 15 25  2  0  0  0  0
 15 30  1  0  0  0  0
 16 29  2  0  0  0  0
 16 31  1  0  0  0  0
 17 32  1  0  0  0  0
 18 32  1  0  0  0  0
 18 33  2  0  0  0  0
 18 39  1  0  0  0  0
 19 21  2  0  0  0  0
 19 44  1  0  0  0  0
 20 22  2  0  0  0  0
 20 45  1  0  0  0  0
 21 53  1  0  0  0  0
 22 46  1  0  0  0  0
 23 30  2  0  0  0  0
 23 68  1  0  0  0  0
 24 25  1  0  0  0  0
 24 71  1  0  0  0  0
 25 74  1  0  0  0  0
 26 85  1  0  0  0  0
 27 86  1  0  0  0  0
 28 31  2  0  0  0  0
 28 85  1  0  0  0  0
 29 87  1  0  0  0  0
 30 88  1  0  0  0  0
 31 89  1  0  0  0  0
 32 66  2  0  0  0  0
 33 67  1  0  0  0  0
 33 72  1  0  0  0  0
 34 35  2  0  0  0  0
 34 38  1  0  0  0  0
 35 36  1  0  0  0  0
 35 62  1  0  0  0  0
 36 37  2  0  0  0  0
 36 56  1  0  0  0  0
 37 68  1  0  0  0  0
 37 78  1  0  0  0  0
 38 68  1  0  0  0  0
 38 79  2  0  0  0  0
 39 73  1  0  0  0  0
 39 80  2  0  0  0  0
 40 54  1  0  0  0  0
 40 75  1  0  0  0  0
 40 81  2  0  0  0  0
 41 63  1  0  0  0  0
 41 69  1  0  0  0  0
 41 82  2  0  0  0  0
 42 64  1  0  0  0  0
 42 76  1  0  0  0  0
 42 83  2  0  0  0  0
 43 70  1  0  0  0  0
 43 74  1  0  0  0  0
 43 84  2  0  0  0  0
 44 47  1  0  0  0  0
 45 54  1  0  0  0  0
 46 69  1  0  0  0  0
 47 49  1  0  0  0  0
 48 50  1  0  0  0  0
 48 51  1  0  0  0  0
 49 53  1  0  0  0  0
 50 55  1  0  0  0  0
 51 70  1  0  0  0  0
 52 55  1  0  0  0  0
 52 70  1  0  0  0  0
 53 75  1  0  0  0  0
 54 69  1  0  0  0  0
 55 67  1  0  0  0  0
 57 64  1  0  0  0  0
 58 65  1  0  0  0  0
 59 65  1  0  0  0  0
 60 65  1  0  0  0  0
 61 77  1  0  0  0  0
 62 86  1  0  0  0  0
 63 65  1  0  0  0  0
 63 76  1  0  0  0  0
 64 77  1  0  0  0  0
 66 67  1  0  0  0  0
M  CHG  2  77   1  78  -1
M  ISO  4  43 100  62 101  74 100  86 101
M  END
> <Batch ID>
0090

> <Smiles>
CNC(C)C(=O)NC(C(=O)N1Cc2cc([101O:1][101CH2:1]C3=C(C)C(=O)N(c4cc(N)c([100NH:0][100C:0](=O)N5CCCC(n6nc(-c7ccc(Oc8ccc(F)cc8F)cc7)c(C(N)=O)c6N)C5)cc4F)C(=O)C3)ccc2CC1C(=O)NC1CCCc2ccccc21)C(C)(C)C

> <Shape>
0.283

> <Color>
0.114

> <Negative vol penalty>
0.000

$$$$

  -OEChem-04052300293D

 86 95  0     1  0  0  0  0  0999 V2000
  -29.3180  -32.3968   25.5079 C   0  0  0  0  0  0  0  0  0  0  0  0
  -29.0999  -31.1830   24.8641 C   0  0  0  0  0  0  0  0  0  0  0  0
  -23.2651   -9.9028   23.4807 C   0  0  0  0  0  0  0  0  0  0  0  0
  -23.9402  -10.1255   21.1717 C   0  0  0  0  0  0  0  0  0  0  0  0
  -28.2363  -33.1356   25.9854 C   0  0  0  0  0  0  0  0  0  0  0  0
  -27.7998  -30.7068   24.6983 C   0  0  0  0  0  0  0  0  0  0  0  0
  -26.9661  -28.9182   20.0345 C   0  0  0  0  0  0  0  0  0  0  0  0
  -22.4634   -8.8130   23.1413 C   0  0  0  0  0  0  0  0  0  0  0  0
  -23.1385   -9.0356   20.8322 C   0  0  0  0  0  0  0  0  0  0  0  0
  -27.4610  -27.6481   19.7418 C   0  0  0  0  0  0  0  0  0  0  0  0
  -22.8814   -5.5240   22.4775 C   0  0  0  0  0  0  0  0  0  0  0  0
  -22.9381   -4.3971   23.2976 C   0  0  0  0  0  0  0  0  0  0  0  0
  -25.2630  -26.7177   20.0915 C   0  0  0  0  0  0  0  0  0  0  0  0
  -30.6810  -19.7019   19.4484 C   0  0  0  0  0  0  0  0  0  0  0  0
  -28.4498  -19.7262   20.3746 C   0  0  0  0  0  0  0  0  0  0  0  0
  -29.8904  -17.8222   20.7440 C   0  0  0  0  0  0  0  0  0  0  0  0
  -20.5778   -4.6176   23.7638 C   0  0  0  0  0  0  0  0  0  0  0  0
  -29.2986  -21.8838   17.7372 C   0  0  0  0  0  0  0  0  0  0  0  0
  -24.0035  -10.5590   22.4959 C   0  0  0  0  0  0  0  0  0  0  0  0
  -26.1831  -11.6572   23.2381 C   0  0  0  0  0  0  0  0  0  0  0  0
  -26.9217  -32.6729   25.8168 C   0  0  0  0  0  0  0  0  0  0  0  0
  -25.6160  -29.0963   20.3692 C   0  0  0  0  0  0  0  0  0  0  0  0
  -26.6996  -31.4395   25.1751 C   0  0  0  0  0  0  0  0  0  0  0  0
  -24.7529  -27.9914   20.3856 C   0  0  0  0  0  0  0  0  0  0  0  0
  -28.8044  -23.7736   18.8573 C   0  0  0  0  0  0  0  0  0  0  0  0
  -29.4571  -20.3446   19.6340 C   0  0  0  0  0  0  0  0  0  0  0  0
  -30.8977  -18.4406   20.0034 C   0  0  0  0  0  0  0  0  0  0  0  0
  -28.6665  -18.4649   20.9297 C   0  0  0  0  0  0  0  0  0  0  0  0
  -22.4001   -8.3794   21.8170 C   0  0  0  0  0  0  0  0  0  0  0  0
  -26.6100  -26.5472   19.7730 C   0  0  0  0  0  0  0  0  0  0  0  0
  -21.6729   -6.1977   22.3006 C   0  0  0  0  0  0  0  0  0  0  0  0
  -29.0316  -23.2249   17.5711 C   0  0  0  0  0  0  0  0  0  0  0  0
  -21.7863   -3.9439   23.9407 C   0  0  0  0  0  0  0  0  0  0  0  0
  -20.5211   -5.7445   22.9437 C   0  0  0  0  0  0  0  0  0  0  0  0
  -24.8314  -11.6852   22.8458 C   0  0  0  0  0  0  0  0  0  0  0  0
  -28.9396  -22.7511   19.7704 C   0  0  0  0  0  0  0  0  0  0  0  0
  -26.5041  -12.9744   23.4581 C   0  0  0  0  0  0  0  0  0  0  0  0
  -27.0693  -10.5405   23.3900 C   0  0  0  0  0  0  0  0  0  0  0  0
  -24.0607  -30.1495   22.9335 C   0  0  0  0  0  0  0  0  0  0  0  0
  -21.4712  -29.8567   21.0019 C   0  0  0  0  0  0  0  0  0  0  0  0
  -20.0393  -28.3767   18.2805 C   0  0  0  0  0  0  0  0  0  0  0  0
  -26.3716  -18.3358   21.9609 C   0  0  0  0  0  0  0  0  0  0  0  0
  -25.7874  -33.4836   26.3917 C   0  0  0  0  0  0  0  0  0  0  0  0
  -25.0919  -30.4767   20.6563 C   0  0  0  0  0  0  0  0  0  0  0  0
  -23.2909  -28.1321   20.7190 C   0  0  0  0  0  0  0  0  0  0  0  0
  -24.4182  -33.0895   25.8438 C   0  0  0  0  0  0  0  0  0  0  0  0
  -23.5568  -17.0798   23.7431 C   0  0  0  0  0  0  0  0  0  0  0  0
  -24.2563  -31.5728   25.8520 C   0  0  0  0  0  0  0  0  0  0  0  0
  -23.7486  -15.5621   23.7008 C   0  0  0  0  0  0  0  0  0  0  0  0
  -24.0067  -17.7448   22.4434 C   0  0  0  0  0  0  0  0  0  0  0  0
  -25.5634  -15.8940   21.9735 C   0  0  0  0  0  0  0  0  0  0  0  0
  -25.3025  -30.9014   24.9542 C   0  0  1  0  0  0  0  0  0  0  0  0
  -23.8120  -30.4691   21.4865 C   0  0  1  0  0  0  0  0  0  0  0  0
  -25.1846  -15.1869   23.2851 C   0  0  2  0  0  0  0  0  0  0  0  0
  -28.8061  -22.7758   21.2443 C   0  0  0  0  0  0  0  0  0  0  0  0
  -17.8988  -28.3108   16.9722 C   0  0  0  0  0  0  0  0  0  0  0  0
  -20.1931  -28.1489   23.1835 C   0  0  0  0  0  0  0  0  0  0  0  0
  -18.5331  -27.3495   21.4883 C   0  0  0  0  0  0  0  0  0  0  0  0
  -18.6389  -29.7698   22.0829 C   0  0  0  0  0  0  0  0  0  0  0  0
  -21.3765  -29.3406   15.8225 C   0  0  0  0  0  0  0  0  0  0  0  0
  -28.4770  -25.2050   19.1657 C   0  0  0  0  0  0  0  0  0  1  0  0
  -20.4886  -28.7535   20.6909 C   0  0  1  0  0  0  0  0  0  0  0  0
  -19.2694  -28.9559   17.1074 C   0  0  2  0  0  0  0  0  0  0  0  0
  -19.4913  -28.5022   21.8570 C   0  0  0  0  0  0  0  0  0  0  0  0
  -24.3282  -12.9221   22.8175 N   0  0  0  0  0  0  0  0  0  0  0  0
  -29.2402  -21.6071   19.0782 N   0  0  0  0  0  0  0  0  0  0  0  0
  -25.3692  -13.6837   23.1948 N   0  0  0  0  0  0  0  0  0  0  0  0
  -22.8275  -29.5013   20.9985 N   0  0  0  0  0  0  0  0  0  0  0  0
  -25.3773  -17.3467   22.1151 N   0  0  0  0  0  0  0  0  0  0  0  0
  -32.1352  -17.7902   19.8155 N   0  0  0  0  0  0  0  0  0  0  0  0
  -27.6435  -13.5836   23.8492 N   0  0  0  0  0  0  0  0  0  0  0  0
  -26.5770   -9.2557   23.1229 N   0  0  0  0  0  0  0  0  0  0  0  0
  -27.6434  -17.8363   21.6819 N   0  0  0  0  0  0  0  0  0  0  0  0
  -24.9269  -31.0237   23.5619 N   0  0  0  0  0  0  0  0  0  0  0  0
  -19.8531  -29.1167   19.4289 N   0  0  0  0  0  0  0  0  0  0  0  0
  -20.0187  -28.7380   15.8377 N   0  3  0  0  0  0  0  0  0  0  0  0
  -28.2578  -10.6763   23.7676 O   0  0  0  0  0  0  0  0  0  0  0  0
  -23.5065  -29.1823   23.4425 O   0  0  0  0  0  0  0  0  0  0  0  0
  -21.0512  -30.9935   21.2319 O   0  0  0  0  0  0  0  0  0  0  0  0
  -20.7332  -27.3665   18.1882 O   0  0  0  0  0  0  0  0  0  0  0  0
  -26.1195  -19.5359   22.0953 O   0  0  0  0  0  0  0  0  0  0  0  0
  -29.0031  -23.8519   16.3864 O   0  0  0  0  0  0  0  0  0  0  0  0
  -21.6181   -7.3159   21.4855 O   0  0  0  0  0  0  0  0  0  0  0  0
  -27.0906  -25.3063   19.4883 O   0  0  0  0  0  0  0  0  0  1  0  0
  -21.8406   -2.8609   24.7270 F   0  0  0  0  0  0  0  0  0  0  0  0
  -19.3570   -6.3869   22.7766 F   0  0  0  0  0  0  0  0  0  0  0  0
  1  2  1  0  0  0  0
  1  5  2  0  0  0  0
  2  6  2  0  0  0  0
  3  8  2  0  0  0  0
  3 19  1  0  0  0  0
  4  9  1  0  0  0  0
  4 19  2  0  0  0  0
  5 21  1  0  0  0  0
  6 23  1  0  0  0  0
  7 10  2  0  0  0  0
  7 22  1  0  0  0  0
  8 29  1  0  0  0  0
  9 29  2  0  0  0  0
 10 30  1  0  0  0  0
 11 12  2  0  0  0  0
 11 31  1  0  0  0  0
 12 33  1  0  0  0  0
 13 24  1  0  0  0  0
 13 30  2  0  0  0  0
 14 26  1  0  0  0  0
 14 27  2  0  0  0  0
 15 26  2  0  0  0  0
 15 28  1  0  0  0  0
 16 27  1  0  0  0  0
 16 28  2  0  0  0  0
 17 33  2  0  0  0  0
 17 34  1  0  0  0  0
 18 32  2  0  0  0  0
 18 66  1  0  0  0  0
 19 35  1  0  0  0  0
 20 35  1  0  0  0  0
 20 37  2  0  0  0  0
 20 38  1  0  0  0  0
 21 23  2  0  0  0  0
 21 43  1  0  0  0  0
 22 24  2  0  0  0  0
 22 44  1  0  0  0  0
 23 52  1  0  0  0  0
 24 45  1  0  0  0  0
 25 32  1  0  0  0  0
 25 36  2  0  0  0  0
 25 61  1  0  0  0  0
 26 66  1  0  0  0  0
 27 70  1  0  0  0  0
 28 73  1  0  0  0  0
 29 83  1  0  0  0  0
 30 84  1  0  0  0  0
 31 34  2  0  0  0  0
 31 83  1  0  0  0  0
 32 82  1  0  0  0  0
 33 85  1  0  0  0  0
 34 86  1  0  0  0  0
 35 65  2  0  0  0  0
 36 55  1  0  0  0  0
 36 66  1  0  0  0  0
 37 67  1  0  0  0  0
 37 71  1  0  0  0  0
 38 72  1  0  0  0  0
 38 77  2  0  0  0  0
 39 53  1  0  0  0  0
 39 74  1  0  0  0  0
 39 78  2  0  0  0  0
 40 62  1  0  0  0  0
 40 68  1  0  0  0  0
 40 79  2  0  0  0  0
 41 63  1  0  0  0  0
 41 75  1  0  0  0  0
 41 80  2  0  0  0  0
 42 69  1  0  0  0  0
 42 73  1  0  0  0  0
 42 81  2  0  0  0  0
 43 46  1  0  0  0  0
 44 53  1  0  0  0  0
 45 68  1  0  0  0  0
 46 48  1  0  0  0  0
 47 49  1  0  0  0  0
 47 50  1  0  0  0  0
 48 52  1  0  0  0  0
 49 54  1  0  0  0  0
 50 69  1  0  0  0  0
 51 54  1  0  0  0  0
 51 69  1  0  0  0  0
 52 74  1  0  0  0  0
 53 68  1  0  0  0  0
 54 67  1  0  0  0  0
 56 63  1  0  0  0  0
 57 64  1  0  0  0  0
 58 64  1  0  0  0  0
 59 64  1  0  0  0  0
 60 76  1  0  0  0  0
 61 84  1  0  0  0  0
 62 64  1  0  0  0  0
 62 75  1  0  0  0  0
 63 76  1  0  0  0  0
 65 67  1  0  0  0  0
M  CHG  1  76   1
M  ISO  4  42 100  61 101  73 100  84 101
M  END
> <Batch ID>
0090

> <Smiles>
CNC(C)C(=O)NC(C(=O)N1Cc2cc([101O:1][101CH2:1]C3=C(C)N(c4cc(N)cc([100NH:0][100C:0](=O)N5CCCC(n6nc(-c7ccc(Oc8ccc(F)cc8F)cc7)c(C(N)=O)c6N)C5)c4)CC3=O)ccc2CC1C(=O)NC1CCCc2ccccc21)C(C)(C)C

> <Shape>
0.290

> <Color>
0.074

> <Negative vol penalty>
0.000

$$$$

  -OEChem-04052300293D

 87 96  0     1  0  0  0  0  0999 V2000
  -23.3487  -30.6336   24.1437 C   0  0  0  0  0  0  0  0  0  0  0  0
  -22.8395  -29.3460   24.0089 C   0  0  0  0  0  0  0  0  0  0  0  0
  -28.8445  -13.1748   18.1772 C   0  0  0  0  0  0  0  0  0  0  0  0
  -22.4859  -18.1342   21.2148 C   0  0  0  0  0  0  0  0  0  0  0  0
  -20.5345  -16.8818   20.5362 C   0  0  0  0  0  0  0  0  0  0  0  0
  -24.1722  -31.1637   23.1514 C   0  0  0  0  0  0  0  0  0  0  0  0
  -23.1525  -28.5882   22.8810 C   0  0  0  0  0  0  0  0  0  0  0  0
  -26.4214  -21.5122   22.3593 C   0  0  0  0  0  0  0  0  0  0  0  0
  -29.4631  -14.1982   18.8952 C   0  0  0  0  0  0  0  0  0  0  0  0
  -28.2089  -12.1337   18.8538 C   0  0  0  0  0  0  0  0  0  0  0  0
  -21.8845  -19.3119   20.7709 C   0  0  0  0  0  0  0  0  0  0  0  0
  -19.9330  -18.0595   20.0923 C   0  0  0  0  0  0  0  0  0  0  0  0
  -27.1361  -20.3355   22.1341 C   0  0  0  0  0  0  0  0  0  0  0  0
  -21.3513  -20.8783   17.8236 C   0  0  0  0  0  0  0  0  0  0  0  0
  -22.1289  -21.7584   17.0711 C   0  0  0  0  0  0  0  0  0  0  0  0
  -27.8543  -21.1710   19.9814 C   0  0  0  0  0  0  0  0  0  0  0  0
  -21.7879  -23.4796   18.7320 C   0  0  0  0  0  0  0  0  0  0  0  0
  -21.8109  -16.9192   21.0974 C   0  0  0  0  0  0  0  0  0  0  0  0
  -22.8610  -15.4068   22.8631 C   0  0  0  0  0  0  0  0  0  0  0  0
  -24.5034  -30.4085   22.0154 C   0  0  0  0  0  0  0  0  0  0  0  0
  -26.4331  -22.5304   21.4019 C   0  0  0  0  0  0  0  0  0  0  0  0
  -23.9802  -29.1092   21.8719 C   0  0  0  0  0  0  0  0  0  0  0  0
  -27.1505  -22.3570   20.2068 C   0  0  0  0  0  0  0  0  0  0  0  0
  -29.4464  -14.1804   20.2898 C   0  0  0  0  0  0  0  0  0  0  0  0
  -28.1922  -12.1159   20.2485 C   0  0  0  0  0  0  0  0  0  0  0  0
  -20.6081  -19.2745   20.2097 C   0  0  0  0  0  0  0  0  0  0  0  0
  -27.8505  -20.1653   20.9480 C   0  0  0  0  0  0  0  0  0  0  0  0
  -20.7919  -21.2988   19.0303 C   0  0  0  0  0  0  0  0  0  0  0  0
  -22.3472  -23.0591   17.5253 C   0  0  0  0  0  0  0  0  0  0  0  0
  -21.0103  -22.5994   19.4845 C   0  0  0  0  0  0  0  0  0  0  0  0
  -28.8109  -13.1393   20.9665 C   0  0  0  0  0  0  0  0  0  0  0  0
  -22.4318  -15.7022   21.5553 C   0  0  0  0  0  0  0  0  0  0  0  0
  -23.3774  -14.1370   22.7763 C   0  0  0  0  0  0  0  0  0  0  0  0
  -30.2933  -17.5930   21.5102 C   0  0  0  0  0  0  0  0  0  0  0  0
  -31.3500  -17.3370   22.5256 C   0  0  0  0  0  0  0  0  0  0  0  0
  -29.5428  -18.6961   21.6194 C   0  0  0  0  0  0  0  0  0  1  0  0
  -22.7984  -16.2083   24.0502 C   0  0  0  0  0  0  0  0  0  0  0  0
  -25.2755  -25.9640   20.4289 C   0  0  0  0  0  0  0  0  0  0  0  0
  -28.2049  -25.7286   19.5493 C   0  0  0  0  0  0  0  0  0  0  0  0
  -31.5500  -25.2161   19.1190 C   0  0  0  0  0  0  0  0  0  0  0  0
  -26.4247  -10.3696   20.3817 C   0  0  0  0  0  0  0  0  0  0  0  0
  -25.3589  -31.0416   20.9467 C   0  0  0  0  0  0  0  0  0  0  0  0
  -25.6277  -23.7894   21.5752 C   0  0  0  0  0  0  0  0  0  0  0  0
  -27.1062  -23.4649   19.1902 C   0  0  0  0  0  0  0  0  0  0  0  0
  -30.1446  -16.5569   20.4349 C   0  0  0  0  0  0  0  0  0  0  0  0
  -31.7700  -15.8965   22.6755 C   0  0  0  0  0  0  0  0  0  0  0  0
  -25.9465  -30.0349   19.9611 C   0  0  0  0  0  0  0  0  0  0  0  0
  -23.1422  -10.7237   19.0616 C   0  0  0  0  0  0  0  0  0  0  0  0
  -24.8743  -29.0545   19.4964 C   0  0  0  0  0  0  0  0  0  0  0  0
  -22.7005  -12.0420   19.6962 C   0  0  0  0  0  0  0  0  0  0  0  0
  -30.6287  -14.9410   22.3357 C   0  0  0  0  0  0  0  0  0  0  0  0
  -24.6106  -10.7567   18.6365 C   0  0  0  0  0  0  0  0  0  0  0  0
  -25.0995  -12.4696   20.3545 C   0  0  0  0  0  0  0  0  0  0  0  0
  -24.3171  -28.2469   20.6748 C   0  0  1  0  0  0  0  0  0  0  0  0
  -26.3142  -25.0317   20.9798 C   0  0  1  0  0  0  0  0  0  0  0  0
  -23.6430  -12.4455   20.8439 C   0  0  1  0  0  0  0  0  0  0  0  0
  -33.6185  -26.3378   18.2470 C   0  0  0  0  0  0  0  0  0  0  0  0
  -27.2817  -25.2004   16.6905 C   0  0  0  0  0  0  0  0  0  0  0  0
  -29.6641  -25.4268   15.9548 C   0  0  0  0  0  0  0  0  0  0  0  0
  -28.4978  -27.3620   17.0119 C   0  0  0  0  0  0  0  0  0  0  0  0
  -28.1782  -10.4779   22.1392 C   0  0  0  0  0  0  0  0  0  0  0  0
  -32.8725  -25.0919   21.7637 C   0  0  0  0  0  0  0  0  0  0  0  0
  -29.1696  -25.3881   18.4417 C   0  0  1  0  0  0  0  0  0  0  0  0
  -32.7537  -26.0721   19.4694 C   0  0  2  0  0  0  0  0  0  0  0  0
  -28.6460  -25.8252   17.0445 C   0  0  0  0  0  0  0  0  0  0  0  0
  -22.6562  -14.7009   20.7003 N   0  0  0  0  0  0  0  0  0  0  0  0
  -23.2321  -13.7638   21.4725 N   0  0  0  0  0  0  0  0  0  0  0  0
  -30.0665  -15.2071   21.0063 N   0  0  3  0  0  0  0  0  0  0  0  0
  -27.2353  -24.7679   19.8613 N   0  0  0  0  0  0  0  0  0  0  0  0
  -25.4663  -11.1858   19.7517 N   0  0  0  0  0  0  0  0  0  0  0  0
  -23.9371  -13.3145   23.6888 N   0  0  0  0  0  0  0  0  0  0  0  0
  -21.6596  -16.1129   24.8616 N   0  0  0  0  0  0  0  0  0  0  0  0
  -25.2407  -27.1978   21.0501 N   0  0  0  0  0  0  0  0  0  0  0  0
  -30.4471  -25.9858   18.8149 N   0  0  0  0  0  0  0  0  0  0  0  0
  -27.5335  -11.0365   20.9458 N   0  0  0  0  0  0  0  0  0  0  0  0
  -33.5906  -25.3926   20.4985 N   0  3  0  0  0  0  0  0  0  0  0  0
  -31.8783  -18.2387   23.1697 O   0  0  0  0  0  0  0  0  0  0  0  0
  -23.7177  -16.9984   24.3729 O   0  0  0  0  0  0  0  0  0  0  0  0
  -24.5587  -25.5929   19.5068 O   0  0  0  0  0  0  0  0  0  0  0  0
  -28.3025  -26.8185   20.1202 O   0  0  0  0  0  0  0  0  0  0  0  0
  -31.5856  -23.9876   19.1119 O   0  0  0  0  0  0  0  0  0  0  0  0
  -26.2878   -9.1426   20.4576 O   0  0  0  0  0  0  0  0  0  0  0  0
  -20.0208  -20.4235   19.7766 O   0  0  0  0  0  0  0  0  0  0  0  0
  -28.5497  -19.0158   20.7365 O   0  0  0  0  0  0  0  0  0  1  0  0
  -23.0952  -23.9037   16.8033 F   0  0  0  0  0  0  0  0  0  0  0  0
  -20.4765  -23.0088   20.6435 F   0  0  0  0  0  0  0  0  0  0  0  0
  -28.7948  -13.1228   22.3082 F   0  0  0  0  0  0  0  0  0  0  0  0
  1  2  1  0  0  0  0
  1  6  2  0  0  0  0
  2  7  2  0  0  0  0
  3  9  2  0  0  0  0
  3 10  1  0  0  0  0
  4 11  2  0  0  0  0
  4 18  1  0  0  0  0
  5 12  1  0  0  0  0
  5 18  2  0  0  0  0
  6 20  1  0  0  0  0
  7 22  1  0  0  0  0
  8 13  2  0  0  0  0
  8 21  1  0  0  0  0
  9 24  1  0  0  0  0
 10 25  2  0  0  0  0
 11 26  1  0  0  0  0
 12 26  2  0  0  0  0
 13 27  1  0  0  0  0
 14 15  2  0  0  0  0
 14 28  1  0  0  0  0
 15 29  1  0  0  0  0
 16 23  1  0  0  0  0
 16 27  2  0  0  0  0
 17 29  2  0  0  0  0
 17 30  1  0  0  0  0
 18 32  1  0  0  0  0
 19 32  1  0  0  0  0
 19 33  2  0  0  0  0
 19 37  1  0  0  0  0
 20 22  2  0  0  0  0
 20 42  1  0  0  0  0
 21 23  2  0  0  0  0
 21 43  1  0  0  0  0
 22 54  1  0  0  0  0
 23 44  1  0  0  0  0
 24 31  2  0  0  0  0
 24 68  1  0  0  0  0
 25 31  1  0  0  0  0
 25 75  1  0  0  0  0
 26 83  1  0  0  0  0
 27 84  1  0  0  0  0
 28 30  2  0  0  0  0
 28 83  1  0  0  0  0
 29 85  1  0  0  0  0
 30 86  1  0  0  0  0
 31 87  1  0  0  0  0
 32 66  2  0  0  0  0
 33 67  1  0  0  0  0
 33 71  1  0  0  0  0
 34 35  1  0  0  0  0
 34 36  2  0  0  0  0
 34 45  1  0  0  0  0
 35 46  1  0  0  0  0
 35 77  2  0  0  0  0
 36 84  1  0  0  0  0
 37 72  1  0  0  0  0
 37 78  2  0  0  0  0
 38 55  1  0  0  0  0
 38 73  1  0  0  0  0
 38 79  2  0  0  0  0
 39 63  1  0  0  0  0
 39 69  1  0  0  0  0
 39 80  2  0  0  0  0
 40 64  1  0  0  0  0
 40 74  1  0  0  0  0
 40 81  2  0  0  0  0
 41 70  1  0  0  0  0
 41 75  1  0  0  0  0
 41 82  2  0  0  0  0
 42 47  1  0  0  0  0
 43 55  1  0  0  0  0
 44 69  1  0  0  0  0
 45 68  1  0  0  0  0
 46 51  1  0  0  0  0
 47 49  1  0  0  0  0
 48 50  1  0  0  0  0
 48 52  1  0  0  0  0
 49 54  1  0  0  0  0
 50 56  1  0  0  0  0
 51 68  1  0  0  0  0
 52 70  1  0  0  0  0
 53 56  1  0  0  0  0
 53 70  1  0  0  0  0
 54 73  1  0  0  0  0
 55 69  1  0  0  0  0
 56 67  1  0  0  0  0
 57 64  1  0  0  0  0
 58 65  1  0  0  0  0
 59 65  1  0  0  0  0
 60 65  1  0  0  0  0
 61 75  1  0  0  0  0
 62 76  1  0  0  0  0
 63 65  1  0  0  0  0
 63 74  1  0  0  0  0
 64 76  1  0  0  0  0
 66 67  1  0  0  0  0
M  CHG  1  76   1
M  ISO  4  36 101  41 100  75 100  84 101
M  END
> <Batch ID>
0090

> <Smiles>
CNC(C)C(=O)NC(C(=O)N1Cc2cc([101O:1][101CH:1]=C3CN(c4cccc([100N:0](C)[100C:0](=O)N5CCCC(n6nc(-c7ccc(Oc8ccc(F)cc8F)cc7)c(C(N)=O)c6N)C5)c4F)CCC3=O)ccc2CC1C(=O)NC1CCCc2ccccc21)C(C)(C)C

> <Shape>
0.218

> <Color>
0.071

> <Negative vol penalty>
0.000

$$$$

  -OEChem-04052300293D

 88 97  0     1  0  0  0  0  0999 V2000
  -32.1889  -16.1563   20.8483 C   0  0  0  0  0  0  0  0  0  0  0  0
  -31.0885  -16.9443   21.1701 C   0  0  0  0  0  0  0  0  0  0  0  0
  -26.8392  -25.1380   18.5924 C   0  0  0  0  0  0  0  0  0  0  0  0
  -28.6191  -26.1253   19.8939 C   0  0  0  0  0  0  0  0  0  0  0  0
  -22.8898  -27.2554   25.2058 C   0  0  0  0  0  0  0  0  0  0  0  0
  -32.0096  -14.9615   20.1523 C   0  0  0  0  0  0  0  0  0  0  0  0
  -29.8082  -16.5385   20.7951 C   0  0  0  0  0  0  0  0  0  0  0  0
  -26.4257  -17.0889   24.5234 C   0  0  0  0  0  0  0  0  0  0  0  0
  -22.9309  -25.9733   25.7536 C   0  0  0  0  0  0  0  0  0  0  0  0
  -27.5407  -23.9333   18.5467 C   0  0  0  0  0  0  0  0  0  0  0  0
  -29.3207  -24.9206   19.8483 C   0  0  0  0  0  0  0  0  0  0  0  0
  -25.9413  -18.3748   24.7589 C   0  0  0  0  0  0  0  0  0  0  0  0
  -28.1105  -21.3035   20.5942 C   0  0  0  0  0  0  0  0  0  0  0  0
  -27.3989  -20.1292   20.8398 C   0  0  0  0  0  0  0  0  0  0  0  0
  -21.1902  -26.5349   23.6471 C   0  0  0  0  0  0  0  0  0  0  0  0
  -23.9399  -17.8408   23.5225 C   0  0  0  0  0  0  0  0  0  0  0  0
  -27.9855  -19.3141   18.6423 C   0  0  0  0  0  0  0  0  0  0  0  0
  -27.3784  -26.2341   19.2659 C   0  0  0  0  0  0  0  0  0  0  0  0
  -22.0194  -27.5362   24.1526 C   0  0  0  0  0  0  0  0  0  0  0  0
  -26.2533  -28.2709   18.2204 C   0  0  0  0  0  0  0  0  0  0  0  0
  -30.7256  -14.5361   19.7771 C   0  0  0  0  0  0  0  0  0  0  0  0
  -25.6744  -16.1712   23.7752 C   0  0  0  0  0  0  0  0  0  0  0  0
  -29.6117  -15.3376   20.0922 C   0  0  0  0  0  0  0  0  0  0  0  0
  -24.4159  -16.5431   23.2811 C   0  0  0  0  0  0  0  0  0  0  0  0
  -22.1017  -24.9720   25.2481 C   0  0  0  0  0  0  0  0  0  0  0  0
  -21.2314  -25.2528   24.1948 C   0  0  0  0  0  0  0  0  0  0  0  0
  -28.7815  -23.8246   19.1747 C   0  0  0  0  0  0  0  0  0  0  0  0
  -24.6995  -18.7519   24.2560 C   0  0  0  0  0  0  0  0  0  0  0  0
  -28.7595  -21.4831   19.3726 C   0  0  0  0  0  0  0  0  0  0  0  0
  -27.3364  -19.1345   19.8639 C   0  0  0  0  0  0  0  0  0  0  0  0
  -28.6970  -20.4884   18.3967 C   0  0  0  0  0  0  0  0  0  0  0  0
  -26.6544  -27.4790   19.3130 C   0  0  0  0  0  0  0  0  0  0  0  0
  -25.6041  -29.3387   18.7903 C   0  0  0  0  0  0  0  0  0  0  0  0
  -21.7276  -21.0292   26.6058 C   0  0  0  0  0  0  0  0  0  0  0  0
  -22.4648  -21.2732   25.5141 C   0  0  0  0  0  0  0  0  0  0  0  0
  -21.4035  -22.1241   27.5426 C   0  0  0  0  0  0  0  0  0  0  0  0
  -21.9772  -28.8731   23.5816 C   0  0  0  0  0  0  0  0  0  0  0  0
  -26.4499  -28.0601   16.8159 C   0  0  0  0  0  0  0  0  0  0  0  0
  -22.8444  -29.9584   24.0947 C   0  0  0  0  0  0  0  0  0  0  0  0
  -26.1137  -14.6154   21.0384 C   0  0  0  0  0  0  0  0  0  0  0  0
  -23.3436  -13.1507   21.8773 C   0  0  0  0  0  0  0  0  0  0  0  0
  -20.1797  -14.1244   23.3122 C   0  0  0  0  0  0  0  0  0  0  0  0
  -30.5862  -13.2605   18.9845 C   0  0  0  0  0  0  0  0  0  0  0  0
  -26.1992  -14.7793   23.5527 C   0  0  0  0  0  0  0  0  0  0  0  0
  -23.5613  -15.5887   22.4890 C   0  0  0  0  0  0  0  0  0  0  0  0
  -21.8535  -23.5300   27.2328 C   0  0  0  0  0  0  0  0  0  0  0  0
  -29.1603  -12.7164   18.9518 C   0  0  0  0  0  0  0  0  0  0  0  0
  -25.4933  -31.9787   22.7686 C   0  0  0  0  0  0  0  0  0  0  0  0
  -28.1695  -13.8339   18.6415 C   0  0  0  0  0  0  0  0  0  0  0  0
  -26.0791  -31.1079   21.6575 C   0  0  0  0  0  0  0  0  0  0  0  0
  -25.0037  -31.1340   23.9404 C   0  0  0  0  0  0  0  0  0  0  0  0
  -24.6016  -29.2022   22.4388 C   0  0  0  0  0  0  0  0  0  0  0  0
  -28.2047  -14.9189   19.7245 C   0  0  1  0  0  0  0  0  0  0  0  0
  -22.9728  -22.6525   25.1486 C   0  0  2  0  0  0  0  0  0  0  0  0
  -25.5769  -14.0927   22.3408 C   0  0  1  0  0  0  0  0  0  0  0  0
  -25.0815  -30.0183   21.2260 C   0  0  2  0  0  0  0  0  0  0  0  0
  -24.4507  -22.8184   25.5189 C   0  0  0  0  0  0  0  0  0  0  0  0
  -18.5291  -12.8077   24.6684 C   0  0  0  0  0  0  0  0  0  0  0  0
  -21.9941  -12.6262   19.1915 C   0  0  0  0  0  0  0  0  0  0  0  0
  -19.7803  -12.8481   20.3394 C   0  0  0  0  0  0  0  0  0  0  0  0
  -21.3541  -11.0325   21.0094 C   0  0  0  0  0  0  0  0  0  0  0  0
  -20.2376  -16.1002   25.5149 C   0  0  0  0  0  0  0  0  0  0  0  0
  -22.8081  -20.1609   24.5611 C   0  0  0  0  0  0  0  0  0  1  0  0
  -21.8772  -13.4231   21.6445 C   0  0  1  0  0  0  0  0  0  0  0  0
  -19.6779  -13.8034   24.7085 C   0  0  2  0  0  0  0  0  0  0  0  0
  -21.2705  -12.5036   20.5473 C   0  0  0  0  0  0  0  0  0  0  0  0
  -26.2906  -27.9994   20.4881 N   0  0  0  0  0  0  0  0  0  0  0  0
  -21.1898  -29.2064   22.5947 N   0  0  0  0  0  0  0  0  0  0  0  0
  -25.6542  -29.1298   20.1372 N   0  0  0  0  0  0  0  0  0  0  0  0
  -22.1606  -23.6897   25.8122 N   0  0  2  0  0  0  0  0  0  0  0  0
  -24.0876  -30.0876   23.4914 N   0  0  0  0  0  0  0  0  0  0  0  0
  -24.1209  -14.2411   22.2928 N   0  0  0  0  0  0  0  0  0  0  0  0
  -20.3838  -24.2528   23.6673 N   0  0  0  0  0  0  0  0  0  0  0  0
  -25.0011  -30.4266   18.2657 N   0  0  0  0  0  0  0  0  0  0  0  0
  -27.6063  -28.5790   16.2178 N   0  0  0  0  0  0  0  0  0  0  0  0
  -27.4822  -14.4831   20.9003 N   0  0  0  0  0  0  0  0  0  0  0  0
  -21.2289  -13.3078   22.9463 N   0  0  0  0  0  0  0  0  0  0  0  0
  -19.2021  -15.0428   25.3856 N   0  3  0  0  0  0  0  0  0  0  0  0
  -20.8007  -21.8649   28.5843 O   0  0  0  0  0  0  0  0  0  0  0  0
  -25.6165  -27.4444   16.1089 O   0  0  0  0  0  0  0  0  0  0  0  0
  -22.3691  -30.6291   25.0017 O   0  0  0  0  0  0  0  0  0  0  0  0
  -25.3431  -15.1013   20.2187 O   0  0  0  0  0  0  0  0  0  0  0  0
  -23.7819  -12.0108   21.7040 O   0  0  0  0  0  0  0  0  0  0  0  0
  -19.6877  -15.0083   22.6144 O   0  0  0  0  0  0  0  0  0  0  0  0
  -29.4662  -22.6491   19.1305 O   0  0  0  0  0  0  0  0  0  0  0  0
  -24.2246  -20.0067   24.4839 O   0  0  0  0  0  0  0  0  0  1  0  0
  -26.6543  -18.0063   20.1005 F   0  0  0  0  0  0  0  0  0  0  0  0
  -29.3195  -20.6548   17.2217 F   0  0  0  0  0  0  0  0  0  0  0  0
  1  2  1  0  0  0  0
  1  6  2  0  0  0  0
  2  7  2  0  0  0  0
  3 10  2  0  0  0  0
  3 18  1  0  0  0  0
  4 11  1  0  0  0  0
  4 18  2  0  0  0  0
  5  9  2  0  0  0  0
  5 19  1  0  0  0  0
  6 21  1  0  0  0  0
  7 23  1  0  0  0  0
  8 12  2  0  0  0  0
  8 22  1  0  0  0  0
  9 25  1  0  0  0  0
 10 27  1  0  0  0  0
 11 27  2  0  0  0  0
 12 28  1  0  0  0  0
 13 14  2  0  0  0  0
 13 29  1  0  0  0  0
 14 30  1  0  0  0  0
 15 19  2  0  0  0  0
 15 26  1  0  0  0  0
 16 24  1  0  0  0  0
 16 28  2  0  0  0  0
 17 30  2  0  0  0  0
 17 31  1  0  0  0  0
 18 32  1  0  0  0  0
 19 37  1  0  0  0  0
 20 32  1  0  0  0  0
 20 33  2  0  0  0  0
 20 38  1  0  0  0  0
 21 23  2  0  0  0  0
 21 43  1  0  0  0  0
 22 24  2  0  0  0  0
 22 44  1  0  0  0  0
 23 53  1  0  0  0  0
 24 45  1  0  0  0  0
 25 26  2  0  0  0  0
 25 70  1  0  0  0  0
 26 73  1  0  0  0  0
 27 85  1  0  0  0  0
 28 86  1  0  0  0  0
 29 31  2  0  0  0  0
 29 85  1  0  0  0  0
 30 87  1  0  0  0  0
 31 88  1  0  0  0  0
 32 67  2  0  0  0  0
 33 69  1  0  0  0  0
 33 74  1  0  0  0  0
 34 35  2  0  0  0  0
 34 36  1  0  0  0  0
 35 54  1  0  0  0  0
 35 63  1  0  0  0  0
 36 46  1  0  0  0  0
 36 79  2  0  0  0  0
 37 39  1  0  0  0  0
 37 68  2  0  0  0  0
 38 75  1  0  0  0  0
 38 80  2  0  0  0  0
 39 71  1  0  0  0  0
 39 81  2  0  0  0  0
 40 55  1  0  0  0  0
 40 76  1  0  0  0  0
 40 82  2  0  0  0  0
 41 64  1  0  0  0  0
 41 72  1  0  0  0  0
 41 83  2  0  0  0  0
 42 65  1  0  0  0  0
 42 77  1  0  0  0  0
 42 84  2  0  0  0  0
 43 47  1  0  0  0  0
 44 55  1  0  0  0  0
 45 72  1  0  0  0  0
 46 70  1  0  0  0  0
 47 49  1  0  0  0  0
 48 50  1  0  0  0  0
 48 51  1  0  0  0  0
 49 53  1  0  0  0  0
 50 56  1  0  0  0  0
 51 71  1  0  0  0  0
 52 56  1  0  0  0  0
 52 71  1  0  0  0  0
 53 76  1  0  0  0  0
 54 57  1  0  0  0  0
 54 70  1  0  0  0  0
 55 72  1  0  0  0  0
 56 69  1  0  0  0  0
 58 65  1  0  0  0  0
 59 66  1  0  0  0  0
 60 66  1  0  0  0  0
 61 66  1  0  0  0  0
 62 78  1  0  0  0  0
 63 86  1  0  0  0  0
 64 66  1  0  0  0  0
 64 77  1  0  0  0  0
 65 78  1  0  0  0  0
 67 69  1  0  0  0  0
M  CHG  1  78   1
M  ISO  4  37 100  39 100  63 101  86 101
M  END
> <Batch ID>
0090

> <Smiles>
CNC(C)C(=O)NC(C(=O)N1Cc2cc([101O:1][101CH2:1]C3=C(C)N(c4ccc([100C:0](=N)[100C:0](=O)N5CCCC(n6nc(-c7ccc(Oc8ccc(F)cc8F)cc7)c(C(N)=O)c6N)C5)cc4N)CC(=O)C3)ccc2CC1C(=O)NC1CCCc2ccccc21)C(C)(C)C

> <Shape>
0.218

> <Color>
0.062

> <Negative vol penalty>
0.000

$$$$

  -OEChem-04052300293D

 87 96  0     1  0  0  0  0  0999 V2000
  -31.0369  -33.7024   28.6816 C   0  0  0  0  0  0  0  0  0  0  0  0
  -31.2287  -32.7940   27.6454 C   0  0  0  0  0  0  0  0  0  0  0  0
  -23.6226   -9.4364   20.3314 C   0  0  0  0  0  0  0  0  0  0  0  0
  -24.0019  -10.0396   22.6399 C   0  0  0  0  0  0  0  0  0  0  0  0
  -29.7797  -33.8310   29.2705 C   0  0  0  0  0  0  0  0  0  0  0  0
  -30.1635  -32.0130   27.1983 C   0  0  0  0  0  0  0  0  0  0  0  0
  -29.1031  -30.1749   21.4535 C   0  0  0  0  0  0  0  0  0  0  0  0
  -23.0472   -8.2333   20.7402 C   0  0  0  0  0  0  0  0  0  0  0  0
  -23.4265   -8.8365   23.0488 C   0  0  0  0  0  0  0  0  0  0  0  0
  -29.3612  -28.9766   20.7894 C   0  0  0  0  0  0  0  0  0  0  0  0
  -20.3180   -7.5653   23.4253 C   0  0  0  0  0  0  0  0  0  0  0  0
  -19.4036   -7.6106   24.4776 C   0  0  0  0  0  0  0  0  0  0  0  0
  -28.6594  -20.3437   21.7119 C   0  0  0  0  0  0  0  0  0  0  0  0
  -27.1083  -28.2452   21.2462 C   0  0  0  0  0  0  0  0  0  0  0  0
  -29.5591  -19.8861   19.5169 C   0  0  0  0  0  0  0  0  0  0  0  0
  -20.8137   -6.1318   25.7667 C   0  0  0  0  0  0  0  0  0  0  0  0
  -24.1000  -10.3395   21.2812 C   0  0  0  0  0  0  0  0  0  0  0  0
  -28.7124  -18.9837   22.0172 C   0  0  0  0  0  0  0  0  0  0  0  0
  -24.0393  -12.8096   20.6467 C   0  0  0  0  0  0  0  0  0  0  0  0
  -28.6963  -33.0581   28.8239 C   0  0  0  0  0  0  0  0  0  0  0  0
  -27.8469  -30.4133   22.0294 C   0  0  0  0  0  0  0  0  0  0  0  0
  -28.8910  -32.1305   27.7827 C   0  0  0  0  0  0  0  0  0  0  0  0
  -26.8360  -29.4484   21.9149 C   0  0  0  0  0  0  0  0  0  0  0  0
  -29.0827  -20.7949   20.4618 C   0  0  0  0  0  0  0  0  0  0  0  0
  -29.1888  -18.0749   21.0723 C   0  0  0  0  0  0  0  0  0  0  0  0
  -22.9491   -7.9334   22.0989 C   0  0  0  0  0  0  0  0  0  0  0  0
  -28.3647  -28.0103   20.6881 C   0  0  0  0  0  0  0  0  0  0  0  0
  -21.4803   -6.8031   23.5436 C   0  0  0  0  0  0  0  0  0  0  0  0
  -19.6514   -6.8940   25.6483 C   0  0  0  0  0  0  0  0  0  0  0  0
  -29.6121  -18.5261   19.8222 C   0  0  0  0  0  0  0  0  0  0  0  0
  -21.7281   -6.0864   24.7143 C   0  0  0  0  0  0  0  0  0  0  0  0
  -24.6950  -11.5822   20.8595 C   0  0  0  0  0  0  0  0  0  0  0  0
  -25.0376  -13.6695   20.2588 C   0  0  0  0  0  0  0  0  0  0  0  0
  -28.7125  -24.4712   20.2141 C   0  0  0  0  0  0  0  0  0  0  0  0
  -28.5765  -23.2114   20.9928 C   0  0  0  0  0  0  0  0  0  0  0  0
  -27.0239  -18.7146   23.7755 C   0  0  0  0  0  0  0  0  0  0  0  0
  -28.2611  -18.5499   23.3344 C   0  0  0  0  0  0  0  0  0  0  0  0
  -28.4923  -25.6755   20.7467 C   0  0  0  0  0  0  0  0  0  1  0  0
  -22.6519  -13.1427   20.7871 C   0  0  0  0  0  0  0  0  0  0  0  0
  -26.7962  -30.9346   24.9837 C   0  0  0  0  0  0  0  0  0  0  0  0
  -23.9739  -31.4523   23.4708 C   0  0  0  0  0  0  0  0  0  0  0  0
  -22.0108  -30.9045   20.7335 C   0  0  0  0  0  0  0  0  0  0  0  0
  -30.1636  -15.7631   20.8456 C   0  0  0  0  0  0  0  0  0  0  0  0
  -27.3674  -33.1983   29.5232 C   0  0  0  0  0  0  0  0  0  0  0  0
  -27.5760  -31.7221   22.7193 C   0  0  0  0  0  0  0  0  0  0  0  0
  -25.4642  -29.6639   22.4982 C   0  0  0  0  0  0  0  0  0  0  0  0
  -29.1387  -24.1721   18.8195 C   0  0  0  0  0  0  0  0  0  0  0  0
  -26.2009  -32.6020   28.7397 C   0  0  0  0  0  0  0  0  0  0  0  0
  -29.8439  -12.7628   18.9552 C   0  0  0  0  0  0  0  0  0  0  0  0
  -26.5627  -31.2157   28.2161 C   0  0  0  0  0  0  0  0  0  0  0  0
  -28.4219  -12.2892   19.2646 C   0  0  0  0  0  0  0  0  0  0  0  0
  -29.5294  -22.7049   18.8845 C   0  0  0  0  0  0  0  0  0  0  0  0
  -30.5094  -13.3950   20.1764 C   0  0  0  0  0  0  0  0  0  0  0  0
  -28.3170  -13.9948   21.1265 C   0  0  0  0  0  0  0  0  0  0  0  0
  -27.7543  -31.2832   27.2534 C   0  0  1  0  0  0  0  0  0  0  0  0
  -26.4219  -31.6456   23.7141 C   0  0  1  0  0  0  0  0  0  0  0  0
  -27.5825  -13.4096   19.9093 C   0  0  2  0  0  0  0  0  0  0  0  0
  -19.7400  -31.4264   19.8015 C   0  0  0  0  0  0  0  0  0  0  0  0
  -22.7322  -29.3940   25.3502 C   0  0  0  0  0  0  0  0  0  0  0  0
  -20.7746  -29.2582   23.7953 C   0  0  0  0  0  0  0  0  0  0  0  0
  -21.3160  -31.4122   24.9311 C   0  0  0  0  0  0  0  0  0  0  0  0
  -23.1644  -32.3146   18.4011 C   0  0  0  0  0  0  0  0  0  0  0  0
  -22.8057  -30.5878   23.0621 C   0  0  1  0  0  0  0  0  0  0  0  0
  -21.1981  -31.8529   19.8706 C   0  0  2  0  0  0  0  0  0  0  0  0
  -21.9334  -30.1579   24.2752 C   0  0  0  0  0  0  0  0  0  0  0  0
  -26.0083  -11.6519   20.6260 N   0  0  0  0  0  0  0  0  0  0  0  0
  -26.1858  -12.9334   20.2624 N   0  0  0  0  0  0  0  0  0  0  0  0
  -29.0284  -22.1888   20.1487 N   0  0  0  0  0  0  0  0  0  0  0  0
  -25.2503  -30.9571   23.1686 N   0  0  0  0  0  0  0  0  0  0  0  0
  -29.6590  -14.4504   20.7310 N   0  0  0  0  0  0  0  0  0  0  0  0
  -25.0365  -14.9758   19.9184 N   0  0  0  0  0  0  0  0  0  0  0  0
  -21.7619  -12.1397   21.1947 N   0  0  0  0  0  0  0  0  0  0  0  0
  -29.2536  -16.6882   21.3561 N   0  0  0  0  0  0  0  0  0  0  0  0
  -27.3287  -31.7606   25.9551 N   0  0  0  0  0  0  0  0  0  0  0  0
  -22.0813  -31.3368   22.0409 N   0  0  0  0  0  0  0  0  0  0  0  0
  -21.7437  -31.8882   18.4843 N   0  3  0  0  0  0  0  0  0  0  0  0
  -28.1533  -23.1734   22.1362 O   0  0  0  0  0  0  0  0  0  0  0  0
  -22.2117  -14.2915   20.5422 O   0  0  0  0  0  0  0  0  0  0  0  0
  -26.6139  -29.7263   25.0758 O   0  0  0  0  0  0  0  0  0  0  0  0
  -23.7614  -32.5305   24.0311 O   0  0  0  0  0  0  0  0  0  0  0  0
  -22.5281  -29.8804   20.2926 O   0  0  0  0  0  0  0  0  0  0  0  0
  -31.3092  -16.0513   20.4897 O   0  0  0  0  0  0  0  0  0  0  0  0
  -22.3875   -6.7597   22.4983 O   0  0  0  0  0  0  0  0  0  0  0  0
  -28.6142  -26.8395   20.0409 O   0  0  0  0  0  0  0  0  0  1  0  0
  -18.7740   -6.9389   26.6593 F   0  0  0  0  0  0  0  0  0  0  0  0
  -30.0727  -17.6631   18.9052 F   0  0  0  0  0  0  0  0  0  0  0  0
  -22.8435   -5.3534   24.8343 F   0  0  0  0  0  0  0  0  0  0  0  0
  1  2  1  0  0  0  0
  1  5  2  0  0  0  0
  2  6  2  0  0  0  0
  3  8  2  0  0  0  0
  3 17  1  0  0  0  0
  4  9  1  0  0  0  0
  4 17  2  0  0  0  0
  5 20  1  0  0  0  0
  6 22  1  0  0  0  0
  7 10  2  0  0  0  0
  7 21  1  0  0  0  0
  8 26  1  0  0  0  0
  9 26  2  0  0  0  0
 10 27  1  0  0  0  0
 11 12  2  0  0  0  0
 11 28  1  0  0  0  0
 12 29  1  0  0  0  0
 13 18  1  0  0  0  0
 13 24  2  0  0  0  0
 14 23  1  0  0  0  0
 14 27  2  0  0  0  0
 15 24  1  0  0  0  0
 15 30  2  0  0  0  0
 16 29  2  0  0  0  0
 16 31  1  0  0  0  0
 17 32  1  0  0  0  0
 18 25  2  0  0  0  0
 18 37  1  0  0  0  0
 19 32  1  0  0  0  0
 19 33  2  0  0  0  0
 19 39  1  0  0  0  0
 20 22  2  0  0  0  0
 20 44  1  0  0  0  0
 21 23  2  0  0  0  0
 21 45  1  0  0  0  0
 22 55  1  0  0  0  0
 23 46  1  0  0  0  0
 24 68  1  0  0  0  0
 25 30  1  0  0  0  0
 25 73  1  0  0  0  0
 26 83  1  0  0  0  0
 27 84  1  0  0  0  0
 28 31  2  0  0  0  0
 28 83  1  0  0  0  0
 29 85  1  0  0  0  0
 30 86  1  0  0  0  0
 31 87  1  0  0  0  0
 32 66  2  0  0  0  0
 33 67  1  0  0  0  0
 33 71  1  0  0  0  0
 34 35  1  0  0  0  0
 34 38  2  0  0  0  0
 34 47  1  0  0  0  0
 35 68  1  0  0  0  0
 35 77  2  0  0  0  0
 36 37  2  0  0  0  0
 38 84  1  0  0  0  0
 39 72  1  0  0  0  0
 39 78  2  0  0  0  0
 40 56  1  0  0  0  0
 40 74  1  0  0  0  0
 40 79  2  0  0  0  0
 41 63  1  0  0  0  0
 41 69  1  0  0  0  0
 41 80  2  0  0  0  0
 42 64  1  0  0  0  0
 42 75  1  0  0  0  0
 42 81  2  0  0  0  0
 43 70  1  0  0  0  0
 43 73  1  0  0  0  0
 43 82  2  0  0  0  0
 44 48  1  0  0  0  0
 45 56  1  0  0  0  0
 46 69  1  0  0  0  0
 47 52  1  0  0  0  0
 48 50  1  0  0  0  0
 49 51  1  0  0  0  0
 49 53  1  0  0  0  0
 50 55  1  0  0  0  0
 51 57  1  0  0  0  0
 52 68  1  0  0  0  0
 53 70  1  0  0  0  0
 54 57  1  0  0  0  0
 54 70  1  0  0  0  0
 55 74  1  0  0  0  0
 56 69  1  0  0  0  0
 57 67  1  0  0  0  0
 58 64  1  0  0  0  0
 59 65  1  0  0  0  0
 60 65  1  0  0  0  0
 61 65  1  0  0  0  0
 62 76  1  0  0  0  0
 63 65  1  0  0  0  0
 63 75  1  0  0  0  0
 64 76  1  0  0  0  0
 66 67  1  0  0  0  0
M  CHG  1  76   1
M  ISO  4  38 101  43 100  73 100  84 101
M  END
> <Batch ID>
0090

> <Smiles>
C=Cc1cc(N2CCC(=[101CH:1][101O:1]c3ccc4c(c3)CN(C(=O)C(NC(=O)C(C)NC)C(C)(C)C)C(C(=O)NC3CCCc5ccccc53)C4)C2=O)cc(F)c1[100NH:0][100C:0](=O)N1CCCC(n2nc(-c3ccc(Oc4ccc(F)cc4F)cc3)c(C(N)=O)c2N)C1

> <Shape>
0.360

> <Color>
0.157

> <Negative vol penalty>
0.000

$$$$

  -OEChem-04052300293D

 87 95  0     1  0  0  0  0  0999 V2000
  -31.8025  -26.0773   22.9994 C   0  0  0  0  0  0  0  0  0  0  0  0
  -30.4846  -25.6427   22.9006 C   0  0  0  0  0  0  0  0  0  0  0  0
  -27.6535  -27.2942   16.7659 C   0  0  0  0  0  0  0  0  0  0  0  0
  -29.4759  -26.8580   18.2909 C   0  0  0  0  0  0  0  0  0  0  0  0
  -32.7865  -25.5042   22.1949 C   0  0  0  0  0  0  0  0  0  0  0  0
  -30.1498  -24.6354   21.9963 C   0  0  0  0  0  0  0  0  0  0  0  0
  -27.0839  -21.1492   24.0192 C   0  0  0  0  0  0  0  0  0  0  0  0
  -28.5304  -27.1852   15.6868 C   0  0  0  0  0  0  0  0  0  0  0  0
  -30.3529  -26.7489   17.2117 C   0  0  0  0  0  0  0  0  0  0  0  0
  -25.7349  -21.4802   24.1389 C   0  0  0  0  0  0  0  0  0  0  0  0
  -33.0030  -25.9985   14.8386 C   0  0  0  0  0  0  0  0  0  0  0  0
  -33.9054  -24.9349   14.8402 C   0  0  0  0  0  0  0  0  0  0  0  0
  -20.4713  -27.2647   22.9852 C   0  0  0  0  0  0  0  0  0  0  0  0
  -25.2528  -20.2117   22.1445 C   0  0  0  0  0  0  0  0  0  0  0  0
  -17.9214  -27.4609   21.8708 C   0  0  0  0  0  0  0  0  0  0  0  0
  -32.0635  -23.3721   14.8829 C   0  0  0  0  0  0  0  0  0  0  0  0
  -28.1262  -27.1306   18.0681 C   0  0  0  0  0  0  0  0  0  0  0  0
  -19.8880  -28.5173   22.7949 C   0  0  0  0  0  0  0  0  0  0  0  0
  -26.4743  -26.2103   19.7803 C   0  0  0  0  0  0  0  0  0  0  0  0
  -32.4653  -24.4827   21.2872 C   0  0  0  0  0  0  0  0  0  0  0  0
  -27.5300  -20.3547   22.9533 C   0  0  0  0  0  0  0  0  0  0  0  0
  -31.1302  -24.0491   21.1780 C   0  0  0  0  0  0  0  0  0  0  0  0
  -26.6077  -19.8699   22.0149 C   0  0  0  0  0  0  0  0  0  0  0  0
  -18.6130  -28.6154   22.2377 C   0  0  0  0  0  0  0  0  0  0  0  0
  -19.7798  -26.1102   22.6183 C   0  0  0  0  0  0  0  0  0  0  0  0
  -29.8801  -26.9125   15.9096 C   0  0  0  0  0  0  0  0  0  0  0  0
  -24.8196  -21.0138   23.1999 C   0  0  0  0  0  0  0  0  0  0  0  0
  -31.6308  -25.7489   14.8592 C   0  0  0  0  0  0  0  0  0  0  0  0
  -33.4357  -23.6217   14.8623 C   0  0  0  0  0  0  0  0  0  0  0  0
  -18.5048  -26.2083   22.0611 C   0  0  0  0  0  0  0  0  0  0  0  0
  -31.1610  -24.4357   14.8813 C   0  0  0  0  0  0  0  0  0  0  0  0
  -27.2210  -27.2437   19.1833 C   0  0  0  0  0  0  0  0  0  0  0  0
  -25.7784  -26.8287   20.7901 C   0  0  0  0  0  0  0  0  0  0  0  0
  -23.1588  -22.6584   23.2881 C   0  0  0  0  0  0  0  0  0  1  0  0
  -20.6467  -29.7303   23.1943 C   0  0  0  0  0  0  0  0  0  0  0  0
  -26.4151  -24.8160   19.4515 C   0  0  0  0  0  0  0  0  0  0  0  0
  -21.8954  -23.0882   23.3922 C   0  0  0  0  0  0  0  0  0  0  0  0
  -21.6227  -24.5620   23.3514 C   0  0  0  0  0  0  0  0  0  0  0  0
  -29.5373  -20.7795   20.5255 C   0  0  0  0  0  0  0  0  0  0  0  0
  -28.9734  -17.6260   20.0158 C   0  0  0  0  0  0  0  0  0  0  0  0
  -26.8950  -14.9508   20.4283 C   0  0  0  0  0  0  0  0  0  0  0  0
  -22.7172  -31.0105   22.7495 C   0  0  0  0  0  0  0  0  0  0  0  0
  -33.5547  -23.9265   20.4050 C   0  0  0  0  0  0  0  0  0  0  0  0
  -28.9844  -19.9845   22.8532 C   0  0  0  0  0  0  0  0  0  0  0  0
  -27.0324  -18.9969   20.8634 C   0  0  0  0  0  0  0  0  0  0  0  0
  -33.1835  -22.6039   19.7391 C   0  0  0  0  0  0  0  0  0  0  0  0
  -26.2197  -31.4887   22.7249 C   0  0  0  0  0  0  0  0  0  0  0  0
  -31.7828  -22.6824   19.1403 C   0  0  0  0  0  0  0  0  0  0  0  0
  -26.7353  -30.3376   21.8569 C   0  0  0  0  0  0  0  0  0  0  0  0
  -24.8995  -32.0494   22.1981 C   0  0  0  0  0  0  0  0  0  0  0  0
  -24.3597  -29.9083   21.1109 C   0  0  0  0  0  0  0  0  0  0  0  0
  -30.7320  -22.9415   20.2267 C   0  0  1  0  0  0  0  0  0  0  0  0
  -29.4058  -19.5944   21.4398 C   0  0  1  0  0  0  0  0  0  0  0  0
  -25.6509  -29.2631   21.6399 C   0  0  1  0  0  0  0  0  0  0  0  0
  -17.9647  -29.9441   22.0227 C   0  0  0  0  0  0  0  0  0  0  0  0
  -26.6867  -12.5134   19.8687 C   0  0  0  0  0  0  0  0  0  0  0  0
  -28.2310  -18.3508   17.1464 C   0  0  0  0  0  0  0  0  0  0  0  0
  -27.1490  -16.1031   16.9324 C   0  0  0  0  0  0  0  0  0  0  0  0
  -29.5982  -16.2693   17.3762 C   0  0  0  0  0  0  0  0  0  0  0  0
  -26.8432  -14.1802   23.2853 C   0  0  0  0  0  0  0  0  0  0  0  0
  -27.9632  -16.8356   19.2197 C   0  0  1  0  0  0  0  0  0  0  0  0
  -27.1613  -13.5309   20.8945 C   0  0  2  0  0  0  0  0  0  0  0  0
  -28.2273  -16.9077   17.6892 C   0  0  0  0  0  0  0  0  0  0  0  0
  -27.0183  -28.4287   19.7653 N   0  0  0  0  0  0  0  0  0  0  0  0
  -26.1363  -28.1438   20.7384 N   0  0  0  0  0  0  0  0  0  0  0  0
  -28.4662  -18.6678   20.8053 N   0  0  0  0  0  0  0  0  0  0  0  0
  -23.9240  -30.9710   22.0294 N   0  0  0  0  0  0  0  0  0  0  0  0
  -24.9013  -26.3704   21.7083 N   0  0  0  0  0  0  0  0  0  0  0  0
  -27.1944  -24.3474   18.3849 N   0  0  0  0  0  0  0  0  0  0  0  0
  -20.3739  -24.8399   22.8127 N   0  0  0  0  0  0  0  0  0  0  0  0
  -21.8714  -29.9134   22.5517 N   0  0  0  0  0  0  0  0  0  0  0  0
  -30.4489  -21.7243   20.9566 N   0  0  0  0  0  0  0  0  0  0  0  0
  -27.9810  -15.4830   19.7660 N   0  0  0  0  0  0  0  0  0  0  0  0
  -26.4550  -13.2667   22.1800 N   0  3  0  0  0  0  0  0  0  0  0  0
  -20.1532  -30.5021   24.0121 O   0  0  0  0  0  0  0  0  0  0  0  0
  -25.6801  -24.0125   20.0742 O   0  0  0  0  0  0  0  0  0  0  0  0
  -22.4508  -25.3676   23.7626 O   0  0  0  0  0  0  0  0  0  0  0  0
  -28.8627  -20.8322   19.5038 O   0  0  0  0  0  0  0  0  0  0  0  0
  -30.1677  -17.3255   19.9455 O   0  0  0  0  0  0  0  0  0  0  0  0
  -25.8289  -15.5286   20.6282 O   0  0  0  0  0  0  0  0  0  0  0  0
  -22.4337  -31.9244   23.5303 O   0  0  0  0  0  0  0  0  0  0  0  0
  -20.8275  -22.2257   23.5349 O   0  0  0  0  0  0  0  0  0  0  0  0
  -30.7361  -26.8058   14.8568 O   0  0  0  0  0  0  0  0  0  0  0  0
  -23.5023  -21.3359   23.3140 O   0  0  0  0  0  0  0  0  0  1  0  0
  -34.3024  -22.6005   14.8623 F   0  0  0  0  0  0  0  0  0  0  0  0
  -17.8308  -25.1055   21.7050 F   0  0  0  0  0  0  0  0  0  0  0  0
  -29.8439  -24.1896   14.9000 F   0  0  0  0  0  0  0  0  0  0  0  0
  1  2  1  0  0  0  0
  1  5  2  0  0  0  0
  2  6  2  0  0  0  0
  3  8  2  0  0  0  0
  3 17  1  0  0  0  0
  4  9  1  0  0  0  0
  4 17  2  0  0  0  0
  5 20  1  0  0  0  0
  6 22  1  0  0  0  0
  7 10  2  0  0  0  0
  7 21  1  0  0  0  0
  8 26  1  0  0  0  0
  9 26  2  0  0  0  0
 10 27  1  0  0  0  0
 11 12  2  0  0  0  0
 11 28  1  0  0  0  0
 12 29  1  0  0  0  0
 13 18  2  0  0  0  0
 13 25  1  0  0  0  0
 14 23  1  0  0  0  0
 14 27  2  0  0  0  0
 15 24  2  0  0  0  0
 15 30  1  0  0  0  0
 16 29  2  0  0  0  0
 16 31  1  0  0  0  0
 17 32  1  0  0  0  0
 18 24  1  0  0  0  0
 18 35  1  0  0  0  0
 19 32  1  0  0  0  0
 19 33  2  0  0  0  0
 19 36  1  0  0  0  0
 20 22  2  0  0  0  0
 20 43  1  0  0  0  0
 21 23  2  0  0  0  0
 21 44  1  0  0  0  0
 22 52  1  0  0  0  0
 23 45  1  0  0  0  0
 24 55  1  0  0  0  0
 25 30  2  0  0  0  0
 25 70  1  0  0  0  0
 26 83  1  0  0  0  0
 27 84  1  0  0  0  0
 28 31  2  0  0  0  0
 28 83  1  0  0  0  0
 29 85  1  0  0  0  0
 30 86  1  0  0  0  0
 31 87  1  0  0  0  0
 32 64  2  0  0  0  0
 33 65  1  0  0  0  0
 33 68  1  0  0  0  0
 34 37  2  0  0  0  0
 34 84  1  0  0  0  0
 35 71  1  0  0  0  0
 35 75  2  0  0  0  0
 36 69  1  0  0  0  0
 36 76  2  0  0  0  0
 37 38  1  0  0  0  0
 37 82  1  0  0  0  0
 38 70  1  0  0  0  0
 38 77  2  0  0  0  0
 39 53  1  0  0  0  0
 39 72  1  0  0  0  0
 39 78  2  0  0  0  0
 40 61  1  0  0  0  0
 40 66  1  0  0  0  0
 40 79  2  0  0  0  0
 41 62  1  0  0  0  0
 41 73  1  0  0  0  0
 41 80  2  0  0  0  0
 42 67  1  0  0  0  0
 42 71  1  0  0  0  0
 42 81  2  0  0  0  0
 43 46  1  0  0  0  0
 44 53  1  0  0  0  0
 45 66  1  0  0  0  0
 46 48  1  0  0  0  0
 47 49  1  0  0  0  0
 47 50  1  0  0  0  0
 48 52  1  0  0  0  0
 49 54  1  0  0  0  0
 50 67  1  0  0  0  0
 51 54  1  0  0  0  0
 51 67  1  0  0  0  0
 52 72  1  0  0  0  0
 53 66  1  0  0  0  0
 54 65  1  0  0  0  0
 56 62  1  0  0  0  0
 57 63  1  0  0  0  0
 58 63  1  0  0  0  0
 59 63  1  0  0  0  0
 60 74  1  0  0  0  0
 61 63  1  0  0  0  0
 61 73  1  0  0  0  0
 62 74  1  0  0  0  0
 64 65  1  0  0  0  0
M  CHG  1  74   1
M  ISO  4  34 101  42 100  71 100  84 101
M  END
> <Batch ID>
0090

> <Smiles>
CNC(C)C(=O)NC(C(=O)N1Cc2cc([101O:1][101CH2:1]C(=O)C(=O)Nc3cc(C(=O)[100NH:0][100C:0](=O)N4CCCC(n5nc(-c6ccc(Oc7ccc(F)cc7F)cc6)c(C(N)=O)c5N)C4)c(C)cc3F)ccc2CC1C(=O)NC1CCCc2ccccc21)C(C)(C)C

> <Shape>
0.211

> <Color>
0.083

> <Negative vol penalty>
0.000

$$$$

  -OEChem-04052300293D

 90 98  0     1  0  0  0  0  0999 V2000
  -26.3047  -36.1428   25.9504 C   0  0  0  0  0  0  0  0  0  0  0  0
  -27.0125  -35.1330   25.3064 C   0  0  0  0  0  0  0  0  0  0  0  0
  -24.5291   -8.9871   22.1339 C   0  0  0  0  0  0  0  0  0  0  0  0
  -23.6383   -9.3111   19.9116 C   0  0  0  0  0  0  0  0  0  0  0  0
  -24.9810  -35.9298   26.3330 C   0  0  0  0  0  0  0  0  0  0  0  0
  -26.3973  -33.9092   25.0455 C   0  0  0  0  0  0  0  0  0  0  0  0
  -27.3008  -30.2970   20.1832 C   0  0  0  0  0  0  0  0  0  0  0  0
  -23.4011   -8.2420   22.4775 C   0  0  0  0  0  0  0  0  0  0  0  0
  -22.5103   -8.5660   20.2552 C   0  0  0  0  0  0  0  0  0  0  0  0
  -28.0855  -29.1606   19.9918 C   0  0  0  0  0  0  0  0  0  0  0  0
  -22.2489   -5.1001   21.9942 C   0  0  0  0  0  0  0  0  0  0  0  0
  -22.4470   -3.9067   22.6886 C   0  0  0  0  0  0  0  0  0  0  0  0
  -35.2000  -22.6672   21.2049 C   0  0  0  0  0  0  0  0  0  0  0  0
  -33.1793  -21.4343   21.6884 C   0  0  0  0  0  0  0  0  0  0  0  0
  -26.1678  -27.7680   20.4419 C   0  0  0  0  0  0  0  0  0  0  0  0
  -35.1385  -20.2738   20.8809 C   0  0  0  0  0  0  0  0  0  0  0  0
  -21.1219   -4.7539   24.5225 C   0  0  0  0  0  0  0  0  0  0  0  0
  -24.6477   -9.5216   20.8510 C   0  0  0  0  0  0  0  0  0  0  0  0
  -33.8734  -22.6430   21.6351 C   0  0  0  0  0  0  0  0  0  0  0  0
  -27.0143   -9.8098   19.9434 C   0  0  0  0  0  0  0  0  0  0  0  0
  -24.3462  -34.7060   26.0681 C   0  0  0  0  0  0  0  0  0  0  0  0
  -25.9440  -30.1771   20.5167 C   0  0  0  0  0  0  0  0  0  0  0  0
  -25.0643  -33.6791   25.4261 C   0  0  0  0  0  0  0  0  0  0  0  0
  -25.3675  -28.9044   20.6345 C   0  0  0  0  0  0  0  0  0  0  0  0
  -35.8325  -21.4826   20.8277 C   0  0  0  0  0  0  0  0  0  0  0  0
  -33.8119  -20.2496   21.3113 C   0  0  0  0  0  0  0  0  0  0  0  0
  -22.3917   -8.0315   21.5381 C   0  0  0  0  0  0  0  0  0  0  0  0
  -27.5197  -27.8958   20.1240 C   0  0  0  0  0  0  0  0  0  0  0  0
  -21.4873   -6.1204   22.5640 C   0  0  0  0  0  0  0  0  0  0  0  0
  -21.8835   -3.7336   23.9527 C   0  0  0  0  0  0  0  0  0  0  0  0
  -20.9238   -5.9473   23.8281 C   0  0  0  0  0  0  0  0  0  0  0  0
  -25.8125  -10.2918   20.4957 C   0  0  0  0  0  0  0  0  0  0  0  0
  -27.7960  -10.9290   19.7924 C   0  0  0  0  0  0  0  0  0  0  0  0
  -30.1904  -16.9861   22.0250 C   0  0  0  0  0  0  0  0  0  0  0  0
  -31.4212  -17.3778   21.6792 C   0  0  0  0  0  0  0  0  0  0  0  0
  -29.3666  -26.6054   20.7524 C   0  0  0  0  0  0  0  0  0  1  0  0
  -33.2034  -23.8975   22.0345 C   0  0  0  0  0  0  0  0  0  0  0  0
  -27.3905   -8.4701   19.5978 C   0  0  0  0  0  0  0  0  0  0  0  0
  -30.1851  -25.5516   20.6590 C   0  0  0  0  0  0  0  0  0  0  0  0
  -29.8605  -15.5501   21.9252 C   0  0  0  0  0  0  0  0  0  0  0  0
  -31.7927  -18.8220   21.7656 C   0  0  0  0  0  0  0  0  0  0  0  0
  -31.3303  -25.4622   21.5954 C   0  0  0  0  0  0  0  0  0  0  0  0
  -24.1599  -31.0418   23.0013 C   0  0  0  0  0  0  0  0  0  0  0  0
  -21.7315  -29.9830   21.1293 C   0  0  0  0  0  0  0  0  0  0  0  0
  -20.7165  -27.9837   18.5565 C   0  0  0  0  0  0  0  0  0  0  0  0
  -22.9288  -34.5058   26.5428 C   0  0  0  0  0  0  0  0  0  0  0  0
  -25.1048  -31.4128   20.6936 C   0  0  0  0  0  0  0  0  0  0  0  0
  -23.9109  -28.7217   20.9711 C   0  0  0  0  0  0  0  0  0  0  0  0
  -22.2322  -33.3121   25.8946 C   0  0  0  0  0  0  0  0  0  0  0  0
  -26.6603  -15.8285   20.1608 C   0  0  0  0  0  0  0  0  0  0  0  0
  -23.1443  -32.0895   25.9087 C   0  0  0  0  0  0  0  0  0  0  0  0
  -26.2349  -14.3643   20.0913 C   0  0  0  0  0  0  0  0  0  0  0  0
  -27.4238  -16.1417   21.4467 C   0  0  0  0  0  0  0  0  0  0  0  0
  -28.1712  -13.7845   21.6062 C   0  0  0  0  0  0  0  0  0  0  0  0
  -24.4238  -32.3465   25.1034 C   0  0  1  0  0  0  0  0  0  0  0  0
  -23.8557  -31.1713   21.5355 C   0  0  1  0  0  0  0  0  0  0  0  0
  -27.4423  -13.4363   20.2990 C   0  0  1  0  0  0  0  0  0  0  0  0
  -18.6648  -27.3031   17.2818 C   0  0  0  0  0  0  0  0  0  0  0  0
  -20.8751  -28.2091   23.4596 C   0  0  0  0  0  0  0  0  0  0  0  0
  -19.4678  -26.9002   21.8551 C   0  0  0  0  0  0  0  0  0  0  0  0
  -18.9909  -29.3175   22.2449 C   0  0  0  0  0  0  0  0  0  0  0  0
  -21.8092  -29.0285   16.0123 C   0  0  0  0  0  0  0  0  0  0  0  0
  -21.0416  -28.6563   20.9222 C   0  0  1  0  0  0  0  0  0  0  0  0
  -19.8419  -28.2638   17.3478 C   0  0  2  0  0  0  0  0  0  0  0  0
  -20.1218  -28.2739   22.1160 C   0  0  0  0  0  0  0  0  0  0  0  0
  -25.8249  -11.6142   20.6829 N   0  0  0  0  0  0  0  0  0  0  0  0
  -27.0442  -11.9727   20.2460 N   0  0  0  0  0  0  0  0  0  0  0  0
  -28.5380  -15.2043   21.6529 N   0  0  0  0  0  0  0  0  0  0  0  0
  -23.1334  -29.9603   21.1407 N   0  0  0  0  0  0  0  0  0  0  0  0
  -37.1737  -21.5070   20.3921 N   0  0  0  0  0  0  0  0  0  0  0  0
  -29.0462  -11.1124   19.3172 N   0  0  0  0  0  0  0  0  0  0  0  0
  -26.4673   -7.4389   19.8183 N   0  0  0  0  0  0  0  0  0  0  0  0
  -33.1178  -19.0404   21.3641 N   0  0  0  0  0  0  0  0  0  0  0  0
  -32.1072  -24.2708   21.3593 N   0  0  0  0  0  0  0  0  0  0  0  0
  -24.1574  -32.2428   23.6847 N   0  0  0  0  0  0  0  0  0  0  0  0
  -20.3496  -28.7517   19.6414 N   0  0  0  0  0  0  0  0  0  0  0  0
  -33.7283  -24.5862   23.0475 N   0  3  0  0  0  0  0  0  0  0  0  0
  -20.6330  -28.1246   16.0925 N   0  3  0  0  0  0  0  0  0  0  0  0
  -28.5182   -8.1935   19.1232 O   0  0  0  0  0  0  0  0  0  0  0  0
  -30.7764  -14.7432   22.0941 O   0  0  0  0  0  0  0  0  0  0  0  0
  -30.9888  -19.6636   22.1492 O   0  0  0  0  0  0  0  0  0  0  0  0
  -31.6109  -26.2705   22.4651 O   0  0  0  0  0  0  0  0  0  0  0  0
  -24.3791  -29.9340   23.4772 O   0  0  0  0  0  0  0  0  0  0  0  0
  -21.0518  -31.0029   21.2685 O   0  0  0  0  0  0  0  0  0  0  0  0
  -21.6310  -27.1628   18.5411 O   0  0  0  0  0  0  0  0  0  0  0  0
  -30.0135  -24.5462   19.7330 O   0  0  0  0  0  0  0  0  0  0  0  0
  -21.2909   -7.3043   21.8730 O   0  0  0  0  0  0  0  0  0  0  0  0
  -28.2836  -26.7850   19.9384 O   0  0  0  0  0  0  0  0  0  1  0  0
  -22.0725   -2.5869   24.6188 F   0  0  0  0  0  0  0  0  0  0  0  0
  -20.1902   -6.9234   24.3802 F   0  0  0  0  0  0  0  0  0  0  0  0
  1  2  1  0  0  0  0
  1  5  2  0  0  0  0
  2  6  2  0  0  0  0
  3  8  2  0  0  0  0
  3 18  1  0  0  0  0
  4  9  1  0  0  0  0
  4 18  2  0  0  0  0
  5 21  1  0  0  0  0
  6 23  1  0  0  0  0
  7 10  2  0  0  0  0
  7 22  1  0  0  0  0
  8 27  1  0  0  0  0
  9 27  2  0  0  0  0
 10 28  1  0  0  0  0
 11 12  2  0  0  0  0
 11 29  1  0  0  0  0
 12 30  1  0  0  0  0
 13 19  1  0  0  0  0
 13 25  2  0  0  0  0
 14 19  2  0  0  0  0
 14 26  1  0  0  0  0
 15 24  1  0  0  0  0
 15 28  2  0  0  0  0
 16 25  1  0  0  0  0
 16 26  2  0  0  0  0
 17 30  2  0  0  0  0
 17 31  1  0  0  0  0
 18 32  1  0  0  0  0
 19 37  1  0  0  0  0
 20 32  1  0  0  0  0
 20 33  2  0  0  0  0
 20 38  1  0  0  0  0
 21 23  2  0  0  0  0
 21 46  1  0  0  0  0
 22 24  2  0  0  0  0
 22 47  1  0  0  0  0
 23 55  1  0  0  0  0
 24 48  1  0  0  0  0
 25 70  1  0  0  0  0
 26 73  1  0  0  0  0
 27 87  1  0  0  0  0
 28 88  1  0  0  0  0
 29 31  2  0  0  0  0
 29 87  1  0  0  0  0
 30 89  1  0  0  0  0
 31 90  1  0  0  0  0
 32 66  2  0  0  0  0
 33 67  1  0  0  0  0
 33 71  1  0  0  0  0
 34 35  2  0  0  0  0
 34 40  1  0  0  0  0
 35 41  1  0  0  0  0
 36 39  2  0  0  0  0
 36 88  1  0  0  0  0
 37 74  1  0  0  0  0
 37 77  2  0  0  0  0
 38 72  1  0  0  0  0
 38 79  2  0  0  0  0
 39 42  1  0  0  0  0
 39 86  1  0  0  0  0
 40 68  1  0  0  0  0
 40 80  2  0  0  0  0
 41 73  1  0  0  0  0
 41 81  2  0  0  0  0
 42 74  1  0  0  0  0
 42 82  2  0  0  0  0
 43 56  1  0  0  0  0
 43 75  1  0  0  0  0
 43 83  2  0  0  0  0
 44 63  1  0  0  0  0
 44 69  1  0  0  0  0
 44 84  2  0  0  0  0
 45 64  1  0  0  0  0
 45 76  1  0  0  0  0
 45 85  2  0  0  0  0
 46 49  1  0  0  0  0
 47 56  1  0  0  0  0
 48 69  1  0  0  0  0
 49 51  1  0  0  0  0
 50 52  1  0  0  0  0
 50 53  1  0  0  0  0
 51 55  1  0  0  0  0
 52 57  1  0  0  0  0
 53 68  1  0  0  0  0
 54 57  1  0  0  0  0
 54 68  1  0  0  0  0
 55 75  1  0  0  0  0
 56 69  1  0  0  0  0
 57 67  1  0  0  0  0
 58 64  1  0  0  0  0
 59 65  1  0  0  0  0
 60 65  1  0  0  0  0
 61 65  1  0  0  0  0
 62 78  1  0  0  0  0
 63 65  1  0  0  0  0
 63 76  1  0  0  0  0
 64 78  1  0  0  0  0
 66 67  1  0  0  0  0
M  CHG  2  77   1  78   1
M  ISO  4  34 100  36 101  40 100  88 101
M  END
> <Batch ID>
0090

> <Smiles>
CNC(C)C(=O)NC(C(=O)N1Cc2cc([101O:1][101CH2:1]C(=O)C(=O)NC(=N)c3cc(N)cc(NC(=O)C=[100CH:0][100C:0](=O)N4CCCC(n5nc(-c6ccc(Oc7ccc(F)cc7F)cc6)c(C(N)=O)c5N)C4)c3)ccc2CC1C(=O)NC1CCCc2ccccc21)C(C)(C)C

> <Shape>
0.298

> <Color>
0.100

> <Negative vol penalty>
0.000

$$$$

  -OEChem-04052300293D

 90 99  0     1  0  0  0  0  0999 V2000
  -26.7509  -26.6104   27.9220 C   0  0  0  0  0  0  0  0  0  0  0  0
  -26.7977  -25.2338   27.7262 C   0  0  0  0  0  0  0  0  0  0  0  0
  -20.2490  -21.3498   20.9166 C   0  0  0  0  0  0  0  0  0  0  0  0
  -19.9681  -21.9634   23.2365 C   0  0  0  0  0  0  0  0  0  0  0  0
  -25.1292  -11.4130   21.7697 C   0  0  0  0  0  0  0  0  0  0  0  0
  -26.4402  -27.4546   26.8569 C   0  0  0  0  0  0  0  0  0  0  0  0
  -26.5326  -24.7006   26.4653 C   0  0  0  0  0  0  0  0  0  0  0  0
  -28.4009  -19.2565   22.2007 C   0  0  0  0  0  0  0  0  0  0  0  0
  -26.3928  -11.7014   21.2544 C   0  0  0  0  0  0  0  0  0  0  0  0
  -19.7311  -22.5850   20.5272 C   0  0  0  0  0  0  0  0  0  0  0  0
  -19.4504  -23.1987   22.8470 C   0  0  0  0  0  0  0  0  0  0  0  0
  -27.8282  -18.2297   21.4514 C   0  0  0  0  0  0  0  0  0  0  0  0
  -20.6434  -26.1617   21.7435 C   0  0  0  0  0  0  0  0  0  0  0  0
  -21.1076  -27.2962   22.4091 C   0  0  0  0  0  0  0  0  0  0  0  0
  -24.2090  -13.2952   20.5665 C   0  0  0  0  0  0  0  0  0  0  0  0
  -27.3804  -19.7899   19.6669 C   0  0  0  0  0  0  0  0  0  0  0  0
  -18.8570  -27.7915   23.1345 C   0  0  0  0  0  0  0  0  0  0  0  0
  -20.3674  -21.0389   22.2713 C   0  0  0  0  0  0  0  0  0  0  0  0
  -24.0372  -12.2099   21.4257 C   0  0  0  0  0  0  0  0  0  0  0  0
  -22.2508  -19.4460   22.9216 C   0  0  0  0  0  0  0  0  0  0  0  0
  -26.1807  -26.9322   25.5800 C   0  0  0  0  0  0  0  0  0  0  0  0
  -28.4579  -20.5621   21.6924 C   0  0  0  0  0  0  0  0  0  0  0  0
  -26.2168  -25.5386   25.3824 C   0  0  0  0  0  0  0  0  0  0  0  0
  -27.9566  -20.8309   20.4108 C   0  0  0  0  0  0  0  0  0  0  0  0
  -26.5647  -12.7867   20.3952 C   0  0  0  0  0  0  0  0  0  0  0  0
  -25.4727  -13.5836   20.0512 C   0  0  0  0  0  0  0  0  0  0  0  0
  -19.3319  -23.5095   21.4924 C   0  0  0  0  0  0  0  0  0  0  0  0
  -27.3152  -18.4969   20.1855 C   0  0  0  0  0  0  0  0  0  0  0  0
  -19.2860  -25.8421   21.7734 C   0  0  0  0  0  0  0  0  0  0  0  0
  -20.2144  -28.1111   23.1046 C   0  0  0  0  0  0  0  0  0  0  0  0
  -18.3928  -26.6570   22.4689 C   0  0  0  0  0  0  0  0  0  0  0  0
  -20.9017  -19.7629   22.6742 C   0  0  0  0  0  0  0  0  0  0  0  0
  -22.2330  -18.1180   23.2716 C   0  0  0  0  0  0  0  0  0  0  0  0
  -28.2472  -13.0840   18.5253 C   0  0  0  0  0  0  0  0  0  0  0  0
  -22.6918  -11.9017   21.9749 C   0  0  0  0  0  0  0  0  0  0  0  0
  -23.4160  -20.2777   22.8421 C   0  0  0  0  0  0  0  0  0  0  0  0
  -27.2572  -23.3687   22.5785 C   0  0  0  0  0  0  0  0  0  0  0  0
  -29.0721  -24.4786   20.1297 C   0  0  0  0  0  0  0  0  0  0  0  0
  -24.6334  -15.5688   18.7480 C   0  0  0  0  0  0  0  0  0  0  0  0
  -30.6511  -23.8395   17.1725 C   0  0  0  0  0  0  0  0  0  0  0  0
  -20.5014  -12.9064   22.5373 C   0  0  0  0  0  0  0  0  0  0  0  0
  -25.8029  -27.8812   24.4704 C   0  0  0  0  0  0  0  0  0  0  0  0
  -29.1030  -21.6531   22.5023 C   0  0  0  0  0  0  0  0  0  0  0  0
  -28.0117  -22.2115   19.8112 C   0  0  0  0  0  0  0  0  0  0  0  0
  -29.7408  -13.3150   18.4830 C   0  0  0  0  0  0  0  0  0  0  0  0
  -25.9026  -27.2618   23.0788 C   0  0  0  0  0  0  0  0  0  0  0  0
  -30.0411  -13.9153   19.8418 C   0  0  0  0  0  0  0  0  0  0  0  0
  -18.3549  -15.0461   24.3569 C   0  0  0  0  0  0  0  0  0  0  0  0
  -25.2502  -25.8831   23.0601 C   0  0  0  0  0  0  0  0  0  0  0  0
  -18.9397  -16.4394   24.1100 C   0  0  0  0  0  0  0  0  0  0  0  0
  -29.0118  -13.2701   20.7461 C   0  0  0  0  0  0  0  0  0  0  0  0
  -18.4440  -14.1645   23.1121 C   0  0  0  0  0  0  0  0  0  0  0  0
  -20.3604  -15.4567   22.2661 C   0  0  0  0  0  0  0  0  0  0  0  0
  -25.9597  -24.9240   24.0236 C   0  0  1  0  0  0  0  0  0  0  0  0
  -28.6440  -23.0501   22.0958 C   0  0  1  0  0  0  0  0  0  0  0  0
  -20.3580  -16.3595   23.5104 C   0  0  1  0  0  0  0  0  0  0  0  0
  -32.0202  -24.9543   15.3892 C   0  0  0  0  0  0  0  0  0  0  0  0
  -26.5550  -25.8090   19.0323 C   0  0  0  0  0  0  0  0  0  0  0  0
  -27.7362  -26.0771   16.8411 C   0  0  0  0  0  0  0  0  0  0  0  0
  -28.6239  -27.2058   18.8809 C   0  0  0  0  0  0  0  0  0  0  0  0
  -32.9553  -22.0469   17.6582 C   0  0  0  0  0  0  0  0  0  0  0  0
  -25.2248  -16.6193   17.8149 C   0  0  0  0  0  0  0  0  0  0  0  0
  -25.7146  -17.8601   18.5459 C   0  0  0  0  0  0  0  0  0  1  0  0
  -28.8547  -24.6986   18.6521 C   0  0  1  0  0  0  0  0  0  0  0  0
  -32.0527  -24.1642   16.6882 C   0  0  2  0  0  0  0  0  0  0  0  0
  -27.9395  -25.9219   18.3634 C   0  0  0  0  0  0  0  0  0  0  0  0
  -20.0862  -18.7201   22.8518 N   0  0  0  0  0  0  0  0  0  0  0  0
  -20.9252  -17.7350   23.2145 N   0  0  0  0  0  0  0  0  0  0  0  0
  -27.8669  -13.0598   19.8813 N   0  0  0  0  0  0  0  0  0  0  0  0
  -28.6465  -23.2459   20.6446 N   0  0  0  0  0  0  0  0  0  0  0  0
  -19.8197  -14.1336   22.6123 N   0  0  0  0  0  0  0  0  0  0  0  0
  -23.2085  -17.2521   23.6194 N   0  0  0  0  0  0  0  0  0  0  0  0
  -23.2554  -21.6186   22.4672 N   0  0  0  0  0  0  0  0  0  0  0  0
  -25.6221  -14.6891   19.1804 N   0  0  0  0  0  0  0  0  0  0  0  0
  -21.8239  -12.9882   22.0876 N   0  0  0  0  0  0  0  0  0  0  0  0
  -27.1956  -24.4458   23.4419 N   0  0  0  0  0  0  0  0  0  0  0  0
  -30.1819  -24.7908   18.0535 N   0  0  0  0  0  0  0  0  0  0  0  0
  -32.8241  -22.9104   16.4565 N   0  3  0  0  0  0  0  0  0  0  0  0
  -27.5813  -12.9009   17.5166 O   0  0  0  0  0  0  0  0  0  0  0  0
  -22.4115  -10.7390   22.2533 O   0  0  0  0  0  0  0  0  0  0  0  0
  -24.5674  -19.8405   23.0802 O   0  0  0  0  0  0  0  0  0  0  0  0
  -26.3128  -22.6886   22.1948 O   0  0  0  0  0  0  0  0  0  0  0  0
  -29.6066  -25.3649   20.8008 O   0  0  0  0  0  0  0  0  0  0  0  0
  -23.4423  -15.5517   19.0404 O   0  0  0  0  0  0  0  0  0  0  0  0
  -30.0327  -22.8436   16.8031 O   0  0  0  0  0  0  0  0  0  0  0  0
  -19.9897  -11.8351   22.8775 O   0  0  0  0  0  0  0  0  0  0  0  0
  -18.8268  -24.7150   21.1127 O   0  0  0  0  0  0  0  0  0  0  0  0
  -26.7551  -17.4966   19.4523 O   0  0  0  0  0  0  0  0  0  1  0  0
  -20.6606  -29.1997   23.7450 F   0  0  0  0  0  0  0  0  0  0  0  0
  -17.0877  -26.3545   22.5021 F   0  0  0  0  0  0  0  0  0  0  0  0
  1  2  1  0  0  0  0
  1  6  2  0  0  0  0
  2  7  2  0  0  0  0
  3 10  2  0  0  0  0
  3 18  1  0  0  0  0
  4 11  1  0  0  0  0
  4 18  2  0  0  0  0
  5  9  2  0  0  0  0
  5 19  1  0  0  0  0
  6 21  1  0  0  0  0
  7 23  1  0  0  0  0
  8 12  2  0  0  0  0
  8 22  1  0  0  0  0
  9 25  1  0  0  0  0
 10 27  1  0  0  0  0
 11 27  2  0  0  0  0
 12 28  1  0  0  0  0
 13 14  2  0  0  0  0
 13 29  1  0  0  0  0
 14 30  1  0  0  0  0
 15 19  2  0  0  0  0
 15 26  1  0  0  0  0
 16 24  1  0  0  0  0
 16 28  2  0  0  0  0
 17 30  2  0  0  0  0
 17 31  1  0  0  0  0
 18 32  1  0  0  0  0
 19 35  1  0  0  0  0
 20 32  1  0  0  0  0
 20 33  2  0  0  0  0
 20 36  1  0  0  0  0
 21 23  2  0  0  0  0
 21 42  1  0  0  0  0
 22 24  2  0  0  0  0
 22 43  1  0  0  0  0
 23 54  1  0  0  0  0
 24 44  1  0  0  0  0
 25 26  2  0  0  0  0
 25 69  1  0  0  0  0
 26 74  1  0  0  0  0
 27 87  1  0  0  0  0
 28 88  1  0  0  0  0
 29 31  2  0  0  0  0
 29 87  1  0  0  0  0
 30 89  1  0  0  0  0
 31 90  1  0  0  0  0
 32 67  2  0  0  0  0
 33 68  1  0  0  0  0
 33 72  1  0  0  0  0
 34 45  1  0  0  0  0
 34 69  1  0  0  0  0
 34 79  2  0  0  0  0
 35 75  1  0  0  0  0
 35 80  2  0  0  0  0
 36 73  1  0  0  0  0
 36 81  2  0  0  0  0
 37 55  1  0  0  0  0
 37 76  1  0  0  0  0
 37 82  2  0  0  0  0
 38 64  1  0  0  0  0
 38 70  1  0  0  0  0
 38 83  2  0  0  0  0
 39 62  1  0  0  0  0
 39 74  1  0  0  0  0
 39 84  2  0  0  0  0
 40 65  1  0  0  0  0
 40 77  1  0  0  0  0
 40 85  2  0  0  0  0
 41 71  1  0  0  0  0
 41 75  1  0  0  0  0
 41 86  2  0  0  0  0
 42 46  1  0  0  0  0
 43 55  1  0  0  0  0
 44 70  1  0  0  0  0
 45 47  1  0  0  0  0
 46 49  1  0  0  0  0
 47 51  1  0  0  0  0
 48 50  1  0  0  0  0
 48 52  1  0  0  0  0
 49 54  1  0  0  0  0
 50 56  1  0  0  0  0
 51 69  1  0  0  0  0
 52 71  1  0  0  0  0
 53 56  1  0  0  0  0
 53 71  1  0  0  0  0
 54 76  1  0  0  0  0
 55 70  1  0  0  0  0
 56 68  1  0  0  0  0
 57 65  1  0  0  0  0
 58 66  1  0  0  0  0
 59 66  1  0  0  0  0
 60 66  1  0  0  0  0
 61 78  1  0  0  0  0
 62 63  1  0  0  0  0
 63 88  1  0  0  0  0
 64 66  1  0  0  0  0
 64 77  1  0  0  0  0
 65 78  1  0  0  0  0
 67 68  1  0  0  0  0
M  CHG  1  78   1
M  ISO  4  41 100  63 101  75 100  88 101
M  END
> <Batch ID>
0090

> <Smiles>
CNC(C)C(=O)NC(C(=O)N1Cc2cc([101O:1][101CH2:1]CC(=O)Nc3cc(C(=O)[100NH:0][100C:0](=O)N4CCCC(n5nc(-c6ccc(Oc7ccc(F)cc7F)cc6)c(C(N)=O)c5N)C4)ccc3N3CCCC3=O)ccc2CC1C(=O)NC1CCCc2ccccc21)C(C)(C)C

> <Shape>
0.211

> <Color>
0.060

> <Negative vol penalty>
0.000

$$$$

  -OEChem-04052300293D

 86 95  0     1  0  0  0  0  0999 V2000
  -23.4402  -35.5405   15.5691 C   0  0  0  0  0  0  0  0  0  0  0  0
  -23.8553  -34.2128   15.5895 C   0  0  0  0  0  0  0  0  0  0  0  0
  -23.8322   -8.8721   20.1462 C   0  0  0  0  0  0  0  0  0  0  0  0
  -22.9985  -10.6774   21.5184 C   0  0  0  0  0  0  0  0  0  0  0  0
  -23.7405  -36.3801   16.6409 C   0  0  0  0  0  0  0  0  0  0  0  0
  -24.5719  -33.7242   16.6814 C   0  0  0  0  0  0  0  0  0  0  0  0
  -24.2839  -28.0830   19.0477 C   0  0  0  0  0  0  0  0  0  0  0  0
  -30.1766  -19.8996   20.7017 C   0  0  0  0  0  0  0  0  0  0  0  0
  -30.1496  -18.5052   20.6789 C   0  0  0  0  0  0  0  0  0  0  0  0
  -22.9322   -7.9957   20.7524 C   0  0  0  0  0  0  0  0  0  0  0  0
  -22.0984   -9.8010   22.1245 C   0  0  0  0  0  0  0  0  0  0  0  0
  -25.0921  -26.9578   18.8912 C   0  0  0  0  0  0  0  0  0  0  0  0
  -22.6986   -6.2794   23.6548 C   0  0  0  0  0  0  0  0  0  0  0  0
  -23.1780   -5.0311   24.0515 C   0  0  0  0  0  0  0  0  0  0  0  0
  -26.2875  -27.5440   20.9028 C   0  0  0  0  0  0  0  0  0  0  0  0
  -28.2554  -19.9608   19.2380 C   0  0  0  0  0  0  0  0  0  0  0  0
  -21.5825   -3.9543   22.5913 C   0  0  0  0  0  0  0  0  0  0  0  0
  -30.3155  -22.7836   19.5771 C   0  0  0  0  0  0  0  0  0  0  0  0
  -23.8655  -10.2130   20.5293 C   0  0  0  0  0  0  0  0  0  0  0  0
  -24.5796  -11.8961   18.7503 C   0  0  0  0  0  0  0  0  0  0  0  0
  -24.4528  -35.8990   17.7508 C   0  0  0  0  0  0  0  0  0  0  0  0
  -24.4789  -28.9546   20.1288 C   0  0  0  0  0  0  0  0  0  0  0  0
  -24.8831  -34.5586   17.7684 C   0  0  0  0  0  0  0  0  0  0  0  0
  -25.4788  -28.6782   21.0722 C   0  0  0  0  0  0  0  0  0  0  0  0
  -28.6736  -24.1456   20.2974 C   0  0  0  0  0  0  0  0  0  0  0  0
  -29.2295  -20.6274   19.9813 C   0  0  0  0  0  0  0  0  0  0  0  0
  -29.1756  -17.8386   19.9356 C   0  0  0  0  0  0  0  0  0  0  0  0
  -22.0652   -8.4602   21.7415 C   0  0  0  0  0  0  0  0  0  0  0  0
  -26.0960  -26.6897   19.8172 C   0  0  0  0  0  0  0  0  0  0  0  0
  -21.6610   -6.3652   22.7264 C   0  0  0  0  0  0  0  0  0  0  0  0
  -29.9796  -24.1083   19.7495 C   0  0  0  0  0  0  0  0  0  0  0  0
  -22.6200   -3.8685   23.5197 C   0  0  0  0  0  0  0  0  0  0  0  0
  -28.2284  -18.5664   19.2152 C   0  0  0  0  0  0  0  0  0  0  0  0
  -21.1031   -5.2027   22.1946 C   0  0  0  0  0  0  0  0  0  0  0  0
  -24.7954  -11.1187   19.9039 C   0  0  0  0  0  0  0  0  0  0  0  0
  -28.2513  -22.8427   20.4433 C   0  0  0  0  0  0  0  0  0  0  0  0
  -25.7582  -12.5781   18.5705 C   0  0  0  0  0  0  0  0  0  0  0  0
  -23.4177  -11.9932   17.9159 C   0  0  0  0  0  0  0  0  0  0  0  0
  -25.2673  -32.0196   20.4253 C   0  0  0  0  0  0  0  0  0  0  0  0
  -24.6775  -31.4648   23.5664 C   0  0  0  0  0  0  0  0  0  0  0  0
  -24.4709  -29.2120   26.1217 C   0  0  0  0  0  0  0  0  0  0  0  0
  -30.0192  -15.5517   20.5717 C   0  0  0  0  0  0  0  0  0  0  0  0
  -24.7948  -36.8568   18.8645 C   0  0  0  0  0  0  0  0  0  0  0  0
  -23.5812  -30.1495   20.2982 C   0  0  0  0  0  0  0  0  0  0  0  0
  -25.7157  -29.5714   22.2615 C   0  0  0  0  0  0  0  0  0  0  0  0
  -25.2334  -36.1627   20.1515 C   0  0  0  0  0  0  0  0  0  0  0  0
  -30.2673  -12.0071   20.7983 C   0  0  0  0  0  0  0  0  0  0  0  0
  -26.2495  -35.0664   19.8472 C   0  0  0  0  0  0  0  0  0  0  0  0
  -28.8481  -11.5239   20.4909 C   0  0  0  0  0  0  0  0  0  0  0  0
  -30.2625  -13.3047   21.6045 C   0  0  0  0  0  0  0  0  0  0  0  0
  -28.0451  -13.9094   20.7178 C   0  0  0  0  0  0  0  0  0  0  0  0
  -25.6410  -33.9850   18.9461 C   0  0  1  0  0  0  0  0  0  0  0  0
  -24.2039  -31.2480   21.1544 C   0  0  1  0  0  0  0  0  0  0  0  0
  -27.9989  -12.6400   19.8517 C   0  0  2  0  0  0  0  0  0  0  0  0
  -26.9708  -22.3167   20.9671 C   0  0  0  0  0  0  0  0  0  0  0  0
  -24.0061  -29.0624   28.5832 C   0  0  0  0  0  0  0  0  0  0  0  0
  -27.4556  -32.5802   24.1563 C   0  0  0  0  0  0  0  0  0  0  0  0
  -27.3112  -31.5466   26.4320 C   0  0  0  0  0  0  0  0  0  0  0  0
  -25.6778  -33.3073   25.7579 C   0  0  0  0  0  0  0  0  0  0  0  0
  -22.1311  -27.4518   25.6908 C   0  0  0  0  0  0  0  0  0  0  0  0
  -27.8958  -25.3786   20.6525 C   0  0  0  0  0  0  0  0  0  1  0  0
  -25.5009  -30.9986   24.7427 C   0  0  1  0  0  0  0  0  0  0  0  0
  -23.4110  -28.9900   27.1856 C   0  0  2  0  0  0  0  0  0  0  0  0
  -26.4835  -32.0922   25.2489 C   0  0  0  0  0  0  0  0  0  0  0  0
  -26.0152  -11.2900   20.4205 N   0  0  0  0  0  0  0  0  0  0  0  0
  -29.2576  -22.0233   20.0025 N   0  0  0  0  0  0  0  0  0  0  0  0
  -26.5765  -12.1829   19.5876 N   0  0  0  0  0  0  0  0  0  0  0  0
  -24.8160  -30.7308   22.3799 N   0  0  0  0  0  0  0  0  0  0  0  0
  -29.4418  -14.3169   20.9362 N   0  0  0  0  0  0  0  0  0  0  0  0
  -26.1640  -13.4714   17.6432 N   0  0  0  0  0  0  0  0  0  0  0  0
  -22.2933  -11.2235   18.2440 N   0  0  0  0  0  0  0  0  0  0  0  0
  -29.1511  -16.4220   19.9133 N   0  0  0  0  0  0  0  0  0  0  0  0
  -24.7888  -33.1054   19.7171 N   0  0  0  0  0  0  0  0  0  0  0  0
  -24.5507  -30.5371   25.7489 N   0  0  0  0  0  0  0  0  0  0  0  0
  -22.7767  -27.6524   27.0136 N   0  3  0  0  0  0  0  0  0  0  0  0
  -23.3835  -12.7279   16.8998 O   0  0  0  0  0  0  0  0  0  0  0  0
  -26.4355  -31.6575   20.5010 O   0  0  0  0  0  0  0  0  0  0  0  0
  -23.9333  -32.4397   23.6977 O   0  0  0  0  0  0  0  0  0  0  0  0
  -25.1617  -28.3016   25.6694 O   0  0  0  0  0  0  0  0  0  0  0  0
  -31.2043  -15.8067   20.8008 O   0  0  0  0  0  0  0  0  0  0  0  0
  -30.7776  -25.1401   19.4398 O   0  0  0  0  0  0  0  0  0  0  0  0
  -21.1866   -7.6053   22.3330 O   0  0  0  0  0  0  0  0  0  0  0  0
  -26.8867  -25.5925   19.6664 O   0  0  0  0  0  0  0  0  0  1  0  0
  -23.0816   -2.6699   23.8996 F   0  0  0  0  0  0  0  0  0  0  0  0
  -27.2887  -17.9361   18.4961 F   0  0  0  0  0  0  0  0  0  0  0  0
  -20.1069   -5.2788   21.3015 F   0  0  0  0  0  0  0  0  0  0  0  0
  1  2  1  0  0  0  0
  1  5  2  0  0  0  0
  2  6  2  0  0  0  0
  3 10  2  0  0  0  0
  3 19  1  0  0  0  0
  4 11  1  0  0  0  0
  4 19  2  0  0  0  0
  5 21  1  0  0  0  0
  6 23  1  0  0  0  0
  7 12  2  0  0  0  0
  7 22  1  0  0  0  0
  8  9  2  0  0  0  0
  8 26  1  0  0  0  0
  9 27  1  0  0  0  0
 10 28  1  0  0  0  0
 11 28  2  0  0  0  0
 12 29  1  0  0  0  0
 13 14  2  0  0  0  0
 13 30  1  0  0  0  0
 14 32  1  0  0  0  0
 15 24  1  0  0  0  0
 15 29  2  0  0  0  0
 16 26  2  0  0  0  0
 16 33  1  0  0  0  0
 17 32  2  0  0  0  0
 17 34  1  0  0  0  0
 18 31  2  0  0  0  0
 18 66  1  0  0  0  0
 19 35  1  0  0  0  0
 20 35  1  0  0  0  0
 20 37  2  0  0  0  0
 20 38  1  0  0  0  0
 21 23  2  0  0  0  0
 21 43  1  0  0  0  0
 22 24  2  0  0  0  0
 22 44  1  0  0  0  0
 23 52  1  0  0  0  0
 24 45  1  0  0  0  0
 25 31  1  0  0  0  0
 25 36  2  0  0  0  0
 25 61  1  0  0  0  0
 26 66  1  0  0  0  0
 27 33  2  0  0  0  0
 27 72  1  0  0  0  0
 28 82  1  0  0  0  0
 29 83  1  0  0  0  0
 30 34  2  0  0  0  0
 30 82  1  0  0  0  0
 31 81  1  0  0  0  0
 32 84  1  0  0  0  0
 33 85  1  0  0  0  0
 34 86  1  0  0  0  0
 35 65  2  0  0  0  0
 36 55  1  0  0  0  0
 36 66  1  0  0  0  0
 37 67  1  0  0  0  0
 37 70  1  0  0  0  0
 38 71  1  0  0  0  0
 38 76  2  0  0  0  0
 39 53  1  0  0  0  0
 39 73  1  0  0  0  0
 39 77  2  0  0  0  0
 40 62  1  0  0  0  0
 40 68  1  0  0  0  0
 40 78  2  0  0  0  0
 41 63  1  0  0  0  0
 41 74  1  0  0  0  0
 41 79  2  0  0  0  0
 42 69  1  0  0  0  0
 42 72  1  0  0  0  0
 42 80  2  0  0  0  0
 43 46  1  0  0  0  0
 44 53  1  0  0  0  0
 45 68  1  0  0  0  0
 46 48  1  0  0  0  0
 47 49  1  0  0  0  0
 47 50  1  0  0  0  0
 48 52  1  0  0  0  0
 49 54  1  0  0  0  0
 50 69  1  0  0  0  0
 51 54  1  0  0  0  0
 51 69  1  0  0  0  0
 52 73  1  0  0  0  0
 53 68  1  0  0  0  0
 54 67  1  0  0  0  0
 56 63  1  0  0  0  0
 57 64  1  0  0  0  0
 58 64  1  0  0  0  0
 59 64  1  0  0  0  0
 60 75  1  0  0  0  0
 61 83  1  0  0  0  0
 62 64  1  0  0  0  0
 62 74  1  0  0  0  0
 63 75  1  0  0  0  0
 65 67  1  0  0  0  0
M  CHG  1  75   1
M  ISO  4  42 100  61 101  72 100  83 101
M  END
> <Batch ID>
0090

> <Smiles>
CNC(C)C(=O)NC(C(=O)N1Cc2cc([101O:1][101CH2:1]C3=C(C)N(c4ccc([100NH:0][100C:0](=O)N5CCCC(n6nc(-c7ccc(Oc8ccc(F)cc8F)cc7)c(C(N)=O)c6N)C5)c(F)c4)CC3=O)ccc2CC1C(=O)NC1CCCc2ccccc21)C(C)(C)C

> <Shape>
0.321

> <Color>
0.131

> <Negative vol penalty>
0.000

$$$$

  -OEChem-04052300293D

 86 95  0     1  0  0  0  0  0999 V2000
  -32.4951  -12.9768   21.0989 C   0  0  0  0  0  0  0  0  0  0  0  0
  -31.8702  -14.0916   21.6486 C   0  0  0  0  0  0  0  0  0  0  0  0
  -29.7216  -23.6891   18.7680 C   0  0  0  0  0  0  0  0  0  0  0  0
  -28.9367  -23.6623   21.0528 C   0  0  0  0  0  0  0  0  0  0  0  0
  -31.8162  -12.1831   20.1753 C   0  0  0  0  0  0  0  0  0  0  0  0
  -30.5662  -14.4139   21.2741 C   0  0  0  0  0  0  0  0  0  0  0  0
  -26.2248  -16.8895   24.8138 C   0  0  0  0  0  0  0  0  0  0  0  0
  -24.6125  -25.5281   24.6677 C   0  0  0  0  0  0  0  0  0  0  0  0
  -25.1594  -26.8091   24.5931 C   0  0  0  0  0  0  0  0  0  0  0  0
  -29.8127  -22.2974   18.7829 C   0  0  0  0  0  0  0  0  0  0  0  0
  -29.0277  -22.2705   21.0677 C   0  0  0  0  0  0  0  0  0  0  0  0
  -25.7708  -18.1991   24.9639 C   0  0  0  0  0  0  0  0  0  0  0  0
  -31.4505  -19.9358   21.3997 C   0  0  0  0  0  0  0  0  0  0  0  0
  -32.0347  -19.3365   22.5156 C   0  0  0  0  0  0  0  0  0  0  0  0
  -23.9875  -17.7535   23.4017 C   0  0  0  0  0  0  0  0  0  0  0  0
  -21.5414  -22.2384   24.4612 C   0  0  0  0  0  0  0  0  0  0  0  0
  -23.3632  -27.4906   23.1280 C   0  0  0  0  0  0  0  0  0  0  0  0
  -29.9830  -18.1348   22.9442 C   0  0  0  0  0  0  0  0  0  0  0  0
  -23.5762  -22.8013   23.6783 C   0  0  0  0  0  0  0  0  0  0  0  0
  -29.2836  -24.3716   19.9030 C   0  0  0  0  0  0  0  0  0  0  0  0
  -30.2337  -26.7271   19.6651 C   0  0  0  0  0  0  0  0  0  0  0  0
  -30.4998  -12.4903   19.7966 C   0  0  0  0  0  0  0  0  0  0  0  0
  -25.5689  -16.0038   23.9468 C   0  0  0  0  0  0  0  0  0  0  0  0
  -29.8695  -13.6243   20.3436 C   0  0  0  0  0  0  0  0  0  0  0  0
  -24.4336  -16.4324   23.2444 C   0  0  0  0  0  0  0  0  0  0  0  0
  -22.7451  -21.7287   23.9149 C   0  0  0  0  0  0  0  0  0  0  0  0
  -23.4410  -25.2283   23.9723 C   0  0  0  0  0  0  0  0  0  0  0  0
  -24.5347  -27.7903   23.8233 C   0  0  0  0  0  0  0  0  0  0  0  0
  -22.8164  -26.2096   23.2025 C   0  0  0  0  0  0  0  0  0  0  0  0
  -29.4657  -21.5880   19.9327 C   0  0  0  0  0  0  0  0  0  0  0  0
  -24.6537  -18.6322   24.2556 C   0  0  0  0  0  0  0  0  0  0  0  0
  -30.1326  -19.6347   21.0561 C   0  0  0  0  0  0  0  0  0  0  0  0
  -31.3010  -18.4360   23.2878 C   0  0  0  0  0  0  0  0  0  0  0  0
  -29.3989  -18.7341   21.8284 C   0  0  0  0  0  0  0  0  0  0  0  0
  -29.1898  -25.8094   19.8884 C   0  0  0  0  0  0  0  0  0  0  0  0
  -29.6326  -27.9590   19.7534 C   0  0  0  0  0  0  0  0  0  0  0  0
  -21.6735  -23.6072   24.5417 C   0  0  0  0  0  0  0  0  0  0  0  0
  -31.6225  -26.4876   19.4014 C   0  0  0  0  0  0  0  0  0  0  0  0
  -26.3944  -14.4081   21.3246 C   0  0  0  0  0  0  0  0  0  0  0  0
  -23.4531  -13.0856   21.6741 C   0  0  0  0  0  0  0  0  0  0  0  0
  -20.2886  -13.3478   22.9248 C   0  0  0  0  0  0  0  0  0  0  0  0
  -24.9401  -29.9155   22.5941 C   0  0  0  0  0  0  0  0  0  0  0  0
  -29.8232  -11.6298   18.7591 C   0  0  0  0  0  0  0  0  0  0  0  0
  -26.0553  -14.5864   23.8164 C   0  0  0  0  0  0  0  0  0  0  0  0
  -23.6818  -15.5147   22.3165 C   0  0  0  0  0  0  0  0  0  0  0  0
  -28.3106  -11.8255   18.6977 C   0  0  0  0  0  0  0  0  0  0  0  0
  -25.4388  -30.1446   19.0810 C   0  0  0  0  0  0  0  0  0  0  0  0
  -27.9642  -13.3111   18.6951 C   0  0  0  0  0  0  0  0  0  0  0  0
  -26.5619  -29.1305   18.8672 C   0  0  0  0  0  0  0  0  0  0  0  0
  -24.4201  -29.6614   20.1139 C   0  0  0  0  0  0  0  0  0  0  0  0
  -26.1428  -28.2522   21.1961 C   0  0  0  0  0  0  0  0  0  0  0  0
  -28.4471  -13.9924   19.9812 C   0  0  1  0  0  0  0  0  0  0  0  0
  -25.6172  -13.9217   22.5150 C   0  0  1  0  0  0  0  0  0  0  0  0
  -27.2125  -28.7367   20.2050 C   0  0  1  0  0  0  0  0  0  0  0  0
  -18.0987  -12.1258   23.0154 C   0  0  0  0  0  0  0  0  0  0  0  0
  -22.8804  -13.9030   18.7907 C   0  0  0  0  0  0  0  0  0  0  0  0
  -20.4458  -13.5341   19.2431 C   0  0  0  0  0  0  0  0  0  0  0  0
  -22.0472  -11.6293   19.4155 C   0  0  0  0  0  0  0  0  0  0  0  0
  -25.6443  -29.7176   24.9690 C   0  0  0  0  0  0  0  0  0  0  0  0
  -20.3821  -13.1618   25.8770 C   0  0  0  0  0  0  0  0  0  0  0  0
  -23.0586  -20.2866   23.6437 C   0  0  0  0  0  0  0  0  0  1  0  0
  -22.0634  -13.4270   21.1932 C   0  0  1  0  0  0  0  0  0  0  0  0
  -19.4306  -12.3702   23.7075 C   0  0  2  0  0  0  0  0  0  0  0  0
  -21.8743  -13.1415   19.6766 C   0  0  0  0  0  0  0  0  0  0  0  0
  -28.0147  -26.4071   20.1025 N   0  0  0  0  0  0  0  0  0  0  0  0
  -22.9142  -23.9381   24.0628 N   0  0  0  0  0  0  0  0  0  0  0  0
  -28.3166  -27.7137   20.0143 N   0  0  0  0  0  0  0  0  0  0  0  0
  -24.2000  -14.1402   22.2179 N   0  0  0  0  0  0  0  0  0  0  0  0
  -25.0907  -29.2587   21.3582 N   0  0  0  0  0  0  0  0  0  0  0  0
  -21.6287  -25.9311   22.4880 N   0  0  0  0  0  0  0  0  0  0  0  0
  -30.1067  -29.2171   19.6325 N   0  0  0  0  0  0  0  0  0  0  0  0
  -32.5041  -26.4035   20.4877 N   0  0  0  0  0  0  0  0  0  0  0  0
  -27.5514  -13.6939   21.0781 N   0  0  0  0  0  0  0  0  0  0  0  0
  -21.1417  -12.6982   22.0579 N   0  0  0  0  0  0  0  0  0  0  0  0
  -25.1028  -29.1157   23.7458 N   0  0  0  0  0  0  0  0  0  0  0  0
  -19.1600  -12.8980   25.0746 N   0  3  0  0  0  0  0  0  0  0  0  0
  -32.0711  -26.3684   18.2360 O   0  0  0  0  0  0  0  0  0  0  0  0
  -25.9746  -15.3598   20.6767 O   0  0  0  0  0  0  0  0  0  0  0  0
  -23.8582  -11.9245   21.5775 O   0  0  0  0  0  0  0  0  0  0  0  0
  -20.2073  -14.5661   23.0654 O   0  0  0  0  0  0  0  0  0  0  0  0
  -24.7046  -31.1277   22.6640 O   0  0  0  0  0  0  0  0  0  0  0  0
  -20.8266  -24.5307   24.9803 O   0  0  0  0  0  0  0  0  0  0  0  0
  -29.5543  -20.2299   19.9475 O   0  0  0  0  0  0  0  0  0  0  0  0
  -24.2088  -19.9101   24.3998 O   0  0  0  0  0  0  0  0  0  1  0  0
  -31.8626  -17.8594   24.3585 F   0  0  0  0  0  0  0  0  0  0  0  0
  -28.1327  -18.4400   21.5026 F   0  0  0  0  0  0  0  0  0  0  0  0
  1  2  1  0  0  0  0
  1  5  2  0  0  0  0
  2  6  2  0  0  0  0
  3 10  2  0  0  0  0
  3 20  1  0  0  0  0
  4 11  1  0  0  0  0
  4 20  2  0  0  0  0
  5 22  1  0  0  0  0
  6 24  1  0  0  0  0
  7 12  2  0  0  0  0
  7 23  1  0  0  0  0
  8  9  2  0  0  0  0
  8 27  1  0  0  0  0
  9 28  1  0  0  0  0
 10 30  1  0  0  0  0
 11 30  2  0  0  0  0
 12 31  1  0  0  0  0
 13 14  2  0  0  0  0
 13 32  1  0  0  0  0
 14 33  1  0  0  0  0
 15 25  1  0  0  0  0
 15 31  2  0  0  0  0
 16 26  1  0  0  0  0
 16 37  2  0  0  0  0
 17 28  2  0  0  0  0
 17 29  1  0  0  0  0
 18 33  2  0  0  0  0
 18 34  1  0  0  0  0
 19 26  2  0  0  0  0
 19 66  1  0  0  0  0
 20 35  1  0  0  0  0
 21 35  1  0  0  0  0
 21 36  2  0  0  0  0
 21 38  1  0  0  0  0
 22 24  2  0  0  0  0
 22 43  1  0  0  0  0
 23 25  2  0  0  0  0
 23 44  1  0  0  0  0
 24 52  1  0  0  0  0
 25 45  1  0  0  0  0
 26 61  1  0  0  0  0
 27 29  2  0  0  0  0
 27 66  1  0  0  0  0
 28 75  1  0  0  0  0
 29 70  1  0  0  0  0
 30 83  1  0  0  0  0
 31 84  1  0  0  0  0
 32 34  2  0  0  0  0
 32 83  1  0  0  0  0
 33 85  1  0  0  0  0
 34 86  1  0  0  0  0
 35 65  2  0  0  0  0
 36 67  1  0  0  0  0
 36 71  1  0  0  0  0
 37 66  1  0  0  0  0
 37 82  1  0  0  0  0
 38 72  1  0  0  0  0
 38 77  2  0  0  0  0
 39 53  1  0  0  0  0
 39 73  1  0  0  0  0
 39 78  2  0  0  0  0
 40 62  1  0  0  0  0
 40 68  1  0  0  0  0
 40 79  2  0  0  0  0
 41 63  1  0  0  0  0
 41 74  1  0  0  0  0
 41 80  2  0  0  0  0
 42 69  1  0  0  0  0
 42 75  1  0  0  0  0
 42 81  2  0  0  0  0
 43 46  1  0  0  0  0
 44 53  1  0  0  0  0
 45 68  1  0  0  0  0
 46 48  1  0  0  0  0
 47 49  1  0  0  0  0
 47 50  1  0  0  0  0
 48 52  1  0  0  0  0
 49 54  1  0  0  0  0
 50 69  1  0  0  0  0
 51 54  1  0  0  0  0
 51 69  1  0  0  0  0
 52 73  1  0  0  0  0
 53 68  1  0  0  0  0
 54 67  1  0  0  0  0
 55 63  1  0  0  0  0
 56 64  1  0  0  0  0
 57 64  1  0  0  0  0
 58 64  1  0  0  0  0
 59 75  1  0  0  0  0
 60 76  1  0  0  0  0
 61 84  1  0  0  0  0
 62 64  1  0  0  0  0
 62 74  1  0  0  0  0
 63 76  1  0  0  0  0
 65 67  1  0  0  0  0
M  CHG  1  76   1
M  ISO  4  42 100  61 101  75 100  84 101
M  END
> <Batch ID>
0090

> <Smiles>
CNC(C)C(=O)NC(C(=O)N1Cc2cc([101O:1][101CH2:1]C3=CN(c4ccc([100N:0](C)[100C:0](=O)N5CCCC(n6nc(-c7ccc(Oc8ccc(F)cc8F)cc7)c(C(N)=O)c6N)C5)cc4N)C(=O)C3)ccc2CC1C(=O)NC1CCCc2ccccc21)C(C)(C)C

> <Shape>
0.236

> <Color>
0.078

> <Negative vol penalty>
0.000

$$$$

  -OEChem-04052300293D

 83 91  0     1  0  0  0  0  0999 V2000
  -29.2606  -12.5002   18.8782 C   0  0  0  0  0  0  0  0  0  0  0  0
  -29.2251  -13.4110   19.9280 C   0  0  0  0  0  0  0  0  0  0  0  0
  -26.8931  -24.4134   21.1124 C   0  0  0  0  0  0  0  0  0  0  0  0
  -28.9117  -25.7146   20.8495 C   0  0  0  0  0  0  0  0  0  0  0  0
  -28.2318  -12.4850   17.9387 C   0  0  0  0  0  0  0  0  0  0  0  0
  -28.1550  -14.2987   20.0455 C   0  0  0  0  0  0  0  0  0  0  0  0
  -25.6530  -19.9801   23.6331 C   0  0  0  0  0  0  0  0  0  0  0  0
  -27.3928  -23.4591   20.2263 C   0  0  0  0  0  0  0  0  0  0  0  0
  -29.4115  -24.7603   19.9635 C   0  0  0  0  0  0  0  0  0  0  0  0
  -25.2079  -21.2957   23.5113 C   0  0  0  0  0  0  0  0  0  0  0  0
  -28.2889  -20.5012   18.3123 C   0  0  0  0  0  0  0  0  0  0  0  0
  -28.1540  -19.1578   18.6623 C   0  0  0  0  0  0  0  0  0  0  0  0
  -23.0827  -20.4950   22.6980 C   0  0  0  0  0  0  0  0  0  0  0  0
  -29.4569  -19.5472   20.6593 C   0  0  0  0  0  0  0  0  0  0  0  0
  -18.2851  -27.6030   22.7499 C   0  0  0  0  0  0  0  0  0  0  0  0
  -27.6525  -25.5412   21.4240 C   0  0  0  0  0  0  0  0  0  0  0  0
  -27.2992  -26.5580   23.7368 C   0  0  0  0  0  0  0  0  0  0  0  0
  -27.1553  -13.3817   18.0384 C   0  0  0  0  0  0  0  0  0  0  0  0
  -24.8187  -18.9106   23.2773 C   0  0  0  0  0  0  0  0  0  0  0  0
  -27.0951  -14.2828   19.1209 C   0  0  0  0  0  0  0  0  0  0  0  0
  -23.5187  -19.1666   22.8186 C   0  0  0  0  0  0  0  0  0  0  0  0
  -28.6520  -23.6325   19.6518 C   0  0  0  0  0  0  0  0  0  0  0  0
  -23.9236  -21.5534   23.0409 C   0  0  0  0  0  0  0  0  0  0  0  0
  -29.0078  -21.3677   19.1358 C   0  0  0  0  0  0  0  0  0  0  0  0
  -28.7380  -18.6808   19.8358 C   0  0  0  0  0  0  0  0  0  0  0  0
  -29.5918  -20.8907   20.3093 C   0  0  0  0  0  0  0  0  0  0  0  0
  -18.4077  -26.1952   22.8298 C   0  0  0  0  0  0  0  0  0  0  0  0
  -27.1365  -26.5276   22.3388 C   0  0  0  0  0  0  0  0  0  0  0  0
  -19.5507  -28.0834   22.5059 C   0  0  0  0  0  0  0  0  0  0  0  0
  -26.6251  -27.6859   24.1365 C   0  0  0  0  0  0  0  0  0  0  0  0
  -19.7394  -25.9157   22.6287 C   0  0  0  0  0  0  0  0  0  0  0  0
  -27.9973  -25.6480   24.5971 C   0  0  0  0  0  0  0  0  0  0  0  0
  -20.0591  -29.4670   22.3214 C   0  0  0  0  0  0  0  0  0  0  0  0
  -24.9532  -16.5836   21.1162 C   0  0  0  0  0  0  0  0  0  0  0  0
  -22.2736  -15.5553   22.6278 C   0  0  0  0  0  0  0  0  0  0  0  0
  -21.8083  -24.5033   22.3861 C   0  0  0  0  0  0  0  0  0  0  0  0
  -19.5663  -16.3142   24.5621 C   0  0  0  0  0  0  0  0  0  0  0  0
  -22.0995  -30.7829   21.8430 C   0  0  0  0  0  0  0  0  0  0  0  0
  -26.0648  -13.3165   16.9983 C   0  0  0  0  0  0  0  0  0  0  0  0
  -25.3044  -17.4964   23.4399 C   0  0  0  0  0  0  0  0  0  0  0  0
  -22.5768  -18.0532   22.4426 C   0  0  0  0  0  0  0  0  0  0  0  0
  -25.2097  -14.5786   16.9536 C   0  0  0  0  0  0  0  0  0  0  0  0
  -25.3275  -32.0267   22.5709 C   0  0  0  0  0  0  0  0  0  0  0  0
  -24.7549  -14.9484   18.3575 C   0  0  0  0  0  0  0  0  0  0  0  0
  -26.1730  -30.7612   22.7377 C   0  0  0  0  0  0  0  0  0  0  0  0
  -24.2917  -31.8745   21.4578 C   0  0  0  0  0  0  0  0  0  0  0  0
  -24.2787  -29.4282   21.7283 C   0  0  0  0  0  0  0  0  0  0  0  0
  -25.9567  -15.2784   19.2517 C   0  0  1  0  0  0  0  0  0  0  0  0
  -24.5517  -16.5015   22.5618 C   0  0  1  0  0  0  0  0  0  0  0  0
  -25.2896  -29.5059   22.8838 C   0  0  1  0  0  0  0  0  0  0  0  0
  -17.5337  -15.2723   25.6016 C   0  0  0  0  0  0  0  0  0  0  0  0
  -20.9007  -15.5210   19.9031 C   0  0  0  0  0  0  0  0  0  0  0  0
  -18.6997  -15.4108   21.0912 C   0  0  0  0  0  0  0  0  0  0  0  0
  -20.3586  -13.5687   21.3691 C   0  0  0  0  0  0  0  0  0  0  0  0
  -20.4735  -16.9936   27.2960 C   0  0  0  0  0  0  0  0  0  0  0  0
  -22.1597  -23.0278   22.4319 C   0  0  0  0  0  0  0  0  0  1  0  0
  -20.7933  -15.8041   22.4671 C   0  0  1  0  0  0  0  0  0  0  0  0
  -18.9941  -15.6474   25.8000 C   0  0  2  0  0  0  0  0  0  0  0  0
  -20.2062  -15.0974   21.2128 C   0  0  0  0  0  0  0  0  0  0  0  0
  -26.4155  -27.5546   21.8811 N   0  0  0  0  0  0  0  0  0  0  0  0
  -26.1191  -28.2409   22.9980 N   0  0  0  0  0  0  0  0  0  0  0  0
  -23.1002  -16.6877   22.6131 N   0  0  0  0  0  0  0  0  0  0  0  0
  -23.4905  -30.6686   21.6747 N   0  0  0  0  0  0  0  0  0  0  0  0
  -26.4218  -28.2473   25.3472 N   0  0  0  0  0  0  0  0  0  0  0  0
  -28.6353  -24.5407   24.0216 N   0  0  0  0  0  0  0  0  0  0  0  0
  -20.4466  -24.6904   22.5981 N   0  0  0  0  0  0  0  0  0  0  0  0
  -21.4298  -29.5786   22.0868 N   0  0  0  0  0  0  0  0  0  0  0  0
  -25.5040  -15.4182   20.6182 N   0  0  0  0  0  0  0  0  0  0  0  0
  -20.1729  -15.4019   23.7248 N   0  0  0  0  0  0  0  0  0  0  0  0
  -19.0891  -16.5628   26.9721 N   0  3  0  0  0  0  0  0  0  0  0  0
  -28.0398  -25.8030   25.8412 O   0  0  0  0  0  0  0  0  0  0  0  0
  -19.2655  -30.4038   22.3448 O   0  0  0  0  0  0  0  0  0  0  0  0
  -24.7749  -17.6265   20.4979 O   0  0  0  0  0  0  0  0  0  0  0  0
  -22.6807  -14.3994   22.7685 O   0  0  0  0  0  0  0  0  0  0  0  0
  -22.6615  -25.3610   22.1843 O   0  0  0  0  0  0  0  0  0  0  0  0
  -19.4802  -17.5228   24.3564 O   0  0  0  0  0  0  0  0  0  0  0  0
  -21.5093  -31.8675   21.8168 O   0  0  0  0  0  0  0  0  0  0  0  0
  -20.4430  -27.0612   22.4304 O   0  0  0  0  0  0  0  0  0  0  0  0
  -29.1401  -22.7014   18.7874 O   0  0  0  0  0  0  0  0  0  0  0  0
  -23.4868  -22.8366   22.9205 O   0  0  0  0  0  0  0  0  0  1  0  0
  -28.6071  -17.3909   20.1726 F   0  0  0  0  0  0  0  0  0  0  0  0
  -30.2826  -21.7186   21.1050 F   0  0  0  0  0  0  0  0  0  0  0  0
  -17.4314  -25.3206   23.0534 F   0  0  0  0  0  0  0  0  0  0  0  0
  1  2  1  0  0  0  0
  1  5  2  0  0  0  0
  2  6  2  0  0  0  0
  3  8  2  0  0  0  0
  3 16  1  0  0  0  0
  4  9  1  0  0  0  0
  4 16  2  0  0  0  0
  5 18  1  0  0  0  0
  6 20  1  0  0  0  0
  7 10  2  0  0  0  0
  7 19  1  0  0  0  0
  8 22  1  0  0  0  0
  9 22  2  0  0  0  0
 10 23  1  0  0  0  0
 11 12  2  0  0  0  0
 11 24  1  0  0  0  0
 12 25  1  0  0  0  0
 13 21  1  0  0  0  0
 13 23  2  0  0  0  0
 14 25  2  0  0  0  0
 14 26  1  0  0  0  0
 15 27  1  0  0  0  0
 15 29  2  0  0  0  0
 16 28  1  0  0  0  0
 17 28  1  0  0  0  0
 17 30  2  0  0  0  0
 17 32  1  0  0  0  0
 18 20  2  0  0  0  0
 18 39  1  0  0  0  0
 19 21  2  0  0  0  0
 19 40  1  0  0  0  0
 20 48  1  0  0  0  0
 21 41  1  0  0  0  0
 22 79  1  0  0  0  0
 23 80  1  0  0  0  0
 24 26  2  0  0  0  0
 24 79  1  0  0  0  0
 25 81  1  0  0  0  0
 26 82  1  0  0  0  0
 27 31  2  0  0  0  0
 27 83  1  0  0  0  0
 28 60  2  0  0  0  0
 29 33  1  0  0  0  0
 29 78  1  0  0  0  0
 30 61  1  0  0  0  0
 30 64  1  0  0  0  0
 31 66  1  0  0  0  0
 31 78  1  0  0  0  0
 32 65  1  0  0  0  0
 32 71  2  0  0  0  0
 33 67  1  0  0  0  0
 33 72  2  0  0  0  0
 34 49  1  0  0  0  0
 34 68  1  0  0  0  0
 34 73  2  0  0  0  0
 35 57  1  0  0  0  0
 35 62  1  0  0  0  0
 35 74  2  0  0  0  0
 36 56  1  0  0  0  0
 36 66  1  0  0  0  0
 36 75  2  0  0  0  0
 37 58  1  0  0  0  0
 37 69  1  0  0  0  0
 37 76  2  0  0  0  0
 38 63  1  0  0  0  0
 38 67  1  0  0  0  0
 38 77  2  0  0  0  0
 39 42  1  0  0  0  0
 40 49  1  0  0  0  0
 41 62  1  0  0  0  0
 42 44  1  0  0  0  0
 43 45  1  0  0  0  0
 43 46  1  0  0  0  0
 44 48  1  0  0  0  0
 45 50  1  0  0  0  0
 46 63  1  0  0  0  0
 47 50  1  0  0  0  0
 47 63  1  0  0  0  0
 48 68  1  0  0  0  0
 49 62  1  0  0  0  0
 50 61  1  0  0  0  0
 51 58  1  0  0  0  0
 52 59  1  0  0  0  0
 53 59  1  0  0  0  0
 54 59  1  0  0  0  0
 55 70  1  0  0  0  0
 56 80  1  0  0  0  0
 57 59  1  0  0  0  0
 57 69  1  0  0  0  0
 58 70  1  0  0  0  0
 60 61  1  0  0  0  0
M  CHG  1  70   1
M  ISO  4  38 100  56 101  67 100  80 101
M  END
> <Batch ID>
0090

> <Smiles>
CNC(C)C(=O)NC(C(=O)N1Cc2cc([101O:1][101CH2:1]C(=O)Nc3oc(C(=O)[100NH:0][100C:0](=O)N4CCCC(n5nc(-c6ccc(Oc7ccc(F)cc7F)cc6)c(C(N)=O)c5N)C4)cc3F)ccc2CC1C(=O)NC1CCCc2ccccc21)C(C)(C)C

> <Shape>
0.202

> <Color>
0.069

> <Negative vol penalty>
0.000

$$$$

  -OEChem-04052300293D

 84 92  0     1  0  0  0  0  0999 V2000
  -23.4136  -31.9168   18.9224 C   0  0  0  0  0  0  0  0  0  0  0  0
  -23.6683  -30.5509   18.9917 C   0  0  0  0  0  0  0  0  0  0  0  0
  -23.0678   -9.8895   20.0030 C   0  0  0  0  0  0  0  0  0  0  0  0
  -23.8236   -9.9791   22.2960 C   0  0  0  0  0  0  0  0  0  0  0  0
  -28.8094  -17.7487   21.9613 C   0  0  0  0  0  0  0  0  0  0  0  0
  -22.9300  -32.5923   20.0421 C   0  0  0  0  0  0  0  0  0  0  0  0
  -23.4405  -29.8598   20.1812 C   0  0  0  0  0  0  0  0  0  0  0  0
  -21.0516  -25.4561   19.4425 C   0  0  0  0  0  0  0  0  0  0  0  0
  -22.3248   -8.7451   20.2925 C   0  0  0  0  0  0  0  0  0  0  0  0
  -23.0806   -8.8346   22.5856 C   0  0  0  0  0  0  0  0  0  0  0  0
  -28.1021  -18.8426   21.4627 C   0  0  0  0  0  0  0  0  0  0  0  0
  -21.8160  -24.3874   18.9764 C   0  0  0  0  0  0  0  0  0  0  0  0
  -19.3750   -7.9969   21.7661 C   0  0  0  0  0  0  0  0  0  0  0  0
  -18.0690   -7.9318   21.2806 C   0  0  0  0  0  0  0  0  0  0  0  0
  -29.2616  -17.0125   19.7051 C   0  0  0  0  0  0  0  0  0  0  0  0
  -21.9517  -23.5136   21.2208 C   0  0  0  0  0  0  0  0  0  0  0  0
  -18.6334   -5.9436   20.0293 C   0  0  0  0  0  0  0  0  0  0  0  0
  -23.8172  -10.5065   21.0047 C   0  0  0  0  0  0  0  0  0  0  0  0
  -29.3892  -16.8337   21.0825 C   0  0  0  0  0  0  0  0  0  0  0  0
  -24.1562  -13.0262   20.7955 C   0  0  0  0  0  0  0  0  0  0  0  0
  -22.6869  -31.9073   21.2431 C   0  0  0  0  0  0  0  0  0  0  0  0
  -20.7401  -25.5676   20.8052 C   0  0  0  0  0  0  0  0  0  0  0  0
  -22.9544  -30.5270   21.3184 C   0  0  0  0  0  0  0  0  0  0  0  0
  -21.1810  -24.5833   21.7012 C   0  0  0  0  0  0  0  0  0  0  0  0
  -28.5542  -18.1065   19.2064 C   0  0  0  0  0  0  0  0  0  0  0  0
  -22.3312   -8.2176   21.5838 C   0  0  0  0  0  0  0  0  0  0  0  0
  -22.2687  -23.4175   19.8660 C   0  0  0  0  0  0  0  0  0  0  0  0
  -27.9745  -19.0215   20.0853 C   0  0  0  0  0  0  0  0  0  0  0  0
  -20.3102   -7.0354   21.3832 C   0  0  0  0  0  0  0  0  0  0  0  0
  -17.6982   -6.9051   20.4122 C   0  0  0  0  0  0  0  0  0  0  0  0
  -19.9394   -6.0088   20.5148 C   0  0  0  0  0  0  0  0  0  0  0  0
  -24.5853  -11.6884   20.7061 C   0  0  0  0  0  0  0  0  0  0  0  0
  -25.2481  -13.7637   20.4077 C   0  0  0  0  0  0  0  0  0  0  0  0
  -30.1268  -15.6935   21.6033 C   0  0  0  0  0  0  0  0  0  0  0  0
  -22.8844  -13.5550   21.1936 C   0  0  0  0  0  0  0  0  0  0  0  0
  -30.7548  -14.7031   20.6989 C   0  0  0  0  0  0  0  0  0  0  0  0
  -21.3648  -27.6958   23.0821 C   0  0  0  0  0  0  0  0  0  0  0  0
  -25.1477  -21.2372   19.5678 C   0  0  0  0  0  0  0  0  0  0  0  0
  -19.3714  -25.8287   24.8321 C   0  0  0  0  0  0  0  0  0  0  0  0
  -17.9536  -22.7623   25.3159 C   0  0  0  0  0  0  0  0  0  0  0  0
  -22.2087  -32.6892   22.4408 C   0  0  0  0  0  0  0  0  0  0  0  0
  -19.8920  -26.7122   21.2879 C   0  0  0  0  0  0  0  0  0  0  0  0
  -20.8569  -24.6461   23.1707 C   0  0  0  0  0  0  0  0  0  0  0  0
  -21.6388  -31.8122   23.5528 C   0  0  0  0  0  0  0  0  0  0  0  0
  -29.5920  -12.3525   18.2537 C   0  0  0  0  0  0  0  0  0  0  0  0
  -22.5613  -30.6282   23.8246 C   0  0  0  0  0  0  0  0  0  0  0  0
  -28.1633  -12.0512   18.7050 C   0  0  0  0  0  0  0  0  0  0  0  0
  -30.5137  -12.5969   19.4441 C   0  0  0  0  0  0  0  0  0  0  0  0
  -28.6041  -13.3761   20.8206 C   0  0  0  0  0  0  0  0  0  0  0  0
  -22.6963  -29.7377   22.5836 C   0  0  1  0  0  0  0  0  0  0  0  0
  -20.0684  -27.0008   22.7755 C   0  0  1  0  0  0  0  0  0  0  0  0
  -27.6376  -13.1509   19.6447 C   0  0  2  0  0  0  0  0  0  0  0  0
  -16.3952  -21.5326   26.8510 C   0  0  0  0  0  0  0  0  0  0  0  0
  -21.5801  -25.6535   26.9300 C   0  0  0  0  0  0  0  0  0  0  0  0
  -20.3729  -23.7051   27.9373 C   0  0  0  0  0  0  0  0  0  0  0  0
  -19.2774  -25.9449   27.8613 C   0  0  0  0  0  0  0  0  0  0  0  0
  -16.0455  -22.2068   23.1228 C   0  0  0  0  0  0  0  0  0  0  0  0
  -23.9659  -21.8145   20.3197 C   0  0  0  0  0  0  0  0  0  1  0  0
  -26.2228  -20.5948   20.4200 C   0  0  0  0  0  0  0  0  0  0  0  0
  -19.5439  -24.6223   25.7231 C   0  0  1  0  0  0  0  0  0  0  0  0
  -16.5164  -22.3461   25.5718 C   0  0  2  0  0  0  0  0  0  0  0  0
  -20.2015  -24.9810   27.0856 C   0  0  0  0  0  0  0  0  0  0  0  0
  -25.8510  -11.5794   20.2937 N   0  0  0  0  0  0  0  0  0  0  0  0
  -30.2874  -15.4660   22.8790 N   0  0  0  0  0  0  0  0  0  0  0  0
  -26.2266  -12.8580   20.1204 N   0  0  0  0  0  0  0  0  0  0  0  0
  -29.9678  -13.6198   20.3339 N   0  0  0  0  0  0  0  0  0  0  0  0
  -20.0299  -25.7879   23.5950 N   0  0  0  0  0  0  0  0  0  0  0  0
  -28.4336  -18.2761   17.8098 N   0  0  0  0  0  0  0  0  0  0  0  0
  -25.4570  -15.0920   20.2878 N   0  0  0  0  0  0  0  0  0  0  0  0
  -21.8729  -12.6571   21.5613 N   0  0  0  0  0  0  0  0  0  0  0  0
  -21.5236  -28.9037   22.4300 N   0  0  0  0  0  0  0  0  0  0  0  0
  -18.2254  -24.0087   25.8392 N   0  0  0  0  0  0  0  0  0  0  0  0
  -16.0066  -21.5212   24.4402 N   0  3  0  0  0  0  0  0  0  0  0  0
  -22.6465  -14.7866   21.2067 O   0  0  0  0  0  0  0  0  0  0  0  0
  -31.9079  -14.9474   20.3685 O   0  0  0  0  0  0  0  0  0  0  0  0
  -22.1614  -27.1754   23.8544 O   0  0  0  0  0  0  0  0  0  0  0  0
  -25.2292  -21.2876   18.3414 O   0  0  0  0  0  0  0  0  0  0  0  0
  -18.6722  -26.7694   25.2165 O   0  0  0  0  0  0  0  0  0  0  0  0
  -18.7561  -22.0511   24.7152 O   0  0  0  0  0  0  0  0  0  0  0  0
  -21.6062   -7.1010   21.8668 O   0  0  0  0  0  0  0  0  0  0  0  0
  -23.0156  -22.3736   19.4138 O   0  0  0  0  0  0  0  0  0  1  0  0
  -27.2743  -20.1067   19.6139 O   0  0  0  0  0  0  0  0  0  0  0  0
  -16.4436   -6.8418   19.9472 F   0  0  0  0  0  0  0  0  0  0  0  0
  -20.8332   -5.0815   20.1443 F   0  0  0  0  0  0  0  0  0  0  0  0
  1  2  1  0  0  0  0
  1  6  2  0  0  0  0
  2  7  2  0  0  0  0
  3  9  2  0  0  0  0
  3 18  1  0  0  0  0
  4 10  1  0  0  0  0
  4 18  2  0  0  0  0
  5 11  2  0  0  0  0
  5 19  1  0  0  0  0
  6 21  1  0  0  0  0
  7 23  1  0  0  0  0
  8 12  2  0  0  0  0
  8 22  1  0  0  0  0
  9 26  1  0  0  0  0
 10 26  2  0  0  0  0
 11 28  1  0  0  0  0
 12 27  1  0  0  0  0
 13 14  2  0  0  0  0
 13 29  1  0  0  0  0
 14 30  1  0  0  0  0
 15 19  2  0  0  0  0
 15 25  1  0  0  0  0
 16 24  1  0  0  0  0
 16 27  2  0  0  0  0
 17 30  2  0  0  0  0
 17 31  1  0  0  0  0
 18 32  1  0  0  0  0
 19 34  1  0  0  0  0
 20 32  1  0  0  0  0
 20 33  2  0  0  0  0
 20 35  1  0  0  0  0
 21 23  2  0  0  0  0
 21 41  1  0  0  0  0
 22 24  2  0  0  0  0
 22 42  1  0  0  0  0
 23 50  1  0  0  0  0
 24 43  1  0  0  0  0
 25 28  2  0  0  0  0
 25 68  1  0  0  0  0
 26 80  1  0  0  0  0
 27 81  1  0  0  0  0
 28 82  1  0  0  0  0
 29 31  2  0  0  0  0
 29 80  1  0  0  0  0
 30 83  1  0  0  0  0
 31 84  1  0  0  0  0
 32 63  2  0  0  0  0
 33 65  1  0  0  0  0
 33 69  1  0  0  0  0
 34 36  1  0  0  0  0
 34 64  2  0  0  0  0
 35 70  1  0  0  0  0
 35 74  2  0  0  0  0
 36 66  1  0  0  0  0
 36 75  2  0  0  0  0
 37 51  1  0  0  0  0
 37 71  1  0  0  0  0
 37 76  2  0  0  0  0
 38 58  1  0  0  0  0
 38 59  1  0  0  0  0
 38 77  2  0  0  0  0
 39 60  1  0  0  0  0
 39 67  1  0  0  0  0
 39 78  2  0  0  0  0
 40 61  1  0  0  0  0
 40 72  1  0  0  0  0
 40 79  2  0  0  0  0
 41 44  1  0  0  0  0
 42 51  1  0  0  0  0
 43 67  1  0  0  0  0
 44 46  1  0  0  0  0
 45 47  1  0  0  0  0
 45 48  1  0  0  0  0
 46 50  1  0  0  0  0
 47 52  1  0  0  0  0
 48 66  1  0  0  0  0
 49 52  1  0  0  0  0
 49 66  1  0  0  0  0
 50 71  1  0  0  0  0
 51 67  1  0  0  0  0
 52 65  1  0  0  0  0
 53 61  1  0  0  0  0
 54 62  1  0  0  0  0
 55 62  1  0  0  0  0
 56 62  1  0  0  0  0
 57 73  1  0  0  0  0
 58 81  1  0  0  0  0
 59 82  1  0  0  0  0
 60 62  1  0  0  0  0
 60 72  1  0  0  0  0
 61 73  1  0  0  0  0
 63 65  1  0  0  0  0
M  CHG  1  73   1
M  ISO  4  34 100  36 100  58 101  81 101
M  END
> <Batch ID>
0090

> <Smiles>
CNC(C)C(=O)NC(C(=O)N1Cc2cc([101O:1][101CH2:1]C(=O)COc3ccc([100C:0](=N)[100C:0](=O)N4CCCC(n5nc(-c6ccc(Oc7ccc(F)cc7F)cc6)c(C(N)=O)c5N)C4)cc3N)ccc2CC1C(=O)NC1CCCc2ccccc21)C(C)(C)C

> <Shape>
0.263

> <Color>
0.196

> <Negative vol penalty>
0.000

$$$$

  -OEChem-04052300293D

 85 94  0     1  0  0  0  0  0999 V2000
  -24.4277  -31.7868   20.8879 C   0  0  0  0  0  0  0  0  0  0  0  0
  -25.5642  -31.4694   21.6229 C   0  0  0  0  0  0  0  0  0  0  0  0
  -28.3112  -12.6295   20.3597 C   0  0  0  0  0  0  0  0  0  0  0  0
  -21.4527  -21.5637   20.8003 C   0  0  0  0  0  0  0  0  0  0  0  0
  -19.5985  -20.3374   21.7464 C   0  0  0  0  0  0  0  0  0  0  0  0
  -23.7040  -30.7758   20.2592 C   0  0  0  0  0  0  0  0  0  0  0  0
  -25.9843  -30.1424   21.7197 C   0  0  0  0  0  0  0  0  0  0  0  0
  -30.2232  -22.9978   22.3426 C   0  0  0  0  0  0  0  0  0  0  0  0
  -29.2375  -13.6676   20.2597 C   0  0  0  0  0  0  0  0  0  0  0  0
  -26.9464  -12.9144   20.4041 C   0  0  0  0  0  0  0  0  0  0  0  0
  -21.2346  -22.5968   21.7117 C   0  0  0  0  0  0  0  0  0  0  0  0
  -19.3803  -21.3705   22.6579 C   0  0  0  0  0  0  0  0  0  0  0  0
  -30.0900  -21.7267   21.7855 C   0  0  0  0  0  0  0  0  0  0  0  0
  -19.1090  -25.2013   22.0621 C   0  0  0  0  0  0  0  0  0  0  0  0
  -19.1341  -26.5088   21.5769 C   0  0  0  0  0  0  0  0  0  0  0  0
  -29.4844  -22.7224   19.6734 C   0  0  0  0  0  0  0  0  0  0  0  0
  -20.9636  -27.0268   23.0674 C   0  0  0  0  0  0  0  0  0  0  0  0
  -20.6346  -20.4340   20.8176 C   0  0  0  0  0  0  0  0  0  0  0  0
  -20.8177  -19.4498   18.4712 C   0  0  0  0  0  0  0  0  0  0  0  0
  -24.1091  -29.4345   20.3591 C   0  0  0  0  0  0  0  0  0  0  0  0
  -29.9769  -24.1425   21.5709 C   0  0  0  0  0  0  0  0  0  0  0  0
  -25.2810  -29.1104   21.0725 C   0  0  0  0  0  0  0  0  0  0  0  0
  -29.6176  -24.0069   20.2224 C   0  0  0  0  0  0  0  0  0  0  0  0
  -28.7990  -14.9906   20.2041 C   0  0  0  0  0  0  0  0  0  0  0  0
  -26.5080  -14.2374   20.3485 C   0  0  0  0  0  0  0  0  0  0  0  0
  -20.1984  -22.5002   22.6406 C   0  0  0  0  0  0  0  0  0  0  0  0
  -29.7178  -21.5888   20.4515 C   0  0  0  0  0  0  0  0  0  0  0  0
  -20.0111  -24.8066   23.0501 C   0  0  0  0  0  0  0  0  0  0  0  0
  -20.0614  -27.4215   22.0795 C   0  0  0  0  0  0  0  0  0  0  0  0
  -20.9384  -25.7193   23.5527 C   0  0  0  0  0  0  0  0  0  0  0  0
  -27.4342  -15.2755   20.2485 C   0  0  0  0  0  0  0  0  0  0  0  0
  -20.8591  -19.3668   19.8759 C   0  0  0  0  0  0  0  0  0  0  0  0
  -21.0973  -18.1749   18.0435 C   0  0  0  0  0  0  0  0  0  0  0  0
  -30.6018  -18.1984   19.9493 C   0  0  0  0  0  0  0  0  0  0  0  0
  -31.1488  -15.9184   20.0468 C   0  0  0  0  0  0  0  0  0  0  0  0
  -30.6821  -19.5325   19.8924 C   0  0  0  0  0  0  0  0  0  1  0  0
  -20.5506  -20.5785   17.6283 C   0  0  0  0  0  0  0  0  0  0  0  0
  -27.8993  -26.5435   21.7195 C   0  0  0  0  0  0  0  0  0  0  0  0
  -29.6631  -27.7080   19.2587 C   0  0  0  0  0  0  0  0  0  0  0  0
  -31.2193  -26.3935   16.2809 C   0  0  0  0  0  0  0  0  0  0  0  0
  -24.0728  -13.6082   20.4923 C   0  0  0  0  0  0  0  0  0  0  0  0
  -23.2932  -28.3811   19.6522 C   0  0  0  0  0  0  0  0  0  0  0  0
  -30.1509  -25.5070   22.1795 C   0  0  0  0  0  0  0  0  0  0  0  0
  -29.3617  -25.2046   19.3457 C   0  0  0  0  0  0  0  0  0  0  0  0
  -31.7783  -17.2869   19.9368 C   0  0  0  0  0  0  0  0  0  0  0  0
  -29.3263  -17.4373   20.0398 C   0  0  0  0  0  0  0  0  0  0  0  0
  -23.5581  -26.9732   20.1758 C   0  0  0  0  0  0  0  0  0  0  0  0
  -20.6866  -13.5981   19.3922 C   0  0  0  0  0  0  0  0  0  0  0  0
  -25.0560  -26.7132   20.2326 C   0  0  0  0  0  0  0  0  0  0  0  0
  -20.3446  -15.0838   19.2577 C   0  0  0  0  0  0  0  0  0  0  0  0
  -21.6049  -13.3331   20.5840 C   0  0  0  0  0  0  0  0  0  0  0  0
  -22.4853  -15.6318   20.4842 C   0  0  0  0  0  0  0  0  0  0  0  0
  -25.7396  -27.6705   21.2171 C   0  0  1  0  0  0  0  0  0  0  0  0
  -29.3750  -26.5936   21.4416 C   0  0  1  0  0  0  0  0  0  0  0  0
  -21.6149  -15.9568   19.2593 C   0  0  2  0  0  0  0  0  0  0  0  0
  -33.2120  -27.2031   14.9882 C   0  0  0  0  0  0  0  0  0  0  0  0
  -27.5997  -29.1820   17.5617 C   0  0  0  0  0  0  0  0  0  0  0  0
  -28.9775  -28.6418   15.5422 C   0  0  0  0  0  0  0  0  0  0  0  0
  -29.9337  -30.0574   17.3600 C   0  0  0  0  0  0  0  0  0  0  0  0
  -32.5727  -23.7707   16.5001 C   0  0  0  0  0  0  0  0  0  0  0  0
  -29.6157  -27.5806   17.7552 C   0  0  1  0  0  0  0  0  0  0  0  0
  -32.7071  -26.2208   16.0336 C   0  0  2  0  0  0  0  0  0  0  0  0
  -29.0221  -28.8447   17.0718 C   0  0  0  0  0  0  0  0  0  0  0  0
  -21.1424  -18.1364   20.3116 N   0  0  0  0  0  0  0  0  0  0  0  0
  -21.2816  -17.4345   19.1740 N   0  0  0  0  0  0  0  0  0  0  0  0
  -29.7530  -16.0539   20.1013 N   0  0  0  0  0  0  0  0  0  0  0  0
  -29.5387  -26.5172   19.9884 N   0  0  0  0  0  0  0  0  0  0  0  0
  -22.7888  -14.1925   20.5161 N   0  0  0  0  0  0  0  0  0  0  0  0
  -21.2009  -17.6261   16.8145 N   0  0  0  0  0  0  0  0  0  0  0  0
  -19.2241  -20.8344   17.2550 N   0  0  0  0  0  0  0  0  0  0  0  0
  -25.1208  -14.5229   20.3939 N   0  0  0  0  0  0  0  0  0  0  0  0
  -27.1738  -27.5356   21.0880 N   0  0  0  0  0  0  0  0  0  0  0  0
  -30.9724  -27.2530   17.3304 N   0  0  0  0  0  0  0  0  0  0  0  0
  -32.9960  -24.8384   15.5578 N   0  3  0  0  0  0  0  0  0  0  0  0
  -31.8350  -14.9045   20.0748 O   0  0  0  0  0  0  0  0  0  0  0  0
  -21.4630  -21.3279   17.2050 O   0  0  0  0  0  0  0  0  0  0  0  0
  -27.4517  -25.6685   22.4515 O   0  0  0  0  0  0  0  0  0  0  0  0
  -29.8123  -28.8221   19.7669 O   0  0  0  0  0  0  0  0  0  0  0  0
  -30.3618  -25.8258   15.6078 O   0  0  0  0  0  0  0  0  0  0  0  0
  -24.2300  -12.3850   20.5271 O   0  0  0  0  0  0  0  0  0  0  0  0
  -19.9854  -23.5080   23.5303 O   0  0  0  0  0  0  0  0  0  0  0  0
  -29.5865  -20.3493   19.9054 O   0  0  0  0  0  0  0  0  0  1  0  0
  -20.0864  -28.6766   21.6123 F   0  0  0  0  0  0  0  0  0  0  0  0
  -21.8084  -25.3457   24.5010 F   0  0  0  0  0  0  0  0  0  0  0  0
  -27.0126  -16.5484   20.1959 F   0  0  0  0  0  0  0  0  0  0  0  0
  1  2  1  0  0  0  0
  1  6  2  0  0  0  0
  2  7  2  0  0  0  0
  3  9  2  0  0  0  0
  3 10  1  0  0  0  0
  4 11  2  0  0  0  0
  4 18  1  0  0  0  0
  5 12  1  0  0  0  0
  5 18  2  0  0  0  0
  6 20  1  0  0  0  0
  7 22  1  0  0  0  0
  8 13  2  0  0  0  0
  8 21  1  0  0  0  0
  9 24  1  0  0  0  0
 10 25  2  0  0  0  0
 11 26  1  0  0  0  0
 12 26  2  0  0  0  0
 13 27  1  0  0  0  0
 14 15  2  0  0  0  0
 14 28  1  0  0  0  0
 15 29  1  0  0  0  0
 16 23  1  0  0  0  0
 16 27  2  0  0  0  0
 17 29  2  0  0  0  0
 17 30  1  0  0  0  0
 18 32  1  0  0  0  0
 19 32  1  0  0  0  0
 19 33  2  0  0  0  0
 19 37  1  0  0  0  0
 20 22  2  0  0  0  0
 20 42  1  0  0  0  0
 21 23  2  0  0  0  0
 21 43  1  0  0  0  0
 22 53  1  0  0  0  0
 23 44  1  0  0  0  0
 24 31  2  0  0  0  0
 24 66  1  0  0  0  0
 25 31  1  0  0  0  0
 25 71  1  0  0  0  0
 26 81  1  0  0  0  0
 27 82  1  0  0  0  0
 28 30  2  0  0  0  0
 28 81  1  0  0  0  0
 29 83  1  0  0  0  0
 30 84  1  0  0  0  0
 31 85  1  0  0  0  0
 32 64  2  0  0  0  0
 33 65  1  0  0  0  0
 33 69  1  0  0  0  0
 34 36  2  0  0  0  0
 34 45  1  0  0  0  0
 34 46  1  0  0  0  0
 35 45  1  0  0  0  0
 35 66  1  0  0  0  0
 35 75  2  0  0  0  0
 36 82  1  0  0  0  0
 37 70  1  0  0  0  0
 37 76  2  0  0  0  0
 38 54  1  0  0  0  0
 38 72  1  0  0  0  0
 38 77  2  0  0  0  0
 39 61  1  0  0  0  0
 39 67  1  0  0  0  0
 39 78  2  0  0  0  0
 40 62  1  0  0  0  0
 40 73  1  0  0  0  0
 40 79  2  0  0  0  0
 41 68  1  0  0  0  0
 41 71  1  0  0  0  0
 41 80  2  0  0  0  0
 42 47  1  0  0  0  0
 43 54  1  0  0  0  0
 44 67  1  0  0  0  0
 46 66  1  0  0  0  0
 47 49  1  0  0  0  0
 48 50  1  0  0  0  0
 48 51  1  0  0  0  0
 49 53  1  0  0  0  0
 50 55  1  0  0  0  0
 51 68  1  0  0  0  0
 52 55  1  0  0  0  0
 52 68  1  0  0  0  0
 53 72  1  0  0  0  0
 54 67  1  0  0  0  0
 55 65  1  0  0  0  0
 56 62  1  0  0  0  0
 57 63  1  0  0  0  0
 58 63  1  0  0  0  0
 59 63  1  0  0  0  0
 60 74  1  0  0  0  0
 61 63  1  0  0  0  0
 61 73  1  0  0  0  0
 62 74  1  0  0  0  0
 64 65  1  0  0  0  0
M  CHG  1  74   1
M  ISO  4  36 101  41 100  71 100  82 101
M  END
> <Batch ID>
0090

> <Smiles>
CNC(C)C(=O)NC(C(=O)N1Cc2cc([101O:1][101CH:1]=C3CC(=O)N(c4cccc([100NH:0][100C:0](=O)N5CCCC(n6nc(-c7ccc(Oc8ccc(F)cc8F)cc7)c(C(N)=O)c6N)C5)c4F)C3)ccc2CC1C(=O)NC1CCCc2ccccc21)C(C)(C)C

> <Shape>
0.231

> <Color>
0.069

> <Negative vol penalty>
0.000

$$$$

  -OEChem-04052300293D

 82 89  0     1  0  0  0  0  0999 V2000
  -32.0531  -27.9557   18.7401 C   0  0  0  0  0  0  0  0  0  0  0  0
  -31.4910  -26.9331   19.4976 C   0  0  0  0  0  0  0  0  0  0  0  0
  -28.7688  -15.8792   19.1797 C   0  0  0  0  0  0  0  0  0  0  0  0
  -27.7435  -16.9545   21.0849 C   0  0  0  0  0  0  0  0  0  0  0  0
  -31.6395  -29.2730   18.9334 C   0  0  0  0  0  0  0  0  0  0  0  0
  -30.5158  -27.2275   20.4498 C   0  0  0  0  0  0  0  0  0  0  0  0
  -25.7120  -23.7570   21.9940 C   0  0  0  0  0  0  0  0  0  0  0  0
  -29.6588  -16.9461   19.0565 C   0  0  0  0  0  0  0  0  0  0  0  0
  -28.6335  -18.0214   20.9616 C   0  0  0  0  0  0  0  0  0  0  0  0
  -25.4941  -22.8733   23.0502 C   0  0  0  0  0  0  0  0  0  0  0  0
  -28.9728  -20.7717   19.0247 C   0  0  0  0  0  0  0  0  0  0  0  0
  -28.4543  -22.0629   19.1229 C   0  0  0  0  0  0  0  0  0  0  0  0
  -24.3914  -24.6288   24.2836 C   0  0  0  0  0  0  0  0  0  0  0  0
  -29.8809  -22.4911   21.0252 C   0  0  0  0  0  0  0  0  0  0  0  0
  -27.8111  -15.8834   20.1939 C   0  0  0  0  0  0  0  0  0  0  0  0
  -27.2103  -13.4292   20.5455 C   0  0  0  0  0  0  0  0  0  0  0  0
  -30.6518  -29.5825   19.8817 C   0  0  0  0  0  0  0  0  0  0  0  0
  -25.2801  -25.0884   22.0794 C   0  0  0  0  0  0  0  0  0  0  0  0
  -30.0896  -28.5504   20.6570 C   0  0  0  0  0  0  0  0  0  0  0  0
  -24.6028  -25.5267   23.2262 C   0  0  0  0  0  0  0  0  0  0  0  0
  -29.5912  -18.0172   19.9474 C   0  0  0  0  0  0  0  0  0  0  0  0
  -24.8363  -23.3099   24.1964 C   0  0  0  0  0  0  0  0  0  0  0  0
  -29.9453  -20.3402   19.9268 C   0  0  0  0  0  0  0  0  0  0  0  0
  -28.9084  -22.9226   20.1231 C   0  0  0  0  0  0  0  0  0  0  0  0
  -30.3993  -21.1999   20.9271 C   0  0  0  0  0  0  0  0  0  0  0  0
  -26.8911  -14.7819   20.3214 C   0  0  0  0  0  0  0  0  0  0  0  0
  -25.9944  -12.7919   20.5876 C   0  0  0  0  0  0  0  0  0  0  0  0
  -23.6158  -20.4226   25.9330 C   0  0  0  0  0  0  0  0  0  0  0  0
  -23.8813  -21.3271   24.9884 C   0  0  0  0  0  0  0  0  0  1  0  0
  -28.4914  -12.8047   20.7018 C   0  0  0  0  0  0  0  0  0  0  0  0
  -22.8057  -19.2373   25.5894 C   0  0  0  0  0  0  0  0  0  0  0  0
  -26.7218  -27.9210   22.0408 C   0  0  0  0  0  0  0  0  0  0  0  0
  -20.4711  -14.7682   21.8910 C   0  0  0  0  0  0  0  0  0  0  0  0
  -23.6755  -29.0355   22.0190 C   0  0  0  0  0  0  0  0  0  0  0  0
  -21.9510  -17.2359   26.7705 C   0  0  0  0  0  0  0  0  0  0  0  0
  -20.5619  -15.4630   25.6530 C   0  0  0  0  0  0  0  0  0  0  0  0
  -20.3864  -28.4918   22.7488 C   0  0  0  0  0  0  0  0  0  0  0  0
  -30.2710  -31.0272   20.0883 C   0  0  0  0  0  0  0  0  0  0  0  0
  -25.4992  -26.0220   20.9206 C   0  0  0  0  0  0  0  0  0  0  0  0
  -24.1013  -26.9407   23.3592 C   0  0  0  0  0  0  0  0  0  0  0  0
  -28.9635  -31.2089   20.8549 C   0  0  0  0  0  0  0  0  0  0  0  0
  -21.5353  -13.1017   18.9027 C   0  0  0  0  0  0  0  0  0  0  0  0
  -28.9348  -30.3049   22.0832 C   0  0  0  0  0  0  0  0  0  0  0  0
  -23.0563  -13.2455   18.9337 C   0  0  0  0  0  0  0  0  0  0  0  0
  -20.8461  -14.3311   19.4863 C   0  0  0  0  0  0  0  0  0  0  0  0
  -22.8143  -14.8238   20.9024 C   0  0  0  0  0  0  0  0  0  0  0  0
  -29.0113  -28.8268   21.6822 C   0  0  1  0  0  0  0  0  0  0  0  0
  -25.4721  -27.4928   21.3249 C   0  0  1  0  0  0  0  0  0  0  0  0
  -23.5502  -13.5902   20.3499 C   0  0  2  0  0  0  0  0  0  0  0  0
  -21.9223  -16.5516   28.0849 C   0  0  0  0  0  0  0  0  0  0  0  0
  -18.1376  -29.6014   22.6522 C   0  0  0  0  0  0  0  0  0  0  0  0
  -24.4127  -30.7351   24.4434 C   0  0  0  0  0  0  0  0  0  0  0  0
  -21.9676  -31.0650   24.8683 C   0  0  0  0  0  0  0  0  0  0  0  0
  -22.9868  -31.8974   22.7492 C   0  0  0  0  0  0  0  0  0  0  0  0
  -19.3100  -26.4141   20.9369 C   0  0  0  0  0  0  0  0  0  0  0  0
  -21.0739  -15.0818   23.2372 C   0  0  0  0  0  0  0  0  0  0  0  0
  -19.9801  -15.1900   24.2879 C   0  0  0  0  0  0  0  0  0  0  0  0
  -22.6670  -29.4111   23.0777 C   0  0  1  0  0  0  0  0  0  0  0  0
  -19.1253  -28.6986   21.9295 C   0  0  2  0  0  0  0  0  0  0  0  0
  -23.0196  -30.7510   23.7832 C   0  0  0  0  0  0  0  0  0  0  0  0
  -25.5754  -14.9924   20.2275 N   0  0  0  0  0  0  0  0  0  0  0  0
  -25.0573  -13.7636   20.3933 N   0  0  0  0  0  0  0  0  0  0  0  0
  -24.3452  -27.8173   22.2018 N   0  0  0  0  0  0  0  0  0  0  0  0
  -21.3587  -14.6386   20.8227 N   0  0  0  0  0  0  0  0  0  0  0  0
  -25.6461  -11.5006   20.7713 N   0  0  0  0  0  0  0  0  0  0  0  0
  -29.0318  -12.7018   21.9908 N   0  0  0  0  0  0  0  0  0  0  0  0
  -27.7260  -28.3661   21.2024 N   0  0  0  0  0  0  0  0  0  0  0  0
  -21.3204  -16.6920   25.7244 N   0  0  0  0  0  0  0  0  0  0  0  0
  -21.3645  -29.4065   22.4205 N   0  0  0  0  0  0  0  0  0  0  0  0
  -22.6339  -18.3881   26.7414 N   0  3  0  0  0  0  0  0  0  0  0  0
  -18.4600  -27.3918   21.6639 N   0  3  0  0  0  0  0  0  0  0  0  0
  -29.1452  -12.3660   19.7252 O   0  0  0  0  0  0  0  0  0  0  0  0
  -22.3301  -18.9786   24.4966 O   0  0  0  0  0  0  0  0  0  0  0  0
  -26.7708  -27.8541   23.2634 O   0  0  0  0  0  0  0  0  0  0  0  0
  -19.2478  -14.6397   21.7944 O   0  0  0  0  0  0  0  0  0  0  0  0
  -23.8571  -29.7915   21.0614 O   0  0  0  0  0  0  0  0  0  0  0  0
  -20.4006  -14.7274   26.6169 O   0  0  0  0  0  0  0  0  0  0  0  0
  -20.4918  -27.6096   23.5980 O   0  0  0  0  0  0  0  0  0  0  0  0
  -30.4597  -19.0583   19.8276 O   0  0  0  0  0  0  0  0  0  0  0  0
  -24.6229  -22.4496   25.2289 O   0  0  0  0  0  0  0  0  0  1  0  0
  -28.4115  -24.1630   20.2163 F   0  0  0  0  0  0  0  0  0  0  0  0
  -31.3343  -20.7914   21.7959 F   0  0  0  0  0  0  0  0  0  0  0  0
  1  2  1  0  0  0  0
  1  5  2  0  0  0  0
  2  6  2  0  0  0  0
  3  8  2  0  0  0  0
  3 15  1  0  0  0  0
  4  9  1  0  0  0  0
  4 15  2  0  0  0  0
  5 17  1  0  0  0  0
  6 19  1  0  0  0  0
  7 10  2  0  0  0  0
  7 18  1  0  0  0  0
  8 21  1  0  0  0  0
  9 21  2  0  0  0  0
 10 22  1  0  0  0  0
 11 12  2  0  0  0  0
 11 23  1  0  0  0  0
 12 24  1  0  0  0  0
 13 20  1  0  0  0  0
 13 22  2  0  0  0  0
 14 24  2  0  0  0  0
 14 25  1  0  0  0  0
 15 26  1  0  0  0  0
 16 26  1  0  0  0  0
 16 27  2  0  0  0  0
 16 30  1  0  0  0  0
 17 19  2  0  0  0  0
 17 38  1  0  0  0  0
 18 20  2  0  0  0  0
 18 39  1  0  0  0  0
 19 47  1  0  0  0  0
 20 40  1  0  0  0  0
 21 79  1  0  0  0  0
 22 80  1  0  0  0  0
 23 25  2  0  0  0  0
 23 79  1  0  0  0  0
 24 81  1  0  0  0  0
 25 82  1  0  0  0  0
 26 61  2  0  0  0  0
 27 62  1  0  0  0  0
 27 65  1  0  0  0  0
 28 29  2  0  0  0  0
 28 31  1  0  0  0  0
 29 80  1  0  0  0  0
 30 66  1  0  0  0  0
 30 72  2  0  0  0  0
 31 70  1  0  0  0  0
 31 73  2  0  0  0  0
 32 48  1  0  0  0  0
 32 67  1  0  0  0  0
 32 74  2  0  0  0  0
 33 56  1  0  0  0  0
 33 64  1  0  0  0  0
 33 75  2  0  0  0  0
 34 58  1  0  0  0  0
 34 63  1  0  0  0  0
 34 76  2  0  0  0  0
 35 50  1  0  0  0  0
 35 68  1  0  0  0  0
 35 70  2  0  0  0  0
 36 57  1  0  0  0  0
 36 68  1  0  0  0  0
 36 77  2  0  0  0  0
 37 59  1  0  0  0  0
 37 69  1  0  0  0  0
 37 78  2  0  0  0  0
 38 41  1  0  0  0  0
 39 48  1  0  0  0  0
 40 63  1  0  0  0  0
 41 43  1  0  0  0  0
 42 44  1  0  0  0  0
 42 45  1  0  0  0  0
 43 47  1  0  0  0  0
 44 49  1  0  0  0  0
 45 64  1  0  0  0  0
 46 49  1  0  0  0  0
 46 64  1  0  0  0  0
 47 67  1  0  0  0  0
 48 63  1  0  0  0  0
 49 62  1  0  0  0  0
 51 59  1  0  0  0  0
 52 60  1  0  0  0  0
 53 60  1  0  0  0  0
 54 60  1  0  0  0  0
 55 71  1  0  0  0  0
 56 57  1  0  0  0  0
 58 60  1  0  0  0  0
 58 69  1  0  0  0  0
 59 71  1  0  0  0  0
 61 62  1  0  0  0  0
M  CHG  2  70   1  71   1
M  ISO  4  29 101  33 100  56 100  80 101
M  END
> <Batch ID>
0090

> <Smiles>
CNC(C)C(=O)NC(C(=O)N1Cc2cc([101O:1][101CH:1]=CC(=O)NC(C)=NC(=O)C[100CH2:0][100C:0](=O)N3CCCC(n4nc(-c5ccc(Oc6ccc(F)cc6F)cc5)c(C(N)=O)c4N)C3)ccc2CC1C(=O)NC1CCCc2ccccc21)C(C)(C)C

> <Shape>
0.230

> <Color>
0.057

> <Negative vol penalty>
0.000

$$$$

  -OEChem-04052300293D

 88 97  0     1  0  0  0  0  0999 V2000
  -17.2967  -12.9549   21.7688 C   0  0  0  0  0  0  0  0  0  0  0  0
  -18.0878  -14.0782   21.5503 C   0  0  0  0  0  0  0  0  0  0  0  0
  -22.4629  -28.2281   20.9432 C   0  0  0  0  0  0  0  0  0  0  0  0
  -23.2886  -30.4892   20.7375 C   0  0  0  0  0  0  0  0  0  0  0  0
  -17.8355  -11.8372   22.4047 C   0  0  0  0  0  0  0  0  0  0  0  0
  -19.4180  -14.0848   21.9687 C   0  0  0  0  0  0  0  0  0  0  0  0
  -24.1377  -16.8245   19.1895 C   0  0  0  0  0  0  0  0  0  0  0  0
  -28.7107  -23.7283   23.4391 C   0  0  0  0  0  0  0  0  0  0  0  0
  -29.0547  -24.6223   24.4531 C   0  0  0  0  0  0  0  0  0  0  0  0
  -21.1690  -28.7169   21.1231 C   0  0  0  0  0  0  0  0  0  0  0  0
  -21.9947  -30.9781   20.9173 C   0  0  0  0  0  0  0  0  0  0  0  0
  -24.7811  -18.0408   19.4142 C   0  0  0  0  0  0  0  0  0  0  0  0
  -17.7022  -29.3837   21.9952 C   0  0  0  0  0  0  0  0  0  0  0  0
  -16.9319  -28.8245   23.0148 C   0  0  0  0  0  0  0  0  0  0  0  0
  -27.9152  -25.5667   22.0882 C   0  0  0  0  0  0  0  0  0  0  0  0
  -26.4517  -16.9064   20.7338 C   0  0  0  0  0  0  0  0  0  0  0  0
  -27.7217  -22.2877   19.2669 C   0  0  0  0  0  0  0  0  0  0  0  0
  -18.5752  -29.5260   24.6410 C   0  0  0  0  0  0  0  0  0  0  0  0
  -23.5228  -29.1142   20.7505 C   0  0  0  0  0  0  0  0  0  0  0  0
  -28.2592  -26.4606   23.1022 C   0  0  0  0  0  0  0  0  0  0  0  0
  -25.3110  -27.7528   19.5437 C   0  0  0  0  0  0  0  0  0  0  0  0
  -19.1757  -11.8266   22.8225 C   0  0  0  0  0  0  0  0  0  0  0  0
  -24.6413  -15.6396   19.7452 C   0  0  0  0  0  0  0  0  0  0  0  0
  -19.9748  -12.9665   22.6120 C   0  0  0  0  0  0  0  0  0  0  0  0
  -25.8143  -15.6760   20.5125 C   0  0  0  0  0  0  0  0  0  0  0  0
  -26.8367  -21.6229   20.1511 C   0  0  0  0  0  0  0  0  0  0  0  0
  -28.1410  -24.2005   22.2566 C   0  0  0  0  0  0  0  0  0  0  0  0
  -28.8289  -25.9884   24.2847 C   0  0  0  0  0  0  0  0  0  0  0  0
  -20.9348  -30.0919   21.1101 C   0  0  0  0  0  0  0  0  0  0  0  0
  -25.9367  -18.0823   20.1888 C   0  0  0  0  0  0  0  0  0  0  0  0
  -18.9091  -30.0140   22.2985 C   0  0  0  0  0  0  0  0  0  0  0  0
  -17.3683  -28.8957   24.3377 C   0  0  0  0  0  0  0  0  0  0  0  0
  -19.3455  -30.0852   23.6214 C   0  0  0  0  0  0  0  0  0  0  0  0
  -24.8597  -28.6098   20.5653 C   0  0  0  0  0  0  0  0  0  0  0  0
  -26.9025  -22.2720   21.3642 C   0  0  0  0  0  0  0  0  0  0  0  0
  -26.6462  -27.5732   19.8111 C   0  0  0  0  0  0  0  0  0  0  0  0
  -28.3016  -23.3228   19.9666 C   0  0  0  0  0  0  0  0  0  0  0  0
  -26.8022  -28.3917   22.6980 C   0  0  0  0  0  0  0  0  0  0  0  0
  -28.0086  -27.8814   22.8904 C   0  0  0  0  0  0  0  0  0  0  0  0
  -24.5880  -27.1712   18.4507 C   0  0  0  0  0  0  0  0  0  0  0  0
  -23.5443  -13.4882   21.8121 C   0  0  0  0  0  0  0  0  0  0  0  0
  -26.2662  -11.9120   21.0189 C   0  0  0  0  0  0  0  0  0  0  0  0
  -29.4569  -12.0640   19.8177 C   0  0  0  0  0  0  0  0  0  0  0  0
  -29.5987  -28.2192   25.1346 C   0  0  0  0  0  0  0  0  0  0  0  0
  -19.7003  -10.6129   23.5481 C   0  0  0  0  0  0  0  0  0  0  0  0
  -23.9505  -14.3318   19.4713 C   0  0  0  0  0  0  0  0  0  0  0  0
  -26.4069  -14.4292   21.1148 C   0  0  0  0  0  0  0  0  0  0  0  0
  -21.2239  -10.5606   23.6250 C   0  0  0  0  0  0  0  0  0  0  0  0
  -30.4029  -29.7155   21.8472 C   0  0  0  0  0  0  0  0  0  0  0  0
  -21.7839  -11.9145   24.0496 C   0  0  0  0  0  0  0  0  0  0  0  0
  -29.0808  -29.6024   21.0904 C   0  0  0  0  0  0  0  0  0  0  0  0
  -30.1855  -29.8319   23.3528 C   0  0  0  0  0  0  0  0  0  0  0  0
  -28.0388  -28.6079   23.1656 C   0  0  0  0  0  0  0  0  0  0  0  0
  -21.4291  -13.0028   23.0291 C   0  0  1  0  0  0  0  0  0  0  0  0
  -24.2632  -13.2614   20.5123 C   0  0  1  0  0  0  0  0  0  0  0  0
  -28.2324  -28.4488   21.6502 C   0  0  1  0  0  0  0  0  0  0  0  0
  -26.1844  -21.9885   22.6272 C   0  0  0  0  0  0  0  0  0  0  0  0
  -31.4456  -10.6165   19.3206 C   0  0  0  0  0  0  0  0  0  0  0  0
  -26.9005  -11.7639   23.9998 C   0  0  0  0  0  0  0  0  0  0  0  0
  -29.2626  -11.1930   23.3978 C   0  0  0  0  0  0  0  0  0  0  0  0
  -27.4030   -9.6741   22.7213 C   0  0  0  0  0  0  0  0  0  0  0  0
  -29.4072  -26.3214   26.6816 C   0  0  0  0  0  0  0  0  0  0  0  0
  -29.3902  -12.7596   16.9418 C   0  0  0  0  0  0  0  0  0  0  0  0
  -25.9881  -20.4309   19.8185 C   0  0  0  0  0  0  0  0  0  1  0  0
  -27.6820  -11.8933   21.5425 C   0  0  1  0  0  0  0  0  0  0  0  0
  -30.1765  -11.2423   18.7634 C   0  0  2  0  0  0  0  0  0  0  0  0
  -27.8000  -11.1550   22.9058 C   0  0  0  0  0  0  0  0  0  0  0  0
  -25.8294  -28.9509   21.4181 N   0  0  0  0  0  0  0  0  0  0  0  0
  -27.7964  -23.3035   21.2404 N   0  0  0  0  0  0  0  0  0  0  0  0
  -26.9034  -28.3048   20.9331 N   0  0  0  0  0  0  0  0  0  0  0  0
  -25.6915  -13.1759   20.8237 N   0  0  0  0  0  0  0  0  0  0  0  0
  -29.3268  -28.7612   23.8616 N   0  0  0  0  0  0  0  0  0  0  0  0
  -27.6136  -26.8624   19.1936 N   0  0  0  0  0  0  0  0  0  0  0  0
  -23.9794  -25.9231   18.6410 N   0  0  0  0  0  0  0  0  0  0  0  0
  -22.2909  -12.9092   21.8703 N   0  0  0  0  0  0  0  0  0  0  0  0
  -28.5025  -11.3215   20.4803 N   0  0  0  0  0  0  0  0  0  0  0  0
  -29.1959  -26.8876   25.3512 N   0  0  0  0  0  0  0  0  0  0  0  0
  -30.5460  -12.0995   17.6017 N   0  3  0  0  0  0  0  0  0  0  0  0
  -24.4985  -27.7338   17.3331 O   0  0  0  0  0  0  0  0  0  0  0  0
  -24.0871  -14.1391   22.6972 O   0  0  0  0  0  0  0  0  0  0  0  0
  -25.6938  -10.8446   20.7849 O   0  0  0  0  0  0  0  0  0  0  0  0
  -29.7181  -13.2452   20.0344 O   0  0  0  0  0  0  0  0  0  0  0  0
  -30.1144  -28.8919   26.0357 O   0  0  0  0  0  0  0  0  0  0  0  0
  -29.1925  -24.2291   19.5823 O   0  0  0  0  0  0  0  0  0  0  0  0
  -19.6723  -30.5693   21.2853 O   0  0  0  0  0  0  0  0  0  0  0  0
  -26.5663  -19.2682   20.4102 O   0  0  0  0  0  0  0  0  0  1  0  0
  -16.6277  -28.3601   25.3169 F   0  0  0  0  0  0  0  0  0  0  0  0
  -20.5035  -30.6904   23.9191 F   0  0  0  0  0  0  0  0  0  0  0  0
  1  2  1  0  0  0  0
  1  5  2  0  0  0  0
  2  6  2  0  0  0  0
  3 10  2  0  0  0  0
  3 19  1  0  0  0  0
  4 11  1  0  0  0  0
  4 19  2  0  0  0  0
  5 22  1  0  0  0  0
  6 24  1  0  0  0  0
  7 12  2  0  0  0  0
  7 23  1  0  0  0  0
  8  9  2  0  0  0  0
  8 27  1  0  0  0  0
  9 28  1  0  0  0  0
 10 29  1  0  0  0  0
 11 29  2  0  0  0  0
 12 30  1  0  0  0  0
 13 14  2  0  0  0  0
 13 31  1  0  0  0  0
 14 32  1  0  0  0  0
 15 20  1  0  0  0  0
 15 27  2  0  0  0  0
 16 25  1  0  0  0  0
 16 30  2  0  0  0  0
 17 26  1  0  0  0  0
 17 37  2  0  0  0  0
 18 32  2  0  0  0  0
 18 33  1  0  0  0  0
 19 34  1  0  0  0  0
 20 28  2  0  0  0  0
 20 39  1  0  0  0  0
 21 34  1  0  0  0  0
 21 36  2  0  0  0  0
 21 40  1  0  0  0  0
 22 24  2  0  0  0  0
 22 45  1  0  0  0  0
 23 25  2  0  0  0  0
 23 46  1  0  0  0  0
 24 54  1  0  0  0  0
 25 47  1  0  0  0  0
 26 35  2  0  0  0  0
 26 64  1  0  0  0  0
 27 69  1  0  0  0  0
 28 77  1  0  0  0  0
 29 85  1  0  0  0  0
 30 86  1  0  0  0  0
 31 33  2  0  0  0  0
 31 85  1  0  0  0  0
 32 87  1  0  0  0  0
 33 88  1  0  0  0  0
 34 68  2  0  0  0  0
 35 57  1  0  0  0  0
 35 69  1  0  0  0  0
 36 70  1  0  0  0  0
 36 73  1  0  0  0  0
 37 69  1  0  0  0  0
 37 84  1  0  0  0  0
 38 39  2  0  0  0  0
 40 74  1  0  0  0  0
 40 79  2  0  0  0  0
 41 55  1  0  0  0  0
 41 75  1  0  0  0  0
 41 80  2  0  0  0  0
 42 65  1  0  0  0  0
 42 71  1  0  0  0  0
 42 81  2  0  0  0  0
 43 66  1  0  0  0  0
 43 76  1  0  0  0  0
 43 82  2  0  0  0  0
 44 72  1  0  0  0  0
 44 77  1  0  0  0  0
 44 83  2  0  0  0  0
 45 48  1  0  0  0  0
 46 55  1  0  0  0  0
 47 71  1  0  0  0  0
 48 50  1  0  0  0  0
 49 51  1  0  0  0  0
 49 52  1  0  0  0  0
 50 54  1  0  0  0  0
 51 56  1  0  0  0  0
 52 72  1  0  0  0  0
 53 56  1  0  0  0  0
 53 72  1  0  0  0  0
 54 75  1  0  0  0  0
 55 71  1  0  0  0  0
 56 70  1  0  0  0  0
 58 66  1  0  0  0  0
 59 67  1  0  0  0  0
 60 67  1  0  0  0  0
 61 67  1  0  0  0  0
 62 77  1  0  0  0  0
 63 78  1  0  0  0  0
 64 86  1  0  0  0  0
 65 67  1  0  0  0  0
 65 76  1  0  0  0  0
 66 78  1  0  0  0  0
 68 70  1  0  0  0  0
M  CHG  1  78   1
M  ISO  4  44 100  64 101  77 100  86 101
M  END
> <Batch ID>
0090

> <Smiles>
C=Cc1cc(N2C(=O)CC([101CH2:1][101O:1]c3ccc4c(c3)CN(C(=O)C(NC(=O)C(C)NC)C(C)(C)C)C(C(=O)NC3CCCc5ccccc53)C4)=C2C)ccc1[100N:0](C)[100C:0](=O)N1CCCC(n2nc(-c3ccc(Oc4ccc(F)cc4F)cc3)c(C(N)=O)c2N)C1

> <Shape>
0.219

> <Color>
0.068

> <Negative vol penalty>
0.000

$$$$

  -OEChem-04052300293D

 87 96  0     1  0  0  0  0  0999 V2000
  -28.1105  -35.0453   24.1106 C   0  0  0  0  0  0  0  0  0  0  0  0
  -28.2959  -33.7172   23.7399 C   0  0  0  0  0  0  0  0  0  0  0  0
  -31.9840  -19.6481   19.2532 C   0  0  0  0  0  0  0  0  0  0  0  0
  -25.5710   -8.8979   20.7732 C   0  0  0  0  0  0  0  0  0  0  0  0
  -24.1994   -9.8038   22.5438 C   0  0  0  0  0  0  0  0  0  0  0  0
  -26.8805  -35.4608   24.6188 C   0  0  0  0  0  0  0  0  0  0  0  0
  -27.2515  -32.8037   23.8783 C   0  0  0  0  0  0  0  0  0  0  0  0
  -26.7190  -29.8313   19.8131 C   0  0  0  0  0  0  0  0  0  0  0  0
  -31.8138  -20.9982   19.5598 C   0  0  0  0  0  0  0  0  0  0  0  0
  -31.2496  -18.6795   19.9375 C   0  0  0  0  0  0  0  0  0  0  0  0
  -25.2990   -7.6060   21.2234 C   0  0  0  0  0  0  0  0  0  0  0  0
  -23.9274   -8.5119   22.9941 C   0  0  0  0  0  0  0  0  0  0  0  0
  -27.6166  -28.7734   19.6758 C   0  0  0  0  0  0  0  0  0  0  0  0
  -21.9020   -5.9490   22.1284 C   0  0  0  0  0  0  0  0  0  0  0  0
  -20.5807   -5.6424   22.4533 C   0  0  0  0  0  0  0  0  0  0  0  0
  -25.9530  -27.2572   20.5434 C   0  0  0  0  0  0  0  0  0  0  0  0
  -21.2556   -5.1319   24.7163 C   0  0  0  0  0  0  0  0  0  0  0  0
  -25.0212   -9.9968   21.4334 C   0  0  0  0  0  0  0  0  0  0  0  0
  -25.0096  -11.8700   19.7017 C   0  0  0  0  0  0  0  0  0  0  0  0
  -25.8176  -34.5540   24.7545 C   0  0  0  0  0  0  0  0  0  0  0  0
  -25.4331  -29.6115   20.3276 C   0  0  0  0  0  0  0  0  0  0  0  0
  -26.0066  -33.2072   24.3901 C   0  0  0  0  0  0  0  0  0  0  0  0
  -25.0401  -28.3135   20.6838 C   0  0  0  0  0  0  0  0  0  0  0  0
  -30.9093  -21.3797   20.5507 C   0  0  0  0  0  0  0  0  0  0  0  0
  -30.3451  -19.0610   20.9285 C   0  0  0  0  0  0  0  0  0  0  0  0
  -24.4772   -7.4130   22.3339 C   0  0  0  0  0  0  0  0  0  0  0  0
  -27.2347  -27.4866   20.0437 C   0  0  0  0  0  0  0  0  0  0  0  0
  -22.9002   -5.8470   23.0973 C   0  0  0  0  0  0  0  0  0  0  0  0
  -20.2574   -5.2338   23.7472 C   0  0  0  0  0  0  0  0  0  0  0  0
  -22.5770   -5.4385   24.3913 C   0  0  0  0  0  0  0  0  0  0  0  0
  -30.1749  -20.4111   21.2351 C   0  0  0  0  0  0  0  0  0  0  0  0
  -25.3022  -11.3316   20.9691 C   0  0  0  0  0  0  0  0  0  0  0  0
  -25.4729  -13.1615   19.7621 C   0  0  0  0  0  0  0  0  0  0  0  0
  -29.5262  -23.4200   20.7407 C   0  0  0  0  0  0  0  0  0  0  0  0
  -29.3130  -24.7124   21.0357 C   0  0  0  0  0  0  0  0  0  0  0  0
  -31.5986  -24.7360   22.0204 C   0  0  0  0  0  0  0  0  0  0  0  0
  -24.3756  -11.2574   18.5710 C   0  0  0  0  0  0  0  0  0  0  0  0
  -23.8353  -30.6260   22.8813 C   0  0  0  0  0  0  0  0  0  0  0  0
  -21.3722  -29.0422   21.4861 C   0  0  0  0  0  0  0  0  0  0  0  0
  -20.8967  -25.9114   19.7572 C   0  0  0  0  0  0  0  0  0  0  0  0
  -29.2313  -16.8377   21.0165 C   0  0  0  0  0  0  0  0  0  0  0  0
  -24.5211  -35.0394   25.3531 C   0  0  0  0  0  0  0  0  0  0  0  0
  -24.4675  -30.7588   20.4444 C   0  0  0  0  0  0  0  0  0  0  0  0
  -23.6642  -28.0213   21.2223 C   0  0  0  0  0  0  0  0  0  0  0  0
  -30.4138  -25.5739   21.5789 C   0  0  0  0  0  0  0  0  0  0  0  0
  -31.9527  -23.5116   21.2005 C   0  0  0  0  0  0  0  0  0  0  0  0
  -23.3486  -34.0908   25.1175 C   0  0  0  0  0  0  0  0  0  0  0  0
  -27.0655  -15.9183   23.6823 C   0  0  0  0  0  0  0  0  0  0  0  0
  -23.7551  -32.6530   25.4244 C   0  0  0  0  0  0  0  0  0  0  0  0
  -26.3924  -14.6713   23.1101 C   0  0  0  0  0  0  0  0  0  0  0  0
  -28.5488  -15.9864   23.3178 C   0  0  0  0  0  0  0  0  0  0  0  0
  -28.1437  -14.6224   21.2930 C   0  0  0  0  0  0  0  0  0  0  0  0
  -24.8901  -32.1917   24.5021 C   0  0  1  0  0  0  0  0  0  0  0  0
  -23.3589  -30.5056   21.4614 C   0  0  1  0  0  0  0  0  0  0  0  0
  -26.6385  -14.5568   21.5953 C   0  0  1  0  0  0  0  0  0  0  0  0
  -19.2046  -25.2426   18.0290 C   0  0  0  0  0  0  0  0  0  0  0  0
  -19.7785  -27.9984   23.8695 C   0  0  0  0  0  0  0  0  0  0  0  0
  -19.0807  -26.0499   22.4607 C   0  0  0  0  0  0  0  0  0  0  0  0
  -18.4321  -28.3646   21.7941 C   0  0  0  0  0  0  0  0  0  0  0  0
  -29.3973  -18.2101   23.0815 C   0  0  0  0  0  0  0  0  0  0  0  0
  -23.0016  -25.0793   17.8504 C   0  0  0  0  0  0  0  0  0  0  0  0
  -27.9821  -25.3721   20.8353 C   0  0  0  0  0  0  0  0  0  1  0  0
  -20.8386  -27.6312   21.5442 C   0  0  1  0  0  0  0  0  0  0  0  0
  -20.6261  -25.7235   18.2753 C   0  0  2  0  0  0  0  0  0  0  0  0
  -19.5600  -27.5167   22.4214 C   0  0  0  0  0  0  0  0  0  0  0  0
  -25.9049  -12.2093   21.7756 N   0  0  0  0  0  0  0  0  0  0  0  0
  -25.9949  -13.3123   21.0131 N   0  0  0  0  0  0  0  0  0  0  0  0
  -30.7376  -22.7568   20.8607 N   0  0  0  0  0  0  0  0  0  0  0  0
  -22.7582  -29.1773   21.3237 N   0  0  0  0  0  0  0  0  0  0  0  0
  -28.7368  -15.8321   21.8684 N   0  0  0  0  0  0  0  0  0  0  0  0
  -25.4808  -14.1717   18.8665 N   0  0  0  0  0  0  0  0  0  0  0  0
  -22.9815  -11.3469   18.4570 N   0  0  0  0  0  0  0  0  0  0  0  0
  -24.3733  -31.8605   23.1915 N   0  0  0  0  0  0  0  0  0  0  0  0
  -20.6539  -27.2074   20.1605 N   0  0  0  0  0  0  0  0  0  0  0  0
  -29.5867  -18.0557   21.6351 N   0  0  0  0  0  0  0  0  0  0  0  0
  -21.5675  -24.7219   17.6997 N   0  3  0  0  0  0  0  0  0  0  0  0
  -32.3207  -25.1064   22.9478 O   0  0  0  0  0  0  0  0  0  0  0  0
  -25.0244  -10.6347   17.6965 O   0  0  0  0  0  0  0  0  0  0  0  0
  -23.7218  -29.6702   23.6398 O   0  0  0  0  0  0  0  0  0  0  0  0
  -20.5871  -29.9897   21.5742 O   0  0  0  0  0  0  0  0  0  0  0  0
  -21.2812  -24.9987   20.4850 O   0  0  0  0  0  0  0  0  0  0  0  0
  -29.3696  -16.6532   19.8013 O   0  0  0  0  0  0  0  0  0  0  0  0
  -24.2114   -6.1526   22.7734 O   0  0  0  0  0  0  0  0  0  0  0  0
  -28.1092  -26.4523   19.9114 O   0  0  0  0  0  0  0  0  0  1  0  0
  -18.9883   -4.9409   24.0595 F   0  0  0  0  0  0  0  0  0  0  0  0
  -23.5314   -5.3398   25.3268 F   0  0  0  0  0  0  0  0  0  0  0  0
  -29.3048  -20.7786   22.1882 F   0  0  0  0  0  0  0  0  0  0  0  0
  1  2  1  0  0  0  0
  1  6  2  0  0  0  0
  2  7  2  0  0  0  0
  3  9  2  0  0  0  0
  3 10  1  0  0  0  0
  4 11  2  0  0  0  0
  4 18  1  0  0  0  0
  5 12  1  0  0  0  0
  5 18  2  0  0  0  0
  6 20  1  0  0  0  0
  7 22  1  0  0  0  0
  8 13  2  0  0  0  0
  8 21  1  0  0  0  0
  9 24  1  0  0  0  0
 10 25  2  0  0  0  0
 11 26  1  0  0  0  0
 12 26  2  0  0  0  0
 13 27  1  0  0  0  0
 14 15  2  0  0  0  0
 14 28  1  0  0  0  0
 15 29  1  0  0  0  0
 16 23  1  0  0  0  0
 16 27  2  0  0  0  0
 17 29  2  0  0  0  0
 17 30  1  0  0  0  0
 18 32  1  0  0  0  0
 19 32  1  0  0  0  0
 19 33  2  0  0  0  0
 19 37  1  0  0  0  0
 20 22  2  0  0  0  0
 20 42  1  0  0  0  0
 21 23  2  0  0  0  0
 21 43  1  0  0  0  0
 22 53  1  0  0  0  0
 23 44  1  0  0  0  0
 24 31  2  0  0  0  0
 24 68  1  0  0  0  0
 25 31  1  0  0  0  0
 25 75  1  0  0  0  0
 26 83  1  0  0  0  0
 27 84  1  0  0  0  0
 28 30  2  0  0  0  0
 28 83  1  0  0  0  0
 29 85  1  0  0  0  0
 30 86  1  0  0  0  0
 31 87  1  0  0  0  0
 32 66  2  0  0  0  0
 33 67  1  0  0  0  0
 33 71  1  0  0  0  0
 34 35  2  0  0  0  0
 34 68  1  0  0  0  0
 35 45  1  0  0  0  0
 35 62  1  0  0  0  0
 36 45  1  0  0  0  0
 36 46  1  0  0  0  0
 36 77  2  0  0  0  0
 37 72  1  0  0  0  0
 37 78  2  0  0  0  0
 38 54  1  0  0  0  0
 38 73  1  0  0  0  0
 38 79  2  0  0  0  0
 39 63  1  0  0  0  0
 39 69  1  0  0  0  0
 39 80  2  0  0  0  0
 40 64  1  0  0  0  0
 40 74  1  0  0  0  0
 40 81  2  0  0  0  0
 41 70  1  0  0  0  0
 41 75  1  0  0  0  0
 41 82  2  0  0  0  0
 42 47  1  0  0  0  0
 43 54  1  0  0  0  0
 44 69  1  0  0  0  0
 46 68  1  0  0  0  0
 47 49  1  0  0  0  0
 48 50  1  0  0  0  0
 48 51  1  0  0  0  0
 49 53  1  0  0  0  0
 50 55  1  0  0  0  0
 51 70  1  0  0  0  0
 52 55  1  0  0  0  0
 52 70  1  0  0  0  0
 53 73  1  0  0  0  0
 54 69  1  0  0  0  0
 55 67  1  0  0  0  0
 56 64  1  0  0  0  0
 57 65  1  0  0  0  0
 58 65  1  0  0  0  0
 59 65  1  0  0  0  0
 60 75  1  0  0  0  0
 61 76  1  0  0  0  0
 62 84  1  0  0  0  0
 63 65  1  0  0  0  0
 63 74  1  0  0  0  0
 64 76  1  0  0  0  0
 66 67  1  0  0  0  0
M  CHG  1  76   1
M  ISO  4  41 100  62 101  75 100  84 101
M  END
> <Batch ID>
0090

> <Smiles>
CNC(C)C(=O)NC(C(=O)N1Cc2cc([101O:1][101CH2:1]C3=CN(c4cccc([100N:0](C)[100C:0](=O)N5CCCC(n6nc(-c7ccc(Oc8ccc(F)cc8F)cc7)c(C(N)=O)c6N)C5)c4F)CC(=O)C3)ccc2CC1C(=O)NC1CCCc2ccccc21)C(C)(C)C

> <Shape>
0.292

> <Color>
0.092

> <Negative vol penalty>
0.000

$$$$

  -OEChem-04052300293D

 85 93  0     1  0  0  0  0  0999 V2000
  -25.6079  -34.7700   24.5573 C   0  0  0  0  0  0  0  0  0  0  0  0
  -26.2176  -33.5758   24.1866 C   0  0  0  0  0  0  0  0  0  0  0  0
  -21.9436  -11.0064   20.2194 C   0  0  0  0  0  0  0  0  0  0  0  0
  -24.0972  -11.7352   21.0366 C   0  0  0  0  0  0  0  0  0  0  0  0
  -27.2637  -20.3204   21.2529 C   0  0  0  0  0  0  0  0  0  0  0  0
  -26.1851  -21.7950   19.6721 C   0  0  0  0  0  0  0  0  0  0  0  0
  -24.2466  -34.7925   24.8576 C   0  0  0  0  0  0  0  0  0  0  0  0
  -25.4665  -32.4030   24.1170 C   0  0  0  0  0  0  0  0  0  0  0  0
  -26.4441  -29.7149   19.9381 C   0  0  0  0  0  0  0  0  0  0  0  0
  -26.0699  -19.6166   21.4110 C   0  0  0  0  0  0  0  0  0  0  0  0
  -24.9912  -21.0911   19.8301 C   0  0  0  0  0  0  0  0  0  0  0  0
  -22.5467   -9.9050   19.6122 C   0  0  0  0  0  0  0  0  0  0  0  0
  -24.7004  -10.6337   20.4294 C   0  0  0  0  0  0  0  0  0  0  0  0
  -27.6145  -28.9573   19.9276 C   0  0  0  0  0  0  0  0  0  0  0  0
  -26.7581   -7.8193   19.3986 C   0  0  0  0  0  0  0  0  0  0  0  0
  -27.6993   -7.1042   20.1391 C   0  0  0  0  0  0  0  0  0  0  0  0
  -26.3333  -26.9818   20.4522 C   0  0  0  0  0  0  0  0  0  0  0  0
  -26.0191   -6.6189   21.8061 C   0  0  0  0  0  0  0  0  0  0  0  0
  -22.7188  -11.9215   20.9316 C   0  0  0  0  0  0  0  0  0  0  0  0
  -27.3213  -21.4096   20.3835 C   0  0  0  0  0  0  0  0  0  0  0  0
  -21.5766  -13.1321   22.8648 C   0  0  0  0  0  0  0  0  0  0  0  0
  -23.4763  -33.6213   24.7823 C   0  0  0  0  0  0  0  0  0  0  0  0
  -25.2089  -29.1126   20.2169 C   0  0  0  0  0  0  0  0  0  0  0  0
  -24.0938  -32.4096   24.4178 C   0  0  0  0  0  0  0  0  0  0  0  0
  -25.1484  -27.7335   20.4630 C   0  0  0  0  0  0  0  0  0  0  0  0
  -24.9336  -20.0019   20.6996 C   0  0  0  0  0  0  0  0  0  0  0  0
  -23.9251   -9.7186   19.7172 C   0  0  0  0  0  0  0  0  0  0  0  0
  -27.5596  -27.5911   20.1875 C   0  0  0  0  0  0  0  0  0  0  0  0
  -25.4474   -7.9342   19.8618 C   0  0  0  0  0  0  0  0  0  0  0  0
  -27.3298   -6.5040   21.3428 C   0  0  0  0  0  0  0  0  0  0  0  0
  -25.0779   -7.3341   21.0655 C   0  0  0  0  0  0  0  0  0  0  0  0
  -22.0965  -13.0598   21.5586 C   0  0  0  0  0  0  0  0  0  0  0  0
  -21.1013  -14.4161   22.9746 C   0  0  0  0  0  0  0  0  0  0  0  0
  -28.5928  -22.1594   20.2152 C   0  0  0  0  0  0  0  0  0  0  0  0
  -21.5277  -12.1285   23.8875 C   0  0  0  0  0  0  0  0  0  0  0  0
  -23.0080  -29.4537   22.4848 C   0  0  0  0  0  0  0  0  0  0  0  0
  -29.8695  -24.9930   19.1559 C   0  0  0  0  0  0  0  0  0  0  0  0
  -21.3457  -27.3652   20.6416 C   0  0  0  0  0  0  0  0  0  0  0  0
  -21.4059  -24.8932   18.2896 C   0  0  0  0  0  0  0  0  0  0  0  0
  -22.5026  -19.5362   20.2311 C   0  0  0  0  0  0  0  0  0  0  0  0
  -22.0181  -33.6858   25.1620 C   0  0  0  0  0  0  0  0  0  0  0  0
  -23.9521  -29.9388   20.1980 C   0  0  0  0  0  0  0  0  0  0  0  0
  -23.8447  -27.0352   20.7479 C   0  0  0  0  0  0  0  0  0  0  0  0
  -21.2145  -32.4726   24.7010 C   0  0  0  0  0  0  0  0  0  0  0  0
  -19.3010  -17.9815   20.3324 C   0  0  0  0  0  0  0  0  0  0  0  0
  -21.9579  -31.1825   25.0325 C   0  0  0  0  0  0  0  0  0  0  0  0
  -19.6066  -16.5513   20.7831 C   0  0  0  0  0  0  0  0  0  0  0  0
  -20.3861  -18.5285   19.4065 C   0  0  0  0  0  0  0  0  0  0  0  0
  -22.0599  -17.0070   20.3825 C   0  0  0  0  0  0  0  0  0  0  0  0
  -23.3074  -31.1214   24.3069 C   0  0  1  0  0  0  0  0  0  0  0  0
  -22.8149  -29.3150   21.0012 C   0  0  1  0  0  0  0  0  0  0  0  0
  -21.0277  -16.4364   21.3687 C   0  0  2  0  0  0  0  0  0  0  0  0
  -30.2285  -23.4871   17.1771 C   0  0  0  0  0  0  0  0  0  0  0  0
  -19.8920  -23.3543   17.0100 C   0  0  0  0  0  0  0  0  0  0  0  0
  -21.0116  -25.6296   23.1288 C   0  0  0  0  0  0  0  0  0  0  0  0
  -20.3595  -23.7318   21.6317 C   0  0  0  0  0  0  0  0  0  0  0  0
  -18.9697  -25.8024   21.6953 C   0  0  0  0  0  0  0  0  0  0  0  0
  -22.2532  -26.0309   15.6922 C   0  0  0  0  0  0  0  0  0  0  0  0
  -28.5819  -25.4798   19.7961 C   0  0  0  0  0  0  0  0  0  1  0  0
  -29.9546  -23.5453   18.6723 C   0  0  2  0  0  0  0  0  0  0  0  0
  -21.2313  -25.8618   20.5668 C   0  0  1  0  0  0  0  0  0  0  0  0
  -20.6066  -24.6967   17.0140 C   0  0  2  0  0  0  0  0  0  0  0  0
  -20.4180  -25.2696   21.7522 C   0  0  0  0  0  0  0  0  0  0  0  0
  -21.9639  -14.2065   20.8866 N   0  0  0  0  0  0  0  0  0  0  0  0
  -21.3553  -15.0115   21.7741 N   0  0  0  0  0  0  0  0  0  0  0  0
  -22.6443  -27.8872   20.7244 N   0  0  0  0  0  0  0  0  0  0  0  0
  -21.7045  -18.3903   20.0290 N   0  0  0  0  0  0  0  0  0  0  0  0
  -20.4951  -15.0826   23.9799 N   0  0  0  0  0  0  0  0  0  0  0  0
  -22.0612  -10.8630   23.6078 N   0  0  0  0  0  0  0  0  0  0  0  0
  -23.7214  -19.2861   20.8608 N   0  0  0  0  0  0  0  0  0  0  0  0
  -28.7667  -22.8002   18.9949 N   0  0  0  0  0  0  0  0  0  0  0  0
  -23.1186  -30.7612   22.9180 N   0  0  0  0  0  0  0  0  0  0  0  0
  -20.6768  -25.5596   19.2516 N   0  0  0  0  0  0  0  0  0  0  0  0
  -21.5044  -24.7548   15.8260 N   0  3  0  0  0  0  0  0  0  0  0  0
  -29.4144  -22.1598   21.1281 O   0  0  0  0  0  0  0  0  0  0  0  0
  -21.0109  -12.3423   25.0103 O   0  0  0  0  0  0  0  0  0  0  0  0
  -23.0518  -28.4489   23.1849 O   0  0  0  0  0  0  0  0  0  0  0  0
  -30.8526  -25.7343   19.0719 O   0  0  0  0  0  0  0  0  0  0  0  0
  -20.3209  -28.0515   20.6200 O   0  0  0  0  0  0  0  0  0  0  0  0
  -22.5602  -24.4920   18.4208 O   0  0  0  0  0  0  0  0  0  0  0  0
  -22.1204  -20.6604   19.8966 O   0  0  0  0  0  0  0  0  0  0  0  0
  -24.5139   -8.6438   19.1251 O   0  0  0  0  0  0  0  0  0  0  0  0
  -28.7005  -26.8495   20.1786 O   0  0  0  0  0  0  0  0  0  1  0  0
  -28.2334   -5.8161   22.0531 F   0  0  0  0  0  0  0  0  0  0  0  0
  -23.8199   -7.4400   21.5150 F   0  0  0  0  0  0  0  0  0  0  0  0
  1  2  1  0  0  0  0
  1  7  2  0  0  0  0
  2  8  2  0  0  0  0
  3 12  2  0  0  0  0
  3 19  1  0  0  0  0
  4 13  1  0  0  0  0
  4 19  2  0  0  0  0
  5 10  2  0  0  0  0
  5 20  1  0  0  0  0
  6 11  1  0  0  0  0
  6 20  2  0  0  0  0
  7 22  1  0  0  0  0
  8 24  1  0  0  0  0
  9 14  2  0  0  0  0
  9 23  1  0  0  0  0
 10 26  1  0  0  0  0
 11 26  2  0  0  0  0
 12 27  1  0  0  0  0
 13 27  2  0  0  0  0
 14 28  1  0  0  0  0
 15 16  2  0  0  0  0
 15 29  1  0  0  0  0
 16 30  1  0  0  0  0
 17 25  1  0  0  0  0
 17 28  2  0  0  0  0
 18 30  2  0  0  0  0
 18 31  1  0  0  0  0
 19 32  1  0  0  0  0
 20 34  1  0  0  0  0
 21 32  1  0  0  0  0
 21 33  2  0  0  0  0
 21 35  1  0  0  0  0
 22 24  2  0  0  0  0
 22 41  1  0  0  0  0
 23 25  2  0  0  0  0
 23 42  1  0  0  0  0
 24 50  1  0  0  0  0
 25 43  1  0  0  0  0
 26 70  1  0  0  0  0
 27 82  1  0  0  0  0
 28 83  1  0  0  0  0
 29 31  2  0  0  0  0
 29 82  1  0  0  0  0
 30 84  1  0  0  0  0
 31 85  1  0  0  0  0
 32 64  2  0  0  0  0
 33 65  1  0  0  0  0
 33 68  1  0  0  0  0
 34 71  1  0  0  0  0
 34 75  2  0  0  0  0
 35 69  1  0  0  0  0
 35 76  2  0  0  0  0
 36 51  1  0  0  0  0
 36 72  1  0  0  0  0
 36 77  2  0  0  0  0
 37 59  1  0  0  0  0
 37 60  1  0  0  0  0
 37 78  2  0  0  0  0
 38 61  1  0  0  0  0
 38 66  1  0  0  0  0
 38 79  2  0  0  0  0
 39 62  1  0  0  0  0
 39 73  1  0  0  0  0
 39 80  2  0  0  0  0
 40 67  1  0  0  0  0
 40 70  1  0  0  0  0
 40 81  2  0  0  0  0
 41 44  1  0  0  0  0
 42 51  1  0  0  0  0
 43 66  1  0  0  0  0
 44 46  1  0  0  0  0
 45 47  1  0  0  0  0
 45 48  1  0  0  0  0
 46 50  1  0  0  0  0
 47 52  1  0  0  0  0
 48 67  1  0  0  0  0
 49 52  1  0  0  0  0
 49 67  1  0  0  0  0
 50 72  1  0  0  0  0
 51 66  1  0  0  0  0
 52 65  1  0  0  0  0
 53 60  1  0  0  0  0
 54 62  1  0  0  0  0
 55 63  1  0  0  0  0
 56 63  1  0  0  0  0
 57 63  1  0  0  0  0
 58 74  1  0  0  0  0
 59 83  1  0  0  0  0
 60 71  1  0  0  0  0
 61 63  1  0  0  0  0
 61 73  1  0  0  0  0
 62 74  1  0  0  0  0
 64 65  1  0  0  0  0
M  CHG  1  74   1
M  ISO  4  40 100  59 101  70 100  83 101
M  END
> <Batch ID>
0090

> <Smiles>
CNC(C)C(=O)NC(C(=O)N1Cc2cc([101O:1][101CH2:1]C(=O)C(C)NC(=O)c3ccc([100NH:0][100C:0](=O)N4CCCC(n5nc(-c6ccc(Oc7ccc(F)cc7F)cc6)c(C(N)=O)c5N)C4)cc3)ccc2CC1C(=O)NC1CCCc2ccccc21)C(C)(C)C

> <Shape>
0.223

> <Color>
0.076

> <Negative vol penalty>
0.000

$$$$

  -OEChem-04052300293D

 82 90  0     1  0  0  0  0  0999 V2000
  -30.2366  -31.7648   26.1926 C   0  0  0  0  0  0  0  0  0  0  0  0
  -30.5335  -30.7237   25.3188 C   0  0  0  0  0  0  0  0  0  0  0  0
  -23.3286   -9.9680   22.1274 C   0  0  0  0  0  0  0  0  0  0  0  0
  -24.0995  -11.3699   23.9378 C   0  0  0  0  0  0  0  0  0  0  0  0
  -28.9388  -31.9165   26.6789 C   0  0  0  0  0  0  0  0  0  0  0  0
  -29.5328  -29.8330   24.9317 C   0  0  0  0  0  0  0  0  0  0  0  0
  -28.9326  -27.1141   19.4771 C   0  0  0  0  0  0  0  0  0  0  0  0
  -32.3499  -18.7045   20.0155 C   0  0  0  0  0  0  0  0  0  0  0  0
  -31.8194  -17.4270   19.8361 C   0  0  0  0  0  0  0  0  0  0  0  0
  -22.6718   -9.1464   23.0433 C   0  0  0  0  0  0  0  0  0  0  0  0
  -23.4426  -10.5482   24.8538 C   0  0  0  0  0  0  0  0  0  0  0  0
  -29.2824  -25.8449   19.0181 C   0  0  0  0  0  0  0  0  0  0  0  0
  -20.2843  -10.0842   25.9631 C   0  0  0  0  0  0  0  0  0  0  0  0
  -19.5391  -10.7019   26.9674 C   0  0  0  0  0  0  0  0  0  0  0  0
  -27.0354  -25.0780   19.4443 C   0  0  0  0  0  0  0  0  0  0  0  0
  -20.9219   -9.6453   28.6433 C   0  0  0  0  0  0  0  0  0  0  0  0
  -24.0426  -11.0798   22.5747 C   0  0  0  0  0  0  0  0  0  0  0  0
  -24.1999  -13.0607   20.9750 C   0  0  0  0  0  0  0  0  0  0  0  0
  -27.9196  -31.0330   26.2901 C   0  0  0  0  0  0  0  0  0  0  0  0
  -27.6322  -27.3722   19.9341 C   0  0  0  0  0  0  0  0  0  0  0  0
  -28.2204  -29.9723   25.4144 C   0  0  0  0  0  0  0  0  0  0  0  0
  -26.6708  -26.3519   19.9062 C   0  0  0  0  0  0  0  0  0  0  0  0
  -30.1160  -19.6212   20.0940 C   0  0  0  0  0  0  0  0  0  0  0  0
  -31.4982  -19.8016   20.1445 C   0  0  0  0  0  0  0  0  0  0  0  0
  -30.4372  -17.2466   19.7856 C   0  0  0  0  0  0  0  0  0  0  0  0
  -22.7287   -9.4365   24.4065 C   0  0  0  0  0  0  0  0  0  0  0  0
  -28.3346  -24.8259   19.0044 C   0  0  0  0  0  0  0  0  0  0  0  0
  -21.3483   -9.2470   26.2988 C   0  0  0  0  0  0  0  0  0  0  0  0
  -19.8579  -10.4825   28.3075 C   0  0  0  0  0  0  0  0  0  0  0  0
  -21.6671   -9.0276   27.6389 C   0  0  0  0  0  0  0  0  0  0  0  0
  -29.5854  -18.3437   19.9145 C   0  0  0  0  0  0  0  0  0  0  0  0
  -24.7218  -11.9287   21.6291 C   0  0  0  0  0  0  0  0  0  0  0  0
  -25.2327  -13.5096   20.1887 C   0  0  0  0  0  0  0  0  0  0  0  0
  -28.9147  -21.3043   19.1194 C   0  0  0  0  0  0  0  0  0  0  0  0
  -22.8978  -13.6535   21.0698 C   0  0  0  0  0  0  0  0  0  0  0  0
  -26.3667  -28.2723   22.7076 C   0  0  0  0  0  0  0  0  0  0  0  0
  -23.6330  -28.4192   20.9676 C   0  0  0  0  0  0  0  0  0  0  0  0
  -21.8805  -27.3750   18.2317 C   0  0  0  0  0  0  0  0  0  0  0  0
  -30.6097  -14.7552   19.4544 C   0  0  0  0  0  0  0  0  0  0  0  0
  -26.5424  -31.2089   26.8793 C   0  0  0  0  0  0  0  0  0  0  0  0
  -27.2635  -28.7537   20.4011 C   0  0  0  0  0  0  0  0  0  0  0  0
  -25.2557  -26.5829   20.3671 C   0  0  0  0  0  0  0  0  0  0  0  0
  -25.4557  -30.4458   26.1263 C   0  0  0  0  0  0  0  0  0  0  0  0
  -29.6592  -11.3519   19.0173 C   0  0  0  0  0  0  0  0  0  0  0  0
  -25.9071  -29.0170   25.8407 C   0  0  0  0  0  0  0  0  0  0  0  0
  -28.2470  -11.2917   19.6040 C   0  0  0  0  0  0  0  0  0  0  0  0
  -30.5624  -12.2961   19.8088 C   0  0  0  0  0  0  0  0  0  0  0  0
  -28.6161  -13.5903   20.5875 C   0  0  0  0  0  0  0  0  0  0  0  0
  -27.1566  -29.0005   24.9519 C   0  0  1  0  0  0  0  0  0  0  0  0
  -26.0497  -28.7680   21.3251 C   0  0  1  0  0  0  0  0  0  0  0  0
  -27.6515  -12.7017   19.7853 C   0  0  2  0  0  0  0  0  0  0  0  0
  -19.6578  -27.6395   17.0973 C   0  0  0  0  0  0  0  0  0  0  0  0
  -22.3527  -26.6027   23.0583 C   0  0  0  0  0  0  0  0  0  0  0  0
  -20.5101  -26.1409   21.4273 C   0  0  0  0  0  0  0  0  0  0  0  0
  -20.8875  -28.4635   22.2553 C   0  0  0  0  0  0  0  0  0  0  0  0
  -23.1294  -28.4799   15.7865 C   0  0  0  0  0  0  0  0  0  0  0  0
  -27.9809  -22.4775   19.1299 C   0  0  0  0  0  0  0  0  0  1  0  0
  -22.5304  -27.4467   20.6248 C   0  0  1  0  0  0  0  0  0  0  0  0
  -21.0897  -28.1436   17.1885 C   0  0  2  0  0  0  0  0  0  0  0  0
  -21.5973  -27.1582   21.8345 C   0  0  0  0  0  0  0  0  0  0  0  0
  -25.9878  -11.6740   21.2879 N   0  0  0  0  0  0  0  0  0  0  0  0
  -29.2420  -20.7140   20.2221 N   0  0  0  0  0  0  0  0  0  0  0  0
  -26.2700  -12.6524   20.4107 N   0  0  0  0  0  0  0  0  0  0  0  0
  -24.9457  -27.9489   20.8206 N   0  0  0  0  0  0  0  0  0  0  0  0
  -29.9353  -13.6135   19.9365 N   0  0  0  0  0  0  0  0  0  0  0  0
  -32.0543  -21.0874   20.3258 N   0  0  0  0  0  0  0  0  0  0  0  0
  -25.3456  -14.5500   19.3360 N   0  0  0  0  0  0  0  0  0  0  0  0
  -21.9564  -13.0651   21.9252 N   0  0  0  0  0  0  0  0  0  0  0  0
  -29.9018  -15.9477   19.6010 N   0  0  0  0  0  0  0  0  0  0  0  0
  -26.7996  -29.2585   23.5733 N   0  0  0  0  0  0  0  0  0  0  0  0
  -21.8462  -27.9992   19.4607 N   0  0  0  0  0  0  0  0  0  0  0  0
  -21.7246  -28.0004   15.8478 N   0  3  0  0  0  0  0  0  0  0  0  0
  -22.5734  -14.6652   20.4028 O   0  0  0  0  0  0  0  0  0  0  0  0
  -26.2275  -27.0834   22.9700 O   0  0  0  0  0  0  0  0  0  0  0  0
  -23.3405  -29.5566   21.3449 O   0  0  0  0  0  0  0  0  0  0  0  0
  -22.4668  -26.3240   17.9822 O   0  0  0  0  0  0  0  0  0  0  0  0
  -31.7208  -14.6770   18.9241 O   0  0  0  0  0  0  0  0  0  0  0  0
  -22.0876   -8.6350   25.3005 O   0  0  0  0  0  0  0  0  0  0  0  0
  -28.6736  -23.5860   18.5575 O   0  0  0  0  0  0  0  0  0  1  0  0
  -19.1432  -11.0770   29.2718 F   0  0  0  0  0  0  0  0  0  0  0  0
  -22.6889   -8.2252   27.9676 F   0  0  0  0  0  0  0  0  0  0  0  0
  -28.2554  -18.1715   19.8651 F   0  0  0  0  0  0  0  0  0  0  0  0
  1  2  1  0  0  0  0
  1  5  2  0  0  0  0
  2  6  2  0  0  0  0
  3 10  2  0  0  0  0
  3 17  1  0  0  0  0
  4 11  1  0  0  0  0
  4 17  2  0  0  0  0
  5 19  1  0  0  0  0
  6 21  1  0  0  0  0
  7 12  2  0  0  0  0
  7 20  1  0  0  0  0
  8  9  1  0  0  0  0
  8 24  2  0  0  0  0
  9 25  2  0  0  0  0
 10 26  1  0  0  0  0
 11 26  2  0  0  0  0
 12 27  1  0  0  0  0
 13 14  2  0  0  0  0
 13 28  1  0  0  0  0
 14 29  1  0  0  0  0
 15 22  1  0  0  0  0
 15 27  2  0  0  0  0
 16 29  2  0  0  0  0
 16 30  1  0  0  0  0
 17 32  1  0  0  0  0
 18 32  1  0  0  0  0
 18 33  2  0  0  0  0
 18 35  1  0  0  0  0
 19 21  2  0  0  0  0
 19 40  1  0  0  0  0
 20 22  2  0  0  0  0
 20 41  1  0  0  0  0
 21 49  1  0  0  0  0
 22 42  1  0  0  0  0
 23 24  1  0  0  0  0
 23 31  2  0  0  0  0
 23 62  1  0  0  0  0
 24 66  1  0  0  0  0
 25 31  1  0  0  0  0
 25 69  1  0  0  0  0
 26 78  1  0  0  0  0
 27 79  1  0  0  0  0
 28 30  2  0  0  0  0
 28 78  1  0  0  0  0
 29 80  1  0  0  0  0
 30 81  1  0  0  0  0
 31 82  1  0  0  0  0
 32 61  2  0  0  0  0
 33 63  1  0  0  0  0
 33 67  1  0  0  0  0
 34 57  1  0  0  0  0
 34 62  2  0  0  0  0
 35 68  1  0  0  0  0
 35 73  2  0  0  0  0
 36 50  1  0  0  0  0
 36 70  1  0  0  0  0
 36 74  2  0  0  0  0
 37 58  1  0  0  0  0
 37 64  1  0  0  0  0
 37 75  2  0  0  0  0
 38 59  1  0  0  0  0
 38 71  1  0  0  0  0
 38 76  2  0  0  0  0
 39 65  1  0  0  0  0
 39 69  1  0  0  0  0
 39 77  2  0  0  0  0
 40 43  1  0  0  0  0
 41 50  1  0  0  0  0
 42 64  1  0  0  0  0
 43 45  1  0  0  0  0
 44 46  1  0  0  0  0
 44 47  1  0  0  0  0
 45 49  1  0  0  0  0
 46 51  1  0  0  0  0
 47 65  1  0  0  0  0
 48 51  1  0  0  0  0
 48 65  1  0  0  0  0
 49 70  1  0  0  0  0
 50 64  1  0  0  0  0
 51 63  1  0  0  0  0
 52 59  1  0  0  0  0
 53 60  1  0  0  0  0
 54 60  1  0  0  0  0
 55 60  1  0  0  0  0
 56 72  1  0  0  0  0
 57 79  1  0  0  0  0
 58 60  1  0  0  0  0
 58 71  1  0  0  0  0
 59 72  1  0  0  0  0
 61 63  1  0  0  0  0
M  CHG  1  72   1
M  ISO  4  39 100  57 101  69 100  79 101
M  END
> <Batch ID>
0090

> <Smiles>
CNC(C)C(=O)NC(C(=O)N1Cc2cc([101O:1][101CH:1]=CNc3c(N)ccc([100NH:0][100C:0](=O)N4CCCC(n5nc(-c6ccc(Oc7ccc(F)cc7F)cc6)c(C(N)=O)c5N)C4)c3F)ccc2CC1C(=O)NC1CCCc2ccccc21)C(C)(C)C

> <Shape>
0.260

> <Color>
0.139

> <Negative vol penalty>
0.000

$$$$

  -OEChem-04052300293D

 83 91  0     1  0  0  0  0  0999 V2000
  -16.6220  -28.0476   23.6655 C   0  0  0  0  0  0  0  0  0  0  0  0
  -17.5553  -27.5543   22.7594 C   0  0  0  0  0  0  0  0  0  0  0  0
  -23.8142  -13.3473   24.6198 C   0  0  0  0  0  0  0  0  0  0  0  0
  -23.1004  -15.4664   23.7050 C   0  0  0  0  0  0  0  0  0  0  0  0
  -30.6184  -21.2318   19.4987 C   0  0  0  0  0  0  0  0  0  0  0  0
  -16.9471  -29.1330   24.4779 C   0  0  0  0  0  0  0  0  0  0  0  0
  -18.8140  -28.1469   22.6645 C   0  0  0  0  0  0  0  0  0  0  0  0
  -24.1253  -25.3389   21.4767 C   0  0  0  0  0  0  0  0  0  0  0  0
  -30.4590  -19.8556   19.6605 C   0  0  0  0  0  0  0  0  0  0  0  0
  -23.0729  -13.5962   25.7748 C   0  0  0  0  0  0  0  0  0  0  0  0
  -22.3589  -15.7153   24.8600 C   0  0  0  0  0  0  0  0  0  0  0  0
  -24.8672  -25.1919   20.3055 C   0  0  0  0  0  0  0  0  0  0  0  0
  -19.8366  -13.4337   26.7407 C   0  0  0  0  0  0  0  0  0  0  0  0
  -19.0552  -12.3946   27.2459 C   0  0  0  0  0  0  0  0  0  0  0  0
  -28.2515  -21.4556   19.0692 C   0  0  0  0  0  0  0  0  0  0  0  0
  -26.2191  -27.0894   20.9310 C   0  0  0  0  0  0  0  0  0  0  0  0
  -20.2946  -12.4702   29.3184 C   0  0  0  0  0  0  0  0  0  0  0  0
  -23.8280  -14.2825   23.5849 C   0  0  0  0  0  0  0  0  0  0  0  0
  -29.5147  -22.0318   19.2031 C   0  0  0  0  0  0  0  0  0  0  0  0
  -24.1556  -13.3744   21.2236 C   0  0  0  0  0  0  0  0  0  0  0  0
  -18.2137  -29.7332   24.3997 C   0  0  0  0  0  0  0  0  0  0  0  0
  -24.4182  -26.3706   22.3801 C   0  0  0  0  0  0  0  0  0  0  0  0
  -19.1558  -29.2423   23.4756 C   0  0  0  0  0  0  0  0  0  0  0  0
  -25.4810  -27.2457   22.1141 C   0  0  0  0  0  0  0  0  0  0  0  0
  -29.1958  -19.2794   19.5266 C   0  0  0  0  0  0  0  0  0  0  0  0
  -22.3452  -14.7801   25.8949 C   0  0  0  0  0  0  0  0  0  0  0  0
  -25.9124  -26.0690   20.0310 C   0  0  0  0  0  0  0  0  0  0  0  0
  -20.8471  -13.9911   27.5244 C   0  0  0  0  0  0  0  0  0  0  0  0
  -19.2842  -11.9129   28.5347 C   0  0  0  0  0  0  0  0  0  0  0  0
  -28.0920  -20.0794   19.2310 C   0  0  0  0  0  0  0  0  0  0  0  0
  -21.0760  -13.5093   28.8132 C   0  0  0  0  0  0  0  0  0  0  0  0
  -24.5941  -14.0262   22.3918 C   0  0  0  0  0  0  0  0  0  0  0  0
  -25.2495  -13.3853   20.3931 C   0  0  0  0  0  0  0  0  0  0  0  0
  -29.6847  -23.4976   19.0306 C   0  0  0  0  0  0  0  0  0  0  0  0
  -22.8740  -12.8096   20.9166 C   0  0  0  0  0  0  0  0  0  0  0  0
  -22.8337  -28.8880   23.5007 C   0  0  0  0  0  0  0  0  0  0  0  0
  -25.4402  -29.1894   25.4079 C   0  0  0  0  0  0  0  0  0  0  0  0
  -28.7543  -28.5462   25.9078 C   0  0  0  0  0  0  0  0  0  0  0  0
  -30.0300  -16.9470   19.9856 C   0  0  0  0  0  0  0  0  0  0  0  0
  -18.5026  -30.9342   25.2650 C   0  0  0  0  0  0  0  0  0  0  0  0
  -23.6256  -26.4993   23.6519 C   0  0  0  0  0  0  0  0  0  0  0  0
  -25.8489  -28.3574   23.0614 C   0  0  0  0  0  0  0  0  0  0  0  0
  -19.9887  -31.2681   25.3670 C   0  0  0  0  0  0  0  0  0  0  0  0
  -30.0370  -13.4248   20.5064 C   0  0  0  0  0  0  0  0  0  0  0  0
  -20.6384  -31.2388   23.9872 C   0  0  0  0  0  0  0  0  0  0  0  0
  -28.6005  -13.1192   20.9368 C   0  0  0  0  0  0  0  0  0  0  0  0
  -30.5231  -14.7623   21.0620 C   0  0  0  0  0  0  0  0  0  0  0  0
  -28.2115  -15.6014   21.2094 C   0  0  0  0  0  0  0  0  0  0  0  0
  -20.5402  -29.8426   23.3607 C   0  0  1  0  0  0  0  0  0  0  0  0
  -23.6817  -27.9008   24.2518 C   0  0  1  0  0  0  0  0  0  0  0  0
  -27.6552  -14.2947   20.6205 C   0  0  2  0  0  0  0  0  0  0  0  0
  -30.6152  -28.9524   27.5417 C   0  0  0  0  0  0  0  0  0  0  0  0
  -25.6706  -32.0691   24.4260 C   0  0  0  0  0  0  0  0  0  0  0  0
  -28.0111  -32.1111   25.3141 C   0  0  0  0  0  0  0  0  0  0  0  0
  -26.0939  -31.7639   26.8718 C   0  0  0  0  0  0  0  0  0  0  0  0
  -29.1314  -25.6484   26.3762 C   0  0  0  0  0  0  0  0  0  0  0  0
  -28.8052  -25.5368   17.9241 C   0  0  0  0  0  0  0  0  0  0  0  0
  -28.0028  -26.3422   18.9303 C   0  0  0  0  0  0  0  0  0  1  0  0
  -26.7671  -29.9013   25.3003 C   0  0  1  0  0  0  0  0  0  0  0  0
  -29.5052  -28.0060   27.1115 C   0  0  2  0  0  0  0  0  0  0  0  0
  -26.6277  -31.4417   25.4591 C   0  0  0  0  0  0  0  0  0  0  0  0
  -25.8674  -14.4223   22.3142 N   0  0  0  0  0  0  0  0  0  0  0  0
  -26.2383  -14.0181   21.0874 N   0  0  0  0  0  0  0  0  0  0  0  0
  -25.0403  -28.4459   24.2885 N   0  0  0  0  0  0  0  0  0  0  0  0
  -29.5802  -15.8293   20.7199 N   0  0  0  0  0  0  0  0  0  0  0  0
  -25.4525  -12.9153   19.1440 N   0  0  0  0  0  0  0  0  0  0  0  0
  -21.8618  -12.8850   21.8831 N   0  0  0  0  0  0  0  0  0  0  0  0
  -29.0373  -17.8809   19.6910 N   0  0  0  0  0  0  0  0  0  0  0  0
  -28.7585  -24.1270   18.2083 N   0  0  0  0  0  0  0  0  0  0  0  0
  -21.5262  -28.9571   23.9424 N   0  0  0  0  0  0  0  0  0  0  0  0
  -27.6464  -29.2765   26.2826 N   0  0  0  0  0  0  0  0  0  0  0  0
  -30.1128  -26.6833   26.7921 N   0  3  0  0  0  0  0  0  0  0  0  0
  -30.6205  -24.0630   19.5901 O   0  0  0  0  0  0  0  0  0  0  0  0
  -22.6385  -12.2400   19.8241 O   0  0  0  0  0  0  0  0  0  0  0  0
  -23.3293  -29.5398   22.5890 O   0  0  0  0  0  0  0  0  0  0  0  0
  -24.7862  -29.2834   26.4496 O   0  0  0  0  0  0  0  0  0  0  0  0
  -29.1166  -28.3439   24.7510 O   0  0  0  0  0  0  0  0  0  0  0  0
  -31.2035  -17.0537   19.6200 O   0  0  0  0  0  0  0  0  0  0  0  0
  -21.6215  -15.0232   27.0217 O   0  0  0  0  0  0  0  0  0  0  0  0
  -26.6378  -25.9282   18.8883 O   0  0  0  0  0  0  0  0  0  1  0  0
  -18.5327  -10.9160   29.0203 F   0  0  0  0  0  0  0  0  0  0  0  0
  -26.8730  -19.5365   19.0994 F   0  0  0  0  0  0  0  0  0  0  0  0
  -22.0445  -14.0415   29.5712 F   0  0  0  0  0  0  0  0  0  0  0  0
  1  2  1  0  0  0  0
  1  6  2  0  0  0  0
  2  7  2  0  0  0  0
  3 10  2  0  0  0  0
  3 18  1  0  0  0  0
  4 11  1  0  0  0  0
  4 18  2  0  0  0  0
  5  9  2  0  0  0  0
  5 19  1  0  0  0  0
  6 21  1  0  0  0  0
  7 23  1  0  0  0  0
  8 12  2  0  0  0  0
  8 22  1  0  0  0  0
  9 25  1  0  0  0  0
 10 26  1  0  0  0  0
 11 26  2  0  0  0  0
 12 27  1  0  0  0  0
 13 14  2  0  0  0  0
 13 28  1  0  0  0  0
 14 29  1  0  0  0  0
 15 19  2  0  0  0  0
 15 30  1  0  0  0  0
 16 24  1  0  0  0  0
 16 27  2  0  0  0  0
 17 29  2  0  0  0  0
 17 31  1  0  0  0  0
 18 32  1  0  0  0  0
 19 34  1  0  0  0  0
 20 32  1  0  0  0  0
 20 33  2  0  0  0  0
 20 35  1  0  0  0  0
 21 23  2  0  0  0  0
 21 40  1  0  0  0  0
 22 24  2  0  0  0  0
 22 41  1  0  0  0  0
 23 49  1  0  0  0  0
 24 42  1  0  0  0  0
 25 30  2  0  0  0  0
 25 68  1  0  0  0  0
 26 79  1  0  0  0  0
 27 80  1  0  0  0  0
 28 31  2  0  0  0  0
 28 79  1  0  0  0  0
 29 81  1  0  0  0  0
 30 82  1  0  0  0  0
 31 83  1  0  0  0  0
 32 62  2  0  0  0  0
 33 63  1  0  0  0  0
 33 66  1  0  0  0  0
 34 69  1  0  0  0  0
 34 73  2  0  0  0  0
 35 67  1  0  0  0  0
 35 74  2  0  0  0  0
 36 50  1  0  0  0  0
 36 70  1  0  0  0  0
 36 75  2  0  0  0  0
 37 59  1  0  0  0  0
 37 64  1  0  0  0  0
 37 76  2  0  0  0  0
 38 60  1  0  0  0  0
 38 71  1  0  0  0  0
 38 77  2  0  0  0  0
 39 65  1  0  0  0  0
 39 68  1  0  0  0  0
 39 78  2  0  0  0  0
 40 43  1  0  0  0  0
 41 50  1  0  0  0  0
 42 64  1  0  0  0  0
 43 45  1  0  0  0  0
 44 46  1  0  0  0  0
 44 47  1  0  0  0  0
 45 49  1  0  0  0  0
 46 51  1  0  0  0  0
 47 65  1  0  0  0  0
 48 51  1  0  0  0  0
 48 65  1  0  0  0  0
 49 70  1  0  0  0  0
 50 64  1  0  0  0  0
 51 63  1  0  0  0  0
 52 60  1  0  0  0  0
 53 61  1  0  0  0  0
 54 61  1  0  0  0  0
 55 61  1  0  0  0  0
 56 72  1  0  0  0  0
 57 58  1  0  0  0  0
 57 69  1  0  0  0  0
 58 80  1  0  0  0  0
 59 61  1  0  0  0  0
 59 71  1  0  0  0  0
 60 72  1  0  0  0  0
 62 63  1  0  0  0  0
M  CHG  1  72   1
M  ISO  4  39 100  58 101  68 100  80 101
M  END
> <Batch ID>
0090

> <Smiles>
CNC(C)C(=O)NC(C(=O)N1Cc2cc([101O:1][101CH2:1]CNC(=O)c3ccc([100NH:0][100C:0](=O)N4CCCC(n5nc(-c6ccc(Oc7ccc(F)cc7F)cc6)c(C(N)=O)c5N)C4)c(F)c3)ccc2CC1C(=O)NC1CCCc2ccccc21)C(C)(C)C

> <Shape>
0.250

> <Color>
0.066

> <Negative vol penalty>
0.000

$$$$

  -OEChem-04052300293D

 88 97  0     1  0  0  0  0  0999 V2000
  -26.5897  -38.6166   26.2021 C   0  0  0  0  0  0  0  0  0  0  0  0
  -26.4321  -37.4097   26.8759 C   0  0  0  0  0  0  0  0  0  0  0  0
  -24.1444  -10.4505   23.7187 C   0  0  0  0  0  0  0  0  0  0  0  0
  -24.6777   -9.0826   21.8000 C   0  0  0  0  0  0  0  0  0  0  0  0
  -26.0737  -38.7680   24.9157 C   0  0  0  0  0  0  0  0  0  0  0  0
  -25.7574  -36.3538   26.2641 C   0  0  0  0  0  0  0  0  0  0  0  0
  -28.9872  -30.0011   25.2141 C   0  0  0  0  0  0  0  0  0  0  0  0
  -23.7853   -9.3078   24.4335 C   0  0  0  0  0  0  0  0  0  0  0  0
  -24.3187   -7.9399   22.5148 C   0  0  0  0  0  0  0  0  0  0  0  0
  -29.4659  -28.6915   25.1682 C   0  0  0  0  0  0  0  0  0  0  0  0
  -21.4699   -6.3569   23.4146 C   0  0  0  0  0  0  0  0  0  0  0  0
  -20.6728   -5.4121   22.7684 C   0  0  0  0  0  0  0  0  0  0  0  0
  -27.4449  -27.9808   24.0464 C   0  0  0  0  0  0  0  0  0  0  0  0
  -28.4589  -20.3961   21.8040 C   0  0  0  0  0  0  0  0  0  0  0  0
  -30.5066  -18.7469   20.8717 C   0  0  0  0  0  0  0  0  0  0  0  0
  -22.4008   -3.7501   23.0670 C   0  0  0  0  0  0  0  0  0  0  0  0
  -24.5906  -10.3379   22.4019 C   0  0  0  0  0  0  0  0  0  0  0  0
  -24.1416  -12.6204   21.3548 C   0  0  0  0  0  0  0  0  0  0  0  0
  -25.4007  -37.7102   24.2841 C   0  0  0  0  0  0  0  0  0  0  0  0
  -27.7407  -30.3087   24.6619 C   0  0  0  0  0  0  0  0  0  0  0  0
  -25.2307  -36.4917   24.9686 C   0  0  0  0  0  0  0  0  0  0  0  0
  -26.9656  -29.2931   24.0783 C   0  0  0  0  0  0  0  0  0  0  0  0
  -29.7764  -20.8539   21.8013 C   0  0  0  0  0  0  0  0  0  0  0  0
  -28.1651  -19.1137   21.3407 C   0  0  0  0  0  0  0  0  0  0  0  0
  -29.1890  -18.2891   20.8745 C   0  0  0  0  0  0  0  0  0  0  0  0
  -23.8725   -8.0525   23.8316 C   0  0  0  0  0  0  0  0  0  0  0  0
  -28.6965  -27.6839   24.5860 C   0  0  0  0  0  0  0  0  0  0  0  0
  -22.7325   -5.9983   23.8869 C   0  0  0  0  0  0  0  0  0  0  0  0
  -30.8003  -20.0293   21.3351 C   0  0  0  0  0  0  0  0  0  0  0  0
  -21.1382   -4.1087   22.5946 C   0  0  0  0  0  0  0  0  0  0  0  0
  -23.1979   -4.6949   23.7131 C   0  0  0  0  0  0  0  0  0  0  0  0
  -24.9611  -11.5179   21.6628 C   0  0  0  0  0  0  0  0  0  0  0  0
  -24.9574  -13.4668   20.6444 C   0  0  0  0  0  0  0  0  0  0  0  0
  -30.4226  -24.8077   23.2990 C   0  0  0  0  0  0  0  0  0  0  0  0
  -30.6635  -23.1447   21.4441 C   0  0  0  0  0  0  0  0  0  0  0  0
  -29.9060  -26.0348   23.4501 C   0  0  0  0  0  0  0  0  0  1  0  0
  -22.7660  -12.8581   21.6818 C   0  0  0  0  0  0  0  0  0  0  0  0
  -25.1765  -32.9470   23.9268 C   0  0  0  0  0  0  0  0  0  0  0  0
  -25.3042  -31.1186   21.4669 C   0  0  0  0  0  0  0  0  0  0  0  0
  -25.2279  -29.7905   18.3257 C   0  0  0  0  0  0  0  0  0  0  0  0
  -29.8325  -16.0537   19.9072 C   0  0  0  0  0  0  0  0  0  0  0  0
  -24.8190  -37.9368   22.9112 C   0  0  0  0  0  0  0  0  0  0  0  0
  -27.1586  -31.6937   24.7437 C   0  0  0  0  0  0  0  0  0  0  0  0
  -25.6157  -29.6639   23.5278 C   0  0  0  0  0  0  0  0  0  0  0  0
  -31.2239  -24.3923   22.1137 C   0  0  0  0  0  0  0  0  0  0  0  0
  -30.2380  -23.7110   24.2925 C   0  0  0  0  0  0  0  0  0  0  0  0
  -24.4441  -36.6458   22.1879 C   0  0  0  0  0  0  0  0  0  0  0  0
  -29.5617  -12.7234   18.6773 C   0  0  0  0  0  0  0  0  0  0  0  0
  -23.6729  -35.7164   23.1198 C   0  0  0  0  0  0  0  0  0  0  0  0
  -28.2732  -12.2036   19.3190 C   0  0  0  0  0  0  0  0  0  0  0  0
  -29.5185  -22.5597   23.6060 C   0  0  0  0  0  0  0  0  0  0  0  0
  -30.3380  -13.6373   19.6238 C   0  0  0  0  0  0  0  0  0  0  0  0
  -28.2737  -14.2284   20.8313 C   0  0  0  0  0  0  0  0  0  0  0  0
  -24.5266  -35.3149   24.3287 C   0  0  1  0  0  0  0  0  0  0  0  0
  -26.3199  -32.0697   23.5091 C   0  0  1  0  0  0  0  0  0  0  0  0
  -27.4248  -13.3555   19.8927 C   0  0  2  0  0  0  0  0  0  0  0  0
  -23.7244  -29.5295   16.3335 C   0  0  0  0  0  0  0  0  0  0  0  0
  -23.7488  -28.9410   22.9307 C   0  0  0  0  0  0  0  0  0  0  0  0
  -22.9711  -28.0992   20.7048 C   0  0  0  0  0  0  0  0  0  0  0  0
  -22.3589  -30.4000   21.4495 C   0  0  0  0  0  0  0  0  0  0  0  0
  -27.0879  -31.2909   16.5798 C   0  0  0  0  0  0  0  0  0  0  0  0
  -32.8710  -20.1995   22.4924 C   0  0  0  0  0  0  0  0  0  0  0  0
  -24.7410  -29.9147   20.7551 C   0  0  1  0  0  0  0  0  0  0  0  0
  -24.7998  -30.3787   16.9933 C   0  0  2  0  0  0  0  0  0  0  0  0
  -23.4827  -29.3410   21.4657 C   0  0  0  0  0  0  0  0  0  0  0  0
  -26.2022  -11.6491   21.1868 N   0  0  0  0  0  0  0  0  0  0  0  0
  -26.1686  -12.8439   20.5725 N   0  0  0  0  0  0  0  0  0  0  0  0
  -30.0659  -22.1865   22.2860 N   0  0  0  0  0  0  0  0  0  0  0  0
  -25.7039  -30.9375   22.7966 N   0  0  0  0  0  0  0  0  0  0  0  0
  -29.4718  -14.7070   20.1241 N   0  0  0  0  0  0  0  0  0  0  0  0
  -26.8237  -18.6696   21.3521 N   0  0  0  0  0  0  0  0  0  0  0  0
  -24.7495  -14.6755   20.0804 N   0  0  0  0  0  0  0  0  0  0  0  0
  -21.7811  -12.4204   20.7859 N   0  0  0  0  0  0  0  0  0  0  0  0
  -28.9159  -16.9825   20.3991 N   0  0  0  0  0  0  0  0  0  0  0  0
  -25.4824  -34.2942   23.9558 N   0  0  0  0  0  0  0  0  0  0  0  0
  -24.5116  -30.3271   19.3746 N   0  0  0  0  0  0  0  0  0  0  0  0
  -25.9642  -30.4653   16.0672 N   0  3  0  0  0  0  0  0  0  0  0  0
  -30.8203  -23.0242   20.2255 O   0  0  0  0  0  0  0  0  0  0  0  0
  -22.4212  -13.4560   22.7292 O   0  0  0  0  0  0  0  0  0  0  0  0
  -24.0951  -32.4401   24.2015 O   0  0  0  0  0  0  0  0  0  0  0  0
  -25.3836  -32.1930   20.8647 O   0  0  0  0  0  0  0  0  0  0  0  0
  -26.1070  -28.9375   18.4256 O   0  0  0  0  0  0  0  0  0  0  0  0
  -30.8640  -16.3602   19.3039 O   0  0  0  0  0  0  0  0  0  0  0  0
  -23.5224   -6.9373   24.5289 O   0  0  0  0  0  0  0  0  0  0  0  0
  -29.1718  -26.4084   24.5405 O   0  0  0  0  0  0  0  0  0  1  0  0
  -32.0942  -20.4576   21.3248 O   0  0  0  0  0  0  0  0  0  0  0  0
  -20.3720   -3.2011   21.9755 F   0  0  0  0  0  0  0  0  0  0  0  0
  -24.4095   -4.3443   24.1657 F   0  0  0  0  0  0  0  0  0  0  0  0
  1  2  1  0  0  0  0
  1  5  2  0  0  0  0
  2  6  2  0  0  0  0
  3  8  2  0  0  0  0
  3 17  1  0  0  0  0
  4  9  1  0  0  0  0
  4 17  2  0  0  0  0
  5 19  1  0  0  0  0
  6 21  1  0  0  0  0
  7 10  2  0  0  0  0
  7 20  1  0  0  0  0
  8 26  1  0  0  0  0
  9 26  2  0  0  0  0
 10 27  1  0  0  0  0
 11 12  2  0  0  0  0
 11 28  1  0  0  0  0
 12 30  1  0  0  0  0
 13 22  1  0  0  0  0
 13 27  2  0  0  0  0
 14 23  1  0  0  0  0
 14 24  2  0  0  0  0
 15 25  2  0  0  0  0
 15 29  1  0  0  0  0
 16 30  2  0  0  0  0
 16 31  1  0  0  0  0
 17 32  1  0  0  0  0
 18 32  1  0  0  0  0
 18 33  2  0  0  0  0
 18 37  1  0  0  0  0
 19 21  2  0  0  0  0
 19 42  1  0  0  0  0
 20 22  2  0  0  0  0
 20 43  1  0  0  0  0
 21 54  1  0  0  0  0
 22 44  1  0  0  0  0
 23 29  2  0  0  0  0
 23 68  1  0  0  0  0
 24 25  1  0  0  0  0
 24 71  1  0  0  0  0
 25 74  1  0  0  0  0
 26 84  1  0  0  0  0
 27 85  1  0  0  0  0
 28 31  2  0  0  0  0
 28 84  1  0  0  0  0
 29 86  1  0  0  0  0
 30 87  1  0  0  0  0
 31 88  1  0  0  0  0
 32 66  2  0  0  0  0
 33 67  1  0  0  0  0
 33 72  1  0  0  0  0
 34 36  2  0  0  0  0
 34 45  1  0  0  0  0
 34 46  1  0  0  0  0
 35 45  1  0  0  0  0
 35 68  1  0  0  0  0
 35 78  2  0  0  0  0
 36 85  1  0  0  0  0
 37 73  1  0  0  0  0
 37 79  2  0  0  0  0
 38 55  1  0  0  0  0
 38 75  1  0  0  0  0
 38 80  2  0  0  0  0
 39 63  1  0  0  0  0
 39 69  1  0  0  0  0
 39 81  2  0  0  0  0
 40 64  1  0  0  0  0
 40 76  1  0  0  0  0
 40 82  2  0  0  0  0
 41 70  1  0  0  0  0
 41 74  1  0  0  0  0
 41 83  2  0  0  0  0
 42 47  1  0  0  0  0
 43 55  1  0  0  0  0
 44 69  1  0  0  0  0
 46 51  1  0  0  0  0
 47 49  1  0  0  0  0
 48 50  1  0  0  0  0
 48 52  1  0  0  0  0
 49 54  1  0  0  0  0
 50 56  1  0  0  0  0
 51 68  1  0  0  0  0
 52 70  1  0  0  0  0
 53 56  1  0  0  0  0
 53 70  1  0  0  0  0
 54 75  1  0  0  0  0
 55 69  1  0  0  0  0
 56 67  1  0  0  0  0
 57 64  1  0  0  0  0
 58 65  1  0  0  0  0
 59 65  1  0  0  0  0
 60 65  1  0  0  0  0
 61 77  1  0  0  0  0
 62 86  1  0  0  0  0
 63 65  1  0  0  0  0
 63 76  1  0  0  0  0
 64 77  1  0  0  0  0
 66 67  1  0  0  0  0
M  CHG  1  77   1
M  ISO  4  36 101  41 100  74 100  85 101
M  END
> <Batch ID>
0090

> <Smiles>
CNC(C)C(=O)NC(C(=O)N1Cc2cc([101O:1][101CH:1]=C3CCN(c4cc(N)c([100NH:0][100C:0](=O)N5CCCC(n6nc(-c7ccc(Oc8ccc(F)cc8F)cc7)c(C(N)=O)c6N)C5)cc4OC)C(=O)C3)ccc2CC1C(=O)NC1CCCc2ccccc21)C(C)(C)C

> <Shape>
0.314

> <Color>
0.099

> <Negative vol penalty>
0.000

$$$$

  -OEChem-04052300293D

 86 94  0     1  0  0  0  0  0999 V2000
  -24.7055  -33.2975   28.1552 C   0  0  0  0  0  0  0  0  0  0  0  0
  -25.5652  -32.5740   27.3350 C   0  0  0  0  0  0  0  0  0  0  0  0
  -24.7574   -8.5811   21.0473 C   0  0  0  0  0  0  0  0  0  0  0  0
  -23.2580  -10.4749   20.9972 C   0  0  0  0  0  0  0  0  0  0  0  0
  -23.3447  -32.9946   28.1765 C   0  0  0  0  0  0  0  0  0  0  0  0
  -25.0648  -31.5463   26.5364 C   0  0  0  0  0  0  0  0  0  0  0  0
  -27.0168  -29.9340   20.9600 C   0  0  0  0  0  0  0  0  0  0  0  0
  -23.6729   -7.7278   21.2502 C   0  0  0  0  0  0  0  0  0  0  0  0
  -22.1734   -9.6215   21.2001 C   0  0  0  0  0  0  0  0  0  0  0  0
  -27.8737  -28.9255   20.5214 C   0  0  0  0  0  0  0  0  0  0  0  0
  -21.6866   -6.7928   23.8202 C   0  0  0  0  0  0  0  0  0  0  0  0
  -21.8137   -5.8057   24.7974 C   0  0  0  0  0  0  0  0  0  0  0  0
  -29.4340  -19.7528   19.4469 C   0  0  0  0  0  0  0  0  0  0  0  0
  -25.9704  -27.5157   20.0639 C   0  0  0  0  0  0  0  0  0  0  0  0
  -28.7855  -20.4059   21.6807 C   0  0  0  0  0  0  0  0  0  0  0  0
  -21.4627   -4.1014   23.1213 C   0  0  0  0  0  0  0  0  0  0  0  0
  -24.5500   -9.9547   20.9208 C   0  0  0  0  0  0  0  0  0  0  0  0
  -29.4327  -18.4139   19.8379 C   0  0  0  0  0  0  0  0  0  0  0  0
  -26.2174  -11.2379   19.4783 C   0  0  0  0  0  0  0  0  0  0  0  0
  -22.8258  -31.9690   27.3706 C   0  0  0  0  0  0  0  0  0  0  0  0
  -25.6284  -29.7366   20.9641 C   0  0  0  0  0  0  0  0  0  0  0  0
  -23.6960  -31.2284   26.5480 C   0  0  0  0  0  0  0  0  0  0  0  0
  -25.0979  -28.5242   20.5006 C   0  0  0  0  0  0  0  0  0  0  0  0
  -29.1104  -20.7488   20.3683 C   0  0  0  0  0  0  0  0  0  0  0  0
  -29.1078  -18.0709   21.1503 C   0  0  0  0  0  0  0  0  0  0  0  0
  -22.3809   -8.2480   21.3267 C   0  0  0  0  0  0  0  0  0  0  0  0
  -27.3507  -27.7150   20.0760 C   0  0  0  0  0  0  0  0  0  0  0  0
  -21.4475   -6.4343   22.4936 C   0  0  0  0  0  0  0  0  0  0  0  0
  -21.7018   -4.4599   24.4480 C   0  0  0  0  0  0  0  0  0  0  0  0
  -28.7841  -19.0669   22.0717 C   0  0  0  0  0  0  0  0  0  0  0  0
  -21.3356   -5.0886   22.1441 C   0  0  0  0  0  0  0  0  0  0  0  0
  -25.6699  -10.8368   20.7117 C   0  0  0  0  0  0  0  0  0  0  0  0
  -27.2559  -12.0701   19.8180 C   0  0  0  0  0  0  0  0  0  0  0  0
  -29.1197  -17.2375   17.7087 C   0  0  0  0  0  0  0  0  0  0  0  0
  -29.7763  -17.4010   18.8465 C   0  0  0  0  0  0  0  0  0  0  0  0
  -28.1540  -25.5302   20.3040 C   0  0  0  0  0  0  0  0  0  1  0  0
  -25.8225  -10.8894   18.1448 C   0  0  0  0  0  0  0  0  0  0  0  0
  -28.9299  -24.4924   19.9684 C   0  0  0  0  0  0  0  0  0  0  0  0
  -28.8195  -23.2184   20.7513 C   0  0  0  0  0  0  0  0  0  0  0  0
  -23.3771  -29.6820   23.2073 C   0  0  0  0  0  0  0  0  0  0  0  0
  -21.3886  -29.4433   20.6556 C   0  0  0  0  0  0  0  0  0  0  0  0
  -20.9597  -28.5477   17.3905 C   0  0  0  0  0  0  0  0  0  0  0  0
  -29.3695  -16.2326   22.8527 C   0  0  0  0  0  0  0  0  0  0  0  0
  -21.3554  -31.6467   27.4629 C   0  0  0  0  0  0  0  0  0  0  0  0
  -24.7163  -30.8442   21.4152 C   0  0  0  0  0  0  0  0  0  0  0  0
  -23.6139  -28.2697   20.4658 C   0  0  0  0  0  0  0  0  0  0  0  0
  -20.8456  -30.7905   26.3065 C   0  0  0  0  0  0  0  0  0  0  0  0
  -29.4138  -12.9820   24.3050 C   0  0  0  0  0  0  0  0  0  0  0  0
  -21.7934  -29.6235   26.0482 C   0  0  0  0  0  0  0  0  0  0  0  0
  -28.4888  -12.1671   23.3982 C   0  0  0  0  0  0  0  0  0  0  0  0
  -28.9143  -14.4145   24.4845 C   0  0  0  0  0  0  0  0  0  0  0  0
  -27.7246  -14.3258   22.3290 C   0  0  0  0  0  0  0  0  0  0  0  0
  -23.1872  -30.1227   25.6487 C   0  0  1  0  0  0  0  0  0  0  0  0
  -23.3448  -30.3453   21.8594 C   0  0  1  0  0  0  0  0  0  0  0  0
  -28.2214  -12.8948   22.0661 C   0  0  2  0  0  0  0  0  0  0  0  0
  -19.2131  -28.4332   15.5924 C   0  0  0  0  0  0  0  0  0  0  0  0
  -20.1952  -26.9649   21.9760 C   0  0  0  0  0  0  0  0  0  0  0  0
  -19.1704  -26.3690   19.7708 C   0  0  0  0  0  0  0  0  0  0  0  0
  -18.5212  -28.4892   20.9135 C   0  0  0  0  0  0  0  0  0  0  0  0
  -22.4576  -30.4194   15.6551 C   0  0  0  0  0  0  0  0  0  0  0  0
  -20.8094  -28.3023   19.8546 C   0  0  1  0  0  0  0  0  0  0  0  0
  -20.3130  -29.2723   16.2239 C   0  0  2  0  0  0  0  0  0  0  0  0
  -19.7022  -27.5351   20.6311 C   0  0  0  0  0  0  0  0  0  0  0  0
  -26.3079  -11.3702   21.7569 N   0  0  0  0  0  0  0  0  0  0  0  0
  -27.2671  -12.1149   21.1811 N   0  0  0  0  0  0  0  0  0  0  0  0
  -22.7635  -29.3812   20.9230 N   0  0  0  0  0  0  0  0  0  0  0  0
  -28.6869  -15.0421   23.1809 N   0  0  0  0  0  0  0  0  0  0  0  0
  -28.1515  -12.7606   19.0807 N   0  0  0  0  0  0  0  0  0  0  0  0
  -24.7344  -10.0224   17.9752 N   0  0  0  0  0  0  0  0  0  0  0  0
  -29.1117  -22.1078   19.9715 N   0  0  0  0  0  0  0  0  0  0  0  0
  -29.0984  -16.7189   21.5742 N   0  0  0  0  0  0  0  0  0  0  0  0
  -23.1938  -30.5506   24.2663 N   0  0  0  0  0  0  0  0  0  0  0  0
  -20.3637  -28.8764   18.5897 N   0  0  0  0  0  0  0  0  0  0  0  0
  -21.3289  -29.5797   15.1777 N   0  3  0  0  0  0  0  0  0  0  0  0
  -26.4272  -11.3206   17.1339 O   0  0  0  0  0  0  0  0  0  0  0  0
  -28.5037  -23.2325   21.9362 O   0  0  0  0  0  0  0  0  0  0  0  0
  -23.5537  -28.4716   23.2810 O   0  0  0  0  0  0  0  0  0  0  0  0
  -20.6496  -30.3597   21.0242 O   0  0  0  0  0  0  0  0  0  0  0  0
  -21.8973  -27.7652   17.2516 O   0  0  0  0  0  0  0  0  0  0  0  0
  -30.1586  -16.7655   23.6372 O   0  0  0  0  0  0  0  0  0  0  0  0
  -29.8313  -24.5466   18.9247 O   0  0  0  0  0  0  0  0  0  0  0  0
  -21.3223   -7.4156   21.5245 O   0  0  0  0  0  0  0  0  0  0  0  0
  -28.1849  -26.7287   19.6480 O   0  0  0  0  0  0  0  0  0  1  0  0
  -21.8254   -3.5120   25.3862 F   0  0  0  0  0  0  0  0  0  0  0  0
  -28.4694  -18.7507   23.3361 F   0  0  0  0  0  0  0  0  0  0  0  0
  -21.1071   -4.7380   20.8710 F   0  0  0  0  0  0  0  0  0  0  0  0
  1  2  1  0  0  0  0
  1  5  2  0  0  0  0
  2  6  2  0  0  0  0
  3  8  2  0  0  0  0
  3 17  1  0  0  0  0
  4  9  1  0  0  0  0
  4 17  2  0  0  0  0
  5 20  1  0  0  0  0
  6 22  1  0  0  0  0
  7 10  2  0  0  0  0
  7 21  1  0  0  0  0
  8 26  1  0  0  0  0
  9 26  2  0  0  0  0
 10 27  1  0  0  0  0
 11 12  2  0  0  0  0
 11 28  1  0  0  0  0
 12 29  1  0  0  0  0
 13 18  1  0  0  0  0
 13 24  2  0  0  0  0
 14 23  1  0  0  0  0
 14 27  2  0  0  0  0
 15 24  1  0  0  0  0
 15 30  2  0  0  0  0
 16 29  2  0  0  0  0
 16 31  1  0  0  0  0
 17 32  1  0  0  0  0
 18 25  2  0  0  0  0
 18 35  1  0  0  0  0
 19 32  1  0  0  0  0
 19 33  2  0  0  0  0
 19 37  1  0  0  0  0
 20 22  2  0  0  0  0
 20 44  1  0  0  0  0
 21 23  2  0  0  0  0
 21 45  1  0  0  0  0
 22 53  1  0  0  0  0
 23 46  1  0  0  0  0
 24 70  1  0  0  0  0
 25 30  1  0  0  0  0
 25 71  1  0  0  0  0
 26 82  1  0  0  0  0
 27 83  1  0  0  0  0
 28 31  2  0  0  0  0
 28 82  1  0  0  0  0
 29 84  1  0  0  0  0
 30 85  1  0  0  0  0
 31 86  1  0  0  0  0
 32 64  2  0  0  0  0
 33 65  1  0  0  0  0
 33 68  1  0  0  0  0
 34 35  2  0  0  0  0
 36 38  2  0  0  0  0
 36 83  1  0  0  0  0
 37 69  1  0  0  0  0
 37 75  2  0  0  0  0
 38 39  1  0  0  0  0
 38 81  1  0  0  0  0
 39 70  1  0  0  0  0
 39 76  2  0  0  0  0
 40 54  1  0  0  0  0
 40 72  1  0  0  0  0
 40 77  2  0  0  0  0
 41 61  1  0  0  0  0
 41 66  1  0  0  0  0
 41 78  2  0  0  0  0
 42 62  1  0  0  0  0
 42 73  1  0  0  0  0
 42 79  2  0  0  0  0
 43 67  1  0  0  0  0
 43 71  1  0  0  0  0
 43 80  2  0  0  0  0
 44 47  1  0  0  0  0
 45 54  1  0  0  0  0
 46 66  1  0  0  0  0
 47 49  1  0  0  0  0
 48 50  1  0  0  0  0
 48 51  1  0  0  0  0
 49 53  1  0  0  0  0
 50 55  1  0  0  0  0
 51 67  1  0  0  0  0
 52 55  1  0  0  0  0
 52 67  1  0  0  0  0
 53 72  1  0  0  0  0
 54 66  1  0  0  0  0
 55 65  1  0  0  0  0
 56 62  1  0  0  0  0
 57 63  1  0  0  0  0
 58 63  1  0  0  0  0
 59 63  1  0  0  0  0
 60 74  1  0  0  0  0
 61 63  1  0  0  0  0
 61 73  1  0  0  0  0
 62 74  1  0  0  0  0
 64 65  1  0  0  0  0
M  CHG  1  74   1
M  ISO  4  36 101  43 100  71 100  83 101
M  END
> <Batch ID>
0090

> <Smiles>
C=Cc1cc(NC(=O)C(=O)[101CH2:1][101O:1]c2ccc3c(c2)CN(C(=O)C(NC(=O)C(C)NC)C(C)(C)C)C(C(=O)NC2CCCc4ccccc42)C3)cc(F)c1[100NH:0][100C:0](=O)N1CCCC(n2nc(-c3ccc(Oc4ccc(F)cc4F)cc3)c(C(N)=O)c2N)C1

> <Shape>
0.311

> <Color>
0.106

> <Negative vol penalty>
0.000

$$$$

  -OEChem-04052300293D

 83 91  0     1  0  0  0  0  0999 V2000
  -23.8212  -24.3308   31.3944 C   0  0  0  0  0  0  0  0  0  0  0  0
  -23.8032  -23.7221   30.1436 C   0  0  0  0  0  0  0  0  0  0  0  0
  -23.2624   -9.7129   19.9291 C   0  0  0  0  0  0  0  0  0  0  0  0
  -23.5421   -9.9960   22.3121 C   0  0  0  0  0  0  0  0  0  0  0  0
  -23.2954  -25.6124   31.5524 C   0  0  0  0  0  0  0  0  0  0  0  0
  -23.2583  -24.3944   29.0502 C   0  0  0  0  0  0  0  0  0  0  0  0
  -26.1461  -24.0251   24.9066 C   0  0  0  0  0  0  0  0  0  0  0  0
  -27.7253  -17.1453   18.0103 C   0  0  0  0  0  0  0  0  0  0  0  0
  -27.3154  -18.0414   18.9976 C   0  0  0  0  0  0  0  0  0  0  0  0
  -22.5128   -8.5584   20.1543 C   0  0  0  0  0  0  0  0  0  0  0  0
  -22.7924   -8.8415   22.5373 C   0  0  0  0  0  0  0  0  0  0  0  0
  -26.0852  -22.8292   24.1925 C   0  0  0  0  0  0  0  0  0  0  0  0
  -23.2742   -5.4969   22.4247 C   0  0  0  0  0  0  0  0  0  0  0  0
  -23.7574   -4.5827   23.3608 C   0  0  0  0  0  0  0  0  0  0  0  0
  -24.5876  -23.8594   22.6067 C   0  0  0  0  0  0  0  0  0  0  0  0
  -29.6045  -16.4938   19.3819 C   0  0  0  0  0  0  0  0  0  0  0  0
  -21.7421   -4.8534   24.6656 C   0  0  0  0  0  0  0  0  0  0  0  0
  -23.7771  -10.4318   21.0081 C   0  0  0  0  0  0  0  0  0  0  0  0
  -24.0721  -12.9438   20.6759 C   0  0  0  0  0  0  0  0  0  0  0  0
  -22.7526  -26.3045   30.4584 C   0  0  0  0  0  0  0  0  0  0  0  0
  -25.4184  -25.1459   24.4814 C   0  0  0  0  0  0  0  0  0  0  0  0
  -22.7235  -25.6859   29.1939 C   0  0  0  0  0  0  0  0  0  0  0  0
  -24.6430  -25.0691   23.3157 C   0  0  0  0  0  0  0  0  0  0  0  0
  -28.8699  -16.3715   18.2025 C   0  0  0  0  0  0  0  0  0  0  0  0
  -28.0500  -18.1637   20.1770 C   0  0  0  0  0  0  0  0  0  0  0  0
  -29.1946  -17.3899   20.3692 C   0  0  0  0  0  0  0  0  0  0  0  0
  -22.2778   -8.1227   21.4583 C   0  0  0  0  0  0  0  0  0  0  0  0
  -25.3036  -22.7454   23.0440 C   0  0  0  0  0  0  0  0  0  0  0  0
  -22.0249   -6.0894   22.6091 C   0  0  0  0  0  0  0  0  0  0  0  0
  -22.9914   -4.2609   24.4812 C   0  0  0  0  0  0  0  0  0  0  0  0
  -21.2588   -5.7676   23.7295 C   0  0  0  0  0  0  0  0  0  0  0  0
  -24.5520  -11.6242   20.7761 C   0  0  0  0  0  0  0  0  0  0  0  0
  -25.1958  -13.7020   20.4548 C   0  0  0  0  0  0  0  0  0  0  0  0
  -22.7304  -13.4399   20.7740 C   0  0  0  0  0  0  0  0  0  0  0  0
  -23.0866  -26.9109   25.7269 C   0  0  0  0  0  0  0  0  0  0  0  0
  -23.5980  -28.7419   23.0985 C   0  0  0  0  0  0  0  0  0  0  0  0
  -26.5010  -19.9114   21.1151 C   0  0  0  0  0  0  0  0  0  0  0  0
  -24.7507  -28.9516   19.8932 C   0  0  0  0  0  0  0  0  0  0  0  0
  -29.9862  -14.2513   17.4609 C   0  0  0  0  0  0  0  0  0  0  0  0
  -22.1531  -27.6693   30.6878 C   0  0  0  0  0  0  0  0  0  0  0  0
  -25.5159  -26.4364   25.2479 C   0  0  0  0  0  0  0  0  0  0  0  0
  -23.8587  -26.2496   22.8058 C   0  0  0  0  0  0  0  0  0  0  0  0
  -21.9338  -28.4622   29.4019 C   0  0  0  0  0  0  0  0  0  0  0  0
  -30.1000  -12.5482   20.7441 C   0  0  0  0  0  0  0  0  0  0  0  0
  -21.2731  -27.5872   28.3414 C   0  0  0  0  0  0  0  0  0  0  0  0
  -28.6356  -12.1912   20.9921 C   0  0  0  0  0  0  0  0  0  0  0  0
  -30.4248  -12.6048   19.2544 C   0  0  0  0  0  0  0  0  0  0  0  0
  -28.0691  -13.1718   18.7339 C   0  0  0  0  0  0  0  0  0  0  0  0
  -22.1636  -26.3927   27.9786 C   0  0  1  0  0  0  0  0  0  0  0  0
  -24.3276  -27.3634   25.0108 C   0  0  1  0  0  0  0  0  0  0  0  0
  -27.7069  -13.1480   20.2264 C   0  0  1  0  0  0  0  0  0  0  0  0
  -25.0008  -30.5698   17.9916 C   0  0  0  0  0  0  0  0  0  0  0  0
  -20.6154  -28.4988   22.5027 C   0  0  0  0  0  0  0  0  0  0  0  0
  -21.0872  -29.2882   20.1741 C   0  0  0  0  0  0  0  0  0  0  0  0
  -21.5742  -30.7760   22.1162 C   0  0  0  0  0  0  0  0  0  0  0  0
  -29.2310  -15.8846   15.7894 C   0  0  0  0  0  0  0  0  0  0  0  0
  -27.6971  -28.6720   19.8902 C   0  0  0  0  0  0  0  0  0  0  0  0
  -26.3937  -20.7377   22.3833 C   0  0  0  0  0  0  0  0  0  1  0  0
  -23.0516  -28.7688   21.6915 C   0  0  1  0  0  0  0  0  0  0  0  0
  -25.6641  -29.9566   19.2150 C   0  0  2  0  0  0  0  0  0  0  0  0
  -21.5952  -29.3100   21.6316 C   0  0  0  0  0  0  0  0  0  0  0  0
  -25.8773  -11.5450   20.6305 N   0  0  0  0  0  0  0  0  0  0  0  0
  -26.2398  -12.8245   20.4364 N   0  0  0  0  0  0  0  0  0  0  0  0
  -23.9815  -27.4874   23.5934 N   0  0  0  0  0  0  0  0  0  0  0  0
  -29.4955  -13.4724   18.5289 N   0  0  0  0  0  0  0  0  0  0  0  0
  -29.9534  -17.4977   21.5563 N   0  0  0  0  0  0  0  0  0  0  0  0
  -25.3828  -15.0269   20.2761 N   0  0  0  0  0  0  0  0  0  0  0  0
  -21.6946  -12.5242   21.0036 N   0  0  0  0  0  0  0  0  0  0  0  0
  -27.6142  -19.0793   21.1640 N   0  0  0  0  0  0  0  0  0  0  0  0
  -23.2332  -26.8090   27.0971 N   0  0  0  0  0  0  0  0  0  0  0  0
  -24.0066  -29.5340   20.8973 N   0  0  0  0  0  0  0  0  0  0  0  0
  -29.2934  -15.4447   17.1815 N   0  0  0  0  0  0  0  0  0  0  0  0
  -26.9292  -29.2978   18.7830 N   0  3  0  0  0  0  0  0  0  0  0  0
  -22.4564  -14.6572   20.6450 O   0  0  0  0  0  0  0  0  0  0  0  0
  -22.0707  -26.6733   25.0840 O   0  0  0  0  0  0  0  0  0  0  0  0
  -23.6880  -29.7962   23.7325 O   0  0  0  0  0  0  0  0  0  0  0  0
  -25.6804  -20.0152   20.2093 O   0  0  0  0  0  0  0  0  0  0  0  0
  -24.6996  -27.7689   19.5627 O   0  0  0  0  0  0  0  0  0  0  0  0
  -30.9419  -13.8827   16.7671 O   0  0  0  0  0  0  0  0  0  0  0  0
  -21.5461   -6.9962   21.6784 O   0  0  0  0  0  0  0  0  0  0  0  0
  -25.2418  -21.5791   22.3455 O   0  0  0  0  0  0  0  0  0  1  0  0
  -23.4550   -3.3819   25.3793 F   0  0  0  0  0  0  0  0  0  0  0  0
  -20.0574   -6.3327   23.9113 F   0  0  0  0  0  0  0  0  0  0  0  0
  1  2  1  0  0  0  0
  1  5  2  0  0  0  0
  2  6  2  0  0  0  0
  3 10  2  0  0  0  0
  3 18  1  0  0  0  0
  4 11  1  0  0  0  0
  4 18  2  0  0  0  0
  5 20  1  0  0  0  0
  6 22  1  0  0  0  0
  7 12  2  0  0  0  0
  7 21  1  0  0  0  0
  8  9  2  0  0  0  0
  8 24  1  0  0  0  0
  9 25  1  0  0  0  0
 10 27  1  0  0  0  0
 11 27  2  0  0  0  0
 12 28  1  0  0  0  0
 13 14  2  0  0  0  0
 13 29  1  0  0  0  0
 14 30  1  0  0  0  0
 15 23  1  0  0  0  0
 15 28  2  0  0  0  0
 16 24  2  0  0  0  0
 16 26  1  0  0  0  0
 17 30  2  0  0  0  0
 17 31  1  0  0  0  0
 18 32  1  0  0  0  0
 19 32  1  0  0  0  0
 19 33  2  0  0  0  0
 19 34  1  0  0  0  0
 20 22  2  0  0  0  0
 20 40  1  0  0  0  0
 21 23  2  0  0  0  0
 21 41  1  0  0  0  0
 22 49  1  0  0  0  0
 23 42  1  0  0  0  0
 24 72  1  0  0  0  0
 25 26  2  0  0  0  0
 25 69  1  0  0  0  0
 26 66  1  0  0  0  0
 27 80  1  0  0  0  0
 28 81  1  0  0  0  0
 29 31  2  0  0  0  0
 29 80  1  0  0  0  0
 30 82  1  0  0  0  0
 31 83  1  0  0  0  0
 32 62  2  0  0  0  0
 33 63  1  0  0  0  0
 33 67  1  0  0  0  0
 34 68  1  0  0  0  0
 34 74  2  0  0  0  0
 35 50  1  0  0  0  0
 35 70  1  0  0  0  0
 35 75  2  0  0  0  0
 36 59  1  0  0  0  0
 36 64  1  0  0  0  0
 36 76  2  0  0  0  0
 37 58  1  0  0  0  0
 37 69  1  0  0  0  0
 37 77  2  0  0  0  0
 38 60  1  0  0  0  0
 38 71  1  0  0  0  0
 38 78  2  0  0  0  0
 39 65  1  0  0  0  0
 39 72  1  0  0  0  0
 39 79  2  0  0  0  0
 40 43  1  0  0  0  0
 41 50  1  0  0  0  0
 42 64  1  0  0  0  0
 43 45  1  0  0  0  0
 44 46  1  0  0  0  0
 44 47  1  0  0  0  0
 45 49  1  0  0  0  0
 46 51  1  0  0  0  0
 47 65  1  0  0  0  0
 48 51  1  0  0  0  0
 48 65  1  0  0  0  0
 49 70  1  0  0  0  0
 50 64  1  0  0  0  0
 51 63  1  0  0  0  0
 52 60  1  0  0  0  0
 53 61  1  0  0  0  0
 54 61  1  0  0  0  0
 55 61  1  0  0  0  0
 56 72  1  0  0  0  0
 57 73  1  0  0  0  0
 58 81  1  0  0  0  0
 59 61  1  0  0  0  0
 59 71  1  0  0  0  0
 60 73  1  0  0  0  0
 62 63  1  0  0  0  0
M  CHG  1  73   1
M  ISO  4  39 100  58 101  72 100  81 101
M  END
> <Batch ID>
0090

> <Smiles>
CNC(C)C(=O)NC(C(=O)N1Cc2cc([101O:1][101CH2:1]C(=O)Nc3ccc([100N:0](C)[100C:0](=O)N4CCCC(n5nc(-c6ccc(Oc7ccc(F)cc7F)cc6)c(C(N)=O)c5N)C4)cc3N)ccc2CC1C(=O)NC1CCCc2ccccc21)C(C)(C)C

> <Shape>
0.244

> <Color>
0.184

> <Negative vol penalty>
0.000

$$$$

  -OEChem-04052300293D

 80 88  0     1  0  0  0  0  0999 V2000
  -23.9886  -31.7155   21.6781 C   0  0  0  0  0  0  0  0  0  0  0  0
  -23.7202  -30.4372   21.1993 C   0  0  0  0  0  0  0  0  0  0  0  0
  -22.3904  -22.6946   20.8919 C   0  0  0  0  0  0  0  0  0  0  0  0
  -21.0131  -22.6582   22.8765 C   0  0  0  0  0  0  0  0  0  0  0  0
  -25.3044  -32.1717   21.7446 C   0  0  0  0  0  0  0  0  0  0  0  0
  -24.7675  -29.6147   20.7856 C   0  0  0  0  0  0  0  0  0  0  0  0
  -26.6887  -22.7179   20.5438 C   0  0  0  0  0  0  0  0  0  0  0  0
  -21.6741  -23.7923   20.4149 C   0  0  0  0  0  0  0  0  0  0  0  0
  -20.2968  -23.7559   22.3996 C   0  0  0  0  0  0  0  0  0  0  0  0
  -27.1496  -21.7591   19.6425 C   0  0  0  0  0  0  0  0  0  0  0  0
  -18.3388  -26.7734   21.8711 C   0  0  0  0  0  0  0  0  0  0  0  0
  -18.0665  -27.8090   22.7649 C   0  0  0  0  0  0  0  0  0  0  0  0
  -27.5656  -16.6859   19.0304 C   0  0  0  0  0  0  0  0  0  0  0  0
  -29.3892  -22.6244   19.8768 C   0  0  0  0  0  0  0  0  0  0  0  0
  -20.4358  -28.1425   23.1001 C   0  0  0  0  0  0  0  0  0  0  0  0
  -28.9798  -14.9390   19.6227 C   0  0  0  0  0  0  0  0  0  0  0  0
  -22.0599  -22.1275   22.1227 C   0  0  0  0  0  0  0  0  0  0  0  0
  -27.6728  -15.3706   19.5678 C   0  0  0  0  0  0  0  0  0  0  0  0
  -23.9552  -21.0157   23.4186 C   0  0  0  0  0  0  0  0  0  0  0  0
  -26.3691  -31.3509   21.3405 C   0  0  0  0  0  0  0  0  0  0  0  0
  -27.5743  -23.6455   21.1109 C   0  0  0  0  0  0  0  0  0  0  0  0
  -26.0986  -30.0609   20.8455 C   0  0  0  0  0  0  0  0  0  0  0  0
  -28.9375  -23.5922   20.7869 C   0  0  0  0  0  0  0  0  0  0  0  0
  -20.6273  -24.3230   21.1688 C   0  0  0  0  0  0  0  0  0  0  0  0
  -28.4996  -21.7141   19.3067 C   0  0  0  0  0  0  0  0  0  0  0  0
  -19.6596  -26.4222   21.5919 C   0  0  0  0  0  0  0  0  0  0  0  0
  -19.1150  -28.4937   23.3794 C   0  0  0  0  0  0  0  0  0  0  0  0
  -20.7080  -27.1068   22.2064 C   0  0  0  0  0  0  0  0  0  0  0  0
  -22.7991  -20.9932   22.6157 C   0  0  0  0  0  0  0  0  0  0  0  0
  -28.7950  -17.2096   18.6952 C   0  0  0  0  0  0  0  0  0  0  0  0
  -24.2657  -19.6917   23.6108 C   0  0  0  0  0  0  0  0  0  0  0  0
  -28.7253  -19.4818   18.8509 C   0  0  0  0  0  0  0  0  0  1  0  0
  -26.5355  -14.5315   20.0252 C   0  0  0  0  0  0  0  0  0  0  0  0
  -24.6833  -22.1336   23.9439 C   0  0  0  0  0  0  0  0  0  0  0  0
  -27.8464  -26.8120   21.0529 C   0  0  0  0  0  0  0  0  0  0  0  0
  -30.1940  -26.2602   23.2224 C   0  0  0  0  0  0  0  0  0  0  0  0
  -32.4907  -24.0938   24.5180 C   0  0  0  0  0  0  0  0  0  0  0  0
  -24.2195  -14.6314   20.8910 C   0  0  0  0  0  0  0  0  0  0  0  0
  -27.7710  -31.9052   21.3864 C   0  0  0  0  0  0  0  0  0  0  0  0
  -27.0658  -24.6564   22.1019 C   0  0  0  0  0  0  0  0  0  0  0  0
  -29.9325  -24.5526   21.3836 C   0  0  0  0  0  0  0  0  0  0  0  0
  -28.8533  -30.8339   21.2801 C   0  0  0  0  0  0  0  0  0  0  0  0
  -21.7506  -15.4381   23.2891 C   0  0  0  0  0  0  0  0  0  0  0  0
  -28.5322  -29.8610   20.1500 C   0  0  0  0  0  0  0  0  0  0  0  0
  -21.8844  -16.9550   23.4489 C   0  0  0  0  0  0  0  0  0  0  0  0
  -21.9591  -14.9996   21.8402 C   0  0  0  0  0  0  0  0  0  0  0  0
  -23.3288  -16.9912   21.3761 C   0  0  0  0  0  0  0  0  0  0  0  0
  -27.2096  -29.1299   20.4106 C   0  0  1  0  0  0  0  0  0  0  0  0
  -27.9693  -25.8795   22.2247 C   0  0  1  0  0  0  0  0  0  0  0  0
  -23.1969  -17.4755   22.8291 C   0  0  1  0  0  0  0  0  0  0  0  0
  -34.2913  -23.9409   26.2592 C   0  0  0  0  0  0  0  0  0  0  0  0
  -32.0539  -27.8943   21.4390 C   0  0  0  0  0  0  0  0  0  0  0  0
  -33.9927  -26.9273   22.6935 C   0  0  0  0  0  0  0  0  0  0  0  0
  -32.3100  -28.3284   23.8885 C   0  0  0  0  0  0  0  0  0  0  0  0
  -31.0869  -21.9138   25.9449 C   0  0  0  0  0  0  0  0  0  0  0  0
  -31.6783  -25.9952   23.1473 C   0  0  1  0  0  0  0  0  0  0  0  0
  -32.8199  -23.7125   25.9501 C   0  0  2  0  0  0  0  0  0  0  0  0
  -32.4899  -27.2693   22.7792 C   0  0  0  0  0  0  0  0  0  0  0  0
  -22.4021  -19.7531   22.3180 N   0  0  0  0  0  0  0  0  0  0  0  0
  -29.0878  -18.4680   18.1434 N   0  0  0  0  0  0  0  0  0  0  0  0
  -23.3139  -18.9841   22.9372 N   0  0  0  0  0  0  0  0  0  0  0  0
  -29.3855  -25.5265   22.3427 N   0  0  0  0  0  0  0  0  0  0  0  0
  -23.2272  -15.5248   21.3309 N   0  0  0  0  0  0  0  0  0  0  0  0
  -25.2573  -19.0753   24.2885 N   0  0  0  0  0  0  0  0  0  0  0  0
  -24.2270  -23.4258   23.6501 N   0  0  0  0  0  0  0  0  0  0  0  0
  -25.4099  -15.2297   20.4633 N   0  0  0  0  0  0  0  0  0  0  0  0
  -27.3980  -28.0763   21.3847 N   0  0  0  0  0  0  0  0  0  0  0  0
  -32.0514  -25.3974   24.4247 N   0  0  0  0  0  0  0  0  0  0  0  0
  -32.5072  -22.2750   26.1883 N   0  3  0  0  0  0  0  0  0  0  0  0
  -26.6292  -13.3090   19.9577 O   0  0  0  0  0  0  0  0  0  0  0  0
  -25.7176  -21.9911   24.6392 O   0  0  0  0  0  0  0  0  0  0  0  0
  -28.1382  -26.4143   19.9311 O   0  0  0  0  0  0  0  0  0  0  0  0
  -29.7670  -27.0825   24.0366 O   0  0  0  0  0  0  0  0  0  0  0  0
  -32.6146  -23.3143   23.5759 O   0  0  0  0  0  0  0  0  0  0  0  0
  -24.0730  -13.4053   20.9129 O   0  0  0  0  0  0  0  0  0  0  0  0
  -19.9282  -25.3942   20.7037 O   0  0  0  0  0  0  0  0  0  0  0  0
  -28.9520  -20.7798   18.4268 O   0  0  0  0  0  0  0  0  0  1  0  0
  -18.8534  -29.4892   24.2364 F   0  0  0  0  0  0  0  0  0  0  0  0
  -21.9790  -26.7748   21.9412 F   0  0  0  0  0  0  0  0  0  0  0  0
  -30.0710  -16.1172   19.0281 S   0  0  0  0  0  0  0  0  0  0  0  0
  1  2  1  0  0  0  0
  1  5  2  0  0  0  0
  2  6  2  0  0  0  0
  3  8  2  0  0  0  0
  3 17  1  0  0  0  0
  4  9  1  0  0  0  0
  4 17  2  0  0  0  0
  5 20  1  0  0  0  0
  6 22  1  0  0  0  0
  7 10  2  0  0  0  0
  7 21  1  0  0  0  0
  8 24  1  0  0  0  0
  9 24  2  0  0  0  0
 10 25  1  0  0  0  0
 11 12  2  0  0  0  0
 11 26  1  0  0  0  0
 12 27  1  0  0  0  0
 13 18  1  0  0  0  0
 13 30  2  0  0  0  0
 14 23  1  0  0  0  0
 14 25  2  0  0  0  0
 15 27  2  0  0  0  0
 15 28  1  0  0  0  0
 16 18  2  0  0  0  0
 16 80  1  0  0  0  0
 17 29  1  0  0  0  0
 18 33  1  0  0  0  0
 19 29  1  0  0  0  0
 19 31  2  0  0  0  0
 19 34  1  0  0  0  0
 20 22  2  0  0  0  0
 20 39  1  0  0  0  0
 21 23  2  0  0  0  0
 21 40  1  0  0  0  0
 22 48  1  0  0  0  0
 23 41  1  0  0  0  0
 24 76  1  0  0  0  0
 25 77  1  0  0  0  0
 26 28  2  0  0  0  0
 26 76  1  0  0  0  0
 27 78  1  0  0  0  0
 28 79  1  0  0  0  0
 29 59  2  0  0  0  0
 30 60  1  0  0  0  0
 30 80  1  0  0  0  0
 31 61  1  0  0  0  0
 31 64  1  0  0  0  0
 32 60  2  0  0  0  0
 32 77  1  0  0  0  0
 33 66  1  0  0  0  0
 33 70  2  0  0  0  0
 34 65  1  0  0  0  0
 34 71  2  0  0  0  0
 35 49  1  0  0  0  0
 35 67  1  0  0  0  0
 35 72  2  0  0  0  0
 36 56  1  0  0  0  0
 36 62  1  0  0  0  0
 36 73  2  0  0  0  0
 37 57  1  0  0  0  0
 37 68  1  0  0  0  0
 37 74  2  0  0  0  0
 38 63  1  0  0  0  0
 38 66  1  0  0  0  0
 38 75  2  0  0  0  0
 39 42  1  0  0  0  0
 40 49  1  0  0  0  0
 41 62  1  0  0  0  0
 42 44  1  0  0  0  0
 43 45  1  0  0  0  0
 43 46  1  0  0  0  0
 44 48  1  0  0  0  0
 45 50  1  0  0  0  0
 46 63  1  0  0  0  0
 47 50  1  0  0  0  0
 47 63  1  0  0  0  0
 48 67  1  0  0  0  0
 49 62  1  0  0  0  0
 50 61  1  0  0  0  0
 51 57  1  0  0  0  0
 52 58  1  0  0  0  0
 53 58  1  0  0  0  0
 54 58  1  0  0  0  0
 55 69  1  0  0  0  0
 56 58  1  0  0  0  0
 56 68  1  0  0  0  0
 57 69  1  0  0  0  0
 59 61  1  0  0  0  0
M  CHG  1  69   1
M  ISO  4  32 101  38 100  66 100  77 101
M  END
> <Batch ID>
0090

> <Smiles>
CNC(C)C(=O)NC(C(=O)N1Cc2cc([101O:1][101CH:1]=Nc3cc(C(=O)[100NH:0][100C:0](=O)N4CCCC(n5nc(-c6ccc(Oc7ccc(F)cc7F)cc6)c(C(N)=O)c5N)C4)cs3)ccc2CC1C(=O)NC1CCCc2ccccc21)C(C)(C)C

> <Shape>
0.198

> <Color>
0.065

> <Negative vol penalty>
0.000

$$$$

  -OEChem-04052300293D

 88 97  0     1  0  0  0  0  0999 V2000
  -16.8460  -26.8279   27.9644 C   0  0  0  0  0  0  0  0  0  0  0  0
  -16.4737  -26.8339   26.6240 C   0  0  0  0  0  0  0  0  0  0  0  0
  -22.8125  -10.1703   20.1248 C   0  0  0  0  0  0  0  0  0  0  0  0
  -24.2315   -9.5722   21.9865 C   0  0  0  0  0  0  0  0  0  0  0  0
  -28.0123  -18.7209   15.2871 C   0  0  0  0  0  0  0  0  0  0  0  0
  -18.0572  -27.3989   28.3529 C   0  0  0  0  0  0  0  0  0  0  0  0
  -17.3119  -27.4118   25.6713 C   0  0  0  0  0  0  0  0  0  0  0  0
  -19.8475  -23.5596   20.1376 C   0  0  0  0  0  0  0  0  0  0  0  0
  -26.8857  -19.4540   14.9146 C   0  0  0  0  0  0  0  0  0  0  0  0
  -22.0783   -8.9986   20.3079 C   0  0  0  0  0  0  0  0  0  0  0  0
  -23.4973   -8.4005   22.1697 C   0  0  0  0  0  0  0  0  0  0  0  0
  -20.2032  -22.9459   18.9363 C   0  0  0  0  0  0  0  0  0  0  0  0
  -20.5470   -7.5019   23.5513 C   0  0  0  0  0  0  0  0  0  0  0  0
  -20.1818   -7.1648   24.8546 C   0  0  0  0  0  0  0  0  0  0  0  0
  -21.4469  -24.9152   18.2861 C   0  0  0  0  0  0  0  0  0  0  0  0
  -25.6283  -18.4322   16.7069 C   0  0  0  0  0  0  0  0  0  0  0  0
  -21.4068   -5.0913   24.6614 C   0  0  0  0  0  0  0  0  0  0  0  0
  -23.8891  -10.4571   20.9641 C   0  0  0  0  0  0  0  0  0  0  0  0
  -27.9470  -17.8434   16.3694 C   0  0  0  0  0  0  0  0  0  0  0  0
  -24.1695  -12.9895   20.8370 C   0  0  0  0  0  0  0  0  0  0  0  0
  -18.9152  -27.9756   27.4032 C   0  0  0  0  0  0  0  0  0  0  0  0
  -20.3034  -24.8491   20.4247 C   0  0  0  0  0  0  0  0  0  0  0  0
  -18.5351  -27.9923   26.0476 C   0  0  0  0  0  0  0  0  0  0  0  0
  -21.1042  -25.5302   19.4932 C   0  0  0  0  0  0  0  0  0  0  0  0
  -25.6937  -19.3097   15.6245 C   0  0  0  0  0  0  0  0  0  0  0  0
  -22.4207   -8.1137   21.3304 C   0  0  0  0  0  0  0  0  0  0  0  0
  -21.0007  -23.6221   18.0128 C   0  0  0  0  0  0  0  0  0  0  0  0
  -21.3420   -6.6338   22.8030 C   0  0  0  0  0  0  0  0  0  0  0  0
  -20.6118   -5.9595   25.4097 C   0  0  0  0  0  0  0  0  0  0  0  0
  -26.7550  -17.6990   17.0793 C   0  0  0  0  0  0  0  0  0  0  0  0
  -21.7720   -5.4285   23.3581 C   0  0  0  0  0  0  0  0  0  0  0  0
  -24.6483  -11.6671   20.7751 C   0  0  0  0  0  0  0  0  0  0  0  0
  -25.2745  -13.7667   20.5891 C   0  0  0  0  0  0  0  0  0  0  0  0
  -23.5676  -20.4610   16.1415 C   0  0  0  0  0  0  0  0  0  0  0  0
  -22.4602  -21.1526   15.8277 C   0  0  0  0  0  0  0  0  0  0  0  0
  -23.0525  -20.7770   13.4398 C   0  0  0  0  0  0  0  0  0  0  0  0
  -29.1493  -17.0642   16.7621 C   0  0  0  0  0  0  0  0  0  0  0  0
  -22.8444  -13.4722   21.0957 C   0  0  0  0  0  0  0  0  0  0  0  0
  -20.3805  -27.7025   22.8595 C   0  0  0  0  0  0  0  0  0  0  0  0
  -23.2020  -27.4611   21.6801 C   0  0  0  0  0  0  0  0  0  0  0  0
  -26.5668  -27.4982   21.1200 C   0  0  0  0  0  0  0  0  0  0  0  0
  -29.8869  -14.9151   17.7423 C   0  0  0  0  0  0  0  0  0  0  0  0
  -20.1924  -28.6227   27.8770 C   0  0  0  0  0  0  0  0  0  0  0  0
  -19.8944  -25.5725   21.6790 C   0  0  0  0  0  0  0  0  0  0  0  0
  -21.5429  -26.9293   19.8294 C   0  0  0  0  0  0  0  0  0  0  0  0
  -22.1607  -21.5308   14.4078 C   0  0  0  0  0  0  0  0  0  0  0  0
  -24.4878  -20.5129   13.8484 C   0  0  0  0  0  0  0  0  0  0  0  0
  -21.1963  -28.8814   26.7565 C   0  0  0  0  0  0  0  0  0  0  0  0
  -30.1819  -12.5377   20.3419 C   0  0  0  0  0  0  0  0  0  0  0  0
  -20.5038  -29.5182   25.5558 C   0  0  0  0  0  0  0  0  0  0  0  0
  -28.7292  -12.2116   20.6995 C   0  0  0  0  0  0  0  0  0  0  0  0
  -30.3637  -12.7434   18.8387 C   0  0  0  0  0  0  0  0  0  0  0  0
  -28.0017  -13.3873   18.5847 C   0  0  0  0  0  0  0  0  0  0  0  0
  -19.4289  -28.5876   24.9813 C   0  0  1  0  0  0  0  0  0  0  0  0
  -21.0004  -26.4864   22.2365 C   0  0  1  0  0  0  0  0  0  0  0  0
  -27.7531  -13.2405   20.0946 C   0  0  1  0  0  0  0  0  0  0  0  0
  -28.5544  -29.0296   21.1645 C   0  0  0  0  0  0  0  0  0  0  0  0
  -22.2806  -28.7270   19.0624 C   0  0  0  0  0  0  0  0  0  0  0  0
  -24.6367  -29.4829   18.6809 C   0  0  0  0  0  0  0  0  0  0  0  0
  -23.3680  -30.3122   20.6622 C   0  0  0  0  0  0  0  0  0  0  0  0
  -27.9237  -25.8667   23.1830 C   0  0  0  0  0  0  0  0  0  0  0  0
  -21.4698  -21.5937   16.8625 C   0  0  0  0  0  0  0  0  0  1  0  0
  -24.1731  -27.9159   20.6201 C   0  0  1  0  0  0  0  0  0  0  0  0
  -27.7207  -28.0299   21.9508 C   0  0  2  0  0  0  0  0  0  0  0  0
  -23.6087  -29.0820   19.7603 C   0  0  0  0  0  0  0  0  0  0  0  0
  -25.9556  -11.6040   20.5085 N   0  0  0  0  0  0  0  0  0  0  0  0
  -26.3076  -12.8965   20.4006 N   0  0  0  0  0  0  0  0  0  0  0  0
  -24.5449  -20.0571   15.2451 N   0  0  0  0  0  0  0  0  0  0  0  0
  -21.9549  -27.0012   21.2400 N   0  0  0  0  0  0  0  0  0  0  0  0
  -29.4097  -13.7385   18.3458 N   0  0  0  0  0  0  0  0  0  0  0  0
  -25.4534  -15.1028   20.5159 N   0  0  0  0  0  0  0  0  0  0  0  0
  -21.8268  -12.5375   21.3301 N   0  0  0  0  0  0  0  0  0  0  0  0
  -28.8980  -15.8213   17.3437 N   0  0  0  0  0  0  0  0  0  0  0  0
  -20.0377  -27.5411   24.1884 N   0  0  0  0  0  0  0  0  0  0  0  0
  -25.4164  -28.2329   21.3145 N   0  0  0  0  0  0  0  0  0  0  0  0
  -28.6083  -26.9122   22.3798 N   0  3  0  0  0  0  0  0  0  0  0  0
  -22.6546  -20.4924   12.3086 O   0  0  0  0  0  0  0  0  0  0  0  0
  -30.2633  -17.5234   16.5250 O   0  0  0  0  0  0  0  0  0  0  0  0
  -22.5676  -14.6957   21.1020 O   0  0  0  0  0  0  0  0  0  0  0  0
  -20.2253  -28.7142   22.1856 O   0  0  0  0  0  0  0  0  0  0  0  0
  -23.5354  -27.5165   22.8671 O   0  0  0  0  0  0  0  0  0  0  0  0
  -26.6762  -26.5304   20.3704 O   0  0  0  0  0  0  0  0  0  0  0  0
  -31.0904  -15.1556   17.6045 O   0  0  0  0  0  0  0  0  0  0  0  0
  -21.7043   -6.9703   21.5095 O   0  0  0  0  0  0  0  0  0  0  0  0
  -21.3479  -23.0154   16.8440 O   0  0  0  0  0  0  0  0  0  1  0  0
  -20.2623   -5.6366   26.6618 F   0  0  0  0  0  0  0  0  0  0  0  0
  -26.6806  -16.8566   18.1195 F   0  0  0  0  0  0  0  0  0  0  0  0
  -22.5369   -4.5909   22.6445 F   0  0  0  0  0  0  0  0  0  0  0  0
  1  2  1  0  0  0  0
  1  6  2  0  0  0  0
  2  7  2  0  0  0  0
  3 10  2  0  0  0  0
  3 18  1  0  0  0  0
  4 11  1  0  0  0  0
  4 18  2  0  0  0  0
  5  9  2  0  0  0  0
  5 19  1  0  0  0  0
  6 21  1  0  0  0  0
  7 23  1  0  0  0  0
  8 12  2  0  0  0  0
  8 22  1  0  0  0  0
  9 25  1  0  0  0  0
 10 26  1  0  0  0  0
 11 26  2  0  0  0  0
 12 27  1  0  0  0  0
 13 14  2  0  0  0  0
 13 28  1  0  0  0  0
 14 29  1  0  0  0  0
 15 24  1  0  0  0  0
 15 27  2  0  0  0  0
 16 25  2  0  0  0  0
 16 30  1  0  0  0  0
 17 29  2  0  0  0  0
 17 31  1  0  0  0  0
 18 32  1  0  0  0  0
 19 30  2  0  0  0  0
 19 37  1  0  0  0  0
 20 32  1  0  0  0  0
 20 33  2  0  0  0  0
 20 38  1  0  0  0  0
 21 23  2  0  0  0  0
 21 43  1  0  0  0  0
 22 24  2  0  0  0  0
 22 44  1  0  0  0  0
 23 54  1  0  0  0  0
 24 45  1  0  0  0  0
 25 68  1  0  0  0  0
 26 84  1  0  0  0  0
 27 85  1  0  0  0  0
 28 31  2  0  0  0  0
 28 84  1  0  0  0  0
 29 86  1  0  0  0  0
 30 87  1  0  0  0  0
 31 88  1  0  0  0  0
 32 66  2  0  0  0  0
 33 67  1  0  0  0  0
 33 71  1  0  0  0  0
 34 35  2  0  0  0  0
 34 68  1  0  0  0  0
 35 46  1  0  0  0  0
 35 62  1  0  0  0  0
 36 46  1  0  0  0  0
 36 47  1  0  0  0  0
 36 77  2  0  0  0  0
 37 73  1  0  0  0  0
 37 78  2  0  0  0  0
 38 72  1  0  0  0  0
 38 79  2  0  0  0  0
 39 55  1  0  0  0  0
 39 74  1  0  0  0  0
 39 80  2  0  0  0  0
 40 63  1  0  0  0  0
 40 69  1  0  0  0  0
 40 81  2  0  0  0  0
 41 64  1  0  0  0  0
 41 75  1  0  0  0  0
 41 82  2  0  0  0  0
 42 70  1  0  0  0  0
 42 73  1  0  0  0  0
 42 83  2  0  0  0  0
 43 48  1  0  0  0  0
 44 55  1  0  0  0  0
 45 69  1  0  0  0  0
 47 68  1  0  0  0  0
 48 50  1  0  0  0  0
 49 51  1  0  0  0  0
 49 52  1  0  0  0  0
 50 54  1  0  0  0  0
 51 56  1  0  0  0  0
 52 70  1  0  0  0  0
 53 56  1  0  0  0  0
 53 70  1  0  0  0  0
 54 74  1  0  0  0  0
 55 69  1  0  0  0  0
 56 67  1  0  0  0  0
 57 64  1  0  0  0  0
 58 65  1  0  0  0  0
 59 65  1  0  0  0  0
 60 65  1  0  0  0  0
 61 76  1  0  0  0  0
 62 85  1  0  0  0  0
 63 65  1  0  0  0  0
 63 75  1  0  0  0  0
 64 76  1  0  0  0  0
 66 67  1  0  0  0  0
M  CHG  1  76   1
M  ISO  4  42 100  62 101  73 100  85 101
M  END
> <Batch ID>
0090

> <Smiles>
CNC(C)C(=O)NC(C(=O)N1Cc2cc([101O:1][101CH2:1]C3=CN(c4ccc(C(=O)[100NH:0][100C:0](=O)N5CCCC(n6nc(-c7ccc(Oc8ccc(F)cc8F)cc7)c(C(N)=O)c6N)C5)c(F)c4)CC(=O)C3)ccc2CC1C(=O)NC1CCCc2ccccc21)C(C)(C)C

> <Shape>
0.243

> <Color>
0.177

> <Negative vol penalty>
0.000

$$$$

  -OEChem-04052300293D

 80 88  0     1  0  0  0  0  0999 V2000
  -23.2402  -35.1840   20.8352 C   0  0  0  0  0  0  0  0  0  0  0  0
  -24.2015  -34.1788   20.8635 C   0  0  0  0  0  0  0  0  0  0  0  0
  -25.0327  -16.4527   20.9853 C   0  0  0  0  0  0  0  0  0  0  0  0
  -26.9180  -16.0049   22.4283 C   0  0  0  0  0  0  0  0  0  0  0  0
  -22.0593  -35.0382   21.5620 C   0  0  0  0  0  0  0  0  0  0  0  0
  -23.9831  -33.0277   21.6195 C   0  0  0  0  0  0  0  0  0  0  0  0
  -25.2055  -28.7985   19.1166 C   0  0  0  0  0  0  0  0  0  0  0  0
  -25.1677  -15.1865   20.4160 C   0  0  0  0  0  0  0  0  0  0  0  0
  -27.0529  -14.7386   21.8590 C   0  0  0  0  0  0  0  0  0  0  0  0
  -26.5596  -28.4773   19.0323 C   0  0  0  0  0  0  0  0  0  0  0  0
  -28.3299  -13.4033   19.0275 C   0  0  0  0  0  0  0  0  0  0  0  0
  -29.6135  -12.9825   18.6801 C   0  0  0  0  0  0  0  0  0  0  0  0
  -31.3866  -23.7269   17.9290 C   0  0  0  0  0  0  0  0  0  0  0  0
  -31.3017  -22.3149   17.8828 C   0  0  0  0  0  0  0  0  0  0  0  0
  -26.2898  -26.8934   20.8316 C   0  0  0  0  0  0  0  0  0  0  0  0
  -29.4055  -11.1048   20.1861 C   0  0  0  0  0  0  0  0  0  0  0  0
  -25.9079  -16.8619   21.9914 C   0  0  0  0  0  0  0  0  0  0  0  0
  -24.9942  -18.5200   23.7013 C   0  0  0  0  0  0  0  0  0  0  0  0
  -21.8220  -33.8805   22.3197 C   0  0  0  0  0  0  0  0  0  0  0  0
  -24.3844  -28.1763   20.0680 C   0  0  0  0  0  0  0  0  0  0  0  0
  -22.7985  -32.8669   22.3582 C   0  0  0  0  0  0  0  0  0  0  0  0
  -24.9251  -27.2065   20.9243 C   0  0  0  0  0  0  0  0  0  0  0  0
  -26.1777  -14.3295   20.8528 C   0  0  0  0  0  0  0  0  0  0  0  0
  -27.1026  -27.5268   19.8918 C   0  0  0  0  0  0  0  0  0  0  0  0
  -27.5841  -12.6750   19.9544 C   0  0  0  0  0  0  0  0  0  0  0  0
  -30.1513  -11.8332   19.2593 C   0  0  0  0  0  0  0  0  0  0  0  0
  -28.1219  -11.5257   20.5336 C   0  0  0  0  0  0  0  0  0  0  0  0
  -25.7694  -18.1700   22.5795 C   0  0  0  0  0  0  0  0  0  0  0  0
  -30.2530  -24.1567   18.5787 C   0  0  0  0  0  0  0  0  0  0  0  0
  -25.1996  -19.8695   23.8531 C   0  0  0  0  0  0  0  0  0  0  0  0
  -30.1224  -21.9824   18.5078 C   0  0  0  0  0  0  0  0  0  0  0  0
  -29.8693  -25.5462   18.8799 C   0  0  0  0  0  0  0  0  0  0  0  0
  -28.7614  -25.9172   19.5336 C   0  0  0  0  0  0  0  0  0  1  0  0
  -24.1628  -17.6986   24.5318 C   0  0  0  0  0  0  0  0  0  0  0  0
  -22.6659  -29.1791   22.5469 C   0  0  0  0  0  0  0  0  0  0  0  0
  -21.6833  -26.0885   22.6181 C   0  0  0  0  0  0  0  0  0  0  0  0
  -22.3144  -22.8288   21.8288 C   0  0  0  0  0  0  0  0  0  0  0  0
  -28.2658  -20.6120   19.4369 C   0  0  0  0  0  0  0  0  0  0  0  0
  -20.5512  -33.7888   23.1267 C   0  0  0  0  0  0  0  0  0  0  0  0
  -22.9199  -28.5144   20.1283 C   0  0  0  0  0  0  0  0  0  0  0  0
  -24.0819  -26.4950   21.9495 C   0  0  0  0  0  0  0  0  0  0  0  0
  -20.2331  -32.3740   23.6033 C   0  0  0  0  0  0  0  0  0  0  0  0
  -29.1492  -21.4332   22.7784 C   0  0  0  0  0  0  0  0  0  0  0  0
  -21.4762  -31.7182   24.1961 C   0  0  0  0  0  0  0  0  0  0  0  0
  -27.8529  -21.9419   23.4036 C   0  0  0  0  0  0  0  0  0  0  0  0
  -29.2676  -21.8706   21.3252 C   0  0  0  0  0  0  0  0  0  0  0  0
  -26.8013  -21.9236   21.0665 C   0  0  0  0  0  0  0  0  0  0  0  0
  -22.5873  -31.5926   23.1467 C   0  0  1  0  0  0  0  0  0  0  0  0
  -22.2875  -28.1924   21.4788 C   0  0  1  0  0  0  0  0  0  0  0  0
  -26.6010  -21.6238   22.5677 C   0  0  1  0  0  0  0  0  0  0  0  0
  -29.5862  -19.4055   16.6690 C   0  0  0  0  0  0  0  0  0  0  0  0
  -21.3442  -20.5251   22.0497 C   0  0  0  0  0  0  0  0  0  0  0  0
  -22.5136  -26.0230   25.5535 C   0  0  0  0  0  0  0  0  0  0  0  0
  -22.4240  -23.5231   25.4509 C   0  0  0  0  0  0  0  0  0  0  0  0
  -20.3564  -24.8608   25.0534 C   0  0  0  0  0  0  0  0  0  0  0  0
  -22.1657  -22.4839   18.8932 C   0  0  0  0  0  0  0  0  0  0  0  0
  -30.0488  -19.5134   18.1079 C   0  0  0  0  0  0  0  0  0  0  0  0
  -22.1690  -24.8275   23.2912 C   0  0  1  0  0  0  0  0  0  0  0  0
  -21.4504  -21.7651   21.1758 C   0  0  2  0  0  0  0  0  0  0  0  0
  -21.8823  -24.8232   24.8193 C   0  0  0  0  0  0  0  0  0  0  0  0
  -26.4187  -19.2131   22.0557 N   0  0  0  0  0  0  0  0  0  0  0  0
  -26.0519  -20.2318   22.8518 N   0  0  0  0  0  0  0  0  0  0  0  0
  -22.6570  -26.8647   21.9737 N   0  0  0  0  0  0  0  0  0  0  0  0
  -28.0984  -21.4655   20.5464 N   0  0  0  0  0  0  0  0  0  0  0  0
  -24.7325  -20.7698   24.7440 N   0  0  0  0  0  0  0  0  0  0  0  0
  -24.0642  -16.3323   24.2354 N   0  0  0  0  0  0  0  0  0  0  0  0
  -22.3180  -30.4844   22.2557 N   0  0  0  0  0  0  0  0  0  0  0  0
  -21.5606  -23.7174   22.5660 N   0  0  0  0  0  0  0  0  0  0  0  0
  -29.5024  -20.7045   18.7650 N   0  0  0  0  0  0  0  0  0  0  0  0
  -22.0264  -21.3653   19.8607 N   0  3  0  0  0  0  0  0  0  0  0  0
  -23.5133  -18.1656   25.4980 O   0  0  0  0  0  0  0  0  0  0  0  0
  -23.2302  -28.7852   23.5608 O   0  0  0  0  0  0  0  0  0  0  0  0
  -20.4831  -26.3706   22.6564 O   0  0  0  0  0  0  0  0  0  0  0  0
  -23.5362  -22.8655   21.7010 O   0  0  0  0  0  0  0  0  0  0  0  0
  -27.3856  -19.8197   19.0808 O   0  0  0  0  0  0  0  0  0  0  0  0
  -29.4771  -23.0995   18.9350 O   0  0  0  0  0  0  0  0  0  0  0  0
  -26.3095  -13.0937   20.2977 O   0  0  0  0  0  0  0  0  0  0  0  0
  -28.4241  -27.2120   19.8120 O   0  0  0  0  0  0  0  0  0  1  0  0
  -31.3834  -11.4283   18.9244 F   0  0  0  0  0  0  0  0  0  0  0  0
  -27.4097  -10.8212   21.4238 F   0  0  0  0  0  0  0  0  0  0  0  0
  1  2  1  0  0  0  0
  1  5  2  0  0  0  0
  2  6  2  0  0  0  0
  3  8  2  0  0  0  0
  3 17  1  0  0  0  0
  4  9  1  0  0  0  0
  4 17  2  0  0  0  0
  5 19  1  0  0  0  0
  6 21  1  0  0  0  0
  7 10  2  0  0  0  0
  7 20  1  0  0  0  0
  8 23  1  0  0  0  0
  9 23  2  0  0  0  0
 10 24  1  0  0  0  0
 11 12  2  0  0  0  0
 11 25  1  0  0  0  0
 12 26  1  0  0  0  0
 13 14  1  0  0  0  0
 13 29  2  0  0  0  0
 14 31  2  0  0  0  0
 15 22  1  0  0  0  0
 15 24  2  0  0  0  0
 16 26  2  0  0  0  0
 16 27  1  0  0  0  0
 17 28  1  0  0  0  0
 18 28  1  0  0  0  0
 18 30  2  0  0  0  0
 18 34  1  0  0  0  0
 19 21  2  0  0  0  0
 19 39  1  0  0  0  0
 20 22  2  0  0  0  0
 20 40  1  0  0  0  0
 21 48  1  0  0  0  0
 22 41  1  0  0  0  0
 23 77  1  0  0  0  0
 24 78  1  0  0  0  0
 25 27  2  0  0  0  0
 25 77  1  0  0  0  0
 26 79  1  0  0  0  0
 27 80  1  0  0  0  0
 28 61  2  0  0  0  0
 29 32  1  0  0  0  0
 29 76  1  0  0  0  0
 30 62  1  0  0  0  0
 30 65  1  0  0  0  0
 31 69  1  0  0  0  0
 31 76  1  0  0  0  0
 32 33  2  0  0  0  0
 33 78  1  0  0  0  0
 34 66  1  0  0  0  0
 34 71  2  0  0  0  0
 35 49  1  0  0  0  0
 35 67  1  0  0  0  0
 35 72  2  0  0  0  0
 36 58  1  0  0  0  0
 36 63  1  0  0  0  0
 36 73  2  0  0  0  0
 37 59  1  0  0  0  0
 37 68  1  0  0  0  0
 37 74  2  0  0  0  0
 38 64  1  0  0  0  0
 38 69  1  0  0  0  0
 38 75  2  0  0  0  0
 39 42  1  0  0  0  0
 40 49  1  0  0  0  0
 41 63  1  0  0  0  0
 42 44  1  0  0  0  0
 43 45  1  0  0  0  0
 43 46  1  0  0  0  0
 44 48  1  0  0  0  0
 45 50  1  0  0  0  0
 46 64  1  0  0  0  0
 47 50  1  0  0  0  0
 47 64  1  0  0  0  0
 48 67  1  0  0  0  0
 49 63  1  0  0  0  0
 50 62  1  0  0  0  0
 51 57  1  0  0  0  0
 52 59  1  0  0  0  0
 53 60  1  0  0  0  0
 54 60  1  0  0  0  0
 55 60  1  0  0  0  0
 56 70  1  0  0  0  0
 57 69  1  0  0  0  0
 58 60  1  0  0  0  0
 58 68  1  0  0  0  0
 59 70  1  0  0  0  0
 61 62  1  0  0  0  0
M  CHG  1  70   1
M  ISO  4  33 101  38 100  69 100  78 101
M  END
> <Batch ID>
0090

> <Smiles>
CC[100N:0](c1ccc(C=[101CH:1][101O:1]c2ccc3c(c2)CN(C(=O)C(NC(=O)C(C)NC)C(C)(C)C)C(C(=O)NC2CCCc4ccccc42)C3)o1)[100C:0](=O)N1CCCC(n2nc(-c3ccc(Oc4ccc(F)cc4F)cc3)c(C(N)=O)c2N)C1

> <Shape>
0.206

> <Color>
0.084

> <Negative vol penalty>
0.000

$$$$

  -OEChem-04052300293D

 84 92  0     1  0  0  0  0  0999 V2000
  -20.0584  -32.8823   15.3069 C   0  0  0  0  0  0  0  0  0  0  0  0
  -21.0164  -31.8826   15.4416 C   0  0  0  0  0  0  0  0  0  0  0  0
  -23.9697   -9.6134   21.8848 C   0  0  0  0  0  0  0  0  0  0  0  0
  -24.6592  -11.0072   23.7338 C   0  0  0  0  0  0  0  0  0  0  0  0
  -31.0472  -19.9826   19.7504 C   0  0  0  0  0  0  0  0  0  0  0  0
  -20.1773  -34.0632   16.0386 C   0  0  0  0  0  0  0  0  0  0  0  0
  -22.0945  -32.0636   16.3072 C   0  0  0  0  0  0  0  0  0  0  0  0
  -24.8819  -27.7664   19.6644 C   0  0  0  0  0  0  0  0  0  0  0  0
  -30.7381  -18.6444   19.5075 C   0  0  0  0  0  0  0  0  0  0  0  0
  -23.5633   -8.6251   22.7813 C   0  0  0  0  0  0  0  0  0  0  0  0
  -24.2527  -10.0190   24.6303 C   0  0  0  0  0  0  0  0  0  0  0  0
  -26.0519  -27.0343   19.4670 C   0  0  0  0  0  0  0  0  0  0  0  0
  -20.9181   -8.0301   24.8016 C   0  0  0  0  0  0  0  0  0  0  0  0
  -19.6816   -7.4234   24.5808 C   0  0  0  0  0  0  0  0  0  0  0  0
  -27.2654  -28.6204   20.8200 C   0  0  0  0  0  0  0  0  0  0  0  0
  -28.3957  -19.1219   19.8572 C   0  0  0  0  0  0  0  0  0  0  0  0
  -20.7715   -5.2770   24.3751 C   0  0  0  0  0  0  0  0  0  0  0  0
  -24.5177  -10.8044   22.3610 C   0  0  0  0  0  0  0  0  0  0  0  0
  -30.0306  -20.8906   20.0467 C   0  0  0  0  0  0  0  0  0  0  0  0
  -24.1620  -12.8841   20.9271 C   0  0  0  0  0  0  0  0  0  0  0  0
  -21.2522  -34.2548   16.9209 C   0  0  0  0  0  0  0  0  0  0  0  0
  -24.8971  -28.9389   20.4334 C   0  0  0  0  0  0  0  0  0  0  0  0
  -22.2285  -33.2486   17.0504 C   0  0  0  0  0  0  0  0  0  0  0  0
  -26.0938  -29.3642   21.0278 C   0  0  0  0  0  0  0  0  0  0  0  0
  -29.4124  -18.2140   19.5608 C   0  0  0  0  0  0  0  0  0  0  0  0
  -23.7047   -8.8279   24.1540 C   0  0  0  0  0  0  0  0  0  0  0  0
  -27.2445  -27.4629   20.0424 C   0  0  0  0  0  0  0  0  0  0  0  0
  -22.0813   -7.2602   24.8091 C   0  0  0  0  0  0  0  0  0  0  0  0
  -19.6083   -6.0469   24.3676 C   0  0  0  0  0  0  0  0  0  0  0  0
  -28.7049  -20.4602   20.1001 C   0  0  0  0  0  0  0  0  0  0  0  0
  -22.0080   -5.8837   24.5959 C   0  0  0  0  0  0  0  0  0  0  0  0
  -24.9383  -11.8255   21.4354 C   0  0  0  0  0  0  0  0  0  0  0  0
  -25.0153  -13.5670   20.0952 C   0  0  0  0  0  0  0  0  0  0  0  0
  -30.3648  -22.3140   20.3074 C   0  0  0  0  0  0  0  0  0  0  0  0
  -22.7920  -13.2202   21.1840 C   0  0  0  0  0  0  0  0  0  0  0  0
  -24.2758  -32.0037   19.8632 C   0  0  0  0  0  0  0  0  0  0  0  0
  -24.6968  -32.2825   23.0674 C   0  0  0  0  0  0  0  0  0  0  0  0
  -29.4887  -24.6169   20.1511 C   0  0  0  0  0  0  0  0  0  0  0  0
  -26.0814  -31.0363   25.9269 C   0  0  0  0  0  0  0  0  0  0  0  0
  -29.9872  -15.8247   19.0064 C   0  0  0  0  0  0  0  0  0  0  0  0
  -21.3636  -35.5675   17.6550 C   0  0  0  0  0  0  0  0  0  0  0  0
  -23.6211  -29.7027   20.6589 C   0  0  0  0  0  0  0  0  0  0  0  0
  -26.1593  -30.6051   21.8788 C   0  0  0  0  0  0  0  0  0  0  0  0
  -22.3349  -35.5266   18.8320 C   0  0  0  0  0  0  0  0  0  0  0  0
  -29.6125  -12.3422   18.3668 C   0  0  0  0  0  0  0  0  0  0  0  0
  -23.6401  -34.8508   18.4238 C   0  0  0  0  0  0  0  0  0  0  0  0
  -28.2992  -11.9844   19.0663 C   0  0  0  0  0  0  0  0  0  0  0  0
  -30.4099  -13.3804   19.1542 C   0  0  0  0  0  0  0  0  0  0  0  0
  -28.3542  -14.2399   20.2051 C   0  0  0  0  0  0  0  0  0  0  0  0
  -23.3991  -33.3975   17.9979 C   0  0  1  0  0  0  0  0  0  0  0  0
  -23.8570  -31.1622   21.0354 C   0  0  1  0  0  0  0  0  0  0  0  0
  -27.4857  -13.2457   19.4171 C   0  0  2  0  0  0  0  0  0  0  0  0
  -26.2816  -31.5031   28.3844 C   0  0  0  0  0  0  0  0  0  0  0  0
  -26.7371  -34.4745   22.4824 C   0  0  0  0  0  0  0  0  0  0  0  0
  -27.5698  -34.2296   24.8308 C   0  0  0  0  0  0  0  0  0  0  0  0
  -25.2188  -34.9505   24.4118 C   0  0  0  0  0  0  0  0  0  0  0  0
  -24.7442  -28.4933   26.6369 C   0  0  0  0  0  0  0  0  0  0  0  0
  -28.2524  -25.3424   19.6632 C   0  0  0  0  0  0  0  0  0  1  0  0
  -25.8759  -32.5492   23.9716 C   0  0  1  0  0  0  0  0  0  0  0  0
  -25.4930  -30.7813   27.3028 C   0  0  2  0  0  0  0  0  0  0  0  0
  -26.3499  -34.0286   23.9066 C   0  0  0  0  0  0  0  0  0  0  0  0
  -26.1886  -11.8311   20.9656 N   0  0  0  0  0  0  0  0  0  0  0  0
  -26.2044  -12.9016   20.1533 N   0  0  0  0  0  0  0  0  0  0  0  0
  -24.8864  -31.3211   22.0646 N   0  0  0  0  0  0  0  0  0  0  0  0
  -29.5765  -14.5487   19.4467 N   0  0  0  0  0  0  0  0  0  0  0  0
  -24.8569  -14.6657   19.3270 N   0  0  0  0  0  0  0  0  0  0  0  0
  -22.0598  -12.4126   22.0649 N   0  0  0  0  0  0  0  0  0  0  0  0
  -29.0986  -16.8544   19.3141 N   0  0  0  0  0  0  0  0  0  0  0  0
  -29.3818  -23.2385   19.9587 N   0  0  0  0  0  0  0  0  0  0  0  0
  -23.2210  -32.5532   19.1597 N   0  0  0  0  0  0  0  0  0  0  0  0
  -25.4771  -32.1075   25.3036 N   0  0  0  0  0  0  0  0  0  0  0  0
  -25.5030  -29.3226   27.6082 N   0  3  0  0  0  0  0  0  0  0  0  0
  -31.4438  -22.5897   20.8250 O   0  0  0  0  0  0  0  0  0  0  0  0
  -22.2291  -14.1979   20.6356 O   0  0  0  0  0  0  0  0  0  0  0  0
  -25.4677  -32.1451   19.6161 O   0  0  0  0  0  0  0  0  0  0  0  0
  -23.6439  -32.8991   23.2489 O   0  0  0  0  0  0  0  0  0  0  0  0
  -30.4489  -25.1997   20.6470 O   0  0  0  0  0  0  0  0  0  0  0  0
  -26.9891  -30.3559   25.4540 O   0  0  0  0  0  0  0  0  0  0  0  0
  -31.0358  -15.9877   18.3772 O   0  0  0  0  0  0  0  0  0  0  0  0
  -23.3080   -7.8639   25.0291 O   0  0  0  0  0  0  0  0  0  0  0  0
  -28.3880  -26.7505   19.8508 O   0  0  0  0  0  0  0  0  0  1  0  0
  -18.4207   -5.4642   24.1572 F   0  0  0  0  0  0  0  0  0  0  0  0
  -27.7196  -21.3239   20.3844 F   0  0  0  0  0  0  0  0  0  0  0  0
  -23.1219   -5.1388   24.6031 F   0  0  0  0  0  0  0  0  0  0  0  0
  1  2  1  0  0  0  0
  1  6  2  0  0  0  0
  2  7  2  0  0  0  0
  3 10  2  0  0  0  0
  3 18  1  0  0  0  0
  4 11  1  0  0  0  0
  4 18  2  0  0  0  0
  5  9  2  0  0  0  0
  5 19  1  0  0  0  0
  6 21  1  0  0  0  0
  7 23  1  0  0  0  0
  8 12  2  0  0  0  0
  8 22  1  0  0  0  0
  9 25  1  0  0  0  0
 10 26  1  0  0  0  0
 11 26  2  0  0  0  0
 12 27  1  0  0  0  0
 13 14  2  0  0  0  0
 13 28  1  0  0  0  0
 14 29  1  0  0  0  0
 15 24  1  0  0  0  0
 15 27  2  0  0  0  0
 16 25  2  0  0  0  0
 16 30  1  0  0  0  0
 17 29  2  0  0  0  0
 17 31  1  0  0  0  0
 18 32  1  0  0  0  0
 19 30  2  0  0  0  0
 19 34  1  0  0  0  0
 20 32  1  0  0  0  0
 20 33  2  0  0  0  0
 20 35  1  0  0  0  0
 21 23  2  0  0  0  0
 21 41  1  0  0  0  0
 22 24  2  0  0  0  0
 22 42  1  0  0  0  0
 23 50  1  0  0  0  0
 24 43  1  0  0  0  0
 25 68  1  0  0  0  0
 26 80  1  0  0  0  0
 27 81  1  0  0  0  0
 28 31  2  0  0  0  0
 28 80  1  0  0  0  0
 29 82  1  0  0  0  0
 30 83  1  0  0  0  0
 31 84  1  0  0  0  0
 32 62  2  0  0  0  0
 33 63  1  0  0  0  0
 33 66  1  0  0  0  0
 34 69  1  0  0  0  0
 34 73  2  0  0  0  0
 35 67  1  0  0  0  0
 35 74  2  0  0  0  0
 36 51  1  0  0  0  0
 36 70  1  0  0  0  0
 36 75  2  0  0  0  0
 37 59  1  0  0  0  0
 37 64  1  0  0  0  0
 37 76  2  0  0  0  0
 38 58  1  0  0  0  0
 38 69  1  0  0  0  0
 38 77  2  0  0  0  0
 39 60  1  0  0  0  0
 39 71  1  0  0  0  0
 39 78  2  0  0  0  0
 40 65  1  0  0  0  0
 40 68  1  0  0  0  0
 40 79  2  0  0  0  0
 41 44  1  0  0  0  0
 42 51  1  0  0  0  0
 43 64  1  0  0  0  0
 44 46  1  0  0  0  0
 45 47  1  0  0  0  0
 45 48  1  0  0  0  0
 46 50  1  0  0  0  0
 47 52  1  0  0  0  0
 48 65  1  0  0  0  0
 49 52  1  0  0  0  0
 49 65  1  0  0  0  0
 50 70  1  0  0  0  0
 51 64  1  0  0  0  0
 52 63  1  0  0  0  0
 53 60  1  0  0  0  0
 54 61  1  0  0  0  0
 55 61  1  0  0  0  0
 56 61  1  0  0  0  0
 57 72  1  0  0  0  0
 58 81  1  0  0  0  0
 59 61  1  0  0  0  0
 59 71  1  0  0  0  0
 60 72  1  0  0  0  0
 62 63  1  0  0  0  0
M  CHG  1  72   1
M  ISO  4  40 100  58 101  68 100  81 101
M  END
> <Batch ID>
0090

> <Smiles>
CNC(C)C(=O)NC(C(=O)N1Cc2cc([101O:1][101CH2:1]C(=O)NC(=O)c3ccc([100NH:0][100C:0](=O)N4CCCC(n5nc(-c6ccc(Oc7ccc(F)cc7F)cc6)c(C(N)=O)c5N)C4)cc3F)ccc2CC1C(=O)NC1CCCc2ccccc21)C(C)(C)C

> <Shape>
0.338

> <Color>
0.165

> <Negative vol penalty>
0.000

$$$$

  -OEChem-04052300293D

 88 97  0     1  0  0  0  0  0999 V2000
  -29.4226  -37.2960   22.2667 C   0  0  0  0  0  0  0  0  0  0  0  0
  -29.4553  -36.2953   21.3008 C   0  0  0  0  0  0  0  0  0  0  0  0
  -24.0559   -5.8628   21.9765 C   0  0  0  0  0  0  0  0  0  0  0  0
  -22.2211   -6.2354   20.4494 C   0  0  0  0  0  0  0  0  0  0  0  0
  -29.3137  -18.8829   21.3808 C   0  0  0  0  0  0  0  0  0  0  0  0
  -29.0603  -17.5128   21.3148 C   0  0  0  0  0  0  0  0  0  0  0  0
  -29.0282  -36.9933   23.5693 C   0  0  0  0  0  0  0  0  0  0  0  0
  -29.0947  -34.9910   21.6373 C   0  0  0  0  0  0  0  0  0  0  0  0
  -25.9939  -29.1624   18.8571 C   0  0  0  0  0  0  0  0  0  0  0  0
  -23.3063   -4.8917   22.6402 C   0  0  0  0  0  0  0  0  0  0  0  0
  -21.4715   -5.2642   21.1131 C   0  0  0  0  0  0  0  0  0  0  0  0
  -26.2205  -27.7967   18.6922 C   0  0  0  0  0  0  0  0  0  0  0  0
  -22.4495   -1.6546   22.1709 C   0  0  0  0  0  0  0  0  0  0  0  0
  -23.0840   -0.4555   22.4953 C   0  0  0  0  0  0  0  0  0  0  0  0
  -29.8223  -18.9025   19.0190 C   0  0  0  0  0  0  0  0  0  0  0  0
  -25.4799  -27.4068   20.9547 C   0  0  0  0  0  0  0  0  0  0  0  0
  -22.6448   -0.8567   24.8370 C   0  0  0  0  0  0  0  0  0  0  0  0
  -23.5133   -6.5347   20.8811 C   0  0  0  0  0  0  0  0  0  0  0  0
  -29.6946  -19.5777   20.2328 C   0  0  0  0  0  0  0  0  0  0  0  0
  -29.1879  -16.8376   20.1010 C   0  0  0  0  0  0  0  0  0  0  0  0
  -25.1552   -7.3442   19.1045 C   0  0  0  0  0  0  0  0  0  0  0  0
  -28.6532  -35.6866   23.9196 C   0  0  0  0  0  0  0  0  0  0  0  0
  -25.5180  -29.6627   20.0776 C   0  0  0  0  0  0  0  0  0  0  0  0
  -28.6962  -34.6703   22.9461 C   0  0  0  0  0  0  0  0  0  0  0  0
  -25.2456  -28.7790   21.1316 C   0  0  0  0  0  0  0  0  0  0  0  0
  -22.0141   -4.5923   22.2085 C   0  0  0  0  0  0  0  0  0  0  0  0
  -25.9663  -26.9190   19.7420 C   0  0  0  0  0  0  0  0  0  0  0  0
  -21.9127   -2.4548   23.1796 C   0  0  0  0  0  0  0  0  0  0  0  0
  -23.1816   -0.0565   23.8284 C   0  0  0  0  0  0  0  0  0  0  0  0
  -29.5689  -17.5324   18.9530 C   0  0  0  0  0  0  0  0  0  0  0  0
  -22.0104   -2.0558   24.5126 C   0  0  0  0  0  0  0  0  0  0  0  0
  -24.2869   -7.5384   20.1954 C   0  0  0  0  0  0  0  0  0  0  0  0
  -25.6413   -8.5981   18.8251 C   0  0  0  0  0  0  0  0  0  0  0  0
  -27.7506  -23.8080   19.7856 C   0  0  0  0  0  0  0  0  0  0  0  0
  -29.0918  -23.3077   20.1352 C   0  0  0  0  0  0  0  0  0  0  0  0
  -28.9228  -15.4085   20.0371 C   0  0  0  0  0  0  0  0  0  0  0  0
  -27.4233  -25.0962   19.9013 C   0  0  0  0  0  0  0  0  0  1  0  0
  -28.0368  -14.7414   20.8066 C   0  0  0  0  0  0  0  0  0  0  0  0
  -29.9631  -21.0252   20.3029 C   0  0  0  0  0  0  0  0  0  0  0  0
  -25.4922   -6.1383   18.4060 C   0  0  0  0  0  0  0  0  0  0  0  0
  -27.8738  -13.2864   20.6144 C   0  0  0  0  0  0  0  0  0  0  0  0
  -26.6389  -31.6773   22.2660 C   0  0  0  0  0  0  0  0  0  0  0  0
  -23.6959  -31.2832   23.5722 C   0  0  0  0  0  0  0  0  0  0  0  0
  -20.9103  -29.3398   23.9045 C   0  0  0  0  0  0  0  0  0  0  0  0
  -28.2794  -35.3980   25.3519 C   0  0  0  0  0  0  0  0  0  0  0  0
  -25.2533  -31.1355   20.2306 C   0  0  0  0  0  0  0  0  0  0  0  0
  -24.7147  -29.2632   22.4553 C   0  0  0  0  0  0  0  0  0  0  0  0
  -26.8813  -22.6801   19.3342 C   0  0  0  0  0  0  0  0  0  0  0  0
  -27.5533  -34.0678   25.5357 C   0  0  0  0  0  0  0  0  0  0  0  0
  -24.2140  -13.1419   20.4827 C   0  0  0  0  0  0  0  0  0  0  0  0
  -28.2698  -32.9586   24.7721 C   0  0  0  0  0  0  0  0  0  0  0  0
  -23.9840  -11.6385   20.3537 C   0  0  0  0  0  0  0  0  0  0  0  0
  -27.5967  -21.4305   19.8334 C   0  0  0  0  0  0  0  0  0  0  0  0
  -25.4342  -13.4616   21.3450 C   0  0  0  0  0  0  0  0  0  0  0  0
  -26.4512  -11.2793   20.7589 C   0  0  0  0  0  0  0  0  0  0  0  0
  -28.2885  -33.2485   23.2664 C   0  0  1  0  0  0  0  0  0  0  0  0
  -25.2555  -31.5950   21.6853 C   0  0  1  0  0  0  0  0  0  0  0  0
  -25.2562  -10.9338   19.8567 C   0  0  1  0  0  0  0  0  0  0  0  0
  -18.6884  -29.2645   25.0684 C   0  0  0  0  0  0  0  0  0  0  0  0
  -25.0912  -30.5423   26.1826 C   0  0  0  0  0  0  0  0  0  0  0  0
  -22.9242  -29.5802   26.9867 C   0  0  0  0  0  0  0  0  0  0  0  0
  -23.0855  -32.0115   26.4523 C   0  0  0  0  0  0  0  0  0  0  0  0
  -19.4371  -29.2901   21.3382 C   0  0  0  0  0  0  0  0  0  0  0  0
  -23.0879  -30.3255   24.5683 C   0  0  1  0  0  0  0  0  0  0  0  0
  -19.4324  -29.6726   23.8064 C   0  0  2  0  0  0  0  0  0  0  0  0
  -23.5590  -30.6057   26.0233 C   0  0  0  0  0  0  0  0  0  0  0  0
  -24.2231   -8.8151   20.5828 N   0  0  0  0  0  0  0  0  0  0  0  0
  -25.0576   -9.4345   19.7306 N   0  0  0  0  0  0  0  0  0  0  0  0
  -28.9748  -21.8800   20.0978 N   0  0  0  0  0  0  0  0  0  0  0  0
  -26.6246  -12.7307   20.8854 N   0  0  0  0  0  0  0  0  0  0  0  0
  -24.4780  -30.7127   22.5579 N   0  0  0  0  0  0  0  0  0  0  0  0
  -26.5068   -9.0558   17.8957 N   0  0  0  0  0  0  0  0  0  0  0  0
  -24.9021   -4.9374   18.8232 N   0  0  0  0  0  0  0  0  0  0  0  0
  -27.0018  -32.9456   22.6773 N   0  0  0  0  0  0  0  0  0  0  0  0
  -21.6432  -30.4057   24.3821 N   0  0  0  0  0  0  0  0  0  0  0  0
  -31.1942  -21.4491   20.5732 N   0  3  0  0  0  0  0  0  0  0  0  0
  -18.8176  -28.9640   22.6485 N   0  3  0  0  0  0  0  0  0  0  0  0
  -30.1075  -23.9192   20.3994 O   0  0  0  0  0  0  0  0  0  0  0  0
  -26.3055   -6.1234   17.4511 O   0  0  0  0  0  0  0  0  0  0  0  0
  -28.8565  -12.6500   20.2297 O   0  0  0  0  0  0  0  0  0  0  0  0
  -27.3256  -30.6649   22.3369 O   0  0  0  0  0  0  0  0  0  0  0  0
  -23.4789  -32.4922   23.6855 O   0  0  0  0  0  0  0  0  0  0  0  0
  -21.3682  -28.2428   23.5924 O   0  0  0  0  0  0  0  0  0  0  0  0
  -21.2824   -3.6446   22.8558 O   0  0  0  0  0  0  0  0  0  0  0  0
  -26.1873  -25.5856   19.5840 O   0  0  0  0  0  0  0  0  0  1  0  0
  -23.7896    1.0957   24.1396 F   0  0  0  0  0  0  0  0  0  0  0  0
  -29.6962  -16.8969   17.7790 F   0  0  0  0  0  0  0  0  0  0  0  0
  -21.4956   -2.8198   25.4858 F   0  0  0  0  0  0  0  0  0  0  0  0
  1  2  1  0  0  0  0
  1  7  2  0  0  0  0
  2  8  2  0  0  0  0
  3 10  2  0  0  0  0
  3 18  1  0  0  0  0
  4 11  1  0  0  0  0
  4 18  2  0  0  0  0
  5  6  2  0  0  0  0
  5 19  1  0  0  0  0
  6 20  1  0  0  0  0
  7 22  1  0  0  0  0
  8 24  1  0  0  0  0
  9 12  2  0  0  0  0
  9 23  1  0  0  0  0
 10 26  1  0  0  0  0
 11 26  2  0  0  0  0
 12 27  1  0  0  0  0
 13 14  2  0  0  0  0
 13 28  1  0  0  0  0
 14 29  1  0  0  0  0
 15 19  2  0  0  0  0
 15 30  1  0  0  0  0
 16 25  1  0  0  0  0
 16 27  2  0  0  0  0
 17 29  2  0  0  0  0
 17 31  1  0  0  0  0
 18 32  1  0  0  0  0
 19 39  1  0  0  0  0
 20 30  2  0  0  0  0
 20 36  1  0  0  0  0
 21 32  1  0  0  0  0
 21 33  2  0  0  0  0
 21 40  1  0  0  0  0
 22 24  2  0  0  0  0
 22 45  1  0  0  0  0
 23 25  2  0  0  0  0
 23 46  1  0  0  0  0
 24 56  1  0  0  0  0
 25 47  1  0  0  0  0
 26 84  1  0  0  0  0
 27 85  1  0  0  0  0
 28 31  2  0  0  0  0
 28 84  1  0  0  0  0
 29 86  1  0  0  0  0
 30 87  1  0  0  0  0
 31 88  1  0  0  0  0
 32 67  2  0  0  0  0
 33 68  1  0  0  0  0
 33 72  1  0  0  0  0
 34 35  1  0  0  0  0
 34 37  2  0  0  0  0
 34 48  1  0  0  0  0
 35 69  1  0  0  0  0
 35 78  2  0  0  0  0
 36 38  2  0  0  0  0
 37 85  1  0  0  0  0
 38 41  1  0  0  0  0
 39 69  1  0  0  0  0
 39 76  2  0  0  0  0
 40 73  1  0  0  0  0
 40 79  2  0  0  0  0
 41 70  1  0  0  0  0
 41 80  2  0  0  0  0
 42 57  1  0  0  0  0
 42 74  1  0  0  0  0
 42 81  2  0  0  0  0
 43 64  1  0  0  0  0
 43 71  1  0  0  0  0
 43 82  2  0  0  0  0
 44 65  1  0  0  0  0
 44 75  1  0  0  0  0
 44 83  2  0  0  0  0
 45 49  1  0  0  0  0
 46 57  1  0  0  0  0
 47 71  1  0  0  0  0
 48 53  1  0  0  0  0
 49 51  1  0  0  0  0
 50 52  1  0  0  0  0
 50 54  1  0  0  0  0
 51 56  1  0  0  0  0
 52 58  1  0  0  0  0
 53 69  1  0  0  0  0
 54 70  1  0  0  0  0
 55 58  1  0  0  0  0
 55 70  1  0  0  0  0
 56 74  1  0  0  0  0
 57 71  1  0  0  0  0
 58 68  1  0  0  0  0
 59 65  1  0  0  0  0
 60 66  1  0  0  0  0
 61 66  1  0  0  0  0
 62 66  1  0  0  0  0
 63 77  1  0  0  0  0
 64 66  1  0  0  0  0
 64 75  1  0  0  0  0
 65 77  1  0  0  0  0
 67 68  1  0  0  0  0
M  CHG  2  76   1  77   1
M  ISO  4  37 101  38 100  41 100  85 101
M  END
> <Batch ID>
0090

> <Smiles>
CNC(C)C(=O)NC(C(=O)N1Cc2cc([101O:1][101CH:1]=C3CCN(C(=N)c4ccc(C=[100CH:0][100C:0](=O)N5CCCC(n6nc(-c7ccc(Oc8ccc(F)cc8F)cc7)c(C(N)=O)c6N)C5)c(F)c4)C3=O)ccc2CC1C(=O)NC1CCCc2ccccc21)C(C)(C)C

> <Shape>
0.280

> <Color>
0.065

> <Negative vol penalty>
0.000

$$$$

  -OEChem-04052300293D

 85 93  0     1  0  0  0  0  0999 V2000
  -16.8548  -30.7221   23.5336 C   0  0  0  0  0  0  0  0  0  0  0  0
  -18.1811  -31.1255   23.4167 C   0  0  0  0  0  0  0  0  0  0  0  0
  -24.6395  -17.1753   20.7747 C   0  0  0  0  0  0  0  0  0  0  0  0
  -25.8804  -15.2209   21.4655 C   0  0  0  0  0  0  0  0  0  0  0  0
  -16.5418  -29.3642   23.5781 C   0  0  0  0  0  0  0  0  0  0  0  0
  -19.1953  -30.1712   23.3453 C   0  0  0  0  0  0  0  0  0  0  0  0
  -24.3887  -30.5525   20.1222 C   0  0  0  0  0  0  0  0  0  0  0  0
  -23.5178  -16.3802   20.5400 C   0  0  0  0  0  0  0  0  0  0  0  0
  -24.7587  -14.4257   21.2309 C   0  0  0  0  0  0  0  0  0  0  0  0
  -25.6899  -30.9048   20.4782 C   0  0  0  0  0  0  0  0  0  0  0  0
  -21.8575  -13.6892   22.7996 C   0  0  0  0  0  0  0  0  0  0  0  0
  -21.5244  -12.7397   23.7656 C   0  0  0  0  0  0  0  0  0  0  0  0
  -31.5246  -25.9361   18.4099 C   0  0  0  0  0  0  0  0  0  0  0  0
  -31.1927  -27.3209   18.4595 C   0  0  0  0  0  0  0  0  0  0  0  0
  -26.2416  -28.5719   20.7470 C   0  0  0  0  0  0  0  0  0  0  0  0
  -21.7800  -10.9828   22.1269 C   0  0  0  0  0  0  0  0  0  0  0  0
  -25.8209  -16.5957   21.2374 C   0  0  0  0  0  0  0  0  0  0  0  0
  -27.3287  -18.0621   22.6808 C   0  0  0  0  0  0  0  0  0  0  0  0
  -17.5518  -28.3926   23.4974 C   0  0  0  0  0  0  0  0  0  0  0  0
  -24.0006  -29.2055   20.0865 C   0  0  0  0  0  0  0  0  0  0  0  0
  -18.8956  -28.7990   23.3900 C   0  0  0  0  0  0  0  0  0  0  0  0
  -24.9356  -28.2050   20.3877 C   0  0  0  0  0  0  0  0  0  0  0  0
  -23.5774  -15.0054   20.7681 C   0  0  0  0  0  0  0  0  0  0  0  0
  -26.6157  -29.9146   20.7935 C   0  0  0  0  0  0  0  0  0  0  0  0
  -22.1517  -13.2855   21.4972 C   0  0  0  0  0  0  0  0  0  0  0  0
  -21.4857  -11.3865   23.4293 C   0  0  0  0  0  0  0  0  0  0  0  0
  -22.1130  -11.9324   21.1609 C   0  0  0  0  0  0  0  0  0  0  0  0
  -26.9802  -17.4164   21.4795 C   0  0  0  0  0  0  0  0  0  0  0  0
  -31.4554  -25.3427   19.6512 C   0  0  0  0  0  0  0  0  0  0  0  0
  -28.5067  -18.7077   22.3944 C   0  0  0  0  0  0  0  0  0  0  0  0
  -30.8823  -27.7330   19.7369 C   0  0  0  0  0  0  0  0  0  0  0  0
  -32.6827  -23.6140   20.8956 C   0  0  0  0  0  0  0  0  0  0  0  0
  -29.6595  -23.2424   19.0419 C   0  0  0  0  0  0  0  0  0  0  0  0
  -26.6486  -18.0770   23.9429 C   0  0  0  0  0  0  0  0  0  0  0  0
  -31.7115  -23.9995   20.0003 C   0  0  0  0  0  0  0  0  0  0  0  0
  -21.8552  -27.4474   21.6390 C   0  0  0  0  0  0  0  0  0  0  0  0
  -22.7856  -25.1583   19.5373 C   0  0  0  0  0  0  0  0  0  0  0  0
  -30.3466  -30.1839   19.5124 C   0  0  0  0  0  0  0  0  0  0  0  0
  -25.1966  -23.9557   17.4427 C   0  0  0  0  0  0  0  0  0  0  0  0
  -31.6670  -21.8013   19.0527 C   0  0  0  0  0  0  0  0  0  0  0  0
  -17.1688  -26.9372   23.5972 C   0  0  0  0  0  0  0  0  0  0  0  0
  -22.6007  -28.8407   19.6746 C   0  0  0  0  0  0  0  0  0  0  0  0
  -24.5747  -26.7434   20.3447 C   0  0  0  0  0  0  0  0  0  0  0  0
  -18.2700  -25.9848   23.1385 C   0  0  0  0  0  0  0  0  0  0  0  0
  -31.5881  -18.3450   18.4105 C   0  0  0  0  0  0  0  0  0  0  0  0
  -19.6111  -26.3888   23.7426 C   0  0  0  0  0  0  0  0  0  0  0  0
  -30.4050  -17.8425   19.2367 C   0  0  0  0  0  0  0  0  0  0  0  0
  -31.2835  -19.7019   17.7865 C   0  0  0  0  0  0  0  0  0  0  0  0
  -29.7145  -20.2598   19.6189 C   0  0  0  0  0  0  0  0  0  0  0  0
  -20.0216  -27.7935   23.2848 C   0  0  1  0  0  0  0  0  0  0  0  0
  -22.1718  -27.4631   20.1702 C   0  0  1  0  0  0  0  0  0  0  0  0
  -29.9744  -18.8906   20.2776 C   0  0  1  0  0  0  0  0  0  0  0  0
  -25.6832  -22.0452   15.8901 C   0  0  0  0  0  0  0  0  0  0  0  0
  -23.3101  -23.3463   21.9355 C   0  0  0  0  0  0  0  0  0  0  0  0
  -24.6536  -21.8622   20.4320 C   0  0  0  0  0  0  0  0  0  0  0  0
  -22.2238  -22.2123   19.9890 C   0  0  0  0  0  0  0  0  0  0  0  0
  -25.4647  -25.7637   15.1150 C   0  0  0  0  0  0  0  0  0  0  0  0
  -29.9258  -31.3211   20.4363 C   0  0  0  0  0  0  0  0  0  0  0  0
  -28.4165  -31.4523   20.5733 C   0  0  0  0  0  0  0  0  0  1  0  0
  -23.8518  -24.0897   19.5231 C   0  0  1  0  0  0  0  0  0  0  0  0
  -25.1293  -23.4564   16.0107 C   0  0  2  0  0  0  0  0  0  0  0  0
  -23.5164  -22.9052   20.4727 C   0  0  0  0  0  0  0  0  0  0  0  0
  -27.8650  -17.6323   20.5025 N   0  0  0  0  0  0  0  0  0  0  0  0
  -28.7812  -18.4209   21.0896 N   0  0  0  0  0  0  0  0  0  0  0  0
  -23.1919  -26.4376   19.9423 N   0  0  0  0  0  0  0  0  0  0  0  0
  -30.8683  -20.6699   18.8025 N   0  0  0  0  0  0  0  0  0  0  0  0
  -29.3241  -19.4872   23.1339 N   0  0  0  0  0  0  0  0  0  0  0  0
  -25.4504  -17.3601   24.0646 N   0  0  0  0  0  0  0  0  0  0  0  0
  -30.5022  -29.0028   20.2330 N   0  0  0  0  0  0  0  0  0  0  0  0
  -20.5406  -27.7535   21.9344 N   0  0  0  0  0  0  0  0  0  0  0  0
  -24.0258  -23.7052   18.1265 N   0  0  0  0  0  0  0  0  0  0  0  0
  -30.9812  -22.9781   19.4277 N   0  0  0  0  0  0  0  0  0  0  0  0
  -25.9166  -24.3485   15.1134 N   0  3  0  0  0  0  0  0  0  0  0  0
  -28.8713  -24.0382   19.5421 O   0  0  0  0  0  0  0  0  0  0  0  0
  -27.0818  -18.7206   24.9286 O   0  0  0  0  0  0  0  0  0  0  0  0
  -22.7380  -27.1760   22.4444 O   0  0  0  0  0  0  0  0  0  0  0  0
  -21.6361  -24.8702   19.1946 O   0  0  0  0  0  0  0  0  0  0  0  0
  -30.5106  -30.3479   18.3080 O   0  0  0  0  0  0  0  0  0  0  0  0
  -26.1900  -24.5091   17.9091 O   0  0  0  0  0  0  0  0  0  0  0  0
  -32.8949  -21.7898   18.9012 O   0  0  0  0  0  0  0  0  0  0  0  0
  -22.4829  -14.2293   20.5395 O   0  0  0  0  0  0  0  0  0  0  0  0
  -27.8862  -30.2557   21.1419 O   0  0  0  0  0  0  0  0  0  1  0  0
  -21.1674  -10.4747   24.3574 F   0  0  0  0  0  0  0  0  0  0  0  0
  -22.3958  -11.5384   19.9116 F   0  0  0  0  0  0  0  0  0  0  0  0
  -30.9919  -26.4533   20.8694 S   0  0  0  0  0  0  0  0  0  0  0  0
  1  2  1  0  0  0  0
  1  5  2  0  0  0  0
  2  6  2  0  0  0  0
  3  8  2  0  0  0  0
  3 17  1  0  0  0  0
  4  9  1  0  0  0  0
  4 17  2  0  0  0  0
  5 19  1  0  0  0  0
  6 21  1  0  0  0  0
  7 10  2  0  0  0  0
  7 20  1  0  0  0  0
  8 23  1  0  0  0  0
  9 23  2  0  0  0  0
 10 24  1  0  0  0  0
 11 12  2  0  0  0  0
 11 25  1  0  0  0  0
 12 26  1  0  0  0  0
 13 14  1  0  0  0  0
 13 29  2  0  0  0  0
 14 31  2  0  0  0  0
 15 22  1  0  0  0  0
 15 24  2  0  0  0  0
 16 26  2  0  0  0  0
 16 27  1  0  0  0  0
 17 28  1  0  0  0  0
 18 28  1  0  0  0  0
 18 30  2  0  0  0  0
 18 34  1  0  0  0  0
 19 21  2  0  0  0  0
 19 41  1  0  0  0  0
 20 22  2  0  0  0  0
 20 42  1  0  0  0  0
 21 50  1  0  0  0  0
 22 43  1  0  0  0  0
 23 81  1  0  0  0  0
 24 82  1  0  0  0  0
 25 27  2  0  0  0  0
 25 81  1  0  0  0  0
 26 83  1  0  0  0  0
 27 84  1  0  0  0  0
 28 63  2  0  0  0  0
 29 35  1  0  0  0  0
 29 85  1  0  0  0  0
 30 64  1  0  0  0  0
 30 67  1  0  0  0  0
 31 69  1  0  0  0  0
 31 85  1  0  0  0  0
 32 35  2  0  0  0  0
 33 72  1  0  0  0  0
 33 74  2  0  0  0  0
 34 68  1  0  0  0  0
 34 75  2  0  0  0  0
 35 72  1  0  0  0  0
 36 51  1  0  0  0  0
 36 70  1  0  0  0  0
 36 76  2  0  0  0  0
 37 60  1  0  0  0  0
 37 65  1  0  0  0  0
 37 77  2  0  0  0  0
 38 58  1  0  0  0  0
 38 69  1  0  0  0  0
 38 78  2  0  0  0  0
 39 61  1  0  0  0  0
 39 71  1  0  0  0  0
 39 79  2  0  0  0  0
 40 66  1  0  0  0  0
 40 72  1  0  0  0  0
 40 80  2  0  0  0  0
 41 44  1  0  0  0  0
 42 51  1  0  0  0  0
 43 65  1  0  0  0  0
 44 46  1  0  0  0  0
 45 47  1  0  0  0  0
 45 48  1  0  0  0  0
 46 50  1  0  0  0  0
 47 52  1  0  0  0  0
 48 66  1  0  0  0  0
 49 52  1  0  0  0  0
 49 66  1  0  0  0  0
 50 70  1  0  0  0  0
 51 65  1  0  0  0  0
 52 64  1  0  0  0  0
 53 61  1  0  0  0  0
 54 62  1  0  0  0  0
 55 62  1  0  0  0  0
 56 62  1  0  0  0  0
 57 73  1  0  0  0  0
 58 59  1  0  0  0  0
 59 82  1  0  0  0  0
 60 62  1  0  0  0  0
 60 71  1  0  0  0  0
 61 73  1  0  0  0  0
 63 64  1  0  0  0  0
M  CHG  1  73   1
M  ISO  4  40 100  59 101  72 100  82 101
M  END
> <Batch ID>
0090

> <Smiles>
C=C(c1ccc(NC(=O)C[101CH2:1][101O:1]c2ccc3c(c2)CN(C(=O)C(NC(=O)C(C)NC)C(C)(C)C)C(C(=O)NC2CCCc4ccccc42)C3)s1)[100N:0](C=O)[100C:0](=O)N1CCCC(n2nc(-c3ccc(Oc4ccc(F)cc4F)cc3)c(C(N)=O)c2N)C1

> <Shape>
0.229

> <Color>
0.052

> <Negative vol penalty>
0.000

$$$$

  -OEChem-04052300293D

 84 92  0     1  0  0  0  0  0999 V2000
  -24.9838  -22.4223   12.0774 C   0  0  0  0  0  0  0  0  0  0  0  0
  -24.0559  -21.8773   12.9576 C   0  0  0  0  0  0  0  0  0  0  0  0
  -27.3417  -23.1418   20.2652 C   0  0  0  0  0  0  0  0  0  0  0  0
  -29.3700  -23.3782   18.9740 C   0  0  0  0  0  0  0  0  0  0  0  0
  -25.6479  -23.6005   12.4122 C   0  0  0  0  0  0  0  0  0  0  0  0
  -23.7830  -22.5164   14.1675 C   0  0  0  0  0  0  0  0  0  0  0  0
  -20.0988  -20.6990   16.8743 C   0  0  0  0  0  0  0  0  0  0  0  0
  -27.3575  -24.5091   20.5403 C   0  0  0  0  0  0  0  0  0  0  0  0
  -29.3857  -24.7456   19.2490 C   0  0  0  0  0  0  0  0  0  0  0  0
  -20.1925  -19.4879   17.5586 C   0  0  0  0  0  0  0  0  0  0  0  0
  -26.5437  -27.3796   18.9494 C   0  0  0  0  0  0  0  0  0  0  0  0
  -25.3440  -28.0799   18.8242 C   0  0  0  0  0  0  0  0  0  0  0  0
  -20.4990  -20.6882   19.6285 C   0  0  0  0  0  0  0  0  0  0  0  0
  -25.8271  -14.2574   20.7004 C   0  0  0  0  0  0  0  0  0  0  0  0
  -25.4637  -28.7019   21.1557 C   0  0  0  0  0  0  0  0  0  0  0  0
  -24.3833  -12.4361   20.6756 C   0  0  0  0  0  0  0  0  0  0  0  0
  -28.3480  -22.5763   19.4821 C   0  0  0  0  0  0  0  0  0  0  0  0
  -27.3246  -20.4416   18.5316 C   0  0  0  0  0  0  0  0  0  0  0  0
  -25.3917  -24.2470   13.6325 C   0  0  0  0  0  0  0  0  0  0  0  0
  -20.2155  -21.9157   17.5615 C   0  0  0  0  0  0  0  0  0  0  0  0
  -24.4254  -23.7192   14.5130 C   0  0  0  0  0  0  0  0  0  0  0  0
  -20.4038  -21.9134   18.9510 C   0  0  0  0  0  0  0  0  0  0  0  0
  -24.4760  -13.8099   20.6342 C   0  0  0  0  0  0  0  0  0  0  0  0
  -28.3794  -25.3110   20.0322 C   0  0  0  0  0  0  0  0  0  0  0  0
  -20.3955  -19.4824   18.9355 C   0  0  0  0  0  0  0  0  0  0  0  0
  -27.2035  -27.3404   20.1778 C   0  0  0  0  0  0  0  0  0  0  0  0
  -24.8039  -28.7410   19.9273 C   0  0  0  0  0  0  0  0  0  0  0  0
  -26.6635  -28.0016   21.2809 C   0  0  0  0  0  0  0  0  0  0  0  0
  -28.3327  -21.1638   19.1980 C   0  0  0  0  0  0  0  0  0  0  0  0
  -26.7157  -13.2085   20.7902 C   0  0  0  0  0  0  0  0  0  0  0  0
  -27.7824  -19.1468   18.5169 C   0  0  0  0  0  0  0  0  0  0  0  0
  -21.7246  -17.7371   19.7468 C   0  0  0  0  0  0  0  0  0  1  0  0
  -26.0852  -20.9003   17.9756 C   0  0  0  0  0  0  0  0  0  0  0  0
  -28.1981  -13.2485   20.8775 C   0  0  0  0  0  0  0  0  0  0  0  0
  -21.9316  -16.5796   20.3864 C   0  0  0  0  0  0  0  0  0  0  0  0
  -23.3284  -16.0442   20.4877 C   0  0  0  0  0  0  0  0  0  0  0  0
  -22.2331  -24.3695   17.4512 C   0  0  0  0  0  0  0  0  0  0  0  0
  -20.1415  -25.6809   19.5555 C   0  0  0  0  0  0  0  0  0  0  0  0
  -17.7240  -25.2030   21.9165 C   0  0  0  0  0  0  0  0  0  0  0  0
  -30.1379  -14.7813   20.9853 C   0  0  0  0  0  0  0  0  0  0  0  0
  -26.1333  -25.5238   13.9409 C   0  0  0  0  0  0  0  0  0  0  0  0
  -20.0854  -23.2137   16.8126 C   0  0  0  0  0  0  0  0  0  0  0  0
  -20.5154  -23.1925   19.7383 C   0  0  0  0  0  0  0  0  0  0  0  0
  -26.1069  -25.8836   15.4228 C   0  0  0  0  0  0  0  0  0  0  0  0
  -32.3247  -17.2421   19.6973 C   0  0  0  0  0  0  0  0  0  0  0  0
  -24.6818  -25.8099   15.9503 C   0  0  0  0  0  0  0  0  0  0  0  0
  -31.3991  -18.4221   19.3889 C   0  0  0  0  0  0  0  0  0  0  0  0
  -31.9102  -16.5146   20.9755 C   0  0  0  0  0  0  0  0  0  0  0  0
  -29.5834  -17.2752   20.7201 C   0  0  0  0  0  0  0  0  0  0  0  0
  -24.1349  -24.3804   15.8481 C   0  0  1  0  0  0  0  0  0  0  0  0
  -20.7331  -24.3894   17.5377 C   0  0  1  0  0  0  0  0  0  0  0  0
  -29.9169  -17.9974   19.4047 C   0  0  1  0  0  0  0  0  0  0  0  0
  -16.2284  -26.4646   23.4879 C   0  0  0  0  0  0  0  0  0  0  0  0
  -22.5117  -26.1726   21.4129 C   0  0  0  0  0  0  0  0  0  0  0  0
  -20.8840  -26.5323   23.2809 C   0  0  0  0  0  0  0  0  0  0  0  0
  -20.8654  -28.0519   21.3027 C   0  0  0  0  0  0  0  0  0  0  0  0
  -15.2804  -24.1514   20.6196 C   0  0  0  0  0  0  0  0  0  0  0  0
  -20.0005  -25.6887   21.0585 C   0  0  1  0  0  0  0  0  0  0  0  0
  -16.3607  -25.8432   22.1061 C   0  0  2  0  0  0  0  0  0  0  0  0
  -21.0653  -26.5871   21.7489 C   0  0  0  0  0  0  0  0  0  0  0  0
  -29.3538  -20.3918   19.5792 N   0  0  0  0  0  0  0  0  0  0  0  0
  -28.9897  -19.1711   19.1510 N   0  0  0  0  0  0  0  0  0  0  0  0
  -20.3880  -24.4357   18.9600 N   0  0  0  0  0  0  0  0  0  0  0  0
  -30.4971  -16.1382   20.9070 N   0  0  0  0  0  0  0  0  0  0  0  0
  -27.2660  -18.0011   18.0237 N   0  0  0  0  0  0  0  0  0  0  0  0
  -26.0685  -21.3244   16.6399 N   0  0  0  0  0  0  0  0  0  0  0  0
  -23.3458  -14.6571   20.5376 N   0  0  0  0  0  0  0  0  0  0  0  0
  -28.7679  -14.5219   20.8672 N   0  0  0  0  0  0  0  0  0  0  0  0
  -22.7224  -24.3920   16.1591 N   0  0  0  0  0  0  0  0  0  0  0  0
  -18.6215  -26.0749   21.3371 N   0  0  0  0  0  0  0  0  0  0  0  0
  -15.2837  -24.8261   21.9432 N   0  3  0  0  0  0  0  0  0  0  0  0
  -25.0275  -20.9484   18.6482 O   0  0  0  0  0  0  0  0  0  0  0  0
  -28.8192  -12.1952   20.9907 O   0  0  0  0  0  0  0  0  0  0  0  0
  -24.2927  -16.8012   20.5178 O   0  0  0  0  0  0  0  0  0  0  0  0
  -22.8972  -24.3378   18.4806 O   0  0  0  0  0  0  0  0  0  0  0  0
  -20.0296  -26.7394   18.9321 O   0  0  0  0  0  0  0  0  0  0  0  0
  -17.9694  -24.0466   22.2524 O   0  0  0  0  0  0  0  0  0  0  0  0
  -30.9681  -13.8756   21.1110 O   0  0  0  0  0  0  0  0  0  0  0  0
  -20.9067  -15.8555   20.9609 O   0  0  0  0  0  0  0  0  0  0  0  0
  -28.3950  -26.6454   20.3003 O   0  0  0  0  0  0  0  0  0  0  0  0
  -20.4880  -18.3017   19.6058 O   0  0  0  0  0  0  0  0  0  1  0  0
  -23.6525  -29.4148   19.8065 F   0  0  0  0  0  0  0  0  0  0  0  0
  -27.2933  -27.9685   22.4633 F   0  0  0  0  0  0  0  0  0  0  0  0
  -25.9209  -11.6917   20.7940 S   0  0  0  0  0  0  0  0  0  0  0  0
  1  2  1  0  0  0  0
  1  5  2  0  0  0  0
  2  6  2  0  0  0  0
  3  8  2  0  0  0  0
  3 17  1  0  0  0  0
  4  9  1  0  0  0  0
  4 17  2  0  0  0  0
  5 19  1  0  0  0  0
  6 21  1  0  0  0  0
  7 10  2  0  0  0  0
  7 20  1  0  0  0  0
  8 24  1  0  0  0  0
  9 24  2  0  0  0  0
 10 25  1  0  0  0  0
 11 12  2  0  0  0  0
 11 26  1  0  0  0  0
 12 27  1  0  0  0  0
 13 22  1  0  0  0  0
 13 25  2  0  0  0  0
 14 23  1  0  0  0  0
 14 30  2  0  0  0  0
 15 27  2  0  0  0  0
 15 28  1  0  0  0  0
 16 23  2  0  0  0  0
 16 84  1  0  0  0  0
 17 29  1  0  0  0  0
 18 29  1  0  0  0  0
 18 31  2  0  0  0  0
 18 33  1  0  0  0  0
 19 21  2  0  0  0  0
 19 41  1  0  0  0  0
 20 22  2  0  0  0  0
 20 42  1  0  0  0  0
 21 50  1  0  0  0  0
 22 43  1  0  0  0  0
 23 67  1  0  0  0  0
 24 80  1  0  0  0  0
 25 81  1  0  0  0  0
 26 28  2  0  0  0  0
 26 80  1  0  0  0  0
 27 82  1  0  0  0  0
 28 83  1  0  0  0  0
 29 61  2  0  0  0  0
 30 34  1  0  0  0  0
 30 84  1  0  0  0  0
 31 62  1  0  0  0  0
 31 65  1  0  0  0  0
 32 35  2  0  0  0  0
 32 81  1  0  0  0  0
 33 66  1  0  0  0  0
 33 72  2  0  0  0  0
 34 68  1  0  0  0  0
 34 73  2  0  0  0  0
 35 36  1  0  0  0  0
 35 79  1  0  0  0  0
 36 67  1  0  0  0  0
 36 74  2  0  0  0  0
 37 51  1  0  0  0  0
 37 69  1  0  0  0  0
 37 75  2  0  0  0  0
 38 58  1  0  0  0  0
 38 63  1  0  0  0  0
 38 76  2  0  0  0  0
 39 59  1  0  0  0  0
 39 70  1  0  0  0  0
 39 77  2  0  0  0  0
 40 64  1  0  0  0  0
 40 68  1  0  0  0  0
 40 78  2  0  0  0  0
 41 44  1  0  0  0  0
 42 51  1  0  0  0  0
 43 63  1  0  0  0  0
 44 46  1  0  0  0  0
 45 47  1  0  0  0  0
 45 48  1  0  0  0  0
 46 50  1  0  0  0  0
 47 52  1  0  0  0  0
 48 64  1  0  0  0  0
 49 52  1  0  0  0  0
 49 64  1  0  0  0  0
 50 69  1  0  0  0  0
 51 63  1  0  0  0  0
 52 62  1  0  0  0  0
 53 59  1  0  0  0  0
 54 60  1  0  0  0  0
 55 60  1  0  0  0  0
 56 60  1  0  0  0  0
 57 71  1  0  0  0  0
 58 60  1  0  0  0  0
 58 70  1  0  0  0  0
 59 71  1  0  0  0  0
 61 62  1  0  0  0  0
M  CHG  1  71   1
M  ISO  4  32 101  40 100  68 100  81 101
M  END
> <Batch ID>
0090

> <Smiles>
CNC(C)C(=O)NC(C(=O)N1Cc2cc([101O:1][101CH2:1]C(=O)C(=O)Nc3csc(C(=O)[100NH:0][100C:0](=O)N4CCCC(n5nc(-c6ccc(Oc7ccc(F)cc7F)cc6)c(C(N)=O)c5N)C4)c3)ccc2CC1C(=O)NC1CCCc2ccccc21)C(C)(C)C

> <Shape>
0.209

> <Color>
0.067

> <Negative vol penalty>
0.000

$$$$

  -OEChem-04052300293D

 85 93  0     1  0  0  0  0  0999 V2000
  -16.9243  -25.6582   24.6559 C   0  0  0  0  0  0  0  0  0  0  0  0
  -17.5997  -24.7153   23.8875 C   0  0  0  0  0  0  0  0  0  0  0  0
  -25.3911  -14.2750   19.9783 C   0  0  0  0  0  0  0  0  0  0  0  0
  -25.8368  -13.2178   22.1045 C   0  0  0  0  0  0  0  0  0  0  0  0
  -17.2054  -27.0147   24.4984 C   0  0  0  0  0  0  0  0  0  0  0  0
  -18.5558  -25.1286   22.9605 C   0  0  0  0  0  0  0  0  0  0  0  0
  -23.7119  -22.1976   21.4341 C   0  0  0  0  0  0  0  0  0  0  0  0
  -25.0921  -13.0312   19.4225 C   0  0  0  0  0  0  0  0  0  0  0  0
  -25.5378  -11.9739   21.5487 C   0  0  0  0  0  0  0  0  0  0  0  0
  -24.0359  -21.3650   20.3637 C   0  0  0  0  0  0  0  0  0  0  0  0
  -24.5425   -8.5618   20.7840 C   0  0  0  0  0  0  0  0  0  0  0  0
  -23.7281   -7.7008   21.5196 C   0  0  0  0  0  0  0  0  0  0  0  0
  -30.8583  -20.7601   20.1431 C   0  0  0  0  0  0  0  0  0  0  0  0
  -29.1939  -21.4925   21.7337 C   0  0  0  0  0  0  0  0  0  0  0  0
  -24.9753  -23.2509   19.1890 C   0  0  0  0  0  0  0  0  0  0  0  0
  -21.9564   -9.3430   21.4800 C   0  0  0  0  0  0  0  0  0  0  0  0
  -25.7635  -14.3684   21.3193 C   0  0  0  0  0  0  0  0  0  0  0  0
  -29.5464  -21.1355   20.4322 C   0  0  0  0  0  0  0  0  0  0  0  0
  -25.1793  -16.5405   22.5228 C   0  0  0  0  0  0  0  0  0  0  0  0
  -18.1723  -27.4442   23.5758 C   0  0  0  0  0  0  0  0  0  0  0  0
  -24.0079  -23.5674   21.3853 C   0  0  0  0  0  0  0  0  0  0  0  0
  -18.8491  -26.4922   22.7896 C   0  0  0  0  0  0  0  0  0  0  0  0
  -24.6564  -24.0982   20.2611 C   0  0  0  0  0  0  0  0  0  0  0  0
  -31.4651  -21.0988   22.4571 C   0  0  0  0  0  0  0  0  0  0  0  0
  -31.8177  -20.7417   21.1556 C   0  0  0  0  0  0  0  0  0  0  0  0
  -30.1532  -21.4742   22.7461 C   0  0  0  0  0  0  0  0  0  0  0  0
  -25.1654  -11.8806   20.2076 C   0  0  0  0  0  0  0  0  0  0  0  0
  -24.6651  -21.8922   19.2398 C   0  0  0  0  0  0  0  0  0  0  0  0
  -24.0640   -9.8134   20.3965 C   0  0  0  0  0  0  0  0  0  0  0  0
  -22.4350   -8.0914   21.8675 C   0  0  0  0  0  0  0  0  0  0  0  0
  -22.7709  -10.2040   20.7445 C   0  0  0  0  0  0  0  0  0  0  0  0
  -26.0730  -15.6530   21.8939 C   0  0  0  0  0  0  0  0  0  0  0  0
  -25.9594  -17.6092   22.8916 C   0  0  0  0  0  0  0  0  0  0  0  0
  -28.5320  -21.1535   19.3629 C   0  0  0  0  0  0  0  0  0  0  0  0
  -23.7702  -16.4105   22.7531 C   0  0  0  0  0  0  0  0  0  0  0  0
  -22.2860  -26.2383   21.4568 C   0  0  0  0  0  0  0  0  0  0  0  0
  -25.2028  -27.6539   21.5600 C   0  0  0  0  0  0  0  0  0  0  0  0
  -28.5419  -27.4622   20.8812 C   0  0  0  0  0  0  0  0  0  0  0  0
  -28.9438  -18.7618   19.0129 C   0  0  0  0  0  0  0  0  0  0  0  0
  -18.4080  -28.9243   23.4073 C   0  0  0  0  0  0  0  0  0  0  0  0
  -23.6760  -24.4471   22.5593 C   0  0  0  0  0  0  0  0  0  0  0  0
  -25.0141  -25.5583   20.1678 C   0  0  0  0  0  0  0  0  0  0  0  0
  -19.7030  -29.2547   22.6697 C   0  0  0  0  0  0  0  0  0  0  0  0
  -30.3645  -16.7791   21.6145 C   0  0  0  0  0  0  0  0  0  0  0  0
  -19.8437  -28.3868   21.4232 C   0  0  0  0  0  0  0  0  0  0  0  0
  -29.7258  -17.3057   22.8965 C   0  0  0  0  0  0  0  0  0  0  0  0
  -30.6199  -17.9097   20.6277 C   0  0  0  0  0  0  0  0  0  0  0  0
  -28.6948  -19.1997   21.5180 C   0  0  0  0  0  0  0  0  0  0  0  0
  -19.9108  -26.8997   21.7911 C   0  0  1  0  0  0  0  0  0  0  0  0
  -23.5605  -25.9221   22.1870 C   0  0  1  0  0  0  0  0  0  0  0  0
  -28.4742  -18.1625   22.6403 C   0  0  1  0  0  0  0  0  0  0  0  0
  -32.4950  -21.0801   23.5437 C   0  0  0  0  0  0  0  0  0  0  0  0
  -30.6646  -28.7907   21.0440 C   0  0  0  0  0  0  0  0  0  0  0  0
  -24.3377  -29.3259   19.1588 C   0  0  0  0  0  0  0  0  0  0  0  0
  -26.7435  -29.9107   18.7873 C   0  0  0  0  0  0  0  0  0  0  0  0
  -25.6099  -30.5869   20.9040 C   0  0  0  0  0  0  0  0  0  0  0  0
  -29.7930  -25.4625   22.6687 C   0  0  0  0  0  0  0  0  0  0  0  0
  -26.2455  -19.1825   17.4492 C   0  0  0  0  0  0  0  0  0  0  0  0
  -27.5528  -19.9620   17.4026 C   0  0  0  0  0  0  0  0  0  0  0  0
  -25.2731  -19.7175   18.4934 C   0  0  0  0  0  0  0  0  0  1  0  0
  -26.1856  -28.1538   20.5289 C   0  0  1  0  0  0  0  0  0  0  0  0
  -29.7617  -27.7764   21.7285 C   0  0  2  0  0  0  0  0  0  0  0  0
  -25.7108  -29.4671   19.8454 C   0  0  0  0  0  0  0  0  0  0  0  0
  -27.3249  -16.1175   21.8630 N   0  0  0  0  0  0  0  0  0  0  0  0
  -27.2235  -17.3086   22.4771 N   0  0  0  0  0  0  0  0  0  0  0  0
  -24.6632  -26.3789   21.3387 N   0  0  0  0  0  0  0  0  0  0  0  0
  -29.3961  -18.6577   20.3435 N   0  0  0  0  0  0  0  0  0  0  0  0
  -33.1407  -20.3585   20.8431 N   0  0  0  0  0  0  0  0  0  0  0  0
  -29.7756  -21.8389   24.0574 N   0  0  0  0  0  0  0  0  0  0  0  0
  -25.6804  -18.7673   23.5268 N   0  0  0  0  0  0  0  0  0  0  0  0
  -23.1251  -15.2480   22.3095 N   0  0  0  0  0  0  0  0  0  0  0  0
  -21.2280  -26.5602   22.2853 N   0  0  0  0  0  0  0  0  0  0  0  0
  -27.4707  -28.2657   21.2104 N   0  0  0  0  0  0  0  0  0  0  0  0
  -28.2554  -19.9484   18.6864 N   0  0  0  0  0  0  0  0  0  0  0  0
  -30.5515  -26.5376   21.9788 N   0  3  0  0  0  0  0  0  0  0  0  0
  -27.9811  -22.2319   19.1435 O   0  0  0  0  0  0  0  0  0  0  0  0
  -23.0998  -17.3062   23.3204 O   0  0  0  0  0  0  0  0  0  0  0  0
  -22.2645  -26.1950   20.2323 O   0  0  0  0  0  0  0  0  0  0  0  0
  -24.9295  -28.3655   22.5298 O   0  0  0  0  0  0  0  0  0  0  0  0
  -28.5406  -26.5937   20.0117 O   0  0  0  0  0  0  0  0  0  0  0  0
  -29.1529  -17.8849   18.1669 O   0  0  0  0  0  0  0  0  0  0  0  0
  -24.8735  -10.6667   19.6657 O   0  0  0  0  0  0  0  0  0  0  0  0
  -24.9818  -21.0819   18.1933 O   0  0  0  0  0  0  0  0  0  1  0  0
  -21.6525   -7.2639   22.5725 F   0  0  0  0  0  0  0  0  0  0  0  0
  -22.3052  -11.4047   20.3740 F   0  0  0  0  0  0  0  0  0  0  0  0
  1  2  1  0  0  0  0
  1  5  2  0  0  0  0
  2  6  2  0  0  0  0
  3  8  2  0  0  0  0
  3 17  1  0  0  0  0
  4  9  1  0  0  0  0
  4 17  2  0  0  0  0
  5 20  1  0  0  0  0
  6 22  1  0  0  0  0
  7 10  2  0  0  0  0
  7 21  1  0  0  0  0
  8 27  1  0  0  0  0
  9 27  2  0  0  0  0
 10 28  1  0  0  0  0
 11 12  2  0  0  0  0
 11 29  1  0  0  0  0
 12 30  1  0  0  0  0
 13 18  1  0  0  0  0
 13 25  2  0  0  0  0
 14 18  2  0  0  0  0
 14 26  1  0  0  0  0
 15 23  1  0  0  0  0
 15 28  2  0  0  0  0
 16 30  2  0  0  0  0
 16 31  1  0  0  0  0
 17 32  1  0  0  0  0
 18 34  1  0  0  0  0
 19 32  1  0  0  0  0
 19 33  2  0  0  0  0
 19 35  1  0  0  0  0
 20 22  2  0  0  0  0
 20 40  1  0  0  0  0
 21 23  2  0  0  0  0
 21 41  1  0  0  0  0
 22 49  1  0  0  0  0
 23 42  1  0  0  0  0
 24 25  1  0  0  0  0
 24 26  2  0  0  0  0
 24 52  1  0  0  0  0
 25 68  1  0  0  0  0
 26 69  1  0  0  0  0
 27 82  1  0  0  0  0
 28 83  1  0  0  0  0
 29 31  2  0  0  0  0
 29 82  1  0  0  0  0
 30 84  1  0  0  0  0
 31 85  1  0  0  0  0
 32 64  2  0  0  0  0
 33 65  1  0  0  0  0
 33 70  1  0  0  0  0
 34 74  1  0  0  0  0
 34 76  2  0  0  0  0
 35 71  1  0  0  0  0
 35 77  2  0  0  0  0
 36 50  1  0  0  0  0
 36 72  1  0  0  0  0
 36 78  2  0  0  0  0
 37 61  1  0  0  0  0
 37 66  1  0  0  0  0
 37 79  2  0  0  0  0
 38 62  1  0  0  0  0
 38 73  1  0  0  0  0
 38 80  2  0  0  0  0
 39 67  1  0  0  0  0
 39 74  1  0  0  0  0
 39 81  2  0  0  0  0
 40 43  1  0  0  0  0
 41 50  1  0  0  0  0
 42 66  1  0  0  0  0
 43 45  1  0  0  0  0
 44 46  1  0  0  0  0
 44 47  1  0  0  0  0
 45 49  1  0  0  0  0
 46 51  1  0  0  0  0
 47 67  1  0  0  0  0
 48 51  1  0  0  0  0
 48 67  1  0  0  0  0
 49 72  1  0  0  0  0
 50 66  1  0  0  0  0
 51 65  1  0  0  0  0
 53 62  1  0  0  0  0
 54 63  1  0  0  0  0
 55 63  1  0  0  0  0
 56 63  1  0  0  0  0
 57 75  1  0  0  0  0
 58 59  1  0  0  0  0
 58 60  1  0  0  0  0
 59 74  1  0  0  0  0
 60 83  1  0  0  0  0
 61 63  1  0  0  0  0
 61 73  1  0  0  0  0
 62 75  1  0  0  0  0
 64 65  1  0  0  0  0
M  CHG  1  75   1
M  ISO  4  39 100  60 101  74 100  83 101
M  END
> <Batch ID>
0090

> <Smiles>
CNC(C)C(=O)NC(C(=O)N1Cc2cc([101O:1][101CH2:1]CC[100N:0](C(=O)c3cc(N)c(C)c(N)c3)[100C:0](=O)N3CCCC(n4nc(-c5ccc(Oc6ccc(F)cc6F)cc5)c(C(N)=O)c4N)C3)ccc2CC1C(=O)NC1CCCc2ccccc21)C(C)(C)C

> <Shape>
0.242

> <Color>
0.071

> <Negative vol penalty>
0.000

$$$$

  -OEChem-04052300293D

 81 89  0     1  0  0  0  0  0999 V2000
  -15.9776  -17.6964   29.9982 C   0  0  0  0  0  0  0  0  0  0  0  0
  -17.0636  -17.5943   29.1347 C   0  0  0  0  0  0  0  0  0  0  0  0
  -23.0771   -9.8662   19.9414 C   0  0  0  0  0  0  0  0  0  0  0  0
  -23.8337   -9.8768   22.2358 C   0  0  0  0  0  0  0  0  0  0  0  0
  -15.2705  -18.8946   30.0884 C   0  0  0  0  0  0  0  0  0  0  0  0
  -17.4424  -18.6902   28.3601 C   0  0  0  0  0  0  0  0  0  0  0  0
  -22.4511  -19.4370   28.3689 C   0  0  0  0  0  0  0  0  0  0  0  0
  -22.3330   -8.7134   20.1921 C   0  0  0  0  0  0  0  0  0  0  0  0
  -23.0895   -8.7240   22.4866 C   0  0  0  0  0  0  0  0  0  0  0  0
  -23.2203  -18.6056   27.5559 C   0  0  0  0  0  0  0  0  0  0  0  0
  -21.1029   -5.9888   23.8245 C   0  0  0  0  0  0  0  0  0  0  0  0
  -20.3450   -5.9469   24.9947 C   0  0  0  0  0  0  0  0  0  0  0  0
  -23.3358  -20.3490   25.8926 C   0  0  0  0  0  0  0  0  0  0  0  0
  -19.1013   -7.8830   24.2584 C   0  0  0  0  0  0  0  0  0  0  0  0
  -30.6312  -18.9806   23.0381 C   0  0  0  0  0  0  0  0  0  0  0  0
  -31.8397  -17.3944   21.5981 C   0  0  0  0  0  0  0  0  0  0  0  0
  -23.8275  -10.4479   20.9633 C   0  0  0  0  0  0  0  0  0  0  0  0
  -24.1693  -12.9729   20.8398 C   0  0  0  0  0  0  0  0  0  0  0  0
  -15.6468  -20.0087   29.3217 C   0  0  0  0  0  0  0  0  0  0  0  0
  -22.1088  -20.7289   27.9444 C   0  0  0  0  0  0  0  0  0  0  0  0
  -16.7388  -19.9040   28.4392 C   0  0  0  0  0  0  0  0  0  0  0  0
  -22.5643  -21.1958   26.7032 C   0  0  0  0  0  0  0  0  0  0  0  0
  -29.8828  -17.8572   22.7637 C   0  0  0  0  0  0  0  0  0  0  0  0
  -30.5828  -16.9382   21.9296 C   0  0  0  0  0  0  0  0  0  0  0  0
  -22.3392   -8.1423   21.4646 C   0  0  0  0  0  0  0  0  0  0  0  0
  -23.6603  -19.0605   26.3163 C   0  0  0  0  0  0  0  0  0  0  0  0
  -20.8601   -6.9778   22.8713 C   0  0  0  0  0  0  0  0  0  0  0  0
  -19.3441   -6.8940   25.2116 C   0  0  0  0  0  0  0  0  0  0  0  0
  -19.8593   -7.9248   23.0882 C   0  0  0  0  0  0  0  0  0  0  0  0
  -24.5969  -11.6384   20.7048 C   0  0  0  0  0  0  0  0  0  0  0  0
  -25.2619  -13.7219   20.4769 C   0  0  0  0  0  0  0  0  0  0  0  0
  -26.5069  -17.9818   24.3987 C   0  0  0  0  0  0  0  0  0  0  0  0
  -25.6631  -18.6725   25.1722 C   0  0  0  0  0  0  0  0  0  1  0  0
  -22.8982  -13.4892   21.2561 C   0  0  0  0  0  0  0  0  0  0  0  0
  -27.8540  -18.5397   24.0823 C   0  0  0  0  0  0  0  0  0  0  0  0
  -19.3797  -22.2396   27.3331 C   0  0  0  0  0  0  0  0  0  0  0  0
  -21.3319  -24.8059   26.9789 C   0  0  0  0  0  0  0  0  0  0  0  0
  -24.4563  -25.9971   26.2963 C   0  0  0  0  0  0  0  0  0  0  0  0
  -30.7277  -14.7684   20.6578 C   0  0  0  0  0  0  0  0  0  0  0  0
  -14.8228  -21.2682   29.4183 C   0  0  0  0  0  0  0  0  0  0  0  0
  -21.3009  -21.6230   28.8447 C   0  0  0  0  0  0  0  0  0  0  0  0
  -22.2412  -22.5817   26.2100 C   0  0  0  0  0  0  0  0  0  0  0  0
  -15.5193  -22.4975   28.8406 C   0  0  0  0  0  0  0  0  0  0  0  0
  -29.6170  -12.3506   18.2919 C   0  0  0  0  0  0  0  0  0  0  0  0
  -16.1307  -22.1750   27.4808 C   0  0  0  0  0  0  0  0  0  0  0  0
  -28.1768  -12.0596   18.7198 C   0  0  0  0  0  0  0  0  0  0  0  0
  -30.5304  -12.5815   19.4945 C   0  0  0  0  0  0  0  0  0  0  0  0
  -28.6213  -13.3080   20.8718 C   0  0  0  0  0  0  0  0  0  0  0  0
  -17.1957  -21.0782   27.6009 C   0  0  1  0  0  0  0  0  0  0  0  0
  -20.5790  -22.7354   28.0904 C   0  0  1  0  0  0  0  0  0  0  0  0
  -27.6502  -13.1327   19.6928 C   0  0  2  0  0  0  0  0  0  0  0  0
  -25.7351  -28.1413   26.0423 C   0  0  0  0  0  0  0  0  0  0  0  0
  -20.0640  -25.2344   24.2368 C   0  0  0  0  0  0  0  0  0  0  0  0
  -21.9809  -26.7391   23.6628 C   0  0  0  0  0  0  0  0  0  0  0  0
  -20.4539  -27.3300   25.5448 C   0  0  0  0  0  0  0  0  0  0  0  0
  -26.2766  -25.3111   28.5268 C   0  0  0  0  0  0  0  0  0  0  0  0
  -22.0890  -25.4225   25.8275 C   0  0  1  0  0  0  0  0  0  0  0  0
  -25.3139  -27.0352   26.9972 C   0  0  2  0  0  0  0  0  0  0  0  0
  -21.1516  -26.1546   24.8262 C   0  0  0  0  0  0  0  0  0  0  0  0
  -25.8623  -11.5421   20.2885 N   0  0  0  0  0  0  0  0  0  0  0  0
  -26.2393  -12.8255   20.1587 N   0  0  0  0  0  0  0  0  0  0  0  0
  -21.4432  -23.4158   27.1237 N   0  0  0  0  0  0  0  0  0  0  0  0
  -29.9700  -13.6137   20.3694 N   0  0  0  0  0  0  0  0  0  0  0  0
  -25.4723  -15.0533   20.4022 N   0  0  0  0  0  0  0  0  0  0  0  0
  -21.8859  -12.5805   21.5933 N   0  0  0  0  0  0  0  0  0  0  0  0
  -28.5725  -17.6729   23.2696 N   0  0  0  0  0  0  0  0  0  0  0  0
  -30.0790  -15.6947   21.4738 N   0  0  0  0  0  0  0  0  0  0  0  0
  -18.4283  -21.6259   28.1253 N   0  0  0  0  0  0  0  0  0  0  0  0
  -23.1119  -26.2761   26.4219 N   0  0  0  0  0  0  0  0  0  0  0  0
  -26.5427  -26.4017   27.5538 N   0  3  0  0  0  0  0  0  0  0  0  0
  -22.6617  -14.7199   21.3112 O   0  0  0  0  0  0  0  0  0  0  0  0
  -28.2094  -19.6280   24.5192 O   0  0  0  0  0  0  0  0  0  0  0  0
  -19.3211  -22.4033   26.1201 O   0  0  0  0  0  0  0  0  0  0  0  0
  -20.6720  -25.5320   27.7266 O   0  0  0  0  0  0  0  0  0  0  0  0
  -24.9317  -25.0369   25.6942 O   0  0  0  0  0  0  0  0  0  0  0  0
  -31.8574  -14.9365   20.1916 O   0  0  0  0  0  0  0  0  0  0  0  0
  -21.6130   -7.0175   21.7097 O   0  0  0  0  0  0  0  0  0  0  0  0
  -24.4107  -18.2509   25.5205 O   0  0  0  0  0  0  0  0  0  1  0  0
  -18.6153   -6.8528   26.3347 F   0  0  0  0  0  0  0  0  0  0  0  0
  -19.6206   -8.8766   22.1755 F   0  0  0  0  0  0  0  0  0  0  0  0
  -32.1713  -18.9246   22.2916 S   0  0  0  0  0  0  0  0  0  0  0  0
  1  2  1  0  0  0  0
  1  5  2  0  0  0  0
  2  6  2  0  0  0  0
  3  8  2  0  0  0  0
  3 17  1  0  0  0  0
  4  9  1  0  0  0  0
  4 17  2  0  0  0  0
  5 19  1  0  0  0  0
  6 21  1  0  0  0  0
  7 10  2  0  0  0  0
  7 20  1  0  0  0  0
  8 25  1  0  0  0  0
  9 25  2  0  0  0  0
 10 26  1  0  0  0  0
 11 12  2  0  0  0  0
 11 27  1  0  0  0  0
 12 28  1  0  0  0  0
 13 22  1  0  0  0  0
 13 26  2  0  0  0  0
 14 28  2  0  0  0  0
 14 29  1  0  0  0  0
 15 23  2  0  0  0  0
 15 81  1  0  0  0  0
 16 24  2  0  0  0  0
 16 81  1  0  0  0  0
 17 30  1  0  0  0  0
 18 30  1  0  0  0  0
 18 31  2  0  0  0  0
 18 34  1  0  0  0  0
 19 21  2  0  0  0  0
 19 40  1  0  0  0  0
 20 22  2  0  0  0  0
 20 41  1  0  0  0  0
 21 49  1  0  0  0  0
 22 42  1  0  0  0  0
 23 24  1  0  0  0  0
 23 66  1  0  0  0  0
 24 67  1  0  0  0  0
 25 77  1  0  0  0  0
 26 78  1  0  0  0  0
 27 29  2  0  0  0  0
 27 77  1  0  0  0  0
 28 79  1  0  0  0  0
 29 80  1  0  0  0  0
 30 60  2  0  0  0  0
 31 61  1  0  0  0  0
 31 64  1  0  0  0  0
 32 33  2  0  0  0  0
 32 35  1  0  0  0  0
 33 78  1  0  0  0  0
 34 65  1  0  0  0  0
 34 71  2  0  0  0  0
 35 66  1  0  0  0  0
 35 72  2  0  0  0  0
 36 50  1  0  0  0  0
 36 68  1  0  0  0  0
 36 73  2  0  0  0  0
 37 57  1  0  0  0  0
 37 62  1  0  0  0  0
 37 74  2  0  0  0  0
 38 58  1  0  0  0  0
 38 69  1  0  0  0  0
 38 75  2  0  0  0  0
 39 63  1  0  0  0  0
 39 67  1  0  0  0  0
 39 76  2  0  0  0  0
 40 43  1  0  0  0  0
 41 50  1  0  0  0  0
 42 62  1  0  0  0  0
 43 45  1  0  0  0  0
 44 46  1  0  0  0  0
 44 47  1  0  0  0  0
 45 49  1  0  0  0  0
 46 51  1  0  0  0  0
 47 63  1  0  0  0  0
 48 51  1  0  0  0  0
 48 63  1  0  0  0  0
 49 68  1  0  0  0  0
 50 62  1  0  0  0  0
 51 61  1  0  0  0  0
 52 58  1  0  0  0  0
 53 59  1  0  0  0  0
 54 59  1  0  0  0  0
 55 59  1  0  0  0  0
 56 70  1  0  0  0  0
 57 59  1  0  0  0  0
 57 69  1  0  0  0  0
 58 70  1  0  0  0  0
 60 61  1  0  0  0  0
M  CHG  1  70   1
M  ISO  4  33 101  39 100  67 100  78 101
M  END
> <Batch ID>
0090

> <Smiles>
CNC(C)C(=O)NC(C(=O)N1Cc2cc([101O:1][101CH:1]=CC(=O)Nc3cscc3[100NH:0][100C:0](=O)N3CCCC(n4nc(-c5ccc(Oc6ccc(F)cc6F)cc5)c(C(N)=O)c4N)C3)ccc2CC1C(=O)NC1CCCc2ccccc21)C(C)(C)C

> <Shape>
0.173

> <Color>
0.192

> <Negative vol penalty>
0.000

$$$$

  -OEChem-04052300293D

 86 95  0     1  0  0  0  0  0999 V2000
  -25.2512  -38.7358   20.5737 C   0  0  0  0  0  0  0  0  0  0  0  0
  -26.0087  -37.7628   19.9295 C   0  0  0  0  0  0  0  0  0  0  0  0
  -23.2619  -10.2783   21.4024 C   0  0  0  0  0  0  0  0  0  0  0  0
  -24.7737   -8.3939   21.3801 C   0  0  0  0  0  0  0  0  0  0  0  0
  -24.6387  -38.4471   21.7925 C   0  0  0  0  0  0  0  0  0  0  0  0
  -26.1552  -36.5009   20.5045 C   0  0  0  0  0  0  0  0  0  0  0  0
  -26.8860  -29.6025   18.7173 C   0  0  0  0  0  0  0  0  0  0  0  0
  -28.6137  -20.1737   18.6664 C   0  0  0  0  0  0  0  0  0  0  0  0
  -28.5994  -18.7967   18.4443 C   0  0  0  0  0  0  0  0  0  0  0  0
  -22.1745   -9.4054   21.4394 C   0  0  0  0  0  0  0  0  0  0  0  0
  -23.6863   -7.5210   21.4172 C   0  0  0  0  0  0  0  0  0  0  0  0
  -27.7137  -28.5079   18.9635 C   0  0  0  0  0  0  0  0  0  0  0  0
  -20.5724   -7.5184   23.7427 C   0  0  0  0  0  0  0  0  0  0  0  0
  -19.5447   -7.8010   24.6425 C   0  0  0  0  0  0  0  0  0  0  0  0
  -26.5447  -28.0973   21.0333 C   0  0  0  0  0  0  0  0  0  0  0  0
  -29.6183  -18.4376   20.6054 C   0  0  0  0  0  0  0  0  0  0  0  0
  -17.9815   -7.9592   22.8072 C   0  0  0  0  0  0  0  0  0  0  0  0
  -24.5615   -9.7725   21.3726 C   0  0  0  0  0  0  0  0  0  0  0  0
  -26.3781  -11.2163   22.4325 C   0  0  0  0  0  0  0  0  0  0  0  0
  -24.7698  -37.1779   22.3779 C   0  0  0  0  0  0  0  0  0  0  0  0
  -25.8869  -29.9599   19.6340 C   0  0  0  0  0  0  0  0  0  0  0  0
  -25.5451  -36.1954   21.7329 C   0  0  0  0  0  0  0  0  0  0  0  0
  -25.7040  -29.1953   20.7951 C   0  0  0  0  0  0  0  0  0  0  0  0
  -29.1304  -20.6827   19.8580 C   0  0  0  0  0  0  0  0  0  0  0  0
  -29.1017  -17.9287   19.4138 C   0  0  0  0  0  0  0  0  0  0  0  0
  -22.3867   -8.0268   21.4468 C   0  0  0  0  0  0  0  0  0  0  0  0
  -27.5450  -27.7569   20.1231 C   0  0  0  0  0  0  0  0  0  0  0  0
  -20.3047   -7.4563   22.3752 C   0  0  0  0  0  0  0  0  0  0  0  0
  -18.2493   -8.0214   24.1748 C   0  0  0  0  0  0  0  0  0  0  0  0
  -29.6326  -19.8146   20.8274 C   0  0  0  0  0  0  0  0  0  0  0  0
  -19.0092   -7.6766   21.9075 C   0  0  0  0  0  0  0  0  0  0  0  0
  -25.6852  -10.6736   21.3338 C   0  0  0  0  0  0  0  0  0  0  0  0
  -27.3524  -12.0036   21.8691 C   0  0  0  0  0  0  0  0  0  0  0  0
  -28.6685  -24.3500   20.0835 C   0  0  0  0  0  0  0  0  0  0  0  0
  -28.2275  -23.0240   19.5743 C   0  0  0  0  0  0  0  0  0  0  0  0
  -27.9566  -25.4650   19.9029 C   0  0  0  0  0  0  0  0  0  1  0  0
  -26.1605  -11.0257   23.8368 C   0  0  0  0  0  0  0  0  0  0  0  0
  -25.2922  -32.5226   21.4180 C   0  0  0  0  0  0  0  0  0  0  0  0
  -22.5560  -30.9238   22.1107 C   0  0  0  0  0  0  0  0  0  0  0  0
  -20.9201  -27.9361   22.3202 C   0  0  0  0  0  0  0  0  0  0  0  0
  -28.5705  -15.9591   17.9877 C   0  0  0  0  0  0  0  0  0  0  0  0
  -24.1283  -36.9277   23.7197 C   0  0  0  0  0  0  0  0  0  0  0  0
  -24.9849  -31.1273   19.3408 C   0  0  0  0  0  0  0  0  0  0  0  0
  -24.6329  -29.5251   21.8013 C   0  0  0  0  0  0  0  0  0  0  0  0
  -29.9600  -24.2192   20.8122 C   0  0  0  0  0  0  0  0  0  0  0  0
  -24.0236  -35.4476   24.0783 C   0  0  0  0  0  0  0  0  0  0  0  0
  -28.9355  -12.3992   17.0909 C   0  0  0  0  0  0  0  0  0  0  0  0
  -25.3443  -34.7364   23.8009 C   0  0  0  0  0  0  0  0  0  0  0  0
  -28.1215  -11.6905   18.1723 C   0  0  0  0  0  0  0  0  0  0  0  0
  -30.1210  -22.7156   20.9631 C   0  0  0  0  0  0  0  0  0  0  0  0
  -28.3929  -13.7945   16.7962 C   0  0  0  0  0  0  0  0  0  0  0  0
  -27.4645  -13.9529   19.0860 C   0  0  0  0  0  0  0  0  0  0  0  0
  -25.7069  -34.8070   22.3126 C   0  0  1  0  0  0  0  0  0  0  0  0
  -24.3355  -31.7097   20.5923 C   0  0  1  0  0  0  0  0  0  0  0  0
  -28.0125  -12.5612   19.4360 C   0  0  1  0  0  0  0  0  0  0  0  0
  -18.7037  -26.9440   22.9532 C   0  0  0  0  0  0  0  0  0  0  0  0
  -23.2401  -31.2849   25.0623 C   0  0  0  0  0  0  0  0  0  0  0  0
  -21.5618  -29.5057   25.5971 C   0  0  0  0  0  0  0  0  0  0  0  0
  -20.8263  -31.6228   24.5019 C   0  0  0  0  0  0  0  0  0  0  0  0
  -29.8363  -15.6385   20.1007 C   0  0  0  0  0  0  0  0  0  0  0  0
  -20.4941  -26.8579   19.5971 C   0  0  0  0  0  0  0  0  0  0  0  0
  -22.1383  -29.9258   23.1636 C   0  0  1  0  0  0  0  0  0  0  0  0
  -19.5549  -27.4980   21.8213 C   0  0  2  0  0  0  0  0  0  0  0  0
  -21.9632  -30.5795   24.5634 C   0  0  0  0  0  0  0  0  0  0  0  0
  -26.1774  -11.0817   20.1611 N   0  0  0  0  0  0  0  0  0  0  0  0
  -27.1899  -11.8893   20.5198 N   0  0  0  0  0  0  0  0  0  0  0  0
  -29.1438  -22.0944   20.0828 N   0  0  0  0  0  0  0  0  0  0  0  0
  -23.7804  -30.6796   21.4727 N   0  0  0  0  0  0  0  0  0  0  0  0
  -28.2562  -14.5856   18.0198 N   0  0  0  0  0  0  0  0  0  0  0  0
  -28.3236  -12.7756   22.4013 N   0  0  0  0  0  0  0  0  0  0  0  0
  -25.1161  -10.1839   24.2429 N   0  0  0  0  0  0  0  0  0  0  0  0
  -24.9292  -33.8486   21.5569 N   0  0  0  0  0  0  0  0  0  0  0  0
  -20.9367  -29.2738   22.6540 N   0  0  0  0  0  0  0  0  0  0  0  0
  -29.0868  -16.5033   19.1836 N   0  0  0  0  0  0  0  0  0  0  0  0
  -19.6984  -26.4412   20.7804 N   0  3  0  0  0  0  0  0  0  0  0  0
  -27.2457  -22.8713   18.8667 O   0  0  0  0  0  0  0  0  0  0  0  0
  -26.8608  -11.5982   24.7058 O   0  0  0  0  0  0  0  0  0  0  0  0
  -26.2853  -31.9861   21.8950 O   0  0  0  0  0  0  0  0  0  0  0  0
  -21.8196  -31.8808   21.8585 O   0  0  0  0  0  0  0  0  0  0  0  0
  -21.8751  -27.1675   22.4087 O   0  0  0  0  0  0  0  0  0  0  0  0
  -28.4290  -16.6370   16.9631 O   0  0  0  0  0  0  0  0  0  0  0  0
  -21.3259   -7.1748   21.4833 O   0  0  0  0  0  0  0  0  0  0  0  0
  -28.3519  -26.6884   20.3662 O   0  0  0  0  0  0  0  0  0  1  0  0
  -17.2621   -8.2912   25.0390 F   0  0  0  0  0  0  0  0  0  0  0  0
  -30.1323  -20.2926   21.9763 F   0  0  0  0  0  0  0  0  0  0  0  0
  -18.7456   -7.6171   20.5949 F   0  0  0  0  0  0  0  0  0  0  0  0
  1  2  1  0  0  0  0
  1  5  2  0  0  0  0
  2  6  2  0  0  0  0
  3 10  2  0  0  0  0
  3 18  1  0  0  0  0
  4 11  1  0  0  0  0
  4 18  2  0  0  0  0
  5 20  1  0  0  0  0
  6 22  1  0  0  0  0
  7 12  2  0  0  0  0
  7 21  1  0  0  0  0
  8  9  2  0  0  0  0
  8 24  1  0  0  0  0
  9 25  1  0  0  0  0
 10 26  1  0  0  0  0
 11 26  2  0  0  0  0
 12 27  1  0  0  0  0
 13 14  2  0  0  0  0
 13 28  1  0  0  0  0
 14 29  1  0  0  0  0
 15 23  1  0  0  0  0
 15 27  2  0  0  0  0
 16 25  2  0  0  0  0
 16 30  1  0  0  0  0
 17 29  2  0  0  0  0
 17 31  1  0  0  0  0
 18 32  1  0  0  0  0
 19 32  1  0  0  0  0
 19 33  2  0  0  0  0
 19 37  1  0  0  0  0
 20 22  2  0  0  0  0
 20 42  1  0  0  0  0
 21 23  2  0  0  0  0
 21 43  1  0  0  0  0
 22 53  1  0  0  0  0
 23 44  1  0  0  0  0
 24 30  2  0  0  0  0
 24 67  1  0  0  0  0
 25 74  1  0  0  0  0
 26 82  1  0  0  0  0
 27 83  1  0  0  0  0
 28 31  2  0  0  0  0
 28 82  1  0  0  0  0
 29 84  1  0  0  0  0
 30 85  1  0  0  0  0
 31 86  1  0  0  0  0
 32 65  2  0  0  0  0
 33 66  1  0  0  0  0
 33 70  1  0  0  0  0
 34 35  1  0  0  0  0
 34 36  2  0  0  0  0
 34 45  1  0  0  0  0
 35 67  1  0  0  0  0
 35 76  2  0  0  0  0
 36 83  1  0  0  0  0
 37 71  1  0  0  0  0
 37 77  2  0  0  0  0
 38 54  1  0  0  0  0
 38 72  1  0  0  0  0
 38 78  2  0  0  0  0
 39 62  1  0  0  0  0
 39 68  1  0  0  0  0
 39 79  2  0  0  0  0
 40 63  1  0  0  0  0
 40 73  1  0  0  0  0
 40 80  2  0  0  0  0
 41 69  1  0  0  0  0
 41 74  1  0  0  0  0
 41 81  2  0  0  0  0
 42 46  1  0  0  0  0
 43 54  1  0  0  0  0
 44 68  1  0  0  0  0
 45 50  1  0  0  0  0
 46 48  1  0  0  0  0
 47 49  1  0  0  0  0
 47 51  1  0  0  0  0
 48 53  1  0  0  0  0
 49 55  1  0  0  0  0
 50 67  1  0  0  0  0
 51 69  1  0  0  0  0
 52 55  1  0  0  0  0
 52 69  1  0  0  0  0
 53 72  1  0  0  0  0
 54 68  1  0  0  0  0
 55 66  1  0  0  0  0
 56 63  1  0  0  0  0
 57 64  1  0  0  0  0
 58 64  1  0  0  0  0
 59 64  1  0  0  0  0
 60 74  1  0  0  0  0
 61 75  1  0  0  0  0
 62 64  1  0  0  0  0
 62 73  1  0  0  0  0
 63 75  1  0  0  0  0
 65 66  1  0  0  0  0
M  CHG  1  75   1
M  ISO  4  36 101  41 100  74 100  83 101
M  END
> <Batch ID>
0090

> <Smiles>
CNC(C)C(=O)NC(C(=O)N1Cc2cc([101O:1][101CH:1]=C3CCN(c4ccc([100N:0](C)[100C:0](=O)N5CCCC(n6nc(-c7ccc(Oc8ccc(F)cc8F)cc7)c(C(N)=O)c6N)C5)cc4F)C3=O)ccc2CC1C(=O)NC1CCCc2ccccc21)C(C)(C)C

> <Shape>
0.314

> <Color>
0.102

> <Negative vol penalty>
0.000

$$$$

  -OEChem-04052300293D

 85 93  0     1  0  0  0  0  0999 V2000
  -28.6674  -11.4308   19.0205 C   0  0  0  0  0  0  0  0  0  0  0  0
  -27.6068  -12.1435   19.5707 C   0  0  0  0  0  0  0  0  0  0  0  0
  -25.8848  -30.6465   24.0813 C   0  0  0  0  0  0  0  0  0  0  0  0
  -24.3034  -30.3919   25.8901 C   0  0  0  0  0  0  0  0  0  0  0  0
  -29.9637  -11.9374   19.1034 C   0  0  0  0  0  0  0  0  0  0  0  0
  -27.8421  -13.3627   20.2052 C   0  0  0  0  0  0  0  0  0  0  0  0
  -24.4948  -16.9226   18.8757 C   0  0  0  0  0  0  0  0  0  0  0  0
  -26.3026  -31.8642   24.6180 C   0  0  0  0  0  0  0  0  0  0  0  0
  -24.7213  -31.6096   26.4268 C   0  0  0  0  0  0  0  0  0  0  0  0
  -23.2346  -16.8652   19.4694 C   0  0  0  0  0  0  0  0  0  0  0  0
  -25.2006  -35.0585   24.7007 C   0  0  0  0  0  0  0  0  0  0  0  0
  -25.3590  -36.1319   23.8242 C   0  0  0  0  0  0  0  0  0  0  0  0
  -23.8942  -18.5894   21.0222 C   0  0  0  0  0  0  0  0  0  0  0  0
  -17.9435  -20.9514   21.7669 C   0  0  0  0  0  0  0  0  0  0  0  0
  -19.4192  -20.9871   23.6795 C   0  0  0  0  0  0  0  0  0  0  0  0
  -27.6905  -36.2889   24.4377 C   0  0  0  0  0  0  0  0  0  0  0  0
  -24.8851  -29.9103   24.7173 C   0  0  0  0  0  0  0  0  0  0  0  0
  -24.9764  -27.3759   24.4415 C   0  0  0  0  0  0  0  0  0  0  0  0
  -30.2138  -13.1681   19.7307 C   0  0  0  0  0  0  0  0  0  0  0  0
  -25.4694  -17.8077   19.3586 C   0  0  0  0  0  0  0  0  0  0  0  0
  -29.1432  -13.8856   20.2977 C   0  0  0  0  0  0  0  0  0  0  0  0
  -25.1651  -18.6580   20.4313 C   0  0  0  0  0  0  0  0  0  0  0  0
  -18.1183  -22.9448   23.1208 C   0  0  0  0  0  0  0  0  0  0  0  0
  -18.8691  -20.3107   22.5906 C   0  0  0  0  0  0  0  0  0  0  0  0
  -25.7209  -32.3458   25.7908 C   0  0  0  0  0  0  0  0  0  0  0  0
  -22.9351  -17.6966   20.5446 C   0  0  0  0  0  0  0  0  0  0  0  0
  -26.2872  -34.6003   25.4458 C   0  0  0  0  0  0  0  0  0  0  0  0
  -26.6039  -36.7471   23.6927 C   0  0  0  0  0  0  0  0  0  0  0  0
  -17.5682  -22.2684   22.0319 C   0  0  0  0  0  0  0  0  0  0  0  0
  -19.0438  -22.3041   23.9446 C   0  0  0  0  0  0  0  0  0  0  0  0
  -27.5322  -35.2155   25.3142 C   0  0  0  0  0  0  0  0  0  0  0  0
  -24.4526  -28.6526   24.1631 C   0  0  0  0  0  0  0  0  0  0  0  0
  -24.2284  -26.5218   23.6685 C   0  0  0  0  0  0  0  0  0  0  0  0
  -26.0435  -26.9960   25.3205 C   0  0  0  0  0  0  0  0  0  0  0  0
  -28.3580  -17.4795   20.6441 C   0  0  0  0  0  0  0  0  0  0  0  0
  -28.3883  -20.7169   20.4422 C   0  0  0  0  0  0  0  0  0  0  0  0
  -18.8037  -18.1560   21.2880 C   0  0  0  0  0  0  0  0  0  0  0  0
  -26.6119  -23.6256   20.2677 C   0  0  0  0  0  0  0  0  0  0  0  0
  -18.8164  -25.8238   21.7353 C   0  0  0  0  0  0  0  0  0  0  0  0
  -31.6381  -13.6523   19.8373 C   0  0  0  0  0  0  0  0  0  0  0  0
  -26.8151  -17.8764   18.6901 C   0  0  0  0  0  0  0  0  0  0  0  0
  -26.1696  -19.6401   20.9743 C   0  0  0  0  0  0  0  0  0  0  0  0
  -31.7533  -15.1314   20.1969 C   0  0  0  0  0  0  0  0  0  0  0  0
  -21.4218  -27.0315   19.6305 C   0  0  0  0  0  0  0  0  0  0  0  0
  -30.8191  -15.4741   21.3531 C   0  0  0  0  0  0  0  0  0  0  0  0
  -22.5176  -27.4540   20.6106 C   0  0  0  0  0  0  0  0  0  0  0  0
  -20.0281  -27.3251   20.1814 C   0  0  0  0  0  0  0  0  0  0  0  0
  -20.8556  -27.1859   22.4987 C   0  0  0  0  0  0  0  0  0  0  0  0
  -29.3550  -15.2236   20.9722 C   0  0  1  0  0  0  0  0  0  0  0  0
  -27.9021  -18.4516   19.5929 C   0  0  1  0  0  0  0  0  0  0  0  0
  -22.2774  -26.8586   22.0110 C   0  0  2  0  0  0  0  0  0  0  0  0
  -26.9137  -26.1141   20.1509 C   0  0  0  0  0  0  0  0  0  0  0  0
  -29.0739  -20.7709   23.4150 C   0  0  0  0  0  0  0  0  0  0  0  0
  -28.4315  -23.1905   23.4479 C   0  0  0  0  0  0  0  0  0  0  0  0
  -30.3316  -22.4256   22.0241 C   0  0  0  0  0  0  0  0  0  0  0  0
  -25.2455  -23.7849   17.6473 C   0  0  0  0  0  0  0  0  0  0  0  0
  -17.7165  -24.3529   23.4044 C   0  0  0  0  0  0  0  0  0  0  0  0
  -19.4692  -16.7867   21.3663 C   0  0  0  0  0  0  0  0  0  0  0  0
  -20.7717  -16.7097   20.5842 C   0  0  0  0  0  0  0  0  0  1  0  0
  -27.9649  -21.8485   21.3473 C   0  0  1  0  0  0  0  0  0  0  0  0
  -26.7399  -24.8308   19.3536 C   0  0  2  0  0  0  0  0  0  0  0  0
  -28.9319  -22.0391   22.5498 C   0  0  0  0  0  0  0  0  0  0  0  0
  -23.4495  -28.6174   23.2818 N   0  0  0  0  0  0  0  0  0  0  0  0
  -23.3371  -27.3083   22.9998 N   0  0  0  0  0  0  0  0  0  0  0  0
  -27.4734  -19.6653   20.2909 N   0  0  0  0  0  0  0  0  0  0  0  0
  -19.8645  -26.7316   21.5107 N   0  0  0  0  0  0  0  0  0  0  0  0
  -24.2528  -25.1824   23.5023 N   0  0  0  0  0  0  0  0  0  0  0  0
  -26.7060  -27.9998   26.0400 N   0  0  0  0  0  0  0  0  0  0  0  0
  -19.2497  -18.9743   22.3224 N   0  0  0  0  0  0  0  0  0  0  0  0
  -28.8596  -16.2963   20.1364 N   0  0  0  0  0  0  0  0  0  0  0  0
  -27.8321  -23.0251   20.4950 N   0  0  0  0  0  0  0  0  0  0  0  0
  -18.7366  -25.3033   23.0212 N   0  0  0  0  0  0  0  0  0  0  0  0
  -25.5240  -24.9671   18.5028 N   0  3  0  0  0  0  0  0  0  0  0  0
  -26.4099  -25.8034   25.4511 O   0  0  0  0  0  0  0  0  0  0  0  0
  -28.2630  -17.7813   21.8279 O   0  0  0  0  0  0  0  0  0  0  0  0
  -29.4873  -20.7676   19.8842 O   0  0  0  0  0  0  0  0  0  0  0  0
  -17.9939  -18.4391   20.4114 O   0  0  0  0  0  0  0  0  0  0  0  0
  -25.5375  -23.2563   20.7365 O   0  0  0  0  0  0  0  0  0  0  0  0
  -18.0146  -25.4970   20.8537 O   0  0  0  0  0  0  0  0  0  0  0  0
  -26.1286  -33.5339   26.3149 O   0  0  0  0  0  0  0  0  0  0  0  0
  -21.7061  -17.6420   21.1264 O   0  0  0  0  0  0  0  0  0  1  0  0
  -26.7562  -37.7769   22.8498 F   0  0  0  0  0  0  0  0  0  0  0  0
  -16.6776  -22.8760   21.2354 F   0  0  0  0  0  0  0  0  0  0  0  0
  -19.5777  -22.9455   24.9933 F   0  0  0  0  0  0  0  0  0  0  0  0
  -28.5800  -34.7789   26.0264 F   0  0  0  0  0  0  0  0  0  0  0  0
  1  2  1  0  0  0  0
  1  5  2  0  0  0  0
  2  6  2  0  0  0  0
  3  8  2  0  0  0  0
  3 17  1  0  0  0  0
  4  9  1  0  0  0  0
  4 17  2  0  0  0  0
  5 19  1  0  0  0  0
  6 21  1  0  0  0  0
  7 10  2  0  0  0  0
  7 20  1  0  0  0  0
  8 25  1  0  0  0  0
  9 25  2  0  0  0  0
 10 26  1  0  0  0  0
 11 12  2  0  0  0  0
 11 27  1  0  0  0  0
 12 28  1  0  0  0  0
 13 22  1  0  0  0  0
 13 26  2  0  0  0  0
 14 24  1  0  0  0  0
 14 29  2  0  0  0  0
 15 24  2  0  0  0  0
 15 30  1  0  0  0  0
 16 28  2  0  0  0  0
 16 31  1  0  0  0  0
 17 32  1  0  0  0  0
 18 32  1  0  0  0  0
 18 33  2  0  0  0  0
 18 34  1  0  0  0  0
 19 21  2  0  0  0  0
 19 40  1  0  0  0  0
 20 22  2  0  0  0  0
 20 41  1  0  0  0  0
 21 49  1  0  0  0  0
 22 42  1  0  0  0  0
 23 29  1  0  0  0  0
 23 30  2  0  0  0  0
 23 57  1  0  0  0  0
 24 69  1  0  0  0  0
 25 80  1  0  0  0  0
 26 81  1  0  0  0  0
 27 31  2  0  0  0  0
 27 80  1  0  0  0  0
 28 82  1  0  0  0  0
 29 83  1  0  0  0  0
 30 84  1  0  0  0  0
 31 85  1  0  0  0  0
 32 63  2  0  0  0  0
 33 64  1  0  0  0  0
 33 67  1  0  0  0  0
 34 68  1  0  0  0  0
 34 74  2  0  0  0  0
 35 50  1  0  0  0  0
 35 70  1  0  0  0  0
 35 75  2  0  0  0  0
 36 60  1  0  0  0  0
 36 65  1  0  0  0  0
 36 76  2  0  0  0  0
 37 58  1  0  0  0  0
 37 69  1  0  0  0  0
 37 77  2  0  0  0  0
 38 61  1  0  0  0  0
 38 71  1  0  0  0  0
 38 78  2  0  0  0  0
 39 66  1  0  0  0  0
 39 72  1  0  0  0  0
 39 79  2  0  0  0  0
 40 43  1  0  0  0  0
 41 50  1  0  0  0  0
 42 65  1  0  0  0  0
 43 45  1  0  0  0  0
 44 46  1  0  0  0  0
 44 47  1  0  0  0  0
 45 49  1  0  0  0  0
 46 51  1  0  0  0  0
 47 66  1  0  0  0  0
 48 51  1  0  0  0  0
 48 66  1  0  0  0  0
 49 70  1  0  0  0  0
 50 65  1  0  0  0  0
 51 64  1  0  0  0  0
 52 61  1  0  0  0  0
 53 62  1  0  0  0  0
 54 62  1  0  0  0  0
 55 62  1  0  0  0  0
 56 73  1  0  0  0  0
 57 72  1  0  0  0  0
 58 59  1  0  0  0  0
 59 81  1  0  0  0  0
 60 62  1  0  0  0  0
 60 71  1  0  0  0  0
 61 73  1  0  0  0  0
 63 64  1  0  0  0  0
M  CHG  1  73   1
M  ISO  4  39 100  59 101  72 100  81 101
M  END
> <Batch ID>
0090

> <Smiles>
CNC(C)C(=O)NC(C(=O)N1Cc2cc([101O:1][101CH2:1]CC(=O)Nc3cc(F)c(C[100NH:0][100C:0](=O)N4CCCC(n5nc(-c6ccc(Oc7ccc(F)cc7F)cc6)c(C(N)=O)c5N)C4)c(F)c3)ccc2CC1C(=O)NC1CCCc2ccccc21)C(C)(C)C

> <Shape>
0.226

> <Color>
0.053

> <Negative vol penalty>
0.000

$$$$

  -OEChem-04052300293D

 87 96  0     1  0  0  0  0  0999 V2000
  -19.8656  -17.5944   19.0246 C   0  0  0  0  0  0  0  0  0  0  0  0
  -21.1774  -18.0436   18.9117 C   0  0  0  0  0  0  0  0  0  0  0  0
  -23.2532  -10.1558   22.1623 C   0  0  0  0  0  0  0  0  0  0  0  0
  -23.5019   -9.5540   19.8357 C   0  0  0  0  0  0  0  0  0  0  0  0
  -18.8180  -18.5126   19.0824 C   0  0  0  0  0  0  0  0  0  0  0  0
  -21.4423  -19.4114   18.8553 C   0  0  0  0  0  0  0  0  0  0  0  0
  -25.3173  -20.7636   21.8219 C   0  0  0  0  0  0  0  0  0  0  0  0
  -31.5071  -18.8416   20.7865 C   0  0  0  0  0  0  0  0  0  0  0  0
  -31.2964  -17.4640   20.7297 C   0  0  0  0  0  0  0  0  0  0  0  0
  -22.4770   -9.0164   22.3741 C   0  0  0  0  0  0  0  0  0  0  0  0
  -22.7257   -8.4145   20.0475 C   0  0  0  0  0  0  0  0  0  0  0  0
  -26.6026  -20.5025   21.3490 C   0  0  0  0  0  0  0  0  0  0  0  0
  -22.9855   -5.7035   22.8202 C   0  0  0  0  0  0  0  0  0  0  0  0
  -23.2563   -4.9360   23.9529 C   0  0  0  0  0  0  0  0  0  0  0  0
  -26.8096  -22.8045   20.6583 C   0  0  0  0  0  0  0  0  0  0  0  0
  -29.9001  -19.0134   22.5824 C   0  0  0  0  0  0  0  0  0  0  0  0
  -21.0033   -5.3066   24.7426 C   0  0  0  0  0  0  0  0  0  0  0  0
  -23.7656  -10.4246   20.8931 C   0  0  0  0  0  0  0  0  0  0  0  0
  -24.1807  -12.9415   20.8677 C   0  0  0  0  0  0  0  0  0  0  0  0
  -19.0710  -19.8927   19.0364 C   0  0  0  0  0  0  0  0  0  0  0  0
  -24.7635  -22.0467   21.7065 C   0  0  0  0  0  0  0  0  0  0  0  0
  -20.3971  -20.3490   18.9111 C   0  0  0  0  0  0  0  0  0  0  0  0
  -25.5181  -23.0799   21.1329 C   0  0  0  0  0  0  0  0  0  0  0  0
  -30.8090  -19.6164   21.7129 C   0  0  0  0  0  0  0  0  0  0  0  0
  -30.3875  -16.8610   21.5992 C   0  0  0  0  0  0  0  0  0  0  0  0
  -22.2132   -8.1458   21.3167 C   0  0  0  0  0  0  0  0  0  0  0  0
  -27.3479  -21.5223   20.7645 C   0  0  0  0  0  0  0  0  0  0  0  0
  -21.7236   -6.2726   22.6486 C   0  0  0  0  0  0  0  0  0  0  0  0
  -22.2652   -4.7375   24.9142 C   0  0  0  0  0  0  0  0  0  0  0  0
  -29.6894  -17.6357   22.5256 C   0  0  0  0  0  0  0  0  0  0  0  0
  -20.7325   -6.0742   23.6098 C   0  0  0  0  0  0  0  0  0  0  0  0
  -24.5670  -11.6018   20.6736 C   0  0  0  0  0  0  0  0  0  0  0  0
  -25.2910  -13.6725   20.5221 C   0  0  0  0  0  0  0  0  0  0  0  0
  -31.9533  -23.6980   21.8180 C   0  0  0  0  0  0  0  0  0  0  0  0
  -31.6034  -22.9926   23.1019 C   0  0  0  0  0  0  0  0  0  0  0  0
  -22.9302  -13.4773   21.3202 C   0  0  0  0  0  0  0  0  0  0  0  0
  -22.2400  -23.2746   20.2139 C   0  0  0  0  0  0  0  0  0  0  0  0
  -23.1031  -25.9700   21.7989 C   0  0  0  0  0  0  0  0  0  0  0  0
  -26.1747  -27.6870   22.5957 C   0  0  0  0  0  0  0  0  0  0  0  0
  -30.7871  -14.5506   20.6779 C   0  0  0  0  0  0  0  0  0  0  0  0
  -17.9024  -20.8459   19.0545 C   0  0  0  0  0  0  0  0  0  0  0  0
  -23.3859  -22.3185   22.2458 C   0  0  0  0  0  0  0  0  0  0  0  0
  -24.9770  -24.4795   21.0036 C   0  0  0  0  0  0  0  0  0  0  0  0
  -32.0068  -22.8785   20.5637 C   0  0  0  0  0  0  0  0  0  0  0  0
  -30.8591  -21.6877   23.0485 C   0  0  0  0  0  0  0  0  0  0  0  0
  -18.2969  -22.2873   19.3660 C   0  0  0  0  0  0  0  0  0  0  0  0
  -29.5789  -12.2651   18.2297 C   0  0  0  0  0  0  0  0  0  0  0  0
  -19.5111  -22.6990   18.5395 C   0  0  0  0  0  0  0  0  0  0  0  0
  -28.1355  -11.9990   18.6633 C   0  0  0  0  0  0  0  0  0  0  0  0
  -30.5120  -12.4198   19.4294 C   0  0  0  0  0  0  0  0  0  0  0  0
  -28.6408  -13.1448   20.8584 C   0  0  0  0  0  0  0  0  0  0  0  0
  -20.7267  -21.8255   18.8720 C   0  0  1  0  0  0  0  0  0  0  0  0
  -22.7257  -23.5386   21.6110 C   0  0  1  0  0  0  0  0  0  0  0  0
  -27.6519  -13.0463   19.6854 C   0  0  2  0  0  0  0  0  0  0  0  0
  -30.9457  -21.7847   20.5310 C   0  0  2  0  0  0  0  0  0  0  0  0
  -26.7402  -29.2197   24.5006 C   0  0  0  0  0  0  0  0  0  0  0  0
  -22.3324  -28.1943   19.8577 C   0  0  0  0  0  0  0  0  0  0  0  0
  -24.2167  -29.5591   20.7824 C   0  0  0  0  0  0  0  0  0  0  0  0
  -22.3351  -28.8665   22.2665 C   0  0  0  0  0  0  0  0  0  0  0  0
  -28.4906  -26.0272   23.3961 C   0  0  0  0  0  0  0  0  0  0  0  0
  -29.5352  -22.3494   20.3318 C   0  0  0  0  0  0  0  0  0  1  0  0
  -24.0150  -27.1369   21.5059 C   0  0  1  0  0  0  0  0  0  0  0  0
  -26.8245  -27.7996   23.9630 C   0  0  2  0  0  0  0  0  0  0  0  0
  -23.2297  -28.4134   21.0921 C   0  0  0  0  0  0  0  0  0  0  0  0
  -25.8243  -11.4856   20.2381 N   0  0  0  0  0  0  0  0  0  0  0  0
  -26.2378  -12.7617   20.1558 N   0  0  0  0  0  0  0  0  0  0  0  0
  -31.0210  -20.9991   21.7702 N   0  0  2  0  0  0  0  0  0  0  0  0
  -23.6228  -24.6938   21.5401 N   0  0  0  0  0  0  0  0  0  0  0  0
  -29.9923  -13.4313   20.3522 N   0  0  0  0  0  0  0  0  0  0  0  0
  -25.5399  -14.9991   20.4987 N   0  0  0  0  0  0  0  0  0  0  0  0
  -21.9492  -13.7810   20.3664 N   0  0  0  0  0  0  0  0  0  0  0  0
  -30.1754  -15.4613   21.5387 N   0  0  0  0  0  0  0  0  0  0  0  0
  -21.3235  -22.2446   20.1220 N   0  0  0  0  0  0  0  0  0  0  0  0
  -24.8523  -27.3076   22.6884 N   0  0  0  0  0  0  0  0  0  0  0  0
  -28.2610  -27.4102   23.8875 N   0  3  0  0  0  0  0  0  0  0  0  0
  -32.2537  -24.8823   21.8733 O   0  0  0  0  0  0  0  0  0  0  0  0
  -31.8851  -23.5600   24.1506 O   0  0  0  0  0  0  0  0  0  0  0  0
  -22.6959  -13.6961   22.5330 O   0  0  0  0  0  0  0  0  0  0  0  0
  -22.6642  -23.9561   19.2879 O   0  0  0  0  0  0  0  0  0  0  0  0
  -21.9740  -26.1827   22.2478 O   0  0  0  0  0  0  0  0  0  0  0  0
  -26.7787  -27.9166   21.5502 O   0  0  0  0  0  0  0  0  0  0  0  0
  -31.9161  -14.7045   20.2050 O   0  0  0  0  0  0  0  0  0  0  0  0
  -21.4561   -7.0337   21.5231 O   0  0  0  0  0  0  0  0  0  0  0  0
  -28.6024  -21.2699   20.3015 O   0  0  0  0  0  0  0  0  0  1  0  0
  -22.5249   -3.9992   26.0012 F   0  0  0  0  0  0  0  0  0  0  0  0
  -28.8132  -17.0667   23.3658 F   0  0  0  0  0  0  0  0  0  0  0  0
  -19.5179   -6.6174   23.4500 F   0  0  0  0  0  0  0  0  0  0  0  0
  1  2  1  0  0  0  0
  1  5  2  0  0  0  0
  2  6  2  0  0  0  0
  3 10  2  0  0  0  0
  3 18  1  0  0  0  0
  4 11  1  0  0  0  0
  4 18  2  0  0  0  0
  5 20  1  0  0  0  0
  6 22  1  0  0  0  0
  7 12  2  0  0  0  0
  7 21  1  0  0  0  0
  8  9  2  0  0  0  0
  8 24  1  0  0  0  0
  9 25  1  0  0  0  0
 10 26  1  0  0  0  0
 11 26  2  0  0  0  0
 12 27  1  0  0  0  0
 13 14  2  0  0  0  0
 13 28  1  0  0  0  0
 14 29  1  0  0  0  0
 15 23  1  0  0  0  0
 15 27  2  0  0  0  0
 16 24  2  0  0  0  0
 16 30  1  0  0  0  0
 17 29  2  0  0  0  0
 17 31  1  0  0  0  0
 18 32  1  0  0  0  0
 19 32  1  0  0  0  0
 19 33  2  0  0  0  0
 19 36  1  0  0  0  0
 20 22  2  0  0  0  0
 20 41  1  0  0  0  0
 21 23  2  0  0  0  0
 21 42  1  0  0  0  0
 22 52  1  0  0  0  0
 23 43  1  0  0  0  0
 24 67  1  0  0  0  0
 25 30  2  0  0  0  0
 25 72  1  0  0  0  0
 26 83  1  0  0  0  0
 27 84  1  0  0  0  0
 28 31  2  0  0  0  0
 28 83  1  0  0  0  0
 29 85  1  0  0  0  0
 30 86  1  0  0  0  0
 31 87  1  0  0  0  0
 32 65  2  0  0  0  0
 33 66  1  0  0  0  0
 33 70  1  0  0  0  0
 34 35  1  0  0  0  0
 34 44  1  0  0  0  0
 34 76  2  0  0  0  0
 35 45  1  0  0  0  0
 35 77  2  0  0  0  0
 36 71  1  0  0  0  0
 36 78  2  0  0  0  0
 37 53  1  0  0  0  0
 37 73  1  0  0  0  0
 37 79  2  0  0  0  0
 38 62  1  0  0  0  0
 38 68  1  0  0  0  0
 38 80  2  0  0  0  0
 39 63  1  0  0  0  0
 39 74  1  0  0  0  0
 39 81  2  0  0  0  0
 40 69  1  0  0  0  0
 40 72  1  0  0  0  0
 40 82  2  0  0  0  0
 41 46  1  0  0  0  0
 42 53  1  0  0  0  0
 43 68  1  0  0  0  0
 44 55  1  0  0  0  0
 45 67  1  0  0  0  0
 46 48  1  0  0  0  0
 47 49  1  0  0  0  0
 47 50  1  0  0  0  0
 48 52  1  0  0  0  0
 49 54  1  0  0  0  0
 50 69  1  0  0  0  0
 51 54  1  0  0  0  0
 51 69  1  0  0  0  0
 52 73  1  0  0  0  0
 53 68  1  0  0  0  0
 54 66  1  0  0  0  0
 55 61  1  0  0  0  0
 55 67  1  0  0  0  0
 56 63  1  0  0  0  0
 57 64  1  0  0  0  0
 58 64  1  0  0  0  0
 59 64  1  0  0  0  0
 60 75  1  0  0  0  0
 61 84  1  0  0  0  0
 62 64  1  0  0  0  0
 62 74  1  0  0  0  0
 63 75  1  0  0  0  0
 65 66  1  0  0  0  0
M  CHG  1  75   1
M  ISO  4  40 100  61 101  72 100  84 101
M  END
> <Batch ID>
0090

> <Smiles>
CNC(C)C(=O)NC(C(=O)N1Cc2cc([101O:1][101CH2:1]C3CC(=O)C(=O)CN3c3ccc([100NH:0][100C:0](=O)N4CCCC(n5nc(-c6ccc(Oc7ccc(F)cc7F)cc6)c(C(N)=O)c5N)C4)c(F)c3)ccc2CC1C(=O)NC1CCCc2ccccc21)C(C)(C)C

> <Shape>
0.244

> <Color>
0.178

> <Negative vol penalty>
0.000

$$$$

  -OEChem-04052300293D

 85 93  0     1  0  0  0  0  0999 V2000
  -28.4834  -24.8173   16.4183 C   0  0  0  0  0  0  0  0  0  0  0  0
  -27.3271  -24.8729   17.1899 C   0  0  0  0  0  0  0  0  0  0  0  0
  -30.9091  -18.9774   17.4796 C   0  0  0  0  0  0  0  0  0  0  0  0
  -29.0563  -20.3976   16.8575 C   0  0  0  0  0  0  0  0  0  0  0  0
  -29.6442  -25.4526   16.8574 C   0  0  0  0  0  0  0  0  0  0  0  0
  -27.3313  -25.5629   18.4016 C   0  0  0  0  0  0  0  0  0  0  0  0
  -23.2331  -28.4788   18.9910 C   0  0  0  0  0  0  0  0  0  0  0  0
  -20.0227  -19.4650   20.4651 C   0  0  0  0  0  0  0  0  0  0  0  0
  -19.7736  -20.8336   20.5679 C   0  0  0  0  0  0  0  0  0  0  0  0
  -31.6139  -19.4036   16.3539 C   0  0  0  0  0  0  0  0  0  0  0  0
  -29.7611  -20.8239   15.7318 C   0  0  0  0  0  0  0  0  0  0  0  0
  -22.0489  -27.8447   19.3645 C   0  0  0  0  0  0  0  0  0  0  0  0
  -33.4161  -22.1077   15.4198 C   0  0  0  0  0  0  0  0  0  0  0  0
  -34.7584  -22.4486   15.5860 C   0  0  0  0  0  0  0  0  0  0  0  0
  -22.4097  -28.5299   21.6491 C   0  0  0  0  0  0  0  0  0  0  0  0
  -21.8815  -19.6886   21.9921 C   0  0  0  0  0  0  0  0  0  0  0  0
  -35.3896  -20.7343   14.0049 C   0  0  0  0  0  0  0  0  0  0  0  0
  -29.6303  -19.4743   17.7314 C   0  0  0  0  0  0  0  0  0  0  0  0
  -28.9155  -19.6143   20.1762 C   0  0  0  0  0  0  0  0  0  0  0  0
  -29.6599  -26.1589   18.0705 C   0  0  0  0  0  0  0  0  0  0  0  0
  -24.0214  -29.1349   19.9473 C   0  0  0  0  0  0  0  0  0  0  0  0
  -28.4938  -26.2071   18.8580 C   0  0  0  0  0  0  0  0  0  0  0  0
  -23.6021  -29.1736   21.2848 C   0  0  0  0  0  0  0  0  0  0  0  0
  -21.0766  -18.8925   21.1773 C   0  0  0  0  0  0  0  0  0  0  0  0
  -20.5785  -21.6297   21.3828 C   0  0  0  0  0  0  0  0  0  0  0  0
  -21.6325  -21.0572   22.0949 C   0  0  0  0  0  0  0  0  0  0  0  0
  -31.0399  -20.3269   15.4800 C   0  0  0  0  0  0  0  0  0  0  0  0
  -21.6385  -27.8677   20.6942 C   0  0  0  0  0  0  0  0  0  0  0  0
  -33.0605  -21.0801   14.5462 C   0  0  0  0  0  0  0  0  0  0  0  0
  -35.7451  -21.7619   14.8786 C   0  0  0  0  0  0  0  0  0  0  0  0
  -34.0472  -20.3934   13.8387 C   0  0  0  0  0  0  0  0  0  0  0  0
  -28.9015  -19.0339   18.8937 C   0  0  0  0  0  0  0  0  0  0  0  0
  -28.0649  -18.8306   20.9170 C   0  0  0  0  0  0  0  0  0  0  0  0
  -20.3759  -25.9044   20.8425 C   0  0  0  0  0  0  0  0  0  1  0  0
  -29.6331  -20.7594   20.6550 C   0  0  0  0  0  0  0  0  0  0  0  0
  -19.2936  -25.1802   21.1583 C   0  0  0  0  0  0  0  0  0  0  0  0
  -19.2871  -23.7159   20.8402 C   0  0  0  0  0  0  0  0  0  0  0  0
  -26.9797  -28.7671   21.0504 C   0  0  0  0  0  0  0  0  0  0  0  0
  -26.3070  -31.5080   22.6495 C   0  0  0  0  0  0  0  0  0  0  0  0
  -23.9437  -33.5912   23.9618 C   0  0  0  0  0  0  0  0  0  0  0  0
  -23.1309  -15.8496   20.3848 C   0  0  0  0  0  0  0  0  0  0  0  0
  -30.9517  -26.7898   18.5264 C   0  0  0  0  0  0  0  0  0  0  0  0
  -25.2824  -29.8369   19.5237 C   0  0  0  0  0  0  0  0  0  0  0  0
  -24.4020  -29.8818   22.3464 C   0  0  0  0  0  0  0  0  0  0  0  0
  -30.7681  -27.8159   19.6416 C   0  0  0  0  0  0  0  0  0  0  0  0
  -26.3010  -14.2321   20.4870 C   0  0  0  0  0  0  0  0  0  0  0  0
  -29.8475  -27.2662   20.7266 C   0  0  0  0  0  0  0  0  0  0  0  0
  -27.2961  -15.3594   20.2058 C   0  0  0  0  0  0  0  0  0  0  0  0
  -25.0141  -14.4016   19.6826 C   0  0  0  0  0  0  0  0  0  0  0  0
  -25.3508  -16.8396   19.5551 C   0  0  0  0  0  0  0  0  0  0  0  0
  -28.4519  -26.9667   20.1662 C   0  0  1  0  0  0  0  0  0  0  0  0
  -26.2696  -30.0354   20.6698 C   0  0  1  0  0  0  0  0  0  0  0  0
  -26.6420  -16.7425   20.3856 C   0  0  2  0  0  0  0  0  0  0  0  0
  -18.0394  -25.7330   21.7606 C   0  0  0  0  0  0  0  0  0  0  0  0
  -23.7003  -35.7351   25.2431 C   0  0  0  0  0  0  0  0  0  0  0  0
  -27.1279  -30.0675   25.2110 C   0  0  0  0  0  0  0  0  0  0  0  0
  -25.9866  -31.8769   26.5116 C   0  0  0  0  0  0  0  0  0  0  0  0
  -27.9248  -32.4321   25.0427 C   0  0  0  0  0  0  0  0  0  0  0  0
  -22.4326  -34.8699   21.7617 C   0  0  0  0  0  0  0  0  0  0  0  0
  -21.3424  -17.4292   21.0670 C   0  0  0  0  0  0  0  0  0  0  0  0
  -25.7023  -31.8417   23.9919 C   0  0  1  0  0  0  0  0  0  0  0  0
  -23.7610  -35.0951   23.8649 C   0  0  2  0  0  0  0  0  0  0  0  0
  -26.6711  -31.5395   25.1699 C   0  0  0  0  0  0  0  0  0  0  0  0
  -28.1053  -17.9640   18.8206 N   0  0  0  0  0  0  0  0  0  0  0  0
  -27.6111  -17.8658   20.0665 N   0  0  0  0  0  0  0  0  0  0  0  0
  -25.6307  -30.5479   21.8837 N   0  0  0  0  0  0  0  0  0  0  0  0
  -24.4436  -15.7334   19.8986 N   0  0  0  0  0  0  0  0  0  0  0  0
  -22.4604  -21.8450   22.9259 N   0  0  0  0  0  0  0  0  0  0  0  0
  -27.6685  -18.8795   22.2065 N   0  0  0  0  0  0  0  0  0  0  0  0
  -30.4632  -21.4495   19.7611 N   0  0  0  0  0  0  0  0  0  0  0  0
  -20.3063  -23.0167   21.4709 N   0  0  0  0  0  0  0  0  0  0  0  0
  -27.6937  -28.1903   20.0174 N   0  0  0  0  0  0  0  0  0  0  0  0
  -25.2746  -33.2342   23.9122 N   0  0  0  0  0  0  0  0  0  0  0  0
  -22.6697  -17.1476   20.5672 N   0  0  0  0  0  0  0  0  0  0  0  0
  -22.4990  -35.4179   23.1409 N   0  3  0  0  0  0  0  0  0  0  0  0
  -29.5537  -21.1492   21.8446 O   0  0  0  0  0  0  0  0  0  0  0  0
  -18.3953  -23.2647   20.1282 O   0  0  0  0  0  0  0  0  0  0  0  0
  -26.8879  -28.3440   22.1968 O   0  0  0  0  0  0  0  0  0  0  0  0
  -27.3373  -32.0835   22.2906 O   0  0  0  0  0  0  0  0  0  0  0  0
  -23.0004  -32.8114   24.0743 O   0  0  0  0  0  0  0  0  0  0  0  0
  -22.4243  -14.8692   20.6427 O   0  0  0  0  0  0  0  0  0  0  0  0
  -31.7274  -20.7433   14.3816 O   0  0  0  0  0  0  0  0  0  0  0  0
  -20.4834  -27.2491   21.0615 O   0  0  0  0  0  0  0  0  0  1  0  0
  -37.0340  -22.0904   15.0372 F   0  0  0  0  0  0  0  0  0  0  0  0
  -33.7117  -19.4060   12.9972 F   0  0  0  0  0  0  0  0  0  0  0  0
  1  2  1  0  0  0  0
  1  5  2  0  0  0  0
  2  6  2  0  0  0  0
  3 10  2  0  0  0  0
  3 18  1  0  0  0  0
  4 11  1  0  0  0  0
  4 18  2  0  0  0  0
  5 20  1  0  0  0  0
  6 22  1  0  0  0  0
  7 12  2  0  0  0  0
  7 21  1  0  0  0  0
  8  9  2  0  0  0  0
  8 24  1  0  0  0  0
  9 25  1  0  0  0  0
 10 27  1  0  0  0  0
 11 27  2  0  0  0  0
 12 28  1  0  0  0  0
 13 14  2  0  0  0  0
 13 29  1  0  0  0  0
 14 30  1  0  0  0  0
 15 23  1  0  0  0  0
 15 28  2  0  0  0  0
 16 24  2  0  0  0  0
 16 26  1  0  0  0  0
 17 30  2  0  0  0  0
 17 31  1  0  0  0  0
 18 32  1  0  0  0  0
 19 32  1  0  0  0  0
 19 33  2  0  0  0  0
 19 35  1  0  0  0  0
 20 22  2  0  0  0  0
 20 42  1  0  0  0  0
 21 23  2  0  0  0  0
 21 43  1  0  0  0  0
 22 51  1  0  0  0  0
 23 44  1  0  0  0  0
 24 60  1  0  0  0  0
 25 26  2  0  0  0  0
 25 71  1  0  0  0  0
 26 68  1  0  0  0  0
 27 82  1  0  0  0  0
 28 83  1  0  0  0  0
 29 31  2  0  0  0  0
 29 82  1  0  0  0  0
 30 84  1  0  0  0  0
 31 85  1  0  0  0  0
 32 64  2  0  0  0  0
 33 65  1  0  0  0  0
 33 69  1  0  0  0  0
 34 36  2  0  0  0  0
 34 83  1  0  0  0  0
 35 70  1  0  0  0  0
 35 76  2  0  0  0  0
 36 37  1  0  0  0  0
 36 54  1  0  0  0  0
 37 71  1  0  0  0  0
 37 77  2  0  0  0  0
 38 52  1  0  0  0  0
 38 72  1  0  0  0  0
 38 78  2  0  0  0  0
 39 61  1  0  0  0  0
 39 66  1  0  0  0  0
 39 79  2  0  0  0  0
 40 62  1  0  0  0  0
 40 73  1  0  0  0  0
 40 80  2  0  0  0  0
 41 67  1  0  0  0  0
 41 74  1  0  0  0  0
 41 81  2  0  0  0  0
 42 45  1  0  0  0  0
 43 52  1  0  0  0  0
 44 66  1  0  0  0  0
 45 47  1  0  0  0  0
 46 48  1  0  0  0  0
 46 49  1  0  0  0  0
 47 51  1  0  0  0  0
 48 53  1  0  0  0  0
 49 67  1  0  0  0  0
 50 53  1  0  0  0  0
 50 67  1  0  0  0  0
 51 72  1  0  0  0  0
 52 66  1  0  0  0  0
 53 65  1  0  0  0  0
 55 62  1  0  0  0  0
 56 63  1  0  0  0  0
 57 63  1  0  0  0  0
 58 63  1  0  0  0  0
 59 75  1  0  0  0  0
 60 74  1  0  0  0  0
 61 63  1  0  0  0  0
 61 73  1  0  0  0  0
 62 75  1  0  0  0  0
 64 65  1  0  0  0  0
M  CHG  1  75   1
M  ISO  4  34 101  41 100  74 100  83 101
M  END
> <Batch ID>
0090

> <Smiles>
CNC(C)C(=O)NC(C(=O)N1Cc2cc([101O:1][101CH:1]=C(C)C(=O)Nc3ccc(C[100NH:0][100C:0](=O)N4CCCC(n5nc(-c6ccc(Oc7ccc(F)cc7F)cc6)c(C(N)=O)c5N)C4)cc3N)ccc2CC1C(=O)NC1CCCc2ccccc21)C(C)(C)C

> <Shape>
0.246

> <Color>
0.067

> <Negative vol penalty>
0.000

$$$$

  -OEChem-04052300293D

 84 93  0     1  0  0  0  0  0999 V2000
  -28.1103  -37.5034   24.9605 C   0  0  0  0  0  0  0  0  0  0  0  0
  -28.6250  -36.5607   24.0763 C   0  0  0  0  0  0  0  0  0  0  0  0
  -22.9642  -10.2546   21.1405 C   0  0  0  0  0  0  0  0  0  0  0  0
  -24.6803   -8.7574   21.9469 C   0  0  0  0  0  0  0  0  0  0  0  0
  -27.0767  -37.1525   25.8279 C   0  0  0  0  0  0  0  0  0  0  0  0
  -28.1070  -35.2661   24.0598 C   0  0  0  0  0  0  0  0  0  0  0  0
  -26.8059  -29.8304   19.5792 C   0  0  0  0  0  0  0  0  0  0  0  0
  -22.0732   -9.1852   21.0508 C   0  0  0  0  0  0  0  0  0  0  0  0
  -23.7893   -7.6879   21.8573 C   0  0  0  0  0  0  0  0  0  0  0  0
  -27.0500  -28.4644   19.4434 C   0  0  0  0  0  0  0  0  0  0  0  0
  -21.2197   -6.4312   23.6569 C   0  0  0  0  0  0  0  0  0  0  0  0
  -21.1684   -5.5409   24.7293 C   0  0  0  0  0  0  0  0  0  0  0  0
  -25.2111  -27.9940   20.9322 C   0  0  0  0  0  0  0  0  0  0  0  0
  -27.8150  -19.5530   20.3000 C   0  0  0  0  0  0  0  0  0  0  0  0
  -21.8082   -3.7334   23.2594 C   0  0  0  0  0  0  0  0  0  0  0  0
  -27.2932  -20.7957   18.4064 C   0  0  0  0  0  0  0  0  0  0  0  0
  -24.2677  -10.0408   21.5885 C   0  0  0  0  0  0  0  0  0  0  0  0
  -25.4003  -11.9850   22.7905 C   0  0  0  0  0  0  0  0  0  0  0  0
  -26.5392  -35.8557   25.8153 C   0  0  0  0  0  0  0  0  0  0  0  0
  -25.7677  -30.2895   20.4025 C   0  0  0  0  0  0  0  0  0  0  0  0
  -27.0661  -34.8972   24.9288 C   0  0  0  0  0  0  0  0  0  0  0  0
  -24.9543  -29.3662   21.0747 C   0  0  0  0  0  0  0  0  0  0  0  0
  -27.4896  -20.8346   19.7693 C   0  0  0  0  0  0  0  0  0  0  0  0
  -22.4857   -7.9018   21.4092 C   0  0  0  0  0  0  0  0  0  0  0  0
  -26.2544  -27.5461   20.1222 C   0  0  0  0  0  0  0  0  0  0  0  0
  -21.5652   -5.9727   22.3856 C   0  0  0  0  0  0  0  0  0  0  0  0
  -21.4626   -4.1920   24.5306 C   0  0  0  0  0  0  0  0  0  0  0  0
  -21.8595   -4.6238   22.1869 C   0  0  0  0  0  0  0  0  0  0  0  0
  -25.1887  -11.1450   21.6808 C   0  0  0  0  0  0  0  0  0  0  0  0
  -26.3670  -12.8673   22.3739 C   0  0  0  0  0  0  0  0  0  0  0  0
  -27.8546  -18.5831   19.3224 C   0  0  0  0  0  0  0  0  0  0  0  0
  -27.0467  -24.1908   21.1075 C   0  0  0  0  0  0  0  0  0  0  0  0
  -27.3789  -23.4112   22.3216 C   0  0  0  0  0  0  0  0  0  0  0  0
  -26.7968  -25.5002   21.1176 C   0  0  0  0  0  0  0  0  0  1  0  0
  -24.7787  -11.9691   24.0824 C   0  0  0  0  0  0  0  0  0  0  0  0
  -25.6072  -32.0936   23.0146 C   0  0  0  0  0  0  0  0  0  0  0  0
  -22.4108  -31.8221   22.5332 C   0  0  0  0  0  0  0  0  0  0  0  0
  -19.8246  -30.0538   21.1799 C   0  0  0  0  0  0  0  0  0  0  0  0
  -28.1229  -16.3512   18.2539 C   0  0  0  0  0  0  0  0  0  0  0  0
  -25.4545  -35.5099   26.8045 C   0  0  0  0  0  0  0  0  0  0  0  0
  -25.5005  -31.7652   20.5173 C   0  0  0  0  0  0  0  0  0  0  0  0
  -23.8143  -29.8069   21.9548 C   0  0  0  0  0  0  0  0  0  0  0  0
  -27.0494  -23.2611   19.9390 C   0  0  0  0  0  0  0  0  0  0  0  0
  -27.6011  -21.9719   21.9566 C   0  0  0  0  0  0  0  0  0  0  0  0
  -24.7074  -34.2229   26.4640 C   0  0  0  0  0  0  0  0  0  0  0  0
  -29.3096  -12.8581   18.2708 C   0  0  0  0  0  0  0  0  0  0  0  0
  -25.6910  -33.1145   26.1021 C   0  0  0  0  0  0  0  0  0  0  0  0
  -28.3151  -12.1651   19.2008 C   0  0  0  0  0  0  0  0  0  0  0  0
  -28.6774  -14.0428   17.5464 C   0  0  0  0  0  0  0  0  0  0  0  0
  -27.0539  -14.3466   19.3909 C   0  0  0  0  0  0  0  0  0  0  0  0
  -26.5139  -33.4897   24.8638 C   0  0  1  0  0  0  0  0  0  0  0  0
  -24.7417  -32.1381   21.7872 C   0  0  1  0  0  0  0  0  0  0  0  0
  -27.6730  -13.1749   20.1679 C   0  0  1  0  0  0  0  0  0  0  0  0
  -17.3227  -30.0599   20.9856 C   0  0  0  0  0  0  0  0  0  0  0  0
  -22.1871  -30.8386   25.4129 C   0  0  0  0  0  0  0  0  0  0  0  0
  -19.8998  -29.9788   24.8681 C   0  0  0  0  0  0  0  0  0  0  0  0
  -20.3832  -32.4208   24.7078 C   0  0  0  0  0  0  0  0  0  0  0  0
  -28.6818  -16.6362   20.6573 C   0  0  0  0  0  0  0  0  0  0  0  0
  -19.9383  -30.2525   18.2292 C   0  0  0  0  0  0  0  0  0  0  0  0
  -21.3420  -30.8510   22.9733 C   0  0  1  0  0  0  0  0  0  0  0  0
  -18.6336  -30.4900   20.3458 C   0  0  2  0  0  0  0  0  0  0  0  0
  -20.9757  -31.0138   24.4755 C   0  0  0  0  0  0  0  0  0  0  0  0
  -25.9589  -11.4651   20.6375 N   0  0  0  0  0  0  0  0  0  0  0  0
  -26.6639  -12.5160   21.0899 N   0  0  0  0  0  0  0  0  0  0  0  0
  -27.3858  -21.9536   20.5103 N   0  0  3  0  0  0  0  0  0  0  0  0
  -23.5970  -31.2606   22.0398 N   0  0  0  0  0  0  0  0  0  0  0  0
  -28.0348  -14.9636   18.4848 N   0  0  0  0  0  0  0  0  0  0  0  0
  -26.9836  -13.9015   22.9843 N   0  0  0  0  0  0  0  0  0  0  0  0
  -23.8053  -10.9952   24.3435 N   0  0  0  0  0  0  0  0  0  0  0  0
  -25.7290  -33.3086   23.6615 N   0  0  0  0  0  0  0  0  0  0  0  0
  -20.2193  -31.0385   22.0607 N   0  0  0  0  0  0  0  0  0  0  0  0
  -28.1381  -17.1697   19.4040 N   0  0  0  0  0  0  0  0  0  0  0  0
  -18.7094  -29.8929   18.9825 N   0  3  0  0  0  0  0  0  0  0  0  0
  -27.4604  -23.8682   23.4504 O   0  0  0  0  0  0  0  0  0  0  0  0
  -25.0659  -12.8043   24.9731 O   0  0  0  0  0  0  0  0  0  0  0  0
  -26.1249  -31.0350   23.3508 O   0  0  0  0  0  0  0  0  0  0  0  0
  -22.1982  -33.0343   22.6172 O   0  0  0  0  0  0  0  0  0  0  0  0
  -20.3497  -28.9486   21.0644 O   0  0  0  0  0  0  0  0  0  0  0  0
  -28.2112  -16.8183   17.1121 O   0  0  0  0  0  0  0  0  0  0  0  0
  -21.6166   -6.8581   21.3221 O   0  0  0  0  0  0  0  0  0  0  0  0
  -26.4909  -26.2123   19.9920 O   0  0  0  0  0  0  0  0  0  1  0  0
  -21.4148   -3.3373   25.5609 F   0  0  0  0  0  0  0  0  0  0  0  0
  -22.1932   -4.1776   20.9681 F   0  0  0  0  0  0  0  0  0  0  0  0
  -27.5009  -19.2187   17.7721 S   0  0  0  0  0  0  0  0  0  0  0  0
  1  2  1  0  0  0  0
  1  5  2  0  0  0  0
  2  6  2  0  0  0  0
  3  8  2  0  0  0  0
  3 17  1  0  0  0  0
  4  9  1  0  0  0  0
  4 17  2  0  0  0  0
  5 19  1  0  0  0  0
  6 21  1  0  0  0  0
  7 10  2  0  0  0  0
  7 20  1  0  0  0  0
  8 24  1  0  0  0  0
  9 24  2  0  0  0  0
 10 25  1  0  0  0  0
 11 12  2  0  0  0  0
 11 26  1  0  0  0  0
 12 27  1  0  0  0  0
 13 22  1  0  0  0  0
 13 25  2  0  0  0  0
 14 23  1  0  0  0  0
 14 31  2  0  0  0  0
 15 27  2  0  0  0  0
 15 28  1  0  0  0  0
 16 23  2  0  0  0  0
 16 84  1  0  0  0  0
 17 29  1  0  0  0  0
 18 29  1  0  0  0  0
 18 30  2  0  0  0  0
 18 35  1  0  0  0  0
 19 21  2  0  0  0  0
 19 40  1  0  0  0  0
 20 22  2  0  0  0  0
 20 41  1  0  0  0  0
 21 51  1  0  0  0  0
 22 42  1  0  0  0  0
 23 65  1  0  0  0  0
 24 80  1  0  0  0  0
 25 81  1  0  0  0  0
 26 28  2  0  0  0  0
 26 80  1  0  0  0  0
 27 82  1  0  0  0  0
 28 83  1  0  0  0  0
 29 63  2  0  0  0  0
 30 64  1  0  0  0  0
 30 68  1  0  0  0  0
 31 72  1  0  0  0  0
 31 84  1  0  0  0  0
 32 33  1  0  0  0  0
 32 34  2  0  0  0  0
 32 43  1  0  0  0  0
 33 44  1  0  0  0  0
 33 74  2  0  0  0  0
 34 81  1  0  0  0  0
 35 69  1  0  0  0  0
 35 75  2  0  0  0  0
 36 52  1  0  0  0  0
 36 70  1  0  0  0  0
 36 76  2  0  0  0  0
 37 60  1  0  0  0  0
 37 66  1  0  0  0  0
 37 77  2  0  0  0  0
 38 61  1  0  0  0  0
 38 71  1  0  0  0  0
 38 78  2  0  0  0  0
 39 67  1  0  0  0  0
 39 72  1  0  0  0  0
 39 79  2  0  0  0  0
 40 45  1  0  0  0  0
 41 52  1  0  0  0  0
 42 66  1  0  0  0  0
 43 65  1  0  0  0  0
 44 65  1  0  0  0  0
 45 47  1  0  0  0  0
 46 48  1  0  0  0  0
 46 49  1  0  0  0  0
 47 51  1  0  0  0  0
 48 53  1  0  0  0  0
 49 67  1  0  0  0  0
 50 53  1  0  0  0  0
 50 67  1  0  0  0  0
 51 70  1  0  0  0  0
 52 66  1  0  0  0  0
 53 64  1  0  0  0  0
 54 61  1  0  0  0  0
 55 62  1  0  0  0  0
 56 62  1  0  0  0  0
 57 62  1  0  0  0  0
 58 72  1  0  0  0  0
 59 73  1  0  0  0  0
 60 62  1  0  0  0  0
 60 71  1  0  0  0  0
 61 73  1  0  0  0  0
 63 64  1  0  0  0  0
M  CHG  1  73   1
M  ISO  4  34 101  39 100  72 100  81 101
M  END
> <Batch ID>
0090

> <Smiles>
CNC(C)C(=O)NC(C(=O)N1Cc2cc([101O:1][101CH:1]=C3CN(c4csc([100N:0](C)[100C:0](=O)N5CCCC(n6nc(-c7ccc(Oc8ccc(F)cc8F)cc7)c(C(N)=O)c6N)C5)c4)CC3=O)ccc2CC1C(=O)NC1CCCc2ccccc21)C(C)(C)C

> <Shape>
0.306

> <Color>
0.118

> <Negative vol penalty>
0.000

$$$$

  -OEChem-04052300293D

 84 92  0     1  0  0  0  0  0999 V2000
  -18.6632  -17.0251   19.8583 C   0  0  0  0  0  0  0  0  0  0  0  0
  -19.7817  -17.8470   19.7636 C   0  0  0  0  0  0  0  0  0  0  0  0
  -23.5496  -27.9905   21.9594 C   0  0  0  0  0  0  0  0  0  0  0  0
  -23.3138  -29.6996   20.2681 C   0  0  0  0  0  0  0  0  0  0  0  0
  -18.7282  -15.8436   20.5957 C   0  0  0  0  0  0  0  0  0  0  0  0
  -20.9655  -17.4884   20.4072 C   0  0  0  0  0  0  0  0  0  0  0  0
  -26.6770  -18.5169   18.4508 C   0  0  0  0  0  0  0  0  0  0  0  0
  -30.7360  -24.7189   22.5692 C   0  0  0  0  0  0  0  0  0  0  0  0
  -31.1529  -25.8167   23.3219 C   0  0  0  0  0  0  0  0  0  0  0  0
  -22.2791  -28.2973   22.4466 C   0  0  0  0  0  0  0  0  0  0  0  0
  -22.0432  -30.0064   20.7553 C   0  0  0  0  0  0  0  0  0  0  0  0
  -27.6133  -19.5009   18.7653 C   0  0  0  0  0  0  0  0  0  0  0  0
  -19.0673  -27.6560   21.6062 C   0  0  0  0  0  0  0  0  0  0  0  0
  -18.2111  -26.5942   21.8980 C   0  0  0  0  0  0  0  0  0  0  0  0
  -29.2660  -26.1511   21.2944 C   0  0  0  0  0  0  0  0  0  0  0  0
  -28.6259  -18.0149   20.3733 C   0  0  0  0  0  0  0  0  0  0  0  0
  -18.0932  -27.3215   24.1989 C   0  0  0  0  0  0  0  0  0  0  0  0
  -24.0670  -28.6917   20.8702 C   0  0  0  0  0  0  0  0  0  0  0  0
  -29.6829  -27.2490   22.0472 C   0  0  0  0  0  0  0  0  0  0  0  0
  -25.7044  -27.4353   19.3710 C   0  0  0  0  0  0  0  0  0  0  0  0
  -19.9163  -15.4655   21.2407 C   0  0  0  0  0  0  0  0  0  0  0  0
  -26.7014  -17.2763   19.1042 C   0  0  0  0  0  0  0  0  0  0  0  0
  -21.0461  -16.3014   21.1551 C   0  0  0  0  0  0  0  0  0  0  0  0
  -27.6904  -17.0160   20.0635 C   0  0  0  0  0  0  0  0  0  0  0  0
  -29.7926  -24.8861   21.5554 C   0  0  0  0  0  0  0  0  0  0  0  0
  -30.6263  -27.0817   23.0609 C   0  0  0  0  0  0  0  0  0  0  0  0
  -21.5259  -29.3052   21.8445 C   0  0  0  0  0  0  0  0  0  0  0  0
  -28.5861  -19.2510   19.7287 C   0  0  0  0  0  0  0  0  0  0  0  0
  -19.4365  -28.5505   22.6108 C   0  0  0  0  0  0  0  0  0  0  0  0
  -17.7240  -26.4270   23.1943 C   0  0  0  0  0  0  0  0  0  0  0  0
  -18.9494  -28.3833   23.9072 C   0  0  0  0  0  0  0  0  0  0  0  0
  -25.3795  -28.3757   20.3669 C   0  0  0  0  0  0  0  0  0  0  0  0
  -27.0710  -27.5131   19.2579 C   0  0  0  0  0  0  0  0  0  0  0  0
  -27.8205  -28.8327   21.8505 C   0  0  0  0  0  0  0  0  0  0  0  0
  -29.1108  -28.5559   21.7448 C   0  0  0  0  0  0  0  0  0  0  0  0
  -24.8474  -26.5689   18.6156 C   0  0  0  0  0  0  0  0  0  0  0  0
  -24.6859  -15.6897   20.9814 C   0  0  0  0  0  0  0  0  0  0  0  0
  -26.8934  -13.3296   20.6994 C   0  0  0  0  0  0  0  0  0  0  0  0
  -29.7892  -22.4518   20.9166 C   0  0  0  0  0  0  0  0  0  0  0  0
  -30.1304  -12.4505   20.0703 C   0  0  0  0  0  0  0  0  0  0  0  0
  -31.1384  -29.5176   23.3704 C   0  0  0  0  0  0  0  0  0  0  0  0
  -19.9245  -14.2028   22.0655 C   0  0  0  0  0  0  0  0  0  0  0  0
  -25.7009  -16.2158   18.7344 C   0  0  0  0  0  0  0  0  0  0  0  0
  -27.7723  -15.6933   20.7792 C   0  0  0  0  0  0  0  0  0  0  0  0
  -21.3274  -13.7077   22.4075 C   0  0  0  0  0  0  0  0  0  0  0  0
  -30.7341  -30.5294   19.8341 C   0  0  0  0  0  0  0  0  0  0  0  0
  -22.1946  -14.8610   22.9021 C   0  0  0  0  0  0  0  0  0  0  0  0
  -29.3081  -30.0843   19.5148 C   0  0  0  0  0  0  0  0  0  0  0  0
  -30.9038  -30.8692   21.3117 C   0  0  0  0  0  0  0  0  0  0  0  0
  -29.0687  -29.3144   21.9088 C   0  0  0  0  0  0  0  0  0  0  0  0
  -22.3557  -15.9342   21.8186 C   0  0  1  0  0  0  0  0  0  0  0  0
  -25.5024  -15.1735   19.8305 C   0  0  1  0  0  0  0  0  0  0  0  0
  -28.8822  -28.9277   20.4340 C   0  0  1  0  0  0  0  0  0  0  0  0
  -31.6405  -10.4498   19.9500 C   0  0  0  0  0  0  0  0  0  0  0  0
  -26.9631  -13.2019   23.7471 C   0  0  0  0  0  0  0  0  0  0  0  0
  -29.1062  -11.9190   23.5749 C   0  0  0  0  0  0  0  0  0  0  0  0
  -27.0088  -10.9758   22.6084 C   0  0  0  0  0  0  0  0  0  0  0  0
  -31.7402  -27.9092   25.1262 C   0  0  0  0  0  0  0  0  0  0  0  0
  -30.7428  -12.9394   17.2164 C   0  0  0  0  0  0  0  0  0  0  0  0
  -29.0886  -21.5692   19.9004 C   0  0  0  0  0  0  0  0  0  1  0  0
  -28.1331  -12.9286   21.4619 C   0  0  1  0  0  0  0  0  0  0  0  0
  -30.7278  -11.3837   19.1705 C   0  0  2  0  0  0  0  0  0  0  0  0
  -27.8003  -12.2821   22.8362 C   0  0  0  0  0  0  0  0  0  0  0  0
  -26.4533  -29.0047   20.8521 N   0  0  0  0  0  0  0  0  0  0  0  0
  -27.4663  -28.4583   20.1582 N   0  0  0  0  0  0  0  0  0  0  0  0
  -26.7678  -14.6908   20.3873 N   0  0  0  0  0  0  0  0  0  0  0  0
  -30.4385  -29.7829   22.1755 N   0  0  0  0  0  0  0  0  0  0  0  0
  -27.9611  -26.8644   18.4773 N   0  0  0  0  0  0  0  0  0  0  0  0
  -23.4678  -26.6169   18.8575 N   0  0  0  0  0  0  0  0  0  0  0  0
  -29.3708  -23.7721   20.7915 N   0  0  0  0  0  0  0  0  0  0  0  0
  -23.3240  -15.5123   20.8293 N   0  0  0  0  0  0  0  0  0  0  0  0
  -28.9022  -12.0697   20.5680 N   0  0  0  0  0  0  0  0  0  0  0  0
  -31.0776  -28.1975   23.8561 N   0  0  0  0  0  0  0  0  0  0  0  0
  -31.5220  -12.0131   18.0778 N   0  3  0  0  0  0  0  0  0  0  0  0
  -25.2936  -25.7639   17.7632 O   0  0  0  0  0  0  0  0  0  0  0  0
  -25.2499  -16.2090   21.9374 O   0  0  0  0  0  0  0  0  0  0  0  0
  -26.0705  -12.4659   20.3858 O   0  0  0  0  0  0  0  0  0  0  0  0
  -30.6041  -21.9945   21.7113 O   0  0  0  0  0  0  0  0  0  0  0  0
  -30.6984  -13.5135   20.3109 O   0  0  0  0  0  0  0  0  0  0  0  0
  -31.7310  -30.4074   23.9930 O   0  0  0  0  0  0  0  0  0  0  0  0
  -20.2860  -29.6046   22.3194 O   0  0  0  0  0  0  0  0  0  0  0  0
  -29.5008  -20.2100   20.0380 O   0  0  0  0  0  0  0  0  0  1  0  0
  -16.9006  -25.4082   23.4740 F   0  0  0  0  0  0  0  0  0  0  0  0
  -19.2997  -29.2401   24.8762 F   0  0  0  0  0  0  0  0  0  0  0  0
  1  2  1  0  0  0  0
  1  5  2  0  0  0  0
  2  6  2  0  0  0  0
  3 10  2  0  0  0  0
  3 18  1  0  0  0  0
  4 11  1  0  0  0  0
  4 18  2  0  0  0  0
  5 21  1  0  0  0  0
  6 23  1  0  0  0  0
  7 12  2  0  0  0  0
  7 22  1  0  0  0  0
  8  9  2  0  0  0  0
  8 25  1  0  0  0  0
  9 26  1  0  0  0  0
 10 27  1  0  0  0  0
 11 27  2  0  0  0  0
 12 28  1  0  0  0  0
 13 14  2  0  0  0  0
 13 29  1  0  0  0  0
 14 30  1  0  0  0  0
 15 19  1  0  0  0  0
 15 25  2  0  0  0  0
 16 24  1  0  0  0  0
 16 28  2  0  0  0  0
 17 30  2  0  0  0  0
 17 31  1  0  0  0  0
 18 32  1  0  0  0  0
 19 26  2  0  0  0  0
 19 35  1  0  0  0  0
 20 32  1  0  0  0  0
 20 33  2  0  0  0  0
 20 36  1  0  0  0  0
 21 23  2  0  0  0  0
 21 42  1  0  0  0  0
 22 24  2  0  0  0  0
 22 43  1  0  0  0  0
 23 51  1  0  0  0  0
 24 44  1  0  0  0  0
 25 70  1  0  0  0  0
 26 73  1  0  0  0  0
 27 81  1  0  0  0  0
 28 82  1  0  0  0  0
 29 31  2  0  0  0  0
 29 81  1  0  0  0  0
 30 83  1  0  0  0  0
 31 84  1  0  0  0  0
 32 64  2  0  0  0  0
 33 65  1  0  0  0  0
 33 68  1  0  0  0  0
 34 35  2  0  0  0  0
 36 69  1  0  0  0  0
 36 75  2  0  0  0  0
 37 52  1  0  0  0  0
 37 71  1  0  0  0  0
 37 76  2  0  0  0  0
 38 61  1  0  0  0  0
 38 66  1  0  0  0  0
 38 77  2  0  0  0  0
 39 60  1  0  0  0  0
 39 70  1  0  0  0  0
 39 78  2  0  0  0  0
 40 62  1  0  0  0  0
 40 72  1  0  0  0  0
 40 79  2  0  0  0  0
 41 67  1  0  0  0  0
 41 73  1  0  0  0  0
 41 80  2  0  0  0  0
 42 45  1  0  0  0  0
 43 52  1  0  0  0  0
 44 66  1  0  0  0  0
 45 47  1  0  0  0  0
 46 48  1  0  0  0  0
 46 49  1  0  0  0  0
 47 51  1  0  0  0  0
 48 53  1  0  0  0  0
 49 67  1  0  0  0  0
 50 53  1  0  0  0  0
 50 67  1  0  0  0  0
 51 71  1  0  0  0  0
 52 66  1  0  0  0  0
 53 65  1  0  0  0  0
 54 62  1  0  0  0  0
 55 63  1  0  0  0  0
 56 63  1  0  0  0  0
 57 63  1  0  0  0  0
 58 73  1  0  0  0  0
 59 74  1  0  0  0  0
 60 82  1  0  0  0  0
 61 63  1  0  0  0  0
 61 72  1  0  0  0  0
 62 74  1  0  0  0  0
 64 65  1  0  0  0  0
M  CHG  1  74   1
M  ISO  4  41 100  60 101  73 100  82 101
M  END
> <Batch ID>
0090

> <Smiles>
C=Cc1cc(NC(=O)[101CH2:1][101O:1]c2ccc3c(c2)CN(C(=O)C(NC(=O)C(C)NC)C(C)(C)C)C(C(=O)NC2CCCc4ccccc42)C3)ccc1[100N:0](C)[100C:0](=O)N1CCCC(n2nc(-c3ccc(Oc4ccc(F)cc4F)cc3)c(C(N)=O)c2N)C1

> <Shape>
0.258

> <Color>
0.056

> <Negative vol penalty>
0.000

$$$$

  -OEChem-04052300293D

 86 94  0     1  0  0  0  0  0999 V2000
  -17.9164  -30.9625   22.5080 C   0  0  0  0  0  0  0  0  0  0  0  0
  -19.2959  -31.1199   22.4216 C   0  0  0  0  0  0  0  0  0  0  0  0
  -25.4538  -13.4810   22.0032 C   0  0  0  0  0  0  0  0  0  0  0  0
  -26.2605  -13.7661   19.7438 C   0  0  0  0  0  0  0  0  0  0  0  0
  -17.3706  -29.6916   22.6836 C   0  0  0  0  0  0  0  0  0  0  0  0
  -20.1306  -30.0066   22.5119 C   0  0  0  0  0  0  0  0  0  0  0  0
  -25.4239  -29.1247   19.5608 C   0  0  0  0  0  0  0  0  0  0  0  0
  -24.4810  -12.5932   21.5439 C   0  0  0  0  0  0  0  0  0  0  0  0
  -25.2877  -12.8783   19.2844 C   0  0  0  0  0  0  0  0  0  0  0  0
  -26.7528  -29.2919   19.9479 C   0  0  0  0  0  0  0  0  0  0  0  0
  -24.3151   -9.3516   20.5965 C   0  0  0  0  0  0  0  0  0  0  0  0
  -24.1266   -8.1694   21.3122 C   0  0  0  0  0  0  0  0  0  0  0  0
  -31.4751  -22.5071   16.8938 C   0  0  0  0  0  0  0  0  0  0  0  0
  -30.1996  -22.6467   18.9409 C   0  0  0  0  0  0  0  0  0  0  0  0
  -26.8803  -26.9474   20.5013 C   0  0  0  0  0  0  0  0  0  0  0  0
  -29.7806  -20.8540   17.3764 C   0  0  0  0  0  0  0  0  0  0  0  0
  -21.8289   -8.7885   21.7299 C   0  0  0  0  0  0  0  0  0  0  0  0
  -26.3436  -14.0675   21.1032 C   0  0  0  0  0  0  0  0  0  0  0  0
  -31.1896  -23.1512   18.0976 C   0  0  0  0  0  0  0  0  0  0  0  0
  -28.6530  -14.6715   22.0030 C   0  0  0  0  0  0  0  0  0  0  0  0
  -18.1985  -28.5610   22.7664 C   0  0  0  0  0  0  0  0  0  0  0  0
  -24.8089  -27.8677   19.6515 C   0  0  0  0  0  0  0  0  0  0  0  0
  -19.5954  -28.7195   22.6901 C   0  0  0  0  0  0  0  0  0  0  0  0
  -25.5442  -26.7664   20.1123 C   0  0  0  0  0  0  0  0  0  0  0  0
  -30.7706  -21.3585   16.5331 C   0  0  0  0  0  0  0  0  0  0  0  0
  -29.4951  -21.4981   18.5802 C   0  0  0  0  0  0  0  0  0  0  0  0
  -24.3979  -12.2918   20.1845 C   0  0  0  0  0  0  0  0  0  0  0  0
  -27.4803  -28.2038   20.4209 C   0  0  0  0  0  0  0  0  0  0  0  0
  -23.2605  -10.2524   20.4475 C   0  0  0  0  0  0  0  0  0  0  0  0
  -22.8835   -7.8877   21.8789 C   0  0  0  0  0  0  0  0  0  0  0  0
  -22.0174   -9.9708   21.0142 C   0  0  0  0  0  0  0  0  0  0  0  0
  -27.3484  -14.9851   21.5770 C   0  0  0  0  0  0  0  0  0  0  0  0
  -29.2010  -15.8820   22.3505 C   0  0  0  0  0  0  0  0  0  0  0  0
  -29.7334  -27.6396   20.1456 C   0  0  0  0  0  0  0  0  0  1  0  0
  -31.9408  -24.3734   18.4820 C   0  0  0  0  0  0  0  0  0  0  0  0
  -29.3106  -13.3996   22.0777 C   0  0  0  0  0  0  0  0  0  0  0  0
  -30.8826  -27.2321   20.7071 C   0  0  0  0  0  0  0  0  0  0  0  0
  -31.8077  -26.4403   19.8209 C   0  0  0  0  0  0  0  0  0  0  0  0
  -22.3360  -26.6916   21.2655 C   0  0  0  0  0  0  0  0  0  0  0  0
  -22.9291  -24.0473   19.4828 C   0  0  0  0  0  0  0  0  0  0  0  0
  -25.1682  -22.2174   17.6703 C   0  0  0  0  0  0  0  0  0  0  0  0
  -28.0814  -21.5044   20.6654 C   0  0  0  0  0  0  0  0  0  0  0  0
  -17.5648  -27.2131   23.0038 C   0  0  0  0  0  0  0  0  0  0  0  0
  -23.3827  -27.6983   19.2047 C   0  0  0  0  0  0  0  0  0  0  0  0
  -24.9364  -25.3918   20.2098 C   0  0  0  0  0  0  0  0  0  0  0  0
  -18.4994  -26.0413   22.7144 C   0  0  0  0  0  0  0  0  0  0  0  0
  -27.9795  -20.2154   23.9827 C   0  0  0  0  0  0  0  0  0  0  0  0
  -19.8677  -26.2815   23.3443 C   0  0  0  0  0  0  0  0  0  0  0  0
  -27.9309  -18.6991   23.7812 C   0  0  0  0  0  0  0  0  0  0  0  0
  -27.1773  -20.9555   22.9140 C   0  0  0  0  0  0  0  0  0  0  0  0
  -27.4737  -19.0944   21.3273 C   0  0  0  0  0  0  0  0  0  0  0  0
  -20.5325  -27.5332   22.7588 C   0  0  1  0  0  0  0  0  0  0  0  0
  -22.7032  -26.4808   19.8238 C   0  0  1  0  0  0  0  0  0  0  0  0
  -28.3208  -18.3091   22.3419 C   0  0  2  0  0  0  0  0  0  0  0  0
  -31.2411  -27.5293   22.1331 C   0  0  0  0  0  0  0  0  0  0  0  0
  -25.3707  -20.0829   16.3663 C   0  0  0  0  0  0  0  0  0  0  0  0
  -23.0438  -22.4676   22.0908 C   0  0  0  0  0  0  0  0  0  0  0  0
  -24.1620  -20.6118   20.8363 C   0  0  0  0  0  0  0  0  0  0  0  0
  -21.8477  -21.3121   20.2230 C   0  0  0  0  0  0  0  0  0  0  0  0
  -25.8302  -23.6677   15.1769 C   0  0  0  0  0  0  0  0  0  0  0  0
  -23.7931  -22.8200   19.6453 C   0  0  1  0  0  0  0  0  0  0  0  0
  -25.0666  -21.5715   16.3003 C   0  0  2  0  0  0  0  0  0  0  0  0
  -23.2228  -21.8291   20.6989 C   0  0  0  0  0  0  0  0  0  0  0  0
  -27.0834  -16.2924   21.6468 N   0  0  0  0  0  0  0  0  0  0  0  0
  -28.2291  -16.8109   22.1208 N   0  0  0  0  0  0  0  0  0  0  0  0
  -23.5369  -25.2784   19.7670 N   0  0  0  0  0  0  0  0  0  0  0  0
  -27.6039  -20.5387   21.5764 N   0  0  0  0  0  0  0  0  0  0  0  0
  -31.0588  -20.7073   15.3158 N   0  0  0  0  0  0  0  0  0  0  0  0
  -30.4146  -16.2318   22.8272 N   0  0  0  0  0  0  0  0  0  0  0  0
  -28.6024  -12.2569   21.6815 N   0  0  0  0  0  0  0  0  0  0  0  0
  -28.4890  -20.9861   19.4366 N   0  0  0  0  0  0  0  0  0  0  0  0
  -31.2641  -25.2568   19.3239 N   0  0  0  0  0  0  0  0  0  0  0  0
  -21.0848  -27.2477   21.4519 N   0  0  0  0  0  0  0  0  0  0  0  0
  -23.9478  -22.2501   18.3112 N   0  0  0  0  0  0  0  0  0  0  0  0
  -26.0289  -22.2063   15.3558 N   0  3  0  0  0  0  0  0  0  0  0  0
  -33.0894  -24.5200   18.0734 O   0  0  0  0  0  0  0  0  0  0  0  0
  -30.4858  -13.2781   22.4994 O   0  0  0  0  0  0  0  0  0  0  0  0
  -32.9461  -26.8333   19.5694 O   0  0  0  0  0  0  0  0  0  0  0  0
  -23.1286  -26.3719   22.1438 O   0  0  0  0  0  0  0  0  0  0  0  0
  -21.7602  -23.9189   19.1103 O   0  0  0  0  0  0  0  0  0  0  0  0
  -26.2252  -22.6463   18.1279 O   0  0  0  0  0  0  0  0  0  0  0  0
  -28.1510  -22.6995   20.9637 O   0  0  0  0  0  0  0  0  0  0  0  0
  -23.4489  -11.4254   19.7360 O   0  0  0  0  0  0  0  0  0  0  0  0
  -28.7774  -28.3644   20.8001 O   0  0  0  0  0  0  0  0  0  1  0  0
  -22.7023   -6.7516   22.5648 F   0  0  0  0  0  0  0  0  0  0  0  0
  -21.0001  -10.8317   20.8734 F   0  0  0  0  0  0  0  0  0  0  0  0
  1  2  1  0  0  0  0
  1  5  2  0  0  0  0
  2  6  2  0  0  0  0
  3  8  2  0  0  0  0
  3 18  1  0  0  0  0
  4  9  1  0  0  0  0
  4 18  2  0  0  0  0
  5 21  1  0  0  0  0
  6 23  1  0  0  0  0
  7 10  2  0  0  0  0
  7 22  1  0  0  0  0
  8 27  1  0  0  0  0
  9 27  2  0  0  0  0
 10 28  1  0  0  0  0
 11 12  2  0  0  0  0
 11 29  1  0  0  0  0
 12 30  1  0  0  0  0
 13 19  1  0  0  0  0
 13 25  2  0  0  0  0
 14 19  2  0  0  0  0
 14 26  1  0  0  0  0
 15 24  1  0  0  0  0
 15 28  2  0  0  0  0
 16 25  1  0  0  0  0
 16 26  2  0  0  0  0
 17 30  2  0  0  0  0
 17 31  1  0  0  0  0
 18 32  1  0  0  0  0
 19 35  1  0  0  0  0
 20 32  1  0  0  0  0
 20 33  2  0  0  0  0
 20 36  1  0  0  0  0
 21 23  2  0  0  0  0
 21 43  1  0  0  0  0
 22 24  2  0  0  0  0
 22 44  1  0  0  0  0
 23 52  1  0  0  0  0
 24 45  1  0  0  0  0
 25 68  1  0  0  0  0
 26 71  1  0  0  0  0
 27 83  1  0  0  0  0
 28 84  1  0  0  0  0
 29 31  2  0  0  0  0
 29 83  1  0  0  0  0
 30 85  1  0  0  0  0
 31 86  1  0  0  0  0
 32 64  2  0  0  0  0
 33 65  1  0  0  0  0
 33 69  1  0  0  0  0
 34 37  2  0  0  0  0
 34 84  1  0  0  0  0
 35 72  1  0  0  0  0
 35 76  2  0  0  0  0
 36 70  1  0  0  0  0
 36 77  2  0  0  0  0
 37 38  1  0  0  0  0
 37 55  1  0  0  0  0
 38 72  1  0  0  0  0
 38 78  2  0  0  0  0
 39 53  1  0  0  0  0
 39 73  1  0  0  0  0
 39 79  2  0  0  0  0
 40 61  1  0  0  0  0
 40 66  1  0  0  0  0
 40 80  2  0  0  0  0
 41 62  1  0  0  0  0
 41 74  1  0  0  0  0
 41 81  2  0  0  0  0
 42 67  1  0  0  0  0
 42 71  1  0  0  0  0
 42 82  2  0  0  0  0
 43 46  1  0  0  0  0
 44 53  1  0  0  0  0
 45 66  1  0  0  0  0
 46 48  1  0  0  0  0
 47 49  1  0  0  0  0
 47 50  1  0  0  0  0
 48 52  1  0  0  0  0
 49 54  1  0  0  0  0
 50 67  1  0  0  0  0
 51 54  1  0  0  0  0
 51 67  1  0  0  0  0
 52 73  1  0  0  0  0
 53 66  1  0  0  0  0
 54 65  1  0  0  0  0
 56 62  1  0  0  0  0
 57 63  1  0  0  0  0
 58 63  1  0  0  0  0
 59 63  1  0  0  0  0
 60 75  1  0  0  0  0
 61 63  1  0  0  0  0
 61 74  1  0  0  0  0
 62 75  1  0  0  0  0
 64 65  1  0  0  0  0
M  CHG  1  75   1
M  ISO  4  34 101  42 100  71 100  84 101
M  END
> <Batch ID>
0090

> <Smiles>
CNC(C)C(=O)NC(C(=O)N1Cc2cc([101O:1][101CH:1]=C(C)C(=O)NC(=O)c3cc(N)cc([100NH:0][100C:0](=O)N4CCCC(n5nc(-c6ccc(Oc7ccc(F)cc7F)cc6)c(C(N)=O)c5N)C4)c3)ccc2CC1C(=O)NC1CCCc2ccccc21)C(C)(C)C

> <Shape>
0.262

> <Color>
0.065

> <Negative vol penalty>
0.000

$$$$

  -OEChem-04052300293D

 83 91  0     1  0  0  0  0  0999 V2000
  -21.9267  -11.6551   20.1856 C   0  0  0  0  0  0  0  0  0  0  0  0
  -21.5982  -13.0057   20.2436 C   0  0  0  0  0  0  0  0  0  0  0  0
  -17.6865  -26.7438   22.9650 C   0  0  0  0  0  0  0  0  0  0  0  0
  -24.3101  -25.5412   16.3197 C   0  0  0  0  0  0  0  0  0  0  0  0
  -26.3264  -26.7162   15.6943 C   0  0  0  0  0  0  0  0  0  0  0  0
  -18.4273  -27.9006   23.2069 C   0  0  0  0  0  0  0  0  0  0  0  0
  -23.2274  -11.2424   20.4718 C   0  0  0  0  0  0  0  0  0  0  0  0
  -22.5699  -13.9443   20.5888 C   0  0  0  0  0  0  0  0  0  0  0  0
  -23.0963  -19.6571   18.4458 C   0  0  0  0  0  0  0  0  0  0  0  0
  -18.3018  -25.6272   22.3990 C   0  0  0  0  0  0  0  0  0  0  0  0
  -24.0662  -25.2458   14.9785 C   0  0  0  0  0  0  0  0  0  0  0  0
  -26.0826  -26.4207   14.3531 C   0  0  0  0  0  0  0  0  0  0  0  0
  -22.7060  -20.8921   18.9617 C   0  0  0  0  0  0  0  0  0  0  0  0
  -23.1032  -23.8733   11.7530 C   0  0  0  0  0  0  0  0  0  0  0  0
  -22.7158  -22.5715   11.4358 C   0  0  0  0  0  0  0  0  0  0  0  0
  -20.3987  -26.8244   22.3168 C   0  0  0  0  0  0  0  0  0  0  0  0
  -24.9250  -21.2153   19.8508 C   0  0  0  0  0  0  0  0  0  0  0  0
  -24.7860  -21.7313   12.3554 C   0  0  0  0  0  0  0  0  0  0  0  0
  -25.4402  -26.2765   16.6776 C   0  0  0  0  0  0  0  0  0  0  0  0
  -19.7833  -27.9410   22.8828 C   0  0  0  0  0  0  0  0  0  0  0  0
  -26.4273  -25.8118   18.9836 C   0  0  0  0  0  0  0  0  0  0  0  0
  -24.2179  -12.1773   20.8114 C   0  0  0  0  0  0  0  0  0  0  0  0
  -24.4031  -19.1863   18.6383 C   0  0  0  0  0  0  0  0  0  0  0  0
  -23.8847  -13.5435   20.8812 C   0  0  0  0  0  0  0  0  0  0  0  0
  -25.3302  -19.9752   19.3341 C   0  0  0  0  0  0  0  0  0  0  0  0
  -19.6579  -25.6675   22.0749 C   0  0  0  0  0  0  0  0  0  0  0  0
  -24.9525  -25.6855   13.9952 C   0  0  0  0  0  0  0  0  0  0  0  0
  -23.6195  -21.6702   19.6668 C   0  0  0  0  0  0  0  0  0  0  0  0
  -24.3321  -24.1042   12.3714 C   0  0  0  0  0  0  0  0  0  0  0  0
  -23.5571  -21.5004   11.7370 C   0  0  0  0  0  0  0  0  0  0  0  0
  -25.1734  -23.0332   12.6726 C   0  0  0  0  0  0  0  0  0  0  0  0
  -25.6924  -26.5825   18.0629 C   0  0  0  0  0  0  0  0  0  0  0  0
  -26.3727  -26.5297   20.1532 C   0  0  0  0  0  0  0  0  0  0  0  0
  -20.5710  -29.1738   23.1411 C   0  0  0  0  0  0  0  0  0  0  0  0
  -27.0993  -24.5589   18.7981 C   0  0  0  0  0  0  0  0  0  0  0  0
  -25.6893  -16.6704   20.0943 C   0  0  0  0  0  0  0  0  0  0  0  0
  -28.4317  -17.8054   18.7854 C   0  0  0  0  0  0  0  0  0  0  0  0
  -21.6131  -24.4026   21.1203 C   0  0  0  0  0  0  0  0  0  0  0  0
  -30.1569  -20.4686   17.5295 C   0  0  0  0  0  0  0  0  0  0  0  0
  -22.5197  -30.4826   22.3581 C   0  0  0  0  0  0  0  0  0  0  0  0
  -25.5983  -11.6787   21.1585 C   0  0  0  0  0  0  0  0  0  0  0  0
  -24.8161  -17.8639   18.0525 C   0  0  0  0  0  0  0  0  0  0  0  0
  -26.7508  -19.5242   19.5507 C   0  0  0  0  0  0  0  0  0  0  0  0
  -26.6614  -12.7742   21.1508 C   0  0  0  0  0  0  0  0  0  0  0  0
  -25.9645  -31.0219   21.7755 C   0  0  0  0  0  0  0  0  0  0  0  0
  -26.1637  -14.0063   21.8998 C   0  0  0  0  0  0  0  0  0  0  0  0
  -26.3601  -29.8658   20.8529 C   0  0  0  0  0  0  0  0  0  0  0  0
  -24.5670  -31.5504   21.4556 C   0  0  0  0  0  0  0  0  0  0  0  0
  -23.9059  -29.3823   20.4965 C   0  0  0  0  0  0  0  0  0  0  0  0
  -24.9171  -14.5943   21.2277 C   0  0  1  0  0  0  0  0  0  0  0  0
  -26.0269  -17.2529   18.7510 C   0  0  1  0  0  0  0  0  0  0  0  0
  -25.2768  -28.7689   20.8243 C   0  0  1  0  0  0  0  0  0  0  0  0
  -32.3907  -21.0945   16.5725 C   0  0  0  0  0  0  0  0  0  0  0  0
  -29.6446  -17.7465   21.5845 C   0  0  0  0  0  0  0  0  0  0  0  0
  -31.4758  -19.2341   20.7466 C   0  0  0  0  0  0  0  0  0  0  0  0
  -31.1732  -16.9594   19.7684 C   0  0  0  0  0  0  0  0  0  0  0  0
  -28.9530  -21.2910   14.9540 C   0  0  0  0  0  0  0  0  0  0  0  0
  -21.8717  -23.0221   20.5462 C   0  0  0  0  0  0  0  0  0  1  0  0
  -29.5024  -18.7762   19.2211 C   0  0  1  0  0  0  0  0  0  0  0  0
  -30.9761  -20.6309   16.2618 C   0  0  2  0  0  0  0  0  0  0  0  0
  -30.4218  -18.1870   20.3279 C   0  0  0  0  0  0  0  0  0  0  0  0
  -25.2064  -27.7041   18.6013 N   0  0  0  0  0  0  0  0  0  0  0  0
  -25.6367  -27.6433   19.8730 N   0  0  0  0  0  0  0  0  0  0  0  0
  -27.1046  -18.2210   18.9641 N   0  0  0  0  0  0  0  0  0  0  0  0
  -23.5988  -30.4523   21.4575 N   0  0  0  0  0  0  0  0  0  0  0  0
  -26.8828  -26.3108   21.3837 N   0  0  0  0  0  0  0  0  0  0  0  0
  -27.0558  -23.9583   17.5325 N   0  0  0  0  0  0  0  0  0  0  0  0
  -20.2820  -24.5346   21.5010 N   0  0  0  0  0  0  0  0  0  0  0  0
  -21.6755  -29.3676   22.3111 N   0  0  0  0  0  0  0  0  0  0  0  0
  -25.2867  -15.3493   20.0496 N   0  0  0  0  0  0  0  0  0  0  0  0
  -30.2082  -19.1768   18.0088 N   0  0  0  0  0  0  0  0  0  0  0  0
  -30.3409  -21.6324   15.3593 N   0  3  0  0  0  0  0  0  0  0  0  0
  -20.1969  -29.9502   24.0158 O   0  0  0  0  0  0  0  0  0  0  0  0
  -27.7061  -23.9808   19.7315 O   0  0  0  0  0  0  0  0  0  0  0  0
  -25.7882  -17.3675   21.0973 O   0  0  0  0  0  0  0  0  0  0  0  0
  -28.7606  -16.7212   18.2975 O   0  0  0  0  0  0  0  0  0  0  0  0
  -22.5052  -25.2400   21.2066 O   0  0  0  0  0  0  0  0  0  0  0  0
  -29.5369  -21.3960   18.0452 O   0  0  0  0  0  0  0  0  0  0  0  0
  -22.3443  -31.4043   23.1612 O   0  0  0  0  0  0  0  0  0  0  0  0
  -24.7149  -25.3972   12.6864 O   0  0  0  0  0  0  0  0  0  0  0  0
  -23.2409  -22.8757   20.1719 O   0  0  0  0  0  0  0  0  0  1  0  0
  -23.1843  -20.2502   11.4337 F   0  0  0  0  0  0  0  0  0  0  0  0
  -26.3546  -23.2487   13.2677 F   0  0  0  0  0  0  0  0  0  0  0  0
  1  2  1  0  0  0  0
  1  7  2  0  0  0  0
  2  8  2  0  0  0  0
  3  6  1  0  0  0  0
  3 10  2  0  0  0  0
  4 11  2  0  0  0  0
  4 19  1  0  0  0  0
  5 12  1  0  0  0  0
  5 19  2  0  0  0  0
  6 20  2  0  0  0  0
  7 22  1  0  0  0  0
  8 24  1  0  0  0  0
  9 13  2  0  0  0  0
  9 23  1  0  0  0  0
 10 26  1  0  0  0  0
 11 27  1  0  0  0  0
 12 27  2  0  0  0  0
 13 28  1  0  0  0  0
 14 15  2  0  0  0  0
 14 29  1  0  0  0  0
 15 30  1  0  0  0  0
 16 20  1  0  0  0  0
 16 26  2  0  0  0  0
 17 25  1  0  0  0  0
 17 28  2  0  0  0  0
 18 30  2  0  0  0  0
 18 31  1  0  0  0  0
 19 32  1  0  0  0  0
 20 34  1  0  0  0  0
 21 32  1  0  0  0  0
 21 33  2  0  0  0  0
 21 35  1  0  0  0  0
 22 24  2  0  0  0  0
 22 41  1  0  0  0  0
 23 25  2  0  0  0  0
 23 42  1  0  0  0  0
 24 50  1  0  0  0  0
 25 43  1  0  0  0  0
 26 68  1  0  0  0  0
 27 80  1  0  0  0  0
 28 81  1  0  0  0  0
 29 31  2  0  0  0  0
 29 80  1  0  0  0  0
 30 82  1  0  0  0  0
 31 83  1  0  0  0  0
 32 62  2  0  0  0  0
 33 63  1  0  0  0  0
 33 66  1  0  0  0  0
 34 69  1  0  0  0  0
 34 73  2  0  0  0  0
 35 67  1  0  0  0  0
 35 74  2  0  0  0  0
 36 51  1  0  0  0  0
 36 70  1  0  0  0  0
 36 75  2  0  0  0  0
 37 59  1  0  0  0  0
 37 64  1  0  0  0  0
 37 76  2  0  0  0  0
 38 58  1  0  0  0  0
 38 68  1  0  0  0  0
 38 77  2  0  0  0  0
 39 60  1  0  0  0  0
 39 71  1  0  0  0  0
 39 78  2  0  0  0  0
 40 65  1  0  0  0  0
 40 69  1  0  0  0  0
 40 79  2  0  0  0  0
 41 44  1  0  0  0  0
 42 51  1  0  0  0  0
 43 64  1  0  0  0  0
 44 46  1  0  0  0  0
 45 47  1  0  0  0  0
 45 48  1  0  0  0  0
 46 50  1  0  0  0  0
 47 52  1  0  0  0  0
 48 65  1  0  0  0  0
 49 52  1  0  0  0  0
 49 65  1  0  0  0  0
 50 70  1  0  0  0  0
 51 64  1  0  0  0  0
 52 63  1  0  0  0  0
 53 60  1  0  0  0  0
 54 61  1  0  0  0  0
 55 61  1  0  0  0  0
 56 61  1  0  0  0  0
 57 72  1  0  0  0  0
 58 81  1  0  0  0  0
 59 61  1  0  0  0  0
 59 71  1  0  0  0  0
 60 72  1  0  0  0  0
 62 63  1  0  0  0  0
M  CHG  1  72   1
M  ISO  4  40 100  58 101  69 100  81 101
M  END
> <Batch ID>
0090

> <Smiles>
CNC(C)C(=O)NC(C(=O)N1Cc2cc([101O:1][101CH2:1]C(=O)Nc3cccc(C(=O)[100NH:0][100C:0](=O)N4CCCC(n5nc(-c6ccc(Oc7ccc(F)cc7F)cc6)c(C(N)=O)c5N)C4)c3)ccc2CC1C(=O)NC1CCCc2ccccc21)C(C)(C)C

> <Shape>
0.218

> <Color>
0.075

> <Negative vol penalty>
0.000

$$$$

  -OEChem-04052300293D

 88 97  0     1  0  0  0  0  0999 V2000
  -24.0680  -33.5775   14.5863 C   0  0  0  0  0  0  0  0  0  0  0  0
  -24.9599  -32.6947   15.1868 C   0  0  0  0  0  0  0  0  0  0  0  0
  -25.4288  -19.0648   18.9993 C   0  0  0  0  0  0  0  0  0  0  0  0
  -24.6618  -18.7644   21.2705 C   0  0  0  0  0  0  0  0  0  0  0  0
  -23.4773  -34.5905   15.3405 C   0  0  0  0  0  0  0  0  0  0  0  0
  -25.2625  -32.8251   16.5417 C   0  0  0  0  0  0  0  0  0  0  0  0
  -25.2331  -28.3841   18.9751 C   0  0  0  0  0  0  0  0  0  0  0  0
  -24.2729  -18.4435   18.5266 C   0  0  0  0  0  0  0  0  0  0  0  0
  -23.5058  -18.1431   20.7979 C   0  0  0  0  0  0  0  0  0  0  0  0
  -26.3472  -27.5618   18.8129 C   0  0  0  0  0  0  0  0  0  0  0  0
  -23.1003  -15.2915   18.1887 C   0  0  0  0  0  0  0  0  0  0  0  0
  -23.2440  -14.3364   17.1824 C   0  0  0  0  0  0  0  0  0  0  0  0
  -27.1980  -28.3041   20.9446 C   0  0  0  0  0  0  0  0  0  0  0  0
  -31.7182  -19.7686   18.2239 C   0  0  0  0  0  0  0  0  0  0  0  0
  -31.0579  -25.5823   18.2530 C   0  0  0  0  0  0  0  0  0  0  0  0
  -32.5366  -21.8663   19.8709 C   0  0  0  0  0  0  0  0  0  0  0  0
  -21.8358  -15.6561   15.7289 C   0  0  0  0  0  0  0  0  0  0  0  0
  -25.6233  -19.2252   20.3712 C   0  0  0  0  0  0  0  0  0  0  0  0
  -27.0052  -21.2399   21.1053 C   0  0  0  0  0  0  0  0  0  0  0  0
  -23.7654  -34.7274   16.7076 C   0  0  0  0  0  0  0  0  0  0  0  0
  -25.0982  -29.1822   20.1203 C   0  0  0  0  0  0  0  0  0  0  0  0
  -24.6761  -33.8418   17.3146 C   0  0  0  0  0  0  0  0  0  0  0  0
  -26.0800  -29.1338   21.1202 C   0  0  0  0  0  0  0  0  0  0  0  0
  -31.2169  -21.0538   18.0174 C   0  0  0  0  0  0  0  0  0  0  0  0
  -29.7384  -25.1156   18.4721 C   0  0  0  0  0  0  0  0  0  0  0  0
  -31.6261  -22.1026   18.8408 C   0  0  0  0  0  0  0  0  0  0  0  0
  -32.6286  -19.5322   19.2540 C   0  0  0  0  0  0  0  0  0  0  0  0
  -33.0378  -20.5811   20.0774 C   0  0  0  0  0  0  0  0  0  0  0  0
  -23.3114  -17.9826   19.4259 C   0  0  0  0  0  0  0  0  0  0  0  0
  -27.3313  -27.5239   19.7964 C   0  0  0  0  0  0  0  0  0  0  0  0
  -22.3243  -16.4289   17.9652 C   0  0  0  0  0  0  0  0  0  0  0  0
  -22.6118  -14.5188   15.9524 C   0  0  0  0  0  0  0  0  0  0  0  0
  -21.6921  -16.6112   16.7353 C   0  0  0  0  0  0  0  0  0  0  0  0
  -26.8174  -19.8665   20.8600 C   0  0  0  0  0  0  0  0  0  0  0  0
  -28.2993  -21.3345   21.5558 C   0  0  0  0  0  0  0  0  0  0  0  0
  -31.9017  -24.4998   18.3691 C   0  0  0  0  0  0  0  0  0  0  0  0
  -29.8159  -23.7621   18.7157 C   0  0  0  0  0  0  0  0  0  0  0  0
  -26.0916  -22.3326   20.9408 C   0  0  0  0  0  0  0  0  0  0  0  0
  -24.9199  -32.3083   20.6675 C   0  0  0  0  0  0  0  0  0  0  0  0
  -24.3455  -31.3477   23.7122 C   0  0  0  0  0  0  0  0  0  0  0  0
  -24.6750  -28.9303   26.0984 C   0  0  0  0  0  0  0  0  0  0  0  0
  -32.9567  -17.4685   20.6412 C   0  0  0  0  0  0  0  0  0  0  0  0
  -23.1385  -35.8672   17.4709 C   0  0  0  0  0  0  0  0  0  0  0  0
  -23.8773  -30.0436   20.2926 C   0  0  0  0  0  0  0  0  0  0  0  0
  -25.9725  -29.9558   22.3776 C   0  0  0  0  0  0  0  0  0  0  0  0
  -23.2252  -35.7058   18.9864 C   0  0  0  0  0  0  0  0  0  0  0  0
  -31.6881  -18.8479   23.8319 C   0  0  0  0  0  0  0  0  0  0  0  0
  -24.6336  -35.2902   19.3993 C   0  0  0  0  0  0  0  0  0  0  0  0
  -30.2771  -19.3051   23.4667 C   0  0  0  0  0  0  0  0  0  0  0  0
  -32.1448  -17.6756   22.9689 C   0  0  0  0  0  0  0  0  0  0  0  0
  -30.6461  -18.4056   21.1352 C   0  0  0  0  0  0  0  0  0  0  0  0
  -25.0107  -33.9356   18.7875 C   0  0  1  0  0  0  0  0  0  0  0  0
  -24.0951  -31.2017   21.2615 C   0  0  1  0  0  0  0  0  0  0  0  0
  -30.1784  -19.6117   21.9633 C   0  0  1  0  0  0  0  0  0  0  0  0
  -30.2428  -21.2733   16.9049 C   0  0  0  0  0  0  0  0  0  0  0  0
  -24.1375  -28.4485   28.5018 C   0  0  0  0  0  0  0  0  0  0  0  0
  -26.6273  -33.1750   24.5863 C   0  0  0  0  0  0  0  0  0  0  0  0
  -26.6688  -31.9602   26.7751 C   0  0  0  0  0  0  0  0  0  0  0  0
  -24.6261  -33.2149   26.0856 C   0  0  0  0  0  0  0  0  0  0  0  0
  -34.0835  -17.6729   18.4686 C   0  0  0  0  0  0  0  0  0  0  0  0
  -22.9938  -26.6040   25.3767 C   0  0  0  0  0  0  0  0  0  0  0  0
  -28.4899  -25.9475   18.4441 C   0  0  0  0  0  0  0  0  0  1  0  0
  -25.2025  -31.0477   24.9182 C   0  0  1  0  0  0  0  0  0  0  0  0
  -23.6710  -28.3206   27.0600 C   0  0  2  0  0  0  0  0  0  0  0  0
  -25.7845  -32.3353   25.5668 C   0  0  0  0  0  0  0  0  0  0  0  0
  -27.9052  -19.1407   21.1320 N   0  0  0  0  0  0  0  0  0  0  0  0
  -31.1357  -23.3988   18.6509 N   0  0  0  0  0  0  0  0  0  0  0  0
  -28.7890  -20.0615   21.5527 N   0  0  0  0  0  0  0  0  0  0  0  0
  -24.7632  -30.7871   22.4968 N   0  0  0  0  0  0  0  0  0  0  0  0
  -31.9888  -17.9593   21.5414 N   0  0  0  0  0  0  0  0  0  0  0  0
  -33.9591  -20.3640   21.1266 N   0  0  0  0  0  0  0  0  0  0  0  0
  -29.0547  -22.3815   21.9502 N   0  0  0  0  0  0  0  0  0  0  0  0
  -24.8009  -22.0589   20.4679 N   0  0  0  0  0  0  0  0  0  0  0  0
  -24.3812  -32.8575   19.5196 N   0  0  0  0  0  0  0  0  0  0  0  0
  -24.3775  -30.2467   25.8161 N   0  0  0  0  0  0  0  0  0  0  0  0
  -33.1330  -18.1948   19.4480 N   0  0  0  0  0  0  0  0  0  0  0  0
  -23.4746  -26.8749   26.7560 N   0  3  0  0  0  0  0  0  0  0  0  0
  -26.4155  -23.5186   21.1897 O   0  0  0  0  0  0  0  0  0  0  0  0
  -25.9668  -32.6402   21.2112 O   0  0  0  0  0  0  0  0  0  0  0  0
  -23.3385  -32.0477   23.8449 O   0  0  0  0  0  0  0  0  0  0  0  0
  -25.6300  -28.3027   25.6461 O   0  0  0  0  0  0  0  0  0  0  0  0
  -33.5823  -16.4235   20.8587 O   0  0  0  0  0  0  0  0  0  0  0  0
  -33.2217  -24.4207   18.2513 O   0  0  0  0  0  0  0  0  0  0  0  0
  -28.8631  -22.8747   18.9784 O   0  0  0  0  0  0  0  0  0  0  0  0
  -22.1832  -17.3765   18.9651 O   0  0  0  0  0  0  0  0  0  0  0  0
  -28.4201  -26.7226   19.6402 O   0  0  0  0  0  0  0  0  0  1  0  0
  -22.7511  -13.6023   14.9856 F   0  0  0  0  0  0  0  0  0  0  0  0
  -20.9463  -17.7024   16.5143 F   0  0  0  0  0  0  0  0  0  0  0  0
  1  2  1  0  0  0  0
  1  5  2  0  0  0  0
  2  6  2  0  0  0  0
  3  8  2  0  0  0  0
  3 18  1  0  0  0  0
  4  9  1  0  0  0  0
  4 18  2  0  0  0  0
  5 20  1  0  0  0  0
  6 22  1  0  0  0  0
  7 10  2  0  0  0  0
  7 21  1  0  0  0  0
  8 29  1  0  0  0  0
  9 29  2  0  0  0  0
 10 30  1  0  0  0  0
 11 12  2  0  0  0  0
 11 31  1  0  0  0  0
 12 32  1  0  0  0  0
 13 23  1  0  0  0  0
 13 30  2  0  0  0  0
 14 24  1  0  0  0  0
 14 27  2  0  0  0  0
 15 25  1  0  0  0  0
 15 36  2  0  0  0  0
 16 26  1  0  0  0  0
 16 28  2  0  0  0  0
 17 32  2  0  0  0  0
 17 33  1  0  0  0  0
 18 34  1  0  0  0  0
 19 34  1  0  0  0  0
 19 35  2  0  0  0  0
 19 38  1  0  0  0  0
 20 22  2  0  0  0  0
 20 43  1  0  0  0  0
 21 23  2  0  0  0  0
 21 44  1  0  0  0  0
 22 52  1  0  0  0  0
 23 45  1  0  0  0  0
 24 26  2  0  0  0  0
 24 55  1  0  0  0  0
 25 37  2  0  0  0  0
 25 62  1  0  0  0  0
 26 67  1  0  0  0  0
 27 28  1  0  0  0  0
 27 76  1  0  0  0  0
 28 71  1  0  0  0  0
 29 85  1  0  0  0  0
 30 86  1  0  0  0  0
 31 33  2  0  0  0  0
 31 85  1  0  0  0  0
 32 87  1  0  0  0  0
 33 88  1  0  0  0  0
 34 66  2  0  0  0  0
 35 68  1  0  0  0  0
 35 72  1  0  0  0  0
 36 67  1  0  0  0  0
 36 83  1  0  0  0  0
 37 67  1  0  0  0  0
 37 84  1  0  0  0  0
 38 73  1  0  0  0  0
 38 78  2  0  0  0  0
 39 53  1  0  0  0  0
 39 74  1  0  0  0  0
 39 79  2  0  0  0  0
 40 63  1  0  0  0  0
 40 69  1  0  0  0  0
 40 80  2  0  0  0  0
 41 64  1  0  0  0  0
 41 75  1  0  0  0  0
 41 81  2  0  0  0  0
 42 70  1  0  0  0  0
 42 76  1  0  0  0  0
 42 82  2  0  0  0  0
 43 46  1  0  0  0  0
 44 53  1  0  0  0  0
 45 69  1  0  0  0  0
 46 48  1  0  0  0  0
 47 49  1  0  0  0  0
 47 50  1  0  0  0  0
 48 52  1  0  0  0  0
 49 54  1  0  0  0  0
 50 70  1  0  0  0  0
 51 54  1  0  0  0  0
 51 70  1  0  0  0  0
 52 74  1  0  0  0  0
 53 69  1  0  0  0  0
 54 68  1  0  0  0  0
 56 64  1  0  0  0  0
 57 65  1  0  0  0  0
 58 65  1  0  0  0  0
 59 65  1  0  0  0  0
 60 76  1  0  0  0  0
 61 77  1  0  0  0  0
 62 86  1  0  0  0  0
 63 65  1  0  0  0  0
 63 75  1  0  0  0  0
 64 77  1  0  0  0  0
 66 68  1  0  0  0  0
M  CHG  1  77   1
M  ISO  4  42 100  62 101  76 100  86 101
M  END
> <Batch ID>
0090

> <Smiles>
CNC(C)C(=O)NC(C(=O)N1Cc2cc([101O:1][101CH2:1]C3CC(=O)N(c4cc(N)c([100N:0](C)[100C:0](=O)N5CCCC(n6nc(-c7ccc(Oc8ccc(F)cc8F)cc7)c(C(N)=O)c6N)C5)cc4C)C3=O)ccc2CC1C(=O)NC1CCCc2ccccc21)C(C)(C)C

> <Shape>
0.171

> <Color>
0.085

> <Negative vol penalty>
0.000

$$$$

  -OEChem-04052300293D

 85 93  0     1  0  0  0  0  0999 V2000
  -28.8680  -32.3571   23.3711 C   0  0  0  0  0  0  0  0  0  0  0  0
  -28.6905  -30.9778   23.4089 C   0  0  0  0  0  0  0  0  0  0  0  0
  -23.1059   -9.9677   20.9333 C   0  0  0  0  0  0  0  0  0  0  0  0
  -23.7337  -10.6289   23.1706 C   0  0  0  0  0  0  0  0  0  0  0  0
  -27.7680  -33.2041   23.4995 C   0  0  0  0  0  0  0  0  0  0  0  0
  -27.4129  -30.4447   23.5762 C   0  0  0  0  0  0  0  0  0  0  0  0
  -26.4856  -26.5948   20.4198 C   0  0  0  0  0  0  0  0  0  0  0  0
  -27.6799  -16.5733   17.1533 C   0  0  0  0  0  0  0  0  0  0  0  0
  -27.4665  -17.6554   18.0072 C   0  0  0  0  0  0  0  0  0  0  0  0
  -22.3295   -8.9339   21.4566 C   0  0  0  0  0  0  0  0  0  0  0  0
  -22.9572   -9.5950   23.6940 C   0  0  0  0  0  0  0  0  0  0  0  0
  -27.0371  -25.3566   20.7464 C   0  0  0  0  0  0  0  0  0  0  0  0
  -19.2901   -8.5846   22.8965 C   0  0  0  0  0  0  0  0  0  0  0  0
  -18.0125   -8.4018   22.3676 C   0  0  0  0  0  0  0  0  0  0  0  0
  -24.9102  -24.6517   21.6401 C   0  0  0  0  0  0  0  0  0  0  0  0
  -29.6926  -16.0128   18.3664 C   0  0  0  0  0  0  0  0  0  0  0  0
  -18.6136   -6.1622   21.6894 C   0  0  0  0  0  0  0  0  0  0  0  0
  -23.8081  -10.8152   21.7903 C   0  0  0  0  0  0  0  0  0  0  0  0
  -24.1991  -13.2011   20.9765 C   0  0  0  0  0  0  0  0  0  0  0  0
  -26.4751  -32.6811   23.6588 C   0  0  0  0  0  0  0  0  0  0  0  0
  -25.1428  -26.8750   20.7113 C   0  0  0  0  0  0  0  0  0  0  0  0
  -26.2948  -31.2856   23.7082 C   0  0  0  0  0  0  0  0  0  0  0  0
  -24.3434  -25.8932   21.3138 C   0  0  0  0  0  0  0  0  0  0  0  0
  -28.7929  -15.7519   17.3329 C   0  0  0  0  0  0  0  0  0  0  0  0
  -28.3662  -17.9162   19.0406 C   0  0  0  0  0  0  0  0  0  0  0  0
  -22.2551   -8.7475   22.8370 C   0  0  0  0  0  0  0  0  0  0  0  0
  -26.2502  -24.3859   21.3593 C   0  0  0  0  0  0  0  0  0  0  0  0
  -20.2296   -7.5562   22.8218 C   0  0  0  0  0  0  0  0  0  0  0  0
  -17.6742   -7.1906   21.7641 C   0  0  0  0  0  0  0  0  0  0  0  0
  -29.4793  -17.0950   19.2203 C   0  0  0  0  0  0  0  0  0  0  0  0
  -19.8913   -6.3450   22.2183 C   0  0  0  0  0  0  0  0  0  0  0  0
  -24.6107  -11.8830   21.2503 C   0  0  0  0  0  0  0  0  0  0  0  0
  -25.3227  -13.8158   20.4805 C   0  0  0  0  0  0  0  0  0  0  0  0
  -26.7234  -22.1782   20.7488 C   0  0  0  0  0  0  0  0  0  1  0  0
  -22.9157  -13.8150   21.1547 C   0  0  0  0  0  0  0  0  0  0  0  0
  -27.2178  -20.9519   20.9572 C   0  0  0  0  0  0  0  0  0  0  0  0
  -27.0995  -19.9256   19.8705 C   0  0  0  0  0  0  0  0  0  0  0  0
  -23.6399  -28.9963   22.5402 C   0  0  0  0  0  0  0  0  0  0  0  0
  -20.9924  -27.7303   21.1582 C   0  0  0  0  0  0  0  0  0  0  0  0
  -19.5321  -25.0760   19.5869 C   0  0  0  0  0  0  0  0  0  0  0  0
  -29.6687  -13.4521   16.8482 C   0  0  0  0  0  0  0  0  0  0  0  0
  -25.3227  -33.6368   23.8409 C   0  0  0  0  0  0  0  0  0  0  0  0
  -24.5558  -28.2059   20.3284 C   0  0  0  0  0  0  0  0  0  0  0  0
  -22.8910  -26.1370   21.6294 C   0  0  0  0  0  0  0  0  0  0  0  0
  -23.9557  -32.9881   23.6392 C   0  0  0  0  0  0  0  0  0  0  0  0
  -30.1435  -12.3299   20.3422 C   0  0  0  0  0  0  0  0  0  0  0  0
  -23.8781  -31.6621   24.3892 C   0  0  0  0  0  0  0  0  0  0  0  0
  -28.7102  -12.1417   20.8358 C   0  0  0  0  0  0  0  0  0  0  0  0
  -30.2584  -12.1050   18.8376 C   0  0  0  0  0  0  0  0  0  0  0  0
  -27.8900  -12.7662   18.5296 C   0  0  0  0  0  0  0  0  0  0  0  0
  -24.9215  -30.6690   23.8633 C   0  0  1  0  0  0  0  0  0  0  0  0
  -23.3140  -28.5664   21.1379 C   0  0  1  0  0  0  0  0  0  0  0  0
  -27.7404  -13.0270   20.0359 C   0  0  1  0  0  0  0  0  0  0  0  0
  -17.3460  -24.3235   18.6113 C   0  0  0  0  0  0  0  0  0  0  0  0
  -19.9022  -27.2610   23.9692 C   0  0  0  0  0  0  0  0  0  0  0  0
  -18.2198  -25.6932   22.9796 C   0  0  0  0  0  0  0  0  0  0  0  0
  -18.2166  -28.0998   22.3231 C   0  0  0  0  0  0  0  0  0  0  0  0
  -28.7825  -14.8330   15.0208 C   0  0  0  0  0  0  0  0  0  0  0  0
  -20.7107  -24.7628   16.8903 C   0  0  0  0  0  0  0  0  0  0  0  0
  -20.0600  -26.5879   21.4816 C   0  0  1  0  0  0  0  0  0  0  0  0
  -18.6833  -24.9912   18.3312 C   0  0  2  0  0  0  0  0  0  0  0  0
  -19.1275  -26.9063   22.6843 C   0  0  0  0  0  0  0  0  0  0  0  0
  -25.8956  -11.6718   20.9527 N   0  0  0  0  0  0  0  0  0  0  0  0
  -26.3010  -12.8654   20.4867 N   0  0  0  0  0  0  0  0  0  0  0  0
  -22.3649  -27.4562   21.2414 N   0  0  0  0  0  0  0  0  0  0  0  0
  -29.2885  -12.9094   18.0928 N   0  0  0  0  0  0  0  0  0  0  0  0
  -25.5596  -15.0710   20.0438 N   0  0  0  0  0  0  0  0  0  0  0  0
  -21.8709  -13.0399   21.6761 N   0  0  0  0  0  0  0  0  0  0  0  0
  -28.1473  -19.0156   19.9054 N   0  0  0  0  0  0  0  0  0  0  0  0
  -24.4821  -30.0896   22.6121 N   0  0  0  0  0  0  0  0  0  0  0  0
  -19.3535  -26.2749   20.2442 N   0  0  0  0  0  0  0  0  0  0  0  0
  -29.0141  -14.6332   16.4496 N   0  0  0  0  0  0  0  0  0  0  0  0
  -19.3900  -24.2056   17.2804 N   0  3  0  0  0  0  0  0  0  0  0  0
  -22.6975  -15.0108   20.8449 O   0  0  0  0  0  0  0  0  0  0  0  0
  -26.1616  -19.9493   19.0808 O   0  0  0  0  0  0  0  0  0  0  0  0
  -23.1615  -28.3827   23.4869 O   0  0  0  0  0  0  0  0  0  0  0  0
  -20.5203  -28.8236   20.8366 O   0  0  0  0  0  0  0  0  0  0  0  0
  -20.2763  -24.1679   19.9505 O   0  0  0  0  0  0  0  0  0  0  0  0
  -30.4944  -12.8935   16.1155 O   0  0  0  0  0  0  0  0  0  0  0  0
  -27.8364  -20.5916   22.1371 O   0  0  0  0  0  0  0  0  0  0  0  0
  -21.4974   -7.7389   23.3480 O   0  0  0  0  0  0  0  0  0  0  0  0
  -26.7862  -23.1768   21.6797 O   0  0  0  0  0  0  0  0  0  1  0  0
  -16.4467   -7.0147   21.2576 F   0  0  0  0  0  0  0  0  0  0  0  0
  -30.3516  -17.3371   20.2094 F   0  0  0  0  0  0  0  0  0  0  0  0
  -20.7892   -5.3529   22.1446 F   0  0  0  0  0  0  0  0  0  0  0  0
  1  2  1  0  0  0  0
  1  5  2  0  0  0  0
  2  6  2  0  0  0  0
  3 10  2  0  0  0  0
  3 18  1  0  0  0  0
  4 11  1  0  0  0  0
  4 18  2  0  0  0  0
  5 20  1  0  0  0  0
  6 22  1  0  0  0  0
  7 12  2  0  0  0  0
  7 21  1  0  0  0  0
  8  9  2  0  0  0  0
  8 24  1  0  0  0  0
  9 25  1  0  0  0  0
 10 26  1  0  0  0  0
 11 26  2  0  0  0  0
 12 27  1  0  0  0  0
 13 14  2  0  0  0  0
 13 28  1  0  0  0  0
 14 29  1  0  0  0  0
 15 23  1  0  0  0  0
 15 27  2  0  0  0  0
 16 24  2  0  0  0  0
 16 30  1  0  0  0  0
 17 29  2  0  0  0  0
 17 31  1  0  0  0  0
 18 32  1  0  0  0  0
 19 32  1  0  0  0  0
 19 33  2  0  0  0  0
 19 35  1  0  0  0  0
 20 22  2  0  0  0  0
 20 42  1  0  0  0  0
 21 23  2  0  0  0  0
 21 43  1  0  0  0  0
 22 51  1  0  0  0  0
 23 44  1  0  0  0  0
 24 72  1  0  0  0  0
 25 30  2  0  0  0  0
 25 69  1  0  0  0  0
 26 81  1  0  0  0  0
 27 82  1  0  0  0  0
 28 31  2  0  0  0  0
 28 81  1  0  0  0  0
 29 83  1  0  0  0  0
 30 84  1  0  0  0  0
 31 85  1  0  0  0  0
 32 63  2  0  0  0  0
 33 64  1  0  0  0  0
 33 67  1  0  0  0  0
 34 36  2  0  0  0  0
 34 82  1  0  0  0  0
 35 68  1  0  0  0  0
 35 74  2  0  0  0  0
 36 37  1  0  0  0  0
 36 80  1  0  0  0  0
 37 69  1  0  0  0  0
 37 75  2  0  0  0  0
 38 52  1  0  0  0  0
 38 70  1  0  0  0  0
 38 76  2  0  0  0  0
 39 60  1  0  0  0  0
 39 65  1  0  0  0  0
 39 77  2  0  0  0  0
 40 61  1  0  0  0  0
 40 71  1  0  0  0  0
 40 78  2  0  0  0  0
 41 66  1  0  0  0  0
 41 72  1  0  0  0  0
 41 79  2  0  0  0  0
 42 45  1  0  0  0  0
 43 52  1  0  0  0  0
 44 65  1  0  0  0  0
 45 47  1  0  0  0  0
 46 48  1  0  0  0  0
 46 49  1  0  0  0  0
 47 51  1  0  0  0  0
 48 53  1  0  0  0  0
 49 66  1  0  0  0  0
 50 53  1  0  0  0  0
 50 66  1  0  0  0  0
 51 70  1  0  0  0  0
 52 65  1  0  0  0  0
 53 64  1  0  0  0  0
 54 61  1  0  0  0  0
 55 62  1  0  0  0  0
 56 62  1  0  0  0  0
 57 62  1  0  0  0  0
 58 72  1  0  0  0  0
 59 73  1  0  0  0  0
 60 62  1  0  0  0  0
 60 71  1  0  0  0  0
 61 73  1  0  0  0  0
 63 64  1  0  0  0  0
M  CHG  1  73   1
M  ISO  4  34 101  41 100  72 100  82 101
M  END
> <Batch ID>
0090

> <Smiles>
CNC(C)C(=O)NC(C(=O)N1Cc2cc([101O:1][101CH2:1]C(=O)C(=O)Nc3ccc([100N:0](C)[100C:0](=O)N4CCCC(n5nc(-c6ccc(Oc7ccc(F)cc7F)cc6)c(C(N)=O)c5N)C4)cc3F)ccc2CC1C(=O)NC1CCCc2ccccc21)C(C)(C)C

> <Shape>
0.294

> <Color>
0.142

> <Negative vol penalty>
0.000

$$$$

  -OEChem-04052300293D

 85 93  0     1  0  0  0  0  0999 V2000
  -29.6168  -23.5222   16.4443 C   0  0  0  0  0  0  0  0  0  0  0  0
  -29.1995  -23.3004   17.7528 C   0  0  0  0  0  0  0  0  0  0  0  0
  -27.6161  -17.0886   18.9615 C   0  0  0  0  0  0  0  0  0  0  0  0
  -28.3311  -16.8989   21.2614 C   0  0  0  0  0  0  0  0  0  0  0  0
  -29.4947  -24.7916   15.8807 C   0  0  0  0  0  0  0  0  0  0  0  0
  -28.6608  -24.3482   18.4987 C   0  0  0  0  0  0  0  0  0  0  0  0
  -24.4921  -22.9872   21.0315 C   0  0  0  0  0  0  0  0  0  0  0  0
  -20.2141  -16.3866   28.7219 C   0  0  0  0  0  0  0  0  0  0  0  0
  -20.8448  -17.5860   28.3915 C   0  0  0  0  0  0  0  0  0  0  0  0
  -28.4125  -18.2233   18.8074 C   0  0  0  0  0  0  0  0  0  0  0  0
  -29.1276  -18.0336   21.1074 C   0  0  0  0  0  0  0  0  0  0  0  0
  -24.6703  -22.2538   22.2038 C   0  0  0  0  0  0  0  0  0  0  0  0
  -31.0706  -21.0887   21.4251 C   0  0  0  0  0  0  0  0  0  0  0  0
  -31.0321  -22.0499   22.4351 C   0  0  0  0  0  0  0  0  0  0  0  0
  -24.3552  -24.2629   23.5014 C   0  0  0  0  0  0  0  0  0  0  0  0
  -22.1459  -16.4386   26.7099 C   0  0  0  0  0  0  0  0  0  0  0  0
  -28.6642  -22.3493   22.0598 C   0  0  0  0  0  0  0  0  0  0  0  0
  -27.5753  -16.4264   20.1885 C   0  0  0  0  0  0  0  0  0  0  0  0
  -27.1258  -13.9162   20.1222 C   0  0  0  0  0  0  0  0  0  0  0  0
  -28.9453  -25.8531   16.6168 C   0  0  0  0  0  0  0  0  0  0  0  0
  -24.2546  -24.3682   21.0850 C   0  0  0  0  0  0  0  0  0  0  0  0
  -28.5325  -25.6332   17.9448 C   0  0  0  0  0  0  0  0  0  0  0  0
  -24.1718  -25.0110   22.3285 C   0  0  0  0  0  0  0  0  0  0  0  0
  -20.5492  -15.2132   28.0463 C   0  0  0  0  0  0  0  0  0  0  0  0
  -21.5151  -15.2392   27.0403 C   0  0  0  0  0  0  0  0  0  0  0  0
  -21.8107  -17.6120   27.3855 C   0  0  0  0  0  0  0  0  0  0  0  0
  -29.1683  -18.6958   19.8804 C   0  0  0  0  0  0  0  0  0  0  0  0
  -24.6047  -22.8921   23.4388 C   0  0  0  0  0  0  0  0  0  0  0  0
  -29.9060  -20.7579   20.7323 C   0  0  0  0  0  0  0  0  0  0  0  0
  -29.8289  -22.6802   22.7525 C   0  0  0  0  0  0  0  0  0  0  0  0
  -28.7028  -21.3882   21.0497 C   0  0  0  0  0  0  0  0  0  0  0  0
  -26.7524  -15.2545   20.3485 C   0  0  0  0  0  0  0  0  0  0  0  0
  -25.9967  -13.1907   20.4143 C   0  0  0  0  0  0  0  0  0  0  0  0
  -28.3810  -13.3770   19.6870 C   0  0  0  0  0  0  0  0  0  0  0  0
  -25.7805  -26.9493   20.0298 C   0  0  0  0  0  0  0  0  0  0  0  0
  -23.9089  -20.3648   25.9357 C   0  0  0  0  0  0  0  0  0  0  0  0
  -23.1247  -28.4769   21.0956 C   0  0  0  0  0  0  0  0  0  0  0  0
  -20.4279  -28.4815   23.1870 C   0  0  0  0  0  0  0  0  0  0  0  0
  -21.2595  -14.2543   23.9184 C   0  0  0  0  0  0  0  0  0  0  0  0
  -28.8772  -27.2189   15.9807 C   0  0  0  0  0  0  0  0  0  0  0  0
  -24.0380  -25.1403   19.8125 C   0  0  0  0  0  0  0  0  0  0  0  0
  -23.8991  -26.4880   22.4410 C   0  0  0  0  0  0  0  0  0  0  0  0
  -27.9501  -28.1861   16.7125 C   0  0  0  0  0  0  0  0  0  0  0  0
  -21.2247  -13.5351   20.4315 C   0  0  0  0  0  0  0  0  0  0  0  0
  -28.2056  -28.1363   18.2155 C   0  0  0  0  0  0  0  0  0  0  0  0
  -22.6711  -13.7735   19.9944 C   0  0  0  0  0  0  0  0  0  0  0  0
  -20.7872  -14.5319   21.5025 C   0  0  0  0  0  0  0  0  0  0  0  0
  -23.1171  -14.8401   22.2443 C   0  0  0  0  0  0  0  0  0  0  0  0
  -27.9202  -26.7385   18.7777 C   0  0  1  0  0  0  0  0  0  0  0  0
  -24.3130  -26.6331   19.9651 C   0  0  1  0  0  0  0  0  0  0  0  0
  -23.6218  -13.8239   21.2056 C   0  0  2  0  0  0  0  0  0  0  0  0
  -19.8611  -13.9410   28.4184 C   0  0  0  0  0  0  0  0  0  0  0  0
  -23.0387  -13.2301   26.9779 C   0  0  0  0  0  0  0  0  0  0  0  0
  -18.4579  -29.8836   23.8581 C   0  0  0  0  0  0  0  0  0  0  0  0
  -24.9694  -30.2893   22.7150 C   0  0  0  0  0  0  0  0  0  0  0  0
  -22.9777  -31.0037   24.0533 C   0  0  0  0  0  0  0  0  0  0  0  0
  -23.0631  -31.4663   21.6036 C   0  0  0  0  0  0  0  0  0  0  0  0
  -18.5066  -26.4063   22.3147 C   0  0  0  0  0  0  0  0  0  0  0  0
  -23.4443  -18.9272   26.0337 C   0  0  0  0  0  0  0  0  0  0  0  0
  -24.3786  -20.8092   24.5641 C   0  0  0  0  0  0  0  0  0  1  0  0
  -21.8913  -13.9952   26.3043 C   0  0  2  0  0  0  0  0  0  0  0  0
  -22.7008  -29.0961   22.4055 C   0  0  1  0  0  0  0  0  0  0  0  0
  -18.9608  -28.7819   22.9383 C   0  0  2  0  0  0  0  0  0  0  0  0
  -23.4348  -30.4363   22.6925 C   0  0  0  0  0  0  0  0  0  0  0  0
  -25.4851  -15.3750   20.7529 N   0  0  0  0  0  0  0  0  0  0  0  0
  -25.0524  -14.1030   20.7830 N   0  0  0  0  0  0  0  0  0  0  0  0
  -23.7005  -27.2005   21.1681 N   0  0  0  0  0  0  0  0  0  0  0  0
  -21.7299  -14.5296   22.6238 N   0  0  0  0  0  0  0  0  0  0  0  0
  -25.7295  -11.8676   20.3890 N   0  0  0  0  0  0  0  0  0  0  0  0
  -29.4362  -14.2633   19.4313 N   0  0  0  0  0  0  0  0  0  0  0  0
  -22.4372  -18.8055   27.0566 N   0  0  0  0  0  0  0  0  0  0  0  0
  -26.4949  -26.5333   18.9226 N   0  0  0  0  0  0  0  0  0  0  0  0
  -21.2474  -29.2105   22.3514 N   0  0  0  0  0  0  0  0  0  0  0  0
  -22.2199  -14.2659   24.9225 N   0  0  0  0  0  0  0  0  0  0  0  0
  -18.1359  -27.5627   23.1705 N   0  3  0  0  0  0  0  0  0  0  0  0
  -28.5566  -12.1471   19.5138 O   0  0  0  0  0  0  0  0  0  0  0  0
  -26.2309  -27.5291   21.0109 O   0  0  0  0  0  0  0  0  0  0  0  0
  -23.9100  -21.1308   26.8985 O   0  0  0  0  0  0  0  0  0  0  0  0
  -22.9449  -29.0996   20.0461 O   0  0  0  0  0  0  0  0  0  0  0  0
  -20.8090  -27.6829   24.0400 O   0  0  0  0  0  0  0  0  0  0  0  0
  -20.0725  -14.0107   24.1606 O   0  0  0  0  0  0  0  0  0  0  0  0
  -29.9457  -19.8028   19.7303 O   0  0  0  0  0  0  0  0  0  0  0  0
  -24.7789  -22.1788   24.5845 O   0  0  0  0  0  0  0  0  0  1  0  0
  -29.7917  -23.6021   23.7236 F   0  0  0  0  0  0  0  0  0  0  0  0
  -27.5805  -21.0737   20.3885 F   0  0  0  0  0  0  0  0  0  0  0  0
  1  2  1  0  0  0  0
  1  5  2  0  0  0  0
  2  6  2  0  0  0  0
  3 10  2  0  0  0  0
  3 18  1  0  0  0  0
  4 11  1  0  0  0  0
  4 18  2  0  0  0  0
  5 20  1  0  0  0  0
  6 22  1  0  0  0  0
  7 12  2  0  0  0  0
  7 21  1  0  0  0  0
  8  9  2  0  0  0  0
  8 24  1  0  0  0  0
  9 26  1  0  0  0  0
 10 27  1  0  0  0  0
 11 27  2  0  0  0  0
 12 28  1  0  0  0  0
 13 14  2  0  0  0  0
 13 29  1  0  0  0  0
 14 30  1  0  0  0  0
 15 23  1  0  0  0  0
 15 28  2  0  0  0  0
 16 25  1  0  0  0  0
 16 26  2  0  0  0  0
 17 30  2  0  0  0  0
 17 31  1  0  0  0  0
 18 32  1  0  0  0  0
 19 32  1  0  0  0  0
 19 33  2  0  0  0  0
 19 34  1  0  0  0  0
 20 22  2  0  0  0  0
 20 40  1  0  0  0  0
 21 23  2  0  0  0  0
 21 41  1  0  0  0  0
 22 49  1  0  0  0  0
 23 42  1  0  0  0  0
 24 25  2  0  0  0  0
 24 52  1  0  0  0  0
 25 61  1  0  0  0  0
 26 71  1  0  0  0  0
 27 82  1  0  0  0  0
 28 83  1  0  0  0  0
 29 31  2  0  0  0  0
 29 82  1  0  0  0  0
 30 84  1  0  0  0  0
 31 85  1  0  0  0  0
 32 65  2  0  0  0  0
 33 66  1  0  0  0  0
 33 69  1  0  0  0  0
 34 70  1  0  0  0  0
 34 76  2  0  0  0  0
 35 50  1  0  0  0  0
 35 72  1  0  0  0  0
 35 77  2  0  0  0  0
 36 59  1  0  0  0  0
 36 60  1  0  0  0  0
 36 78  2  0  0  0  0
 37 62  1  0  0  0  0
 37 67  1  0  0  0  0
 37 79  2  0  0  0  0
 38 63  1  0  0  0  0
 38 73  1  0  0  0  0
 38 80  2  0  0  0  0
 39 68  1  0  0  0  0
 39 74  1  0  0  0  0
 39 81  2  0  0  0  0
 40 43  1  0  0  0  0
 41 50  1  0  0  0  0
 42 67  1  0  0  0  0
 43 45  1  0  0  0  0
 44 46  1  0  0  0  0
 44 47  1  0  0  0  0
 45 49  1  0  0  0  0
 46 51  1  0  0  0  0
 47 68  1  0  0  0  0
 48 51  1  0  0  0  0
 48 68  1  0  0  0  0
 49 72  1  0  0  0  0
 50 67  1  0  0  0  0
 51 66  1  0  0  0  0
 53 61  1  0  0  0  0
 54 63  1  0  0  0  0
 55 64  1  0  0  0  0
 56 64  1  0  0  0  0
 57 64  1  0  0  0  0
 58 75  1  0  0  0  0
 59 71  1  0  0  0  0
 60 83  1  0  0  0  0
 61 74  1  0  0  0  0
 62 64  1  0  0  0  0
 62 73  1  0  0  0  0
 63 75  1  0  0  0  0
 65 66  1  0  0  0  0
M  CHG  1  75   1
M  ISO  4  39 100  60 101  74 100  83 101
M  END
> <Batch ID>
0090

> <Smiles>
CNC(C)C(=O)NC(C(=O)N1Cc2cc([101O:1][101CH2:1]C(=O)CNc3ccc(C)c(C(C)[100NH:0][100C:0](=O)N4CCCC(n5nc(-c6ccc(Oc7ccc(F)cc7F)cc6)c(C(N)=O)c5N)C4)c3)ccc2CC1C(=O)NC1CCCc2ccccc21)C(C)(C)C

> <Shape>
0.234

> <Color>
0.060

> <Negative vol penalty>
0.000

$$$$

  -OEChem-04052300293D

 88 97  0     1  0  0  0  0  0999 V2000
  -27.7821  -32.6971   27.2578 C   0  0  0  0  0  0  0  0  0  0  0  0
  -27.9343  -31.5933   26.4247 C   0  0  0  0  0  0  0  0  0  0  0  0
  -29.6190  -10.0223   17.1938 C   0  0  0  0  0  0  0  0  0  0  0  0
  -30.4186  -12.1914   16.4919 C   0  0  0  0  0  0  0  0  0  0  0  0
  -26.5087  -33.2004   27.5204 C   0  0  0  0  0  0  0  0  0  0  0  0
  -26.8130  -30.9915   25.8547 C   0  0  0  0  0  0  0  0  0  0  0  0
  -27.4603  -29.9344   20.9447 C   0  0  0  0  0  0  0  0  0  0  0  0
  -30.0526   -9.4721   15.9877 C   0  0  0  0  0  0  0  0  0  0  0  0
  -30.8522  -11.6412   15.2857 C   0  0  0  0  0  0  0  0  0  0  0  0
  -28.2166  -28.8060   20.6306 C   0  0  0  0  0  0  0  0  0  0  0  0
  -32.4944  -10.7367   12.1707 C   0  0  0  0  0  0  0  0  0  0  0  0
  -33.7624  -11.0943   11.7126 C   0  0  0  0  0  0  0  0  0  0  0  0
  -26.1869  -27.5587   20.2516 C   0  0  0  0  0  0  0  0  0  0  0  0
  -27.5060  -20.4386   19.1784 C   0  0  0  0  0  0  0  0  0  0  0  0
  -30.2472  -20.8534   18.8684 C   0  0  0  0  0  0  0  0  0  0  0  0
  -34.7460  -10.1782   13.7202 C   0  0  0  0  0  0  0  0  0  0  0  0
  -29.8020  -11.3820   17.4459 C   0  0  0  0  0  0  0  0  0  0  0  0
  -29.7692  -11.5928   19.9880 C   0  0  0  0  0  0  0  0  0  0  0  0
  -25.3720  -32.6104   26.9457 C   0  0  0  0  0  0  0  0  0  0  0  0
  -26.0592  -29.8803   20.9251 C   0  0  0  0  0  0  0  0  0  0  0  0
  -25.5231  -31.4866   26.1110 C   0  0  0  0  0  0  0  0  0  0  0  0
  -25.4152  -28.6884   20.5633 C   0  0  0  0  0  0  0  0  0  0  0  0
  -27.9805  -21.6826   18.7628 C   0  0  0  0  0  0  0  0  0  0  0  0
  -29.3511  -21.8900   18.6077 C   0  0  0  0  0  0  0  0  0  0  0  0
  -28.4021  -19.4019   19.4392 C   0  0  0  0  0  0  0  0  0  0  0  0
  -29.7727  -19.6093   19.2841 C   0  0  0  0  0  0  0  0  0  0  0  0
  -30.6692  -10.2815   15.0336 C   0  0  0  0  0  0  0  0  0  0  0  0
  -27.5799  -27.6171   20.2868 C   0  0  0  0  0  0  0  0  0  0  0  0
  -32.3521  -10.1000   13.4036 C   0  0  0  0  0  0  0  0  0  0  0  0
  -34.8882  -10.8150   12.4873 C   0  0  0  0  0  0  0  0  0  0  0  0
  -33.4779   -9.8207   14.1783 C   0  0  0  0  0  0  0  0  0  0  0  0
  -29.3538  -11.9510   18.6915 C   0  0  0  0  0  0  0  0  0  0  0  0
  -29.0544  -12.4208   20.8186 C   0  0  0  0  0  0  0  0  0  0  0  0
  -30.2113  -25.7433   17.2144 C   0  0  0  0  0  0  0  0  0  0  0  0
  -29.9662  -25.5638   18.5192 C   0  0  0  0  0  0  0  0  0  0  0  0
  -30.5824  -24.5941   16.3640 C   0  0  0  0  0  0  0  0  0  0  0  0
  -30.7165  -10.6004   20.4043 C   0  0  0  0  0  0  0  0  0  0  0  0
  -23.7687  -30.2745   23.0934 C   0  0  0  0  0  0  0  0  0  0  0  0
  -21.8191  -29.9900   20.5165 C   0  0  0  0  0  0  0  0  0  0  0  0
  -21.6475  -27.9308   17.5589 C   0  0  0  0  0  0  0  0  0  0  0  0
  -26.5617  -17.7986   20.0627 C   0  0  0  0  0  0  0  0  0  0  0  0
  -24.0124  -33.1608   27.2967 C   0  0  0  0  0  0  0  0  0  0  0  0
  -25.2581  -31.1136   21.2405 C   0  0  0  0  0  0  0  0  0  0  0  0
  -23.9137  -28.5837   20.5076 C   0  0  0  0  0  0  0  0  0  0  0  0
  -30.6236  -23.2080   16.9576 C   0  0  0  0  0  0  0  0  0  0  0  0
  -22.9051  -32.6957   26.3544 C   0  0  0  0  0  0  0  0  0  0  0  0
  -24.9100  -14.8078   21.0647 C   0  0  0  0  0  0  0  0  0  0  0  0
  -23.0014  -31.1918   26.1187 C   0  0  0  0  0  0  0  0  0  0  0  0
  -25.9025  -13.7037   20.6934 C   0  0  0  0  0  0  0  0  0  0  0  0
  -24.9120  -15.9405   20.0396 C   0  0  0  0  0  0  0  0  0  0  0  0
  -27.2251  -15.4095   19.3789 C   0  0  0  0  0  0  0  0  0  0  0  0
  -24.3329  -30.8216   25.4542 C   0  0  1  0  0  0  0  0  0  0  0  0
  -30.0113  -24.2076   19.1920 C   0  0  2  0  0  0  0  0  0  0  0  0
  -23.8333  -30.8023   21.6881 C   0  0  1  0  0  0  0  0  0  0  0  0
  -27.3059  -14.2774   20.4160 C   0  0  2  0  0  0  0  0  0  0  0  0
  -26.9984  -22.7753   18.4902 C   0  0  0  0  0  0  0  0  0  0  0  0
  -31.3190  -24.0132   19.9672 C   0  0  0  0  0  0  0  0  0  0  0  0
  -20.6380  -28.3897   15.3077 C   0  0  0  0  0  0  0  0  0  0  0  0
  -19.3553  -28.5996   21.6596 C   0  0  0  0  0  0  0  0  0  0  0  0
  -18.9988  -27.5414   19.4188 C   0  0  0  0  0  0  0  0  0  0  0  0
  -18.9122  -30.0235   19.6520 C   0  0  0  0  0  0  0  0  0  0  0  0
  -24.1913  -27.3362   16.1681 C   0  0  0  0  0  0  0  0  0  0  0  0
  -29.5983  -26.7313   19.3939 C   0  0  0  0  0  0  0  0  0  1  0  0
  -21.1411  -28.8407   19.8106 C   0  0  1  0  0  0  0  0  0  0  0  0
  -21.9169  -28.3679   16.1303 C   0  0  2  0  0  0  0  0  0  0  0  0
  -19.6264  -28.7478   20.1492 C   0  0  0  0  0  0  0  0  0  0  0  0
  -28.4454  -12.9302   18.6932 N   0  0  0  0  0  0  0  0  0  0  0  0
  -28.2840  -13.1943   20.0010 N   0  0  0  0  0  0  0  0  0  0  0  0
  -29.8454  -23.1349   18.1932 N   0  0  2  0  0  0  0  0  0  0  0  0
  -23.1743  -29.8152   20.8305 N   0  0  0  0  0  0  0  0  0  0  0  0
  -26.2739  -16.4369   19.8311 N   0  0  0  0  0  0  0  0  0  0  0  0
  -30.6981  -18.5726   19.5411 N   0  0  0  0  0  0  0  0  0  0  0  0
  -29.0158  -12.5554   22.1613 N   0  0  0  0  0  0  0  0  0  0  0  0
  -31.3610   -9.8378   19.4208 N   0  0  0  0  0  0  0  0  0  0  0  0
  -27.8970  -18.1478   19.8631 N   0  0  0  0  0  0  0  0  0  0  0  0
  -24.2958  -31.1312   24.0410 N   0  0  0  0  0  0  0  0  0  0  0  0
  -21.4266  -29.0088   18.3898 N   0  0  0  0  0  0  0  0  0  0  0  0
  -22.8803  -27.4374   15.4769 N   0  3  0  0  0  0  0  0  0  0  0  0
  -30.8895  -24.7912   15.1882 O   0  0  0  0  0  0  0  0  0  0  0  0
  -30.9714  -10.3847   21.6134 O   0  0  0  0  0  0  0  0  0  0  0  0
  -23.2757  -29.1723   23.3028 O   0  0  0  0  0  0  0  0  0  0  0  0
  -21.1720  -31.0083   20.7733 O   0  0  0  0  0  0  0  0  0  0  0  0
  -21.6307  -26.7509   17.9025 O   0  0  0  0  0  0  0  0  0  0  0  0
  -25.6937  -18.5906   20.4385 O   0  0  0  0  0  0  0  0  0  0  0  0
  -31.0926   -9.7449   13.8566 O   0  0  0  0  0  0  0  0  0  0  0  0
  -28.3157  -26.5141   19.9805 O   0  0  0  0  0  0  0  0  0  1  0  0
  -36.1060  -11.1570   12.0466 F   0  0  0  0  0  0  0  0  0  0  0  0
  -33.3477   -9.2080   15.3630 F   0  0  0  0  0  0  0  0  0  0  0  0
  1  2  1  0  0  0  0
  1  5  2  0  0  0  0
  2  6  2  0  0  0  0
  3  8  2  0  0  0  0
  3 17  1  0  0  0  0
  4  9  1  0  0  0  0
  4 17  2  0  0  0  0
  5 19  1  0  0  0  0
  6 21  1  0  0  0  0
  7 10  2  0  0  0  0
  7 20  1  0  0  0  0
  8 27  1  0  0  0  0
  9 27  2  0  0  0  0
 10 28  1  0  0  0  0
 11 12  2  0  0  0  0
 11 29  1  0  0  0  0
 12 30  1  0  0  0  0
 13 22  1  0  0  0  0
 13 28  2  0  0  0  0
 14 23  1  0  0  0  0
 14 25  2  0  0  0  0
 15 24  1  0  0  0  0
 15 26  2  0  0  0  0
 16 30  2  0  0  0  0
 16 31  1  0  0  0  0
 17 32  1  0  0  0  0
 18 32  1  0  0  0  0
 18 33  2  0  0  0  0
 18 37  1  0  0  0  0
 19 21  2  0  0  0  0
 19 42  1  0  0  0  0
 20 22  2  0  0  0  0
 20 43  1  0  0  0  0
 21 52  1  0  0  0  0
 22 44  1  0  0  0  0
 23 24  2  0  0  0  0
 23 56  1  0  0  0  0
 24 69  1  0  0  0  0
 25 26  1  0  0  0  0
 25 75  1  0  0  0  0
 26 72  1  0  0  0  0
 27 85  1  0  0  0  0
 28 86  1  0  0  0  0
 29 31  2  0  0  0  0
 29 85  1  0  0  0  0
 30 87  1  0  0  0  0
 31 88  1  0  0  0  0
 32 67  2  0  0  0  0
 33 68  1  0  0  0  0
 33 73  1  0  0  0  0
 34 35  2  0  0  0  0
 34 36  1  0  0  0  0
 35 53  1  0  0  0  0
 35 63  1  0  0  0  0
 36 45  1  0  0  0  0
 36 79  2  0  0  0  0
 37 74  1  0  0  0  0
 37 80  2  0  0  0  0
 38 54  1  0  0  0  0
 38 76  1  0  0  0  0
 38 81  2  0  0  0  0
 39 64  1  0  0  0  0
 39 70  1  0  0  0  0
 39 82  2  0  0  0  0
 40 65  1  0  0  0  0
 40 77  1  0  0  0  0
 40 83  2  0  0  0  0
 41 71  1  0  0  0  0
 41 75  1  0  0  0  0
 41 84  2  0  0  0  0
 42 46  1  0  0  0  0
 43 54  1  0  0  0  0
 44 70  1  0  0  0  0
 45 69  1  0  0  0  0
 46 48  1  0  0  0  0
 47 49  1  0  0  0  0
 47 50  1  0  0  0  0
 48 52  1  0  0  0  0
 49 55  1  0  0  0  0
 50 71  1  0  0  0  0
 51 55  1  0  0  0  0
 51 71  1  0  0  0  0
 52 76  1  0  0  0  0
 53 57  1  0  0  0  0
 53 69  1  0  0  0  0
 54 70  1  0  0  0  0
 55 68  1  0  0  0  0
 58 65  1  0  0  0  0
 59 66  1  0  0  0  0
 60 66  1  0  0  0  0
 61 66  1  0  0  0  0
 62 78  1  0  0  0  0
 63 86  1  0  0  0  0
 64 66  1  0  0  0  0
 64 77  1  0  0  0  0
 65 78  1  0  0  0  0
 67 68  1  0  0  0  0
M  CHG  1  78   1
M  ISO  4  41 100  63 101  75 100  86 101
M  END
> <Batch ID>
0090

> <Smiles>
CNC(C)C(=O)NC(C(=O)N1Cc2cc([101O:1][101CH2:1]C3=C(C)N(c4cc(N)c([100NH:0][100C:0](=O)N5CCCC(n6nc(-c7ccc(Oc8ccc(F)cc8F)cc7)c(C(N)=O)c6N)C5)cc4C)CC(=O)C3)ccc2CC1C(=O)NC1CCCc2ccccc21)C(C)(C)C

> <Shape>
0.278

> <Color>
0.080

> <Negative vol penalty>
0.000

$$$$

  -OEChem-04052300293D

 86 95  0     1  0  0  0  0  0999 V2000
  -20.0326  -36.0774   17.8613 C   0  0  0  0  0  0  0  0  0  0  0  0
  -21.3212  -35.6416   17.5696 C   0  0  0  0  0  0  0  0  0  0  0  0
  -22.8653  -10.2619   20.9974 C   0  0  0  0  0  0  0  0  0  0  0  0
  -23.0697  -12.6690   21.0297 C   0  0  0  0  0  0  0  0  0  0  0  0
  -30.7181  -19.1300   20.1223 C   0  0  0  0  0  0  0  0  0  0  0  0
  -19.6094  -36.1604   19.1871 C   0  0  0  0  0  0  0  0  0  0  0  0
  -22.1877  -35.2895   18.6039 C   0  0  0  0  0  0  0  0  0  0  0  0
  -25.0416  -28.6853   18.9644 C   0  0  0  0  0  0  0  0  0  0  0  0
  -30.6374  -17.7376   20.1118 C   0  0  0  0  0  0  0  0  0  0  0  0
  -21.7059  -10.3500   21.7679 C   0  0  0  0  0  0  0  0  0  0  0  0
  -21.9103  -12.7572   21.8001 C   0  0  0  0  0  0  0  0  0  0  0  0
  -25.7932  -27.5102   18.9866 C   0  0  0  0  0  0  0  0  0  0  0  0
  -18.5717  -12.6000   21.3005 C   0  0  0  0  0  0  0  0  0  0  0  0
  -17.6276  -13.5615   20.9403 C   0  0  0  0  0  0  0  0  0  0  0  0
  -28.7080  -19.2567   18.7879 C   0  0  0  0  0  0  0  0  0  0  0  0
  -26.8213  -28.1944   21.0658 C   0  0  0  0  0  0  0  0  0  0  0  0
  -17.8585  -14.6007   23.1091 C   0  0  0  0  0  0  0  0  0  0  0  0
  -23.5472  -11.4214   20.6283 C   0  0  0  0  0  0  0  0  0  0  0  0
  -29.7534  -19.8896   19.4604 C   0  0  0  0  0  0  0  0  0  0  0  0
  -24.8712  -10.7747   18.5459 C   0  0  0  0  0  0  0  0  0  0  0  0
  -20.4679  -35.8000   20.2377 C   0  0  0  0  0  0  0  0  0  0  0  0
  -25.1658  -29.6134   20.0020 C   0  0  0  0  0  0  0  0  0  0  0  0
  -21.7760  -35.3691   19.9451 C   0  0  0  0  0  0  0  0  0  0  0  0
  -26.0619  -29.3674   21.0553 C   0  0  0  0  0  0  0  0  0  0  0  0
  -29.5920  -17.1047   19.4394 C   0  0  0  0  0  0  0  0  0  0  0  0
  -21.2284  -11.5976   22.1692 C   0  0  0  0  0  0  0  0  0  0  0  0
  -26.6810  -27.2655   20.0346 C   0  0  0  0  0  0  0  0  0  0  0  0
  -19.1592  -12.6388   22.5650 C   0  0  0  0  0  0  0  0  0  0  0  0
  -17.2710  -14.5619   21.8446 C   0  0  0  0  0  0  0  0  0  0  0  0
  -28.6273  -17.8642   18.7774 C   0  0  0  0  0  0  0  0  0  0  0  0
  -18.8026  -13.6392   23.4693 C   0  0  0  0  0  0  0  0  0  0  0  0
  -24.7453  -11.3311   19.8329 C   0  0  0  0  0  0  0  0  0  0  0  0
  -26.1990  -10.9327   18.2320 C   0  0  0  0  0  0  0  0  0  0  0  0
  -27.4952  -23.8446   20.7575 C   0  0  0  0  0  0  0  0  0  0  0  0
  -26.8715  -25.0246   20.6787 C   0  0  0  0  0  0  0  0  0  1  0  0
  -29.8388  -21.3583   19.4713 C   0  0  0  0  0  0  0  0  0  0  0  0
  -23.8769  -10.1694   17.7089 C   0  0  0  0  0  0  0  0  0  0  0  0
  -24.0617  -32.8906   21.4569 C   0  0  0  0  0  0  0  0  0  0  0  0
  -24.3367  -30.9249   23.7958 C   0  0  0  0  0  0  0  0  0  0  0  0
  -24.0333  -29.2145   26.7318 C   0  0  0  0  0  0  0  0  0  0  0  0
  -30.3895  -14.7910   20.0371 C   0  0  0  0  0  0  0  0  0  0  0  0
  -19.9814  -35.9514   21.6572 C   0  0  0  0  0  0  0  0  0  0  0  0
  -24.4217  -30.9210   19.9880 C   0  0  0  0  0  0  0  0  0  0  0  0
  -26.1882  -30.4102   22.1322 C   0  0  0  0  0  0  0  0  0  0  0  0
  -26.9481  -22.6232   21.4323 C   0  0  0  0  0  0  0  0  0  0  0  0
  -28.7893  -23.5143   20.0841 C   0  0  0  0  0  0  0  0  0  0  0  0
  -20.8358  -35.2029   22.6770 C   0  0  0  0  0  0  0  0  0  0  0  0
  -30.5191  -11.2409   20.2755 C   0  0  0  0  0  0  0  0  0  0  0  0
  -22.3178  -35.4608   22.4238 C   0  0  0  0  0  0  0  0  0  0  0  0
  -29.0656  -10.8101   20.0659 C   0  0  0  0  0  0  0  0  0  0  0  0
  -27.5628  -21.4996   20.6139 C   0  0  0  0  0  0  0  0  0  0  0  0
  -30.6161  -12.5422   21.0698 C   0  0  0  0  0  0  0  0  0  0  0  0
  -28.3692  -13.2256   20.3257 C   0  0  0  0  0  0  0  0  0  0  0  0
  -22.7369  -34.9547   21.0382 C   0  0  1  0  0  0  0  0  0  0  0  0
  -24.0038  -31.3926   21.3923 C   0  0  1  0  0  0  0  0  0  0  0  0
  -28.2185  -11.9540   19.4748 C   0  0  2  0  0  0  0  0  0  0  0  0
  -24.0942  -29.5441   29.2187 C   0  0  0  0  0  0  0  0  0  0  0  0
  -27.3781  -31.1321   23.6902 C   0  0  0  0  0  0  0  0  0  0  0  0
  -27.4341  -30.5053   26.1135 C   0  0  0  0  0  0  0  0  0  0  0  0
  -26.2904  -32.6028   25.3956 C   0  0  0  0  0  0  0  0  0  0  0  0
  -21.2418  -28.2811   27.0404 C   0  0  0  0  0  0  0  0  0  0  0  0
  -25.2197  -30.3702   24.8848 C   0  0  1  0  0  0  0  0  0  0  0  0
  -23.2143  -29.4920   27.9794 C   0  0  2  0  0  0  0  0  0  0  0  0
  -26.5680  -31.1356   25.0020 C   0  0  0  0  0  0  0  0  0  0  0  0
  -25.9009  -11.8067   20.3044 N   0  0  0  0  0  0  0  0  0  0  0  0
  -26.7656  -11.5497   19.3083 N   0  0  0  0  0  0  0  0  0  0  0  0
  -28.7768  -22.0607   20.0246 N   0  0  0  0  0  0  0  0  0  0  0  0
  -24.8571  -30.9205   22.4959 N   0  0  0  0  0  0  0  0  0  0  0  0
  -29.7916  -13.5811   20.4487 N   0  0  0  0  0  0  0  0  0  0  0  0
  -26.9255  -10.6025   17.1431 N   0  0  0  0  0  0  0  0  0  0  0  0
  -23.1649  -10.9859   16.8197 N   0  0  0  0  0  0  0  0  0  0  0  0
  -29.5131  -15.6899   19.4301 N   0  0  0  0  0  0  0  0  0  0  0  0
  -22.8979  -33.5165   21.0529 N   0  0  0  0  0  0  0  0  0  0  0  0
  -24.4190  -30.3802   26.1043 N   0  0  0  0  0  0  0  0  0  0  0  0
  -22.1904  -28.4269   28.1744 N   0  3  0  0  0  0  0  0  0  0  0  0
  -30.8523  -21.8675   18.9966 O   0  0  0  0  0  0  0  0  0  0  0  0
  -23.6157   -8.9436   17.7601 O   0  0  0  0  0  0  0  0  0  0  0  0
  -25.0859  -33.4394   21.8460 O   0  0  0  0  0  0  0  0  0  0  0  0
  -23.2178  -31.3562   24.0877 O   0  0  0  0  0  0  0  0  0  0  0  0
  -24.3069  -28.0775   26.3538 O   0  0  0  0  0  0  0  0  0  0  0  0
  -31.5958  -15.0022   20.1858 O   0  0  0  0  0  0  0  0  0  0  0  0
  -20.0969  -11.6840   22.9208 O   0  0  0  0  0  0  0  0  0  0  0  0
  -27.4083  -26.1142   20.0523 O   0  0  0  0  0  0  0  0  0  1  0  0
  -16.3655  -15.4861   21.4980 F   0  0  0  0  0  0  0  0  0  0  0  0
  -27.6182  -17.2668   18.1272 F   0  0  0  0  0  0  0  0  0  0  0  0
  -19.3645  -13.6823   24.6852 F   0  0  0  0  0  0  0  0  0  0  0  0
  1  2  1  0  0  0  0
  1  6  2  0  0  0  0
  2  7  2  0  0  0  0
  3 10  2  0  0  0  0
  3 18  1  0  0  0  0
  4 11  1  0  0  0  0
  4 18  2  0  0  0  0
  5  9  2  0  0  0  0
  5 19  1  0  0  0  0
  6 21  1  0  0  0  0
  7 23  1  0  0  0  0
  8 12  2  0  0  0  0
  8 22  1  0  0  0  0
  9 25  1  0  0  0  0
 10 26  1  0  0  0  0
 11 26  2  0  0  0  0
 12 27  1  0  0  0  0
 13 14  2  0  0  0  0
 13 28  1  0  0  0  0
 14 29  1  0  0  0  0
 15 19  2  0  0  0  0
 15 30  1  0  0  0  0
 16 24  1  0  0  0  0
 16 27  2  0  0  0  0
 17 29  2  0  0  0  0
 17 31  1  0  0  0  0
 18 32  1  0  0  0  0
 19 36  1  0  0  0  0
 20 32  1  0  0  0  0
 20 33  2  0  0  0  0
 20 37  1  0  0  0  0
 21 23  2  0  0  0  0
 21 42  1  0  0  0  0
 22 24  2  0  0  0  0
 22 43  1  0  0  0  0
 23 54  1  0  0  0  0
 24 44  1  0  0  0  0
 25 30  2  0  0  0  0
 25 72  1  0  0  0  0
 26 82  1  0  0  0  0
 27 83  1  0  0  0  0
 28 31  2  0  0  0  0
 28 82  1  0  0  0  0
 29 84  1  0  0  0  0
 30 85  1  0  0  0  0
 31 86  1  0  0  0  0
 32 65  2  0  0  0  0
 33 66  1  0  0  0  0
 33 70  1  0  0  0  0
 34 35  2  0  0  0  0
 34 45  1  0  0  0  0
 34 46  1  0  0  0  0
 35 83  1  0  0  0  0
 36 67  1  0  0  0  0
 36 76  2  0  0  0  0
 37 71  1  0  0  0  0
 37 77  2  0  0  0  0
 38 55  1  0  0  0  0
 38 73  1  0  0  0  0
 38 78  2  0  0  0  0
 39 62  1  0  0  0  0
 39 68  1  0  0  0  0
 39 79  2  0  0  0  0
 40 63  1  0  0  0  0
 40 74  1  0  0  0  0
 40 80  2  0  0  0  0
 41 69  1  0  0  0  0
 41 72  1  0  0  0  0
 41 81  2  0  0  0  0
 42 47  1  0  0  0  0
 43 55  1  0  0  0  0
 44 68  1  0  0  0  0
 45 51  1  0  0  0  0
 46 67  1  0  0  0  0
 47 49  1  0  0  0  0
 48 50  1  0  0  0  0
 48 52  1  0  0  0  0
 49 54  1  0  0  0  0
 50 56  1  0  0  0  0
 51 67  1  0  0  0  0
 52 69  1  0  0  0  0
 53 56  1  0  0  0  0
 53 69  1  0  0  0  0
 54 73  1  0  0  0  0
 55 68  1  0  0  0  0
 56 66  1  0  0  0  0
 57 63  1  0  0  0  0
 58 64  1  0  0  0  0
 59 64  1  0  0  0  0
 60 64  1  0  0  0  0
 61 75  1  0  0  0  0
 62 64  1  0  0  0  0
 62 74  1  0  0  0  0
 63 75  1  0  0  0  0
 65 66  1  0  0  0  0
M  CHG  1  75   1
M  ISO  4  35 101  41 100  72 100  83 101
M  END
> <Batch ID>
0090

> <Smiles>
CNC(C)C(=O)NC(C(=O)N1Cc2cc([101O:1][101CH:1]=C3CCN(C(=O)c4ccc([100NH:0][100C:0](=O)N5CCCC(n6nc(-c7ccc(Oc8ccc(F)cc8F)cc7)c(C(N)=O)c6N)C5)c(F)c4)C3)ccc2CC1C(=O)NC1CCCc2ccccc21)C(C)(C)C

> <Shape>
0.251

> <Color>
0.107

> <Negative vol penalty>
0.000

$$$$

  -OEChem-04052300293D

 86 95  0     1  0  0  0  0  0999 V2000
  -19.5519  -26.8400   25.9566 C   0  0  0  0  0  0  0  0  0  0  0  0
  -20.5330  -26.3762   25.0862 C   0  0  0  0  0  0  0  0  0  0  0  0
  -23.7088   -8.8118   20.1535 C   0  0  0  0  0  0  0  0  0  0  0  0
  -22.9297  -10.7079   21.4322 C   0  0  0  0  0  0  0  0  0  0  0  0
  -18.7743  -27.9425   25.6049 C   0  0  0  0  0  0  0  0  0  0  0  0
  -20.7365  -27.0140   23.8630 C   0  0  0  0  0  0  0  0  0  0  0  0
  -25.6429  -27.7504   22.8484 C   0  0  0  0  0  0  0  0  0  0  0  0
  -27.9158  -19.8375   18.1608 C   0  0  0  0  0  0  0  0  0  0  0  0
  -29.9189  -19.9116   19.5096 C   0  0  0  0  0  0  0  0  0  0  0  0
  -27.9099  -18.4453   18.2461 C   0  0  0  0  0  0  0  0  0  0  0  0
  -29.9129  -18.5194   19.5949 C   0  0  0  0  0  0  0  0  0  0  0  0
  -22.8567   -7.9754   20.8745 C   0  0  0  0  0  0  0  0  0  0  0  0
  -22.0776   -9.8715   22.1532 C   0  0  0  0  0  0  0  0  0  0  0  0
  -26.3697  -26.6530   22.3888 C   0  0  0  0  0  0  0  0  0  0  0  0
  -22.8118   -6.4816   23.9062 C   0  0  0  0  0  0  0  0  0  0  0  0
  -23.3300   -5.2714   24.3671 C   0  0  0  0  0  0  0  0  0  0  0  0
  -26.1601  -27.4685   20.1282 C   0  0  0  0  0  0  0  0  0  0  0  0
  -29.6001  -24.0363   18.2520 C   0  0  0  0  0  0  0  0  0  0  0  0
  -21.6691   -4.0723   23.0862 C   0  0  0  0  0  0  0  0  0  0  0  0
  -23.7454  -10.1781   20.4323 C   0  0  0  0  0  0  0  0  0  0  0  0
  -24.3343  -11.7284   18.4939 C   0  0  0  0  0  0  0  0  0  0  0  0
  -18.9748  -28.6002   24.3810 C   0  0  0  0  0  0  0  0  0  0  0  0
  -25.1590  -28.7110   21.9486 C   0  0  0  0  0  0  0  0  0  0  0  0
  -19.9599  -28.1256   23.4940 C   0  0  0  0  0  0  0  0  0  0  0  0
  -25.4296  -28.5785   20.5792 C   0  0  0  0  0  0  0  0  0  0  0  0
  -28.3275  -24.1024   18.8712 C   0  0  0  0  0  0  0  0  0  0  0  0
  -28.9204  -20.5707   18.7925 C   0  0  0  0  0  0  0  0  0  0  0  0
  -28.9084  -17.7862   18.9632 C   0  0  0  0  0  0  0  0  0  0  0  0
  -22.0410   -8.5052   21.8744 C   0  0  0  0  0  0  0  0  0  0  0  0
  -26.6260  -26.5104   21.0283 C   0  0  0  0  0  0  0  0  0  0  0  0
  -21.7221   -6.4871   23.0353 C   0  0  0  0  0  0  0  0  0  0  0  0
  -22.7587   -4.0667   23.9571 C   0  0  0  0  0  0  0  0  0  0  0  0
  -21.1508   -5.2825   22.6253 C   0  0  0  0  0  0  0  0  0  0  0  0
  -24.6258  -11.0425   19.6882 C   0  0  0  0  0  0  0  0  0  0  0  0
  -27.9343  -22.8104   19.1420 C   0  0  0  0  0  0  0  0  0  0  0  0
  -25.4913  -12.4058   18.1958 C   0  0  0  0  0  0  0  0  0  0  0  0
  -29.9457  -22.7059   18.1632 C   0  0  0  0  0  0  0  0  0  0  0  0
  -25.5375  -22.8262   19.6620 C   0  0  0  0  0  0  0  0  0  0  0  0
  -26.7724  -22.2825   19.7402 C   0  0  0  0  0  0  0  0  0  0  0  0
  -23.1256  -11.7511   17.7230 C   0  0  0  0  0  0  0  0  0  0  0  0
  -22.2735  -29.7527   21.1165 C   0  0  0  0  0  0  0  0  0  0  0  0
  -23.9768  -31.9138   19.3986 C   0  0  0  0  0  0  0  0  0  0  0  0
  -26.9031  -32.7135   17.8353 C   0  0  0  0  0  0  0  0  0  0  0  0
  -29.8180  -15.5620   19.7193 C   0  0  0  0  0  0  0  0  0  0  0  0
  -18.0778  -29.7588   24.0239 C   0  0  0  0  0  0  0  0  0  0  0  0
  -24.3995  -29.9030   22.4632 C   0  0  0  0  0  0  0  0  0  0  0  0
  -24.9498  -29.5926   19.5743 C   0  0  0  0  0  0  0  0  0  0  0  0
  -18.6093  -30.6083   22.8724 C   0  0  0  0  0  0  0  0  0  0  0  0
  -30.1271  -12.0472   20.1964 C   0  0  0  0  0  0  0  0  0  0  0  0
  -19.0781  -29.7190   21.7251 C   0  0  0  0  0  0  0  0  0  0  0  0
  -28.6994  -11.5289   20.0085 C   0  0  0  0  0  0  0  0  0  0  0  0
  -30.1503  -13.4019   20.9020 C   0  0  0  0  0  0  0  0  0  0  0  0
  -27.8780  -13.9171   20.1017 C   0  0  0  0  0  0  0  0  0  0  0  0
  -20.2274  -28.8060   22.1690 C   0  0  1  0  0  0  0  0  0  0  0  0
  -23.5141  -30.5505   21.4029 C   0  0  1  0  0  0  0  0  0  0  0  0
  -27.8001  -12.5854   19.3374 C   0  0  2  0  0  0  0  0  0  0  0  0
  -27.9822  -34.5334   16.4859 C   0  0  0  0  0  0  0  0  0  0  0  0
  -22.3664  -31.0527   16.9542 C   0  0  0  0  0  0  0  0  0  0  0  0
  -24.0867  -32.1658   15.5155 C   0  0  0  0  0  0  0  0  0  0  0  0
  -22.7531  -33.5170   17.1336 C   0  0  0  0  0  0  0  0  0  0  0  0
  -29.0190  -33.1224   19.8638 C   0  0  0  0  0  0  0  0  0  0  0  0
  -27.5604  -25.3567   19.1704 C   0  0  0  0  0  0  0  0  0  1  0  0
  -24.5455  -31.9592   18.0010 C   0  0  1  0  0  0  0  0  0  0  0  0
  -27.7589  -33.9665   17.8793 C   0  0  2  0  0  0  0  0  0  0  0  0
  -23.4455  -32.1534   16.9195 C   0  0  0  0  0  0  0  0  0  0  0  0
  -25.8705  -11.2638   20.1193 N   0  0  0  0  0  0  0  0  0  0  0  0
  -28.9256  -21.9699   18.7071 N   0  0  0  0  0  0  0  0  0  0  0  0
  -26.3713  -12.0963   19.1907 N   0  0  0  0  0  0  0  0  0  0  0  0
  -24.2060  -30.7372   20.1259 N   0  0  0  0  0  0  0  0  0  0  0  0
  -29.2792  -14.3530   20.2081 N   0  0  0  0  0  0  0  0  0  0  0  0
  -25.8315  -13.2301   17.1823 N   0  0  0  0  0  0  0  0  0  0  0  0
  -22.0323  -10.9980   18.1722 N   0  0  0  0  0  0  0  0  0  0  0  0
  -28.9021  -16.3719   19.0486 N   0  0  0  0  0  0  0  0  0  0  0  0
  -21.4697  -29.5464   22.2214 N   0  0  0  0  0  0  0  0  0  0  0  0
  -25.5660  -33.0018   18.0092 N   0  0  0  0  0  0  0  0  0  0  0  0
  -29.0878  -33.6653   18.4827 N   0  3  0  0  0  0  0  0  0  0  0  0
  -23.0237  -12.4065   16.6582 O   0  0  0  0  0  0  0  0  0  0  0  0
  -22.0605  -29.3551   19.9771 O   0  0  0  0  0  0  0  0  0  0  0  0
  -23.3582  -32.8891   19.8318 O   0  0  0  0  0  0  0  0  0  0  0  0
  -27.3733  -31.5915   17.6602 O   0  0  0  0  0  0  0  0  0  0  0  0
  -31.0106  -15.8447   19.8599 O   0  0  0  0  0  0  0  0  0  0  0  0
  -31.0337  -22.1314   17.6638 O   0  0  0  0  0  0  0  0  0  0  0  0
  -21.2092   -7.6894   22.5780 O   0  0  0  0  0  0  0  0  0  0  0  0
  -27.3346  -25.4399   20.5770 O   0  0  0  0  0  0  0  0  0  1  0  0
  -23.2574   -2.9046   24.3986 F   0  0  0  0  0  0  0  0  0  0  0  0
  -20.1046   -5.2815   21.7879 F   0  0  0  0  0  0  0  0  0  0  0  0
  1  2  1  0  0  0  0
  1  5  2  0  0  0  0
  2  6  2  0  0  0  0
  3 12  2  0  0  0  0
  3 20  1  0  0  0  0
  4 13  1  0  0  0  0
  4 20  2  0  0  0  0
  5 22  1  0  0  0  0
  6 24  1  0  0  0  0
  7 14  2  0  0  0  0
  7 23  1  0  0  0  0
  8 10  2  0  0  0  0
  8 27  1  0  0  0  0
  9 11  1  0  0  0  0
  9 27  2  0  0  0  0
 10 28  1  0  0  0  0
 11 28  2  0  0  0  0
 12 29  1  0  0  0  0
 13 29  2  0  0  0  0
 14 30  1  0  0  0  0
 15 16  2  0  0  0  0
 15 31  1  0  0  0  0
 16 32  1  0  0  0  0
 17 25  1  0  0  0  0
 17 30  2  0  0  0  0
 18 26  1  0  0  0  0
 18 37  2  0  0  0  0
 19 32  2  0  0  0  0
 19 33  1  0  0  0  0
 20 34  1  0  0  0  0
 21 34  1  0  0  0  0
 21 36  2  0  0  0  0
 21 40  1  0  0  0  0
 22 24  2  0  0  0  0
 22 45  1  0  0  0  0
 23 25  2  0  0  0  0
 23 46  1  0  0  0  0
 24 54  1  0  0  0  0
 25 47  1  0  0  0  0
 26 35  2  0  0  0  0
 26 62  1  0  0  0  0
 27 67  1  0  0  0  0
 28 73  1  0  0  0  0
 29 83  1  0  0  0  0
 30 84  1  0  0  0  0
 31 33  2  0  0  0  0
 31 83  1  0  0  0  0
 32 85  1  0  0  0  0
 33 86  1  0  0  0  0
 34 66  2  0  0  0  0
 35 39  1  0  0  0  0
 35 67  1  0  0  0  0
 36 68  1  0  0  0  0
 36 71  1  0  0  0  0
 37 67  1  0  0  0  0
 37 82  1  0  0  0  0
 38 39  2  0  0  0  0
 40 72  1  0  0  0  0
 40 77  2  0  0  0  0
 41 55  1  0  0  0  0
 41 74  1  0  0  0  0
 41 78  2  0  0  0  0
 42 63  1  0  0  0  0
 42 69  1  0  0  0  0
 42 79  2  0  0  0  0
 43 64  1  0  0  0  0
 43 75  1  0  0  0  0
 43 80  2  0  0  0  0
 44 70  1  0  0  0  0
 44 73  1  0  0  0  0
 44 81  2  0  0  0  0
 45 48  1  0  0  0  0
 46 55  1  0  0  0  0
 47 69  1  0  0  0  0
 48 50  1  0  0  0  0
 49 51  1  0  0  0  0
 49 52  1  0  0  0  0
 50 54  1  0  0  0  0
 51 56  1  0  0  0  0
 52 70  1  0  0  0  0
 53 56  1  0  0  0  0
 53 70  1  0  0  0  0
 54 74  1  0  0  0  0
 55 69  1  0  0  0  0
 56 68  1  0  0  0  0
 57 64  1  0  0  0  0
 58 65  1  0  0  0  0
 59 65  1  0  0  0  0
 60 65  1  0  0  0  0
 61 76  1  0  0  0  0
 62 84  1  0  0  0  0
 63 65  1  0  0  0  0
 63 75  1  0  0  0  0
 64 76  1  0  0  0  0
 66 68  1  0  0  0  0
M  CHG  1  76   1
M  ISO  4  44 100  62 101  73 100  84 101
M  END
> <Batch ID>
0090

> <Smiles>
C=CC1=C([101CH2:1][101O:1]c2ccc3c(c2)CN(C(=O)C(NC(=O)C(C)NC)C(C)(C)C)C(C(=O)NC2CCCc4ccccc42)C3)CC(=O)N1c1ccc([100NH:0][100C:0](=O)N2CCCC(n3nc(-c4ccc(Oc5ccc(F)cc5F)cc4)c(C(N)=O)c3N)C2)cc1

> <Shape>
0.270

> <Color>
0.103

> <Negative vol penalty>
0.000

$$$$

  -OEChem-04052300293D

 88 97  0     1  0  0  0  0  0999 V2000
  -23.3044   -8.0112   20.9890 C   0  0  0  0  0  0  0  0  0  0  0  0
  -22.5969   -8.8141   20.1015 C   0  0  0  0  0  0  0  0  0  0  0  0
  -17.6194  -26.7676   23.0199 C   0  0  0  0  0  0  0  0  0  0  0  0
  -27.7353  -24.2711   18.3478 C   0  0  0  0  0  0  0  0  0  0  0  0
  -29.4434  -25.7141   19.2628 C   0  0  0  0  0  0  0  0  0  0  0  0
  -18.2588  -27.9976   22.8653 C   0  0  0  0  0  0  0  0  0  0  0  0
  -24.0002   -8.5930   22.0466 C   0  0  0  0  0  0  0  0  0  0  0  0
  -22.5947  -10.1999   20.2643 C   0  0  0  0  0  0  0  0  0  0  0  0
  -20.7763  -17.7847   18.7195 C   0  0  0  0  0  0  0  0  0  0  0  0
  -18.3712  -25.5947   23.0904 C   0  0  0  0  0  0  0  0  0  0  0  0
  -28.6584  -23.7550   17.4384 C   0  0  0  0  0  0  0  0  0  0  0  0
  -30.3666  -25.1979   18.3534 C   0  0  0  0  0  0  0  0  0  0  0  0
  -20.7327  -19.0566   19.2890 C   0  0  0  0  0  0  0  0  0  0  0  0
  -30.0637  -24.6949   14.5117 C   0  0  0  0  0  0  0  0  0  0  0  0
  -29.6571  -24.5563   13.1847 C   0  0  0  0  0  0  0  0  0  0  0  0
  -20.4017  -26.8819   22.8515 C   0  0  0  0  0  0  0  0  0  0  0  0
  -23.0653  -18.8680   19.8742 C   0  0  0  0  0  0  0  0  0  0  0  0
  -30.0676  -22.1785   13.3074 C   0  0  0  0  0  0  0  0  0  0  0  0
  -28.1277  -25.2507   19.2600 C   0  0  0  0  0  0  0  0  0  0  0  0
  -19.6499  -28.0547   22.7811 C   0  0  0  0  0  0  0  0  0  0  0  0
  -26.4570  -25.0734   21.1795 C   0  0  0  0  0  0  0  0  0  0  0  0
  -23.9958   -9.9858   22.2289 C   0  0  0  0  0  0  0  0  0  0  0  0
  -21.9639  -17.0392   18.7328 C   0  0  0  0  0  0  0  0  0  0  0  0
  -23.3106  -10.8079   21.3114 C   0  0  0  0  0  0  0  0  0  0  0  0
  -23.1220  -17.5879   19.3020 C   0  0  0  0  0  0  0  0  0  0  0  0
  -19.7623  -25.6519   23.0062 C   0  0  0  0  0  0  0  0  0  0  0  0
  -29.9740  -24.2183   17.4412 C   0  0  0  0  0  0  0  0  0  0  0  0
  -21.8765  -19.5972   19.8690 C   0  0  0  0  0  0  0  0  0  0  0  0
  -30.4724  -23.5755   15.2365 C   0  0  0  0  0  0  0  0  0  0  0  0
  -29.6589  -23.2981   12.5825 C   0  0  0  0  0  0  0  0  0  0  0  0
  -30.4743  -22.3173   14.6344 C   0  0  0  0  0  0  0  0  0  0  0  0
  -27.1745  -25.7848   20.1992 C   0  0  0  0  0  0  0  0  0  0  0  0
  -25.6918  -26.0274   21.8047 C   0  0  0  0  0  0  0  0  0  0  0  0
  -20.3613  -23.4335   22.1514 C   0  0  0  0  0  0  0  0  0  0  0  0
  -20.8364  -22.1746   22.1508 C   0  0  0  0  0  0  0  0  0  0  0  0
  -21.1658  -23.3129   25.1350 C   0  0  0  0  0  0  0  0  0  0  0  0
  -20.3310  -29.3646   22.6166 C   0  0  0  0  0  0  0  0  0  0  0  0
  -26.4802  -23.6754   21.4967 C   0  0  0  0  0  0  0  0  0  0  0  0
  -22.8533  -14.2591   19.9913 C   0  0  0  0  0  0  0  0  0  0  0  0
  -25.5826  -14.8251   18.3321 C   0  0  0  0  0  0  0  0  0  0  0  0
  -27.7128  -17.6569   17.6538 C   0  0  0  0  0  0  0  0  0  0  0  0
  -22.3514  -30.4461   21.6826 C   0  0  0  0  0  0  0  0  0  0  0  0
  -24.7724  -10.5632   23.3860 C   0  0  0  0  0  0  0  0  0  0  0  0
  -22.0014  -15.6796   18.0907 C   0  0  0  0  0  0  0  0  0  0  0  0
  -24.4273  -16.8367   19.3240 C   0  0  0  0  0  0  0  0  0  0  0  0
  -21.6175  -21.5724   23.2946 C   0  0  0  0  0  0  0  0  0  0  0  0
  -21.0327  -21.8763   24.6720 C   0  0  0  0  0  0  0  0  0  0  0  0
  -21.5385  -24.3872   24.1390 C   0  0  0  0  0  0  0  0  0  0  0  0
  -24.3497  -11.9867   23.7343 C   0  0  0  0  0  0  0  0  0  0  0  0
  -25.8240  -31.0814   21.4985 C   0  0  0  0  0  0  0  0  0  0  0  0
  -24.3159  -12.8414   22.4762 C   0  0  0  0  0  0  0  0  0  0  0  0
  -26.4301  -29.7007   21.2324 C   0  0  0  0  0  0  0  0  0  0  0  0
  -24.4995  -31.2714   20.7606 C   0  0  0  0  0  0  0  0  0  0  0  0
  -24.1103  -28.8414   20.7187 C   0  0  0  0  0  0  0  0  0  0  0  0
  -23.2688  -12.3152   21.4864 C   0  0  1  0  0  0  0  0  0  0  0  0
  -23.1316  -14.8008   18.6177 C   0  0  1  0  0  0  0  0  0  0  0  0
  -25.4099  -28.5749   21.4953 C   0  0  1  0  0  0  0  0  0  0  0  0
  -29.2358  -18.1256   15.7152 C   0  0  0  0  0  0  0  0  0  0  0  0
  -27.7402  -13.5926   20.1028 C   0  0  0  0  0  0  0  0  0  0  0  0
  -29.3371  -15.3153   19.2365 C   0  0  0  0  0  0  0  0  0  0  0  0
  -28.3076  -13.6710   17.6684 C   0  0  0  0  0  0  0  0  0  0  0  0
  -26.3933  -20.2461   17.0935 C   0  0  0  0  0  0  0  0  0  0  0  0
  -20.5918  -21.2611   20.9811 C   0  0  0  0  0  0  0  0  0  1  0  0
  -26.8853  -15.5294   18.6250 C   0  0  1  0  0  0  0  0  0  0  0  0
  -27.8678  -18.3808   16.3285 C   0  0  2  0  0  0  0  0  0  0  0  0
  -28.0433  -14.5349   18.9208 C   0  0  0  0  0  0  0  0  0  0  0  0
  -26.8903  -27.0898   20.1978 N   0  0  0  0  0  0  0  0  0  0  0  0
  -25.9857  -27.2061   21.1848 N   0  0  0  0  0  0  0  0  0  0  0  0
  -20.5277  -24.4574   23.0779 N   0  0  0  0  0  0  0  0  0  0  0  0
  -24.4116  -15.5085   18.6890 N   0  0  0  0  0  0  0  0  0  0  0  0
  -23.5862  -30.1699   21.0700 N   0  0  0  0  0  0  0  0  0  0  0  0
  -24.8028  -25.9645   22.8187 N   0  0  0  0  0  0  0  0  0  0  0  0
  -27.3991  -23.2224   22.4532 N   0  0  0  0  0  0  0  0  0  0  0  0
  -21.5696  -29.3231   21.9759 N   0  0  0  0  0  0  0  0  0  0  0  0
  -23.4115  -13.0178   20.2303 N   0  0  0  0  0  0  0  0  0  0  0  0
  -27.1335  -16.4160   17.4933 N   0  0  0  0  0  0  0  0  0  0  0  0
  -27.7045  -19.8499   16.5184 N   0  3  0  0  0  0  0  0  0  0  0  0
  -20.9535  -23.6014   26.3158 O   0  0  0  0  0  0  0  0  0  0  0  0
  -19.7678  -30.3845   23.0047 O   0  0  0  0  0  0  0  0  0  0  0  0
  -25.7202  -22.8497   20.9363 O   0  0  0  0  0  0  0  0  0  0  0  0
  -22.1831  -14.9192   20.7767 O   0  0  0  0  0  0  0  0  0  0  0  0
  -25.6030  -13.7127   17.7994 O   0  0  0  0  0  0  0  0  0  0  0  0
  -28.0733  -18.1421   18.7239 O   0  0  0  0  0  0  0  0  0  0  0  0
  -21.9921  -31.5902   21.9779 O   0  0  0  0  0  0  0  0  0  0  0  0
  -30.8751  -23.7147   16.5541 O   0  0  0  0  0  0  0  0  0  0  0  0
  -21.8366  -20.8382   20.4260 O   0  0  0  0  0  0  0  0  0  1  0  0
  -29.2669  -23.1648   11.3087 F   0  0  0  0  0  0  0  0  0  0  0  0
  -30.8647  -21.2379   15.3261 F   0  0  0  0  0  0  0  0  0  0  0  0
  1  2  1  0  0  0  0
  1  7  2  0  0  0  0
  2  8  2  0  0  0  0
  3  6  1  0  0  0  0
  3 10  2  0  0  0  0
  4 11  2  0  0  0  0
  4 19  1  0  0  0  0
  5 12  1  0  0  0  0
  5 19  2  0  0  0  0
  6 20  2  0  0  0  0
  7 22  1  0  0  0  0
  8 24  1  0  0  0  0
  9 13  2  0  0  0  0
  9 23  1  0  0  0  0
 10 26  1  0  0  0  0
 11 27  1  0  0  0  0
 12 27  2  0  0  0  0
 13 28  1  0  0  0  0
 14 15  2  0  0  0  0
 14 29  1  0  0  0  0
 15 30  1  0  0  0  0
 16 20  1  0  0  0  0
 16 26  2  0  0  0  0
 17 25  1  0  0  0  0
 17 28  2  0  0  0  0
 18 30  2  0  0  0  0
 18 31  1  0  0  0  0
 19 32  1  0  0  0  0
 20 37  1  0  0  0  0
 21 32  1  0  0  0  0
 21 33  2  0  0  0  0
 21 38  1  0  0  0  0
 22 24  2  0  0  0  0
 22 43  1  0  0  0  0
 23 25  2  0  0  0  0
 23 44  1  0  0  0  0
 24 55  1  0  0  0  0
 25 45  1  0  0  0  0
 26 69  1  0  0  0  0
 27 85  1  0  0  0  0
 28 86  1  0  0  0  0
 29 31  2  0  0  0  0
 29 85  1  0  0  0  0
 30 87  1  0  0  0  0
 31 88  1  0  0  0  0
 32 67  2  0  0  0  0
 33 68  1  0  0  0  0
 33 72  1  0  0  0  0
 34 35  2  0  0  0  0
 34 69  1  0  0  0  0
 35 46  1  0  0  0  0
 35 63  1  0  0  0  0
 36 47  1  0  0  0  0
 36 48  1  0  0  0  0
 36 78  2  0  0  0  0
 37 74  1  0  0  0  0
 37 79  2  0  0  0  0
 38 73  1  0  0  0  0
 38 80  2  0  0  0  0
 39 56  1  0  0  0  0
 39 75  1  0  0  0  0
 39 81  2  0  0  0  0
 40 64  1  0  0  0  0
 40 70  1  0  0  0  0
 40 82  2  0  0  0  0
 41 65  1  0  0  0  0
 41 76  1  0  0  0  0
 41 83  2  0  0  0  0
 42 71  1  0  0  0  0
 42 74  1  0  0  0  0
 42 84  2  0  0  0  0
 43 49  1  0  0  0  0
 44 56  1  0  0  0  0
 45 70  1  0  0  0  0
 46 47  1  0  0  0  0
 48 69  1  0  0  0  0
 49 51  1  0  0  0  0
 50 52  1  0  0  0  0
 50 53  1  0  0  0  0
 51 55  1  0  0  0  0
 52 57  1  0  0  0  0
 53 71  1  0  0  0  0
 54 57  1  0  0  0  0
 54 71  1  0  0  0  0
 55 75  1  0  0  0  0
 56 70  1  0  0  0  0
 57 68  1  0  0  0  0
 58 65  1  0  0  0  0
 59 66  1  0  0  0  0
 60 66  1  0  0  0  0
 61 66  1  0  0  0  0
 62 77  1  0  0  0  0
 63 86  1  0  0  0  0
 64 66  1  0  0  0  0
 64 76  1  0  0  0  0
 65 77  1  0  0  0  0
 67 68  1  0  0  0  0
M  CHG  1  77   1
M  ISO  4  42 100  63 101  74 100  86 101
M  END
> <Batch ID>
0090

> <Smiles>
CNC(C)C(=O)NC(C(=O)N1Cc2cc([101O:1][101CH2:1]C3=CN(c4cccc(C(=O)[100NH:0][100C:0](=O)N5CCCC(n6nc(-c7ccc(Oc8ccc(F)cc8F)cc7)c(C(N)=O)c6N)C5)c4)CC(=O)CC3)ccc2CC1C(=O)NC1CCCc2ccccc21)C(C)(C)C

> <Shape>
0.210

> <Color>
0.076

> <Negative vol penalty>
0.000

$$$$

  -OEChem-04052300293D

 86 95  0     1  0  0  0  0  0999 V2000
  -26.0992  -35.4913   15.3876 C   0  0  0  0  0  0  0  0  0  0  0  0
  -26.2632  -34.1183   15.5405 C   0  0  0  0  0  0  0  0  0  0  0  0
  -24.8256   -8.4834   20.7685 C   0  0  0  0  0  0  0  0  0  0  0  0
  -23.3493  -10.3901   20.9171 C   0  0  0  0  0  0  0  0  0  0  0  0
  -26.2480  -36.3366   16.4864 C   0  0  0  0  0  0  0  0  0  0  0  0
  -26.5771  -33.5898   16.7921 C   0  0  0  0  0  0  0  0  0  0  0  0
  -24.7302  -28.2221   19.0904 C   0  0  0  0  0  0  0  0  0  0  0  0
  -23.7411   -7.6284   20.9645 C   0  0  0  0  0  0  0  0  0  0  0  0
  -22.2647   -9.5351   21.1130 C   0  0  0  0  0  0  0  0  0  0  0  0
  -25.3482  -26.9752   19.1743 C   0  0  0  0  0  0  0  0  0  0  0  0
  -21.1974   -6.3699   19.1264 C   0  0  0  0  0  0  0  0  0  0  0  0
  -21.0961   -5.2513   18.2994 C   0  0  0  0  0  0  0  0  0  0  0  0
  -26.0601  -27.4859   21.4219 C   0  0  0  0  0  0  0  0  0  0  0  0
  -28.9407  -18.3130   20.0202 C   0  0  0  0  0  0  0  0  0  0  0  0
  -29.6551  -18.8496   22.2649 C   0  0  0  0  0  0  0  0  0  0  0  0
  -21.2047   -3.8101   20.2354 C   0  0  0  0  0  0  0  0  0  0  0  0
  -24.6297   -9.8643   20.7449 C   0  0  0  0  0  0  0  0  0  0  0  0
  -26.2443  -11.2268   19.3151 C   0  0  0  0  0  0  0  0  0  0  0  0
  -26.5544  -35.8173   17.7541 C   0  0  0  0  0  0  0  0  0  0  0  0
  -24.7819  -29.1161   20.1695 C   0  0  0  0  0  0  0  0  0  0  0  0
  -26.7314  -34.4291   17.9086 C   0  0  0  0  0  0  0  0  0  0  0  0
  -25.4397  -28.7426   21.3501 C   0  0  0  0  0  0  0  0  0  0  0  0
  -28.9473  -19.6691   19.6939 C   0  0  0  0  0  0  0  0  0  0  0  0
  -29.3079  -20.6155   20.6530 C   0  0  0  0  0  0  0  0  0  0  0  0
  -29.2945  -17.9033   21.3057 C   0  0  0  0  0  0  0  0  0  0  0  0
  -22.4607   -8.1543   21.1367 C   0  0  0  0  0  0  0  0  0  0  0  0
  -26.0158  -26.6081   20.3391 C   0  0  0  0  0  0  0  0  0  0  0  0
  -21.3024   -6.2086   20.5079 C   0  0  0  0  0  0  0  0  0  0  0  0
  -21.0998   -3.9714   18.8538 C   0  0  0  0  0  0  0  0  0  0  0  0
  -29.6618  -20.2058   21.9386 C   0  0  0  0  0  0  0  0  0  0  0  0
  -21.3061   -4.9287   21.0624 C   0  0  0  0  0  0  0  0  0  0  0  0
  -25.7497  -10.7480   20.5431 C   0  0  0  0  0  0  0  0  0  0  0  0
  -27.3077  -12.0244   19.6607 C   0  0  0  0  0  0  0  0  0  0  0  0
  -28.6156  -24.1537   20.0689 C   0  0  0  0  0  0  0  0  0  0  0  0
  -30.0293  -24.0378   19.6442 C   0  0  0  0  0  0  0  0  0  0  0  0
  -27.9253  -25.2934   20.0294 C   0  0  0  0  0  0  0  0  0  1  0  0
  -25.7835  -10.9734   17.9812 C   0  0  0  0  0  0  0  0  0  0  0  0
  -25.9740  -32.0290   20.6140 C   0  0  0  0  0  0  0  0  0  0  0  0
  -24.5014  -31.7687   23.4926 C   0  0  0  0  0  0  0  0  0  0  0  0
  -23.2575  -29.7385   25.9375 C   0  0  0  0  0  0  0  0  0  0  0  0
  -29.6120  -15.9511   22.8661 C   0  0  0  0  0  0  0  0  0  0  0  0
  -26.7520  -36.7749   18.9025 C   0  0  0  0  0  0  0  0  0  0  0  0
  -24.0873  -30.4468   20.0729 C   0  0  0  0  0  0  0  0  0  0  0  0
  -25.5067  -29.6579   22.5443 C   0  0  0  0  0  0  0  0  0  0  0  0
  -28.1518  -22.8092   20.5236 C   0  0  0  0  0  0  0  0  0  0  0  0
  -30.4975  -22.6218   19.8169 C   0  0  0  0  0  0  0  0  0  0  0  0
  -26.7161  -36.1001   20.2713 C   0  0  0  0  0  0  0  0  0  0  0  0
  -29.6831  -12.6091   24.0922 C   0  0  0  0  0  0  0  0  0  0  0  0
  -27.5750  -34.8395   20.2678 C   0  0  0  0  0  0  0  0  0  0  0  0
  -28.7068  -11.8664   23.1771 C   0  0  0  0  0  0  0  0  0  0  0  0
  -29.2104  -14.0307   24.3911 C   0  0  0  0  0  0  0  0  0  0  0  0
  -27.9208  -14.0998   22.2932 C   0  0  0  0  0  0  0  0  0  0  0  0
  -27.0478  -33.8156   19.2553 C   0  0  1  0  0  0  0  0  0  0  0  0
  -24.6425  -31.4826   21.0456 C   0  0  1  0  0  0  0  0  0  0  0  0
  -28.3869  -12.6854   21.9112 C   0  0  2  0  0  0  0  0  0  0  0  0
  -28.5635  -20.0800   18.3095 C   0  0  0  0  0  0  0  0  0  0  0  0
  -22.1494  -29.8159   28.1877 C   0  0  0  0  0  0  0  0  0  0  0  0
  -27.1776  -32.4620   24.7838 C   0  0  0  0  0  0  0  0  0  0  0  0
  -26.2724  -31.6060   26.9555 C   0  0  0  0  0  0  0  0  0  0  0  0
  -25.1942  -33.5596   25.8402 C   0  0  0  0  0  0  0  0  0  0  0  0
  -20.8471  -28.3499   24.9272 C   0  0  0  0  0  0  0  0  0  0  0  0
  -24.8987  -31.2506   24.8537 C   0  0  1  0  0  0  0  0  0  0  0  0
  -21.9354  -29.7536   26.6834 C   0  0  2  0  0  0  0  0  0  0  0  0
  -25.8863  -32.2028   25.5853 C   0  0  0  0  0  0  0  0  0  0  0  0
  -26.4422  -11.2032   21.5906 N   0  0  0  0  0  0  0  0  0  0  0  0
  -27.3828  -11.9763   21.0217 N   0  0  0  0  0  0  0  0  0  0  0  0
  -29.3191  -21.9395   20.3500 N   0  0  3  0  0  0  0  0  0  0  0  0
  -24.8175  -30.9507   22.3986 N   0  0  0  0  0  0  0  0  0  0  0  0
  -28.9306  -14.7475   23.1450 N   0  0  0  0  0  0  0  0  0  0  0  0
  -28.1766  -12.7549   18.9302 N   0  0  0  0  0  0  0  0  0  0  0  0
  -24.6779  -10.1302   17.8052 N   0  0  0  0  0  0  0  0  0  0  0  0
  -29.2879  -16.5257   21.6375 N   0  0  0  0  0  0  0  0  0  0  0  0
  -25.8879  -33.1316   19.7855 N   0  0  0  0  0  0  0  0  0  0  0  0
  -23.6552  -31.0087   25.5773 N   0  0  0  0  0  0  0  0  0  0  0  0
  -21.1504  -28.5260   26.3708 N   0  3  0  0  0  0  0  0  0  0  0  0
  -30.7128  -24.9544   19.2169 O   0  0  0  0  0  0  0  0  0  0  0  0
  -26.3459  -11.4667   16.9743 O   0  0  0  0  0  0  0  0  0  0  0  0
  -27.0033  -31.4911   21.0049 O   0  0  0  0  0  0  0  0  0  0  0  0
  -23.9253  -32.8559   23.4039 O   0  0  0  0  0  0  0  0  0  0  0  0
  -23.8774  -28.7038   25.7015 O   0  0  0  0  0  0  0  0  0  0  0  0
  -30.4433  -16.4221   23.6465 O   0  0  0  0  0  0  0  0  0  0  0  0
  -21.4021   -7.3202   21.3277 O   0  0  0  0  0  0  0  0  0  0  0  0
  -26.6204  -25.3919   20.4234 O   0  0  0  0  0  0  0  0  0  1  0  0
  -21.0009   -2.8973   18.0597 F   0  0  0  0  0  0  0  0  0  0  0  0
  -30.0106  -21.1061   22.8688 F   0  0  0  0  0  0  0  0  0  0  0  0
  -21.4055   -4.7676   22.3891 F   0  0  0  0  0  0  0  0  0  0  0  0
  1  2  1  0  0  0  0
  1  5  2  0  0  0  0
  2  6  2  0  0  0  0
  3  8  2  0  0  0  0
  3 17  1  0  0  0  0
  4  9  1  0  0  0  0
  4 17  2  0  0  0  0
  5 19  1  0  0  0  0
  6 21  1  0  0  0  0
  7 10  2  0  0  0  0
  7 20  1  0  0  0  0
  8 26  1  0  0  0  0
  9 26  2  0  0  0  0
 10 27  1  0  0  0  0
 11 12  2  0  0  0  0
 11 28  1  0  0  0  0
 12 29  1  0  0  0  0
 13 22  1  0  0  0  0
 13 27  2  0  0  0  0
 14 23  2  0  0  0  0
 14 25  1  0  0  0  0
 15 25  2  0  0  0  0
 15 30  1  0  0  0  0
 16 29  2  0  0  0  0
 16 31  1  0  0  0  0
 17 32  1  0  0  0  0
 18 32  1  0  0  0  0
 18 33  2  0  0  0  0
 18 37  1  0  0  0  0
 19 21  2  0  0  0  0
 19 42  1  0  0  0  0
 20 22  2  0  0  0  0
 20 43  1  0  0  0  0
 21 53  1  0  0  0  0
 22 44  1  0  0  0  0
 23 24  1  0  0  0  0
 23 56  1  0  0  0  0
 24 30  2  0  0  0  0
 24 67  1  0  0  0  0
 25 72  1  0  0  0  0
 26 82  1  0  0  0  0
 27 83  1  0  0  0  0
 28 31  2  0  0  0  0
 28 82  1  0  0  0  0
 29 84  1  0  0  0  0
 30 85  1  0  0  0  0
 31 86  1  0  0  0  0
 32 65  2  0  0  0  0
 33 66  1  0  0  0  0
 33 70  1  0  0  0  0
 34 35  1  0  0  0  0
 34 36  2  0  0  0  0
 34 45  1  0  0  0  0
 35 46  1  0  0  0  0
 35 76  2  0  0  0  0
 36 83  1  0  0  0  0
 37 71  1  0  0  0  0
 37 77  2  0  0  0  0
 38 54  1  0  0  0  0
 38 73  1  0  0  0  0
 38 78  2  0  0  0  0
 39 62  1  0  0  0  0
 39 68  1  0  0  0  0
 39 79  2  0  0  0  0
 40 63  1  0  0  0  0
 40 74  1  0  0  0  0
 40 80  2  0  0  0  0
 41 69  1  0  0  0  0
 41 72  1  0  0  0  0
 41 81  2  0  0  0  0
 42 47  1  0  0  0  0
 43 54  1  0  0  0  0
 44 68  1  0  0  0  0
 45 67  1  0  0  0  0
 46 67  1  0  0  0  0
 47 49  1  0  0  0  0
 48 50  1  0  0  0  0
 48 51  1  0  0  0  0
 49 53  1  0  0  0  0
 50 55  1  0  0  0  0
 51 69  1  0  0  0  0
 52 55  1  0  0  0  0
 52 69  1  0  0  0  0
 53 73  1  0  0  0  0
 54 68  1  0  0  0  0
 55 66  1  0  0  0  0
 57 63  1  0  0  0  0
 58 64  1  0  0  0  0
 59 64  1  0  0  0  0
 60 64  1  0  0  0  0
 61 75  1  0  0  0  0
 62 64  1  0  0  0  0
 62 74  1  0  0  0  0
 63 75  1  0  0  0  0
 65 66  1  0  0  0  0
M  CHG  1  75   1
M  ISO  4  36 101  41 100  72 100  83 101
M  END
> <Batch ID>
0090

> <Smiles>
CNC(C)C(=O)NC(C(=O)N1Cc2cc([101O:1][101CH:1]=C3CN(c4c(C)cc([100NH:0][100C:0](=O)N5CCCC(n6nc(-c7ccc(Oc8ccc(F)cc8F)cc7)c(C(N)=O)c6N)C5)cc4F)CC3=O)ccc2CC1C(=O)NC1CCCc2ccccc21)C(C)(C)C

> <Shape>
0.271

> <Color>
0.094

> <Negative vol penalty>
0.000

$$$$

  -OEChem-04052300293D

 84 92  0     1  0  0  0  0  0999 V2000
  -21.3450  -30.5733   14.4951 C   0  0  0  0  0  0  0  0  0  0  0  0
  -22.5418  -30.0852   15.0097 C   0  0  0  0  0  0  0  0  0  0  0  0
  -23.9661   -9.6591   21.9455 C   0  0  0  0  0  0  0  0  0  0  0  0
  -24.6504  -11.0868   23.7704 C   0  0  0  0  0  0  0  0  0  0  0  0
  -31.0727  -19.9716   19.6413 C   0  0  0  0  0  0  0  0  0  0  0  0
  -20.8005  -31.7535   14.9995 C   0  0  0  0  0  0  0  0  0  0  0  0
  -23.1954  -30.7777   16.0284 C   0  0  0  0  0  0  0  0  0  0  0  0
  -24.8375  -27.7179   19.7143 C   0  0  0  0  0  0  0  0  0  0  0  0
  -30.7594  -18.6300   19.4237 C   0  0  0  0  0  0  0  0  0  0  0  0
  -23.5545   -8.6887   22.8589 C   0  0  0  0  0  0  0  0  0  0  0  0
  -24.2388  -10.1164   24.6839 C   0  0  0  0  0  0  0  0  0  0  0  0
  -26.0032  -26.9937   19.4686 C   0  0  0  0  0  0  0  0  0  0  0  0
  -20.9003   -8.1362   24.8795 C   0  0  0  0  0  0  0  0  0  0  0  0
  -19.6638   -7.5273   24.6654 C   0  0  0  0  0  0  0  0  0  0  0  0
  -28.7309  -20.4647   19.9728 C   0  0  0  0  0  0  0  0  0  0  0  0
  -27.2653  -28.6027   20.7481 C   0  0  0  0  0  0  0  0  0  0  0  0
  -20.7510   -5.3757   24.5049 C   0  0  0  0  0  0  0  0  0  0  0  0
  -24.5141  -10.8582   22.4012 C   0  0  0  0  0  0  0  0  0  0  0  0
  -30.0584  -20.8890   19.9159 C   0  0  0  0  0  0  0  0  0  0  0  0
  -24.1675  -12.9107   20.9266 C   0  0  0  0  0  0  0  0  0  0  0  0
  -21.4427  -32.4557   16.0316 C   0  0  0  0  0  0  0  0  0  0  0  0
  -24.8787  -28.8978   20.4709 C   0  0  0  0  0  0  0  0  0  0  0  0
  -22.6596  -31.9692   16.5462 C   0  0  0  0  0  0  0  0  0  0  0  0
  -26.0983  -29.3386   21.0042 C   0  0  0  0  0  0  0  0  0  0  0  0
  -29.4319  -18.2056   19.4805 C   0  0  0  0  0  0  0  0  0  0  0  0
  -23.6908   -8.9173   24.2282 C   0  0  0  0  0  0  0  0  0  0  0  0
  -27.2178  -27.4376   19.9831 C   0  0  0  0  0  0  0  0  0  0  0  0
  -22.0622   -7.3649   24.9063 C   0  0  0  0  0  0  0  0  0  0  0  0
  -19.5891   -6.1471   24.4781 C   0  0  0  0  0  0  0  0  0  0  0  0
  -28.4176  -19.1230   19.7551 C   0  0  0  0  0  0  0  0  0  0  0  0
  -21.9876   -5.9846   24.7190 C   0  0  0  0  0  0  0  0  0  0  0  0
  -24.9401  -11.8608   21.4581 C   0  0  0  0  0  0  0  0  0  0  0  0
  -25.0252  -13.5764   20.0854 C   0  0  0  0  0  0  0  0  0  0  0  0
  -30.3921  -22.3175   20.1475 C   0  0  0  0  0  0  0  0  0  0  0  0
  -22.7971  -13.2538   21.1716 C   0  0  0  0  0  0  0  0  0  0  0  0
  -24.2044  -31.9517   19.9027 C   0  0  0  0  0  0  0  0  0  0  0  0
  -24.7736  -32.2646   23.0808 C   0  0  0  0  0  0  0  0  0  0  0  0
  -29.4895  -24.6115   20.0116 C   0  0  0  0  0  0  0  0  0  0  0  0
  -26.3024  -31.0573   25.8830 C   0  0  0  0  0  0  0  0  0  0  0  0
  -30.0051  -15.8054   18.9739 C   0  0  0  0  0  0  0  0  0  0  0  0
  -20.8401  -33.7521   16.5120 C   0  0  0  0  0  0  0  0  0  0  0  0
  -23.6082  -29.6531   20.7495 C   0  0  0  0  0  0  0  0  0  0  0  0
  -26.1931  -30.5881   21.8398 C   0  0  0  0  0  0  0  0  0  0  0  0
  -21.4024  -34.2265   17.8495 C   0  0  0  0  0  0  0  0  0  0  0  0
  -29.6273  -12.3120   18.3991 C   0  0  0  0  0  0  0  0  0  0  0  0
  -22.9247  -34.1296   17.8530 C   0  0  0  0  0  0  0  0  0  0  0  0
  -28.3106  -11.9695   19.0999 C   0  0  0  0  0  0  0  0  0  0  0  0
  -30.4232  -13.3637   19.1698 C   0  0  0  0  0  0  0  0  0  0  0  0
  -28.3647  -14.2461   20.1959 C   0  0  0  0  0  0  0  0  0  0  0  0
  -23.3856  -32.6787   17.6685 C   0  0  1  0  0  0  0  0  0  0  0  0
  -23.8487  -31.1180   21.1011 C   0  0  1  0  0  0  0  0  0  0  0  0
  -27.4978  -13.2385   19.4234 C   0  0  2  0  0  0  0  0  0  0  0  0
  -26.6142  -31.5492   28.3239 C   0  0  0  0  0  0  0  0  0  0  0  0
  -26.7648  -34.4678   22.3800 C   0  0  0  0  0  0  0  0  0  0  0  0
  -27.7095  -34.2522   24.6885 C   0  0  0  0  0  0  0  0  0  0  0  0
  -25.3351  -34.9496   24.3745 C   0  0  0  0  0  0  0  0  0  0  0  0
  -25.0225  -28.5103   26.6786 C   0  0  0  0  0  0  0  0  0  0  0  0
  -28.2252  -25.3220   19.5761 C   0  0  0  0  0  0  0  0  0  1  0  0
  -25.9917  -32.5497   23.9257 C   0  0  1  0  0  0  0  0  0  0  0  0
  -25.7818  -30.8106   27.2874 C   0  0  2  0  0  0  0  0  0  0  0  0
  -26.4491  -34.0323   23.8249 C   0  0  0  0  0  0  0  0  0  0  0  0
  -26.1922  -11.8555   20.9933 N   0  0  0  0  0  0  0  0  0  0  0  0
  -26.2130  -12.9104   20.1609 N   0  0  0  0  0  0  0  0  0  0  0  0
  -24.9241  -31.2953   22.0790 N   0  0  0  0  0  0  0  0  0  0  0  0
  -29.5906  -14.5386   19.4367 N   0  0  0  0  0  0  0  0  0  0  0  0
  -24.8716  -14.6606   19.2958 N   0  0  0  0  0  0  0  0  0  0  0  0
  -22.0600  -12.4641   22.0647 N   0  0  0  0  0  0  0  0  0  0  0  0
  -29.1169  -16.8421   19.2584 N   0  0  0  0  0  0  0  0  0  0  0  0
  -29.3857  -23.2305   19.8371 N   0  0  0  0  0  0  0  0  0  0  0  0
  -23.2465  -31.9428   18.9068 N   0  0  0  0  0  0  0  0  0  0  0  0
  -25.6600  -32.1175   25.2791 N   0  0  0  0  0  0  0  0  0  0  0  0
  -25.8190  -29.3551   27.6053 N   0  3  0  0  0  0  0  0  0  0  0  0
  -31.4918  -22.6071   20.6110 O   0  0  0  0  0  0  0  0  0  0  0  0
  -22.2379  -14.2217   20.6024 O   0  0  0  0  0  0  0  0  0  0  0  0
  -25.2685  -32.5592   19.8836 O   0  0  0  0  0  0  0  0  0  0  0  0
  -23.7252  -32.8742   23.3062 O   0  0  0  0  0  0  0  0  0  0  0  0
  -30.4669  -25.2070   20.4562 O   0  0  0  0  0  0  0  0  0  0  0  0
  -27.1927  -30.3799   25.3740 O   0  0  0  0  0  0  0  0  0  0  0  0
  -31.0564  -15.9548   18.3459 O   0  0  0  0  0  0  0  0  0  0  0  0
  -23.2890   -7.9707   25.1198 O   0  0  0  0  0  0  0  0  0  0  0  0
  -28.3573  -26.7330   19.7442 O   0  0  0  0  0  0  0  0  0  1  0  0
  -18.4014   -5.5624   24.2739 F   0  0  0  0  0  0  0  0  0  0  0  0
  -27.1378  -18.7268   19.8117 F   0  0  0  0  0  0  0  0  0  0  0  0
  -23.1002   -5.2382   24.7449 F   0  0  0  0  0  0  0  0  0  0  0  0
  1  2  1  0  0  0  0
  1  6  2  0  0  0  0
  2  7  2  0  0  0  0
  3 10  2  0  0  0  0
  3 18  1  0  0  0  0
  4 11  1  0  0  0  0
  4 18  2  0  0  0  0
  5  9  2  0  0  0  0
  5 19  1  0  0  0  0
  6 21  1  0  0  0  0
  7 23  1  0  0  0  0
  8 12  2  0  0  0  0
  8 22  1  0  0  0  0
  9 25  1  0  0  0  0
 10 26  1  0  0  0  0
 11 26  2  0  0  0  0
 12 27  1  0  0  0  0
 13 14  2  0  0  0  0
 13 28  1  0  0  0  0
 14 29  1  0  0  0  0
 15 19  2  0  0  0  0
 15 30  1  0  0  0  0
 16 24  1  0  0  0  0
 16 27  2  0  0  0  0
 17 29  2  0  0  0  0
 17 31  1  0  0  0  0
 18 32  1  0  0  0  0
 19 34  1  0  0  0  0
 20 32  1  0  0  0  0
 20 33  2  0  0  0  0
 20 35  1  0  0  0  0
 21 23  2  0  0  0  0
 21 41  1  0  0  0  0
 22 24  2  0  0  0  0
 22 42  1  0  0  0  0
 23 50  1  0  0  0  0
 24 43  1  0  0  0  0
 25 30  2  0  0  0  0
 25 68  1  0  0  0  0
 26 80  1  0  0  0  0
 27 81  1  0  0  0  0
 28 31  2  0  0  0  0
 28 80  1  0  0  0  0
 29 82  1  0  0  0  0
 30 83  1  0  0  0  0
 31 84  1  0  0  0  0
 32 62  2  0  0  0  0
 33 63  1  0  0  0  0
 33 66  1  0  0  0  0
 34 69  1  0  0  0  0
 34 73  2  0  0  0  0
 35 67  1  0  0  0  0
 35 74  2  0  0  0  0
 36 51  1  0  0  0  0
 36 70  1  0  0  0  0
 36 75  2  0  0  0  0
 37 59  1  0  0  0  0
 37 64  1  0  0  0  0
 37 76  2  0  0  0  0
 38 58  1  0  0  0  0
 38 69  1  0  0  0  0
 38 77  2  0  0  0  0
 39 60  1  0  0  0  0
 39 71  1  0  0  0  0
 39 78  2  0  0  0  0
 40 65  1  0  0  0  0
 40 68  1  0  0  0  0
 40 79  2  0  0  0  0
 41 44  1  0  0  0  0
 42 51  1  0  0  0  0
 43 64  1  0  0  0  0
 44 46  1  0  0  0  0
 45 47  1  0  0  0  0
 45 48  1  0  0  0  0
 46 50  1  0  0  0  0
 47 52  1  0  0  0  0
 48 65  1  0  0  0  0
 49 52  1  0  0  0  0
 49 65  1  0  0  0  0
 50 70  1  0  0  0  0
 51 64  1  0  0  0  0
 52 63  1  0  0  0  0
 53 60  1  0  0  0  0
 54 61  1  0  0  0  0
 55 61  1  0  0  0  0
 56 61  1  0  0  0  0
 57 72  1  0  0  0  0
 58 81  1  0  0  0  0
 59 61  1  0  0  0  0
 59 71  1  0  0  0  0
 60 72  1  0  0  0  0
 62 63  1  0  0  0  0
M  CHG  1  72   1
M  ISO  4  40 100  58 101  68 100  81 101
M  END
> <Batch ID>
0090

> <Smiles>
CNC(C)C(=O)NC(C(=O)N1Cc2cc([101O:1][101CH2:1]C(=O)NC(=O)c3ccc([100NH:0][100C:0](=O)N4CCCC(n5nc(-c6ccc(Oc7ccc(F)cc7F)cc6)c(C(N)=O)c5N)C4)c(F)c3)ccc2CC1C(=O)NC1CCCc2ccccc21)C(C)(C)C

> <Shape>
0.333

> <Color>
0.168

> <Negative vol penalty>
0.000

$$$$

  -OEChem-04052300293D

 89 98  0     1  0  0  0  0  0999 V2000
  -29.1537  -11.4507   18.8392 C   0  0  0  0  0  0  0  0  0  0  0  0
  -27.8904  -12.0328   18.8605 C   0  0  0  0  0  0  0  0  0  0  0  0
  -26.2057  -27.8774   22.8452 C   0  0  0  0  0  0  0  0  0  0  0  0
  -26.9169  -27.4742   20.5717 C   0  0  0  0  0  0  0  0  0  0  0  0
  -30.2134  -12.0628   19.5073 C   0  0  0  0  0  0  0  0  0  0  0  0
  -27.6857  -13.2269   19.5509 C   0  0  0  0  0  0  0  0  0  0  0  0
  -23.7852  -19.2297   19.2881 C   0  0  0  0  0  0  0  0  0  0  0  0
  -19.9898  -26.9074   23.8437 C   0  0  0  0  0  0  0  0  0  0  0  0
  -19.8424  -28.2754   23.6147 C   0  0  0  0  0  0  0  0  0  0  0  0
  -26.9214  -26.7573   23.2678 C   0  0  0  0  0  0  0  0  0  0  0  0
  -27.6326  -26.3540   20.9943 C   0  0  0  0  0  0  0  0  0  0  0  0
  -22.9402  -20.0009   20.0850 C   0  0  0  0  0  0  0  0  0  0  0  0
  -30.1392  -25.9647   23.9389 C   0  0  0  0  0  0  0  0  0  0  0  0
  -30.9205  -26.0901   25.0876 C   0  0  0  0  0  0  0  0  0  0  0  0
  -24.8627  -21.0095   21.1367 C   0  0  0  0  0  0  0  0  0  0  0  0
  -29.6394  -24.3388   26.1501 C   0  0  0  0  0  0  0  0  0  0  0  0
  -26.2034  -28.2359   21.4971 C   0  0  0  0  0  0  0  0  0  0  0  0
  -25.9318  -30.7173   20.9712 C   0  0  0  0  0  0  0  0  0  0  0  0
  -30.0238  -13.2700   20.1982 C   0  0  0  0  0  0  0  0  0  0  0  0
  -25.1775  -19.3348   19.4173 C   0  0  0  0  0  0  0  0  0  0  0  0
  -28.7435  -13.8551   20.2300 C   0  0  0  0  0  0  0  0  0  0  0  0
  -25.7231  -20.2403   20.3384 C   0  0  0  0  0  0  0  0  0  0  0  0
  -19.5354  -25.9888   22.8974 C   0  0  0  0  0  0  0  0  0  0  0  0
  -19.2405  -28.7249   22.4394 C   0  0  0  0  0  0  0  0  0  0  0  0
  -18.9335  -26.4383   21.7221 C   0  0  0  0  0  0  0  0  0  0  0  0
  -27.6349  -25.9956   22.3424 C   0  0  0  0  0  0  0  0  0  0  0  0
  -23.4790  -20.8889   21.0115 C   0  0  0  0  0  0  0  0  0  0  0  0
  -29.1079  -25.0264   23.8959 C   0  0  0  0  0  0  0  0  0  0  0  0
  -30.6706  -25.2771   26.1932 C   0  0  0  0  0  0  0  0  0  0  0  0
  -28.8580  -24.2135   25.0014 C   0  0  0  0  0  0  0  0  0  0  0  0
  -18.7860  -27.8063   21.4931 C   0  0  0  0  0  0  0  0  0  0  0  0
  -25.4637  -29.3925   21.0599 C   0  0  0  0  0  0  0  0  0  0  0  0
  -24.8546  -31.4316   20.5066 C   0  0  0  0  0  0  0  0  0  0  0  0
  -19.9028  -21.8593   23.6566 C   0  0  0  0  0  0  0  0  0  0  0  0
  -19.1036  -24.0404   24.2741 C   0  0  0  0  0  0  0  0  0  0  0  0
  -20.5084  -22.3353   22.5603 C   0  0  0  0  0  0  0  0  0  0  0  0
  -19.1908  -22.7344   24.5427 C   0  0  0  0  0  0  0  0  0  0  0  0
  -20.4590  -23.8140   22.2633 C   0  0  0  0  0  0  0  0  0  0  0  0
  -27.2247  -31.2540   21.2809 C   0  0  0  0  0  0  0  0  0  0  0  0
  -27.5113  -17.3385   20.2372 C   0  0  0  0  0  0  0  0  0  0  0  0
  -29.4094  -19.8334   19.4035 C   0  0  0  0  0  0  0  0  0  0  0  0
  -29.7409  -23.2015   18.9647 C   0  0  0  0  0  0  0  0  0  0  0  0
  -19.0937  -30.6723   20.8976 C   0  0  0  0  0  0  0  0  0  0  0  0
  -31.1888  -13.8697   20.9451 C   0  0  0  0  0  0  0  0  0  0  0  0
  -26.0754  -18.5154   18.5315 C   0  0  0  0  0  0  0  0  0  0  0  0
  -27.2113  -20.4055   20.5018 C   0  0  0  0  0  0  0  0  0  0  0  0
  -30.9733  -15.3285   21.3399 C   0  0  0  0  0  0  0  0  0  0  0  0
  -20.9084  -30.9711   17.8545 C   0  0  0  0  0  0  0  0  0  0  0  0
  -29.5894  -15.5167   21.9532 C   0  0  0  0  0  0  0  0  0  0  0  0
  -22.3389  -30.7158   18.3280 C   0  0  0  0  0  0  0  0  0  0  0  0
  -19.9012  -30.0627   18.5603 C   0  0  0  0  0  0  0  0  0  0  0  0
  -21.4085  -29.8597   20.5125 C   0  0  0  0  0  0  0  0  0  0  0  0
  -28.4874  -15.1628   20.9473 C   0  0  1  0  0  0  0  0  0  0  0  0
  -27.4755  -18.3293   19.1081 C   0  0  1  0  0  0  0  0  0  0  0  0
  -22.4361  -30.7986   19.8616 C   0  0  1  0  0  0  0  0  0  0  0  0
  -30.8221  -25.3689   18.3085 C   0  0  0  0  0  0  0  0  0  0  0  0
  -30.7178  -19.5934   22.1495 C   0  0  0  0  0  0  0  0  0  0  0  0
  -31.6758  -21.8824   21.8159 C   0  0  0  0  0  0  0  0  0  0  0  0
  -32.3092  -20.0297   20.2702 C   0  0  0  0  0  0  0  0  0  0  0  0
  -18.6856  -30.9968   23.3273 C   0  0  0  0  0  0  0  0  0  0  0  0
  -28.7341  -22.9973   16.1891 C   0  0  0  0  0  0  0  0  0  0  0  0
  -21.2517  -21.4724   21.6071 C   0  0  0  0  0  0  0  0  0  1  0  0
  -29.9892  -21.0243   20.1277 C   0  0  1  0  0  0  0  0  0  0  0  0
  -30.3239  -24.0162   17.8241 C   0  0  2  0  0  0  0  0  0  0  0  0
  -31.1449  -20.6282   21.0894 C   0  0  0  0  0  0  0  0  0  0  0  0
  -24.1885  -29.2699   20.6822 N   0  0  0  0  0  0  0  0  0  0  0  0
  -23.8460  -30.5267   20.3517 N   0  0  0  0  0  0  0  0  0  0  0  0
  -19.6951  -24.6168   23.1506 N   0  0  0  0  0  0  0  0  0  0  0  0
  -28.0476  -19.5775   19.6171 N   0  0  0  0  0  0  0  0  0  0  0  0
  -20.0588  -30.1445   20.0193 N   0  0  0  0  0  0  0  0  0  0  0  0
  -18.4656  -25.5230   20.7526 N   0  0  0  0  0  0  0  0  0  0  0  0
  -24.6812  -32.7393   20.2196 N   0  0  0  0  0  0  0  0  0  0  0  0
  -28.2167  -30.3805   21.7470 N   0  0  0  0  0  0  0  0  0  0  0  0
  -28.3093  -16.2370   19.9939 N   0  0  0  0  0  0  0  0  0  0  0  0
  -30.3719  -21.9826   19.0964 N   0  0  0  0  0  0  0  0  0  0  0  0
  -19.0887  -30.1418   22.2056 N   0  0  0  0  0  0  0  0  0  0  0  0
  -29.2942  -24.2441   16.7712 N   0  3  0  0  0  0  0  0  0  0  0  0
  -21.0514  -24.2554   21.2769 O   0  0  0  0  0  0  0  0  0  0  0  0
  -27.4875  -32.4750   21.1639 O   0  0  0  0  0  0  0  0  0  0  0  0
  -26.8640  -17.5579   21.2543 O   0  0  0  0  0  0  0  0  0  0  0  0
  -30.1364  -19.1593   18.6695 O   0  0  0  0  0  0  0  0  0  0  0  0
  -28.8204  -23.6075   19.6707 O   0  0  0  0  0  0  0  0  0  0  0  0
  -18.3141  -31.5669   20.5485 O   0  0  0  0  0  0  0  0  0  0  0  0
  -18.6202  -22.1349   25.6389 O   0  0  0  0  0  0  0  0  0  0  0  0
  -28.3336  -24.9026   22.7545 O   0  0  0  0  0  0  0  0  0  0  0  0
  -22.6565  -21.6423   21.7911 O   0  0  0  0  0  0  0  0  0  1  0  0
  -31.4220  -25.3965   27.2956 F   0  0  0  0  0  0  0  0  0  0  0  0
  -27.8694  -23.3095   24.9656 F   0  0  0  0  0  0  0  0  0  0  0  0
  -18.2057  -28.2394   20.3632 F   0  0  0  0  0  0  0  0  0  0  0  0
  1  2  1  0  0  0  0
  1  5  2  0  0  0  0
  2  6  2  0  0  0  0
  3 10  2  0  0  0  0
  3 17  1  0  0  0  0
  4 11  1  0  0  0  0
  4 17  2  0  0  0  0
  5 19  1  0  0  0  0
  6 21  1  0  0  0  0
  7 12  2  0  0  0  0
  7 20  1  0  0  0  0
  8  9  2  0  0  0  0
  8 23  1  0  0  0  0
  9 24  1  0  0  0  0
 10 26  1  0  0  0  0
 11 26  2  0  0  0  0
 12 27  1  0  0  0  0
 13 14  2  0  0  0  0
 13 28  1  0  0  0  0
 14 29  1  0  0  0  0
 15 22  1  0  0  0  0
 15 27  2  0  0  0  0
 16 29  2  0  0  0  0
 16 30  1  0  0  0  0
 17 32  1  0  0  0  0
 18 32  1  0  0  0  0
 18 33  2  0  0  0  0
 18 39  1  0  0  0  0
 19 21  2  0  0  0  0
 19 44  1  0  0  0  0
 20 22  2  0  0  0  0
 20 45  1  0  0  0  0
 21 53  1  0  0  0  0
 22 46  1  0  0  0  0
 23 25  2  0  0  0  0
 23 68  1  0  0  0  0
 24 31  2  0  0  0  0
 24 76  1  0  0  0  0
 25 31  1  0  0  0  0
 25 71  1  0  0  0  0
 26 85  1  0  0  0  0
 27 86  1  0  0  0  0
 28 30  2  0  0  0  0
 28 85  1  0  0  0  0
 29 87  1  0  0  0  0
 30 88  1  0  0  0  0
 31 89  1  0  0  0  0
 32 66  2  0  0  0  0
 33 67  1  0  0  0  0
 33 72  1  0  0  0  0
 34 36  2  0  0  0  0
 34 37  1  0  0  0  0
 35 37  2  0  0  0  0
 35 68  1  0  0  0  0
 36 38  1  0  0  0  0
 36 62  1  0  0  0  0
 37 84  1  0  0  0  0
 38 68  1  0  0  0  0
 38 78  2  0  0  0  0
 39 73  1  0  0  0  0
 39 79  2  0  0  0  0
 40 54  1  0  0  0  0
 40 74  1  0  0  0  0
 40 80  2  0  0  0  0
 41 63  1  0  0  0  0
 41 69  1  0  0  0  0
 41 81  2  0  0  0  0
 42 64  1  0  0  0  0
 42 75  1  0  0  0  0
 42 82  2  0  0  0  0
 43 70  1  0  0  0  0
 43 76  1  0  0  0  0
 43 83  2  0  0  0  0
 44 47  1  0  0  0  0
 45 54  1  0  0  0  0
 46 69  1  0  0  0  0
 47 49  1  0  0  0  0
 48 50  1  0  0  0  0
 48 51  1  0  0  0  0
 49 53  1  0  0  0  0
 50 55  1  0  0  0  0
 51 70  1  0  0  0  0
 52 55  1  0  0  0  0
 52 70  1  0  0  0  0
 53 74  1  0  0  0  0
 54 69  1  0  0  0  0
 55 67  1  0  0  0  0
 56 64  1  0  0  0  0
 57 65  1  0  0  0  0
 58 65  1  0  0  0  0
 59 65  1  0  0  0  0
 60 76  1  0  0  0  0
 61 77  1  0  0  0  0
 62 86  1  0  0  0  0
 63 65  1  0  0  0  0
 63 75  1  0  0  0  0
 64 77  1  0  0  0  0
 66 67  1  0  0  0  0
M  CHG  1  77   1
M  ISO  4  43 100  62 101  76 100  86 101
M  END
> <Batch ID>
0090

> <Smiles>
CNC(C)C(=O)NC(C(=O)N1Cc2cc([101O:1][101CH2:1]C3=CC(=O)CN(c4ccc([100N:0](C)[100C:0](=O)N5CCCC(n6nc(-c7ccc(Oc8ccc(F)cc8F)cc7)c(C(N)=O)c6N)C5)c(F)c4N)C3=O)ccc2CC1C(=O)NC1CCCc2ccccc21)C(C)(C)C

> <Shape>
0.232

> <Color>
0.057

> <Negative vol penalty>
0.000

$$$$

  -OEChem-04052300293D

 75 82  0     1  0  0  0  0  0999 V2000
  -23.8791  -31.9228   24.3410 C   0  0  0  0  0  0  0  0  0  0  0  0
  -23.9760  -30.5739   24.6670 C   0  0  0  0  0  0  0  0  0  0  0  0
  -24.9567  -13.1244   23.9282 C   0  0  0  0  0  0  0  0  0  0  0  0
  -24.2326  -15.1015   22.7433 C   0  0  0  0  0  0  0  0  0  0  0  0
  -24.1100  -32.3406   23.0310 C   0  0  0  0  0  0  0  0  0  0  0  0
  -24.3029  -29.6417   23.6828 C   0  0  0  0  0  0  0  0  0  0  0  0
  -27.7771  -23.4393   22.8014 C   0  0  0  0  0  0  0  0  0  0  0  0
  -24.6358  -13.7338   25.1411 C   0  0  0  0  0  0  0  0  0  0  0  0
  -23.9116  -15.7109   23.9563 C   0  0  0  0  0  0  0  0  0  0  0  0
  -27.5845  -22.1620   22.2768 C   0  0  0  0  0  0  0  0  0  0  0  0
  -21.3967  -15.5962   26.2108 C   0  0  0  0  0  0  0  0  0  0  0  0
  -20.1765  -16.2667   26.2946 C   0  0  0  0  0  0  0  0  0  0  0  0
  -28.0395  -23.0088   20.0642 C   0  0  0  0  0  0  0  0  0  0  0  0
  -21.3405  -18.3219   26.8025 C   0  0  0  0  0  0  0  0  0  0  0  0
  -24.7552  -13.8083   22.7293 C   0  0  0  0  0  0  0  0  0  0  0  0
  -24.2441  -12.3893   20.6719 C   0  0  0  0  0  0  0  0  0  0  0  0
  -24.4493  -31.4143   22.0324 C   0  0  0  0  0  0  0  0  0  0  0  0
  -28.0921  -24.5149   21.9586 C   0  0  0  0  0  0  0  0  0  0  0  0
  -24.5372  -30.0473   22.3579 C   0  0  0  0  0  0  0  0  0  0  0  0
  -28.2381  -24.2982   20.5810 C   0  0  0  0  0  0  0  0  0  0  0  0
  -24.1132  -15.0269   25.1552 C   0  0  0  0  0  0  0  0  0  0  0  0
  -27.7129  -21.9471   20.9076 C   0  0  0  0  0  0  0  0  0  0  0  0
  -22.5889  -16.2886   26.4230 C   0  0  0  0  0  0  0  0  0  0  0  0
  -20.1483  -17.6295   26.5905 C   0  0  0  0  0  0  0  0  0  0  0  0
  -22.5608  -17.6515   26.7188 C   0  0  0  0  0  0  0  0  0  0  0  0
  -25.0871  -13.1797   21.4760 C   0  0  0  0  0  0  0  0  0  0  0  0
  -25.0260  -12.0343   19.6000 C   0  0  0  0  0  0  0  0  0  0  0  0
  -28.2693  -18.4251   20.4131 C   0  0  0  0  0  0  0  0  0  0  0  0
  -28.3409  -19.6927   20.8312 C   0  0  0  0  0  0  0  0  0  1  0  0
  -22.8765  -12.0100   20.8757 C   0  0  0  0  0  0  0  0  0  0  0  0
  -29.2129  -17.4121   20.9596 C   0  0  0  0  0  0  0  0  0  0  0  0
  -26.6890  -27.2688   21.2165 C   0  0  0  0  0  0  0  0  0  0  0  0
  -29.4486  -27.7891   19.5928 C   0  0  0  0  0  0  0  0  0  0  0  0
  -32.1873  -26.4742   18.0380 C   0  0  0  0  0  0  0  0  0  0  0  0
  -29.7151  -14.9995   20.7434 C   0  0  0  0  0  0  0  0  0  0  0  0
  -24.6434  -31.9075   20.6204 C   0  0  0  0  0  0  0  0  0  0  0  0
  -28.3230  -25.8813   22.5435 C   0  0  0  0  0  0  0  0  0  0  0  0
  -28.5950  -25.4153   19.6360 C   0  0  0  0  0  0  0  0  0  0  0  0
  -25.3521  -30.9024   19.7161 C   0  0  0  0  0  0  0  0  0  0  0  0
  -29.1685  -11.3859   20.4326 C   0  0  0  0  0  0  0  0  0  0  0  0
  -24.7464  -29.5127   19.8848 C   0  0  0  0  0  0  0  0  0  0  0  0
  -28.2815  -11.2501   19.2015 C   0  0  0  0  0  0  0  0  0  0  0  0
  -30.0816  -12.5967   20.3130 C   0  0  0  0  0  0  0  0  0  0  0  0
  -28.3788  -13.7815   18.9279 C   0  0  0  0  0  0  0  0  0  0  0  0
  -24.9138  -29.0089   21.3235 C   0  0  1  0  0  0  0  0  0  0  0  0
  -28.1349  -27.0050   21.5290 C   0  0  1  0  0  0  0  0  0  0  0  0
  -27.4759  -12.5288   18.9266 C   0  0  2  0  0  0  0  0  0  0  0  0
  -34.2467  -27.1477   16.7720 C   0  0  0  0  0  0  0  0  0  0  0  0
  -27.7440  -28.3562   17.1265 C   0  0  0  0  0  0  0  0  0  0  0  0
  -29.8015  -28.0806   15.7269 C   0  0  0  0  0  0  0  0  0  0  0  0
  -29.6876  -29.9007   17.4290 C   0  0  0  0  0  0  0  0  0  0  0  0
  -33.9705  -25.2522   20.0594 C   0  0  0  0  0  0  0  0  0  0  0  0
  -29.9353  -27.5034   18.1927 C   0  0  1  0  0  0  0  0  0  0  0  0
  -33.6629  -26.8166   18.1367 C   0  0  2  0  0  0  0  0  0  0  0  0
  -29.2835  -28.4394   17.1361 C   0  0  0  0  0  0  0  0  0  0  0  0
  -26.3108  -13.3187   20.9591 N   0  0  0  0  0  0  0  0  0  0  0  0
  -26.2425  -12.6109   19.8188 N   0  0  0  0  0  0  0  0  0  0  0  0
  -28.8045  -26.7345   20.2552 N   0  0  0  0  0  0  0  0  0  0  0  0
  -29.3439  -13.8324   20.0411 N   0  0  0  0  0  0  0  0  0  0  0  0
  -24.7849  -11.2883   18.5010 N   0  0  0  0  0  0  0  0  0  0  0  0
  -22.2228  -12.4616   22.0303 N   0  0  0  0  0  0  0  0  0  0  0  0
  -28.9903  -16.1499   20.4102 N   0  0  0  0  0  0  0  0  0  0  0  0
  -26.2667  -28.5437   21.5419 N   0  0  0  0  0  0  0  0  0  0  0  0
  -31.3913  -27.5813   18.2428 N   0  0  0  0  0  0  0  0  0  0  0  0
  -34.4238  -25.6694   18.7076 N   0  3  0  0  0  0  0  0  0  0  0  0
  -22.2577  -11.2783   20.0662 O   0  0  0  0  0  0  0  0  0  0  0  0
  -30.0618  -17.6909   21.8000 O   0  0  0  0  0  0  0  0  0  0  0  0
  -26.0075  -26.3819   20.7159 O   0  0  0  0  0  0  0  0  0  0  0  0
  -29.6394  -28.9047   20.0835 O   0  0  0  0  0  0  0  0  0  0  0  0
  -31.7814  -25.3390   17.7992 O   0  0  0  0  0  0  0  0  0  0  0  0
  -30.6305  -15.0206   21.5723 O   0  0  0  0  0  0  0  0  0  0  0  0
  -23.7996  -15.6217   26.3387 O   0  0  0  0  0  0  0  0  0  0  0  0
  -27.5248  -20.7015   20.3929 O   0  0  0  0  0  0  0  0  0  1  0  0
  -18.9765  -18.2735   26.6694 F   0  0  0  0  0  0  0  0  0  0  0  0
  -23.7029  -18.3222   26.9224 F   0  0  0  0  0  0  0  0  0  0  0  0
  1  2  1  0  0  0  0
  1  5  2  0  0  0  0
  2  6  2  0  0  0  0
  3  8  2  0  0  0  0
  3 15  1  0  0  0  0
  4  9  1  0  0  0  0
  4 15  2  0  0  0  0
  5 17  1  0  0  0  0
  6 19  1  0  0  0  0
  7 10  2  0  0  0  0
  7 18  1  0  0  0  0
  8 21  1  0  0  0  0
  9 21  2  0  0  0  0
 10 22  1  0  0  0  0
 11 12  2  0  0  0  0
 11 23  1  0  0  0  0
 12 24  1  0  0  0  0
 13 20  1  0  0  0  0
 13 22  2  0  0  0  0
 14 24  2  0  0  0  0
 14 25  1  0  0  0  0
 15 26  1  0  0  0  0
 16 26  1  0  0  0  0
 16 27  2  0  0  0  0
 16 30  1  0  0  0  0
 17 19  2  0  0  0  0
 17 36  1  0  0  0  0
 18 20  2  0  0  0  0
 18 37  1  0  0  0  0
 19 45  1  0  0  0  0
 20 38  1  0  0  0  0
 21 72  1  0  0  0  0
 22 73  1  0  0  0  0
 23 25  2  0  0  0  0
 23 72  1  0  0  0  0
 24 74  1  0  0  0  0
 25 75  1  0  0  0  0
 26 56  2  0  0  0  0
 27 57  1  0  0  0  0
 27 60  1  0  0  0  0
 28 29  2  0  0  0  0
 28 31  1  0  0  0  0
 29 73  1  0  0  0  0
 30 61  1  0  0  0  0
 30 66  2  0  0  0  0
 31 62  1  0  0  0  0
 31 67  2  0  0  0  0
 32 46  1  0  0  0  0
 32 63  1  0  0  0  0
 32 68  2  0  0  0  0
 33 53  1  0  0  0  0
 33 58  1  0  0  0  0
 33 69  2  0  0  0  0
 34 54  1  0  0  0  0
 34 64  1  0  0  0  0
 34 70  2  0  0  0  0
 35 59  1  0  0  0  0
 35 62  1  0  0  0  0
 35 71  2  0  0  0  0
 36 39  1  0  0  0  0
 37 46  1  0  0  0  0
 38 58  1  0  0  0  0
 39 41  1  0  0  0  0
 40 42  1  0  0  0  0
 40 43  1  0  0  0  0
 41 45  1  0  0  0  0
 42 47  1  0  0  0  0
 43 59  1  0  0  0  0
 44 47  1  0  0  0  0
 44 59  1  0  0  0  0
 45 63  1  0  0  0  0
 46 58  1  0  0  0  0
 47 57  1  0  0  0  0
 48 54  1  0  0  0  0
 49 55  1  0  0  0  0
 50 55  1  0  0  0  0
 51 55  1  0  0  0  0
 52 65  1  0  0  0  0
 53 55  1  0  0  0  0
 53 64  1  0  0  0  0
 54 65  1  0  0  0  0
 56 57  1  0  0  0  0
M  CHG  1  65   1
M  ISO  4  29 101  35 100  62 100  73 101
M  END
> <Batch ID>
0090

> <Smiles>
CNC(C)C(=O)NC(C(=O)N1Cc2cc([101O:1][101CH:1]=CC(=O)[100NH:0][100C:0](=O)N3CCCC(n4nc(-c5ccc(Oc6ccc(F)cc6F)cc5)c(C(N)=O)c4N)C3)ccc2CC1C(=O)NC1CCCc2ccccc21)C(C)(C)C

> <Shape>
0.221

> <Color>
0.075

> <Negative vol penalty>
0.000

$$$$

  -OEChem-04052300293D

 84 92  0     1  0  0  0  0  0999 V2000
  -17.6089  -26.9443    9.5088 C   0  0  0  0  0  0  0  0  0  0  0  0
  -18.2373  -25.9152   10.2028 C   0  0  0  0  0  0  0  0  0  0  0  0
  -23.1889   -9.8192   19.9306 C   0  0  0  0  0  0  0  0  0  0  0  0
  -23.5553   -9.9988   22.3119 C   0  0  0  0  0  0  0  0  0  0  0  0
  -17.3512  -28.1574   10.1459 C   0  0  0  0  0  0  0  0  0  0  0  0
  -18.6094  -26.0991   11.5340 C   0  0  0  0  0  0  0  0  0  0  0  0
  -17.4182  -22.1335   14.4495 C   0  0  0  0  0  0  0  0  0  0  0  0
  -22.4188   -8.6744   20.1354 C   0  0  0  0  0  0  0  0  0  0  0  0
  -22.7852   -8.8540   22.5167 C   0  0  0  0  0  0  0  0  0  0  0  0
  -18.2512  -21.0178   14.3783 C   0  0  0  0  0  0  0  0  0  0  0  0
  -23.1797   -5.5063   22.2548 C   0  0  0  0  0  0  0  0  0  0  0  0
  -23.6712   -4.5438   23.1366 C   0  0  0  0  0  0  0  0  0  0  0  0
  -28.2063  -18.7415   15.6139 C   0  0  0  0  0  0  0  0  0  0  0  0
  -26.8838  -19.1686   15.2999 C   0  0  0  0  0  0  0  0  0  0  0  0
  -19.3466  -21.7134   16.4119 C   0  0  0  0  0  0  0  0  0  0  0  0
  -21.7081   -4.8085   24.5198 C   0  0  0  0  0  0  0  0  0  0  0  0
  -23.7572  -10.4814   21.0188 C   0  0  0  0  0  0  0  0  0  0  0  0
  -24.1031  -12.9972   20.7768 C   0  0  0  0  0  0  0  0  0  0  0  0
  -17.7117  -28.3529   11.4885 C   0  0  0  0  0  0  0  0  0  0  0  0
  -17.5506  -23.0548   15.4983 C   0  0  0  0  0  0  0  0  0  0  0  0
  -18.3575  -27.3164   12.1893 C   0  0  0  0  0  0  0  0  0  0  0  0
  -18.5123  -22.8386   16.4955 C   0  0  0  0  0  0  0  0  0  0  0  0
  -22.2170   -8.1918   21.4284 C   0  0  0  0  0  0  0  0  0  0  0  0
  -19.2175  -20.8091   15.3579 C   0  0  0  0  0  0  0  0  0  0  0  0
  -21.9524   -6.1200   22.5055 C   0  0  0  0  0  0  0  0  0  0  0  0
  -22.9355   -4.1949   24.2690 C   0  0  0  0  0  0  0  0  0  0  0  0
  -21.2166   -5.7711   23.6380 C   0  0  0  0  0  0  0  0  0  0  0  0
  -24.5533  -11.6637   20.8079 C   0  0  0  0  0  0  0  0  0  0  0  0
  -28.2170  -17.5296   16.2685 C   0  0  0  0  0  0  0  0  0  0  0  0
  -25.2373  -13.7372   20.5473 C   0  0  0  0  0  0  0  0  0  0  0  0
  -25.9339  -18.2666   15.7265 C   0  0  0  0  0  0  0  0  0  0  0  0
  -21.3800  -19.9312   15.2049 C   0  0  0  0  0  0  0  0  0  1  0  0
  -22.7783  -13.5203   20.9407 C   0  0  0  0  0  0  0  0  0  0  0  0
  -29.3791  -16.7473   16.7632 C   0  0  0  0  0  0  0  0  0  0  0  0
  -22.2723  -18.9360   15.1335 C   0  0  0  0  0  0  0  0  0  0  0  0
  -23.7308  -19.2718   15.0434 C   0  0  0  0  0  0  0  0  0  0  0  0
  -18.2737  -26.1440   15.6923 C   0  0  0  0  0  0  0  0  0  0  0  0
  -17.5552  -25.7159   18.8265 C   0  0  0  0  0  0  0  0  0  0  0  0
  -17.2737  -23.5733   21.4678 C   0  0  0  0  0  0  0  0  0  0  0  0
  -30.0149  -14.6379   17.8899 C   0  0  0  0  0  0  0  0  0  0  0  0
  -17.4551  -29.6980   12.1206 C   0  0  0  0  0  0  0  0  0  0  0  0
  -16.6264  -24.2391   15.5753 C   0  0  0  0  0  0  0  0  0  0  0  0
  -18.6815  -23.7871   17.6532 C   0  0  0  0  0  0  0  0  0  0  0  0
  -17.5437  -29.6817   13.6445 C   0  0  0  0  0  0  0  0  0  0  0  0
  -30.1207  -12.3951   20.6204 C   0  0  0  0  0  0  0  0  0  0  0  0
  -18.7921  -28.9322   14.0987 C   0  0  0  0  0  0  0  0  0  0  0  0
  -28.6444  -12.1185   20.9179 C   0  0  0  0  0  0  0  0  0  0  0  0
  -30.3839  -12.5175   19.1202 C   0  0  0  0  0  0  0  0  0  0  0  0
  -28.0538  -13.1962   18.7102 C   0  0  0  0  0  0  0  0  0  0  0  0
  -18.7540  -27.4689   13.6417 C   0  0  1  0  0  0  0  0  0  0  0  0
  -17.1922  -25.3853   16.4081 C   0  0  1  0  0  0  0  0  0  0  0  0
  -27.7249  -13.1342   20.2106 C   0  0  1  0  0  0  0  0  0  0  0  0
  -16.7032  -23.5225   23.9110 C   0  0  0  0  0  0  0  0  0  0  0  0
  -20.2855  -26.9076   19.4862 C   0  0  0  0  0  0  0  0  0  0  0  0
  -20.0580  -25.9717   21.7971 C   0  0  0  0  0  0  0  0  0  0  0  0
  -18.4268  -27.6706   20.9753 C   0  0  0  0  0  0  0  0  0  0  0  0
  -14.9849  -21.7526   21.0144 C   0  0  0  0  0  0  0  0  0  0  0  0
  -18.3335  -25.3169   20.0569 C   0  0  1  0  0  0  0  0  0  0  0  0
  -16.1717  -23.3781   22.4935 C   0  0  2  0  0  0  0  0  0  0  0  0
  -19.2743  -26.4497   20.5561 C   0  0  0  0  0  0  0  0  0  0  0  0
  -25.8706  -11.5595   20.6135 N   0  0  0  0  0  0  0  0  0  0  0  0
  -26.2580  -12.8369   20.4580 N   0  0  0  0  0  0  0  0  0  0  0  0
  -17.7582  -24.9335   17.6808 N   0  0  0  0  0  0  0  0  0  0  0  0
  -29.4800  -13.5049   18.5275 N   0  0  0  0  0  0  0  0  0  0  0  0
  -25.4511  -15.0635   20.4151 N   0  0  0  0  0  0  0  0  0  0  0  0
  -21.7283  -12.6205   21.1694 N   0  0  0  0  0  0  0  0  0  0  0  0
  -24.5220  -18.2904   15.6248 N   0  0  0  0  0  0  0  0  0  0  0  0
  -29.0692  -15.5422   17.3941 N   0  0  0  0  0  0  0  0  0  0  0  0
  -17.8725  -26.6970   14.4912 N   0  0  0  0  0  0  0  0  0  0  0  0
  -17.3476  -24.8821   21.0404 N   0  0  0  0  0  0  0  0  0  0  0  0
  -15.5681  -22.0228   22.3537 N   0  3  0  0  0  0  0  0  0  0  0  0
  -22.5304  -14.7479   20.8698 O   0  0  0  0  0  0  0  0  0  0  0  0
  -30.5141  -17.1701   16.5613 O   0  0  0  0  0  0  0  0  0  0  0  0
  -24.1068  -20.3078   14.5057 O   0  0  0  0  0  0  0  0  0  0  0  0
  -19.3892  -26.2233   16.1935 O   0  0  0  0  0  0  0  0  0  0  0  0
  -16.7897  -26.6816   18.8819 O   0  0  0  0  0  0  0  0  0  0  0  0
  -17.9989  -22.6571   21.0868 O   0  0  0  0  0  0  0  0  0  0  0  0
  -31.2292  -14.8458   17.8031 O   0  0  0  0  0  0  0  0  0  0  0  0
  -21.9031  -17.6063   15.1409 O   0  0  0  0  0  0  0  0  0  0  0  0
  -21.4654   -7.0748   21.6287 O   0  0  0  0  0  0  0  0  0  0  0  0
  -20.0323  -19.7213   15.2905 O   0  0  0  0  0  0  0  0  0  1  0  0
  -23.4069   -3.2695   25.1149 F   0  0  0  0  0  0  0  0  0  0  0  0
  -20.0364   -6.3563   23.8835 F   0  0  0  0  0  0  0  0  0  0  0  0
  -26.6372  -16.9116   16.5022 S   0  0  0  0  0  0  0  0  0  0  0  0
  1  2  1  0  0  0  0
  1  5  2  0  0  0  0
  2  6  2  0  0  0  0
  3  8  2  0  0  0  0
  3 17  1  0  0  0  0
  4  9  1  0  0  0  0
  4 17  2  0  0  0  0
  5 19  1  0  0  0  0
  6 21  1  0  0  0  0
  7 10  2  0  0  0  0
  7 20  1  0  0  0  0
  8 23  1  0  0  0  0
  9 23  2  0  0  0  0
 10 24  1  0  0  0  0
 11 12  2  0  0  0  0
 11 25  1  0  0  0  0
 12 26  1  0  0  0  0
 13 14  1  0  0  0  0
 13 29  2  0  0  0  0
 14 31  2  0  0  0  0
 15 22  1  0  0  0  0
 15 24  2  0  0  0  0
 16 26  2  0  0  0  0
 16 27  1  0  0  0  0
 17 28  1  0  0  0  0
 18 28  1  0  0  0  0
 18 30  2  0  0  0  0
 18 33  1  0  0  0  0
 19 21  2  0  0  0  0
 19 41  1  0  0  0  0
 20 22  2  0  0  0  0
 20 42  1  0  0  0  0
 21 50  1  0  0  0  0
 22 43  1  0  0  0  0
 23 80  1  0  0  0  0
 24 81  1  0  0  0  0
 25 27  2  0  0  0  0
 25 80  1  0  0  0  0
 26 82  1  0  0  0  0
 27 83  1  0  0  0  0
 28 61  2  0  0  0  0
 29 34  1  0  0  0  0
 29 84  1  0  0  0  0
 30 62  1  0  0  0  0
 30 65  1  0  0  0  0
 31 67  1  0  0  0  0
 31 84  1  0  0  0  0
 32 35  2  0  0  0  0
 32 81  1  0  0  0  0
 33 66  1  0  0  0  0
 33 72  2  0  0  0  0
 34 68  1  0  0  0  0
 34 73  2  0  0  0  0
 35 36  1  0  0  0  0
 35 79  1  0  0  0  0
 36 67  1  0  0  0  0
 36 74  2  0  0  0  0
 37 51  1  0  0  0  0
 37 69  1  0  0  0  0
 37 75  2  0  0  0  0
 38 58  1  0  0  0  0
 38 63  1  0  0  0  0
 38 76  2  0  0  0  0
 39 59  1  0  0  0  0
 39 70  1  0  0  0  0
 39 77  2  0  0  0  0
 40 64  1  0  0  0  0
 40 68  1  0  0  0  0
 40 78  2  0  0  0  0
 41 44  1  0  0  0  0
 42 51  1  0  0  0  0
 43 63  1  0  0  0  0
 44 46  1  0  0  0  0
 45 47  1  0  0  0  0
 45 48  1  0  0  0  0
 46 50  1  0  0  0  0
 47 52  1  0  0  0  0
 48 64  1  0  0  0  0
 49 52  1  0  0  0  0
 49 64  1  0  0  0  0
 50 69  1  0  0  0  0
 51 63  1  0  0  0  0
 52 62  1  0  0  0  0
 53 59  1  0  0  0  0
 54 60  1  0  0  0  0
 55 60  1  0  0  0  0
 56 60  1  0  0  0  0
 57 71  1  0  0  0  0
 58 60  1  0  0  0  0
 58 70  1  0  0  0  0
 59 71  1  0  0  0  0
 61 62  1  0  0  0  0
M  CHG  1  71   1
M  ISO  4  32 101  40 100  68 100  81 101
M  END
> <Batch ID>
0090

> <Smiles>
CNC(C)C(=O)NC(C(=O)N1Cc2cc([101O:1][101CH2:1]C(=O)C(=O)Nc3ccc(C(=O)[100NH:0][100C:0](=O)N4CCCC(n5nc(-c6ccc(Oc7ccc(F)cc7F)cc6)c(C(N)=O)c5N)C4)s3)ccc2CC1C(=O)NC1CCCc2ccccc21)C(C)(C)C

> <Shape>
0.161

> <Color>
0.175

> <Negative vol penalty>
0.000

$$$$

  -OEChem-04052300293D

 86 94  0     1  0  0  0  0  0999 V2000
  -28.6307  -32.7344   27.7433 C   0  0  0  0  0  0  0  0  0  0  0  0
  -28.8095  -31.8049   26.7238 C   0  0  0  0  0  0  0  0  0  0  0  0
  -24.3909   -8.9913   22.3359 C   0  0  0  0  0  0  0  0  0  0  0  0
  -24.2389   -8.7887   19.9332 C   0  0  0  0  0  0  0  0  0  0  0  0
  -27.6786  -19.9123   18.8154 C   0  0  0  0  0  0  0  0  0  0  0  0
  -27.3432  -33.1045   28.1298 C   0  0  0  0  0  0  0  0  0  0  0  0
  -27.7008  -31.2441   26.0908 C   0  0  0  0  0  0  0  0  0  0  0  0
  -27.2469  -29.6390   20.1982 C   0  0  0  0  0  0  0  0  0  0  0  0
  -27.5394  -21.3000   18.7991 C   0  0  0  0  0  0  0  0  0  0  0  0
  -23.2827   -8.1560   22.4764 C   0  0  0  0  0  0  0  0  0  0  0  0
  -23.1307   -7.9534   20.0737 C   0  0  0  0  0  0  0  0  0  0  0  0
  -27.3747  -28.4125   19.5475 C   0  0  0  0  0  0  0  0  0  0  0  0
  -22.6295   -4.8410   22.3467 C   0  0  0  0  0  0  0  0  0  0  0  0
  -22.6977   -3.8291   23.3043 C   0  0  0  0  0  0  0  0  0  0  0  0
  -30.0307  -20.1540   19.3118 C   0  0  0  0  0  0  0  0  0  0  0  0
  -24.9800  -28.1311   19.6204 C   0  0  0  0  0  0  0  0  0  0  0  0
  -20.7830   -4.7718   24.4367 C   0  0  0  0  0  0  0  0  0  0  0  0
  -24.8690   -9.3077   21.0642 C   0  0  0  0  0  0  0  0  0  0  0  0
  -28.9243  -19.3392   19.0718 C   0  0  0  0  0  0  0  0  0  0  0  0
  -27.3667   -9.7867   20.8650 C   0  0  0  0  0  0  0  0  0  0  0  0
  -26.2183  -32.5551   27.4946 C   0  0  0  0  0  0  0  0  0  0  0  0
  -25.9834  -30.1164   20.5752 C   0  0  0  0  0  0  0  0  0  0  0  0
  -26.3970  -31.6061   26.4700 C   0  0  0  0  0  0  0  0  0  0  0  0
  -24.8386  -29.3651   20.2734 C   0  0  0  0  0  0  0  0  0  0  0  0
  -28.6458  -22.1148   19.0391 C   0  0  0  0  0  0  0  0  0  0  0  0
  -29.8915  -21.5418   19.2954 C   0  0  0  0  0  0  0  0  0  0  0  0
  -22.6526   -7.6371   21.3454 C   0  0  0  0  0  0  0  0  0  0  0  0
  -26.2414  -27.6571   19.2612 C   0  0  0  0  0  0  0  0  0  0  0  0
  -21.6381   -5.8183   22.4341 C   0  0  0  0  0  0  0  0  0  0  0  0
  -21.7744   -3.7945   24.3493 C   0  0  0  0  0  0  0  0  0  0  0  0
  -20.7148   -5.7837   23.4791 C   0  0  0  0  0  0  0  0  0  0  0  0
  -26.0135  -10.1709   20.9184 C   0  0  0  0  0  0  0  0  0  0  0  0
  -28.0534  -10.9674   20.7211 C   0  0  0  0  0  0  0  0  0  0  0  0
  -28.2019  -17.5245   15.6173 C   0  0  0  0  0  0  0  0  0  0  0  0
  -28.9414  -17.7817   16.6984 C   0  0  0  0  0  0  0  0  0  0  0  0
  -29.0717  -17.8631   19.0893 C   0  0  0  0  0  0  0  0  0  0  0  0
  -27.9508   -8.4793   20.9387 C   0  0  0  0  0  0  0  0  0  0  0  0
  -24.5904  -30.8346   23.3406 C   0  0  0  0  0  0  0  0  0  0  0  0
  -22.1997  -31.8865   21.4168 C   0  0  0  0  0  0  0  0  0  0  0  0
  -27.3091  -24.2316   18.7816 C   0  0  0  0  0  0  0  0  0  0  0  0
  -20.6346  -31.7254   18.3884 C   0  0  0  0  0  0  0  0  0  0  0  0
  -28.3501  -15.7817   17.8469 C   0  0  0  0  0  0  0  0  0  0  0  0
  -24.8458  -32.9506   27.9790 C   0  0  0  0  0  0  0  0  0  0  0  0
  -25.8602  -31.4537   21.2525 C   0  0  0  0  0  0  0  0  0  0  0  0
  -23.4577  -29.8425   20.6388 C   0  0  0  0  0  0  0  0  0  0  0  0
  -23.7283  -32.5901   27.0034 C   0  0  0  0  0  0  0  0  0  0  0  0
  -26.5543  -15.7529   21.1713 C   0  0  0  0  0  0  0  0  0  0  0  0
  -23.8980  -31.1593   26.5024 C   0  0  0  0  0  0  0  0  0  0  0  0
  -26.2815  -14.2592   21.3182 C   0  0  0  0  0  0  0  0  0  0  0  0
  -26.6773  -16.1692   19.7091 C   0  0  0  0  0  0  0  0  0  0  0  0
  -27.3935  -13.8721   19.0844 C   0  0  0  0  0  0  0  0  0  0  0  0
  -25.2197  -30.9940   25.7425 C   0  0  1  0  0  0  0  0  0  0  0  0
  -24.5680  -31.6030   22.0496 C   0  0  1  0  0  0  0  0  0  0  0  0
  -27.3357  -13.4422   20.5573 C   0  0  2  0  0  0  0  0  0  0  0  0
  -18.6854  -32.6754   17.1254 C   0  0  0  0  0  0  0  0  0  0  0  0
  -20.3019  -30.1094   23.0138 C   0  0  0  0  0  0  0  0  0  0  0  0
  -18.6305  -30.3529   21.1657 C   0  0  0  0  0  0  0  0  0  0  0  0
  -19.3835  -32.3629   22.4368 C   0  0  0  0  0  0  0  0  0  0  0  0
  -22.3962  -32.8830   16.3110 C   0  0  0  0  0  0  0  0  0  0  0  0
  -27.5666  -25.7254   18.8506 C   0  0  0  0  0  0  0  0  0  1  0  0
  -20.9692  -31.2638   20.8028 C   0  0  1  0  0  0  0  0  0  0  0  0
  -20.1677  -32.8120   17.4368 C   0  0  2  0  0  0  0  0  0  0  0  0
  -19.8473  -31.0121   21.8495 C   0  0  0  0  0  0  0  0  0  0  0  0
  -25.8482  -11.4924   20.8169 N   0  0  0  0  0  0  0  0  0  0  0  0
  -27.1067  -11.9489   20.6984 N   0  0  0  0  0  0  0  0  0  0  0  0
  -23.3897  -31.1535   21.3054 N   0  0  0  0  0  0  0  0  0  0  0  0
  -27.6015  -15.3156   18.9489 N   0  0  0  0  0  0  0  0  0  0  0  0
  -31.0256  -22.3476   19.5422 N   0  0  0  0  0  0  0  0  0  0  0  0
  -29.3688  -11.2515   20.6132 N   0  0  0  0  0  0  0  0  0  0  0  0
  -27.1005   -7.3750   21.0863 N   0  0  0  0  0  0  0  0  0  0  0  0
  -28.4802  -23.5200   19.0188 N   0  0  0  0  0  0  0  0  0  0  0  0
  -25.1076  -31.5431   24.4082 N   0  0  0  0  0  0  0  0  0  0  0  0
  -20.5751  -32.1374   19.7029 N   0  0  0  0  0  0  0  0  0  0  0  0
  -28.7525  -17.1407   17.9092 N   0  0  0  0  0  0  0  0  0  0  0  0
  -20.9257  -32.7395   16.1558 N   0  3  0  0  0  0  0  0  0  0  0  0
  -29.4658  -17.3525   20.1385 O   0  0  0  0  0  0  0  0  0  0  0  0
  -29.1910   -8.2973   20.8919 O   0  0  0  0  0  0  0  0  0  0  0  0
  -24.1682  -29.6844   23.3664 O   0  0  0  0  0  0  0  0  0  0  0  0
  -22.1099  -32.9861   21.9685 O   0  0  0  0  0  0  0  0  0  0  0  0
  -26.1927  -23.7824   18.5438 O   0  0  0  0  0  0  0  0  0  0  0  0
  -21.0107  -30.6201   18.0044 O   0  0  0  0  0  0  0  0  0  0  0  0
  -28.6833  -15.0521   16.9056 O   0  0  0  0  0  0  0  0  0  0  0  0
  -21.5713   -6.8218   21.4821 O   0  0  0  0  0  0  0  0  0  0  0  0
  -26.3634  -26.4593   18.6268 O   0  0  0  0  0  0  0  0  0  1  0  0
  -21.8391   -2.8218   25.2679 F   0  0  0  0  0  0  0  0  0  0  0  0
  -19.7594   -6.7192   23.5676 F   0  0  0  0  0  0  0  0  0  0  0  0
  1  2  1  0  0  0  0
  1  6  2  0  0  0  0
  2  7  2  0  0  0  0
  3 10  2  0  0  0  0
  3 18  1  0  0  0  0
  4 11  1  0  0  0  0
  4 18  2  0  0  0  0
  5  9  2  0  0  0  0
  5 19  1  0  0  0  0
  6 21  1  0  0  0  0
  7 23  1  0  0  0  0
  8 12  2  0  0  0  0
  8 22  1  0  0  0  0
  9 25  1  0  0  0  0
 10 27  1  0  0  0  0
 11 27  2  0  0  0  0
 12 28  1  0  0  0  0
 13 14  2  0  0  0  0
 13 29  1  0  0  0  0
 14 30  1  0  0  0  0
 15 19  2  0  0  0  0
 15 26  1  0  0  0  0
 16 24  1  0  0  0  0
 16 28  2  0  0  0  0
 17 30  2  0  0  0  0
 17 31  1  0  0  0  0
 18 32  1  0  0  0  0
 19 36  1  0  0  0  0
 20 32  1  0  0  0  0
 20 33  2  0  0  0  0
 20 37  1  0  0  0  0
 21 23  2  0  0  0  0
 21 43  1  0  0  0  0
 22 24  2  0  0  0  0
 22 44  1  0  0  0  0
 23 52  1  0  0  0  0
 24 45  1  0  0  0  0
 25 26  2  0  0  0  0
 25 71  1  0  0  0  0
 26 68  1  0  0  0  0
 27 83  1  0  0  0  0
 28 84  1  0  0  0  0
 29 31  2  0  0  0  0
 29 83  1  0  0  0  0
 30 85  1  0  0  0  0
 31 86  1  0  0  0  0
 32 64  2  0  0  0  0
 33 65  1  0  0  0  0
 33 69  1  0  0  0  0
 34 35  2  0  0  0  0
 35 74  1  0  0  0  0
 36 74  1  0  0  0  0
 36 76  2  0  0  0  0
 37 70  1  0  0  0  0
 37 77  2  0  0  0  0
 38 53  1  0  0  0  0
 38 72  1  0  0  0  0
 38 78  2  0  0  0  0
 39 61  1  0  0  0  0
 39 66  1  0  0  0  0
 39 79  2  0  0  0  0
 40 60  1  0  0  0  0
 40 71  1  0  0  0  0
 40 80  2  0  0  0  0
 41 62  1  0  0  0  0
 41 73  1  0  0  0  0
 41 81  2  0  0  0  0
 42 67  1  0  0  0  0
 42 74  1  0  0  0  0
 42 82  2  0  0  0  0
 43 46  1  0  0  0  0
 44 53  1  0  0  0  0
 45 66  1  0  0  0  0
 46 48  1  0  0  0  0
 47 49  1  0  0  0  0
 47 50  1  0  0  0  0
 48 52  1  0  0  0  0
 49 54  1  0  0  0  0
 50 67  1  0  0  0  0
 51 54  1  0  0  0  0
 51 67  1  0  0  0  0
 52 72  1  0  0  0  0
 53 66  1  0  0  0  0
 54 65  1  0  0  0  0
 55 62  1  0  0  0  0
 56 63  1  0  0  0  0
 57 63  1  0  0  0  0
 58 63  1  0  0  0  0
 59 75  1  0  0  0  0
 60 84  1  0  0  0  0
 61 63  1  0  0  0  0
 61 73  1  0  0  0  0
 62 75  1  0  0  0  0
 64 65  1  0  0  0  0
M  CHG  1  75   1
M  ISO  4  42 100  60 101  74 100  84 101
M  END
> <Batch ID>
0090

> <Smiles>
C=C[100N:0](C(=O)c1ccc(NC(=O)[101CH2:1][101O:1]c2ccc3c(c2)CN(C(=O)C(NC(=O)C(C)NC)C(C)(C)C)C(C(=O)NC2CCCc4ccccc42)C3)c(N)c1)[100C:0](=O)N1CCCC(n2nc(-c3ccc(Oc4ccc(F)cc4F)cc3)c(C(N)=O)c2N)C1

> <Shape>
0.287

> <Color>
0.099

> <Negative vol penalty>
0.000

$$$$

  -OEChem-04052300293D

 81 89  0     1  0  0  0  0  0999 V2000
  -24.6168  -22.2907   11.8096 C   0  0  0  0  0  0  0  0  0  0  0  0
  -24.3036  -21.3196   12.7539 C   0  0  0  0  0  0  0  0  0  0  0  0
  -27.7195  -23.1166   20.4310 C   0  0  0  0  0  0  0  0  0  0  0  0
  -29.3267  -23.3690   18.6449 C   0  0  0  0  0  0  0  0  0  0  0  0
  -24.4739  -23.6394   12.1286 C   0  0  0  0  0  0  0  0  0  0  0  0
  -23.8360  -21.6965   14.0133 C   0  0  0  0  0  0  0  0  0  0  0  0
  -22.2984  -18.0983   16.9953 C   0  0  0  0  0  0  0  0  0  0  0  0
  -27.6777  -24.5018   20.5891 C   0  0  0  0  0  0  0  0  0  0  0  0
  -29.2849  -24.7543   18.8030 C   0  0  0  0  0  0  0  0  0  0  0  0
  -23.1732  -17.2037   17.6104 C   0  0  0  0  0  0  0  0  0  0  0  0
  -26.2283  -27.1418   19.0521 C   0  0  0  0  0  0  0  0  0  0  0  0
  -24.9763  -27.7410   19.1894 C   0  0  0  0  0  0  0  0  0  0  0  0
  -25.7133  -12.2640   21.4897 C   0  0  0  0  0  0  0  0  0  0  0  0
  -26.0449  -14.2756   20.1936 C   0  0  0  0  0  0  0  0  0  0  0  0
  -22.9224  -18.3982   19.6911 C   0  0  0  0  0  0  0  0  0  0  0  0
  -23.8919  -13.1794   20.1929 C   0  0  0  0  0  0  0  0  0  0  0  0
  -25.6210  -28.5914   21.3570 C   0  0  0  0  0  0  0  0  0  0  0  0
  -28.5441  -22.5502   19.4588 C   0  0  0  0  0  0  0  0  0  0  0  0
  -26.5414  -13.2999   21.0579 C   0  0  0  0  0  0  0  0  0  0  0  0
  -27.7769  -20.3344   18.4541 C   0  0  0  0  0  0  0  0  0  0  0  0
  -24.0161  -24.0324   13.3970 C   0  0  0  0  0  0  0  0  0  0  0  0
  -21.7367  -19.1578   17.7221 C   0  0  0  0  0  0  0  0  0  0  0  0
  -23.6622  -23.0520   14.3462 C   0  0  0  0  0  0  0  0  0  0  0  0
  -22.0388  -19.3034   19.0836 C   0  0  0  0  0  0  0  0  0  0  0  0
  -24.3885  -12.2037   21.0572 C   0  0  0  0  0  0  0  0  0  0  0  0
  -28.4603  -25.3206   19.7752 C   0  0  0  0  0  0  0  0  0  0  0  0
  -23.4875  -17.3553   18.9577 C   0  0  0  0  0  0  0  0  0  0  0  0
  -27.1767  -27.2672   20.0672 C   0  0  0  0  0  0  0  0  0  0  0  0
  -24.7201  -14.2154   19.7611 C   0  0  0  0  0  0  0  0  0  0  0  0
  -24.6726  -28.4658   20.3418 C   0  0  0  0  0  0  0  0  0  0  0  0
  -26.8730  -27.9921   21.2197 C   0  0  0  0  0  0  0  0  0  0  0  0
  -28.5882  -21.1193   19.2953 C   0  0  0  0  0  0  0  0  0  0  0  0
  -28.2108  -19.0478   18.6615 C   0  0  0  0  0  0  0  0  0  0  0  0
  -27.9526  -13.3637   21.5178 C   0  0  0  0  0  0  0  0  0  0  0  0
  -26.7253  -20.7327   17.5647 C   0  0  0  0  0  0  0  0  0  0  0  0
  -21.8539  -22.3278   17.5193 C   0  0  0  0  0  0  0  0  0  0  0  0
  -19.6386  -22.1717   19.8836 C   0  0  0  0  0  0  0  0  0  0  0  0
  -18.2651  -20.3964   22.4544 C   0  0  0  0  0  0  0  0  0  0  0  0
  -29.8149  -14.9222   21.9938 C   0  0  0  0  0  0  0  0  0  0  0  0
  -23.8727  -25.5058   13.6863 C   0  0  0  0  0  0  0  0  0  0  0  0
  -20.7740  -20.0985   17.0507 C   0  0  0  0  0  0  0  0  0  0  0  0
  -21.4465  -20.4122   19.9132 C   0  0  0  0  0  0  0  0  0  0  0  0
  -23.7976  -25.8142   15.1782 C   0  0  0  0  0  0  0  0  0  0  0  0
  -32.2819  -17.2961   21.1133 C   0  0  0  0  0  0  0  0  0  0  0  0
  -22.7690  -24.9124   15.8442 C   0  0  0  0  0  0  0  0  0  0  0  0
  -31.4772  -18.4369   20.4845 C   0  0  0  0  0  0  0  0  0  0  0  0
  -31.5474  -16.6692   22.2975 C   0  0  0  0  0  0  0  0  0  0  0  0
  -29.3706  -17.3803   21.3953 C   0  0  0  0  0  0  0  0  0  0  0  0
  -23.1809  -23.4390   15.7329 C   0  0  1  0  0  0  0  0  0  0  0  0
  -20.6620  -21.4450   17.7590 C   0  0  1  0  0  0  0  0  0  0  0  0
  -30.0363  -17.9980   20.1550 C   0  0  1  0  0  0  0  0  0  0  0  0
  -16.4941  -20.5453   24.2261 C   0  0  0  0  0  0  0  0  0  0  0  0
  -21.4260  -24.0342   21.5104 C   0  0  0  0  0  0  0  0  0  0  0  0
  -20.1230  -23.3903   23.5490 C   0  0  0  0  0  0  0  0  0  0  0  0
  -18.9820  -24.5446   21.6547 C   0  0  0  0  0  0  0  0  0  0  0  0
  -16.8162  -18.0563   21.3665 C   0  0  0  0  0  0  0  0  0  0  0  0
  -19.6858  -22.1306   21.3920 C   0  0  1  0  0  0  0  0  0  0  0  0
  -16.8209  -20.0939   22.8111 C   0  0  2  0  0  0  0  0  0  0  0  0
  -20.0670  -23.5051   22.0107 C   0  0  0  0  0  0  0  0  0  0  0  0
  -29.4705  -20.3921   19.9858 N   0  0  0  0  0  0  0  0  0  0  0  0
  -29.2161  -19.1368   19.5789 N   0  0  0  0  0  0  0  0  0  0  0  0
  -20.5155  -21.3100   19.2097 N   0  0  0  0  0  0  0  0  0  0  0  0
  -30.1952  -16.2724   21.9007 N   0  0  0  0  0  0  0  0  0  0  0  0
  -23.5516  -11.1558   21.4933 N   0  0  0  0  0  0  0  0  0  0  0  0
  -27.8265  -17.8604   18.1470 N   0  0  0  0  0  0  0  0  0  0  0  0
  -26.4080  -22.0947   17.4727 N   0  0  0  0  0  0  0  0  0  0  0  0
  -28.5182  -14.6386   21.5507 N   0  0  0  0  0  0  0  0  0  0  0  0
  -22.0878  -22.6077   16.1865 N   0  0  0  0  0  0  0  0  0  0  0  0
  -18.3911  -21.6179   21.8271 N   0  0  0  0  0  0  0  0  0  0  0  0
  -16.5586  -18.6302   22.7123 N   0  3  0  0  0  0  0  0  0  0  0  0
  -28.5139  -12.3301   21.8705 O   0  0  0  0  0  0  0  0  0  0  0  0
  -26.0749  -19.9035   16.8843 O   0  0  0  0  0  0  0  0  0  0  0  0
  -22.5118  -22.7268   18.4730 O   0  0  0  0  0  0  0  0  0  0  0  0
  -18.8475  -22.9350   19.3240 O   0  0  0  0  0  0  0  0  0  0  0  0
  -19.1894  -19.6279   22.7102 O   0  0  0  0  0  0  0  0  0  0  0  0
  -30.5766  -14.0391   22.4002 O   0  0  0  0  0  0  0  0  0  0  0  0
  -28.4196  -26.6724   19.9291 O   0  0  0  0  0  0  0  0  0  0  0  0
  -24.3416  -16.4839   19.5603 O   0  0  0  0  0  0  0  0  0  1  0  0
  -24.2290  -15.1777   18.9081 O   0  0  0  0  0  0  0  0  0  1  0  0
  -23.4708  -29.0426   20.4728 F   0  0  0  0  0  0  0  0  0  0  0  0
  -27.7805  -28.1171   22.1978 F   0  0  0  0  0  0  0  0  0  0  0  0
  1  2  1  0  0  0  0
  1  5  2  0  0  0  0
  2  6  2  0  0  0  0
  3  8  2  0  0  0  0
  3 18  1  0  0  0  0
  4  9  1  0  0  0  0
  4 18  2  0  0  0  0
  5 21  1  0  0  0  0
  6 23  1  0  0  0  0
  7 10  2  0  0  0  0
  7 22  1  0  0  0  0
  8 26  1  0  0  0  0
  9 26  2  0  0  0  0
 10 27  1  0  0  0  0
 11 12  2  0  0  0  0
 11 28  1  0  0  0  0
 12 30  1  0  0  0  0
 13 19  2  0  0  0  0
 13 25  1  0  0  0  0
 14 19  1  0  0  0  0
 14 29  2  0  0  0  0
 15 24  1  0  0  0  0
 15 27  2  0  0  0  0
 16 25  2  0  0  0  0
 16 29  1  0  0  0  0
 17 30  2  0  0  0  0
 17 31  1  0  0  0  0
 18 32  1  0  0  0  0
 19 34  1  0  0  0  0
 20 32  1  0  0  0  0
 20 33  2  0  0  0  0
 20 35  1  0  0  0  0
 21 23  2  0  0  0  0
 21 40  1  0  0  0  0
 22 24  2  0  0  0  0
 22 41  1  0  0  0  0
 23 49  1  0  0  0  0
 24 42  1  0  0  0  0
 25 64  1  0  0  0  0
 26 77  1  0  0  0  0
 27 78  1  0  0  0  0
 28 31  2  0  0  0  0
 28 77  1  0  0  0  0
 29 79  1  0  0  0  0
 30 80  1  0  0  0  0
 31 81  1  0  0  0  0
 32 60  2  0  0  0  0
 33 61  1  0  0  0  0
 33 65  1  0  0  0  0
 34 67  1  0  0  0  0
 34 71  2  0  0  0  0
 35 66  1  0  0  0  0
 35 72  2  0  0  0  0
 36 50  1  0  0  0  0
 36 68  1  0  0  0  0
 36 73  2  0  0  0  0
 37 57  1  0  0  0  0
 37 62  1  0  0  0  0
 37 74  2  0  0  0  0
 38 58  1  0  0  0  0
 38 69  1  0  0  0  0
 38 75  2  0  0  0  0
 39 63  1  0  0  0  0
 39 67  1  0  0  0  0
 39 76  2  0  0  0  0
 40 43  1  0  0  0  0
 41 50  1  0  0  0  0
 42 62  1  0  0  0  0
 43 45  1  0  0  0  0
 44 46  1  0  0  0  0
 44 47  1  0  0  0  0
 45 49  1  0  0  0  0
 46 51  1  0  0  0  0
 47 63  1  0  0  0  0
 48 51  1  0  0  0  0
 48 63  1  0  0  0  0
 49 68  1  0  0  0  0
 50 62  1  0  0  0  0
 51 61  1  0  0  0  0
 52 58  1  0  0  0  0
 53 59  1  0  0  0  0
 54 59  1  0  0  0  0
 55 59  1  0  0  0  0
 56 70  1  0  0  0  0
 57 59  1  0  0  0  0
 57 69  1  0  0  0  0
 58 70  1  0  0  0  0
 60 61  1  0  0  0  0
 78 79  1  0  0  0  0
M  CHG  1  70   1
M  ISO  4  39 100  67 100  78 101  79 101
M  END
> <Batch ID>
0090

> <Smiles>
CNC(C)C(=O)NC(C(=O)N1Cc2cc([101O:1][101O:1]c3cc(N)cc(C(=O)[100NH:0][100C:0](=O)N4CCCC(n5nc(-c6ccc(Oc7ccc(F)cc7F)cc6)c(C(N)=O)c5N)C4)c3)ccc2CC1C(=O)NC1CCCc2ccccc21)C(C)(C)C

> <Shape>
0.180

> <Color>
0.067

> <Negative vol penalty>
0.000

$$$$

  -OEChem-04052300293D

 87 96  0     1  0  0  0  0  0999 V2000
  -23.1948  -33.4499   15.1429 C   0  0  0  0  0  0  0  0  0  0  0  0
  -23.9251  -32.2681   15.2165 C   0  0  0  0  0  0  0  0  0  0  0  0
  -23.2544   -9.5930   20.6378 C   0  0  0  0  0  0  0  0  0  0  0  0
  -23.2401  -11.2985   22.3490 C   0  0  0  0  0  0  0  0  0  0  0  0
  -23.2108  -34.3455   16.2113 C   0  0  0  0  0  0  0  0  0  0  0  0
  -24.6727  -31.9817   16.3582 C   0  0  0  0  0  0  0  0  0  0  0  0
  -25.6535  -26.4643   18.8285 C   0  0  0  0  0  0  0  0  0  0  0  0
  -31.8701  -18.9658   20.3566 C   0  0  0  0  0  0  0  0  0  0  0  0
  -31.5204  -17.6229   20.2152 C   0  0  0  0  0  0  0  0  0  0  0  0
  -22.3668   -8.8272   21.3937 C   0  0  0  0  0  0  0  0  0  0  0  0
  -22.3525  -10.5327   23.1049 C   0  0  0  0  0  0  0  0  0  0  0  0
  -26.7243  -25.5755   18.7435 C   0  0  0  0  0  0  0  0  0  0  0  0
  -22.5085   -6.7723   24.0736 C   0  0  0  0  0  0  0  0  0  0  0  0
  -22.7763   -5.4094   24.2017 C   0  0  0  0  0  0  0  0  0  0  0  0
  -27.6111  -26.4559   20.8069 C   0  0  0  0  0  0  0  0  0  0  0  0
  -29.7015  -19.6191   19.5155 C   0  0  0  0  0  0  0  0  0  0  0  0
  -20.6545   -4.8952   23.1669 C   0  0  0  0  0  0  0  0  0  0  0  0
  -23.6911  -10.8287   21.1155 C   0  0  0  0  0  0  0  0  0  0  0  0
  -24.2842  -12.5891   19.3671 C   0  0  0  0  0  0  0  0  0  0  0  0
  -23.9512  -34.0655   17.3706 C   0  0  0  0  0  0  0  0  0  0  0  0
  -25.5591  -27.3647   19.8995 C   0  0  0  0  0  0  0  0  0  0  0  0
  -24.6997  -32.8751   17.4426 C   0  0  0  0  0  0  0  0  0  0  0  0
  -26.5368  -27.3534   20.9045 C   0  0  0  0  0  0  0  0  0  0  0  0
  -30.9607  -19.9639   20.0067 C   0  0  0  0  0  0  0  0  0  0  0  0
  -30.2613  -17.2781   19.7240 C   0  0  0  0  0  0  0  0  0  0  0  0
  -21.9159   -9.2970   22.6272 C   0  0  0  0  0  0  0  0  0  0  0  0
  -27.7048  -25.5731   19.7313 C   0  0  0  0  0  0  0  0  0  0  0  0
  -21.3137   -7.1967   23.4922 C   0  0  0  0  0  0  0  0  0  0  0  0
  -21.8493   -4.4709   23.7483 C   0  0  0  0  0  0  0  0  0  0  0  0
  -29.3518  -18.2762   19.3741 C   0  0  0  0  0  0  0  0  0  0  0  0
  -20.3867   -6.2582   23.0388 C   0  0  0  0  0  0  0  0  0  0  0  0
  -24.6083  -11.6200   20.3354 C   0  0  0  0  0  0  0  0  0  0  0  0
  -25.4992  -13.0483   18.9207 C   0  0  0  0  0  0  0  0  0  0  0  0
  -32.0622  -24.0195   20.3286 C   0  0  0  0  0  0  0  0  0  0  0  0
  -32.6447  -21.7081   20.0199 C   0  0  0  0  0  0  0  0  0  0  0  0
  -30.7629  -23.7258   20.4732 C   0  0  0  0  0  0  0  0  0  0  0  0
  -33.0304  -22.9844   20.1068 C   0  0  0  0  0  0  0  0  0  0  0  0
  -30.3133  -22.2862   20.4225 C   0  0  0  0  0  0  0  0  0  0  0  0
  -22.9996  -13.0344   18.9119 C   0  0  0  0  0  0  0  0  0  0  0  0
  -25.5405  -30.5315   20.1727 C   0  0  0  0  0  0  0  0  0  0  0  0
  -24.9167  -29.8694   23.2864 C   0  0  0  0  0  0  0  0  0  0  0  0
  -25.1215  -27.6547   25.8748 C   0  0  0  0  0  0  0  0  0  0  0  0
  -30.6958  -14.8017   19.8821 C   0  0  0  0  0  0  0  0  0  0  0  0
  -23.9756  -35.0862   18.4807 C   0  0  0  0  0  0  0  0  0  0  0  0
  -24.3838  -28.2988   19.9906 C   0  0  0  0  0  0  0  0  0  0  0  0
  -26.4710  -28.2860   22.0854 C   0  0  0  0  0  0  0  0  0  0  0  0
  -24.4937  -34.5329   19.8057 C   0  0  0  0  0  0  0  0  0  0  0  0
  -30.1780  -11.2835   19.7056 C   0  0  0  0  0  0  0  0  0  0  0  0
  -25.7671  -33.7228   19.5845 C   0  0  0  0  0  0  0  0  0  0  0  0
  -28.6562  -11.1371   19.7741 C   0  0  0  0  0  0  0  0  0  0  0  0
  -30.6789  -12.4209   20.5939 C   0  0  0  0  0  0  0  0  0  0  0  0
  -28.5061  -13.5714   20.4365 C   0  0  0  0  0  0  0  0  0  0  0  0
  -25.5031  -32.5174   18.6742 C   0  0  1  0  0  0  0  0  0  0  0  0
  -24.6600  -29.5240   20.8565 C   0  0  1  0  0  0  0  0  0  0  0  0
  -27.9483  -12.4802   19.5082 C   0  0  2  0  0  0  0  0  0  0  0  0
  -24.5592  -27.4114   28.3083 C   0  0  0  0  0  0  0  0  0  0  0  0
  -27.2886  -31.6474   24.0097 C   0  0  0  0  0  0  0  0  0  0  0  0
  -27.2672  -30.6267   26.2957 C   0  0  0  0  0  0  0  0  0  0  0  0
  -25.2914  -31.9190   25.4903 C   0  0  0  0  0  0  0  0  0  0  0  0
  -23.3240  -25.3630   25.3495 C   0  0  0  0  0  0  0  0  0  0  0  0
  -29.7197  -24.7589   20.6972 C   0  0  0  0  0  0  0  0  0  1  0  0
  -25.7568  -29.6321   24.5180 C   0  0  1  0  0  0  0  0  0  0  0  0
  -24.0873  -27.1827   26.8808 C   0  0  2  0  0  0  0  0  0  0  0  0
  -26.4036  -30.9399   25.0553 C   0  0  0  0  0  0  0  0  0  0  0  0
  -25.9260  -11.4714   20.4952 N   0  0  0  0  0  0  0  0  0  0  0  0
  -26.4406  -12.3532   19.6212 N   0  0  0  0  0  0  0  0  0  0  0  0
  -31.3128  -21.3160   20.1484 N   0  0  0  0  0  0  0  0  0  0  0  0
  -25.3057  -29.1848   22.1263 N   0  0  0  0  0  0  0  0  0  0  0  0
  -29.9666  -13.6622   20.2827 N   0  0  0  0  0  0  0  0  0  0  0  0
  -25.8435  -13.9747   18.0012 N   0  0  0  0  0  0  0  0  0  0  0  0
  -21.8538  -12.4575   19.4764 N   0  0  0  0  0  0  0  0  0  0  0  0
  -29.9091  -15.9131   19.5810 N   0  0  0  0  0  0  0  0  0  0  0  0
  -24.8511  -31.4583   19.4143 N   0  0  0  0  0  0  0  0  0  0  0  0
  -24.8917  -28.9551   25.4780 N   0  0  0  0  0  0  0  0  0  0  0  0
  -23.8175  -25.7280   26.7024 N   0  3  0  0  0  0  0  0  0  0  0  0
  -29.1238  -22.0150   20.5968 O   0  0  0  0  0  0  0  0  0  0  0  0
  -22.8717  -13.9061   18.0190 O   0  0  0  0  0  0  0  0  0  0  0  0
  -26.7552  -30.4731   20.3233 O   0  0  0  0  0  0  0  0  0  0  0  0
  -23.9467  -30.6286   23.3531 O   0  0  0  0  0  0  0  0  0  0  0  0
  -26.0434  -26.9425   25.4832 O   0  0  0  0  0  0  0  0  0  0  0  0
  -31.9255  -14.7842   19.7851 O   0  0  0  0  0  0  0  0  0  0  0  0
  -34.3324  -23.4045   19.9846 O   0  0  0  0  0  0  0  0  0  0  0  0
  -21.0497   -8.5501   23.3650 O   0  0  0  0  0  0  0  0  0  0  0  0
  -28.7513  -24.7070   19.6504 O   0  0  0  0  0  0  0  0  0  1  0  0
  -22.1073   -3.1621   23.8700 F   0  0  0  0  0  0  0  0  0  0  0  0
  -28.1393  -17.9565   18.8994 F   0  0  0  0  0  0  0  0  0  0  0  0
  -19.2377   -6.6598   22.4783 F   0  0  0  0  0  0  0  0  0  0  0  0
  1  2  1  0  0  0  0
  1  5  2  0  0  0  0
  2  6  2  0  0  0  0
  3 10  2  0  0  0  0
  3 18  1  0  0  0  0
  4 11  1  0  0  0  0
  4 18  2  0  0  0  0
  5 20  1  0  0  0  0
  6 22  1  0  0  0  0
  7 12  2  0  0  0  0
  7 21  1  0  0  0  0
  8  9  2  0  0  0  0
  8 24  1  0  0  0  0
  9 25  1  0  0  0  0
 10 26  1  0  0  0  0
 11 26  2  0  0  0  0
 12 27  1  0  0  0  0
 13 14  2  0  0  0  0
 13 28  1  0  0  0  0
 14 29  1  0  0  0  0
 15 23  1  0  0  0  0
 15 27  2  0  0  0  0
 16 24  2  0  0  0  0
 16 30  1  0  0  0  0
 17 29  2  0  0  0  0
 17 31  1  0  0  0  0
 18 32  1  0  0  0  0
 19 32  1  0  0  0  0
 19 33  2  0  0  0  0
 19 39  1  0  0  0  0
 20 22  2  0  0  0  0
 20 44  1  0  0  0  0
 21 23  2  0  0  0  0
 21 45  1  0  0  0  0
 22 53  1  0  0  0  0
 23 46  1  0  0  0  0
 24 67  1  0  0  0  0
 25 30  2  0  0  0  0
 25 72  1  0  0  0  0
 26 83  1  0  0  0  0
 27 84  1  0  0  0  0
 28 31  2  0  0  0  0
 28 83  1  0  0  0  0
 29 85  1  0  0  0  0
 30 86  1  0  0  0  0
 31 87  1  0  0  0  0
 32 65  2  0  0  0  0
 33 66  1  0  0  0  0
 33 70  1  0  0  0  0
 34 36  2  0  0  0  0
 34 37  1  0  0  0  0
 35 37  2  0  0  0  0
 35 67  1  0  0  0  0
 36 38  1  0  0  0  0
 36 61  1  0  0  0  0
 37 82  1  0  0  0  0
 38 67  1  0  0  0  0
 38 76  2  0  0  0  0
 39 71  1  0  0  0  0
 39 77  2  0  0  0  0
 40 54  1  0  0  0  0
 40 73  1  0  0  0  0
 40 78  2  0  0  0  0
 41 62  1  0  0  0  0
 41 68  1  0  0  0  0
 41 79  2  0  0  0  0
 42 63  1  0  0  0  0
 42 74  1  0  0  0  0
 42 80  2  0  0  0  0
 43 69  1  0  0  0  0
 43 72  1  0  0  0  0
 43 81  2  0  0  0  0
 44 47  1  0  0  0  0
 45 54  1  0  0  0  0
 46 68  1  0  0  0  0
 47 49  1  0  0  0  0
 48 50  1  0  0  0  0
 48 51  1  0  0  0  0
 49 53  1  0  0  0  0
 50 55  1  0  0  0  0
 51 69  1  0  0  0  0
 52 55  1  0  0  0  0
 52 69  1  0  0  0  0
 53 73  1  0  0  0  0
 54 68  1  0  0  0  0
 55 66  1  0  0  0  0
 56 63  1  0  0  0  0
 57 64  1  0  0  0  0
 58 64  1  0  0  0  0
 59 64  1  0  0  0  0
 60 75  1  0  0  0  0
 61 84  1  0  0  0  0
 62 64  1  0  0  0  0
 62 74  1  0  0  0  0
 63 75  1  0  0  0  0
 65 66  1  0  0  0  0
M  CHG  1  75   1
M  ISO  4  43 100  61 101  72 100  84 101
M  END
> <Batch ID>
0090

> <Smiles>
CNC(C)C(=O)NC(C(=O)N1Cc2cc([101O:1][101CH:1]=C3CC(=O)CN(c4ccc([100NH:0][100C:0](=O)N5CCCC(n6nc(-c7ccc(Oc8ccc(F)cc8F)cc7)c(C(N)=O)c6N)C5)c(F)c4)C3=O)ccc2CC1C(=O)NC1CCCc2ccccc21)C(C)(C)C

> <Shape>
0.271

> <Color>
0.102

> <Negative vol penalty>
0.000

$$$$

  -OEChem-04052300293D

 84 93  0     1  0  0  0  0  0999 V2000
  -27.8094  -36.5791   25.3952 C   0  0  0  0  0  0  0  0  0  0  0  0
  -28.3856  -35.6995   24.4844 C   0  0  0  0  0  0  0  0  0  0  0  0
  -23.2927  -10.5315   21.6961 C   0  0  0  0  0  0  0  0  0  0  0  0
  -24.8575   -8.6912   21.7346 C   0  0  0  0  0  0  0  0  0  0  0  0
  -26.7377  -36.1618   26.1834 C   0  0  0  0  0  0  0  0  0  0  0  0
  -27.8911  -34.4014   24.3621 C   0  0  0  0  0  0  0  0  0  0  0  0
  -26.9189  -29.2330   19.4981 C   0  0  0  0  0  0  0  0  0  0  0  0
  -22.2321   -9.6283   21.6267 C   0  0  0  0  0  0  0  0  0  0  0  0
  -23.7969   -7.7879   21.6652 C   0  0  0  0  0  0  0  0  0  0  0  0
  -27.1928  -27.8814   19.2933 C   0  0  0  0  0  0  0  0  0  0  0  0
  -21.5075   -6.4703   23.7732 C   0  0  0  0  0  0  0  0  0  0  0  0
  -21.5394   -5.3689   24.6283 C   0  0  0  0  0  0  0  0  0  0  0  0
  -25.2865  -27.2956   20.6505 C   0  0  0  0  0  0  0  0  0  0  0  0
  -21.5169   -3.8869   22.7203 C   0  0  0  0  0  0  0  0  0  0  0  0
  -28.3287  -22.9173   19.7169 C   0  0  0  0  0  0  0  0  0  0  0  0
  -27.7932  -21.6823   17.9273 C   0  0  0  0  0  0  0  0  0  0  0  0
  -29.4203  -18.9581   21.5667 C   0  0  0  0  0  0  0  0  0  0  0  0
  -24.6054  -10.0630   21.7500 C   0  0  0  0  0  0  0  0  0  0  0  0
  -26.2943  -11.5236   22.9837 C   0  0  0  0  0  0  0  0  0  0  0  0
  -26.2236  -34.8610   26.0637 C   0  0  0  0  0  0  0  0  0  0  0  0
  -25.8314  -29.6266   20.2909 C   0  0  0  0  0  0  0  0  0  0  0  0
  -26.8124  -33.9658   25.1503 C   0  0  0  0  0  0  0  0  0  0  0  0
  -24.9995  -28.6529   20.8617 C   0  0  0  0  0  0  0  0  0  0  0  0
  -27.8801  -23.7799   18.7412 C   0  0  0  0  0  0  0  0  0  0  0  0
  -22.4842   -8.2564   21.6113 C   0  0  0  0  0  0  0  0  0  0  0  0
  -26.3783  -26.9124   19.8719 C   0  0  0  0  0  0  0  0  0  0  0  0
  -21.4803   -6.2802   22.3915 C   0  0  0  0  0  0  0  0  0  0  0  0
  -27.5414  -22.9986   17.6089 C   0  0  0  0  0  0  0  0  0  0  0  0
  -21.5441   -4.0772   24.1019 C   0  0  0  0  0  0  0  0  0  0  0  0
  -21.4850   -4.9884   21.8651 C   0  0  0  0  0  0  0  0  0  0  0  0
  -25.7015  -10.9955   21.8211 C   0  0  0  0  0  0  0  0  0  0  0  0
  -29.0326  -18.3973   20.3679 C   0  0  0  0  0  0  0  0  0  0  0  0
  -27.2839  -12.3542   22.5176 C   0  0  0  0  0  0  0  0  0  0  0  0
  -28.6389  -20.5013   19.8902 C   0  0  0  0  0  0  0  0  0  0  0  0
  -25.9787  -11.2846   24.3617 C   0  0  0  0  0  0  0  0  0  0  0  0
  -25.5035  -31.2650   22.9950 C   0  0  0  0  0  0  0  0  0  0  0  0
  -22.3418  -30.9800   22.3279 C   0  0  0  0  0  0  0  0  0  0  0  0
  -19.8604  -29.2628   20.7339 C   0  0  0  0  0  0  0  0  0  0  0  0
  -28.6684  -16.4576   18.8513 C   0  0  0  0  0  0  0  0  0  0  0  0
  -25.0944  -34.4404   26.9708 C   0  0  0  0  0  0  0  0  0  0  0  0
  -25.5336  -31.0888   20.4802 C   0  0  0  0  0  0  0  0  0  0  0  0
  -23.8075  -29.0233   21.7046 C   0  0  0  0  0  0  0  0  0  0  0  0
  -24.3880  -33.1667   26.5137 C   0  0  0  0  0  0  0  0  0  0  0  0
  -29.2056  -12.9379   17.8851 C   0  0  0  0  0  0  0  0  0  0  0  0
  -25.4077  -32.0960   26.1386 C   0  0  0  0  0  0  0  0  0  0  0  0
  -28.3350  -12.1745   18.8818 C   0  0  0  0  0  0  0  0  0  0  0  0
  -28.6449  -14.3258   17.5896 C   0  0  0  0  0  0  0  0  0  0  0  0
  -27.5443  -14.3893   19.8065 C   0  0  0  0  0  0  0  0  0  0  0  0
  -26.2881  -32.5576   24.9710 C   0  0  1  0  0  0  0  0  0  0  0  0
  -24.7030  -31.3728   21.7280 C   0  0  1  0  0  0  0  0  0  0  0  0
  -28.1062  -13.0033   20.1576 C   0  0  1  0  0  0  0  0  0  0  0  0
  -17.3724  -29.2467   20.4068 C   0  0  0  0  0  0  0  0  0  0  0  0
  -21.9838  -29.8191   25.1268 C   0  0  0  0  0  0  0  0  0  0  0  0
  -19.7430  -28.9632   24.4095 C   0  0  0  0  0  0  0  0  0  0  0  0
  -20.1930  -31.4167   24.4232 C   0  0  0  0  0  0  0  0  0  0  0  0
  -29.7824  -16.1087   21.0437 C   0  0  0  0  0  0  0  0  0  0  0  0
  -20.1257  -29.6433   17.8109 C   0  0  0  0  0  0  0  0  0  0  0  0
  -27.7729  -25.2715   18.8627 C   0  0  0  0  0  0  0  0  0  1  0  0
  -21.2679  -29.9693   22.6507 C   0  0  1  0  0  0  0  0  0  0  0  0
  -18.7077  -29.7330   19.8652 C   0  0  2  0  0  0  0  0  0  0  0  0
  -20.8205  -30.0348   24.1383 C   0  0  0  0  0  0  0  0  0  0  0  0
  -26.2671  -11.4525   20.7007 N   0  0  0  0  0  0  0  0  0  0  0  0
  -28.5838  -19.2806   19.4055 N   0  0  0  0  0  0  0  0  0  0  0  0
  -28.2712  -21.6449   19.2111 N   0  0  0  0  0  0  0  0  0  0  0  0
  -27.2257  -12.2765   21.1571 N   0  0  0  0  0  0  0  0  0  0  0  0
  -23.5616  -30.4660   21.8656 N   0  0  0  0  0  0  0  0  0  0  0  0
  -28.3939  -15.0755   18.8210 N   0  0  0  0  0  0  0  0  0  0  0  0
  -28.1893  -13.1363   23.1428 N   0  0  0  0  0  0  0  0  0  0  0  0
  -24.9325  -10.4024   24.6643 N   0  0  0  0  0  0  0  0  0  0  0  0
  -25.5707  -32.4397   23.7197 N   0  0  0  0  0  0  0  0  0  0  0  0
  -20.1917  -30.1970   21.6925 N   0  0  0  0  0  0  0  0  0  0  0  0
  -29.0776  -16.9797   20.0974 N   0  0  0  0  0  0  0  0  0  0  0  0
  -18.8651  -29.2216   18.4743 N   0  3  0  0  0  0  0  0  0  0  0  0
  -26.5950  -11.8497   25.2968 O   0  0  0  0  0  0  0  0  0  0  0  0
  -26.0206  -30.1950   23.2938 O   0  0  0  0  0  0  0  0  0  0  0  0
  -22.1047  -32.1818   22.4735 O   0  0  0  0  0  0  0  0  0  0  0  0
  -20.4095  -28.1741   20.5801 O   0  0  0  0  0  0  0  0  0  0  0  0
  -28.5832  -17.1620   17.8382 O   0  0  0  0  0  0  0  0  0  0  0  0
  -27.0621  -23.4157   16.4282 O   0  0  0  0  0  0  0  0  0  0  0  0
  -21.4495   -7.3747   21.5439 O   0  0  0  0  0  0  0  0  0  0  0  0
  -26.6437  -25.5925   19.6741 O   0  0  0  0  0  0  0  0  0  1  0  0
  -21.5763   -3.0195   24.9232 F   0  0  0  0  0  0  0  0  0  0  0  0
  -21.4601   -4.7994   20.5387 F   0  0  0  0  0  0  0  0  0  0  0  0
  -29.2209  -20.6601   21.4968 S   0  0  0  0  0  0  0  0  0  0  0  0
  1  2  1  0  0  0  0
  1  5  2  0  0  0  0
  2  6  2  0  0  0  0
  3  8  2  0  0  0  0
  3 18  1  0  0  0  0
  4  9  1  0  0  0  0
  4 18  2  0  0  0  0
  5 20  1  0  0  0  0
  6 22  1  0  0  0  0
  7 10  2  0  0  0  0
  7 21  1  0  0  0  0
  8 25  1  0  0  0  0
  9 25  2  0  0  0  0
 10 26  1  0  0  0  0
 11 12  2  0  0  0  0
 11 27  1  0  0  0  0
 12 29  1  0  0  0  0
 13 23  1  0  0  0  0
 13 26  2  0  0  0  0
 14 29  2  0  0  0  0
 14 30  1  0  0  0  0
 15 24  2  0  0  0  0
 15 64  1  0  0  0  0
 16 28  2  0  0  0  0
 16 64  1  0  0  0  0
 17 32  2  0  0  0  0
 17 84  1  0  0  0  0
 18 31  1  0  0  0  0
 19 31  1  0  0  0  0
 19 33  2  0  0  0  0
 19 35  1  0  0  0  0
 20 22  2  0  0  0  0
 20 40  1  0  0  0  0
 21 23  2  0  0  0  0
 21 41  1  0  0  0  0
 22 49  1  0  0  0  0
 23 42  1  0  0  0  0
 24 28  1  0  0  0  0
 24 58  1  0  0  0  0
 25 80  1  0  0  0  0
 26 81  1  0  0  0  0
 27 30  2  0  0  0  0
 27 80  1  0  0  0  0
 28 79  1  0  0  0  0
 29 82  1  0  0  0  0
 30 83  1  0  0  0  0
 31 62  2  0  0  0  0
 32 63  1  0  0  0  0
 32 72  1  0  0  0  0
 33 65  1  0  0  0  0
 33 68  1  0  0  0  0
 34 63  2  0  0  0  0
 34 64  1  0  0  0  0
 34 84  1  0  0  0  0
 35 69  1  0  0  0  0
 35 74  2  0  0  0  0
 36 50  1  0  0  0  0
 36 70  1  0  0  0  0
 36 75  2  0  0  0  0
 37 59  1  0  0  0  0
 37 66  1  0  0  0  0
 37 76  2  0  0  0  0
 38 60  1  0  0  0  0
 38 71  1  0  0  0  0
 38 77  2  0  0  0  0
 39 67  1  0  0  0  0
 39 72  1  0  0  0  0
 39 78  2  0  0  0  0
 40 43  1  0  0  0  0
 41 50  1  0  0  0  0
 42 66  1  0  0  0  0
 43 45  1  0  0  0  0
 44 46  1  0  0  0  0
 44 47  1  0  0  0  0
 45 49  1  0  0  0  0
 46 51  1  0  0  0  0
 47 67  1  0  0  0  0
 48 51  1  0  0  0  0
 48 67  1  0  0  0  0
 49 70  1  0  0  0  0
 50 66  1  0  0  0  0
 51 65  1  0  0  0  0
 52 60  1  0  0  0  0
 53 61  1  0  0  0  0
 54 61  1  0  0  0  0
 55 61  1  0  0  0  0
 56 72  1  0  0  0  0
 57 73  1  0  0  0  0
 58 81  1  0  0  0  0
 59 61  1  0  0  0  0
 59 71  1  0  0  0  0
 60 73  1  0  0  0  0
 62 65  1  0  0  0  0
M  CHG  1  73   1
M  ISO  4  39 100  58 101  72 100  81 101
M  END
> <Batch ID>
0090

> <Smiles>
CNC(C)C(=O)NC(C(=O)N1Cc2cc([101O:1][101CH2:1]C3=CN(c4nc([100N:0](C)[100C:0](=O)N5CCCC(n6nc(-c7ccc(Oc8ccc(F)cc8F)cc7)c(C(N)=O)c6N)C5)cs4)CC3=O)ccc2CC1C(=O)NC1CCCc2ccccc21)C(C)(C)C

> <Shape>
0.342

> <Color>
0.109

> <Negative vol penalty>
0.000

$$$$

  -OEChem-04052300293D

 85 93  0     1  0  0  0  0  0999 V2000
  -15.3860  -24.4162   21.3372 C   0  0  0  0  0  0  0  0  0  0  0  0
  -16.7110  -23.9936   21.3713 C   0  0  0  0  0  0  0  0  0  0  0  0
  -23.0604   -9.8897   19.9433 C   0  0  0  0  0  0  0  0  0  0  0  0
  -23.8333   -9.8789   22.2323 C   0  0  0  0  0  0  0  0  0  0  0  0
  -15.0685  -25.7371   21.6507 C   0  0  0  0  0  0  0  0  0  0  0  0
  -17.7195  -24.8920   21.7179 C   0  0  0  0  0  0  0  0  0  0  0  0
  -21.0463  -22.9133   24.9832 C   0  0  0  0  0  0  0  0  0  0  0  0
  -22.3108   -8.7398   20.1910 C   0  0  0  0  0  0  0  0  0  0  0  0
  -23.0837   -8.7290   22.4800 C   0  0  0  0  0  0  0  0  0  0  0  0
  -22.0071  -22.0455   24.4659 C   0  0  0  0  0  0  0  0  0  0  0  0
  -19.8541   -7.9478   23.0965 C   0  0  0  0  0  0  0  0  0  0  0  0
  -19.1036   -7.9059   24.2714 C   0  0  0  0  0  0  0  0  0  0  0  0
  -29.9289  -17.4189   23.1451 C   0  0  0  0  0  0  0  0  0  0  0  0
  -31.9140  -18.3027   24.2011 C   0  0  0  0  0  0  0  0  0  0  0  0
  -23.6225  -23.8371   24.4771 C   0  0  0  0  0  0  0  0  0  0  0  0
  -32.1042  -16.5603   22.5384 C   0  0  0  0  0  0  0  0  0  0  0  0
  -20.3370   -5.9566   24.9897 C   0  0  0  0  0  0  0  0  0  0  0  0
  -23.8217  -10.4593   20.9640 C   0  0  0  0  0  0  0  0  0  0  0  0
  -30.5272  -18.2943   24.0514 C   0  0  0  0  0  0  0  0  0  0  0  0
  -24.1786  -12.9829   20.8563 C   0  0  0  0  0  0  0  0  0  0  0  0
  -16.0726  -26.6497   22.0107 C   0  0  0  0  0  0  0  0  0  0  0  0
  -21.3639  -24.2545   25.2415 C   0  0  0  0  0  0  0  0  0  0  0  0
  -17.4153  -26.2268   22.0352 C   0  0  0  0  0  0  0  0  0  0  0  0
  -22.6646  -24.7192   25.0001 C   0  0  0  0  0  0  0  0  0  0  0  0
  -30.7174  -16.5519   22.3886 C   0  0  0  0  0  0  0  0  0  0  0  0
  -22.3224   -8.1594   21.4593 C   0  0  0  0  0  0  0  0  0  0  0  0
  -23.2946  -22.5081   24.2100 C   0  0  0  0  0  0  0  0  0  0  0  0
  -20.8460   -6.9941   22.8681 C   0  0  0  0  0  0  0  0  0  0  0  0
  -19.3451   -6.9103   25.2181 C   0  0  0  0  0  0  0  0  0  0  0  0
  -32.7025  -17.4357   23.4446 C   0  0  0  0  0  0  0  0  0  0  0  0
  -21.0875   -5.9985   23.8147 C   0  0  0  0  0  0  0  0  0  0  0  0
  -24.5968  -11.6468   20.7086 C   0  0  0  0  0  0  0  0  0  0  0  0
  -25.2734  -13.7276   20.4911 C   0  0  0  0  0  0  0  0  0  0  0  0
  -26.3484  -20.6409   24.0282 C   0  0  0  0  0  0  0  0  0  0  0  0
  -25.3685  -21.4504   24.4365 C   0  0  0  0  0  0  0  0  0  1  0  0
  -29.6880  -19.2158   24.8590 C   0  0  0  0  0  0  0  0  0  0  0  0
  -22.9138  -13.5042   21.2854 C   0  0  0  0  0  0  0  0  0  0  0  0
  -27.5577  -20.4547   24.8751 C   0  0  0  0  0  0  0  0  0  0  0  0
  -20.3304  -27.0549   24.1492 C   0  0  0  0  0  0  0  0  0  0  0  0
  -22.2803  -28.2343   26.4578 C   0  0  0  0  0  0  0  0  0  0  0  0
  -24.9940  -27.7690   28.4744 C   0  0  0  0  0  0  0  0  0  0  0  0
  -30.7469  -14.7382   20.6404 C   0  0  0  0  0  0  0  0  0  0  0  0
  -15.6859  -28.0794   22.2954 C   0  0  0  0  0  0  0  0  0  0  0  0
  -20.3235  -25.1711   25.8246 C   0  0  0  0  0  0  0  0  0  0  0  0
  -23.0620  -26.1449   25.2792 C   0  0  0  0  0  0  0  0  0  0  0  0
  -16.7729  -28.8724   23.0165 C   0  0  0  0  0  0  0  0  0  0  0  0
  -29.6040  -12.3449   18.2649 C   0  0  0  0  0  0  0  0  0  0  0  0
  -18.1286  -28.6421   22.3562 C   0  0  0  0  0  0  0  0  0  0  0  0
  -28.1650  -12.0599   18.7010 C   0  0  0  0  0  0  0  0  0  0  0  0
  -30.5273  -12.5612   19.4626 C   0  0  0  0  0  0  0  0  0  0  0  0
  -28.6328  -13.2896   20.8588 C   0  0  0  0  0  0  0  0  0  0  0  0
  -18.5347  -27.1653   22.4305 C   0  0  1  0  0  0  0  0  0  0  0  0
  -20.6148  -26.6462   25.5669 C   0  0  1  0  0  0  0  0  0  0  0  0
  -27.6522  -13.1291   19.6856 C   0  0  2  0  0  0  0  0  0  0  0  0
  -26.3661  -28.9256   30.2285 C   0  0  0  0  0  0  0  0  0  0  0  0
  -23.5956  -29.9429   24.2989 C   0  0  0  0  0  0  0  0  0  0  0  0
  -25.5078  -30.3295   25.8680 C   0  0  0  0  0  0  0  0  0  0  0  0
  -23.2201  -31.1178   26.4744 C   0  0  0  0  0  0  0  0  0  0  0  0
  -24.3720  -25.6961   30.4930 C   0  0  0  0  0  0  0  0  0  0  0  0
  -23.7322  -28.6425   26.5252 C   0  0  1  0  0  0  0  0  0  0  0  0
  -25.1937  -27.9943   29.9622 C   0  0  2  0  0  0  0  0  0  0  0  0
  -24.0062  -29.9817   25.7844 C   0  0  0  0  0  0  0  0  0  0  0  0
  -25.8586  -11.5455   20.2825 N   0  0  0  0  0  0  0  0  0  0  0  0
  -26.2428  -12.8274   20.1593 N   0  0  0  0  0  0  0  0  0  0  0  0
  -22.0077  -27.0040   25.8431 N   0  0  0  0  0  0  0  0  0  0  0  0
  -29.9798  -13.5904   20.3490 N   0  0  0  0  0  0  0  0  0  0  0  0
  -25.4917  -15.0581   20.4244 N   0  0  0  0  0  0  0  0  0  0  0  0
  -21.8982  -12.5994   21.6233 N   0  0  0  0  0  0  0  0  0  0  0  0
  -30.1100  -15.6626   21.4678 N   0  0  0  0  0  0  0  0  0  0  0  0
  -28.4683  -19.5779   24.2887 N   0  0  0  0  0  0  0  0  0  0  0  0
  -19.0238  -26.8415   23.7535 N   0  0  0  0  0  0  0  0  0  0  0  0
  -24.0863  -28.6591   27.9403 N   0  0  0  0  0  0  0  0  0  0  0  0
  -25.4561  -26.6994   30.6516 N   0  3  0  0  0  0  0  0  0  0  0  0
  -30.1122  -19.6180   25.9390 O   0  0  0  0  0  0  0  0  0  0  0  0
  -22.6856  -14.7359   21.3511 O   0  0  0  0  0  0  0  0  0  0  0  0
  -27.6979  -21.0205   25.9545 O   0  0  0  0  0  0  0  0  0  0  0  0
  -21.2295  -27.5302   23.4655 O   0  0  0  0  0  0  0  0  0  0  0  0
  -21.4206  -28.9762   26.9393 O   0  0  0  0  0  0  0  0  0  0  0  0
  -25.5869  -26.8936   27.8477 O   0  0  0  0  0  0  0  0  0  0  0  0
  -31.8743  -14.9026   20.1673 O   0  0  0  0  0  0  0  0  0  0  0  0
  -21.5908   -7.0375   21.7014 O   0  0  0  0  0  0  0  0  0  0  0  0
  -24.2342  -21.6634   23.7045 O   0  0  0  0  0  0  0  0  0  1  0  0
  -18.6253   -6.8711   26.3471 F   0  0  0  0  0  0  0  0  0  0  0  0
  -34.0339  -17.4416   23.5905 F   0  0  0  0  0  0  0  0  0  0  0  0
  -22.0399   -5.0802   23.6014 F   0  0  0  0  0  0  0  0  0  0  0  0
  1  2  1  0  0  0  0
  1  5  2  0  0  0  0
  2  6  2  0  0  0  0
  3  8  2  0  0  0  0
  3 18  1  0  0  0  0
  4  9  1  0  0  0  0
  4 18  2  0  0  0  0
  5 21  1  0  0  0  0
  6 23  1  0  0  0  0
  7 10  2  0  0  0  0
  7 22  1  0  0  0  0
  8 26  1  0  0  0  0
  9 26  2  0  0  0  0
 10 27  1  0  0  0  0
 11 12  2  0  0  0  0
 11 28  1  0  0  0  0
 12 29  1  0  0  0  0
 13 19  2  0  0  0  0
 13 25  1  0  0  0  0
 14 19  1  0  0  0  0
 14 30  2  0  0  0  0
 15 24  1  0  0  0  0
 15 27  2  0  0  0  0
 16 25  2  0  0  0  0
 16 30  1  0  0  0  0
 17 29  2  0  0  0  0
 17 31  1  0  0  0  0
 18 32  1  0  0  0  0
 19 36  1  0  0  0  0
 20 32  1  0  0  0  0
 20 33  2  0  0  0  0
 20 37  1  0  0  0  0
 21 23  2  0  0  0  0
 21 43  1  0  0  0  0
 22 24  2  0  0  0  0
 22 44  1  0  0  0  0
 23 52  1  0  0  0  0
 24 45  1  0  0  0  0
 25 69  1  0  0  0  0
 26 81  1  0  0  0  0
 27 82  1  0  0  0  0
 28 31  2  0  0  0  0
 28 81  1  0  0  0  0
 29 83  1  0  0  0  0
 30 84  1  0  0  0  0
 31 85  1  0  0  0  0
 32 63  2  0  0  0  0
 33 64  1  0  0  0  0
 33 67  1  0  0  0  0
 34 35  2  0  0  0  0
 34 38  1  0  0  0  0
 35 82  1  0  0  0  0
 36 70  1  0  0  0  0
 36 74  2  0  0  0  0
 37 68  1  0  0  0  0
 37 75  2  0  0  0  0
 38 70  1  0  0  0  0
 38 76  2  0  0  0  0
 39 53  1  0  0  0  0
 39 71  1  0  0  0  0
 39 77  2  0  0  0  0
 40 60  1  0  0  0  0
 40 65  1  0  0  0  0
 40 78  2  0  0  0  0
 41 61  1  0  0  0  0
 41 72  1  0  0  0  0
 41 79  2  0  0  0  0
 42 66  1  0  0  0  0
 42 69  1  0  0  0  0
 42 80  2  0  0  0  0
 43 46  1  0  0  0  0
 44 53  1  0  0  0  0
 45 65  1  0  0  0  0
 46 48  1  0  0  0  0
 47 49  1  0  0  0  0
 47 50  1  0  0  0  0
 48 52  1  0  0  0  0
 49 54  1  0  0  0  0
 50 66  1  0  0  0  0
 51 54  1  0  0  0  0
 51 66  1  0  0  0  0
 52 71  1  0  0  0  0
 53 65  1  0  0  0  0
 54 64  1  0  0  0  0
 55 61  1  0  0  0  0
 56 62  1  0  0  0  0
 57 62  1  0  0  0  0
 58 62  1  0  0  0  0
 59 73  1  0  0  0  0
 60 62  1  0  0  0  0
 60 72  1  0  0  0  0
 61 73  1  0  0  0  0
 63 64  1  0  0  0  0
M  CHG  1  73   1
M  ISO  4  35 101  42 100  69 100  82 101
M  END
> <Batch ID>
0090

> <Smiles>
CNC(C)C(=O)NC(C(=O)N1Cc2cc([101O:1][101CH:1]=CC(=O)NC(=O)c3cc(F)cc([100NH:0][100C:0](=O)N4CCCC(n5nc(-c6ccc(Oc7ccc(F)cc7F)cc6)c(C(N)=O)c5N)C4)c3)ccc2CC1C(=O)NC1CCCc2ccccc21)C(C)(C)C

> <Shape>
0.231

> <Color>
0.188

> <Negative vol penalty>
0.000

$$$$

  -OEChem-04052300292D

  0  0  0     0  0  0  0  0  0999 V2000
M  END
$$$$

  -OEChem-04052300293D

 84 92  0     1  0  0  0  0  0999 V2000
  -16.7598  -30.1772   24.2049 C   0  0  0  0  0  0  0  0  0  0  0  0
  -17.9595  -30.6182   24.7541 C   0  0  0  0  0  0  0  0  0  0  0  0
  -34.2690  -28.1548   28.5115 C   0  0  0  0  0  0  0  0  0  0  0  0
  -29.3506  -22.9911   22.2967 C   0  0  0  0  0  0  0  0  0  0  0  0
  -27.4081  -21.5609   22.4320 C   0  0  0  0  0  0  0  0  0  0  0  0
  -33.3851  -27.5510   29.4058 C   0  0  0  0  0  0  0  0  0  0  0  0
  -16.7598  -29.1342   23.2797 C   0  0  0  0  0  0  0  0  0  0  0  0
  -19.1598  -30.0156   24.3792 C   0  0  0  0  0  0  0  0  0  0  0  0
  -26.0865  -31.5302   23.3573 C   0  0  0  0  0  0  0  0  0  0  0  0
  -33.8987  -28.3340   27.1787 C   0  0  0  0  0  0  0  0  0  0  0  0
  -29.9003  -22.1528   21.3269 C   0  0  0  0  0  0  0  0  0  0  0  0
  -27.9578  -20.7226   21.4621 C   0  0  0  0  0  0  0  0  0  0  0  0
  -27.3530  -31.0884   23.7373 C   0  0  0  0  0  0  0  0  0  0  0  0
  -30.2971  -18.2863   21.3109 C   0  0  0  0  0  0  0  0  0  0  0  0
  -30.2407  -16.9109   21.5359 C   0  0  0  0  0  0  0  0  0  0  0  0
  -31.7607  -27.3053   27.6343 C   0  0  0  0  0  0  0  0  0  0  0  0
  -27.2393  -29.3479   22.0708 C   0  0  0  0  0  0  0  0  0  0  0  0
  -28.9549  -16.6322   19.5095 C   0  0  0  0  0  0  0  0  0  0  0  0
  -28.1045  -22.6952   22.8493 C   0  0  0  0  0  0  0  0  0  0  0  0
  -32.1310  -27.1261   28.9672 C   0  0  0  0  0  0  0  0  0  0  0  0
  -26.7016  -24.6739   23.6392 C   0  0  0  0  0  0  0  0  0  0  0  0
  -17.9616  -28.5249   22.8860 C   0  0  0  0  0  0  0  0  0  0  0  0
  -25.3810  -30.8763   22.3369 C   0  0  0  0  0  0  0  0  0  0  0  0
  -19.1757  -28.9626   23.4489 C   0  0  0  0  0  0  0  0  0  0  0  0
  -25.9650  -29.7850   21.6780 C   0  0  0  0  0  0  0  0  0  0  0  0
  -32.6446  -27.9092   26.7401 C   0  0  0  0  0  0  0  0  0  0  0  0
  -29.2039  -21.0185   20.9095 C   0  0  0  0  0  0  0  0  0  0  0  0
  -27.9284  -29.9953   23.0960 C   0  0  0  0  0  0  0  0  0  0  0  0
  -29.6824  -18.8347   20.1853 C   0  0  0  0  0  0  0  0  0  0  0  0
  -29.5696  -16.0838   20.6351 C   0  0  0  0  0  0  0  0  0  0  0  0
  -29.0113  -18.0077   19.2846 C   0  0  0  0  0  0  0  0  0  0  0  0
  -27.5364  -23.5605   23.8516 C   0  0  0  0  0  0  0  0  0  0  0  0
  -26.4375  -25.1505   24.8999 C   0  0  0  0  0  0  0  0  0  0  0  0
  -31.1907  -26.4832   29.9208 C   0  0  0  0  0  0  0  0  0  0  0  0
  -26.2089  -25.2278   22.4119 C   0  0  0  0  0  0  0  0  0  0  0  0
  -22.6254  -29.3009   22.1689 C   0  0  0  0  0  0  0  0  0  0  0  0
  -23.2912  -29.2582   18.9944 C   0  0  0  0  0  0  0  0  0  0  0  0
  -31.0671  -27.7305   24.7847 C   0  0  0  0  0  0  0  0  0  0  0  0
  -25.6411  -29.4166   16.5247 C   0  0  0  0  0  0  0  0  0  0  0  0
  -29.3342  -24.8549   30.0819 C   0  0  0  0  0  0  0  0  0  0  0  0
  -17.9069  -27.3694   21.9183 C   0  0  0  0  0  0  0  0  0  0  0  0
  -24.0269  -31.3818   21.9206 C   0  0  0  0  0  0  0  0  0  0  0  0
  -25.2577  -29.0610   20.5627 C   0  0  0  0  0  0  0  0  0  0  0  0
  -19.2583  -27.0346   21.2923 C   0  0  0  0  0  0  0  0  0  0  0  0
  -26.0551  -23.6947   29.4510 C   0  0  0  0  0  0  0  0  0  0  0  0
  -20.3452  -26.9888   22.3616 C   0  0  0  0  0  0  0  0  0  0  0  0
  -25.9779  -23.6437   27.9227 C   0  0  0  0  0  0  0  0  0  0  0  0
  -27.4307  -23.2711   29.9641 C   0  0  0  0  0  0  0  0  0  0  0  0
  -28.4870  -23.9294   27.8407 C   0  0  0  0  0  0  0  0  0  0  0  0
  -20.5008  -28.3508   23.0488 C   0  0  1  0  0  0  0  0  0  0  0  0
  -23.1835  -30.3220   21.2184 C   0  0  1  0  0  0  0  0  0  0  0  0
  -27.1439  -24.4142   27.2714 C   0  0  1  0  0  0  0  0  0  0  0  0
  -25.8862  -29.3144   14.0293 C   0  0  0  0  0  0  0  0  0  0  0  0
  -22.9173  -26.2313   19.0841 C   0  0  0  0  0  0  0  0  0  0  0  0
  -24.0779  -26.0923   16.8701 C   0  0  0  0  0  0  0  0  0  0  0  0
  -21.9305  -27.3452   17.0741 C   0  0  0  0  0  0  0  0  0  0  0  0
  -26.7561  -32.1555   16.4058 C   0  0  0  0  0  0  0  0  0  0  0  0
  -31.0767  -28.1088   23.3079 C   0  0  0  0  0  0  0  0  0  0  0  0
  -29.6935  -28.4360   22.7659 C   0  0  0  0  0  0  0  0  0  1  0  0
  -24.0371  -28.3255   18.0710 C   0  0  1  0  0  0  0  0  0  0  0  0
  -25.6967  -30.2188   15.2371 C   0  0  2  0  0  0  0  0  0  0  0  0
  -23.2535  -27.0108   17.7971 C   0  0  0  0  0  0  0  0  0  0  0  0
  -27.7862  -23.3427   25.1455 N   0  0  0  0  0  0  0  0  0  0  0  0
  -27.1044  -24.3259   25.7575 N   0  0  0  0  0  0  0  0  0  0  0  0
  -23.9332  -29.5891   20.1962 N   0  0  0  0  0  0  0  0  0  0  0  0
  -28.4784  -24.0537   29.3060 N   0  0  0  0  0  0  0  0  0  0  0  0
  -25.7021  -26.1904   25.3476 N   0  0  0  0  0  0  0  0  0  0  0  0
  -26.5773  -24.6147   21.2067 N   0  0  0  0  0  0  0  0  0  0  0  0
  -32.2690  -28.0913   25.3878 N   0  0  0  0  0  0  0  0  0  0  0  0
  -30.2734  -25.5963   29.3564 N   0  0  0  0  0  0  0  0  0  0  0  0
  -21.2446  -29.2609   22.2044 N   0  0  0  0  0  0  0  0  0  0  0  0
  -24.3454  -29.0981   16.8724 N   0  0  0  0  0  0  0  0  0  0  0  0
  -26.8271  -31.1891   15.2797 N   0  3  0  0  0  0  0  0  0  0  0  0
  -31.2940  -26.7282   31.1196 O   0  0  0  0  0  0  0  0  0  0  0  0
  -25.4773  -26.2464   22.3840 O   0  0  0  0  0  0  0  0  0  0  0  0
  -23.3908  -28.6001   22.8206 O   0  0  0  0  0  0  0  0  0  0  0  0
  -22.1830  -29.6833   18.6586 O   0  0  0  0  0  0  0  0  0  0  0  0
  -30.1040  -27.1845   25.3125 O   0  0  0  0  0  0  0  0  0  0  0  0
  -26.6468  -29.1007   17.1566 O   0  0  0  0  0  0  0  0  0  0  0  0
  -29.2454  -24.9332   31.3113 O   0  0  0  0  0  0  0  0  0  0  0  0
  -29.7399  -20.2004   19.9630 O   0  0  0  0  0  0  0  0  0  0  0  0
  -29.1643  -29.5616   23.4654 O   0  0  0  0  0  0  0  0  0  1  0  0
  -29.5169  -14.7628   20.8504 F   0  0  0  0  0  0  0  0  0  0  0  0
  -28.4198  -18.5287   18.2008 F   0  0  0  0  0  0  0  0  0  0  0  0
  1  2  1  0  0  0  0
  1  7  2  0  0  0  0
  2  8  2  0  0  0  0
  3  6  1  0  0  0  0
  3 10  2  0  0  0  0
  4 11  2  0  0  0  0
  4 19  1  0  0  0  0
  5 12  1  0  0  0  0
  5 19  2  0  0  0  0
  6 20  2  0  0  0  0
  7 22  1  0  0  0  0
  8 24  1  0  0  0  0
  9 13  2  0  0  0  0
  9 23  1  0  0  0  0
 10 26  1  0  0  0  0
 11 27  1  0  0  0  0
 12 27  2  0  0  0  0
 13 28  1  0  0  0  0
 14 15  2  0  0  0  0
 14 29  1  0  0  0  0
 15 30  1  0  0  0  0
 16 20  1  0  0  0  0
 16 26  2  0  0  0  0
 17 25  1  0  0  0  0
 17 28  2  0  0  0  0
 18 30  2  0  0  0  0
 18 31  1  0  0  0  0
 19 32  1  0  0  0  0
 20 34  1  0  0  0  0
 21 32  1  0  0  0  0
 21 33  2  0  0  0  0
 21 35  1  0  0  0  0
 22 24  2  0  0  0  0
 22 41  1  0  0  0  0
 23 25  2  0  0  0  0
 23 42  1  0  0  0  0
 24 50  1  0  0  0  0
 25 43  1  0  0  0  0
 26 69  1  0  0  0  0
 27 81  1  0  0  0  0
 28 82  1  0  0  0  0
 29 31  2  0  0  0  0
 29 81  1  0  0  0  0
 30 83  1  0  0  0  0
 31 84  1  0  0  0  0
 32 63  2  0  0  0  0
 33 64  1  0  0  0  0
 33 67  1  0  0  0  0
 34 70  1  0  0  0  0
 34 74  2  0  0  0  0
 35 68  1  0  0  0  0
 35 75  2  0  0  0  0
 36 51  1  0  0  0  0
 36 71  1  0  0  0  0
 36 76  2  0  0  0  0
 37 60  1  0  0  0  0
 37 65  1  0  0  0  0
 37 77  2  0  0  0  0
 38 58  1  0  0  0  0
 38 69  1  0  0  0  0
 38 78  2  0  0  0  0
 39 61  1  0  0  0  0
 39 72  1  0  0  0  0
 39 79  2  0  0  0  0
 40 66  1  0  0  0  0
 40 70  1  0  0  0  0
 40 80  2  0  0  0  0
 41 44  1  0  0  0  0
 42 51  1  0  0  0  0
 43 65  1  0  0  0  0
 44 46  1  0  0  0  0
 45 47  1  0  0  0  0
 45 48  1  0  0  0  0
 46 50  1  0  0  0  0
 47 52  1  0  0  0  0
 48 66  1  0  0  0  0
 49 52  1  0  0  0  0
 49 66  1  0  0  0  0
 50 71  1  0  0  0  0
 51 65  1  0  0  0  0
 52 64  1  0  0  0  0
 53 61  1  0  0  0  0
 54 62  1  0  0  0  0
 55 62  1  0  0  0  0
 56 62  1  0  0  0  0
 57 73  1  0  0  0  0
 58 59  1  0  0  0  0
 59 82  1  0  0  0  0
 60 62  1  0  0  0  0
 60 72  1  0  0  0  0
 61 73  1  0  0  0  0
 63 64  1  0  0  0  0
M  CHG  1  73   1
M  ISO  4  40 100  59 101  70 100  82 101
M  END
> <Batch ID>
0090

> <Smiles>
CNC(C)C(=O)NC(C(=O)N1Cc2cc([101O:1][101CH2:1]CC(=O)Nc3cccc(C(=O)[100NH:0][100C:0](=O)N4CCCC(n5nc(-c6ccc(Oc7ccc(F)cc7F)cc6)c(C(N)=O)c5N)C4)c3)ccc2CC1C(=O)NC1CCCc2ccccc21)C(C)(C)C

> <Shape>
0.206

> <Color>
0.100

> <Negative vol penalty>
0.000

$$$$

  -OEChem-04052300293D

 87 96  0     1  0  0  0  0  0999 V2000
  -21.6919  -12.1075   20.2569 C   0  0  0  0  0  0  0  0  0  0  0  0
  -21.5934  -13.4369   20.6549 C   0  0  0  0  0  0  0  0  0  0  0  0
  -29.4773  -28.2137   25.3630 C   0  0  0  0  0  0  0  0  0  0  0  0
  -28.1003  -26.2700   24.9596 C   0  0  0  0  0  0  0  0  0  0  0  0
  -22.9419  -11.4947   20.1807 C   0  0  0  0  0  0  0  0  0  0  0  0
  -22.7448  -14.1540   20.9780 C   0  0  0  0  0  0  0  0  0  0  0  0
  -22.7784  -18.7930   18.9473 C   0  0  0  0  0  0  0  0  0  0  0  0
  -30.0349  -27.5874   26.4776 C   0  0  0  0  0  0  0  0  0  0  0  0
  -28.6580  -25.6436   26.0742 C   0  0  0  0  0  0  0  0  0  0  0  0
  -22.0040  -19.7681   19.5743 C   0  0  0  0  0  0  0  0  0  0  0  0
  -31.5164  -24.0130   26.8429 C   0  0  0  0  0  0  0  0  0  0  0  0
  -31.9050  -22.6802   26.7086 C   0  0  0  0  0  0  0  0  0  0  0  0
  -23.9787  -20.6307   20.6586 C   0  0  0  0  0  0  0  0  0  0  0  0
  -18.1211  -26.8634   22.8212 C   0  0  0  0  0  0  0  0  0  0  0  0
  -19.2853  -28.9801   22.7868 C   0  0  0  0  0  0  0  0  0  0  0  0
  -30.3700  -22.0555   28.4666 C   0  0  0  0  0  0  0  0  0  0  0  0
  -28.5100  -27.5550   24.6040 C   0  0  0  0  0  0  0  0  0  0  0  0
  -28.3984  -28.1474   22.1252 C   0  0  0  0  0  0  0  0  0  0  0  0
  -24.1101  -12.2074   20.4937 C   0  0  0  0  0  0  0  0  0  0  0  0
  -24.1594  -18.7224   19.1801 C   0  0  0  0  0  0  0  0  0  0  0  0
  -24.0115  -13.5497   20.9072 C   0  0  0  0  0  0  0  0  0  0  0  0
  -24.7688  -19.6553   20.0313 C   0  0  0  0  0  0  0  0  0  0  0  0
  -19.2944  -26.2119   22.4410 C   0  0  0  0  0  0  0  0  0  0  0  0
  -18.1165  -28.2475   22.9940 C   0  0  0  0  0  0  0  0  0  0  0  0
  -20.4586  -28.3287   22.4066 C   0  0  0  0  0  0  0  0  0  0  0  0
  -29.6253  -26.3023   26.8332 C   0  0  0  0  0  0  0  0  0  0  0  0
  -22.6036  -20.6853   20.4323 C   0  0  0  0  0  0  0  0  0  0  0  0
  -30.5547  -24.3672   27.7891 C   0  0  0  0  0  0  0  0  0  0  0  0
  -31.3318  -21.7014   27.5204 C   0  0  0  0  0  0  0  0  0  0  0  0
  -29.9814  -23.3884   28.6009 C   0  0  0  0  0  0  0  0  0  0  0  0
  -20.4632  -26.9445   22.2337 C   0  0  0  0  0  0  0  0  0  0  0  0
  -27.9332  -28.2017   23.4528 C   0  0  0  0  0  0  0  0  0  0  0  0
  -27.5109  -28.9217   21.4186 C   0  0  0  0  0  0  0  0  0  0  0  0
  -18.8177  -22.6014   22.4592 C   0  0  0  0  0  0  0  0  0  0  0  0
  -19.7795  -22.7107   21.5450 C   0  0  0  0  0  0  0  0  0  0  0  0
  -18.4890  -23.9460   22.9534 C   0  0  0  0  0  0  0  0  0  0  0  0
  -20.1073  -24.1413   21.3904 C   0  0  0  0  0  0  0  0  0  0  0  0
  -29.5313  -27.4586   21.5796 C   0  0  0  0  0  0  0  0  0  0  0  0
  -26.1166  -16.5474   20.4221 C   0  0  0  0  0  0  0  0  0  0  0  0
  -28.4102  -18.6318   19.4644 C   0  0  0  0  0  0  0  0  0  0  0  0
  -29.2586  -21.8389   18.6631 C   0  0  0  0  0  0  0  0  0  0  0  0
  -21.8074  -30.4548   22.3266 C   0  0  0  0  0  0  0  0  0  0  0  0
  -25.4349  -11.4885   20.4421 C   0  0  0  0  0  0  0  0  0  0  0  0
  -24.9851  -17.6813   18.4753 C   0  0  0  0  0  0  0  0  0  0  0  0
  -26.2509  -19.6350   20.2989 C   0  0  0  0  0  0  0  0  0  0  0  0
  -26.6381  -12.4280   20.4406 C   0  0  0  0  0  0  0  0  0  0  0  0
  -24.5705  -32.6661   21.9356 C   0  0  0  0  0  0  0  0  0  0  0  0
  -26.4772  -13.5032   21.5106 C   0  0  0  0  0  0  0  0  0  0  0  0
  -25.7888  -31.7660   22.1534 C   0  0  0  0  0  0  0  0  0  0  0  0
  -23.4096  -32.2806   22.8507 C   0  0  0  0  0  0  0  0  0  0  0  0
  -24.2374  -29.9660   23.0136 C   0  0  0  0  0  0  0  0  0  0  0  0
  -25.2397  -14.3680   21.2419 C   0  0  1  0  0  0  0  0  0  0  0  0
  -26.3014  -17.3810   19.1857 C   0  0  1  0  0  0  0  0  0  0  0  0
  -25.4100  -30.2745   22.0683 C   0  0  2  0  0  0  0  0  0  0  0  0
  -31.2163  -23.2406   17.9561 C   0  0  0  0  0  0  0  0  0  0  0  0
  -29.4834  -18.5689   22.3200 C   0  0  0  0  0  0  0  0  0  0  0  0
  -30.7855  -20.6437   21.8022 C   0  0  0  0  0  0  0  0  0  0  0  0
  -31.2432  -18.5393   20.5433 C   0  0  0  0  0  0  0  0  0  0  0  0
  -27.9475  -22.5940   16.1196 C   0  0  0  0  0  0  0  0  0  0  0  0
  -20.4507  -21.6393   20.7655 C   0  0  0  0  0  0  0  0  0  1  0  0
  -29.1080  -19.8152   20.0902 C   0  0  1  0  0  0  0  0  0  0  0  0
  -30.0291  -22.4133   17.4881 C   0  0  2  0  0  0  0  0  0  0  0  0
  -30.1268  -19.3912   21.1856 C   0  0  0  0  0  0  0  0  0  0  0  0
  -26.8356  -28.9514   23.5844 N   0  0  0  0  0  0  0  0  0  0  0  0
  -26.6037  -29.3753   22.3303 N   0  0  0  0  0  0  0  0  0  0  0  0
  -19.2965  -24.8321   22.2700 N   0  0  0  0  0  0  0  0  0  0  0  0
  -27.0144  -18.5940   19.5911 N   0  0  0  0  0  0  0  0  0  0  0  0
  -23.1040  -30.8549   22.7133 N   0  0  0  0  0  0  0  0  0  0  0  0
  -16.9305  -28.9069   23.3789 N   0  0  0  0  0  0  0  0  0  0  0  0
  -27.4260  -29.2521   20.1124 N   0  0  0  0  0  0  0  0  0  0  0  0
  -30.3379  -26.7083   22.4460 N   0  0  0  0  0  0  0  0  0  0  0  0
  -21.6441  -29.0760   22.1971 N   0  0  0  0  0  0  0  0  0  0  0  0
  -25.5112  -15.3267   20.1923 N   0  0  0  0  0  0  0  0  0  0  0  0
  -29.6946  -20.5721   18.9896 N   0  0  0  0  0  0  0  0  0  0  0  0
  -29.1442  -23.2851   16.6648 N   0  3  0  0  0  0  0  0  0  0  0  0
  -17.6470  -24.1663   23.8088 O   0  0  0  0  0  0  0  0  0  0  0  0
  -20.9472  -24.5745   20.6177 O   0  0  0  0  0  0  0  0  0  0  0  0
  -29.8292  -27.5204   20.3627 O   0  0  0  0  0  0  0  0  0  0  0  0
  -26.4966  -16.9791   21.5042 O   0  0  0  0  0  0  0  0  0  0  0  0
  -29.0782  -17.7763   18.8784 O   0  0  0  0  0  0  0  0  0  0  0  0
  -28.3623  -22.4539   19.2366 O   0  0  0  0  0  0  0  0  0  0  0  0
  -20.9157  -31.2764   22.0988 O   0  0  0  0  0  0  0  0  0  0  0  0
  -30.1694  -25.6908   27.9207 O   0  0  0  0  0  0  0  0  0  0  0  0
  -21.8499  -21.6377   21.0461 O   0  0  0  0  0  0  0  0  0  1  0  0
  -31.7040  -20.4213   27.3903 F   0  0  0  0  0  0  0  0  0  0  0  0
  -29.0561  -23.7224   29.5109 F   0  0  0  0  0  0  0  0  0  0  0  0
  -21.5925  -26.3179   21.8696 F   0  0  0  0  0  0  0  0  0  0  0  0
  1  2  1  0  0  0  0
  1  5  2  0  0  0  0
  2  6  2  0  0  0  0
  3  8  2  0  0  0  0
  3 17  1  0  0  0  0
  4  9  1  0  0  0  0
  4 17  2  0  0  0  0
  5 19  1  0  0  0  0
  6 21  1  0  0  0  0
  7 10  2  0  0  0  0
  7 20  1  0  0  0  0
  8 26  1  0  0  0  0
  9 26  2  0  0  0  0
 10 27  1  0  0  0  0
 11 12  2  0  0  0  0
 11 28  1  0  0  0  0
 12 29  1  0  0  0  0
 13 22  1  0  0  0  0
 13 27  2  0  0  0  0
 14 23  1  0  0  0  0
 14 24  2  0  0  0  0
 15 24  1  0  0  0  0
 15 25  2  0  0  0  0
 16 29  2  0  0  0  0
 16 30  1  0  0  0  0
 17 32  1  0  0  0  0
 18 32  1  0  0  0  0
 18 33  2  0  0  0  0
 18 38  1  0  0  0  0
 19 21  2  0  0  0  0
 19 43  1  0  0  0  0
 20 22  2  0  0  0  0
 20 44  1  0  0  0  0
 21 52  1  0  0  0  0
 22 45  1  0  0  0  0
 23 31  2  0  0  0  0
 23 66  1  0  0  0  0
 24 69  1  0  0  0  0
 25 31  1  0  0  0  0
 25 72  1  0  0  0  0
 26 83  1  0  0  0  0
 27 84  1  0  0  0  0
 28 30  2  0  0  0  0
 28 83  1  0  0  0  0
 29 85  1  0  0  0  0
 30 86  1  0  0  0  0
 31 87  1  0  0  0  0
 32 64  2  0  0  0  0
 33 65  1  0  0  0  0
 33 70  1  0  0  0  0
 34 35  2  0  0  0  0
 34 36  1  0  0  0  0
 35 37  1  0  0  0  0
 35 60  1  0  0  0  0
 36 66  1  0  0  0  0
 36 76  2  0  0  0  0
 37 66  1  0  0  0  0
 37 77  2  0  0  0  0
 38 71  1  0  0  0  0
 38 78  2  0  0  0  0
 39 53  1  0  0  0  0
 39 73  1  0  0  0  0
 39 79  2  0  0  0  0
 40 61  1  0  0  0  0
 40 67  1  0  0  0  0
 40 80  2  0  0  0  0
 41 62  1  0  0  0  0
 41 74  1  0  0  0  0
 41 81  2  0  0  0  0
 42 68  1  0  0  0  0
 42 72  1  0  0  0  0
 42 82  2  0  0  0  0
 43 46  1  0  0  0  0
 44 53  1  0  0  0  0
 45 67  1  0  0  0  0
 46 48  1  0  0  0  0
 47 49  1  0  0  0  0
 47 50  1  0  0  0  0
 48 52  1  0  0  0  0
 49 54  1  0  0  0  0
 50 68  1  0  0  0  0
 51 54  1  0  0  0  0
 51 68  1  0  0  0  0
 52 73  1  0  0  0  0
 53 67  1  0  0  0  0
 54 65  1  0  0  0  0
 55 62  1  0  0  0  0
 56 63  1  0  0  0  0
 57 63  1  0  0  0  0
 58 63  1  0  0  0  0
 59 75  1  0  0  0  0
 60 84  1  0  0  0  0
 61 63  1  0  0  0  0
 61 74  1  0  0  0  0
 62 75  1  0  0  0  0
 64 65  1  0  0  0  0
M  CHG  1  75   1
M  ISO  4  42 100  60 101  72 100  84 101
M  END
> <Batch ID>
0090

> <Smiles>
CNC(C)C(=O)NC(C(=O)N1Cc2cc([101O:1][101CH2:1]C3=CC(=O)N(c4cc(N)cc([100NH:0][100C:0](=O)N5CCCC(n6nc(-c7ccc(Oc8ccc(F)cc8F)cc7)c(C(N)=O)c6N)C5)c4F)C3=O)ccc2CC1C(=O)NC1CCCc2ccccc21)C(C)(C)C

> <Shape>
0.239

> <Color>
0.078

> <Negative vol penalty>
0.000

$$$$

  -OEChem-04052300293D

 88 97  0     1  0  0  0  0  0999 V2000
  -26.6556  -34.9563   22.3824 C   0  0  0  0  0  0  0  0  0  0  0  0
  -27.0989  -33.6428   22.2667 C   0  0  0  0  0  0  0  0  0  0  0  0
  -23.3902  -12.2868   23.8038 C   0  0  0  0  0  0  0  0  0  0  0  0
  -24.2861  -14.5207   24.0141 C   0  0  0  0  0  0  0  0  0  0  0  0
  -25.3993  -35.2216   22.9259 C   0  0  0  0  0  0  0  0  0  0  0  0
  -26.2865  -32.5937   22.6956 C   0  0  0  0  0  0  0  0  0  0  0  0
  -26.1523  -28.7627   19.3864 C   0  0  0  0  0  0  0  0  0  0  0  0
  -22.7768  -12.4155   25.0499 C   0  0  0  0  0  0  0  0  0  0  0  0
  -23.6726  -14.6494   25.2602 C   0  0  0  0  0  0  0  0  0  0  0  0
  -27.2462  -27.8985   19.3680 C   0  0  0  0  0  0  0  0  0  0  0  0
  -20.0134  -13.8881   26.3258 C   0  0  0  0  0  0  0  0  0  0  0  0
  -18.6895  -13.4651   26.4434 C   0  0  0  0  0  0  0  0  0  0  0  0
  -26.0060  -26.3099   20.6937 C   0  0  0  0  0  0  0  0  0  0  0  0
  -31.5222  -18.1881   18.8314 C   0  0  0  0  0  0  0  0  0  0  0  0
  -19.3496  -11.8683   28.1320 C   0  0  0  0  0  0  0  0  0  0  0  0
  -24.1449  -13.3394   23.2859 C   0  0  0  0  0  0  0  0  0  0  0  0
  -24.1508  -12.9688   20.7619 C   0  0  0  0  0  0  0  0  0  0  0  0
  -24.5673  -34.1747   23.3528 C   0  0  0  0  0  0  0  0  0  0  0  0
  -24.9788  -28.4110   20.0689 C   0  0  0  0  0  0  0  0  0  0  0  0
  -25.0185  -32.8452   23.2466 C   0  0  0  0  0  0  0  0  0  0  0  0
  -24.8976  -27.1702   20.7170 C   0  0  0  0  0  0  0  0  0  0  0  0
  -31.5035  -19.5798   18.5264 C   0  0  0  0  0  0  0  0  0  0  0  0
  -22.9180  -13.5968   25.7781 C   0  0  0  0  0  0  0  0  0  0  0  0
  -27.1742  -26.6732   20.0241 C   0  0  0  0  0  0  0  0  0  0  0  0
  -21.0055  -13.3012   27.1113 C   0  0  0  0  0  0  0  0  0  0  0  0
  -18.3576  -12.4552   27.3465 C   0  0  0  0  0  0  0  0  0  0  0  0
  -20.6736  -12.2913   28.0144 C   0  0  0  0  0  0  0  0  0  0  0  0
  -24.7792  -13.2069   21.9990 C   0  0  0  0  0  0  0  0  0  0  0  0
  -25.1818  -12.9279   19.8554 C   0  0  0  0  0  0  0  0  0  0  0  0
  -30.3297  -17.7610   19.3729 C   0  0  0  0  0  0  0  0  0  0  0  0
  -30.2972  -20.1633   18.8462 C   0  0  0  0  0  0  0  0  0  0  0  0
  -35.3166  -20.3510   18.6721 C   0  0  0  0  0  0  0  0  0  0  0  0
  -22.7596  -12.7999   20.4594 C   0  0  0  0  0  0  0  0  0  0  0  0
  -23.3636  -29.6215   22.5245 C   0  0  0  0  0  0  0  0  0  0  0  0
  -29.0399  -23.6312   19.3697 C   0  0  0  0  0  0  0  0  0  0  0  0
  -21.2166  -27.3182   21.7450 C   0  0  0  0  0  0  0  0  0  0  0  0
  -21.3188  -23.8554   20.7370 C   0  0  0  0  0  0  0  0  0  0  0  0
  -30.6655  -15.3010   19.7997 C   0  0  0  0  0  0  0  0  0  0  0  0
  -23.2369  -34.5133   23.9774 C   0  0  0  0  0  0  0  0  0  0  0  0
  -23.7981  -29.3428   20.0568 C   0  0  0  0  0  0  0  0  0  0  0  0
  -23.6535  -26.7368   21.4470 C   0  0  0  0  0  0  0  0  0  0  0  0
  -34.7789  -19.1762   17.8773 C   0  0  0  0  0  0  0  0  0  0  0  0
  -34.3006  -21.1680   19.4480 C   0  0  0  0  0  0  0  0  0  0  0  0
  -22.2837  -33.3241   24.0627 C   0  0  0  0  0  0  0  0  0  0  0  0
  -29.8360  -11.8495   19.5234 C   0  0  0  0  0  0  0  0  0  0  0  0
  -23.0088  -32.0966   24.6053 C   0  0  0  0  0  0  0  0  0  0  0  0
  -28.3859  -11.7852   20.0086 C   0  0  0  0  0  0  0  0  0  0  0  0
  -33.5478  -19.5978   17.0817 C   0  0  0  0  0  0  0  0  0  0  0  0
  -33.0918  -21.4958   18.5736 C   0  0  0  0  0  0  0  0  0  0  0  0
  -30.6536  -12.8698   20.3135 C   0  0  0  0  0  0  0  0  0  0  0  0
  -28.6228  -14.1528   20.8603 C   0  0  0  0  0  0  0  0  0  0  0  0
  -24.1562  -31.6788   23.6777 C   0  0  1  0  0  0  0  0  0  0  0  0
  -22.8361  -29.1034   21.2164 C   0  0  1  0  0  0  0  0  0  0  0  0
  -27.7433  -13.1855   20.0513 C   0  0  2  0  0  0  0  0  0  0  0  0
  -19.7053  -22.5063   19.3681 C   0  0  0  0  0  0  0  0  0  0  0  0
  -20.0381  -26.5247   24.4453 C   0  0  0  0  0  0  0  0  0  0  0  0
  -19.6890  -24.2180   23.5368 C   0  0  0  0  0  0  0  0  0  0  0  0
  -18.5167  -26.1577   22.4946 C   0  0  0  0  0  0  0  0  0  0  0  0
  -23.4296  -23.0601   18.8210 C   0  0  0  0  0  0  0  0  0  0  0  0
  -28.8586  -22.1283   19.3894 C   0  0  0  0  0  0  0  0  0  0  0  0
  -27.9628  -24.4302   20.0774 C   0  0  0  0  0  0  0  0  0  1  0  0
  -21.0042  -25.8768   22.1404 C   0  0  1  0  0  0  0  0  0  0  0  0
  -21.0025  -23.3000   19.3601 C   0  0  2  0  0  0  0  0  0  0  0  0
  -19.8379  -25.7061   23.1543 C   0  0  0  0  0  0  0  0  0  0  0  0
  -26.1066  -13.3098   21.8917 N   0  0  0  0  0  0  0  0  0  0  0  0
  -26.3207  -13.1355   20.5764 N   0  0  0  0  0  0  0  0  0  0  0  0
  -32.5848  -20.2566   17.9705 N   0  0  0  0  0  0  0  0  0  0  0  0
  -22.5281  -27.6853   21.4118 N   0  0  0  0  0  0  0  0  0  0  0  0
  -29.9859  -14.1732   20.3068 N   0  0  0  0  0  0  0  0  0  0  0  0
  -25.2162  -12.7348   18.5197 N   0  0  0  0  0  0  0  0  0  0  0  0
  -21.8340  -12.8715   21.5094 N   0  0  0  0  0  0  0  0  0  0  0  0
  -29.9189  -16.4787   19.8143 N   0  0  0  0  0  0  0  0  0  0  0  0
  -29.9407  -21.4940   18.6809 N   0  0  0  0  0  0  0  0  0  0  0  0
  -23.6416  -30.9750   22.5226 N   0  0  0  0  0  0  0  0  0  0  0  0
  -20.8285  -25.1341   20.8970 N   0  0  0  0  0  0  0  0  0  0  0  0
  -22.0995  -22.4029   18.8989 N   0  3  0  0  0  0  0  0  0  0  0  0
  -36.5244  -20.5618   18.7726 O   0  0  0  0  0  0  0  0  0  0  0  0
  -22.3508  -12.5753   19.2949 O   0  0  0  0  0  0  0  0  0  0  0  0
  -23.5064  -28.8505   23.4662 O   0  0  0  0  0  0  0  0  0  0  0  0
  -29.9939  -24.1791   18.8187 O   0  0  0  0  0  0  0  0  0  0  0  0
  -20.2531  -28.0882   21.7256 O   0  0  0  0  0  0  0  0  0  0  0  0
  -21.9358  -23.2172   21.5871 O   0  0  0  0  0  0  0  0  0  0  0  0
  -31.8146  -15.2219   19.3580 O   0  0  0  0  0  0  0  0  0  0  0  0
  -22.3194  -13.7227   26.9939 O   0  0  0  0  0  0  0  0  0  0  0  0
  -28.2408  -25.8282   20.0083 O   0  0  0  0  0  0  0  0  0  1  0  0
  -17.0859  -12.0502   27.4604 F   0  0  0  0  0  0  0  0  0  0  0  0
  -21.6222  -11.7244   28.7725 F   0  0  0  0  0  0  0  0  0  0  0  0
  -29.1941  -19.0352   19.5116 S   0  0  0  0  0  0  0  0  0  0  0  0
  1  2  1  0  0  0  0
  1  5  2  0  0  0  0
  2  6  2  0  0  0  0
  3  8  2  0  0  0  0
  3 16  1  0  0  0  0
  4  9  1  0  0  0  0
  4 16  2  0  0  0  0
  5 18  1  0  0  0  0
  6 20  1  0  0  0  0
  7 10  2  0  0  0  0
  7 19  1  0  0  0  0
  8 23  1  0  0  0  0
  9 23  2  0  0  0  0
 10 24  1  0  0  0  0
 11 12  2  0  0  0  0
 11 25  1  0  0  0  0
 12 26  1  0  0  0  0
 13 21  1  0  0  0  0
 13 24  2  0  0  0  0
 14 22  1  0  0  0  0
 14 30  2  0  0  0  0
 15 26  2  0  0  0  0
 15 27  1  0  0  0  0
 16 28  1  0  0  0  0
 17 28  1  0  0  0  0
 17 29  2  0  0  0  0
 17 33  1  0  0  0  0
 18 20  2  0  0  0  0
 18 39  1  0  0  0  0
 19 21  2  0  0  0  0
 19 40  1  0  0  0  0
 20 52  1  0  0  0  0
 21 41  1  0  0  0  0
 22 31  2  0  0  0  0
 22 67  1  0  0  0  0
 23 84  1  0  0  0  0
 24 85  1  0  0  0  0
 25 27  2  0  0  0  0
 25 84  1  0  0  0  0
 26 86  1  0  0  0  0
 27 87  1  0  0  0  0
 28 65  2  0  0  0  0
 29 66  1  0  0  0  0
 29 70  1  0  0  0  0
 30 72  1  0  0  0  0
 30 88  1  0  0  0  0
 31 73  1  0  0  0  0
 31 88  1  0  0  0  0
 32 42  1  0  0  0  0
 32 43  1  0  0  0  0
 32 77  2  0  0  0  0
 33 71  1  0  0  0  0
 33 78  2  0  0  0  0
 34 53  1  0  0  0  0
 34 74  1  0  0  0  0
 34 79  2  0  0  0  0
 35 60  1  0  0  0  0
 35 61  1  0  0  0  0
 35 80  2  0  0  0  0
 36 62  1  0  0  0  0
 36 68  1  0  0  0  0
 36 81  2  0  0  0  0
 37 63  1  0  0  0  0
 37 75  1  0  0  0  0
 37 82  2  0  0  0  0
 38 69  1  0  0  0  0
 38 72  1  0  0  0  0
 38 83  2  0  0  0  0
 39 44  1  0  0  0  0
 40 53  1  0  0  0  0
 41 68  1  0  0  0  0
 42 48  1  0  0  0  0
 43 49  1  0  0  0  0
 44 46  1  0  0  0  0
 45 47  1  0  0  0  0
 45 50  1  0  0  0  0
 46 52  1  0  0  0  0
 47 54  1  0  0  0  0
 48 67  1  0  0  0  0
 49 67  1  0  0  0  0
 50 69  1  0  0  0  0
 51 54  1  0  0  0  0
 51 69  1  0  0  0  0
 52 74  1  0  0  0  0
 53 68  1  0  0  0  0
 54 66  1  0  0  0  0
 55 63  1  0  0  0  0
 56 64  1  0  0  0  0
 57 64  1  0  0  0  0
 58 64  1  0  0  0  0
 59 76  1  0  0  0  0
 60 73  1  0  0  0  0
 61 85  1  0  0  0  0
 62 64  1  0  0  0  0
 62 75  1  0  0  0  0
 63 76  1  0  0  0  0
 65 66  1  0  0  0  0
M  CHG  1  76   1
M  ISO  4  38 100  61 101  72 100  85 101
M  END
> <Batch ID>
0090

> <Smiles>
CNC(C)C(=O)NC(C(=O)N1Cc2cc([101O:1][101CH2:1]C(=O)CNc3sc([100NH:0][100C:0](=O)N4CCCC(n5nc(-c6ccc(Oc7ccc(F)cc7F)cc6)c(C(N)=O)c5N)C4)cc3N3CCC(=O)CC3)ccc2CC1C(=O)NC1CCCc2ccccc21)C(C)(C)C

> <Shape>
0.246

> <Color>
0.090

> <Negative vol penalty>
0.000

$$$$

  -OEChem-04052300293D

 85 94  0     1  0  0  0  0  0999 V2000
  -24.3837  -36.7827   21.4947 C   0  0  0  0  0  0  0  0  0  0  0  0
  -25.1702  -35.7671   20.9605 C   0  0  0  0  0  0  0  0  0  0  0  0
  -23.9555   -9.8694   21.9606 C   0  0  0  0  0  0  0  0  0  0  0  0
  -24.5082  -11.2651   23.8535 C   0  0  0  0  0  0  0  0  0  0  0  0
  -23.7866  -36.6167   22.7436 C   0  0  0  0  0  0  0  0  0  0  0  0
  -25.3610  -34.5852   21.6756 C   0  0  0  0  0  0  0  0  0  0  0  0
  -25.9393  -28.9407   19.3711 C   0  0  0  0  0  0  0  0  0  0  0  0
  -30.3468  -20.2189   18.0560 C   0  0  0  0  0  0  0  0  0  0  0  0
  -30.1778  -18.8695   18.3662 C   0  0  0  0  0  0  0  0  0  0  0  0
  -23.4885   -8.8803   22.8262 C   0  0  0  0  0  0  0  0  0  0  0  0
  -24.0413  -10.2761   24.7192 C   0  0  0  0  0  0  0  0  0  0  0  0
  -27.0536  -28.1471   19.1019 C   0  0  0  0  0  0  0  0  0  0  0  0
  -20.7076   -8.2793   24.6532 C   0  0  0  0  0  0  0  0  0  0  0  0
  -19.4914   -7.6697   24.3452 C   0  0  0  0  0  0  0  0  0  0  0  0
  -26.7813  -27.0522   21.2341 C   0  0  0  0  0  0  0  0  0  0  0  0
  -28.9510  -20.8251   19.9325 C   0  0  0  0  0  0  0  0  0  0  0  0
  -20.5982   -5.5258   24.2183 C   0  0  0  0  0  0  0  0  0  0  0  0
  -24.4654  -11.0618   22.4743 C   0  0  0  0  0  0  0  0  0  0  0  0
  -24.2078  -13.1404   21.0180 C   0  0  0  0  0  0  0  0  0  0  0  0
  -23.9622  -35.4284   23.4700 C   0  0  0  0  0  0  0  0  0  0  0  0
  -25.2431  -28.8033   20.5805 C   0  0  0  0  0  0  0  0  0  0  0  0
  -24.7667  -34.4037   22.9360 C   0  0  0  0  0  0  0  0  0  0  0  0
  -25.6570  -27.8435   21.5151 C   0  0  0  0  0  0  0  0  0  0  0  0
  -28.7820  -19.4758   20.2427 C   0  0  0  0  0  0  0  0  0  0  0  0
  -29.7335  -21.1967   18.8392 C   0  0  0  0  0  0  0  0  0  0  0  0
  -29.3954  -18.4979   19.4596 C   0  0  0  0  0  0  0  0  0  0  0  0
  -23.5314   -9.0836   24.2055 C   0  0  0  0  0  0  0  0  0  0  0  0
  -27.4764  -27.2046   20.0347 C   0  0  0  0  0  0  0  0  0  0  0  0
  -21.8691   -7.5122   24.7438 C   0  0  0  0  0  0  0  0  0  0  0  0
  -19.4367   -6.2929   24.1278 C   0  0  0  0  0  0  0  0  0  0  0  0
  -21.8144   -6.1355   24.5263 C   0  0  0  0  0  0  0  0  0  0  0  0
  -24.9484  -12.0836   21.5806 C   0  0  0  0  0  0  0  0  0  0  0  0
  -25.1165  -13.8251   20.2487 C   0  0  0  0  0  0  0  0  0  0  0  0
  -30.7407  -24.5363   17.8099 C   0  0  0  0  0  0  0  0  0  0  0  0
  -29.5354  -24.8178   18.3096 C   0  0  0  0  0  0  0  0  0  0  0  0
  -28.9567  -23.5413   18.7912 C   0  0  0  0  0  0  0  0  0  0  0  0
  -22.8222  -13.4732   21.1765 C   0  0  0  0  0  0  0  0  0  0  0  0
  -24.6341  -30.7128   23.0477 C   0  0  0  0  0  0  0  0  0  0  0  0
  -22.7887  -28.2270   24.0159 C   0  0  0  0  0  0  0  0  0  0  0  0
  -22.1396  -24.8790   23.8893 C   0  0  0  0  0  0  0  0  0  0  0  0
  -30.1480  -16.0945   19.5160 C   0  0  0  0  0  0  0  0  0  0  0  0
  -23.3353  -35.3138   24.8369 C   0  0  0  0  0  0  0  0  0  0  0  0
  -24.0271  -29.6485   20.8443 C   0  0  0  0  0  0  0  0  0  0  0  0
  -24.9319  -27.6427   22.8199 C   0  0  0  0  0  0  0  0  0  0  0  0
  -31.0836  -23.0941   17.9005 C   0  0  0  0  0  0  0  0  0  0  0  0
  -23.2812  -33.8822   25.3642 C   0  0  0  0  0  0  0  0  0  0  0  0
  -29.8280  -12.6110   18.8525 C   0  0  0  0  0  0  0  0  0  0  0  0
  -24.6235  -33.1870   25.1597 C   0  0  0  0  0  0  0  0  0  0  0  0
  -28.4691  -12.2502   19.4568 C   0  0  0  0  0  0  0  0  0  0  0  0
  -30.5649  -13.6512   19.6943 C   0  0  0  0  0  0  0  0  0  0  0  0
  -28.4375  -14.5059   20.5959 C   0  0  0  0  0  0  0  0  0  0  0  0
  -24.9770  -33.0973   23.6702 C   0  0  1  0  0  0  0  0  0  0  0  0
  -23.7013  -29.7797   22.3289 C   0  0  1  0  0  0  0  0  0  0  0  0
  -27.6297  -13.5096   19.7484 C   0  0  2  0  0  0  0  0  0  0  0  0
  -27.9403  -19.1063   21.4208 C   0  0  0  0  0  0  0  0  0  0  0  0
  -20.5906  -23.1363   24.8173 C   0  0  0  0  0  0  0  0  0  0  0  0
  -24.2925  -28.3069   26.6696 C   0  0  0  0  0  0  0  0  0  0  0  0
  -23.4020  -26.0196   27.1633 C   0  0  0  0  0  0  0  0  0  0  0  0
  -21.8284  -27.9340   26.8777 C   0  0  0  0  0  0  0  0  0  0  0  0
  -21.1298  -24.1766   21.1975 C   0  0  0  0  0  0  0  0  0  0  0  0
  -28.8304  -26.1214   18.4070 C   0  0  0  0  0  0  0  0  0  1  0  0
  -23.0135  -26.9912   24.8533 C   0  0  1  0  0  0  0  0  0  0  0  0
  -20.8474  -24.1107   23.6783 C   0  0  2  0  0  0  0  0  0  0  0  0
  -23.1491  -27.3178   26.3673 C   0  0  0  0  0  0  0  0  0  0  0  0
  -26.2290  -12.0921   21.2010 N   0  0  0  0  0  0  0  0  0  0  0  0
  -26.3001  -13.1626   20.3916 N   0  0  0  0  0  0  0  0  0  0  0  0
  -29.9041  -22.5410   18.5315 N   0  0  0  0  0  0  0  0  0  0  0  0
  -23.7526  -28.4975   23.0343 N   0  0  0  0  0  0  0  0  0  0  0  0
  -29.7101  -14.8175   19.9263 N   0  0  0  0  0  0  0  0  0  0  0  0
  -25.0106  -14.9233   19.4708 N   0  0  0  0  0  0  0  0  0  0  0  0
  -22.0310  -12.6640   22.0033 N   0  0  0  0  0  0  0  0  0  0  0  0
  -29.2373  -17.1221   19.7592 N   0  0  0  0  0  0  0  0  0  0  0  0
  -24.2281  -32.0336   23.0361 N   0  0  0  0  0  0  0  0  0  0  0  0
  -21.9214  -26.0779   24.5345 N   0  0  0  0  0  0  0  0  0  0  0  0
  -20.9052  -23.3398   22.4042 N   0  3  0  0  0  0  0  0  0  0  0  0
  -27.8567  -23.4353   19.3094 O   0  0  0  0  0  0  0  0  0  0  0  0
  -22.2974  -14.4495   20.5891 O   0  0  0  0  0  0  0  0  0  0  0  0
  -25.6466  -30.2673   23.5750 O   0  0  0  0  0  0  0  0  0  0  0  0
  -21.7908  -28.9227   24.2203 O   0  0  0  0  0  0  0  0  0  0  0  0
  -23.2335  -24.4560   23.5221 O   0  0  0  0  0  0  0  0  0  0  0  0
  -31.2384  -16.2598   18.9630 O   0  0  0  0  0  0  0  0  0  0  0  0
  -23.0756   -8.1188   25.0504 O   0  0  0  0  0  0  0  0  0  0  0  0
  -28.5641  -26.4292   19.7747 O   0  0  0  0  0  0  0  0  0  1  0  0
  -18.2685   -5.7074   23.8335 F   0  0  0  0  0  0  0  0  0  0  0  0
  -22.9267   -5.3932   24.6131 F   0  0  0  0  0  0  0  0  0  0  0  0
  1  2  1  0  0  0  0
  1  5  2  0  0  0  0
  2  6  2  0  0  0  0
  3 10  2  0  0  0  0
  3 18  1  0  0  0  0
  4 11  1  0  0  0  0
  4 18  2  0  0  0  0
  5 20  1  0  0  0  0
  6 22  1  0  0  0  0
  7 12  2  0  0  0  0
  7 21  1  0  0  0  0
  8  9  2  0  0  0  0
  8 25  1  0  0  0  0
  9 26  1  0  0  0  0
 10 27  1  0  0  0  0
 11 27  2  0  0  0  0
 12 28  1  0  0  0  0
 13 14  2  0  0  0  0
 13 29  1  0  0  0  0
 14 30  1  0  0  0  0
 15 23  1  0  0  0  0
 15 28  2  0  0  0  0
 16 24  1  0  0  0  0
 16 25  2  0  0  0  0
 17 30  2  0  0  0  0
 17 31  1  0  0  0  0
 18 32  1  0  0  0  0
 19 32  1  0  0  0  0
 19 33  2  0  0  0  0
 19 37  1  0  0  0  0
 20 22  2  0  0  0  0
 20 42  1  0  0  0  0
 21 23  2  0  0  0  0
 21 43  1  0  0  0  0
 22 52  1  0  0  0  0
 23 44  1  0  0  0  0
 24 26  2  0  0  0  0
 24 55  1  0  0  0  0
 25 67  1  0  0  0  0
 26 72  1  0  0  0  0
 27 82  1  0  0  0  0
 28 83  1  0  0  0  0
 29 31  2  0  0  0  0
 29 82  1  0  0  0  0
 30 84  1  0  0  0  0
 31 85  1  0  0  0  0
 32 65  2  0  0  0  0
 33 66  1  0  0  0  0
 33 70  1  0  0  0  0
 34 35  2  0  0  0  0
 34 45  1  0  0  0  0
 35 36  1  0  0  0  0
 35 61  1  0  0  0  0
 36 67  1  0  0  0  0
 36 76  2  0  0  0  0
 37 71  1  0  0  0  0
 37 77  2  0  0  0  0
 38 53  1  0  0  0  0
 38 73  1  0  0  0  0
 38 78  2  0  0  0  0
 39 62  1  0  0  0  0
 39 68  1  0  0  0  0
 39 79  2  0  0  0  0
 40 63  1  0  0  0  0
 40 74  1  0  0  0  0
 40 80  2  0  0  0  0
 41 69  1  0  0  0  0
 41 72  1  0  0  0  0
 41 81  2  0  0  0  0
 42 46  1  0  0  0  0
 43 53  1  0  0  0  0
 44 68  1  0  0  0  0
 45 67  1  0  0  0  0
 46 48  1  0  0  0  0
 47 49  1  0  0  0  0
 47 50  1  0  0  0  0
 48 52  1  0  0  0  0
 49 54  1  0  0  0  0
 50 69  1  0  0  0  0
 51 54  1  0  0  0  0
 51 69  1  0  0  0  0
 52 73  1  0  0  0  0
 53 68  1  0  0  0  0
 54 66  1  0  0  0  0
 56 63  1  0  0  0  0
 57 64  1  0  0  0  0
 58 64  1  0  0  0  0
 59 64  1  0  0  0  0
 60 75  1  0  0  0  0
 61 83  1  0  0  0  0
 62 64  1  0  0  0  0
 62 74  1  0  0  0  0
 63 75  1  0  0  0  0
 65 66  1  0  0  0  0
M  CHG  1  75   1
M  ISO  4  41 100  61 101  72 100  83 101
M  END
> <Batch ID>
0090

> <Smiles>
CNC(C)C(=O)NC(C(=O)N1Cc2cc([101O:1][101CH2:1]C3=CCN(c4ccc([100NH:0][100C:0](=O)N5CCCC(n6nc(-c7ccc(Oc8ccc(F)cc8F)cc7)c(C(N)=O)c6N)C5)c(C)c4)C3=O)ccc2CC1C(=O)NC1CCCc2ccccc21)C(C)(C)C

> <Shape>
0.306

> <Color>
0.133

> <Negative vol penalty>
0.000

$$$$

  -OEChem-04052300293D

 87 96  0     1  0  0  0  0  0999 V2000
  -28.8749  -33.2818   25.5067 C   0  0  0  0  0  0  0  0  0  0  0  0
  -28.1923  -32.1169   25.1713 C   0  0  0  0  0  0  0  0  0  0  0  0
  -23.2836   -9.7923   19.9262 C   0  0  0  0  0  0  0  0  0  0  0  0
  -23.7124   -9.9556   22.2982 C   0  0  0  0  0  0  0  0  0  0  0  0
  -29.9747  -33.6861   24.7511 C   0  0  0  0  0  0  0  0  0  0  0  0
  -28.6084  -31.3562   24.0792 C   0  0  0  0  0  0  0  0  0  0  0  0
  -28.4068  -25.2583   23.5492 C   0  0  0  0  0  0  0  0  0  0  0  0
  -22.5449   -8.6286   20.1398 C   0  0  0  0  0  0  0  0  0  0  0  0
  -22.9737   -8.7918   22.5119 C   0  0  0  0  0  0  0  0  0  0  0  0
  -27.5023  -24.4005   22.9249 C   0  0  0  0  0  0  0  0  0  0  0  0
  -19.4455   -7.8073   21.2130 C   0  0  0  0  0  0  0  0  0  0  0  0
  -18.2218   -7.6862   20.5546 C   0  0  0  0  0  0  0  0  0  0  0  0
  -28.9158  -24.3416   20.9711 C   0  0  0  0  0  0  0  0  0  0  0  0
  -27.6453  -17.3604   18.1955 C   0  0  0  0  0  0  0  0  0  0  0  0
  -19.0170   -5.6938   19.4432 C   0  0  0  0  0  0  0  0  0  0  0  0
  -23.8674  -10.4558   21.0054 C   0  0  0  0  0  0  0  0  0  0  0  0
  -24.1510  -12.9811   20.7811 C   0  0  0  0  0  0  0  0  0  0  0  0
  -30.4104  -32.9248   23.6550 C   0  0  0  0  0  0  0  0  0  0  0  0
  -29.5692  -25.6737   22.8838 C   0  0  0  0  0  0  0  0  0  0  0  0
  -29.7142  -31.7514   23.3074 C   0  0  0  0  0  0  0  0  0  0  0  0
  -29.8348  -25.2028   21.5901 C   0  0  0  0  0  0  0  0  0  0  0  0
  -28.7987  -16.5239   18.1864 C   0  0  0  0  0  0  0  0  0  0  0  0
  -22.3899   -8.1283   21.4326 C   0  0  0  0  0  0  0  0  0  0  0  0
  -27.7553  -23.9443   21.6346 C   0  0  0  0  0  0  0  0  0  0  0  0
  -20.4550   -6.8717   20.9864 C   0  0  0  0  0  0  0  0  0  0  0  0
  -18.0075   -6.6295   19.6697 C   0  0  0  0  0  0  0  0  0  0  0  0
  -20.2407   -5.8150   20.1016 C   0  0  0  0  0  0  0  0  0  0  0  0
  -24.6310  -11.6577   20.7853 C   0  0  0  0  0  0  0  0  0  0  0  0
  -29.5368  -16.6475   19.3429 C   0  0  0  0  0  0  0  0  0  0  0  0
  -25.2617  -13.7484   20.5284 C   0  0  0  0  0  0  0  0  0  0  0  0
  -27.5456  -18.0914   19.3590 C   0  0  0  0  0  0  0  0  0  0  0  0
  -24.4909  -20.6222   20.8892 C   0  0  0  0  0  0  0  0  0  0  0  0
  -25.7607  -20.9875   21.1077 C   0  0  0  0  0  0  0  0  0  0  0  0
  -26.8910  -20.1090   20.6515 C   0  0  0  0  0  0  0  0  0  0  0  0
  -31.9097  -16.0951   19.0610 C   0  0  0  0  0  0  0  0  0  0  0  0
  -30.7341  -15.9959   19.7158 C   0  0  0  0  0  0  0  0  0  0  0  0
  -22.8201  -13.4728   20.9874 C   0  0  0  0  0  0  0  0  0  0  0  0
  -30.7288  -28.4758   21.9313 C   0  0  0  0  0  0  0  0  0  0  0  0
  -33.3291  -26.6968   21.1594 C   0  0  0  0  0  0  0  0  0  0  0  0
  -34.6115  -23.6393   20.3507 C   0  0  0  0  0  0  0  0  0  0  0  0
  -29.8584  -14.4424   17.2722 C   0  0  0  0  0  0  0  0  0  0  0  0
  -31.5754  -33.4271   22.8395 C   0  0  0  0  0  0  0  0  0  0  0  0
  -30.5481  -26.5780   23.5811 C   0  0  0  0  0  0  0  0  0  0  0  0
  -31.0782  -25.6028   20.8402 C   0  0  0  0  0  0  0  0  0  0  0  0
  -24.1167  -19.3993   20.1304 C   0  0  0  0  0  0  0  0  0  0  0  0
  -32.1809  -32.3659   21.9244 C   0  0  0  0  0  0  0  0  0  0  0  0
  -30.1699  -12.5778   20.4532 C   0  0  0  0  0  0  0  0  0  0  0  0
  -31.0831  -31.6193   21.1732 C   0  0  0  0  0  0  0  0  0  0  0  0
  -28.7224  -12.2101   20.7741 C   0  0  0  0  0  0  0  0  0  0  0  0
  -25.2250  -18.9937   19.1721 C   0  0  0  0  0  0  0  0  0  0  0  0
  -30.4015  -12.7083   18.9509 C   0  0  0  0  0  0  0  0  0  0  0  0
  -28.0202  -13.3023   18.6072 C   0  0  0  0  0  0  0  0  0  0  0  0
  -30.1502  -30.8863   22.1448 C   0  0  1  0  0  0  0  0  0  0  0  0
  -31.4451  -27.3457   22.6151 C   0  0  1  0  0  0  0  0  0  0  0  0
  -27.7515  -13.2046   20.1164 C   0  0  1  0  0  0  0  0  0  0  0  0
  -36.7648  -22.5059   19.7376 C   0  0  0  0  0  0  0  0  0  0  0  0
  -33.1505  -27.8808   18.3529 C   0  0  0  0  0  0  0  0  0  0  0  0
  -34.6675  -26.0533   17.5609 C   0  0  0  0  0  0  0  0  0  0  0  0
  -35.4736  -27.6924   19.2598 C   0  0  0  0  0  0  0  0  0  0  0  0
  -29.0070  -16.1576   15.7343 C   0  0  0  0  0  0  0  0  0  0  0  0
  -34.4866  -21.8661   22.7169 C   0  0  0  0  0  0  0  0  0  0  0  0
  -26.1199  -22.2324   21.8609 C   0  0  0  0  0  0  0  0  0  1  0  0
  -33.7810  -25.9396   19.9341 C   0  0  1  0  0  0  0  0  0  0  0  0
  -35.8230  -22.8859   20.8695 C   0  0  2  0  0  0  0  0  0  0  0  0
  -34.2437  -26.8853   18.7900 C   0  0  0  0  0  0  0  0  0  0  0  0
  -25.9444  -11.5849   20.5534 N   0  0  0  0  0  0  0  0  0  0  0  0
  -26.2991  -12.8721   20.4011 N   0  0  0  0  0  0  0  0  0  0  0  0
  -26.5552  -19.0483   19.7913 N   0  0  0  0  0  0  0  0  0  0  0  0
  -32.0016  -26.4937   21.5622 N   0  0  0  0  0  0  0  0  0  0  0  0
  -29.4322  -13.6116   18.3287 N   0  0  0  0  0  0  0  0  0  0  0  0
  -25.4425  -15.0805   20.4047 N   0  0  0  0  0  0  0  0  0  0  0  0
  -21.7969  -12.5475   21.2353 N   0  0  0  0  0  0  0  0  0  0  0  0
  -30.7732  -29.6709   22.6236 N   0  0  0  0  0  0  0  0  0  0  0  0
  -34.8048  -25.0041   20.3869 N   0  0  0  0  0  0  0  0  0  0  0  0
  -29.1542  -15.6488   17.0961 N   0  0  0  0  0  0  0  0  0  0  0  0
  -35.3981  -21.6388   21.5661 N   0  3  0  0  0  0  0  0  0  0  0  0
  -28.0289  -20.3908   21.0304 O   0  0  0  0  0  0  0  0  0  0  0  0
  -22.5433  -14.6952   20.9367 O   0  0  0  0  0  0  0  0  0  0  0  0
  -30.1779  -28.2784   20.8546 O   0  0  0  0  0  0  0  0  0  0  0  0
  -34.1268  -27.4357   21.7420 O   0  0  0  0  0  0  0  0  0  0  0  0
  -33.5968  -23.0737   19.9497 O   0  0  0  0  0  0  0  0  0  0  0  0
  -30.7676  -14.1080   16.5027 O   0  0  0  0  0  0  0  0  0  0  0  0
  -21.6690   -6.9929   21.6415 O   0  0  0  0  0  0  0  0  0  0  0  0
  -26.8738  -23.1074   21.0227 O   0  0  0  0  0  0  0  0  0  1  0  0
  -16.8318   -6.5124   19.0387 F   0  0  0  0  0  0  0  0  0  0  0  0
  -21.2063   -4.9124   19.8808 F   0  0  0  0  0  0  0  0  0  0  0  0
  -28.8392  -17.7683   20.4336 S   0  0  0  0  0  0  0  0  0  0  0  0
  1  2  1  0  0  0  0
  1  5  2  0  0  0  0
  2  6  2  0  0  0  0
  3  8  2  0  0  0  0
  3 16  1  0  0  0  0
  4  9  1  0  0  0  0
  4 16  2  0  0  0  0
  5 18  1  0  0  0  0
  6 20  1  0  0  0  0
  7 10  2  0  0  0  0
  7 19  1  0  0  0  0
  8 23  1  0  0  0  0
  9 23  2  0  0  0  0
 10 24  1  0  0  0  0
 11 12  2  0  0  0  0
 11 25  1  0  0  0  0
 12 26  1  0  0  0  0
 13 21  1  0  0  0  0
 13 24  2  0  0  0  0
 14 22  1  0  0  0  0
 14 31  2  0  0  0  0
 15 26  2  0  0  0  0
 15 27  1  0  0  0  0
 16 28  1  0  0  0  0
 17 28  1  0  0  0  0
 17 30  2  0  0  0  0
 17 37  1  0  0  0  0
 18 20  2  0  0  0  0
 18 42  1  0  0  0  0
 19 21  2  0  0  0  0
 19 43  1  0  0  0  0
 20 53  1  0  0  0  0
 21 44  1  0  0  0  0
 22 29  2  0  0  0  0
 22 75  1  0  0  0  0
 23 83  1  0  0  0  0
 24 84  1  0  0  0  0
 25 27  2  0  0  0  0
 25 83  1  0  0  0  0
 26 85  1  0  0  0  0
 27 86  1  0  0  0  0
 28 66  2  0  0  0  0
 29 36  1  0  0  0  0
 29 87  1  0  0  0  0
 30 67  1  0  0  0  0
 30 71  1  0  0  0  0
 31 68  1  0  0  0  0
 31 87  1  0  0  0  0
 32 33  2  0  0  0  0
 32 45  1  0  0  0  0
 33 34  1  0  0  0  0
 33 62  1  0  0  0  0
 34 68  1  0  0  0  0
 34 77  2  0  0  0  0
 35 36  2  0  0  0  0
 37 72  1  0  0  0  0
 37 78  2  0  0  0  0
 38 54  1  0  0  0  0
 38 73  1  0  0  0  0
 38 79  2  0  0  0  0
 39 63  1  0  0  0  0
 39 69  1  0  0  0  0
 39 80  2  0  0  0  0
 40 64  1  0  0  0  0
 40 74  1  0  0  0  0
 40 81  2  0  0  0  0
 41 70  1  0  0  0  0
 41 75  1  0  0  0  0
 41 82  2  0  0  0  0
 42 46  1  0  0  0  0
 43 54  1  0  0  0  0
 44 69  1  0  0  0  0
 45 50  1  0  0  0  0
 46 48  1  0  0  0  0
 47 49  1  0  0  0  0
 47 51  1  0  0  0  0
 48 53  1  0  0  0  0
 49 55  1  0  0  0  0
 50 68  1  0  0  0  0
 51 70  1  0  0  0  0
 52 55  1  0  0  0  0
 52 70  1  0  0  0  0
 53 73  1  0  0  0  0
 54 69  1  0  0  0  0
 55 67  1  0  0  0  0
 56 64  1  0  0  0  0
 57 65  1  0  0  0  0
 58 65  1  0  0  0  0
 59 65  1  0  0  0  0
 60 75  1  0  0  0  0
 61 76  1  0  0  0  0
 62 84  1  0  0  0  0
 63 65  1  0  0  0  0
 63 74  1  0  0  0  0
 64 76  1  0  0  0  0
 66 67  1  0  0  0  0
M  CHG  1  76   1
M  ISO  4  41 100  62 101  75 100  84 101
M  END
> <Batch ID>
0090

> <Smiles>
C=Cc1sc(N2CCC=C([101CH2:1][101O:1]c3ccc4c(c3)CN(C(=O)C(NC(=O)C(C)NC)C(C)(C)C)C(C(=O)NC3CCCc5ccccc53)C4)C2=O)cc1[100N:0](C)[100C:0](=O)N1CCCC(n2nc(-c3ccc(Oc4ccc(F)cc4F)cc3)c(C(N)=O)c2N)C1

> <Shape>
0.186

> <Color>
0.174

> <Negative vol penalty>
0.000

$$$$

  -OEChem-04052300293D

 85 93  0     1  0  0  0  0  0999 V2000
  -18.2280  -29.5950   25.9383 C   0  0  0  0  0  0  0  0  0  0  0  0
  -19.5723  -29.2840   26.1159 C   0  0  0  0  0  0  0  0  0  0  0  0
  -24.5311   -9.7386   21.4815 C   0  0  0  0  0  0  0  0  0  0  0  0
  -24.8913  -10.8247   23.6094 C   0  0  0  0  0  0  0  0  0  0  0  0
  -17.6213  -29.3797   24.7016 C   0  0  0  0  0  0  0  0  0  0  0  0
  -20.3105  -28.7565   25.0570 C   0  0  0  0  0  0  0  0  0  0  0  0
  -26.2247  -29.7663   23.8289 C   0  0  0  0  0  0  0  0  0  0  0  0
  -30.0978  -21.1830   21.9262 C   0  0  0  0  0  0  0  0  0  0  0  0
  -30.0047  -19.8885   21.4152 C   0  0  0  0  0  0  0  0  0  0  0  0
  -24.2237   -8.5485   22.1409 C   0  0  0  0  0  0  0  0  0  0  0  0
  -24.5838   -9.6346   24.2688 C   0  0  0  0  0  0  0  0  0  0  0  0
  -27.3773  -29.0285   24.0953 C   0  0  0  0  0  0  0  0  0  0  0  0
  -22.9927   -5.3212   23.2742 C   0  0  0  0  0  0  0  0  0  0  0  0
  -21.8788   -4.6057   22.8353 C   0  0  0  0  0  0  0  0  0  0  0  0
  -27.2689  -28.0720   21.8834 C   0  0  0  0  0  0  0  0  0  0  0  0
  -20.4650   -6.5000   23.3351 C   0  0  0  0  0  0  0  0  0  0  0  0
  -24.8650  -10.8766   22.2157 C   0  0  0  0  0  0  0  0  0  0  0  0
  -24.2894  -13.1287   21.1647 C   0  0  0  0  0  0  0  0  0  0  0  0
  -18.3549  -28.8584   23.6242 C   0  0  0  0  0  0  0  0  0  0  0  0
  -25.5783  -29.6541   22.5896 C   0  0  0  0  0  0  0  0  0  0  0  0
  -19.7127  -28.5328   23.8050 C   0  0  0  0  0  0  0  0  0  0  0  0
  -26.1097  -28.8114   21.6029 C   0  0  0  0  0  0  0  0  0  0  0  0
  -28.9424  -21.8722   22.2947 C   0  0  0  0  0  0  0  0  0  0  0  0
  -28.7562  -19.2831   21.2726 C   0  0  0  0  0  0  0  0  0  0  0  0
  -27.6939  -21.2668   22.1521 C   0  0  0  0  0  0  0  0  0  0  0  0
  -24.2500   -8.4965   23.5346 C   0  0  0  0  0  0  0  0  0  0  0  0
  -27.8979  -28.1790   23.1235 C   0  0  0  0  0  0  0  0  0  0  0  0
  -22.8428   -6.6262   23.7437 C   0  0  0  0  0  0  0  0  0  0  0  0
  -20.6149   -5.1950   22.8657 C   0  0  0  0  0  0  0  0  0  0  0  0
  -21.5789   -7.2155   23.7741 C   0  0  0  0  0  0  0  0  0  0  0  0
  -27.6007  -19.9723   21.6410 C   0  0  0  0  0  0  0  0  0  0  0  0
  -25.1832  -12.1061   21.5351 C   0  0  0  0  0  0  0  0  0  0  0  0
  -25.0796  -14.0699   20.5514 C   0  0  0  0  0  0  0  0  0  0  0  0
  -22.8716  -13.2196   21.3577 C   0  0  0  0  0  0  0  0  0  0  0  0
  -29.9694  -25.2604   23.5694 C   0  0  0  0  0  0  0  0  0  0  0  0
  -30.2277  -23.8947   23.0018 C   0  0  0  0  0  0  0  0  0  0  0  0
  -22.7020  -28.6914   21.6389 C   0  0  0  0  0  0  0  0  0  0  0  0
  -23.7384  -29.7327   18.7469 C   0  0  0  0  0  0  0  0  0  0  0  0
  -26.3730  -30.4408   16.6963 C   0  0  0  0  0  0  0  0  0  0  0  0
  -29.7144  -17.1484   20.3394 C   0  0  0  0  0  0  0  0  0  0  0  0
  -17.6438  -28.5988   22.3197 C   0  0  0  0  0  0  0  0  0  0  0  0
  -24.3511  -30.4770   22.3083 C   0  0  0  0  0  0  0  0  0  0  0  0
  -25.4650  -28.6706   20.2490 C   0  0  0  0  0  0  0  0  0  0  0  0
  -18.5909  -28.3870   21.1414 C   0  0  0  0  0  0  0  0  0  0  0  0
  -29.9043  -13.8398   19.0376 C   0  0  0  0  0  0  0  0  0  0  0  0
  -19.7092  -27.4220   21.5221 C   0  0  0  0  0  0  0  0  0  0  0  0
  -28.6194  -13.1779   19.5408 C   0  0  0  0  0  0  0  0  0  0  0  0
  -30.4883  -14.8024   20.0701 C   0  0  0  0  0  0  0  0  0  0  0  0
  -28.2674  -15.1538   21.0767 C   0  0  0  0  0  0  0  0  0  0  0  0
  -20.5531  -27.9822   22.6734 C   0  0  1  0  0  0  0  0  0  0  0  0
  -23.4839  -29.8956   21.1960 C   0  0  1  0  0  0  0  0  0  0  0  0
  -27.6067  -14.2245   20.0455 C   0  0  2  0  0  0  0  0  0  0  0  0
  -26.9054  -31.2386   14.3774 C   0  0  0  0  0  0  0  0  0  0  0  0
  -23.0142  -26.9841   17.6375 C   0  0  0  0  0  0  0  0  0  0  0  0
  -24.4112  -27.5048   15.6262 C   0  0  0  0  0  0  0  0  0  0  0  0
  -22.4116  -28.9015   16.1494 C   0  0  0  0  0  0  0  0  0  0  0  0
  -27.7987  -32.8242   17.7187 C   0  0  0  0  0  0  0  0  0  0  0  0
  -29.1521  -26.1989   22.7205 C   0  0  0  0  0  0  0  0  0  1  0  0
  -24.4796  -29.1092   17.5889 C   0  0  1  0  0  0  0  0  0  0  0  0
  -26.6752  -31.6461   15.8244 C   0  0  2  0  0  0  0  0  0  0  0  0
  -23.5905  -28.1259   16.7766 C   0  0  0  0  0  0  0  0  0  0  0  0
  -26.4447  -12.3725   21.1861 N   0  0  0  0  0  0  0  0  0  0  0  0
  -26.3492  -13.5731   20.5900 N   0  0  0  0  0  0  0  0  0  0  0  0
  -24.2635  -29.4912   20.0243 N   0  0  0  0  0  0  0  0  0  0  0  0
  -29.4734  -15.7673   20.4988 N   0  0  0  0  0  0  0  0  0  0  0  0
  -26.5122  -21.9496   22.5185 N   0  0  0  0  0  0  0  0  0  0  0  0
  -24.8053  -15.2658   19.9883 N   0  0  0  0  0  0  0  0  0  0  0  0
  -22.2166  -12.1640   22.0065 N   0  0  0  0  0  0  0  0  0  0  0  0
  -29.0627  -23.1837   22.8103 N   0  0  0  0  0  0  0  0  0  0  0  0
  -28.6648  -17.9682   20.7525 N   0  0  0  0  0  0  0  0  0  0  0  0
  -21.4684  -28.9911   22.1847 N   0  0  0  0  0  0  0  0  0  0  0  0
  -25.0169  -30.2159   16.8047 N   0  0  0  0  0  0  0  0  0  0  0  0
  -27.8951  -32.3475   16.3150 N   0  3  0  0  0  0  0  0  0  0  0  0
  -22.2029  -14.2002   20.9519 O   0  0  0  0  0  0  0  0  0  0  0  0
  -30.4525  -25.5196   24.6612 O   0  0  0  0  0  0  0  0  0  0  0  0
  -31.3947  -23.5924   22.8151 O   0  0  0  0  0  0  0  0  0  0  0  0
  -23.1818  -27.5730   21.4948 O   0  0  0  0  0  0  0  0  0  0  0  0
  -22.7348  -30.4148   18.5256 O   0  0  0  0  0  0  0  0  0  0  0  0
  -27.2521  -29.7640   17.2251 O   0  0  0  0  0  0  0  0  0  0  0  0
  -30.7629  -17.5714   19.8457 O   0  0  0  0  0  0  0  0  0  0  0  0
  -23.9498   -7.3355   24.1784 O   0  0  0  0  0  0  0  0  0  0  0  0
  -29.0224  -27.4572   23.3811 O   0  0  0  0  0  0  0  0  0  1  0  0
  -19.5455   -4.5083   22.4427 F   0  0  0  0  0  0  0  0  0  0  0  0
  -21.4288   -8.4692   24.2230 F   0  0  0  0  0  0  0  0  0  0  0  0
  -26.3997  -19.3898   21.5022 F   0  0  0  0  0  0  0  0  0  0  0  0
  1  2  1  0  0  0  0
  1  5  2  0  0  0  0
  2  6  2  0  0  0  0
  3 10  2  0  0  0  0
  3 17  1  0  0  0  0
  4 11  1  0  0  0  0
  4 17  2  0  0  0  0
  5 19  1  0  0  0  0
  6 21  1  0  0  0  0
  7 12  2  0  0  0  0
  7 20  1  0  0  0  0
  8  9  2  0  0  0  0
  8 23  1  0  0  0  0
  9 24  1  0  0  0  0
 10 26  1  0  0  0  0
 11 26  2  0  0  0  0
 12 27  1  0  0  0  0
 13 14  2  0  0  0  0
 13 28  1  0  0  0  0
 14 29  1  0  0  0  0
 15 22  1  0  0  0  0
 15 27  2  0  0  0  0
 16 29  2  0  0  0  0
 16 30  1  0  0  0  0
 17 32  1  0  0  0  0
 18 32  1  0  0  0  0
 18 33  2  0  0  0  0
 18 34  1  0  0  0  0
 19 21  2  0  0  0  0
 19 41  1  0  0  0  0
 20 22  2  0  0  0  0
 20 42  1  0  0  0  0
 21 50  1  0  0  0  0
 22 43  1  0  0  0  0
 23 25  2  0  0  0  0
 23 69  1  0  0  0  0
 24 31  2  0  0  0  0
 24 70  1  0  0  0  0
 25 31  1  0  0  0  0
 25 66  1  0  0  0  0
 26 81  1  0  0  0  0
 27 82  1  0  0  0  0
 28 30  2  0  0  0  0
 28 81  1  0  0  0  0
 29 83  1  0  0  0  0
 30 84  1  0  0  0  0
 31 85  1  0  0  0  0
 32 62  2  0  0  0  0
 33 63  1  0  0  0  0
 33 67  1  0  0  0  0
 34 68  1  0  0  0  0
 34 74  2  0  0  0  0
 35 36  1  0  0  0  0
 35 58  1  0  0  0  0
 35 75  2  0  0  0  0
 36 69  1  0  0  0  0
 36 76  2  0  0  0  0
 37 51  1  0  0  0  0
 37 71  1  0  0  0  0
 37 77  2  0  0  0  0
 38 59  1  0  0  0  0
 38 64  1  0  0  0  0
 38 78  2  0  0  0  0
 39 60  1  0  0  0  0
 39 72  1  0  0  0  0
 39 79  2  0  0  0  0
 40 65  1  0  0  0  0
 40 70  1  0  0  0  0
 40 80  2  0  0  0  0
 41 44  1  0  0  0  0
 42 51  1  0  0  0  0
 43 64  1  0  0  0  0
 44 46  1  0  0  0  0
 45 47  1  0  0  0  0
 45 48  1  0  0  0  0
 46 50  1  0  0  0  0
 47 52  1  0  0  0  0
 48 65  1  0  0  0  0
 49 52  1  0  0  0  0
 49 65  1  0  0  0  0
 50 71  1  0  0  0  0
 51 64  1  0  0  0  0
 52 63  1  0  0  0  0
 53 60  1  0  0  0  0
 54 61  1  0  0  0  0
 55 61  1  0  0  0  0
 56 61  1  0  0  0  0
 57 73  1  0  0  0  0
 58 82  1  0  0  0  0
 59 61  1  0  0  0  0
 59 72  1  0  0  0  0
 60 73  1  0  0  0  0
 62 63  1  0  0  0  0
M  CHG  1  73   1
M  ISO  4  40 100  58 101  70 100  82 101
M  END
> <Batch ID>
0090

> <Smiles>
CNC(C)C(=O)NC(C(=O)N1Cc2cc([101O:1][101CH2:1]C(=O)C(=O)Nc3ccc([100NH:0][100C:0](=O)N4CCCC(n5nc(-c6ccc(Oc7ccc(F)cc7F)cc6)c(C(N)=O)c5N)C4)c(F)c3N)ccc2CC1C(=O)NC1CCCc2ccccc21)C(C)(C)C

> <Shape>
0.271

> <Color>
0.138

> <Negative vol penalty>
0.000

$$$$

  -OEChem-04052300293D

 83 91  0     1  0  0  0  0  0999 V2000
  -22.3528  -29.8025   26.2785 C   0  0  0  0  0  0  0  0  0  0  0  0
  -23.3729  -28.9679   25.8332 C   0  0  0  0  0  0  0  0  0  0  0  0
  -23.0567   -9.8501   19.9094 C   0  0  0  0  0  0  0  0  0  0  0  0
  -23.8595   -9.7688   22.1867 C   0  0  0  0  0  0  0  0  0  0  0  0
  -21.3168  -30.1567   25.4153 C   0  0  0  0  0  0  0  0  0  0  0  0
  -23.3570  -28.4862   24.5247 C   0  0  0  0  0  0  0  0  0  0  0  0
  -27.8868  -28.8021   22.2829 C   0  0  0  0  0  0  0  0  0  0  0  0
  -22.3332   -8.6768   20.1225 C   0  0  0  0  0  0  0  0  0  0  0  0
  -23.1360   -8.5954   22.3998 C   0  0  0  0  0  0  0  0  0  0  0  0
  -28.8328  -27.8349   22.6198 C   0  0  0  0  0  0  0  0  0  0  0  0
  -23.4609   -5.3051   21.6934 C   0  0  0  0  0  0  0  0  0  0  0  0
  -24.1035   -4.2586   22.3548 C   0  0  0  0  0  0  0  0  0  0  0  0
  -28.3230  -26.6375   20.5886 C   0  0  0  0  0  0  0  0  0  0  0  0
  -31.0373  -17.7560   20.7572 C   0  0  0  0  0  0  0  0  0  0  0  0
  -29.5909  -19.2347   22.6291 C   0  0  0  0  0  0  0  0  0  0  0  0
  -22.4324   -4.3341   24.0980 C   0  0  0  0  0  0  0  0  0  0  0  0
  -23.8199  -10.3961   20.9415 C   0  0  0  0  0  0  0  0  0  0  0  0
  -24.1254  -12.9287   20.9251 C   0  0  0  0  0  0  0  0  0  0  0  0
  -21.2932  -29.6869   24.0927 C   0  0  0  0  0  0  0  0  0  0  0  0
  -27.1428  -28.6883   21.0997 C   0  0  0  0  0  0  0  0  0  0  0  0
  -22.3190  -28.8334   23.6435 C   0  0  0  0  0  0  0  0  0  0  0  0
  -27.3700  -27.6059   20.2378 C   0  0  0  0  0  0  0  0  0  0  0  0
  -30.1619  -17.1102   21.6303 C   0  0  0  0  0  0  0  0  0  0  0  0
  -30.4663  -19.8805   21.7560 C   0  0  0  0  0  0  0  0  0  0  0  0
  -22.3728   -8.0494   21.3677 C   0  0  0  0  0  0  0  0  0  0  0  0
  -29.0490  -26.7509   21.7740 C   0  0  0  0  0  0  0  0  0  0  0  0
  -22.3041   -5.8662   22.2343 C   0  0  0  0  0  0  0  0  0  0  0  0
  -23.5893   -3.7731   23.5570 C   0  0  0  0  0  0  0  0  0  0  0  0
  -29.4387  -17.8495   22.5662 C   0  0  0  0  0  0  0  0  0  0  0  0
  -31.1895  -19.1411   20.8201 C   0  0  0  0  0  0  0  0  0  0  0  0
  -21.7898   -5.3807   23.4366 C   0  0  0  0  0  0  0  0  0  0  0  0
  -24.5679  -11.6078   20.7217 C   0  0  0  0  0  0  0  0  0  0  0  0
  -25.2004  -13.7086   20.5749 C   0  0  0  0  0  0  0  0  0  0  0  0
  -30.3641  -23.5103   22.5745 C   0  0  0  0  0  0  0  0  0  0  0  0
  -29.5441  -24.5161   22.2548 C   0  0  0  0  0  0  0  0  0  1  0  0
  -22.8563  -13.4078   21.3891 C   0  0  0  0  0  0  0  0  0  0  0  0
  -24.0544  -28.3833   20.4126 C   0  0  0  0  0  0  0  0  0  0  0  0
  -25.1021  -28.7003   17.3590 C   0  0  0  0  0  0  0  0  0  0  0  0
  -27.6703  -28.4017   15.1315 C   0  0  0  0  0  0  0  0  0  0  0  0
  -30.6544  -14.8234   20.6952 C   0  0  0  0  0  0  0  0  0  0  0  0
  -20.1276  -30.0589   23.2109 C   0  0  0  0  0  0  0  0  0  0  0  0
  -26.1452  -29.7541   20.7376 C   0  0  0  0  0  0  0  0  0  0  0  0
  -26.6119  -27.4483   18.9459 C   0  0  0  0  0  0  0  0  0  0  0  0
  -20.3823  -29.8084   21.7267 C   0  0  0  0  0  0  0  0  0  0  0  0
  -29.5281  -12.4986   18.2449 C   0  0  0  0  0  0  0  0  0  0  0  0
  -20.9945  -28.4272   21.5159 C   0  0  0  0  0  0  0  0  0  0  0  0
  -28.1008  -12.1682   18.6876 C   0  0  0  0  0  0  0  0  0  0  0  0
  -30.4625  -12.6882   19.4385 C   0  0  0  0  0  0  0  0  0  0  0  0
  -28.5723  -13.3251   20.8845 C   0  0  0  0  0  0  0  0  0  0  0  0
  -22.3498  -28.3106   22.2237 C   0  0  1  0  0  0  0  0  0  0  0  0
  -25.0793  -29.2676   19.7605 C   0  0  1  0  0  0  0  0  0  0  0  0
  -27.5799  -13.1891   19.7182 C   0  0  2  0  0  0  0  0  0  0  0  0
  -28.2129  -28.6981   12.6994 C   0  0  0  0  0  0  0  0  0  0  0  0
  -23.6284  -26.1069   16.7167 C   0  0  0  0  0  0  0  0  0  0  0  0
  -24.9582  -25.9570   14.6007 C   0  0  0  0  0  0  0  0  0  0  0  0
  -23.4196  -27.8853   14.9708 C   0  0  0  0  0  0  0  0  0  0  0  0
  -29.7224  -30.4514   15.7199 C   0  0  0  0  0  0  0  0  0  0  0  0
  -29.9091  -22.0977   22.7554 C   0  0  0  0  0  0  0  0  0  0  0  0
  -25.5742  -27.7485   16.2865 C   0  0  1  0  0  0  0  0  0  0  0  0
  -28.2008  -29.3513   14.0726 C   0  0  2  0  0  0  0  0  0  0  0  0
  -24.4082  -26.9261   15.6689 C   0  0  0  0  0  0  0  0  0  0  0  0
  -25.8258  -11.5482   20.2767 N   0  0  0  0  0  0  0  0  0  0  0  0
  -26.1830  -12.8413   20.1974 N   0  0  0  0  0  0  0  0  0  0  0  0
  -25.6427  -28.5132   18.6391 N   0  0  0  0  0  0  0  0  0  0  0  0
  -29.9064  -13.6721   20.3699 N   0  0  0  0  0  0  0  0  0  0  0  0
  -25.3915  -15.0449   20.5560 N   0  0  0  0  0  0  0  0  0  0  0  0
  -21.8632  -12.4706   21.7050 N   0  0  0  0  0  0  0  0  0  0  0  0
  -30.0102  -15.7029   21.5647 N   0  0  0  0  0  0  0  0  0  0  0  0
  -30.6157  -21.2578   21.8209 N   0  0  0  0  0  0  0  0  0  0  0  0
  -23.3788  -28.9819   21.4589 N   0  0  0  0  0  0  0  0  0  0  0  0
  -26.3132  -28.5552   15.3214 N   0  0  0  0  0  0  0  0  0  0  0  0
  -29.5911  -29.7729   14.4048 N   0  3  0  0  0  0  0  0  0  0  0  0
  -22.6046  -14.6313   21.5042 O   0  0  0  0  0  0  0  0  0  0  0  0
  -23.8877  -27.2429   19.9963 O   0  0  0  0  0  0  0  0  0  0  0  0
  -24.2891  -29.5819   17.0700 O   0  0  0  0  0  0  0  0  0  0  0  0
  -28.3873  -27.6010   15.7276 O   0  0  0  0  0  0  0  0  0  0  0  0
  -31.7721  -15.0282   20.2148 O   0  0  0  0  0  0  0  0  0  0  0  0
  -21.6668   -6.9046   21.5761 O   0  0  0  0  0  0  0  0  0  0  0  0
  -29.9712  -25.8051   22.1008 O   0  0  0  0  0  0  0  0  0  1  0  0
  -24.2056   -2.7670   24.1912 F   0  0  0  0  0  0  0  0  0  0  0  0
  -28.5964  -17.2390   23.4118 F   0  0  0  0  0  0  0  0  0  0  0  0
  -32.0339  -19.7521   19.9767 F   0  0  0  0  0  0  0  0  0  0  0  0
  -20.6781   -5.9149   23.9605 F   0  0  0  0  0  0  0  0  0  0  0  0
  1  2  1  0  0  0  0
  1  5  2  0  0  0  0
  2  6  2  0  0  0  0
  3  8  2  0  0  0  0
  3 17  1  0  0  0  0
  4  9  1  0  0  0  0
  4 17  2  0  0  0  0
  5 19  1  0  0  0  0
  6 21  1  0  0  0  0
  7 10  2  0  0  0  0
  7 20  1  0  0  0  0
  8 25  1  0  0  0  0
  9 25  2  0  0  0  0
 10 26  1  0  0  0  0
 11 12  2  0  0  0  0
 11 27  1  0  0  0  0
 12 28  1  0  0  0  0
 13 22  1  0  0  0  0
 13 26  2  0  0  0  0
 14 23  2  0  0  0  0
 14 30  1  0  0  0  0
 15 24  1  0  0  0  0
 15 29  2  0  0  0  0
 16 28  2  0  0  0  0
 16 31  1  0  0  0  0
 17 32  1  0  0  0  0
 18 32  1  0  0  0  0
 18 33  2  0  0  0  0
 18 36  1  0  0  0  0
 19 21  2  0  0  0  0
 19 41  1  0  0  0  0
 20 22  2  0  0  0  0
 20 42  1  0  0  0  0
 21 50  1  0  0  0  0
 22 43  1  0  0  0  0
 23 29  1  0  0  0  0
 23 68  1  0  0  0  0
 24 30  2  0  0  0  0
 24 69  1  0  0  0  0
 25 78  1  0  0  0  0
 26 79  1  0  0  0  0
 27 31  2  0  0  0  0
 27 78  1  0  0  0  0
 28 80  1  0  0  0  0
 29 81  1  0  0  0  0
 30 82  1  0  0  0  0
 31 83  1  0  0  0  0
 32 62  2  0  0  0  0
 33 63  1  0  0  0  0
 33 66  1  0  0  0  0
 34 35  2  0  0  0  0
 34 58  1  0  0  0  0
 35 79  1  0  0  0  0
 36 67  1  0  0  0  0
 36 73  2  0  0  0  0
 37 51  1  0  0  0  0
 37 70  1  0  0  0  0
 37 74  2  0  0  0  0
 38 59  1  0  0  0  0
 38 64  1  0  0  0  0
 38 75  2  0  0  0  0
 39 60  1  0  0  0  0
 39 71  1  0  0  0  0
 39 76  2  0  0  0  0
 40 65  1  0  0  0  0
 40 68  1  0  0  0  0
 40 77  2  0  0  0  0
 41 44  1  0  0  0  0
 42 51  1  0  0  0  0
 43 64  1  0  0  0  0
 44 46  1  0  0  0  0
 45 47  1  0  0  0  0
 45 48  1  0  0  0  0
 46 50  1  0  0  0  0
 47 52  1  0  0  0  0
 48 65  1  0  0  0  0
 49 52  1  0  0  0  0
 49 65  1  0  0  0  0
 50 70  1  0  0  0  0
 51 64  1  0  0  0  0
 52 63  1  0  0  0  0
 53 60  1  0  0  0  0
 54 61  1  0  0  0  0
 55 61  1  0  0  0  0
 56 61  1  0  0  0  0
 57 72  1  0  0  0  0
 58 69  1  0  0  0  0
 59 61  1  0  0  0  0
 59 71  1  0  0  0  0
 60 72  1  0  0  0  0
 62 63  1  0  0  0  0
M  CHG  1  72   1
M  ISO  4  35 101  40 100  68 100  79 101
M  END
> <Batch ID>
0090

> <Smiles>
CNC(C)C(=O)NC(C(=O)N1Cc2cc([101O:1][101CH:1]=CCNc3cc(F)c([100NH:0][100C:0](=O)N4CCCC(n5nc(-c6ccc(Oc7ccc(F)cc7F)cc6)c(C(N)=O)c5N)C4)cc3F)ccc2CC1C(=O)NC1CCCc2ccccc21)C(C)(C)C

> <Shape>
0.295

> <Color>
0.215

> <Negative vol penalty>
0.000

$$$$

  -OEChem-04052300293D

 86 95  0     1  0  0  0  0  0999 V2000
  -34.1887  -10.2862   17.4792 C   0  0  0  0  0  0  0  0  0  0  0  0
  -34.0336  -11.6482   17.7168 C   0  0  0  0  0  0  0  0  0  0  0  0
  -25.6941  -29.7684   21.4526 C   0  0  0  0  0  0  0  0  0  0  0  0
  -23.3325  -29.4058   21.0943 C   0  0  0  0  0  0  0  0  0  0  0  0
  -33.0873   -9.5137   17.1132 C   0  0  0  0  0  0  0  0  0  0  0  0
  -32.7770  -12.2386   17.5877 C   0  0  0  0  0  0  0  0  0  0  0  0
  -30.5127  -16.8447   20.9287 C   0  0  0  0  0  0  0  0  0  0  0  0
  -28.9887  -24.7123   16.5998 C   0  0  0  0  0  0  0  0  0  0  0  0
  -28.8329  -25.6263   15.5577 C   0  0  0  0  0  0  0  0  0  0  0  0
  -25.4023  -30.8562   22.2754 C   0  0  0  0  0  0  0  0  0  0  0  0
  -23.0406  -30.4936   21.9172 C   0  0  0  0  0  0  0  0  0  0  0  0
  -30.4188  -18.2158   20.6941 C   0  0  0  0  0  0  0  0  0  0  0  0
  -24.3824  -31.3690   25.4581 C   0  0  0  0  0  0  0  0  0  0  0  0
  -25.0753  -31.4738   26.6642 C   0  0  0  0  0  0  0  0  0  0  0  0
  -28.1591  -17.9195   19.9032 C   0  0  0  0  0  0  0  0  0  0  0  0
  -29.7109  -23.3360   20.9169 C   0  0  0  0  0  0  0  0  0  0  0  0
  -29.7593  -26.4898   18.0434 C   0  0  0  0  0  0  0  0  0  0  0  0
  -25.9623  -33.6109   25.9690 C   0  0  0  0  0  0  0  0  0  0  0  0
  -29.9138  -22.9040   18.7164 C   0  0  0  0  0  0  0  0  0  0  0  0
  -24.6592  -29.0432   20.8619 C   0  0  0  0  0  0  0  0  0  0  0  0
  -25.1074  -26.5747   20.4000 C   0  0  0  0  0  0  0  0  0  0  0  0
  -31.8147  -10.0932   16.9889 C   0  0  0  0  0  0  0  0  0  0  0  0
  -29.4326  -15.9978   20.6416 C   0  0  0  0  0  0  0  0  0  0  0  0
  -31.6577  -11.4734   17.2184 C   0  0  0  0  0  0  0  0  0  0  0  0
  -28.2410  -16.5384   20.1375 C   0  0  0  0  0  0  0  0  0  0  0  0
  -29.9840  -22.3240   19.9638 C   0  0  0  0  0  0  0  0  0  0  0  0
  -29.4519  -25.1441   17.8427 C   0  0  0  0  0  0  0  0  0  0  0  0
  -29.1403  -26.9720   15.7584 C   0  0  0  0  0  0  0  0  0  0  0  0
  -29.6035  -27.4037   17.0013 C   0  0  0  0  0  0  0  0  0  0  0  0
  -24.0756  -31.2188   22.5078 C   0  0  0  0  0  0  0  0  0  0  0  0
  -29.2429  -18.7531   20.1786 C   0  0  0  0  0  0  0  0  0  0  0  0
  -24.4795  -32.3851   24.5075 C   0  0  0  0  0  0  0  0  0  0  0  0
  -25.8652  -32.5947   26.9196 C   0  0  0  0  0  0  0  0  0  0  0  0
  -25.2694  -33.5061   24.7629 C   0  0  0  0  0  0  0  0  0  0  0  0
  -24.9600  -27.9197   20.0114 C   0  0  0  0  0  0  0  0  0  0  0  0
  -25.3861  -25.9084   19.2317 C   0  0  0  0  0  0  0  0  0  0  0  0
  -29.4819  -24.5036   20.2228 C   0  0  0  0  0  0  0  0  0  0  0  0
  -25.0018  -25.9808   21.7006 C   0  0  0  0  0  0  0  0  0  0  0  0
  -28.9666  -13.5448   18.6745 C   0  0  0  0  0  0  0  0  0  0  0  0
  -26.1138  -13.3606   20.2074 C   0  0  0  0  0  0  0  0  0  0  0  0
  -23.6913  -14.9399   22.0196 C   0  0  0  0  0  0  0  0  0  0  0  0
  -27.7346  -28.1279   14.0324 C   0  0  0  0  0  0  0  0  0  0  0  0
  -30.6628   -9.2268   16.5450 C   0  0  0  0  0  0  0  0  0  0  0  0
  -29.5405  -14.5247   20.9254 C   0  0  0  0  0  0  0  0  0  0  0  0
  -27.0455  -15.6749   19.8315 C   0  0  0  0  0  0  0  0  0  0  0  0
  -29.2950   -9.8569   16.7948 C   0  0  0  0  0  0  0  0  0  0  0  0
  -24.6656  -26.1165   14.5109 C   0  0  0  0  0  0  0  0  0  0  0  0
  -29.2843  -11.3103   16.3318 C   0  0  0  0  0  0  0  0  0  0  0  0
  -24.3620  -26.3089   15.9956 C   0  0  0  0  0  0  0  0  0  0  0  0
  -25.3997  -27.3177   13.9227 C   0  0  0  0  0  0  0  0  0  0  0  0
  -26.3483  -27.8623   16.1464 C   0  0  0  0  0  0  0  0  0  0  0  0
  -30.3060  -12.1456   17.1128 C   0  0  1  0  0  0  0  0  0  0  0  0
  -28.5581  -13.6862   20.1135 C   0  0  1  0  0  0  0  0  0  0  0  0
  -25.6449  -26.6486   16.7721 C   0  0  1  0  0  0  0  0  0  0  0  0
  -21.4603  -14.5390   23.0963 C   0  0  0  0  0  0  0  0  0  0  0  0
  -24.7766  -13.4548   17.4663 C   0  0  0  0  0  0  0  0  0  0  0  0
  -22.6211  -14.0068   18.6141 C   0  0  0  0  0  0  0  0  0  0  0  0
  -23.7539  -11.8317   19.0707 C   0  0  0  0  0  0  0  0  0  0  0  0
  -30.1729  -28.4215   14.0196 C   0  0  0  0  0  0  0  0  0  0  0  0
  -24.7431  -15.5867   24.7092 C   0  0  0  0  0  0  0  0  0  0  0  0
  -30.2931  -20.8854   20.2572 C   0  0  0  0  0  0  0  0  0  1  0  0
  -24.7462  -13.9646   19.9972 C   0  0  1  0  0  0  0  0  0  0  0  0
  -22.9681  -14.5445   23.2944 C   0  0  2  0  0  0  0  0  0  0  0  0
  -23.9975  -13.3308   18.7909 C   0  0  0  0  0  0  0  0  0  0  0  0
  -25.1311  -28.0990   18.6989 N   0  0  0  0  0  0  0  0  0  0  0  0
  -29.6077  -24.2290   18.8861 N   0  0  0  0  0  0  0  0  0  0  0  0
  -25.3889  -26.8579   18.2526 N   0  0  0  0  0  0  0  0  0  0  0  0
  -27.2025  -14.2398   20.1201 N   0  0  0  0  0  0  0  0  0  0  0  0
  -26.5854  -27.6666   14.7068 N   0  0  0  0  0  0  0  0  0  0  0  0
  -29.9202  -28.7623   17.2262 N   0  0  0  0  0  0  0  0  0  0  0  0
  -25.6266  -24.6088   18.9567 N   0  0  0  0  0  0  0  0  0  0  0  0
  -24.7097  -26.8100   22.7921 N   0  0  0  0  0  0  0  0  0  0  0  0
  -29.7960  -12.4673   18.4284 N   0  0  0  0  0  0  0  0  0  0  0  0
  -24.0441  -13.8379   21.2697 N   0  0  0  0  0  0  0  0  0  0  0  0
  -28.9711  -27.8974   14.6649 N   0  0  0  0  0  0  0  0  0  0  0  0
  -23.2945  -15.4981   24.3922 N   0  3  0  0  0  0  0  0  0  0  0  0
  -25.1779  -24.7536   21.8918 O   0  0  0  0  0  0  0  0  0  0  0  0
  -28.5583  -14.3526   17.8484 O   0  0  0  0  0  0  0  0  0  0  0  0
  -26.2119  -12.1547   20.4474 O   0  0  0  0  0  0  0  0  0  0  0  0
  -23.9170  -16.1096   21.7173 O   0  0  0  0  0  0  0  0  0  0  0  0
  -27.6615  -28.7520   12.9667 O   0  0  0  0  0  0  0  0  0  0  0  0
  -29.1860  -25.7220   20.6593 O   0  0  0  0  0  0  0  0  0  0  0  0
  -23.7904  -32.2800   23.3109 O   0  0  0  0  0  0  0  0  0  0  0  0
  -29.1487  -20.0909   19.9481 O   0  0  0  0  0  0  0  0  0  1  0  0
  -26.5292  -32.6959   28.0785 F   0  0  0  0  0  0  0  0  0  0  0  0
  -25.3657  -34.4860   23.8539 F   0  0  0  0  0  0  0  0  0  0  0  0
  1  2  1  0  0  0  0
  1  5  2  0  0  0  0
  2  6  2  0  0  0  0
  3 10  2  0  0  0  0
  3 20  1  0  0  0  0
  4 11  1  0  0  0  0
  4 20  2  0  0  0  0
  5 22  1  0  0  0  0
  6 24  1  0  0  0  0
  7 12  2  0  0  0  0
  7 23  1  0  0  0  0
  8  9  2  0  0  0  0
  8 27  1  0  0  0  0
  9 28  1  0  0  0  0
 10 30  1  0  0  0  0
 11 30  2  0  0  0  0
 12 31  1  0  0  0  0
 13 14  2  0  0  0  0
 13 32  1  0  0  0  0
 14 33  1  0  0  0  0
 15 25  1  0  0  0  0
 15 31  2  0  0  0  0
 16 26  1  0  0  0  0
 16 37  2  0  0  0  0
 17 27  2  0  0  0  0
 17 29  1  0  0  0  0
 18 33  2  0  0  0  0
 18 34  1  0  0  0  0
 19 26  2  0  0  0  0
 19 66  1  0  0  0  0
 20 35  1  0  0  0  0
 21 35  1  0  0  0  0
 21 36  2  0  0  0  0
 21 38  1  0  0  0  0
 22 24  2  0  0  0  0
 22 43  1  0  0  0  0
 23 25  2  0  0  0  0
 23 44  1  0  0  0  0
 24 52  1  0  0  0  0
 25 45  1  0  0  0  0
 26 61  1  0  0  0  0
 27 66  1  0  0  0  0
 28 29  2  0  0  0  0
 28 75  1  0  0  0  0
 29 70  1  0  0  0  0
 30 83  1  0  0  0  0
 31 84  1  0  0  0  0
 32 34  2  0  0  0  0
 32 83  1  0  0  0  0
 33 85  1  0  0  0  0
 34 86  1  0  0  0  0
 35 65  2  0  0  0  0
 36 67  1  0  0  0  0
 36 71  1  0  0  0  0
 37 66  1  0  0  0  0
 37 82  1  0  0  0  0
 38 72  1  0  0  0  0
 38 77  2  0  0  0  0
 39 53  1  0  0  0  0
 39 73  1  0  0  0  0
 39 78  2  0  0  0  0
 40 62  1  0  0  0  0
 40 68  1  0  0  0  0
 40 79  2  0  0  0  0
 41 63  1  0  0  0  0
 41 74  1  0  0  0  0
 41 80  2  0  0  0  0
 42 69  1  0  0  0  0
 42 75  1  0  0  0  0
 42 81  2  0  0  0  0
 43 46  1  0  0  0  0
 44 53  1  0  0  0  0
 45 68  1  0  0  0  0
 46 48  1  0  0  0  0
 47 49  1  0  0  0  0
 47 50  1  0  0  0  0
 48 52  1  0  0  0  0
 49 54  1  0  0  0  0
 50 69  1  0  0  0  0
 51 54  1  0  0  0  0
 51 69  1  0  0  0  0
 52 73  1  0  0  0  0
 53 68  1  0  0  0  0
 54 67  1  0  0  0  0
 55 63  1  0  0  0  0
 56 64  1  0  0  0  0
 57 64  1  0  0  0  0
 58 64  1  0  0  0  0
 59 75  1  0  0  0  0
 60 76  1  0  0  0  0
 61 84  1  0  0  0  0
 62 64  1  0  0  0  0
 62 74  1  0  0  0  0
 63 76  1  0  0  0  0
 65 67  1  0  0  0  0
M  CHG  1  76   1
M  ISO  4  42 100  61 101  75 100  84 101
M  END
> <Batch ID>
0090

> <Smiles>
CNC(C)C(=O)NC(C(=O)N1Cc2cc([101O:1][101CH2:1]C3=CN(c4ccc([100N:0](C)[100C:0](=O)N5CCCC(n6nc(-c7ccc(Oc8ccc(F)cc8F)cc7)c(C(N)=O)c6N)C5)c(N)c4)C(=O)C3)ccc2CC1C(=O)NC1CCCc2ccccc21)C(C)(C)C

> <Shape>
0.258

> <Color>
0.056

> <Negative vol penalty>
0.000

$$$$
