
  -OEChem-04052300313D

 86 95  0     1  0  0  0  0  0999 V2000
  -28.5827  -37.1087   19.2456 C   0  0  0  0  0  0  0  0  0  0  0  0
  -28.7001  -35.7747   18.8686 C   0  0  0  0  0  0  0  0  0  0  0  0
  -24.6540   -8.4446   20.6781 C   0  0  0  0  0  0  0  0  0  0  0  0
  -22.9580  -10.1153   20.2666 C   0  0  0  0  0  0  0  0  0  0  0  0
  -28.2242  -37.4334   20.5533 C   0  0  0  0  0  0  0  0  0  0  0  0
  -28.4602  -34.7646   19.7995 C   0  0  0  0  0  0  0  0  0  0  0  0
  -25.9434  -29.2866   18.7211 C   0  0  0  0  0  0  0  0  0  0  0  0
  -27.6823  -20.5498   17.2239 C   0  0  0  0  0  0  0  0  0  0  0  0
  -27.4751  -19.3477   16.5474 C   0  0  0  0  0  0  0  0  0  0  0  0
  -23.6702   -7.5489   21.0968 C   0  0  0  0  0  0  0  0  0  0  0  0
  -21.9741   -9.2196   20.6853 C   0  0  0  0  0  0  0  0  0  0  0  0
  -26.4972  -28.0228   18.5216 C   0  0  0  0  0  0  0  0  0  0  0  0
  -21.8201   -7.0001   23.8718 C   0  0  0  0  0  0  0  0  0  0  0  0
  -22.0621   -6.2701   25.0355 C   0  0  0  0  0  0  0  0  0  0  0  0
  -26.1630  -27.5143   20.8559 C   0  0  0  0  0  0  0  0  0  0  0  0
  -29.2095  -23.3601   20.4229 C   0  0  0  0  0  0  0  0  0  0  0  0
  -28.1593  -19.3262   19.2518 C   0  0  0  0  0  0  0  0  0  0  0  0
  -21.8827   -4.2125   23.7820 C   0  0  0  0  0  0  0  0  0  0  0  0
  -24.2980   -9.7278   20.2631 C   0  0  0  0  0  0  0  0  0  0  0  0
  -25.8036  -10.8288   18.5228 C   0  0  0  0  0  0  0  0  0  0  0  0
  -27.9704  -36.4266   21.4981 C   0  0  0  0  0  0  0  0  0  0  0  0
  -25.5044  -29.6784   19.9940 C   0  0  0  0  0  0  0  0  0  0  0  0
  -28.0993  -35.0761   21.1214 C   0  0  0  0  0  0  0  0  0  0  0  0
  -25.6016  -28.7827   21.0684 C   0  0  0  0  0  0  0  0  0  0  0  0
  -27.8809  -23.7553   20.1299 C   0  0  0  0  0  0  0  0  0  0  0  0
  -28.0244  -20.5390   18.5762 C   0  0  0  0  0  0  0  0  0  0  0  0
  -27.6100  -18.1349   17.2231 C   0  0  0  0  0  0  0  0  0  0  0  0
  -27.9521  -18.1241   18.5753 C   0  0  0  0  0  0  0  0  0  0  0  0
  -22.3302   -7.9363   21.1004 C   0  0  0  0  0  0  0  0  0  0  0  0
  -26.6098  -27.1375   19.5896 C   0  0  0  0  0  0  0  0  0  0  0  0
  -21.6093   -6.3363   22.6632 C   0  0  0  0  0  0  0  0  0  0  0  0
  -22.0935   -4.8763   24.9906 C   0  0  0  0  0  0  0  0  0  0  0  0
  -21.6406   -4.9426   22.6183 C   0  0  0  0  0  0  0  0  0  0  0  0
  -25.3139  -10.6537   19.8310 C   0  0  0  0  0  0  0  0  0  0  0  0
  -27.2991  -22.7375   19.4068 C   0  0  0  0  0  0  0  0  0  0  0  0
  -26.7489  -11.8184   18.6396 C   0  0  0  0  0  0  0  0  0  0  0  0
  -29.3991  -22.1129   19.8698 C   0  0  0  0  0  0  0  0  0  0  0  0
  -25.4367  -10.1571   17.3104 C   0  0  0  0  0  0  0  0  0  0  0  0
  -26.3161  -31.9727   22.0388 C   0  0  0  0  0  0  0  0  0  0  0  0
  -23.7584  -30.8623   23.6964 C   0  0  0  0  0  0  0  0  0  0  0  0
  -21.6382  -28.2715   24.3590 C   0  0  0  0  0  0  0  0  0  0  0  0
  -28.4267  -16.7416   20.6271 C   0  0  0  0  0  0  0  0  0  0  0  0
  -27.6319  -36.8269   22.9123 C   0  0  0  0  0  0  0  0  0  0  0  0
  -24.8848  -31.0353   20.1872 C   0  0  0  0  0  0  0  0  0  0  0  0
  -25.1266  -29.1474   22.4504 C   0  0  0  0  0  0  0  0  0  0  0  0
  -27.0295  -35.6934   23.7385 C   0  0  0  0  0  0  0  0  0  0  0  0
  -28.8358  -13.9117   22.7487 C   0  0  0  0  0  0  0  0  0  0  0  0
  -27.8387  -34.4130   23.5582 C   0  0  0  0  0  0  0  0  0  0  0  0
  -27.9963  -12.8262   22.0711 C   0  0  0  0  0  0  0  0  0  0  0  0
  -28.1858  -15.2889   22.6287 C   0  0  0  0  0  0  0  0  0  0  0  0
  -26.9933  -14.6064   20.5839 C   0  0  0  0  0  0  0  0  0  0  0  0
  -27.8230  -33.9518   22.0958 C   0  0  1  0  0  0  0  0  0  0  0  0
  -24.9426  -31.5182   21.6331 C   0  0  1  0  0  0  0  0  0  0  0  0
  -27.6397  -13.2120   20.6221 C   0  0  2  0  0  0  0  0  0  0  0  0
  -25.9307  -22.6364   18.8513 C   0  0  0  0  0  0  0  0  0  0  0  0
  -19.6705  -27.6524   25.7881 C   0  0  0  0  0  0  0  0  0  0  0  0
  -25.6035  -30.5794   26.1100 C   0  0  0  0  0  0  0  0  0  0  0  0
  -23.8764  -29.1091   27.1701 C   0  0  0  0  0  0  0  0  0  0  0  0
  -23.3314  -31.4836   26.6341 C   0  0  0  0  0  0  0  0  0  0  0  0
  -19.9303  -27.7722   21.9941 C   0  0  0  0  0  0  0  0  0  0  0  0
  -27.2353  -25.0474   20.5362 C   0  0  0  0  0  0  0  0  0  1  0  0
  -23.5465  -29.8065   24.7544 C   0  0  1  0  0  0  0  0  0  0  0  0
  -20.1241  -28.2060   24.4463 C   0  0  2  0  0  0  0  0  0  0  0  0
  -24.1003  -30.2382   26.1416 C   0  0  0  0  0  0  0  0  0  0  0  0
  -25.8998  -11.4667   20.7140 N   0  0  0  0  0  0  0  0  0  0  0  0
  -28.2313  -21.7446   19.2545 N   0  0  0  0  0  0  0  0  0  0  0  0
  -26.7675  -12.1622   19.9593 N   0  0  0  0  0  0  0  0  0  0  0  0
  -24.5338  -30.4878   22.5899 N   0  0  0  0  0  0  0  0  0  0  0  0
  -27.8801  -15.5880   21.2280 N   0  0  0  0  0  0  0  0  0  0  0  0
  -27.3943  -16.9298   16.5177 N   0  0  0  0  0  0  0  0  0  0  0  0
  -27.5577  -12.4192   17.7412 N   0  0  0  0  0  0  0  0  0  0  0  0
  -24.4474   -9.1660   17.3687 N   0  0  0  0  0  0  0  0  0  0  0  0
  -28.0930  -16.9046   19.2829 N   0  0  0  0  0  0  0  0  0  0  0  0
  -26.5656  -33.3074   21.7826 N   0  0  0  0  0  0  0  0  0  0  0  0
  -22.1194  -29.5035   24.7486 N   0  0  0  0  0  0  0  0  0  0  0  0
  -19.5805  -27.3314   23.3690 N   0  3  0  0  0  0  0  0  0  0  0  0
  -25.9820  -10.4162   16.2108 O   0  0  0  0  0  0  0  0  0  0  0  0
  -27.0916  -31.1721   22.5481 O   0  0  0  0  0  0  0  0  0  0  0  0
  -23.2485  -31.9760   23.8427 O   0  0  0  0  0  0  0  0  0  0  0  0
  -22.3255  -27.3232   23.9863 O   0  0  0  0  0  0  0  0  0  0  0  0
  -29.1605  -17.5125   21.2508 O   0  0  0  0  0  0  0  0  0  0  0  0
  -30.4672  -21.3243   19.8701 O   0  0  0  0  0  0  0  0  0  0  0  0
  -21.3699   -7.0625   21.5087 O   0  0  0  0  0  0  0  0  0  0  0  0
  -27.1506  -25.9036   19.3977 O   0  0  0  0  0  0  0  0  0  1  0  0
  -22.3275   -4.1755   26.1078 F   0  0  0  0  0  0  0  0  0  0  0  0
  -21.4399   -4.2993   21.4600 F   0  0  0  0  0  0  0  0  0  0  0  0
  1  2  1  0  0  0  0
  1  5  2  0  0  0  0
  2  6  2  0  0  0  0
  3 10  2  0  0  0  0
  3 19  1  0  0  0  0
  4 11  1  0  0  0  0
  4 19  2  0  0  0  0
  5 21  1  0  0  0  0
  6 23  1  0  0  0  0
  7 12  2  0  0  0  0
  7 22  1  0  0  0  0
  8  9  2  0  0  0  0
  8 26  1  0  0  0  0
  9 27  1  0  0  0  0
 10 29  1  0  0  0  0
 11 29  2  0  0  0  0
 12 30  1  0  0  0  0
 13 14  2  0  0  0  0
 13 31  1  0  0  0  0
 14 32  1  0  0  0  0
 15 24  1  0  0  0  0
 15 30  2  0  0  0  0
 16 25  1  0  0  0  0
 16 37  2  0  0  0  0
 17 26  2  0  0  0  0
 17 28  1  0  0  0  0
 18 32  2  0  0  0  0
 18 33  1  0  0  0  0
 19 34  1  0  0  0  0
 20 34  1  0  0  0  0
 20 36  2  0  0  0  0
 20 38  1  0  0  0  0
 21 23  2  0  0  0  0
 21 43  1  0  0  0  0
 22 24  2  0  0  0  0
 22 44  1  0  0  0  0
 23 52  1  0  0  0  0
 24 45  1  0  0  0  0
 25 35  2  0  0  0  0
 25 61  1  0  0  0  0
 26 66  1  0  0  0  0
 27 28  2  0  0  0  0
 27 70  1  0  0  0  0
 28 73  1  0  0  0  0
 29 83  1  0  0  0  0
 30 84  1  0  0  0  0
 31 33  2  0  0  0  0
 31 83  1  0  0  0  0
 32 85  1  0  0  0  0
 33 86  1  0  0  0  0
 34 65  2  0  0  0  0
 35 55  1  0  0  0  0
 35 66  1  0  0  0  0
 36 67  1  0  0  0  0
 36 71  1  0  0  0  0
 37 66  1  0  0  0  0
 37 82  1  0  0  0  0
 38 72  1  0  0  0  0
 38 77  2  0  0  0  0
 39 53  1  0  0  0  0
 39 74  1  0  0  0  0
 39 78  2  0  0  0  0
 40 62  1  0  0  0  0
 40 68  1  0  0  0  0
 40 79  2  0  0  0  0
 41 63  1  0  0  0  0
 41 75  1  0  0  0  0
 41 80  2  0  0  0  0
 42 69  1  0  0  0  0
 42 73  1  0  0  0  0
 42 81  2  0  0  0  0
 43 46  1  0  0  0  0
 44 53  1  0  0  0  0
 45 68  1  0  0  0  0
 46 48  1  0  0  0  0
 47 49  1  0  0  0  0
 47 50  1  0  0  0  0
 48 52  1  0  0  0  0
 49 54  1  0  0  0  0
 50 69  1  0  0  0  0
 51 54  1  0  0  0  0
 51 69  1  0  0  0  0
 52 74  1  0  0  0  0
 53 68  1  0  0  0  0
 54 67  1  0  0  0  0
 56 63  1  0  0  0  0
 57 64  1  0  0  0  0
 58 64  1  0  0  0  0
 59 64  1  0  0  0  0
 60 76  1  0  0  0  0
 61 84  1  0  0  0  0
 62 64  1  0  0  0  0
 62 75  1  0  0  0  0
 63 76  1  0  0  0  0
 65 67  1  0  0  0  0
M  CHG  1  76   1
M  ISO  4  42 100  61 101  73 100  84 101
M  END
> <Batch ID>
0091

> <Smiles>
CNC(C)C(=O)NC(C(=O)N1Cc2cc([101O:1][101CH2:1]C3=C(C)N(c4ccc(N)c([100NH:0][100C:0](=O)N5CCCC(n6nc(-c7ccc(Oc8ccc(F)cc8F)cc7)c(C(N)=O)c6N)C5)c4)C(=O)C3)ccc2CC1C(=O)NC1CCCc2ccccc21)C(C)(C)C

> <Shape>
0.293

> <Color>
0.116

> <Negative vol penalty>
0.000

$$$$

  -OEChem-04052300313D

 86 94  0     1  0  0  0  0  0999 V2000
  -30.1489  -23.0132   14.4633 C   0  0  0  0  0  0  0  0  0  0  0  0
  -29.3761  -22.6554   15.5634 C   0  0  0  0  0  0  0  0  0  0  0  0
  -27.7800  -21.3106   25.2181 C   0  0  0  0  0  0  0  0  0  0  0  0
  -30.0850  -22.0342   25.1995 C   0  0  0  0  0  0  0  0  0  0  0  0
  -30.8586  -24.2133   14.4721 C   0  0  0  0  0  0  0  0  0  0  0  0
  -29.3133  -23.4972   16.6734 C   0  0  0  0  0  0  0  0  0  0  0  0
  -24.5916  -24.0715   18.4114 C   0  0  0  0  0  0  0  0  0  0  0  0
  -27.6119  -21.8786   26.4809 C   0  0  0  0  0  0  0  0  0  0  0  0
  -29.9169  -22.6023   26.4623 C   0  0  0  0  0  0  0  0  0  0  0  0
  -24.0646  -23.0331   19.1781 C   0  0  0  0  0  0  0  0  0  0  0  0
  -26.4758  -23.4526   29.5545 C   0  0  0  0  0  0  0  0  0  0  0  0
  -25.3242  -24.2073   29.7781 C   0  0  0  0  0  0  0  0  0  0  0  0
  -24.4422  -13.3366   21.6320 C   0  0  0  0  0  0  0  0  0  0  0  0
  -25.1344  -15.6474   21.4988 C   0  0  0  0  0  0  0  0  0  0  0  0
  -24.5598  -24.2732   21.1871 C   0  0  0  0  0  0  0  0  0  0  0  0
  -22.8441  -15.1019   22.0407 C   0  0  0  0  0  0  0  0  0  0  0  0
  -25.9692  -25.7165   28.0051 C   0  0  0  0  0  0  0  0  0  0  0  0
  -29.0166  -21.3883   24.5774 C   0  0  0  0  0  0  0  0  0  0  0  0
  -25.4363  -14.2887   21.4069 C   0  0  0  0  0  0  0  0  0  0  0  0
  -28.9861  -21.4228   22.0268 C   0  0  0  0  0  0  0  0  0  0  0  0
  -30.7968  -25.0747   15.5788 C   0  0  0  0  0  0  0  0  0  0  0  0
  -25.1175  -25.2158   19.0283 C   0  0  0  0  0  0  0  0  0  0  0  0
  -30.0238  -24.7093   16.6974 C   0  0  0  0  0  0  0  0  0  0  0  0
  -25.0906  -25.3258   20.4259 C   0  0  0  0  0  0  0  0  0  0  0  0
  -23.1460  -13.7432   21.9488 C   0  0  0  0  0  0  0  0  0  0  0  0
  -23.8383  -16.0540   21.8157 C   0  0  0  0  0  0  0  0  0  0  0  0
  -28.6803  -22.5245   27.1030 C   0  0  0  0  0  0  0  0  0  0  0  0
  -24.0513  -23.1326   20.5662 C   0  0  0  0  0  0  0  0  0  0  0  0
  -27.3741  -23.8299   28.5563 C   0  0  0  0  0  0  0  0  0  0  0  0
  -25.0709  -25.3392   29.0034 C   0  0  0  0  0  0  0  0  0  0  0  0
  -27.1208  -24.9618   27.7816 C   0  0  0  0  0  0  0  0  0  0  0  0
  -29.1911  -20.8013   23.2732 C   0  0  0  0  0  0  0  0  0  0  0  0
  -29.2849  -20.4498   21.1046 C   0  0  0  0  0  0  0  0  0  0  0  0
  -24.1133  -20.8851   21.2108 C   0  0  0  0  0  0  0  0  0  1  0  0
  -26.8170  -13.8555   21.0708 C   0  0  0  0  0  0  0  0  0  0  0  0
  -28.5633  -22.7602   21.7293 C   0  0  0  0  0  0  0  0  0  0  0  0
  -23.6902  -19.8194   21.9013 C   0  0  0  0  0  0  0  0  0  0  0  0
  -24.3903  -18.5067   21.7144 C   0  0  0  0  0  0  0  0  0  0  0  0
  -27.9806  -26.5924   19.1330 C   0  0  0  0  0  0  0  0  0  0  0  0
  -26.3740  -28.9162   20.7271 C   0  0  0  0  0  0  0  0  0  0  0  0
  -23.6791  -29.7928   22.6286 C   0  0  0  0  0  0  0  0  0  0  0  0
  -29.1977  -14.5080   21.2433 C   0  0  0  0  0  0  0  0  0  0  0  0
  -31.6189  -26.3391   15.5613 C   0  0  0  0  0  0  0  0  0  0  0  0
  -25.6580  -26.3387   18.1860 C   0  0  0  0  0  0  0  0  0  0  0  0
  -25.6244  -26.5421   21.1360 C   0  0  0  0  0  0  0  0  0  0  0  0
  -31.2011  -27.3520   16.6243 C   0  0  0  0  0  0  0  0  0  0  0  0
  -31.9999  -16.5414   20.5291 C   0  0  0  0  0  0  0  0  0  0  0  0
  -31.0193  -26.6651   17.9741 C   0  0  0  0  0  0  0  0  0  0  0  0
  -31.5758  -17.9272   21.0232 C   0  0  0  0  0  0  0  0  0  0  0  0
  -31.4895  -15.4312   21.4465 C   0  0  0  0  0  0  0  0  0  0  0  0
  -29.6283  -16.8461   22.2158 C   0  0  0  0  0  0  0  0  0  0  0  0
  -29.9107  -25.6075   17.9101 C   0  0  1  0  0  0  0  0  0  0  0  0
  -26.6358  -27.2343   18.9405 C   0  0  1  0  0  0  0  0  0  0  0  0
  -30.0582  -17.9935   21.2876 C   0  0  1  0  0  0  0  0  0  0  0  0
  -22.6587  -31.7558   23.8130 C   0  0  0  0  0  0  0  0  0  0  0  0
  -28.4429  -28.6453   22.9534 C   0  0  0  0  0  0  0  0  0  0  0  0
  -26.8792  -29.8886   24.4626 C   0  0  0  0  0  0  0  0  0  0  0  0
  -27.7855  -30.9988   22.4208 C   0  0  0  0  0  0  0  0  0  0  0  0
  -21.2281  -29.6643   20.9748 C   0  0  0  0  0  0  0  0  0  0  0  0
  -26.0412  -29.1853   22.1748 C   0  0  1  0  0  0  0  0  0  0  0  0
  -22.7058  -30.9529   22.5223 C   0  0  2  0  0  0  0  0  0  0  0  0
  -27.2788  -29.6556   22.9899 C   0  0  0  0  0  0  0  0  0  0  0  0
  -29.5892  -19.5316   23.1569 N   0  0  0  0  0  0  0  0  0  0  0  0
  -29.6367  -19.3475   21.8266 N   0  0  0  0  0  0  0  0  0  0  0  0
  -26.1481  -27.6105   20.2689 N   0  0  0  0  0  0  0  0  0  0  0  0
  -30.0438  -15.5589   21.6385 N   0  0  0  0  0  0  0  0  0  0  0  0
  -22.1405  -12.7807   22.1760 N   0  0  0  0  0  0  0  0  0  0  0  0
  -29.2784  -20.4382   19.7547 N   0  0  0  0  0  0  0  0  0  0  0  0
  -28.2981  -23.6299   22.7958 N   0  0  0  0  0  0  0  0  0  0  0  0
  -23.5318  -17.4331   21.9081 N   0  0  0  0  0  0  0  0  0  0  0  0
  -27.8310  -14.7442   21.4289 N   0  0  0  0  0  0  0  0  0  0  0  0
  -28.6084  -26.2372   17.9544 N   0  0  0  0  0  0  0  0  0  0  0  0
  -24.9334  -30.1347   22.1693 N   0  0  0  0  0  0  0  0  0  0  0  0
  -21.3330  -30.4521   22.2299 N   0  3  0  0  0  0  0  0  0  0  0  0
  -26.9888  -12.7571   20.5494 O   0  0  0  0  0  0  0  0  0  0  0  0
  -28.4091  -23.1667   20.5526 O   0  0  0  0  0  0  0  0  0  0  0  0
  -25.5812  -18.4633   21.4252 O   0  0  0  0  0  0  0  0  0  0  0  0
  -28.4171  -26.4327   20.2669 O   0  0  0  0  0  0  0  0  0  0  0  0
  -26.8114  -29.8326   20.0267 O   0  0  0  0  0  0  0  0  0  0  0  0
  -23.3596  -28.6943   23.0780 O   0  0  0  0  0  0  0  0  0  0  0  0
  -29.6195  -13.4650   20.7339 O   0  0  0  0  0  0  0  0  0  0  0  0
  -22.6312  -19.8797   22.7843 O   0  0  0  0  0  0  0  0  0  0  0  0
  -28.5165  -23.0791   28.3351 O   0  0  0  0  0  0  0  0  0  0  0  0
  -23.5381  -22.1203   21.3170 O   0  0  0  0  0  0  0  0  0  1  0  0
  -23.9643  -26.0629   29.2171 F   0  0  0  0  0  0  0  0  0  0  0  0
  -27.9795  -25.3286   26.8204 F   0  0  0  0  0  0  0  0  0  0  0  0
  1  2  1  0  0  0  0
  1  5  2  0  0  0  0
  2  6  2  0  0  0  0
  3  8  2  0  0  0  0
  3 18  1  0  0  0  0
  4  9  1  0  0  0  0
  4 18  2  0  0  0  0
  5 21  1  0  0  0  0
  6 23  1  0  0  0  0
  7 10  2  0  0  0  0
  7 22  1  0  0  0  0
  8 27  1  0  0  0  0
  9 27  2  0  0  0  0
 10 28  1  0  0  0  0
 11 12  2  0  0  0  0
 11 29  1  0  0  0  0
 12 30  1  0  0  0  0
 13 19  2  0  0  0  0
 13 25  1  0  0  0  0
 14 19  1  0  0  0  0
 14 26  2  0  0  0  0
 15 24  1  0  0  0  0
 15 28  2  0  0  0  0
 16 25  2  0  0  0  0
 16 26  1  0  0  0  0
 17 30  2  0  0  0  0
 17 31  1  0  0  0  0
 18 32  1  0  0  0  0
 19 35  1  0  0  0  0
 20 32  1  0  0  0  0
 20 33  2  0  0  0  0
 20 36  1  0  0  0  0
 21 23  2  0  0  0  0
 21 43  1  0  0  0  0
 22 24  2  0  0  0  0
 22 44  1  0  0  0  0
 23 52  1  0  0  0  0
 24 45  1  0  0  0  0
 25 67  1  0  0  0  0
 26 70  1  0  0  0  0
 27 83  1  0  0  0  0
 28 84  1  0  0  0  0
 29 31  2  0  0  0  0
 29 83  1  0  0  0  0
 30 85  1  0  0  0  0
 31 86  1  0  0  0  0
 32 63  2  0  0  0  0
 33 64  1  0  0  0  0
 33 68  1  0  0  0  0
 34 37  2  0  0  0  0
 34 84  1  0  0  0  0
 35 71  1  0  0  0  0
 35 75  2  0  0  0  0
 36 69  1  0  0  0  0
 36 76  2  0  0  0  0
 37 38  1  0  0  0  0
 37 82  1  0  0  0  0
 38 70  1  0  0  0  0
 38 77  2  0  0  0  0
 39 53  1  0  0  0  0
 39 72  1  0  0  0  0
 39 78  2  0  0  0  0
 40 60  1  0  0  0  0
 40 65  1  0  0  0  0
 40 79  2  0  0  0  0
 41 61  1  0  0  0  0
 41 73  1  0  0  0  0
 41 80  2  0  0  0  0
 42 66  1  0  0  0  0
 42 71  1  0  0  0  0
 42 81  2  0  0  0  0
 43 46  1  0  0  0  0
 44 53  1  0  0  0  0
 45 65  1  0  0  0  0
 46 48  1  0  0  0  0
 47 49  1  0  0  0  0
 47 50  1  0  0  0  0
 48 52  1  0  0  0  0
 49 54  1  0  0  0  0
 50 66  1  0  0  0  0
 51 54  1  0  0  0  0
 51 66  1  0  0  0  0
 52 72  1  0  0  0  0
 53 65  1  0  0  0  0
 54 64  1  0  0  0  0
 55 61  1  0  0  0  0
 56 62  1  0  0  0  0
 57 62  1  0  0  0  0
 58 62  1  0  0  0  0
 59 74  1  0  0  0  0
 60 62  1  0  0  0  0
 60 73  1  0  0  0  0
 61 74  1  0  0  0  0
 63 64  1  0  0  0  0
M  CHG  1  74   1
M  ISO  4  34 101  42 100  71 100  84 101
M  END
> <Batch ID>
0091

> <Smiles>
CNC(C)C(=O)NC(C(=O)N1Cc2cc([101O:1][101CH2:1]C(=O)C(=O)Nc3cc(N)cc(C(=O)[100NH:0][100C:0](=O)N4CCCC(n5nc(-c6ccc(Oc7ccc(F)cc7F)cc6)c(C(N)=O)c5N)C4)c3)ccc2CC1C(=O)NC1CCCc2ccccc21)C(C)(C)C

> <Shape>
0.208

> <Color>
0.075

> <Negative vol penalty>
0.000

$$$$

  -OEChem-04052300313D

 83 92  0     1  0  0  0  0  0999 V2000
  -28.1596  -38.5349   23.3717 C   0  0  0  0  0  0  0  0  0  0  0  0
  -28.8024  -37.3760   23.7949 C   0  0  0  0  0  0  0  0  0  0  0  0
  -22.9777   -9.7917   19.9940 C   0  0  0  0  0  0  0  0  0  0  0  0
  -24.5156   -9.0852   21.7181 C   0  0  0  0  0  0  0  0  0  0  0  0
  -26.7717  -38.6331   23.4614 C   0  0  0  0  0  0  0  0  0  0  0  0
  -28.0578  -36.3150   24.3090 C   0  0  0  0  0  0  0  0  0  0  0  0
  -28.3205  -29.7867   21.2753 C   0  0  0  0  0  0  0  0  0  0  0  0
  -21.9412   -9.1218   20.6439 C   0  0  0  0  0  0  0  0  0  0  0  0
  -23.4790   -8.4153   22.3682 C   0  0  0  0  0  0  0  0  0  0  0  0
  -28.4792  -28.4583   20.8799 C   0  0  0  0  0  0  0  0  0  0  0  0
  -21.8060   -5.4960   22.0377 C   0  0  0  0  0  0  0  0  0  0  0  0
  -22.0601   -4.2064   22.5047 C   0  0  0  0  0  0  0  0  0  0  0  0
  -26.8212  -27.7671   22.4989 C   0  0  0  0  0  0  0  0  0  0  0  0
  -26.9336  -19.2818   20.0286 C   0  0  0  0  0  0  0  0  0  0  0  0
  -21.5690   -4.9257   24.7582 C   0  0  0  0  0  0  0  0  0  0  0  0
  -24.9327  -19.8362   18.9839 C   0  0  0  0  0  0  0  0  0  0  0  0
  -24.2649   -9.7733   20.5310 C   0  0  0  0  0  0  0  0  0  0  0  0
  -25.8117  -10.2328   18.5552 C   0  0  0  0  0  0  0  0  0  0  0  0
  -26.0088  -37.5691   23.9679 C   0  0  0  0  0  0  0  0  0  0  0  0
  -27.3993  -30.1125   22.2746 C   0  0  0  0  0  0  0  0  0  0  0  0
  -26.6585  -36.3997   24.4068 C   0  0  0  0  0  0  0  0  0  0  0  0
  -26.6489  -29.0974   22.8905 C   0  0  0  0  0  0  0  0  0  0  0  0
  -26.1142  -20.3208   19.5002 C   0  0  0  0  0  0  0  0  0  0  0  0
  -22.1918   -8.4336   21.8310 C   0  0  0  0  0  0  0  0  0  0  0  0
  -27.7316  -27.4510   21.4904 C   0  0  0  0  0  0  0  0  0  0  0  0
  -21.4334   -6.5004   22.9310 C   0  0  0  0  0  0  0  0  0  0  0  0
  -21.9416   -3.9213   23.8649 C   0  0  0  0  0  0  0  0  0  0  0  0
  -21.3148   -6.2153   24.2912 C   0  0  0  0  0  0  0  0  0  0  0  0
  -25.3361  -10.4647   19.8598 C   0  0  0  0  0  0  0  0  0  0  0  0
  -26.8277  -11.1428   18.3933 C   0  0  0  0  0  0  0  0  0  0  0  0
  -26.3468  -18.0424   19.8961 C   0  0  0  0  0  0  0  0  0  0  0  0
  -27.1601  -24.4378   19.6184 C   0  0  0  0  0  0  0  0  0  0  0  0
  -27.0932  -25.6918   20.0867 C   0  0  0  0  0  0  0  0  0  1  0  0
  -25.3742   -9.2801   17.5771 C   0  0  0  0  0  0  0  0  0  0  0  0
  -25.8008  -32.8062   24.3398 C   0  0  0  0  0  0  0  0  0  0  0  0
  -23.5787  -30.8362   23.5707 C   0  0  0  0  0  0  0  0  0  0  0  0
  -21.3581  -28.6640   22.1607 C   0  0  0  0  0  0  0  0  0  0  0  0
  -28.0053  -16.4359   20.9037 C   0  0  0  0  0  0  0  0  0  0  0  0
  -24.5153  -37.7400   24.0893 C   0  0  0  0  0  0  0  0  0  0  0  0
  -27.2397  -31.5225   22.7751 C   0  0  0  0  0  0  0  0  0  0  0  0
  -25.6949  -29.4906   23.9851 C   0  0  0  0  0  0  0  0  0  0  0  0
  -26.2832  -23.9328   18.5081 C   0  0  0  0  0  0  0  0  0  0  0  0
  -28.1020  -23.4073   20.1736 C   0  0  0  0  0  0  0  0  0  0  0  0
  -23.7668  -36.4260   24.2977 C   0  0  0  0  0  0  0  0  0  0  0  0
  -30.1157  -13.5684   20.8913 C   0  0  0  0  0  0  0  0  0  0  0  0
  -24.4546  -35.5836   25.3673 C   0  0  0  0  0  0  0  0  0  0  0  0
  -29.1741  -12.4269   20.5007 C   0  0  0  0  0  0  0  0  0  0  0  0
  -25.5399  -22.6629   18.9299 C   0  0  0  0  0  0  0  0  0  0  0  0
  -27.3436  -22.1455   20.5895 C   0  0  0  0  0  0  0  0  0  0  0  0
  -29.4223  -14.5948   21.7853 C   0  0  0  0  0  0  0  0  0  0  0  0
  -27.2196  -13.9871   20.8646 C   0  0  0  0  0  0  0  0  0  0  0  0
  -25.8833  -35.2177   24.9472 C   0  0  1  0  0  0  0  0  0  0  0  0
  -25.7923  -31.8608   23.1746 C   0  0  1  0  0  0  0  0  0  0  0  0
  -27.8544  -12.9618   19.9110 C   0  0  2  0  0  0  0  0  0  0  0  0
  -18.9078  -28.1287   22.0788 C   0  0  0  0  0  0  0  0  0  0  0  0
  -23.7649  -29.5773   26.3428 C   0  0  0  0  0  0  0  0  0  0  0  0
  -21.6892  -28.2804   25.8155 C   0  0  0  0  0  0  0  0  0  0  0  0
  -21.6173  -30.7730   25.8817 C   0  0  0  0  0  0  0  0  0  0  0  0
  -21.2324  -29.1443   19.2431 C   0  0  0  0  0  0  0  0  0  0  0  0
  -22.7795  -29.6173   23.9567 C   0  0  1  0  0  0  0  0  0  0  0  0
  -20.0487  -28.8957   21.4285 C   0  0  2  0  0  0  0  0  0  0  0  0
  -22.4856  -29.5601   25.4824 C   0  0  0  0  0  0  0  0  0  0  0  0
  -25.9959  -11.4450   20.4825 N   0  0  0  0  0  0  0  0  0  0  0  0
  -26.8964  -11.8371   19.5653 N   0  0  0  0  0  0  0  0  0  0  0  0
  -26.4663  -21.6764   19.5040 N   0  0  0  0  0  0  0  0  0  0  0  0
  -24.9732  -30.7155   23.6065 N   0  0  0  0  0  0  0  0  0  0  0  0
  -28.1821  -15.0598   21.1604 N   0  0  0  0  0  0  0  0  0  0  0  0
  -27.6600  -11.4088   17.3643 N   0  0  0  0  0  0  0  0  0  0  0  0
  -24.3176   -8.4206   17.9076 N   0  0  0  0  0  0  0  0  0  0  0  0
  -26.8012  -16.7554   20.2771 N   0  0  0  0  0  0  0  0  0  0  0  0
  -25.8657  -34.1394   23.9821 N   0  0  0  0  0  0  0  0  0  0  0  0
  -21.5856  -29.6297   23.1183 N   0  0  0  0  0  0  0  0  0  0  0  0
  -20.1634  -28.4540   20.0098 N   0  3  0  0  0  0  0  0  0  0  0  0
  -25.9153   -9.1825   16.4497 O   0  0  0  0  0  0  0  0  0  0  0  0
  -25.7507  -32.3603   25.4801 O   0  0  0  0  0  0  0  0  0  0  0  0
  -22.9854  -31.8702   23.2511 O   0  0  0  0  0  0  0  0  0  0  0  0
  -22.1028  -27.7187   21.9110 O   0  0  0  0  0  0  0  0  0  0  0  0
  -28.8709  -17.2664   21.1920 O   0  0  0  0  0  0  0  0  0  0  0  0
  -21.1806   -7.7800   22.4657 O   0  0  0  0  0  0  0  0  0  0  0  0
  -27.8882  -26.1568   21.0963 O   0  0  0  0  0  0  0  0  0  1  0  0
  -22.1842   -2.6825   24.3130 F   0  0  0  0  0  0  0  0  0  0  0  0
  -20.9561   -7.1758   25.1540 F   0  0  0  0  0  0  0  0  0  0  0  0
  -24.8146  -18.1347   19.1372 S   0  0  0  0  0  0  0  0  0  0  0  0
  1  2  1  0  0  0  0
  1  5  2  0  0  0  0
  2  6  2  0  0  0  0
  3  8  2  0  0  0  0
  3 17  1  0  0  0  0
  4  9  1  0  0  0  0
  4 17  2  0  0  0  0
  5 19  1  0  0  0  0
  6 21  1  0  0  0  0
  7 10  2  0  0  0  0
  7 20  1  0  0  0  0
  8 24  1  0  0  0  0
  9 24  2  0  0  0  0
 10 25  1  0  0  0  0
 11 12  2  0  0  0  0
 11 26  1  0  0  0  0
 12 27  1  0  0  0  0
 13 22  1  0  0  0  0
 13 25  2  0  0  0  0
 14 23  1  0  0  0  0
 14 31  2  0  0  0  0
 15 27  2  0  0  0  0
 15 28  1  0  0  0  0
 16 23  2  0  0  0  0
 16 83  1  0  0  0  0
 17 29  1  0  0  0  0
 18 29  1  0  0  0  0
 18 30  2  0  0  0  0
 18 34  1  0  0  0  0
 19 21  2  0  0  0  0
 19 39  1  0  0  0  0
 20 22  2  0  0  0  0
 20 40  1  0  0  0  0
 21 52  1  0  0  0  0
 22 41  1  0  0  0  0
 23 65  1  0  0  0  0
 24 79  1  0  0  0  0
 25 80  1  0  0  0  0
 26 28  2  0  0  0  0
 26 79  1  0  0  0  0
 27 81  1  0  0  0  0
 28 82  1  0  0  0  0
 29 63  2  0  0  0  0
 30 64  1  0  0  0  0
 30 68  1  0  0  0  0
 31 70  1  0  0  0  0
 31 83  1  0  0  0  0
 32 33  2  0  0  0  0
 32 42  1  0  0  0  0
 32 43  1  0  0  0  0
 33 80  1  0  0  0  0
 34 69  1  0  0  0  0
 34 74  2  0  0  0  0
 35 53  1  0  0  0  0
 35 71  1  0  0  0  0
 35 75  2  0  0  0  0
 36 60  1  0  0  0  0
 36 66  1  0  0  0  0
 36 76  2  0  0  0  0
 37 61  1  0  0  0  0
 37 72  1  0  0  0  0
 37 77  2  0  0  0  0
 38 67  1  0  0  0  0
 38 70  1  0  0  0  0
 38 78  2  0  0  0  0
 39 44  1  0  0  0  0
 40 53  1  0  0  0  0
 41 66  1  0  0  0  0
 42 48  1  0  0  0  0
 43 49  1  0  0  0  0
 44 46  1  0  0  0  0
 45 47  1  0  0  0  0
 45 50  1  0  0  0  0
 46 52  1  0  0  0  0
 47 54  1  0  0  0  0
 48 65  1  0  0  0  0
 49 65  1  0  0  0  0
 50 67  1  0  0  0  0
 51 54  1  0  0  0  0
 51 67  1  0  0  0  0
 52 71  1  0  0  0  0
 53 66  1  0  0  0  0
 54 64  1  0  0  0  0
 55 61  1  0  0  0  0
 56 62  1  0  0  0  0
 57 62  1  0  0  0  0
 58 62  1  0  0  0  0
 59 73  1  0  0  0  0
 60 62  1  0  0  0  0
 60 72  1  0  0  0  0
 61 73  1  0  0  0  0
 63 64  1  0  0  0  0
M  CHG  1  73   1
M  ISO  4  33 101  38 100  70 100  80 101
M  END
> <Batch ID>
0091

> <Smiles>
CNC(C)C(=O)NC(C(=O)N1Cc2cc([101O:1][101CH:1]=C3CCN(c4csc([100NH:0][100C:0](=O)N5CCCC(n6nc(-c7ccc(Oc8ccc(F)cc8F)cc7)c(C(N)=O)c6N)C5)c4)CC3)ccc2CC1C(=O)NC1CCCc2ccccc21)C(C)(C)C

> <Shape>
0.318

> <Color>
0.103

> <Negative vol penalty>
0.000

$$$$

  -OEChem-04052300313D

 87 96  0     1  0  0  0  0  0999 V2000
  -16.6496  -29.5374   23.3213 C   0  0  0  0  0  0  0  0  0  0  0  0
  -17.1215  -28.5162   22.5029 C   0  0  0  0  0  0  0  0  0  0  0  0
  -23.4884   -9.9723   22.2098 C   0  0  0  0  0  0  0  0  0  0  0  0
  -23.4511   -9.7386   19.8054 C   0  0  0  0  0  0  0  0  0  0  0  0
  -17.5430  -30.4496   23.8813 C   0  0  0  0  0  0  0  0  0  0  0  0
  -18.4872  -28.4073   22.2431 C   0  0  0  0  0  0  0  0  0  0  0  0
  -23.3279  -22.3803   23.3706 C   0  0  0  0  0  0  0  0  0  0  0  0
  -22.7505   -8.7953   22.3356 C   0  0  0  0  0  0  0  0  0  0  0  0
  -22.7132   -8.5616   19.9312 C   0  0  0  0  0  0  0  0  0  0  0  0
  -24.3125  -21.4385   23.6698 C   0  0  0  0  0  0  0  0  0  0  0  0
  -19.5245   -7.8339   22.0303 C   0  0  0  0  0  0  0  0  0  0  0  0
  -18.4536   -7.8336   22.9241 C   0  0  0  0  0  0  0  0  0  0  0  0
  -25.9625  -23.1990   23.8314 C   0  0  0  0  0  0  0  0  0  0  0  0
  -32.0258  -18.8371   23.3855 C   0  0  0  0  0  0  0  0  0  0  0  0
  -32.0796  -17.0775   21.7308 C   0  0  0  0  0  0  0  0  0  0  0  0
  -19.4942   -6.0445   24.1704 C   0  0  0  0  0  0  0  0  0  0  0  0
  -23.8387  -10.4440   20.9446 C   0  0  0  0  0  0  0  0  0  0  0  0
  -24.2338  -12.9446   21.2580 C   0  0  0  0  0  0  0  0  0  0  0  0
  -18.9213  -30.3460   23.6361 C   0  0  0  0  0  0  0  0  0  0  0  0
  -23.6541  -23.7383   23.3156 C   0  0  0  0  0  0  0  0  0  0  0  0
  -19.3998  -29.3197   22.7993 C   0  0  0  0  0  0  0  0  0  0  0  0
  -24.9779  -24.1482   23.5444 C   0  0  0  0  0  0  0  0  0  0  0  0
  -30.7943  -18.3687   23.8435 C   0  0  0  0  0  0  0  0  0  0  0  0
  -32.6684  -18.1915   22.3291 C   0  0  0  0  0  0  0  0  0  0  0  0
  -30.8482  -16.6091   22.1889 C   0  0  0  0  0  0  0  0  0  0  0  0
  -22.3629   -8.0900   21.1964 C   0  0  0  0  0  0  0  0  0  0  0  0
  -25.6266  -21.8468   23.8995 C   0  0  0  0  0  0  0  0  0  0  0  0
  -20.5802   -6.9393   22.2065 C   0  0  0  0  0  0  0  0  0  0  0  0
  -18.4385   -6.9390   23.9941 C   0  0  0  0  0  0  0  0  0  0  0  0
  -20.5651   -6.0447   23.2766 C   0  0  0  0  0  0  0  0  0  0  0  0
  -30.2055  -17.2547   23.2452 C   0  0  0  0  0  0  0  0  0  0  0  0
  -24.6004  -11.6600   20.8140 C   0  0  0  0  0  0  0  0  0  0  0  0
  -25.2889  -13.7466   20.8973 C   0  0  0  0  0  0  0  0  0  0  0  0
  -28.1890  -20.1820   25.7869 C   0  0  0  0  0  0  0  0  0  0  0  0
  -28.8374  -20.3904   27.1097 C   0  0  0  0  0  0  0  0  0  0  0  0
  -27.2337  -21.0326   25.3918 C   0  0  0  0  0  0  0  0  0  1  0  0
  -23.0459  -13.3745   21.9359 C   0  0  0  0  0  0  0  0  0  0  0  0
  -22.4624  -27.2528   22.7645 C   0  0  0  0  0  0  0  0  0  0  0  0
  -24.4432  -27.3404   25.1052 C   0  0  0  0  0  0  0  0  0  0  0  0
  -26.3508  -26.9430   27.9053 C   0  0  0  0  0  0  0  0  0  0  0  0
  -30.7574  -14.7244   20.5197 C   0  0  0  0  0  0  0  0  0  0  0  0
  -19.8435  -31.3838   24.2254 C   0  0  0  0  0  0  0  0  0  0  0  0
  -22.6387  -24.7818   22.9363 C   0  0  0  0  0  0  0  0  0  0  0  0
  -25.2899  -25.6161   23.4407 C   0  0  0  0  0  0  0  0  0  0  0  0
  -28.6874  -19.0177   24.9820 C   0  0  0  0  0  0  0  0  0  0  0  0
  -30.2070  -19.7786   27.2641 C   0  0  0  0  0  0  0  0  0  0  0  0
  -21.3141  -30.9747   24.2033 C   0  0  0  0  0  0  0  0  0  0  0  0
  -29.2685  -12.8103   17.9127 C   0  0  0  0  0  0  0  0  0  0  0  0
  -21.6912  -30.4123   22.8365 C   0  0  0  0  0  0  0  0  0  0  0  0
  -27.8912  -12.4460   18.4716 C   0  0  0  0  0  0  0  0  0  0  0  0
  -30.9430  -19.7074   25.9284 C   0  0  0  0  0  0  0  0  0  0  0  0
  -30.3418  -12.8029   18.9998 C   0  0  0  0  0  0  0  0  0  0  0  0
  -28.6575  -13.2556   20.7398 C   0  0  0  0  0  0  0  0  0  0  0  0
  -20.8767  -29.1537   22.5139 C   0  0  1  0  0  0  0  0  0  0  0  0
  -22.8447  -26.1191   23.6700 C   0  0  1  0  0  0  0  0  0  0  0  0
  -27.5318  -13.3131   19.6942 C   0  0  2  0  0  0  0  0  0  0  0  0
  -27.3842  -28.2443   29.7857 C   0  0  0  0  0  0  0  0  0  0  0  0
  -26.6060  -28.3557   23.2090 C   0  0  0  0  0  0  0  0  0  0  0  0
  -28.0494  -28.7986   25.2062 C   0  0  0  0  0  0  0  0  0  0  0  0
  -25.8815  -30.0045   24.9443 C   0  0  0  0  0  0  0  0  0  0  0  0
  -24.8070  -25.4497   29.9414 C   0  0  0  0  0  0  0  0  0  0  0  0
  -25.8691  -27.5495   25.5485 C   0  0  1  0  0  0  0  0  0  0  0  0
  -26.1729  -27.4482   29.3257 C   0  0  2  0  0  0  0  0  0  0  0  0
  -26.5911  -28.6511   24.7221 C   0  0  0  0  0  0  0  0  0  0  0  0
  -25.7950  -11.6423   20.2167 N   0  0  0  0  0  0  0  0  0  0  0  0
  -26.1882  -12.9257   20.2828 N   0  0  0  0  0  0  0  0  0  0  0  0
  -30.1531  -19.0173   24.9018 N   0  0  3  0  0  0  0  0  0  0  0  0
  -24.2282  -26.4023   24.0882 N   0  0  0  0  0  0  0  0  0  0  0  0
  -29.9345  -13.6488   20.1239 N   0  0  0  0  0  0  0  0  0  0  0  0
  -33.9131  -18.6659   21.8652 N   0  0  0  0  0  0  0  0  0  0  0  0
  -25.5259  -15.0669   21.0490 N   0  0  0  0  0  0  0  0  0  0  0  0
  -22.0622  -12.4205   22.2302 N   0  0  0  0  0  0  0  0  0  0  0  0
  -30.2517  -15.4780   21.5785 N   0  0  0  0  0  0  0  0  0  0  0  0
  -21.4056  -28.0122   23.2292 N   0  0  0  0  0  0  0  0  0  0  0  0
  -25.8160  -27.8162   26.9818 N   0  0  0  0  0  0  0  0  0  0  0  0
  -25.9788  -26.3049   30.2616 N   0  3  0  0  0  0  0  0  0  0  0  0
  -28.2822  -20.9823   28.0307 O   0  0  0  0  0  0  0  0  0  0  0  0
  -22.8548  -14.5722   22.2562 O   0  0  0  0  0  0  0  0  0  0  0  0
  -23.0809  -27.4278   21.7212 O   0  0  0  0  0  0  0  0  0  0  0  0
  -23.5432  -27.9937   25.6404 O   0  0  0  0  0  0  0  0  0  0  0  0
  -26.9117  -25.8818   27.6411 O   0  0  0  0  0  0  0  0  0  0  0  0
  -31.8185  -14.9762   19.9429 O   0  0  0  0  0  0  0  0  0  0  0  0
  -21.6430   -6.9413   21.3188 O   0  0  0  0  0  0  0  0  0  0  0  0
  -26.5819  -20.9225   24.1956 O   0  0  0  0  0  0  0  0  0  1  0  0
  -17.4108   -6.9400   24.8532 F   0  0  0  0  0  0  0  0  0  0  0  0
  -21.5770   -5.1838   23.4517 F   0  0  0  0  0  0  0  0  0  0  0  0
  -29.0209  -16.8047   23.6863 F   0  0  0  0  0  0  0  0  0  0  0  0
  1  2  1  0  0  0  0
  1  5  2  0  0  0  0
  2  6  2  0  0  0  0
  3  8  2  0  0  0  0
  3 17  1  0  0  0  0
  4  9  1  0  0  0  0
  4 17  2  0  0  0  0
  5 19  1  0  0  0  0
  6 21  1  0  0  0  0
  7 10  2  0  0  0  0
  7 20  1  0  0  0  0
  8 26  1  0  0  0  0
  9 26  2  0  0  0  0
 10 27  1  0  0  0  0
 11 12  2  0  0  0  0
 11 28  1  0  0  0  0
 12 29  1  0  0  0  0
 13 22  1  0  0  0  0
 13 27  2  0  0  0  0
 14 23  1  0  0  0  0
 14 24  2  0  0  0  0
 15 24  1  0  0  0  0
 15 25  2  0  0  0  0
 16 29  2  0  0  0  0
 16 30  1  0  0  0  0
 17 32  1  0  0  0  0
 18 32  1  0  0  0  0
 18 33  2  0  0  0  0
 18 37  1  0  0  0  0
 19 21  2  0  0  0  0
 19 42  1  0  0  0  0
 20 22  2  0  0  0  0
 20 43  1  0  0  0  0
 21 54  1  0  0  0  0
 22 44  1  0  0  0  0
 23 31  2  0  0  0  0
 23 67  1  0  0  0  0
 24 70  1  0  0  0  0
 25 31  1  0  0  0  0
 25 73  1  0  0  0  0
 26 83  1  0  0  0  0
 27 84  1  0  0  0  0
 28 30  2  0  0  0  0
 28 83  1  0  0  0  0
 29 85  1  0  0  0  0
 30 86  1  0  0  0  0
 31 87  1  0  0  0  0
 32 65  2  0  0  0  0
 33 66  1  0  0  0  0
 33 71  1  0  0  0  0
 34 35  1  0  0  0  0
 34 36  2  0  0  0  0
 34 45  1  0  0  0  0
 35 46  1  0  0  0  0
 35 77  2  0  0  0  0
 36 84  1  0  0  0  0
 37 72  1  0  0  0  0
 37 78  2  0  0  0  0
 38 55  1  0  0  0  0
 38 74  1  0  0  0  0
 38 79  2  0  0  0  0
 39 62  1  0  0  0  0
 39 68  1  0  0  0  0
 39 80  2  0  0  0  0
 40 63  1  0  0  0  0
 40 75  1  0  0  0  0
 40 81  2  0  0  0  0
 41 69  1  0  0  0  0
 41 73  1  0  0  0  0
 41 82  2  0  0  0  0
 42 47  1  0  0  0  0
 43 55  1  0  0  0  0
 44 68  1  0  0  0  0
 45 67  1  0  0  0  0
 46 51  1  0  0  0  0
 47 49  1  0  0  0  0
 48 50  1  0  0  0  0
 48 52  1  0  0  0  0
 49 54  1  0  0  0  0
 50 56  1  0  0  0  0
 51 67  1  0  0  0  0
 52 69  1  0  0  0  0
 53 56  1  0  0  0  0
 53 69  1  0  0  0  0
 54 74  1  0  0  0  0
 55 68  1  0  0  0  0
 56 66  1  0  0  0  0
 57 63  1  0  0  0  0
 58 64  1  0  0  0  0
 59 64  1  0  0  0  0
 60 64  1  0  0  0  0
 61 76  1  0  0  0  0
 62 64  1  0  0  0  0
 62 75  1  0  0  0  0
 63 76  1  0  0  0  0
 65 66  1  0  0  0  0
M  CHG  1  76   1
M  ISO  4  36 101  41 100  73 100  84 101
M  END
> <Batch ID>
0091

> <Smiles>
CNC(C)C(=O)NC(C(=O)N1Cc2cc([101O:1][101CH:1]=C3CN(c4cc(N)cc([100NH:0][100C:0](=O)N5CCCC(n6nc(-c7ccc(Oc8ccc(F)cc8F)cc7)c(C(N)=O)c6N)C5)c4F)CCC3=O)ccc2CC1C(=O)NC1CCCc2ccccc21)C(C)(C)C

> <Shape>
0.234

> <Color>
0.176

> <Negative vol penalty>
0.000

$$$$

  -OEChem-04052300313D

 89 98  0     1  0  0  0  0  0999 V2000
  -25.3187  -38.0578   18.6007 C   0  0  0  0  0  0  0  0  0  0  0  0
  -25.4270  -36.8456   17.9265 C   0  0  0  0  0  0  0  0  0  0  0  0
  -23.5597  -10.4113   21.7988 C   0  0  0  0  0  0  0  0  0  0  0  0
  -24.8310   -8.4188   21.2978 C   0  0  0  0  0  0  0  0  0  0  0  0
  -25.7003  -38.1464   19.9387 C   0  0  0  0  0  0  0  0  0  0  0  0
  -25.9181  -35.7217   18.5899 C   0  0  0  0  0  0  0  0  0  0  0  0
  -25.1886  -28.5983   18.7959 C   0  0  0  0  0  0  0  0  0  0  0  0
  -29.9193  -19.8150   21.0047 C   0  0  0  0  0  0  0  0  0  0  0  0
  -29.8264  -18.4401   20.7895 C   0  0  0  0  0  0  0  0  0  0  0  0
  -22.4030   -9.6419   21.9234 C   0  0  0  0  0  0  0  0  0  0  0  0
  -23.6742   -7.6494   21.4224 C   0  0  0  0  0  0  0  0  0  0  0  0
  -25.9547  -27.4350   18.7361 C   0  0  0  0  0  0  0  0  0  0  0  0
  -21.1245   -5.1147   21.9634 C   0  0  0  0  0  0  0  0  0  0  0  0
  -21.2098   -3.9270   22.6897 C   0  0  0  0  0  0  0  0  0  0  0  0
  -26.5091  -27.6874   21.0703 C   0  0  0  0  0  0  0  0  0  0  0  0
  -30.2188  -24.1162   20.6110 C   0  0  0  0  0  0  0  0  0  0  0  0
  -28.5374  -20.2124   19.0633 C   0  0  0  0  0  0  0  0  0  0  0  0
  -21.8811   -5.1728   24.6479 C   0  0  0  0  0  0  0  0  0  0  0  0
  -24.7738   -9.7997   21.4860 C   0  0  0  0  0  0  0  0  0  0  0  0
  -26.8854  -10.9228   22.3733 C   0  0  0  0  0  0  0  0  0  0  0  0
  -26.1873  -37.0207   20.6215 C   0  0  0  0  0  0  0  0  0  0  0  0
  -25.0857  -29.3221   19.9926 C   0  0  0  0  0  0  0  0  0  0  0  0
  -26.3078  -35.7957   19.9379 C   0  0  0  0  0  0  0  0  0  0  0  0
  -25.7390  -28.8581   21.1432 C   0  0  0  0  0  0  0  0  0  0  0  0
  -28.8109  -24.1936   20.7481 C   0  0  0  0  0  0  0  0  0  0  0  0
  -29.2748  -20.7013   20.1417 C   0  0  0  0  0  0  0  0  0  0  0  0
  -29.0890  -17.9512   19.7111 C   0  0  0  0  0  0  0  0  0  0  0  0
  -22.4602   -8.2610   21.7352 C   0  0  0  0  0  0  0  0  0  0  0  0
  -26.6174  -26.9809   19.8727 C   0  0  0  0  0  0  0  0  0  0  0  0
  -21.4176   -6.3315   22.5793 C   0  0  0  0  0  0  0  0  0  0  0  0
  -21.5881   -3.9560   24.0320 C   0  0  0  0  0  0  0  0  0  0  0  0
  -28.4445  -18.8374   18.8480 C   0  0  0  0  0  0  0  0  0  0  0  0
  -21.7958   -6.3605   23.9215 C   0  0  0  0  0  0  0  0  0  0  0  0
  -25.9690  -10.5940   21.3566 C   0  0  0  0  0  0  0  0  0  0  0  0
  -28.3113  -22.9202   20.5863 C   0  0  0  0  0  0  0  0  0  0  0  0
  -27.8371  -11.6872   21.7438 C   0  0  0  0  0  0  0  0  0  0  0  0
  -30.5368  -22.7979   20.3694 C   0  0  0  0  0  0  0  0  0  0  0  0
  -28.4118  -16.1035   22.8871 C   0  0  0  0  0  0  0  0  0  0  0  0
  -28.2178  -15.7157   21.6215 C   0  0  0  0  0  0  0  0  0  0  0  0
  -26.8772  -10.5687   23.7627 C   0  0  0  0  0  0  0  0  0  0  0  0
  -25.8842  -32.2574   20.9145 C   0  0  0  0  0  0  0  0  0  0  0  0
  -24.3456  -31.4000   23.6384 C   0  0  0  0  0  0  0  0  0  0  0  0
  -23.2728  -28.8963   25.6945 C   0  0  0  0  0  0  0  0  0  0  0  0
  -28.8430  -15.9956   18.1912 C   0  0  0  0  0  0  0  0  0  0  0  0
  -26.6318  -37.1767   22.0543 C   0  0  0  0  0  0  0  0  0  0  0  0
  -24.2337  -30.5604   20.0473 C   0  0  0  0  0  0  0  0  0  0  0  0
  -25.6441  -29.5876   22.4575 C   0  0  0  0  0  0  0  0  0  0  0  0
  -26.7901  -35.8491   22.7909 C   0  0  0  0  0  0  0  0  0  0  0  0
  -28.6636  -12.5670   16.8410 C   0  0  0  0  0  0  0  0  0  0  0  0
  -27.5621  -34.8515   21.9332 C   0  0  0  0  0  0  0  0  0  0  0  0
  -27.9614  -11.7974   17.9584 C   0  0  0  0  0  0  0  0  0  0  0  0
  -28.2380  -14.0319   16.8075 C   0  0  0  0  0  0  0  0  0  0  0  0
  -27.7138  -13.9690   19.2265 C   0  0  0  0  0  0  0  0  0  0  0  0
  -26.8126  -34.5483   20.6302 C   0  0  1  0  0  0  0  0  0  0  0  0
  -24.6162  -31.4989   21.1876 C   0  0  1  0  0  0  0  0  0  0  0  0
  -28.1541  -12.4999   19.3136 C   0  0  1  0  0  0  0  0  0  0  0  0
  -26.9111  -22.4420   20.6329 C   0  0  0  0  0  0  0  0  0  0  0  0
  -22.0774  -28.5069   27.8664 C   0  0  0  0  0  0  0  0  0  0  0  0
  -26.8614  -32.2065   25.1650 C   0  0  0  0  0  0  0  0  0  0  0  0
  -25.9874  -30.9364   27.1376 C   0  0  0  0  0  0  0  0  0  0  0  0
  -24.7163  -32.8919   26.2528 C   0  0  0  0  0  0  0  0  0  0  0  0
  -21.0969  -27.3969   24.3617 C   0  0  0  0  0  0  0  0  0  0  0  0
  -28.0183  -25.4384   21.0191 C   0  0  0  0  0  0  0  0  0  1  0  0
  -29.3054  -15.6245   20.6033 C   0  0  0  0  0  0  0  0  0  0  0  0
  -24.7518  -30.7363   24.9321 C   0  0  1  0  0  0  0  0  0  0  0  0
  -21.9314  -28.6435   26.3588 C   0  0  2  0  0  0  0  0  0  0  0  0
  -25.5828  -31.6799   25.8468 C   0  0  0  0  0  0  0  0  0  0  0  0
  -26.3078  -11.1077   20.1711 N   0  0  0  0  0  0  0  0  0  0  0  0
  -29.3694  -22.0801   20.3563 N   0  0  0  0  0  0  0  0  0  0  0  0
  -27.4478  -11.7671   20.4391 N   0  0  0  0  0  0  0  0  0  0  0  0
  -24.8041  -30.7967   22.4588 N   0  0  0  0  0  0  0  0  0  0  0  0
  -28.3883  -14.6635   18.1190 N   0  0  0  0  0  0  0  0  0  0  0  0
  -28.9605  -12.2923   22.1845 N   0  0  0  0  0  0  0  0  0  0  0  0
  -25.8254   -9.7774   24.2443 N   0  0  0  0  0  0  0  0  0  0  0  0
  -25.7222  -33.6292   20.8765 N   0  0  0  0  0  0  0  0  0  0  0  0
  -23.5214  -30.2440   25.5422 N   0  0  0  0  0  0  0  0  0  0  0  0
  -28.9956  -16.5274   19.4899 N   0  0  0  0  0  0  0  0  0  0  0  0
  -21.3195  -27.3915   25.8305 N   0  3  0  0  0  0  0  0  0  0  0  0
  -27.7672  -10.9566   24.5570 O   0  0  0  0  0  0  0  0  0  0  0  0
  -26.9323  -31.6436   20.7519 O   0  0  0  0  0  0  0  0  0  0  0  0
  -23.6413  -32.4121   23.6731 O   0  0  0  0  0  0  0  0  0  0  0  0
  -24.0265  -27.9890   25.3490 O   0  0  0  0  0  0  0  0  0  0  0  0
  -29.1189  -16.6467   17.1765 O   0  0  0  0  0  0  0  0  0  0  0  0
  -31.7149  -22.2188   20.1713 O   0  0  0  0  0  0  0  0  0  0  0  0
  -21.3316   -7.5099   21.8570 O   0  0  0  0  0  0  0  0  0  0  0  0
  -27.3664  -25.8461   19.8169 O   0  0  0  0  0  0  0  0  0  1  0  0
  -21.6685   -2.8155   24.7298 F   0  0  0  0  0  0  0  0  0  0  0  0
  -27.7344  -18.3787   17.8074 F   0  0  0  0  0  0  0  0  0  0  0  0
  -22.0774   -7.5265   24.5190 F   0  0  0  0  0  0  0  0  0  0  0  0
  1  2  1  0  0  0  0
  1  5  2  0  0  0  0
  2  6  2  0  0  0  0
  3 10  2  0  0  0  0
  3 19  1  0  0  0  0
  4 11  1  0  0  0  0
  4 19  2  0  0  0  0
  5 21  1  0  0  0  0
  6 23  1  0  0  0  0
  7 12  2  0  0  0  0
  7 22  1  0  0  0  0
  8  9  2  0  0  0  0
  8 26  1  0  0  0  0
  9 27  1  0  0  0  0
 10 28  1  0  0  0  0
 11 28  2  0  0  0  0
 12 29  1  0  0  0  0
 13 14  2  0  0  0  0
 13 30  1  0  0  0  0
 14 31  1  0  0  0  0
 15 24  1  0  0  0  0
 15 29  2  0  0  0  0
 16 25  1  0  0  0  0
 16 37  2  0  0  0  0
 17 26  2  0  0  0  0
 17 32  1  0  0  0  0
 18 31  2  0  0  0  0
 18 33  1  0  0  0  0
 19 34  1  0  0  0  0
 20 34  1  0  0  0  0
 20 36  2  0  0  0  0
 20 40  1  0  0  0  0
 21 23  2  0  0  0  0
 21 45  1  0  0  0  0
 22 24  2  0  0  0  0
 22 46  1  0  0  0  0
 23 54  1  0  0  0  0
 24 47  1  0  0  0  0
 25 35  2  0  0  0  0
 25 63  1  0  0  0  0
 26 69  1  0  0  0  0
 27 32  2  0  0  0  0
 27 77  1  0  0  0  0
 28 85  1  0  0  0  0
 29 86  1  0  0  0  0
 30 33  2  0  0  0  0
 30 85  1  0  0  0  0
 31 87  1  0  0  0  0
 32 88  1  0  0  0  0
 33 89  1  0  0  0  0
 34 68  2  0  0  0  0
 35 57  1  0  0  0  0
 35 69  1  0  0  0  0
 36 70  1  0  0  0  0
 36 73  1  0  0  0  0
 37 69  1  0  0  0  0
 37 84  1  0  0  0  0
 38 39  2  0  0  0  0
 39 64  1  0  0  0  0
 40 74  1  0  0  0  0
 40 79  2  0  0  0  0
 41 55  1  0  0  0  0
 41 75  1  0  0  0  0
 41 80  2  0  0  0  0
 42 65  1  0  0  0  0
 42 71  1  0  0  0  0
 42 81  2  0  0  0  0
 43 66  1  0  0  0  0
 43 76  1  0  0  0  0
 43 82  2  0  0  0  0
 44 72  1  0  0  0  0
 44 77  1  0  0  0  0
 44 83  2  0  0  0  0
 45 48  1  0  0  0  0
 46 55  1  0  0  0  0
 47 71  1  0  0  0  0
 48 50  1  0  0  0  0
 49 51  1  0  0  0  0
 49 52  1  0  0  0  0
 50 54  1  0  0  0  0
 51 56  1  0  0  0  0
 52 72  1  0  0  0  0
 53 56  1  0  0  0  0
 53 72  1  0  0  0  0
 54 75  1  0  0  0  0
 55 71  1  0  0  0  0
 56 70  1  0  0  0  0
 58 66  1  0  0  0  0
 59 67  1  0  0  0  0
 60 67  1  0  0  0  0
 61 67  1  0  0  0  0
 62 78  1  0  0  0  0
 63 86  1  0  0  0  0
 64 77  1  0  0  0  0
 65 67  1  0  0  0  0
 65 76  1  0  0  0  0
 66 78  1  0  0  0  0
 68 70  1  0  0  0  0
M  CHG  1  78   1
M  ISO  4  44 100  63 101  77 100  86 101
M  END
> <Batch ID>
0091

> <Smiles>
C=CC[100N:0](c1ccc(N2C(=O)CC([101CH2:1][101O:1]c3ccc4c(c3)CN(C(=O)C(NC(=O)C(C)NC)C(C)(C)C)C(C(=O)NC3CCCc5ccccc53)C4)=C2C)cc1F)[100C:0](=O)N1CCCC(n2nc(-c3ccc(Oc4ccc(F)cc4F)cc3)c(C(N)=O)c2N)C1

> <Shape>
0.318

> <Color>
0.112

> <Negative vol penalty>
0.000

$$$$

  -OEChem-04052300313D

 84 92  0     1  0  0  0  0  0999 V2000
  -21.3421  -26.8192   26.6198 C   0  0  0  0  0  0  0  0  0  0  0  0
  -22.2659  -26.5398   25.6178 C   0  0  0  0  0  0  0  0  0  0  0  0
  -24.0242   -8.6173   19.6813 C   0  0  0  0  0  0  0  0  0  0  0  0
  -23.0976  -10.1336   21.3182 C   0  0  0  0  0  0  0  0  0  0  0  0
  -20.2163  -27.5902   26.3331 C   0  0  0  0  0  0  0  0  0  0  0  0
  -22.0639  -27.0304   24.3283 C   0  0  0  0  0  0  0  0  0  0  0  0
  -26.2742  -28.9978   22.3164 C   0  0  0  0  0  0  0  0  0  0  0  0
  -29.3271  -20.0539   21.4840 C   0  0  0  0  0  0  0  0  0  0  0  0
  -29.4288  -18.6790   21.2727 C   0  0  0  0  0  0  0  0  0  0  0  0
  -23.2434   -7.5831   20.1973 C   0  0  0  0  0  0  0  0  0  0  0  0
  -22.3167   -9.0994   21.8342 C   0  0  0  0  0  0  0  0  0  0  0  0
  -27.2209  -28.1028   21.8199 C   0  0  0  0  0  0  0  0  0  0  0  0
  -19.4475   -7.5064   21.0279 C   0  0  0  0  0  0  0  0  0  0  0  0
  -18.1082   -7.7827   21.3027 C   0  0  0  0  0  0  0  0  0  0  0  0
  -26.4108  -28.4967   19.5821 C   0  0  0  0  0  0  0  0  0  0  0  0
  -18.4694   -7.2233   23.6252 C   0  0  0  0  0  0  0  0  0  0  0  0
  -23.9514   -9.8926   20.2418 C   0  0  0  0  0  0  0  0  0  0  0  0
  -24.4103  -11.8583   18.6820 C   0  0  0  0  0  0  0  0  0  0  0  0
  -20.0054  -28.0986   25.0417 C   0  0  0  0  0  0  0  0  0  0  0  0
  -25.3799  -29.6417   21.4492 C   0  0  0  0  0  0  0  0  0  0  0  0
  -20.9335  -27.8078   24.0237 C   0  0  0  0  0  0  0  0  0  0  0  0
  -25.4553  -29.4013   20.0699 C   0  0  0  0  0  0  0  0  0  0  0  0
  -28.2802  -20.7727   20.9069 C   0  0  0  0  0  0  0  0  0  0  0  0
  -28.4837  -18.0227   20.4842 C   0  0  0  0  0  0  0  0  0  0  0  0
  -27.3350  -20.1165   20.1185 C   0  0  0  0  0  0  0  0  0  0  0  0
  -22.3896   -7.8241   21.2737 C   0  0  0  0  0  0  0  0  0  0  0  0
  -27.2874  -27.8500   20.4529 C   0  0  0  0  0  0  0  0  0  0  0  0
  -20.2977   -7.0884   22.0516 C   0  0  0  0  0  0  0  0  0  0  0  0
  -17.6192   -7.6412   22.6013 C   0  0  0  0  0  0  0  0  0  0  0  0
  -19.8087   -6.9470   23.3503 C   0  0  0  0  0  0  0  0  0  0  0  0
  -27.4367  -18.7415   19.9071 C   0  0  0  0  0  0  0  0  0  0  0  0
  -24.7582  -10.9612   19.7096 C   0  0  0  0  0  0  0  0  0  0  0  0
  -25.5086  -12.6726   18.5507 C   0  0  0  0  0  0  0  0  0  0  0  0
  -23.2023  -11.9476   17.9148 C   0  0  0  0  0  0  0  0  0  0  0  0
  -22.2197  -29.6805   21.1097 C   0  0  0  0  0  0  0  0  0  0  0  0
  -22.8744  -31.9761   18.9134 C   0  0  0  0  0  0  0  0  0  0  0  0
  -25.1208  -33.3561   16.7464 C   0  0  0  0  0  0  0  0  0  0  0  0
  -29.5704  -15.7680   20.7694 C   0  0  0  0  0  0  0  0  0  0  0  0
  -18.7494  -28.8876   24.7684 C   0  0  0  0  0  0  0  0  0  0  0  0
  -24.3821  -30.6245   21.9977 C   0  0  0  0  0  0  0  0  0  0  0  0
  -24.5314  -30.0823   19.0945 C   0  0  0  0  0  0  0  0  0  0  0  0
  -18.8011  -29.6831   23.4666 C   0  0  0  0  0  0  0  0  0  0  0  0
  -30.1618  -12.2672   20.5013 C   0  0  0  0  0  0  0  0  0  0  0  0
  -19.3316  -28.8142   22.3306 C   0  0  0  0  0  0  0  0  0  0  0  0
  -28.7801  -11.6891   20.1869 C   0  0  0  0  0  0  0  0  0  0  0  0
  -30.0774  -13.4402   21.4762 C   0  0  0  0  0  0  0  0  0  0  0  0
  -27.7696  -13.9315   20.7678 C   0  0  0  0  0  0  0  0  0  0  0  0
  -20.7621  -28.3427   22.6186 C   0  0  1  0  0  0  0  0  0  0  0  0
  -23.1824  -30.8337   21.0789 C   0  0  1  0  0  0  0  0  0  0  0  0
  -27.7975  -12.7891   19.7394 C   0  0  2  0  0  0  0  0  0  0  0  0
  -25.3546  -35.2007   15.0611 C   0  0  0  0  0  0  0  0  0  0  0  0
  -21.2392  -30.3527   16.9132 C   0  0  0  0  0  0  0  0  0  0  0  0
  -22.2781  -31.6998   15.0763 C   0  0  0  0  0  0  0  0  0  0  0  0
  -20.8695  -32.8235   16.8014 C   0  0  0  0  0  0  0  0  0  0  0  0
  -27.3031  -34.6382   18.2803 C   0  0  0  0  0  0  0  0  0  0  0  0
  -28.1949  -22.2533   21.1517 C   0  0  0  0  0  0  0  0  0  0  0  0
  -28.5601  -24.9118   18.7862 C   0  0  0  0  0  0  0  0  0  0  0  0
  -27.8647  -26.2609   18.7803 C   0  0  0  0  0  0  0  0  0  1  0  0
  -23.1699  -31.9861   17.4330 C   0  0  1  0  0  0  0  0  0  0  0  0
  -25.5433  -34.7956   16.5147 C   0  0  2  0  0  0  0  0  0  0  0  0
  -21.9054  -31.7011   16.5743 C   0  0  0  0  0  0  0  0  0  0  0  0
  -25.9818  -11.1842   20.1964 N   0  0  0  0  0  0  0  0  0  0  0  0
  -28.6526  -23.0232   19.9962 N   0  0  0  0  0  0  0  0  0  0  0  0
  -28.1021  -24.1401   19.9447 N   0  0  0  0  0  0  0  0  0  0  0  0
  -26.4124  -12.2307   19.4715 N   0  0  0  0  0  0  0  0  0  0  0  0
  -23.5690  -31.0300   19.6803 N   0  0  0  0  0  0  0  0  0  0  0  0
  -29.1314  -14.4444   20.9847 N   0  0  0  0  0  0  0  0  0  0  0  0
  -26.2699  -20.8312   19.5272 N   0  0  0  0  0  0  0  0  0  0  0  0
  -25.7797  -13.7162   17.7384 N   0  0  0  0  0  0  0  0  0  0  0  0
  -22.1739  -11.0328   18.1789 N   0  0  0  0  0  0  0  0  0  0  0  0
  -28.5912  -16.6262   20.2701 N   0  0  0  0  0  0  0  0  0  0  0  0
  -21.7067  -29.4092   22.3638 N   0  0  0  0  0  0  0  0  0  0  0  0
  -23.8060  -33.2687   17.1524 N   0  0  0  0  0  0  0  0  0  0  0  0
  -26.9789  -34.9778   16.8708 N   0  3  0  0  0  0  0  0  0  0  0  0
  -23.0462  -12.8026   17.0103 O   0  0  0  0  0  0  0  0  0  0  0  0
  -21.9604  -29.0821   20.0722 O   0  0  0  0  0  0  0  0  0  0  0  0
  -22.0626  -32.7829   19.3735 O   0  0  0  0  0  0  0  0  0  0  0  0
  -25.8801  -32.4040   16.5799 O   0  0  0  0  0  0  0  0  0  0  0  0
  -30.7367  -16.1079   20.9844 O   0  0  0  0  0  0  0  0  0  0  0  0
  -21.6273   -6.8152   21.7773 O   0  0  0  0  0  0  0  0  0  0  0  0
  -28.2102  -26.9764   19.9657 O   0  0  0  0  0  0  0  0  0  1  0  0
  -16.3334   -7.9081   22.8654 F   0  0  0  0  0  0  0  0  0  0  0  0
  -20.6210   -6.5470   24.3382 F   0  0  0  0  0  0  0  0  0  0  0  0
  -26.5283  -18.1091   19.1484 F   0  0  0  0  0  0  0  0  0  0  0  0
  1  2  1  0  0  0  0
  1  5  2  0  0  0  0
  2  6  2  0  0  0  0
  3 10  2  0  0  0  0
  3 17  1  0  0  0  0
  4 11  1  0  0  0  0
  4 17  2  0  0  0  0
  5 19  1  0  0  0  0
  6 21  1  0  0  0  0
  7 12  2  0  0  0  0
  7 20  1  0  0  0  0
  8  9  2  0  0  0  0
  8 23  1  0  0  0  0
  9 24  1  0  0  0  0
 10 26  1  0  0  0  0
 11 26  2  0  0  0  0
 12 27  1  0  0  0  0
 13 14  2  0  0  0  0
 13 28  1  0  0  0  0
 14 29  1  0  0  0  0
 15 22  1  0  0  0  0
 15 27  2  0  0  0  0
 16 29  2  0  0  0  0
 16 30  1  0  0  0  0
 17 32  1  0  0  0  0
 18 32  1  0  0  0  0
 18 33  2  0  0  0  0
 18 34  1  0  0  0  0
 19 21  2  0  0  0  0
 19 39  1  0  0  0  0
 20 22  2  0  0  0  0
 20 40  1  0  0  0  0
 21 48  1  0  0  0  0
 22 41  1  0  0  0  0
 23 25  2  0  0  0  0
 23 56  1  0  0  0  0
 24 31  2  0  0  0  0
 24 71  1  0  0  0  0
 25 31  1  0  0  0  0
 25 68  1  0  0  0  0
 26 80  1  0  0  0  0
 27 81  1  0  0  0  0
 28 30  2  0  0  0  0
 28 80  1  0  0  0  0
 29 82  1  0  0  0  0
 30 83  1  0  0  0  0
 31 84  1  0  0  0  0
 32 62  2  0  0  0  0
 33 65  1  0  0  0  0
 33 69  1  0  0  0  0
 34 70  1  0  0  0  0
 34 75  2  0  0  0  0
 35 49  1  0  0  0  0
 35 72  1  0  0  0  0
 35 76  2  0  0  0  0
 36 59  1  0  0  0  0
 36 66  1  0  0  0  0
 36 77  2  0  0  0  0
 37 60  1  0  0  0  0
 37 73  1  0  0  0  0
 37 78  2  0  0  0  0
 38 67  1  0  0  0  0
 38 71  1  0  0  0  0
 38 79  2  0  0  0  0
 39 42  1  0  0  0  0
 40 49  1  0  0  0  0
 41 66  1  0  0  0  0
 42 44  1  0  0  0  0
 43 45  1  0  0  0  0
 43 46  1  0  0  0  0
 44 48  1  0  0  0  0
 45 50  1  0  0  0  0
 46 67  1  0  0  0  0
 47 50  1  0  0  0  0
 47 67  1  0  0  0  0
 48 72  1  0  0  0  0
 49 66  1  0  0  0  0
 50 65  1  0  0  0  0
 51 60  1  0  0  0  0
 52 61  1  0  0  0  0
 53 61  1  0  0  0  0
 54 61  1  0  0  0  0
 55 74  1  0  0  0  0
 56 63  1  0  0  0  0
 57 58  1  0  0  0  0
 57 64  1  0  0  0  0
 58 81  1  0  0  0  0
 59 61  1  0  0  0  0
 59 73  1  0  0  0  0
 60 74  1  0  0  0  0
 62 65  1  0  0  0  0
 63 64  2  0  0  0  0
M  CHG  1  74   1
M  ISO  4  38 100  58 101  71 100  81 101
M  END
> <Batch ID>
0091

> <Smiles>
CNC(C)C(=O)NC(C(=O)N1Cc2cc([101O:1][101CH2:1]CNN=Cc3ccc([100NH:0][100C:0](=O)N4CCCC(n5nc(-c6ccc(Oc7ccc(F)cc7F)cc6)c(C(N)=O)c5N)C4)c(F)c3N)ccc2CC1C(=O)NC1CCCc2ccccc21)C(C)(C)C

> <Shape>
0.257

> <Color>
0.114

> <Negative vol penalty>
0.000

$$$$

  -OEChem-04052300313D

 87 96  0     1  0  0  0  0  0999 V2000
  -29.0579  -26.9976   15.5809 C   0  0  0  0  0  0  0  0  0  0  0  0
  -27.9642  -26.7915   16.4156 C   0  0  0  0  0  0  0  0  0  0  0  0
  -26.7549  -16.9038   19.4458 C   0  0  0  0  0  0  0  0  0  0  0  0
  -25.9322  -16.8416   21.7166 C   0  0  0  0  0  0  0  0  0  0  0  0
  -30.1498  -27.7366   16.0343 C   0  0  0  0  0  0  0  0  0  0  0  0
  -27.9623  -27.3233   17.7046 C   0  0  0  0  0  0  0  0  0  0  0  0
  -23.5577  -29.5220   18.8924 C   0  0  0  0  0  0  0  0  0  0  0  0
  -23.1994  -27.4538   25.7196 C   0  0  0  0  0  0  0  0  0  0  0  0
  -24.2263  -26.6359   25.2484 C   0  0  0  0  0  0  0  0  0  0  0  0
  -26.8456  -15.5119   19.4405 C   0  0  0  0  0  0  0  0  0  0  0  0
  -26.0229  -15.4497   21.7113 C   0  0  0  0  0  0  0  0  0  0  0  0
  -22.5018  -28.6827   19.2449 C   0  0  0  0  0  0  0  0  0  0  0  0
  -28.9578  -13.1495   20.6162 C   0  0  0  0  0  0  0  0  0  0  0  0
  -30.1172  -12.5783   20.0919 C   0  0  0  0  0  0  0  0  0  0  0  0
  -22.9309  -29.1317   21.5759 C   0  0  0  0  0  0  0  0  0  0  0  0
  -28.7972  -11.4247   18.4294 C   0  0  0  0  0  0  0  0  0  0  0  0
  -26.2982  -17.5687   20.5839 C   0  0  0  0  0  0  0  0  0  0  0  0
  -25.4294  -19.8117   19.7345 C   0  0  0  0  0  0  0  0  0  0  0  0
  -30.1572  -28.2859   17.3261 C   0  0  0  0  0  0  0  0  0  0  0  0
  -24.3164  -30.1650   19.8810 C   0  0  0  0  0  0  0  0  0  0  0  0
  -29.0559  -28.0692   18.1762 C   0  0  0  0  0  0  0  0  0  0  0  0
  -23.9944  -29.9807   21.2332 C   0  0  0  0  0  0  0  0  0  0  0  0
  -21.9975  -27.5391   25.0169 C   0  0  0  0  0  0  0  0  0  0  0  0
  -21.8226  -26.8067   23.8428 C   0  0  0  0  0  0  0  0  0  0  0  0
  -24.0514  -25.9034   24.0743 C   0  0  0  0  0  0  0  0  0  0  0  0
  -26.4796  -14.7849   20.5733 C   0  0  0  0  0  0  0  0  0  0  0  0
  -22.1900  -28.4851   20.5869 C   0  0  0  0  0  0  0  0  0  0  0  0
  -27.7179  -12.8582   20.0472 C   0  0  0  0  0  0  0  0  0  0  0  0
  -30.0370  -11.7160   18.9984 C   0  0  0  0  0  0  0  0  0  0  0  0
  -27.6377  -11.9959   18.9537 C   0  0  0  0  0  0  0  0  0  0  0  0
  -22.8495  -25.9888   23.3714 C   0  0  0  0  0  0  0  0  0  0  0  0
  -26.2048  -19.0065   20.5901 C   0  0  0  0  0  0  0  0  0  0  0  0
  -25.6870  -21.0967   20.1455 C   0  0  0  0  0  0  0  0  0  0  0  0
  -18.0596  -27.3183   22.0912 C   0  0  0  0  0  0  0  0  0  0  0  0
  -18.9903  -28.2555   21.8351 C   0  0  0  0  0  0  0  0  0  0  0  0
  -18.4089  -25.9851   22.6248 C   0  0  0  0  0  0  0  0  0  0  0  0
  -24.5544  -19.4321   18.6640 C   0  0  0  0  0  0  0  0  0  0  0  0
  -27.3697  -30.0991   20.7625 C   0  0  0  0  0  0  0  0  0  0  0  0
  -26.4468  -32.5002   22.7387 C   0  0  0  0  0  0  0  0  0  0  0  0
  -23.9227  -34.0451   24.4385 C   0  0  0  0  0  0  0  0  0  0  0  0
  -26.3515  -24.8809   24.1756 C   0  0  0  0  0  0  0  0  0  0  0  0
  -31.3803  -29.0376   17.7884 C   0  0  0  0  0  0  0  0  0  0  0  0
  -25.4353  -31.0882   19.4835 C   0  0  0  0  0  0  0  0  0  0  0  0
  -24.7651  -30.6638   22.3322 C   0  0  0  0  0  0  0  0  0  0  0  0
  -19.8471  -25.6618   22.9245 C   0  0  0  0  0  0  0  0  0  0  0  0
  -31.1398  -29.8839   19.0358 C   0  0  0  0  0  0  0  0  0  0  0  0
  -29.1851  -22.8978   23.3300 C   0  0  0  0  0  0  0  0  0  0  0  0
  -30.3845  -29.0797   20.0891 C   0  0  0  0  0  0  0  0  0  0  0  0
  -28.5986  -21.7749   22.4714 C   0  0  0  0  0  0  0  0  0  0  0  0
  -28.2428  -23.2953   24.4648 C   0  0  0  0  0  0  0  0  0  0  0  0
  -26.2884  -22.5063   23.1893 C   0  0  0  0  0  0  0  0  0  0  0  0
  -29.0059  -28.6510   19.5723 C   0  0  1  0  0  0  0  0  0  0  0  0
  -20.4634  -27.9725   22.1476 C   0  0  1  0  0  0  0  0  0  1  0  0
  -26.4669  -31.2877   20.5895 C   0  0  1  0  0  0  0  0  0  0  0  0
  -27.1734  -22.1162   21.9941 C   0  0  2  0  0  0  0  0  0  0  0  0
  -20.9143  -28.4227   25.5447 C   0  0  0  0  0  0  0  0  0  0  0  0
  -23.4824  -35.9605   25.9989 C   0  0  0  0  0  0  0  0  0  0  0  0
  -27.6414  -30.8950   25.0423 C   0  0  0  0  0  0  0  0  0  0  0  0
  -26.3611  -32.3495   26.6277 C   0  0  0  0  0  0  0  0  0  0  0  0
  -28.0930  -33.3529   25.1390 C   0  0  0  0  0  0  0  0  0  0  0  0
  -22.0947  -35.3477   22.5096 C   0  0  0  0  0  0  0  0  0  0  0  0
  -25.9015  -32.5781   24.1443 C   0  0  1  0  0  0  0  0  0  0  0  0
  -23.5294  -35.5072   24.5480 C   0  0  2  0  0  0  0  0  0  0  0  0
  -26.9858  -32.2793   25.2179 C   0  0  0  0  0  0  0  0  0  0  0  0
  -26.9029  -19.7201   21.4775 N   0  0  0  0  0  0  0  0  0  0  0  0
  -26.5670  -20.9873   21.1817 N   0  0  0  0  0  0  0  0  0  0  0  0
  -20.6192  -26.8829   23.1249 N   0  0  2  0  0  0  0  0  0  0  0  0
  -25.8542  -31.5518   21.8930 N   0  0  0  0  0  0  0  0  0  0  0  0
  -26.9131  -23.6087   23.9371 N   0  0  0  0  0  0  0  0  0  0  0  0
  -25.2443  -22.2983   19.7180 N   0  0  0  0  0  0  0  0  0  0  0  0
  -23.2054  -19.1906   18.9575 N   0  0  0  0  0  0  0  0  0  0  0  0
  -25.0974  -25.0751   23.5974 N   0  0  0  0  0  0  0  0  0  0  0  0
  -28.0786  -29.7609   19.6257 N   0  0  0  0  0  0  0  0  0  0  0  0
  -25.2828  -33.8933   24.2698 N   0  0  0  0  0  0  0  0  0  0  0  0
  -22.1858  -35.7289   23.9426 N   0  3  0  0  0  0  0  0  0  0  0  0
  -18.8325  -29.4177   21.3637 O   0  5  0  0  0  0  0  0  0  0  0  0
  -17.5222  -25.1444   22.7739 O   0  0  0  0  0  0  0  0  0  0  0  0
  -24.9604  -19.2947   17.4851 O   0  0  0  0  0  0  0  0  0  0  0  0
  -27.4204  -29.5317   21.8475 O   0  0  0  0  0  0  0  0  0  0  0  0
  -27.3598  -33.2579   22.4014 O   0  0  0  0  0  0  0  0  0  0  0  0
  -23.1056  -33.1291   24.5005 O   0  0  0  0  0  0  0  0  0  0  0  0
  -26.9514  -25.7445   24.8207 O   0  0  0  0  0  0  0  0  0  0  0  0
  -26.5678  -13.4267   20.5684 O   0  0  0  0  0  0  0  0  0  0  0  0
  -21.1603  -27.6659   20.9338 O   0  0  0  0  0  0  0  0  0  1  0  0
  -31.1507  -11.1688   18.4941 F   0  0  0  0  0  0  0  0  0  0  0  0
  -26.4496  -11.7132   18.4021 F   0  0  0  0  0  0  0  0  0  0  0  0
  -22.6826  -25.2839   22.2417 F   0  0  0  0  0  0  0  0  0  0  0  0
  1  2  1  0  0  0  0
  1  5  2  0  0  0  0
  2  6  2  0  0  0  0
  3 10  2  0  0  0  0
  3 17  1  0  0  0  0
  4 11  1  0  0  0  0
  4 17  2  0  0  0  0
  5 19  1  0  0  0  0
  6 21  1  0  0  0  0
  7 12  2  0  0  0  0
  7 20  1  0  0  0  0
  8  9  1  0  0  0  0
  8 23  2  0  0  0  0
  9 25  2  0  0  0  0
 10 26  1  0  0  0  0
 11 26  2  0  0  0  0
 12 27  1  0  0  0  0
 13 14  2  0  0  0  0
 13 28  1  0  0  0  0
 14 29  1  0  0  0  0
 15 22  1  0  0  0  0
 15 27  2  0  0  0  0
 16 29  2  0  0  0  0
 16 30  1  0  0  0  0
 17 32  1  0  0  0  0
 18 32  1  0  0  0  0
 18 33  2  0  0  0  0
 18 37  1  0  0  0  0
 19 21  2  0  0  0  0
 19 42  1  0  0  0  0
 20 22  2  0  0  0  0
 20 43  1  0  0  0  0
 21 52  1  0  0  0  0
 22 44  1  0  0  0  0
 23 24  1  0  0  0  0
 23 56  1  0  0  0  0
 24 31  2  0  0  0  0
 24 67  1  0  0  0  0
 25 31  1  0  0  0  0
 25 72  1  0  0  0  0
 26 83  1  0  0  0  0
 27 84  1  0  0  0  0
 28 30  2  0  0  0  0
 28 83  1  0  0  0  0
 29 85  1  0  0  0  0
 30 86  1  0  0  0  0
 31 87  1  0  0  0  0
 32 65  2  0  0  0  0
 33 66  1  0  0  0  0
 33 70  1  0  0  0  0
 34 35  2  0  0  0  0
 34 36  1  0  0  0  0
 35 53  1  0  0  0  0
 35 76  1  0  0  0  0
 36 45  1  0  0  0  0
 36 77  2  0  0  0  0
 37 71  1  0  0  0  0
 37 78  2  0  0  0  0
 38 54  1  0  0  0  0
 38 73  1  0  0  0  0
 38 79  2  0  0  0  0
 39 62  1  0  0  0  0
 39 68  1  0  0  0  0
 39 80  2  0  0  0  0
 40 63  1  0  0  0  0
 40 74  1  0  0  0  0
 40 81  2  0  0  0  0
 41 69  1  0  0  0  0
 41 72  1  0  0  0  0
 41 82  2  0  0  0  0
 42 46  1  0  0  0  0
 43 54  1  0  0  0  0
 44 68  1  0  0  0  0
 45 67  1  0  0  0  0
 46 48  1  0  0  0  0
 47 49  1  0  0  0  0
 47 50  1  0  0  0  0
 48 52  1  0  0  0  0
 49 55  1  0  0  0  0
 50 69  1  0  0  0  0
 51 55  1  0  0  0  0
 51 69  1  0  0  0  0
 52 73  1  0  0  0  0
 53 67  1  0  0  0  0
 53 84  1  0  0  0  0
 54 68  1  0  0  0  0
 55 66  1  0  0  0  0
 57 63  1  0  0  0  0
 58 64  1  0  0  0  0
 59 64  1  0  0  0  0
 60 64  1  0  0  0  0
 61 75  1  0  0  0  0
 62 64  1  0  0  0  0
 62 74  1  0  0  0  0
 63 75  1  0  0  0  0
 65 66  1  0  0  0  0
M  CHG  2  75   1  76  -1
M  ISO  4  41 100  53 101  72 100  84 101
M  END
> <Batch ID>
0091

> <Smiles>
CNC(C)C(=O)NC(C(=O)N1Cc2cc([101O:1][101CH:1]3C(=O)CC(=O)CN3c3c(C)ccc([100NH:0][100C:0](=O)N4CCCC(n5nc(-c6ccc(Oc7ccc(F)cc7F)cc6)c(C(N)=O)c5N)C4)c3F)ccc2CC1C(=O)NC1CCCc2ccccc21)C(C)(C)C

> <Shape>
0.245

> <Color>
0.067

> <Negative vol penalty>
0.000

$$$$

  -OEChem-04052300313D

 86 94  0     1  0  0  0  0  0999 V2000
  -23.0941  -29.8536   23.9955 C   0  0  0  0  0  0  0  0  0  0  0  0
  -22.7337  -28.5314   23.7561 C   0  0  0  0  0  0  0  0  0  0  0  0
  -28.7269  -12.9693   21.0139 C   0  0  0  0  0  0  0  0  0  0  0  0
  -28.3093  -12.4621   18.6889 C   0  0  0  0  0  0  0  0  0  0  0  0
  -24.0063  -30.4896   23.1544 C   0  0  0  0  0  0  0  0  0  0  0  0
  -23.2845  -27.8447   22.6747 C   0  0  0  0  0  0  0  0  0  0  0  0
  -24.7788  -23.1646   23.9030 C   0  0  0  0  0  0  0  0  0  0  0  0
  -23.1818  -12.6589   25.3965 C   0  0  0  0  0  0  0  0  0  0  0  0
  -23.0091  -14.0046   25.0726 C   0  0  0  0  0  0  0  0  0  0  0  0
  -30.1001  -12.9582   20.7697 C   0  0  0  0  0  0  0  0  0  0  0  0
  -29.6826  -12.4511   18.4447 C   0  0  0  0  0  0  0  0  0  0  0  0
  -23.7896  -22.1879   24.0101 C   0  0  0  0  0  0  0  0  0  0  0  0
  -33.7274  -12.7081   20.8328 C   0  0  0  0  0  0  0  0  0  0  0  0
  -34.5437  -12.0339   21.7409 C   0  0  0  0  0  0  0  0  0  0  0  0
  -24.3484  -21.3886   21.8037 C   0  0  0  0  0  0  0  0  0  0  0  0
  -21.3925  -12.0655   23.8855 C   0  0  0  0  0  0  0  0  0  0  0  0
  -33.3595   -9.9791   21.2798 C   0  0  0  0  0  0  0  0  0  0  0  0
  -27.8315  -12.7212   19.9735 C   0  0  0  0  0  0  0  0  0  0  0  0
  -25.5427  -13.8353   20.1406 C   0  0  0  0  0  0  0  0  0  0  0  0
  -24.5759  -29.8072   22.0679 C   0  0  0  0  0  0  0  0  0  0  0  0
  -25.5541  -23.2677   22.7391 C   0  0  0  0  0  0  0  0  0  0  0  0
  -24.2042  -28.4725   21.8175 C   0  0  0  0  0  0  0  0  0  0  0  0
  -25.3485  -22.3658   21.6853 C   0  0  0  0  0  0  0  0  0  0  0  0
  -22.3735  -11.6893   24.8029 C   0  0  0  0  0  0  0  0  0  0  0  0
  -22.0281  -14.3807   24.1551 C   0  0  0  0  0  0  0  0  0  0  0  0
  -30.5780  -12.6992   19.4852 C   0  0  0  0  0  0  0  0  0  0  0  0
  -23.5723  -21.3016   22.9592 C   0  0  0  0  0  0  0  0  0  0  0  0
  -32.7271  -12.0179   20.1483 C   0  0  0  0  0  0  0  0  0  0  0  0
  -34.3598  -10.6694   21.9644 C   0  0  0  0  0  0  0  0  0  0  0  0
  -21.2197  -13.4112   23.5615 C   0  0  0  0  0  0  0  0  0  0  0  0
  -32.5432  -10.6534   20.3717 C   0  0  0  0  0  0  0  0  0  0  0  0
  -26.4128  -12.7319   20.2253 C   0  0  0  0  0  0  0  0  0  0  0  0
  -24.3105  -13.3272   20.4719 C   0  0  0  0  0  0  0  0  0  0  0  0
  -22.9541  -19.1346   23.5857 C   0  0  0  0  0  0  0  0  0  1  0  0
  -25.8233  -15.1979   19.7935 C   0  0  0  0  0  0  0  0  0  0  0  0
  -22.0867  -18.1257   23.7319 C   0  0  0  0  0  0  0  0  0  0  0  0
  -22.5670  -16.8328   24.3201 C   0  0  0  0  0  0  0  0  0  0  0  0
  -25.9923  -25.5077   20.5268 C   0  0  0  0  0  0  0  0  0  0  0  0
  -28.2557  -23.4494   19.4487 C   0  0  0  0  0  0  0  0  0  0  0  0
  -29.4139  -20.2434   19.2842 C   0  0  0  0  0  0  0  0  0  0  0  0
  -22.2809   -9.2465   24.2417 C   0  0  0  0  0  0  0  0  0  0  0  0
  -25.5216  -30.5512   21.1586 C   0  0  0  0  0  0  0  0  0  0  0  0
  -26.6352  -24.3097   22.6499 C   0  0  0  0  0  0  0  0  0  0  0  0
  -26.1675  -22.4215   20.4226 C   0  0  0  0  0  0  0  0  0  0  0  0
  -26.3441  -29.6362   20.2550 C   0  0  0  0  0  0  0  0  0  0  0  0
  -22.2675   -8.8365   20.5641 C   0  0  0  0  0  0  0  0  0  0  0  0
  -25.4515  -28.5813   19.6089 C   0  0  0  0  0  0  0  0  0  0  0  0
  -23.3190   -9.8457   20.1064 C   0  0  0  0  0  0  0  0  0  0  0  0
  -22.5579   -8.3131   21.9674 C   0  0  0  0  0  0  0  0  0  0  0  0
  -23.7592  -10.4064   22.5299 C   0  0  0  0  0  0  0  0  0  0  0  0
  -24.7988  -27.6863   20.6693 C   0  0  1  0  0  0  0  0  0  0  0  0
  -27.0185  -24.6515   21.2133 C   0  0  1  0  0  0  0  0  0  0  0  0
  -23.4670  -10.9790   21.1349 C   0  0  1  0  0  0  0  0  0  0  0  0
  -21.4787   -9.9636   27.3307 C   0  0  0  0  0  0  0  0  0  0  0  0
  -31.2662  -18.8662   18.2995 C   0  0  0  0  0  0  0  0  0  0  0  0
  -26.9079  -23.5954   16.7152 C   0  0  0  0  0  0  0  0  0  0  0  0
  -28.1722  -21.5364   16.0593 C   0  0  0  0  0  0  0  0  0  0  0  0
  -29.4077  -23.6218   16.6485 C   0  0  0  0  0  0  0  0  0  0  0  0
  -30.3701  -19.4074   21.9574 C   0  0  0  0  0  0  0  0  0  0  0  0
  -22.7723   -9.9546   26.5414 C   0  0  0  0  0  0  0  0  0  0  0  0
  -28.2744  -22.2940   18.4773 C   0  0  1  0  0  0  0  0  0  0  0  0
  -30.7969  -19.6592   19.5093 C   0  0  2  0  0  0  0  0  0  0  0  0
  -28.1737  -22.7618   16.9980 C   0  0  0  0  0  0  0  0  0  0  0  0
  -25.7864  -11.6076   20.5825 N   0  0  0  0  0  0  0  0  0  0  0  0
  -24.5097  -12.0019   20.7253 N   0  0  0  0  0  0  0  0  0  0  0  0
  -27.2083  -23.4620   20.3807 N   0  0  0  0  0  0  0  0  0  0  0  0
  -22.7559   -9.4037   22.9234 N   0  0  0  0  0  0  0  0  0  0  0  0
  -23.0868  -13.8891   20.5683 N   0  0  0  0  0  0  0  0  0  0  0  0
  -27.1434  -15.5494   19.4805 N   0  0  0  0  0  0  0  0  0  0  0  0
  -21.8548  -15.7474   23.8287 N   0  0  0  0  0  0  0  0  0  0  0  0
  -25.7481  -26.7109   21.1611 N   0  0  0  0  0  0  0  0  0  0  0  0
  -29.4769  -21.5253   18.7803 N   0  0  0  0  0  0  0  0  0  0  0  0
  -22.5515  -10.2977   25.1383 N   0  0  0  0  0  0  0  0  0  0  0  0
  -30.7899  -18.7523   20.6919 N   0  3  0  0  0  0  0  0  0  0  0  0
  -24.9326  -16.0811   19.7778 O   0  0  0  0  0  0  0  0  0  0  0  0
  -23.4848  -16.8131   25.1332 O   0  0  0  0  0  0  0  0  0  0  0  0
  -25.4623  -25.1072   19.4971 O   0  0  0  0  0  0  0  0  0  0  0  0
  -29.1420  -24.3052   19.3877 O   0  0  0  0  0  0  0  0  0  0  0  0
  -28.3812  -19.6231   19.5273 O   0  0  0  0  0  0  0  0  0  0  0  0
  -21.7039   -8.2162   24.6108 O   0  0  0  0  0  0  0  0  0  0  0  0
  -20.7608  -18.2274   23.3626 O   0  0  0  0  0  0  0  0  0  0  0  0
  -31.9180  -12.6885   19.2465 O   0  0  0  0  0  0  0  0  0  0  0  0
  -22.6071  -20.3478   23.0609 O   0  0  0  0  0  0  0  0  0  1  0  0
  -35.1448  -10.0218   22.8353 F   0  0  0  0  0  0  0  0  0  0  0  0
  -20.2726  -13.7612   22.6794 F   0  0  0  0  0  0  0  0  0  0  0  0
  -31.5846   -9.9847   19.7162 F   0  0  0  0  0  0  0  0  0  0  0  0
  1  2  1  0  0  0  0
  1  5  2  0  0  0  0
  2  6  2  0  0  0  0
  3 10  2  0  0  0  0
  3 18  1  0  0  0  0
  4 11  1  0  0  0  0
  4 18  2  0  0  0  0
  5 20  1  0  0  0  0
  6 22  1  0  0  0  0
  7 12  2  0  0  0  0
  7 21  1  0  0  0  0
  8  9  2  0  0  0  0
  8 24  1  0  0  0  0
  9 25  1  0  0  0  0
 10 26  1  0  0  0  0
 11 26  2  0  0  0  0
 12 27  1  0  0  0  0
 13 14  2  0  0  0  0
 13 28  1  0  0  0  0
 14 29  1  0  0  0  0
 15 23  1  0  0  0  0
 15 27  2  0  0  0  0
 16 24  2  0  0  0  0
 16 30  1  0  0  0  0
 17 29  2  0  0  0  0
 17 31  1  0  0  0  0
 18 32  1  0  0  0  0
 19 32  1  0  0  0  0
 19 33  2  0  0  0  0
 19 35  1  0  0  0  0
 20 22  2  0  0  0  0
 20 42  1  0  0  0  0
 21 23  2  0  0  0  0
 21 43  1  0  0  0  0
 22 51  1  0  0  0  0
 23 44  1  0  0  0  0
 24 73  1  0  0  0  0
 25 30  2  0  0  0  0
 25 70  1  0  0  0  0
 26 82  1  0  0  0  0
 27 83  1  0  0  0  0
 28 31  2  0  0  0  0
 28 82  1  0  0  0  0
 29 84  1  0  0  0  0
 30 85  1  0  0  0  0
 31 86  1  0  0  0  0
 32 64  2  0  0  0  0
 33 65  1  0  0  0  0
 33 68  1  0  0  0  0
 34 36  2  0  0  0  0
 34 83  1  0  0  0  0
 35 69  1  0  0  0  0
 35 75  2  0  0  0  0
 36 37  1  0  0  0  0
 36 81  1  0  0  0  0
 37 70  1  0  0  0  0
 37 76  2  0  0  0  0
 38 52  1  0  0  0  0
 38 71  1  0  0  0  0
 38 77  2  0  0  0  0
 39 61  1  0  0  0  0
 39 66  1  0  0  0  0
 39 78  2  0  0  0  0
 40 62  1  0  0  0  0
 40 72  1  0  0  0  0
 40 79  2  0  0  0  0
 41 67  1  0  0  0  0
 41 73  1  0  0  0  0
 41 80  2  0  0  0  0
 42 45  1  0  0  0  0
 43 52  1  0  0  0  0
 44 66  1  0  0  0  0
 45 47  1  0  0  0  0
 46 48  1  0  0  0  0
 46 49  1  0  0  0  0
 47 51  1  0  0  0  0
 48 53  1  0  0  0  0
 49 67  1  0  0  0  0
 50 53  1  0  0  0  0
 50 67  1  0  0  0  0
 51 71  1  0  0  0  0
 52 66  1  0  0  0  0
 53 65  1  0  0  0  0
 54 60  1  0  0  0  0
 55 62  1  0  0  0  0
 56 63  1  0  0  0  0
 57 63  1  0  0  0  0
 58 63  1  0  0  0  0
 59 74  1  0  0  0  0
 60 73  1  0  0  0  0
 61 63  1  0  0  0  0
 61 72  1  0  0  0  0
 62 74  1  0  0  0  0
 64 65  1  0  0  0  0
M  CHG  1  74   1
M  ISO  4  34 101  41 100  73 100  83 101
M  END
> <Batch ID>
0091

> <Smiles>
CC[100N:0](c1ccc(NC(=O)C(=O)[101CH2:1][101O:1]c2ccc3c(c2)CN(C(=O)C(NC(=O)C(C)NC)C(C)(C)C)C(C(=O)NC2CCCc4ccccc42)C3)c(F)c1)[100C:0](=O)N1CCCC(n2nc(-c3ccc(Oc4ccc(F)cc4F)cc3)c(C(N)=O)c2N)C1

> <Shape>
0.213

> <Color>
0.099

> <Negative vol penalty>
0.000

$$$$

  -OEChem-04052300313D

 83 91  0     1  0  0  0  0  0999 V2000
  -21.5554  -25.1796   32.5634 C   0  0  0  0  0  0  0  0  0  0  0  0
  -21.8139  -24.8168   31.2455 C   0  0  0  0  0  0  0  0  0  0  0  0
  -22.9860   -9.9070   19.9941 C   0  0  0  0  0  0  0  0  0  0  0  0
  -23.7654   -9.9396   22.2807 C   0  0  0  0  0  0  0  0  0  0  0  0
  -21.4348  -26.5263   32.9037 C   0  0  0  0  0  0  0  0  0  0  0  0
  -21.9509  -25.8006   30.2668 C   0  0  0  0  0  0  0  0  0  0  0  0
  -25.8991  -24.9619   27.2085 C   0  0  0  0  0  0  0  0  0  0  0  0
  -22.2258   -8.7704   20.2694 C   0  0  0  0  0  0  0  0  0  0  0  0
  -23.0052   -8.8030   22.5561 C   0  0  0  0  0  0  0  0  0  0  0  0
  -25.7388  -24.0016   26.2106 C   0  0  0  0  0  0  0  0  0  0  0  0
  -23.2377   -5.4680   22.0520 C   0  0  0  0  0  0  0  0  0  0  0  0
  -23.8427   -4.4448   22.7819 C   0  0  0  0  0  0  0  0  0  0  0  0
  -25.3354  -25.7514   24.5999 C   0  0  0  0  0  0  0  0  0  0  0  0
  -29.1953  -17.0979   19.8765 C   0  0  0  0  0  0  0  0  0  0  0  0
  -22.1589   -4.6744   24.4992 C   0  0  0  0  0  0  0  0  0  0  0  0
  -23.7559  -10.4916   20.9997 C   0  0  0  0  0  0  0  0  0  0  0  0
  -24.1374  -13.0085   20.8347 C   0  0  0  0  0  0  0  0  0  0  0  0
  -21.5799  -27.5275   31.9304 C   0  0  0  0  0  0  0  0  0  0  0  0
  -25.7678  -26.3260   26.9113 C   0  0  0  0  0  0  0  0  0  0  0  0
  -21.8308  -27.1619   30.5941 C   0  0  0  0  0  0  0  0  0  0  0  0
  -25.4971  -26.7272   25.5953 C   0  0  0  0  0  0  0  0  0  0  0  0
  -28.4447  -18.3078   19.8243 C   0  0  0  0  0  0  0  0  0  0  0  0
  -22.2354   -8.2184   21.5504 C   0  0  0  0  0  0  0  0  0  0  0  0
  -25.4541  -24.3961   24.9066 C   0  0  0  0  0  0  0  0  0  0  0  0
  -22.0934   -6.0944   22.5457 C   0  0  0  0  0  0  0  0  0  0  0  0
  -23.3033   -4.0480   24.0055 C   0  0  0  0  0  0  0  0  0  0  0  0
  -21.5539   -5.6976   23.7693 C   0  0  0  0  0  0  0  0  0  0  0  0
  -24.5419  -11.6654   20.7158 C   0  0  0  0  0  0  0  0  0  0  0  0
  -29.4493  -16.7020   21.1712 C   0  0  0  0  0  0  0  0  0  0  0  0
  -25.2383  -13.7340   20.4500 C   0  0  0  0  0  0  0  0  0  0  0  0
  -28.1534  -18.7906   21.0813 C   0  0  0  0  0  0  0  0  0  0  0  0
  -22.8790  -13.5518   21.2554 C   0  0  0  0  0  0  0  0  0  0  0  0
  -30.1617  -15.5551   21.6329 C   0  0  0  0  0  0  0  0  0  0  0  0
  -30.7634  -14.5712   20.7037 C   0  0  0  0  0  0  0  0  0  0  0  0
  -23.8135  -28.6491   27.8537 C   0  0  0  0  0  0  0  0  0  0  0  0
  -26.3851  -21.6689   22.7154 C   0  0  0  0  0  0  0  0  0  0  0  0
  -25.8037  -30.5073   26.0906 C   0  0  0  0  0  0  0  0  0  0  0  0
  -28.0654  -30.7266   23.5443 C   0  0  0  0  0  0  0  0  0  0  0  0
  -21.3941  -28.9678   32.3373 C   0  0  0  0  0  0  0  0  0  0  0  0
  -25.9701  -27.3507   27.9937 C   0  0  0  0  0  0  0  0  0  0  0  0
  -25.3662  -28.1800   25.2201 C   0  0  0  0  0  0  0  0  0  0  0  0
  -21.9248  -29.9643   31.3098 C   0  0  0  0  0  0  0  0  0  0  0  0
  -29.5356  -12.2882   18.2264 C   0  0  0  0  0  0  0  0  0  0  0  0
  -21.4676  -29.5787   29.9066 C   0  0  0  0  0  0  0  0  0  0  0  0
  -28.1062  -12.0034   18.6862 C   0  0  0  0  0  0  0  0  0  0  0  0
  -30.4729  -12.4938   19.4119 C   0  0  0  0  0  0  0  0  0  0  0  0
  -28.5908  -13.2800   20.8219 C   0  0  0  0  0  0  0  0  0  0  0  0
  -22.0104  -28.2009   29.5086 C   0  0  1  0  0  0  0  0  0  0  0  0
  -25.3057  -28.6882   27.6819 C   0  0  1  0  0  0  0  0  0  0  0  0
  -27.6091  -13.0941   19.6517 C   0  0  2  0  0  0  0  0  0  0  0  0
  -29.4915  -32.3846   22.3136 C   0  0  0  0  0  0  0  0  0  0  0  0
  -23.3381  -31.5241   24.6084 C   0  0  0  0  0  0  0  0  0  0  0  0
  -24.8591  -32.4046   22.8253 C   0  0  0  0  0  0  0  0  0  0  0  0
  -25.0281  -33.2853   25.1530 C   0  0  0  0  0  0  0  0  0  0  0  0
  -30.5588  -29.3361   24.3246 C   0  0  0  0  0  0  0  0  0  0  0  0
  -27.1789  -20.3800   22.7395 C   0  0  0  0  0  0  0  0  0  0  0  0
  -26.0295  -22.2446   24.0724 C   0  0  0  0  0  0  0  0  0  1  0  0
  -25.8551  -30.9501   24.6483 C   0  0  1  0  0  0  0  0  0  0  0  0
  -29.4285  -31.3897   23.4621 C   0  0  2  0  0  0  0  0  0  0  0  0
  -24.7706  -32.0135   24.3159 C   0  0  0  0  0  0  0  0  0  0  0  0
  -25.8014  -11.5420   20.2888 N   0  0  0  0  0  0  0  0  0  0  0  0
  -30.3546  -15.2618   22.9064 N   0  0  0  0  0  0  0  0  0  0  0  0
  -26.1979  -12.8170   20.1359 N   0  0  0  0  0  0  0  0  0  0  0  0
  -29.9538  -13.5090   20.3263 N   0  0  0  0  0  0  0  0  0  0  0  0
  -25.5664  -29.1438   26.3149 N   0  0  0  0  0  0  0  0  0  0  0  0
  -28.0668  -18.9019   18.6668 N   0  0  0  0  0  0  0  0  0  0  0  0
  -25.4696  -15.0605   20.3530 N   0  0  0  0  0  0  0  0  0  0  0  0
  -21.8554  -12.6649   21.6162 N   0  0  0  0  0  0  0  0  0  0  0  0
  -27.4427  -19.9407   21.3932 N   0  0  0  0  0  0  0  0  0  0  0  0
  -23.4026  -28.2976   29.1253 N   0  0  0  0  0  0  0  0  0  0  0  0
  -27.2230  -31.3959   24.4066 N   0  0  0  0  0  0  0  0  0  0  0  0
  -30.4912  -30.3656   23.2556 N   0  3  0  0  0  0  0  0  0  0  0  0
  -22.6631  -14.7869   21.2941 O   0  0  0  0  0  0  0  0  0  0  0  0
  -31.9173  -14.8016   20.3664 O   0  0  0  0  0  0  0  0  0  0  0  0
  -23.0887  -28.9193   26.9033 O   0  0  0  0  0  0  0  0  0  0  0  0
  -26.0451  -22.2214   21.6700 O   0  0  0  0  0  0  0  0  0  0  0  0
  -25.9752  -31.3392   26.9851 O   0  0  0  0  0  0  0  0  0  0  0  0
  -27.7757  -29.7180   22.9046 O   0  0  0  0  0  0  0  0  0  0  0  0
  -21.4935   -7.1095   21.8195 O   0  0  0  0  0  0  0  0  0  0  0  0
  -25.2965  -23.4608   23.9308 O   0  0  0  0  0  0  0  0  0  1  0  0
  -23.8834   -3.0644   24.7055 F   0  0  0  0  0  0  0  0  0  0  0  0
  -20.4540   -6.2948   24.2482 F   0  0  0  0  0  0  0  0  0  0  0  0
  -28.7841  -17.7868   22.3170 S   0  0  0  0  0  0  0  0  0  0  0  0
  1  2  1  0  0  0  0
  1  5  2  0  0  0  0
  2  6  2  0  0  0  0
  3  8  2  0  0  0  0
  3 16  1  0  0  0  0
  4  9  1  0  0  0  0
  4 16  2  0  0  0  0
  5 18  1  0  0  0  0
  6 20  1  0  0  0  0
  7 10  2  0  0  0  0
  7 19  1  0  0  0  0
  8 23  1  0  0  0  0
  9 23  2  0  0  0  0
 10 24  1  0  0  0  0
 11 12  2  0  0  0  0
 11 25  1  0  0  0  0
 12 26  1  0  0  0  0
 13 21  1  0  0  0  0
 13 24  2  0  0  0  0
 14 22  1  0  0  0  0
 14 29  2  0  0  0  0
 15 26  2  0  0  0  0
 15 27  1  0  0  0  0
 16 28  1  0  0  0  0
 17 28  1  0  0  0  0
 17 30  2  0  0  0  0
 17 32  1  0  0  0  0
 18 20  2  0  0  0  0
 18 39  1  0  0  0  0
 19 21  2  0  0  0  0
 19 40  1  0  0  0  0
 20 48  1  0  0  0  0
 21 41  1  0  0  0  0
 22 31  2  0  0  0  0
 22 66  1  0  0  0  0
 23 79  1  0  0  0  0
 24 80  1  0  0  0  0
 25 27  2  0  0  0  0
 25 79  1  0  0  0  0
 26 81  1  0  0  0  0
 27 82  1  0  0  0  0
 28 61  2  0  0  0  0
 29 33  1  0  0  0  0
 29 83  1  0  0  0  0
 30 63  1  0  0  0  0
 30 67  1  0  0  0  0
 31 69  1  0  0  0  0
 31 83  1  0  0  0  0
 32 68  1  0  0  0  0
 32 73  2  0  0  0  0
 33 34  1  0  0  0  0
 33 62  2  0  0  0  0
 34 64  1  0  0  0  0
 34 74  2  0  0  0  0
 35 49  1  0  0  0  0
 35 70  1  0  0  0  0
 35 75  2  0  0  0  0
 36 56  1  0  0  0  0
 36 57  1  0  0  0  0
 36 76  2  0  0  0  0
 37 58  1  0  0  0  0
 37 65  1  0  0  0  0
 37 77  2  0  0  0  0
 38 59  1  0  0  0  0
 38 71  1  0  0  0  0
 38 78  2  0  0  0  0
 39 42  1  0  0  0  0
 40 49  1  0  0  0  0
 41 65  1  0  0  0  0
 42 44  1  0  0  0  0
 43 45  1  0  0  0  0
 43 46  1  0  0  0  0
 44 48  1  0  0  0  0
 45 50  1  0  0  0  0
 46 64  1  0  0  0  0
 47 50  1  0  0  0  0
 47 64  1  0  0  0  0
 48 70  1  0  0  0  0
 49 65  1  0  0  0  0
 50 63  1  0  0  0  0
 51 59  1  0  0  0  0
 52 60  1  0  0  0  0
 53 60  1  0  0  0  0
 54 60  1  0  0  0  0
 55 72  1  0  0  0  0
 56 69  1  0  0  0  0
 57 80  1  0  0  0  0
 58 60  1  0  0  0  0
 58 71  1  0  0  0  0
 59 72  1  0  0  0  0
 61 63  1  0  0  0  0
M  CHG  1  72   1
M  ISO  4  33 100  34 100  57 101  80 101
M  END
> <Batch ID>
0091

> <Smiles>
CNC(C)C(=O)NC(C(=O)N1Cc2cc([101O:1][101CH2:1]C(=O)CNc3sc([100C:0](=N)[100C:0](=O)N4CCCC(n5nc(-c6ccc(Oc7ccc(F)cc7F)cc6)c(C(N)=O)c5N)C4)cc3N)ccc2CC1C(=O)NC1CCCc2ccccc21)C(C)(C)C

> <Shape>
0.267

> <Color>
0.183

> <Negative vol penalty>
0.000

$$$$

  -OEChem-04052300313D

 81 89  0     1  0  0  0  0  0999 V2000
  -29.1282  -32.4964   22.0596 C   0  0  0  0  0  0  0  0  0  0  0  0
  -29.0937  -31.1570   21.6853 C   0  0  0  0  0  0  0  0  0  0  0  0
  -23.0446   -9.9704   19.9042 C   0  0  0  0  0  0  0  0  0  0  0  0
  -23.9615   -9.7447   22.1281 C   0  0  0  0  0  0  0  0  0  0  0  0
  -28.0486  -33.0567   22.7412 C   0  0  0  0  0  0  0  0  0  0  0  0
  -27.9798  -30.3767   21.9932 C   0  0  0  0  0  0  0  0  0  0  0  0
  -26.4831  -27.5051   18.0998 C   0  0  0  0  0  0  0  0  0  0  0  0
  -22.3358   -8.7814   20.0758 C   0  0  0  0  0  0  0  0  0  0  0  0
  -23.2526   -8.5557   22.2996 C   0  0  0  0  0  0  0  0  0  0  0  0
  -27.2153  -26.3464   17.8447 C   0  0  0  0  0  0  0  0  0  0  0  0
  -23.5498   -5.3207   21.3629 C   0  0  0  0  0  0  0  0  0  0  0  0
  -24.2277   -4.2369   21.9210 C   0  0  0  0  0  0  0  0  0  0  0  0
  -31.3387  -18.7128   20.3525 C   0  0  0  0  0  0  0  0  0  0  0  0
  -30.7139  -19.8451   19.7544 C   0  0  0  0  0  0  0  0  0  0  0  0
  -25.5315  -25.0407   18.9758 C   0  0  0  0  0  0  0  0  0  0  0  0
  -22.6464   -4.1882   23.7470 C   0  0  0  0  0  0  0  0  0  0  0  0
  -23.8575  -10.4521   20.9304 C   0  0  0  0  0  0  0  0  0  0  0  0
  -24.1555  -12.9820   21.0653 C   0  0  0  0  0  0  0  0  0  0  0  0
  -26.9169  -32.2853   23.0491 C   0  0  0  0  0  0  0  0  0  0  0  0
  -25.2729  -27.4415   18.8055 C   0  0  0  0  0  0  0  0  0  0  0  0
  -26.8846  -30.9268   22.6807 C   0  0  0  0  0  0  0  0  0  0  0  0
  -24.7846  -26.1997   19.2363 C   0  0  0  0  0  0  0  0  0  0  0  0
  -22.4398   -8.0741   21.2735 C   0  0  0  0  0  0  0  0  0  0  0  0
  -26.7410  -25.1143   18.2853 C   0  0  0  0  0  0  0  0  0  0  0  0
  -22.4203   -5.8384   21.9970 C   0  0  0  0  0  0  0  0  0  0  0  0
  -23.7759   -3.6706   23.1130 C   0  0  0  0  0  0  0  0  0  0  0  0
  -21.9686   -5.2721   23.1890 C   0  0  0  0  0  0  0  0  0  0  0  0
  -24.5904  -11.6799   20.7536 C   0  0  0  0  0  0  0  0  0  0  0  0
  -30.5204  -18.0966   21.2734 C   0  0  0  0  0  0  0  0  0  0  0  0
  -25.2094  -13.7895   20.7137 C   0  0  0  0  0  0  0  0  0  0  0  0
  -29.4415  -20.0509   20.2408 C   0  0  0  0  0  0  0  0  0  0  0  0
  -22.9101  -13.4222   21.6229 C   0  0  0  0  0  0  0  0  0  0  0  0
  -24.2145  -28.6340   21.5553 C   0  0  0  0  0  0  0  0  0  0  0  0
  -21.3955  -27.3662   20.5712 C   0  0  0  0  0  0  0  0  0  0  0  0
  -28.6039  -22.0845   19.0173 C   0  0  0  0  0  0  0  0  0  0  0  0
  -19.7686  -25.0629   18.6490 C   0  0  0  0  0  0  0  0  0  0  0  0
  -30.6785  -14.8983   20.6426 C   0  0  0  0  0  0  0  0  0  0  0  0
  -25.7942  -32.9227   23.8288 C   0  0  0  0  0  0  0  0  0  0  0  0
  -24.4818  -28.6973   19.0492 C   0  0  0  0  0  0  0  0  0  0  0  0
  -23.4810  -26.0751   19.9803 C   0  0  0  0  0  0  0  0  0  0  0  0
  -24.4937  -32.1245   23.7869 C   0  0  0  0  0  0  0  0  0  0  0  0
  -29.4111  -12.7632   18.0908 C   0  0  0  0  0  0  0  0  0  0  0  0
  -24.7655  -30.6468   24.0506 C   0  0  0  0  0  0  0  0  0  0  0  0
  -28.0113  -12.3938   18.5848 C   0  0  0  0  0  0  0  0  0  0  0  0
  -30.4061  -12.8719   19.2441 C   0  0  0  0  0  0  0  0  0  0  0  0
  -28.5952  -13.4077   20.8276 C   0  0  0  0  0  0  0  0  0  0  0  0
  -25.6836  -30.0542   22.9749 C   0  0  1  0  0  0  0  0  0  0  0  0
  -23.5176  -28.5773   20.2253 C   0  0  1  0  0  0  0  0  0  0  0  0
  -27.5442  -13.3412   19.7062 C   0  0  2  0  0  0  0  0  0  0  0  0
  -17.4652  -24.2433   18.0832 C   0  0  0  0  0  0  0  0  0  0  0  0
  -21.2567  -25.9137   23.2509 C   0  0  0  0  0  0  0  0  0  0  0  0
  -19.4992  -24.4229   22.2728 C   0  0  0  0  0  0  0  0  0  0  0  0
  -19.0833  -26.8745   22.4712 C   0  0  0  0  0  0  0  0  0  0  0  0
  -20.0954  -25.7628   15.7921 C   0  0  0  0  0  0  0  0  0  0  0  0
  -30.8003  -16.9029   22.1007 C   0  0  0  0  0  0  0  0  0  0  0  0
  -27.3389  -22.9220   18.9868 C   0  0  0  0  0  0  0  0  0  1  0  0
  -20.7106  -26.0303   20.7302 C   0  0  1  0  0  0  0  0  0  0  0  0
  -18.5895  -25.1937   17.7018 C   0  0  2  0  0  0  0  0  0  0  0  0
  -20.1630  -25.8126   22.1690 C   0  0  0  0  0  0  0  0  0  0  0  0
  -25.8245  -11.6569   20.2430 N   0  0  0  0  0  0  0  0  0  0  0  0
  -26.1739  -12.9546   20.2311 N   0  0  0  0  0  0  0  0  0  0  0  0
  -22.7471  -27.3323   20.1998 N   0  0  0  0  0  0  0  0  0  0  0  0
  -29.9042  -13.7863   20.2727 N   0  0  0  0  0  0  0  0  0  0  0  0
  -25.3959  -15.1252   20.7731 N   0  0  0  0  0  0  0  0  0  0  0  0
  -21.9366  -12.4606   21.9259 N   0  0  0  0  0  0  0  0  0  0  0  0
  -28.4804  -21.0418   19.9292 N   0  0  0  0  0  0  0  0  0  0  0  0
  -24.9382  -29.7928   21.7623 N   0  0  0  0  0  0  0  0  0  0  0  0
  -19.6923  -25.9670   19.6873 N   0  0  0  0  0  0  0  0  0  0  0  0
  -30.1264  -15.7174   21.6199 N   0  0  0  0  0  0  0  0  0  0  0  0
  -19.0104  -24.8874   16.3054 N   0  3  0  0  0  0  0  0  0  0  0  0
  -22.6615  -14.6341   21.8307 O   0  0  0  0  0  0  0  0  0  0  0  0
  -24.1026  -27.6965   22.3365 O   0  0  0  0  0  0  0  0  0  0  0  0
  -20.7530  -28.4017   20.7623 O   0  0  0  0  0  0  0  0  0  0  0  0
  -29.5674  -22.3498   18.3060 O   0  0  0  0  0  0  0  0  0  0  0  0
  -20.6654  -24.2384   18.4863 O   0  0  0  0  0  0  0  0  0  0  0  0
  -31.7777  -15.1461   20.1355 O   0  0  0  0  0  0  0  0  0  0  0  0
  -21.7480   -6.9139   21.4413 O   0  0  0  0  0  0  0  0  0  0  0  0
  -27.4540  -23.9819   18.0382 O   0  0  0  0  0  0  0  0  0  1  0  0
  -24.4260   -2.6288   23.6479 F   0  0  0  0  0  0  0  0  0  0  0  0
  -20.8834   -5.7642   23.8020 F   0  0  0  0  0  0  0  0  0  0  0  0
  -29.0053  -18.8823   21.4139 S   0  0  0  0  0  0  0  0  0  0  0  0
  1  2  1  0  0  0  0
  1  5  2  0  0  0  0
  2  6  2  0  0  0  0
  3  8  2  0  0  0  0
  3 17  1  0  0  0  0
  4  9  1  0  0  0  0
  4 17  2  0  0  0  0
  5 19  1  0  0  0  0
  6 21  1  0  0  0  0
  7 10  2  0  0  0  0
  7 20  1  0  0  0  0
  8 23  1  0  0  0  0
  9 23  2  0  0  0  0
 10 24  1  0  0  0  0
 11 12  2  0  0  0  0
 11 25  1  0  0  0  0
 12 26  1  0  0  0  0
 13 14  1  0  0  0  0
 13 29  2  0  0  0  0
 14 31  2  0  0  0  0
 15 22  1  0  0  0  0
 15 24  2  0  0  0  0
 16 26  2  0  0  0  0
 16 27  1  0  0  0  0
 17 28  1  0  0  0  0
 18 28  1  0  0  0  0
 18 30  2  0  0  0  0
 18 32  1  0  0  0  0
 19 21  2  0  0  0  0
 19 38  1  0  0  0  0
 20 22  2  0  0  0  0
 20 39  1  0  0  0  0
 21 47  1  0  0  0  0
 22 40  1  0  0  0  0
 23 77  1  0  0  0  0
 24 78  1  0  0  0  0
 25 27  2  0  0  0  0
 25 77  1  0  0  0  0
 26 79  1  0  0  0  0
 27 80  1  0  0  0  0
 28 60  2  0  0  0  0
 29 55  1  0  0  0  0
 29 81  1  0  0  0  0
 30 61  1  0  0  0  0
 30 64  1  0  0  0  0
 31 66  1  0  0  0  0
 31 81  1  0  0  0  0
 32 65  1  0  0  0  0
 32 71  2  0  0  0  0
 33 48  1  0  0  0  0
 33 67  1  0  0  0  0
 33 72  2  0  0  0  0
 34 57  1  0  0  0  0
 34 62  1  0  0  0  0
 34 73  2  0  0  0  0
 35 56  1  0  0  0  0
 35 66  1  0  0  0  0
 35 74  2  0  0  0  0
 36 58  1  0  0  0  0
 36 68  1  0  0  0  0
 36 75  2  0  0  0  0
 37 63  1  0  0  0  0
 37 69  1  0  0  0  0
 37 76  2  0  0  0  0
 38 41  1  0  0  0  0
 39 48  1  0  0  0  0
 40 62  1  0  0  0  0
 41 43  1  0  0  0  0
 42 44  1  0  0  0  0
 42 45  1  0  0  0  0
 43 47  1  0  0  0  0
 44 49  1  0  0  0  0
 45 63  1  0  0  0  0
 46 49  1  0  0  0  0
 46 63  1  0  0  0  0
 47 67  1  0  0  0  0
 48 62  1  0  0  0  0
 49 61  1  0  0  0  0
 50 58  1  0  0  0  0
 51 59  1  0  0  0  0
 52 59  1  0  0  0  0
 53 59  1  0  0  0  0
 54 70  1  0  0  0  0
 55 69  1  0  0  0  0
 56 78  1  0  0  0  0
 57 59  1  0  0  0  0
 57 68  1  0  0  0  0
 58 70  1  0  0  0  0
 60 61  1  0  0  0  0
M  CHG  1  70   1
M  ISO  4  37 100  56 101  69 100  78 101
M  END
> <Batch ID>
0091

> <Smiles>
CNC(C)C(=O)NC(C(=O)N1Cc2cc([101O:1][101CH2:1]C(=O)Nc3ccc(C[100NH:0][100C:0](=O)N4CCCC(n5nc(-c6ccc(Oc7ccc(F)cc7F)cc6)c(C(N)=O)c5N)C4)s3)ccc2CC1C(=O)NC1CCCc2ccccc21)C(C)(C)C

> <Shape>
0.340

> <Color>
0.188

> <Negative vol penalty>
0.000

$$$$

  -OEChem-04052300313D

 85 93  0     1  0  0  0  0  0999 V2000
  -37.5327  -29.5805   26.2626 C   0  0  0  0  0  0  0  0  0  0  0  0
  -36.7460  -28.5044   25.8643 C   0  0  0  0  0  0  0  0  0  0  0  0
  -23.0011   -9.8931   19.9802 C   0  0  0  0  0  0  0  0  0  0  0  0
  -23.7268   -9.9428   22.2841 C   0  0  0  0  0  0  0  0  0  0  0  0
  -37.1608  -30.8795   25.9186 C   0  0  0  0  0  0  0  0  0  0  0  0
  -35.5864  -28.7268   25.1225 C   0  0  0  0  0  0  0  0  0  0  0  0
  -35.1300  -25.5264   21.2246 C   0  0  0  0  0  0  0  0  0  0  0  0
  -22.2350   -8.7582   20.2460 C   0  0  0  0  0  0  0  0  0  0  0  0
  -22.9605   -8.8079   22.5499 C   0  0  0  0  0  0  0  0  0  0  0  0
  -34.6912  -24.2342   21.5097 C   0  0  0  0  0  0  0  0  0  0  0  0
  -23.2056   -5.4693   22.0759 C   0  0  0  0  0  0  0  0  0  0  0  0
  -23.7935   -4.4518   22.8272 C   0  0  0  0  0  0  0  0  0  0  0  0
  -30.4702  -18.3448   23.9932 C   0  0  0  0  0  0  0  0  0  0  0  0
  -32.4676  -24.8381   20.7955 C   0  0  0  0  0  0  0  0  0  0  0  0
  -32.0571  -16.5496   22.5643 C   0  0  0  0  0  0  0  0  0  0  0  0
  -22.0699   -4.6933   24.5029 C   0  0  0  0  0  0  0  0  0  0  0  0
  -23.7471  -10.4853   20.9993 C   0  0  0  0  0  0  0  0  0  0  0  0
  -31.8537  -18.3429   24.1705 C   0  0  0  0  0  0  0  0  0  0  0  0
  -24.1317  -13.0011   20.8248 C   0  0  0  0  0  0  0  0  0  0  0  0
  -36.0011  -31.1171   25.1640 C   0  0  0  0  0  0  0  0  0  0  0  0
  -34.2369  -26.4889   20.7322 C   0  0  0  0  0  0  0  0  0  0  0  0
  -35.1979  -30.0302   24.7692 C   0  0  0  0  0  0  0  0  0  0  0  0
  -32.8981  -26.1411   20.5025 C   0  0  0  0  0  0  0  0  0  0  0  0
  -32.6472  -17.4453   23.4561 C   0  0  0  0  0  0  0  0  0  0  0  0
  -30.6735  -16.5515   22.3870 C   0  0  0  0  0  0  0  0  0  0  0  0
  -22.2146   -8.2157   21.5308 C   0  0  0  0  0  0  0  0  0  0  0  0
  -33.3592  -23.8906   21.2980 C   0  0  0  0  0  0  0  0  0  0  0  0
  -22.0498   -6.0989   22.5381 C   0  0  0  0  0  0  0  0  0  0  0  0
  -23.2257   -4.0638   24.0407 C   0  0  0  0  0  0  0  0  0  0  0  0
  -29.8801  -17.4490   23.1015 C   0  0  0  0  0  0  0  0  0  0  0  0
  -21.4820   -5.7108   23.7516 C   0  0  0  0  0  0  0  0  0  0  0  0
  -24.5392  -11.6573   20.7252 C   0  0  0  0  0  0  0  0  0  0  0  0
  -25.2412  -13.7242   20.4606 C   0  0  0  0  0  0  0  0  0  0  0  0
  -32.6838  -20.9765   23.3172 C   0  0  0  0  0  0  0  0  0  0  0  0
  -33.0495  -22.1773   22.8598 C   0  0  0  0  0  0  0  0  0  1  0  0
  -32.4407  -19.2930   25.1142 C   0  0  0  0  0  0  0  0  0  0  0  0
  -22.8637  -13.5470   21.2119 C   0  0  0  0  0  0  0  0  0  0  0  0
  -33.1647  -29.2944   21.7730 C   0  0  0  0  0  0  0  0  0  0  0  0
  -31.7512  -29.3967   18.8551 C   0  0  0  0  0  0  0  0  0  0  0  0
  -30.5466  -27.6878   16.1578 C   0  0  0  0  0  0  0  0  0  0  0  0
  -30.7205  -14.6866   20.6941 C   0  0  0  0  0  0  0  0  0  0  0  0
  -35.6145  -32.5421   24.8565 C   0  0  0  0  0  0  0  0  0  0  0  0
  -34.7320  -27.8709   20.4043 C   0  0  0  0  0  0  0  0  0  0  0  0
  -31.9039  -27.1319   19.9562 C   0  0  0  0  0  0  0  0  0  0  0  0
  -34.5714  -32.6648   23.7487 C   0  0  0  0  0  0  0  0  0  0  0  0
  -29.6024  -12.2348   18.3668 C   0  0  0  0  0  0  0  0  0  0  0  0
  -33.4338  -31.6740   23.9746 C   0  0  0  0  0  0  0  0  0  0  0  0
  -28.1520  -11.9766   18.7811 C   0  0  0  0  0  0  0  0  0  0  0  0
  -30.5031  -12.4777   19.5766 C   0  0  0  0  0  0  0  0  0  0  0  0
  -28.5878  -13.2653   20.9110 C   0  0  0  0  0  0  0  0  0  0  0  0
  -33.9461  -30.2290   23.9425 C   0  0  1  0  0  0  0  0  0  0  0  0
  -33.6210  -28.9163   20.3922 C   0  0  1  0  0  0  0  0  0  0  0  0
  -27.6300  -13.0794   19.7228 C   0  0  2  0  0  0  0  0  0  0  0  0
  -29.4158  -28.0423   13.9458 C   0  0  0  0  0  0  0  0  0  0  0  0
  -29.1097  -29.9159   20.2914 C   0  0  0  0  0  0  0  0  0  0  0  0
  -27.9196  -29.3182   18.1714 C   0  0  0  0  0  0  0  0  0  0  0  0
  -29.4592  -31.2802   18.2248 C   0  0  0  0  0  0  0  0  0  0  0  0
  -33.4912  -21.5023   25.5262 C   0  0  0  0  0  0  0  0  0  0  0  0
  -32.8037  -26.4733   14.6782 C   0  0  0  0  0  0  0  0  0  0  0  0
  -30.4250  -28.9447   18.2932 C   0  0  1  0  0  0  0  0  0  0  0  0
  -30.7462  -27.8893   14.6665 C   0  0  2  0  0  0  0  0  0  0  0  0
  -29.2464  -29.8464   18.7573 C   0  0  0  0  0  0  0  0  0  0  0  0
  -25.8085  -11.5314   20.3287 N   0  0  0  0  0  0  0  0  0  0  0  0
  -26.2081  -12.8054   20.1758 N   0  0  0  0  0  0  0  0  0  0  0  0
  -32.4349  -28.4721   19.6572 N   0  0  0  0  0  0  0  0  0  0  0  0
  -29.9480  -13.5380   20.4207 N   0  0  0  0  0  0  0  0  0  0  0  0
  -34.0501  -17.4270   23.6219 N   0  0  0  0  0  0  0  0  0  0  0  0
  -25.4744  -15.0501   20.3593 N   0  0  0  0  0  0  0  0  0  0  0  0
  -21.8322  -12.6624   21.5550 N   0  0  0  0  0  0  0  0  0  0  0  0
  -30.0762  -15.6411   21.4804 N   0  0  0  0  0  0  0  0  0  0  0  0
  -34.1671  -29.8014   22.5777 N   0  0  0  0  0  0  0  0  0  0  0  0
  -30.5951  -28.8819   16.8456 N   0  0  0  0  0  0  0  0  0  0  0  0
  -32.8241  -20.5680   24.6073 N   0  0  0  0  0  0  0  0  0  0  0  0
  -31.4681  -26.7257   14.0786 N   0  3  0  0  0  0  0  0  0  0  0  0
  -32.5904  -18.9726   26.2955 O   0  0  0  0  0  0  0  0  0  0  0  0
  -22.6467  -14.7822   21.2364 O   0  0  0  0  0  0  0  0  0  0  0  0
  -31.9898  -29.1391   22.0847 O   0  0  0  0  0  0  0  0  0  0  0  0
  -32.1686  -30.5259   18.5862 O   0  0  0  0  0  0  0  0  0  0  0  0
  -30.3622  -26.5821   16.6618 O   0  0  0  0  0  0  0  0  0  0  0  0
  -31.8591  -14.8261   20.2399 O   0  0  0  0  0  0  0  0  0  0  0  0
  -21.4669   -7.1084   21.7906 O   0  0  0  0  0  0  0  0  0  0  0  0
  -32.9281  -22.6302   21.5761 O   0  0  0  0  0  0  0  0  0  1  0  0
  -23.7896   -3.0855   24.7614 F   0  0  0  0  0  0  0  0  0  0  0  0
  -28.5493  -17.4593   22.9396 F   0  0  0  0  0  0  0  0  0  0  0  0
  -20.3711   -6.3111   24.2002 F   0  0  0  0  0  0  0  0  0  0  0  0
  1  2  1  0  0  0  0
  1  5  2  0  0  0  0
  2  6  2  0  0  0  0
  3  8  2  0  0  0  0
  3 17  1  0  0  0  0
  4  9  1  0  0  0  0
  4 17  2  0  0  0  0
  5 20  1  0  0  0  0
  6 22  1  0  0  0  0
  7 10  2  0  0  0  0
  7 21  1  0  0  0  0
  8 26  1  0  0  0  0
  9 26  2  0  0  0  0
 10 27  1  0  0  0  0
 11 12  2  0  0  0  0
 11 28  1  0  0  0  0
 12 29  1  0  0  0  0
 13 18  1  0  0  0  0
 13 30  2  0  0  0  0
 14 23  1  0  0  0  0
 14 27  2  0  0  0  0
 15 24  1  0  0  0  0
 15 25  2  0  0  0  0
 16 29  2  0  0  0  0
 16 31  1  0  0  0  0
 17 32  1  0  0  0  0
 18 24  2  0  0  0  0
 18 36  1  0  0  0  0
 19 32  1  0  0  0  0
 19 33  2  0  0  0  0
 19 37  1  0  0  0  0
 20 22  2  0  0  0  0
 20 42  1  0  0  0  0
 21 23  2  0  0  0  0
 21 43  1  0  0  0  0
 22 51  1  0  0  0  0
 23 44  1  0  0  0  0
 24 67  1  0  0  0  0
 25 30  1  0  0  0  0
 25 70  1  0  0  0  0
 26 81  1  0  0  0  0
 27 82  1  0  0  0  0
 28 31  2  0  0  0  0
 28 81  1  0  0  0  0
 29 83  1  0  0  0  0
 30 84  1  0  0  0  0
 31 85  1  0  0  0  0
 32 63  2  0  0  0  0
 33 64  1  0  0  0  0
 33 68  1  0  0  0  0
 34 35  2  0  0  0  0
 34 73  1  0  0  0  0
 35 82  1  0  0  0  0
 36 73  1  0  0  0  0
 36 75  2  0  0  0  0
 37 69  1  0  0  0  0
 37 76  2  0  0  0  0
 38 52  1  0  0  0  0
 38 71  1  0  0  0  0
 38 77  2  0  0  0  0
 39 60  1  0  0  0  0
 39 65  1  0  0  0  0
 39 78  2  0  0  0  0
 40 61  1  0  0  0  0
 40 72  1  0  0  0  0
 40 79  2  0  0  0  0
 41 66  1  0  0  0  0
 41 70  1  0  0  0  0
 41 80  2  0  0  0  0
 42 45  1  0  0  0  0
 43 52  1  0  0  0  0
 44 65  1  0  0  0  0
 45 47  1  0  0  0  0
 46 48  1  0  0  0  0
 46 49  1  0  0  0  0
 47 51  1  0  0  0  0
 48 53  1  0  0  0  0
 49 66  1  0  0  0  0
 50 53  1  0  0  0  0
 50 66  1  0  0  0  0
 51 71  1  0  0  0  0
 52 65  1  0  0  0  0
 53 64  1  0  0  0  0
 54 61  1  0  0  0  0
 55 62  1  0  0  0  0
 56 62  1  0  0  0  0
 57 62  1  0  0  0  0
 58 73  1  0  0  0  0
 59 74  1  0  0  0  0
 60 62  1  0  0  0  0
 60 72  1  0  0  0  0
 61 74  1  0  0  0  0
 63 64  1  0  0  0  0
M  CHG  1  74   1
M  ISO  4  35 101  41 100  70 100  82 101
M  END
> <Batch ID>
0091

> <Smiles>
CNC(C)C(=O)NC(C(=O)N1Cc2cc([101O:1][101CH:1]=CN(C)C(=O)c3cc(F)c([100NH:0][100C:0](=O)N4CCCC(n5nc(-c6ccc(Oc7ccc(F)cc7F)cc6)c(C(N)=O)c5N)C4)cc3N)ccc2CC1C(=O)NC1CCCc2ccccc21)C(C)(C)C

> <Shape>
0.187

> <Color>
0.193

> <Negative vol penalty>
0.000

$$$$

  -OEChem-04052300313D

 84 93  0     1  0  0  0  0  0999 V2000
  -18.1629  -28.9643   26.2539 C   0  0  0  0  0  0  0  0  0  0  0  0
  -19.4986  -28.5822   26.3271 C   0  0  0  0  0  0  0  0  0  0  0  0
  -23.5865  -10.1072   18.6672 C   0  0  0  0  0  0  0  0  0  0  0  0
  -25.3842  -11.1742   17.4561 C   0  0  0  0  0  0  0  0  0  0  0  0
  -17.5372  -29.0732   25.0128 C   0  0  0  0  0  0  0  0  0  0  0  0
  -20.2091  -28.3077   25.1590 C   0  0  0  0  0  0  0  0  0  0  0  0
  -26.7985  -28.7852   22.3900 C   0  0  0  0  0  0  0  0  0  0  0  0
  -23.2444   -9.3856   17.5237 C   0  0  0  0  0  0  0  0  0  0  0  0
  -25.0421  -10.4525   16.3125 C   0  0  0  0  0  0  0  0  0  0  0  0
  -27.7572  -28.0011   21.7499 C   0  0  0  0  0  0  0  0  0  0  0  0
  -21.5731   -9.9371   14.6380 C   0  0  0  0  0  0  0  0  0  0  0  0
  -20.2214   -9.8576   14.3030 C   0  0  0  0  0  0  0  0  0  0  0  0
  -26.5951  -28.2993   19.6572 C   0  0  0  0  0  0  0  0  0  0  0  0
  -20.3176   -7.4505   14.4862 C   0  0  0  0  0  0  0  0  0  0  0  0
  -30.0994  -21.3296   19.2852 C   0  0  0  0  0  0  0  0  0  0  0  0
  -24.6564  -11.0016   18.6335 C   0  0  0  0  0  0  0  0  0  0  0  0
  -25.4049  -11.2282   21.0616 C   0  0  0  0  0  0  0  0  0  0  0  0
  -18.2430  -28.8093   23.8284 C   0  0  0  0  0  0  0  0  0  0  0  0
  -25.7231  -29.3242   21.6694 C   0  0  0  0  0  0  0  0  0  0  0  0
  -19.5918  -28.4119   23.9009 C   0  0  0  0  0  0  0  0  0  0  0  0
  -25.6254  -29.0920   20.2900 C   0  0  0  0  0  0  0  0  0  0  0  0
  -28.2309  -21.5418   20.6512 C   0  0  0  0  0  0  0  0  0  0  0  0
  -29.3709  -22.1822   20.0851 C   0  0  0  0  0  0  0  0  0  0  0  0
  -23.9722   -9.5582   16.3463 C   0  0  0  0  0  0  0  0  0  0  0  0
  -27.6540  -27.7556   20.3838 C   0  0  0  0  0  0  0  0  0  0  0  0
  -22.2971   -8.7733   14.8971 C   0  0  0  0  0  0  0  0  0  0  0  0
  -19.5937   -8.6143   14.2271 C   0  0  0  0  0  0  0  0  0  0  0  0
  -21.6693   -7.5300   14.8212 C   0  0  0  0  0  0  0  0  0  0  0  0
  -25.0099  -11.7477   19.8143 C   0  0  0  0  0  0  0  0  0  0  0  0
  -25.6281  -12.3373   21.8404 C   0  0  0  0  0  0  0  0  0  0  0  0
  -28.1314  -20.2239   20.2622 C   0  0  0  0  0  0  0  0  0  0  0  0
  -28.8823  -24.6104   19.9383 C   0  0  0  0  0  0  0  0  0  0  0  0
  -25.5566   -9.8649   21.4790 C   0  0  0  0  0  0  0  0  0  0  0  0
  -22.5622  -29.0091   21.7860 C   0  0  0  0  0  0  0  0  0  0  0  0
  -22.6359  -31.3609   19.5531 C   0  0  0  0  0  0  0  0  0  0  0  0
  -24.3805  -32.9807   17.1078 C   0  0  0  0  0  0  0  0  0  0  0  0
  -27.1447  -17.9012   20.1375 C   0  0  0  0  0  0  0  0  0  0  0  0
  -17.5108  -28.8946   22.5126 C   0  0  0  0  0  0  0  0  0  0  0  0
  -24.7119  -30.1900   22.3695 C   0  0  0  0  0  0  0  0  0  0  0  0
  -24.5012  -29.6643   19.4671 C   0  0  0  0  0  0  0  0  0  0  0  0
  -18.4387  -28.9494   21.3017 C   0  0  0  0  0  0  0  0  0  0  0  0
  -31.3823  -25.1720   21.3615 C   0  0  0  0  0  0  0  0  0  0  0  0
  -23.7890  -16.8087   21.6441 C   0  0  0  0  0  0  0  0  0  0  0  0
  -19.5301  -27.8901   21.4170 C   0  0  0  0  0  0  0  0  0  0  0  0
  -30.7007  -26.2652   20.5707 C   0  0  0  0  0  0  0  0  0  0  0  0
  -24.1515  -15.3869   22.0663 C   0  0  0  0  0  0  0  0  0  0  0  0
  -31.1464  -23.8275   20.6919 C   0  0  0  0  0  0  0  0  0  0  0  0
  -25.0144  -17.7059   21.5247 C   0  0  0  0  0  0  0  0  0  0  0  0
  -25.8952  -15.7527   20.2343 C   0  0  0  0  0  0  0  0  0  0  0  0
  -20.4029  -28.1297   22.6549 C   0  0  1  0  0  0  0  0  0  0  0  0
  -29.2156  -25.9775   20.5265 C   0  0  1  0  0  0  0  0  0  1  0  0
  -23.3767  -30.2627   21.6350 C   0  0  1  0  0  0  0  0  0  0  0  0
  -25.4557  -14.8794   21.4198 C   0  0  2  0  0  0  0  0  0  0  0  0
  -27.2619  -22.2132   21.5538 C   0  0  0  0  0  0  0  0  0  0  0  0
  -24.1638  -34.8378   15.4341 C   0  0  0  0  0  0  0  0  0  0  0  0
  -20.9200  -29.5625   17.7835 C   0  0  0  0  0  0  0  0  0  0  0  0
  -21.5282  -31.0151   15.8371 C   0  0  0  0  0  0  0  0  0  0  0  0
  -20.2667  -31.9765   17.7625 C   0  0  0  0  0  0  0  0  0  0  0  0
  -26.6051  -34.5005   18.3327 C   0  0  0  0  0  0  0  0  0  0  0  0
  -22.7124  -31.4021   18.0460 C   0  0  1  0  0  0  0  0  0  0  0  0
  -24.6032  -34.4582   16.8396 C   0  0  2  0  0  0  0  0  0  0  0  0
  -21.3771  -30.9765   17.3729 C   0  0  0  0  0  0  0  0  0  0  0  0
  -24.9826  -13.0830   19.7971 N   0  0  0  0  0  0  0  0  0  0  0  0
  -25.3632  -13.4119   21.0434 N   0  0  0  0  0  0  0  0  0  0  0  0
  -29.7500  -23.5621   20.3011 N   0  0  0  0  0  0  0  0  0  0  0  0
  -23.5341  -30.4993   20.1985 N   0  0  0  0  0  0  0  0  0  0  0  0
  -26.0486  -17.1557   20.6364 N   0  0  0  0  0  0  0  0  0  0  0  0
  -26.0230  -12.4885   23.1225 N   0  0  0  0  0  0  0  0  0  0  0  0
  -26.8040   -9.2490   21.3089 N   0  0  0  0  0  0  0  0  0  0  0  0
  -27.1745  -19.2271   20.5776 N   0  0  0  0  0  0  0  0  0  0  0  0
  -21.3443  -29.2013   22.4098 N   0  0  0  0  0  0  0  0  0  0  0  0
  -23.1556  -32.7474   17.6964 N   0  0  0  0  0  0  0  0  0  0  0  0
  -26.0460  -34.8001   16.9893 N   0  3  0  0  0  0  0  0  0  0  0  0
  -27.8759  -24.4884   19.2351 O   0  0  0  0  0  0  0  0  0  0  0  0
  -24.6093   -9.2072   21.9725 O   0  0  0  0  0  0  0  0  0  0  0  0
  -23.0053  -27.9465   21.3663 O   0  0  0  0  0  0  0  0  0  0  0  0
  -21.8144  -32.0725   20.1366 O   0  0  0  0  0  0  0  0  0  0  0  0
  -25.2087  -32.1193   16.8203 O   0  0  0  0  0  0  0  0  0  0  0  0
  -27.9878  -17.3948   19.3941 O   0  0  0  0  0  0  0  0  0  0  0  0
  -23.6388   -8.8540   15.2303 O   0  0  0  0  0  0  0  0  0  0  0  0
  -28.5881  -26.9901   19.7567 O   0  0  0  0  0  0  0  0  0  1  0  0
  -18.2953   -8.5382   13.9069 F   0  0  0  0  0  0  0  0  0  0  0  0
  -22.3594   -6.4086   15.0701 F   0  0  0  0  0  0  0  0  0  0  0  0
  -29.4090  -19.7639   19.2189 S   0  0  0  0  0  0  0  0  0  0  0  0
  1  2  1  0  0  0  0
  1  5  2  0  0  0  0
  2  6  2  0  0  0  0
  3  8  2  0  0  0  0
  3 16  1  0  0  0  0
  4  9  1  0  0  0  0
  4 16  2  0  0  0  0
  5 18  1  0  0  0  0
  6 20  1  0  0  0  0
  7 10  2  0  0  0  0
  7 19  1  0  0  0  0
  8 24  1  0  0  0  0
  9 24  2  0  0  0  0
 10 25  1  0  0  0  0
 11 12  2  0  0  0  0
 11 26  1  0  0  0  0
 12 27  1  0  0  0  0
 13 21  1  0  0  0  0
 13 25  2  0  0  0  0
 14 27  2  0  0  0  0
 14 28  1  0  0  0  0
 15 23  2  0  0  0  0
 15 84  1  0  0  0  0
 16 29  1  0  0  0  0
 17 29  1  0  0  0  0
 17 30  2  0  0  0  0
 17 33  1  0  0  0  0
 18 20  2  0  0  0  0
 18 38  1  0  0  0  0
 19 21  2  0  0  0  0
 19 39  1  0  0  0  0
 20 50  1  0  0  0  0
 21 40  1  0  0  0  0
 22 23  1  0  0  0  0
 22 31  2  0  0  0  0
 22 54  1  0  0  0  0
 23 65  1  0  0  0  0
 24 80  1  0  0  0  0
 25 81  1  0  0  0  0
 26 28  2  0  0  0  0
 26 80  1  0  0  0  0
 27 82  1  0  0  0  0
 28 83  1  0  0  0  0
 29 63  2  0  0  0  0
 30 64  1  0  0  0  0
 30 68  1  0  0  0  0
 31 70  1  0  0  0  0
 31 84  1  0  0  0  0
 32 51  1  0  0  0  0
 32 65  1  0  0  0  0
 32 74  2  0  0  0  0
 33 69  1  0  0  0  0
 33 75  2  0  0  0  0
 34 52  1  0  0  0  0
 34 71  1  0  0  0  0
 34 76  2  0  0  0  0
 35 60  1  0  0  0  0
 35 66  1  0  0  0  0
 35 77  2  0  0  0  0
 36 61  1  0  0  0  0
 36 72  1  0  0  0  0
 36 78  2  0  0  0  0
 37 67  1  0  0  0  0
 37 70  1  0  0  0  0
 37 79  2  0  0  0  0
 38 41  1  0  0  0  0
 39 52  1  0  0  0  0
 40 66  1  0  0  0  0
 41 44  1  0  0  0  0
 42 45  1  0  0  0  0
 42 47  1  0  0  0  0
 43 46  1  0  0  0  0
 43 48  1  0  0  0  0
 44 50  1  0  0  0  0
 45 51  1  0  0  0  0
 46 53  1  0  0  0  0
 47 65  1  0  0  0  0
 48 67  1  0  0  0  0
 49 53  1  0  0  0  0
 49 67  1  0  0  0  0
 50 71  1  0  0  0  0
 51 81  1  0  0  0  0
 52 66  1  0  0  0  0
 53 64  1  0  0  0  0
 55 61  1  0  0  0  0
 56 62  1  0  0  0  0
 57 62  1  0  0  0  0
 58 62  1  0  0  0  0
 59 73  1  0  0  0  0
 60 62  1  0  0  0  0
 60 72  1  0  0  0  0
 61 73  1  0  0  0  0
 63 64  1  0  0  0  0
M  CHG  1  73   1
M  ISO  4  37 100  51 101  70 100  81 101
M  END
> <Batch ID>
0091

> <Smiles>
CNC(C)C(=O)NC(C(=O)N1Cc2cc([101O:1][101CH:1]3CCCN(c4csc([100NH:0][100C:0](=O)N5CCCC(n6nc(-c7ccc(Oc8ccc(F)cc8F)cc7)c(C(N)=O)c6N)C5)c4C)C3=O)ccc2CC1C(=O)NC1CCCc2ccccc21)C(C)(C)C

> <Shape>
0.220

> <Color>
0.087

> <Negative vol penalty>
0.000

$$$$

  -OEChem-04052300313D

 85 93  0     1  0  0  0  0  0999 V2000
  -21.4617  -34.3463   15.6397 C   0  0  0  0  0  0  0  0  0  0  0  0
  -22.3235  -33.2544   15.6628 C   0  0  0  0  0  0  0  0  0  0  0  0
  -32.7986  -20.0577   23.0275 C   0  0  0  0  0  0  0  0  0  0  0  0
  -23.1996  -10.3297   20.0937 C   0  0  0  0  0  0  0  0  0  0  0  0
  -23.1974  -10.5147   22.5027 C   0  0  0  0  0  0  0  0  0  0  0  0
  -31.8137  -19.1475   23.4110 C   0  0  0  0  0  0  0  0  0  0  0  0
  -21.4844  -35.2729   16.6813 C   0  0  0  0  0  0  0  0  0  0  0  0
  -23.2092  -33.0891   16.7270 C   0  0  0  0  0  0  0  0  0  0  0  0
  -25.0448  -27.7959   19.2007 C   0  0  0  0  0  0  0  0  0  0  0  0
  -32.4449  -21.2218   22.3452 C   0  0  0  0  0  0  0  0  0  0  0  0
  -23.2727   -8.9409   20.2004 C   0  0  0  0  0  0  0  0  0  0  0  0
  -23.2704   -9.1259   22.6094 C   0  0  0  0  0  0  0  0  0  0  0  0
  -26.1943  -27.0270   19.0246 C   0  0  0  0  0  0  0  0  0  0  0  0
  -21.1624   -6.4961   22.3624 C   0  0  0  0  0  0  0  0  0  0  0  0
  -20.3220   -5.8735   23.2852 C   0  0  0  0  0  0  0  0  0  0  0  0
  -30.1213  -20.5654   22.4299 C   0  0  0  0  0  0  0  0  0  0  0  0
  -27.1795  -28.0663   20.9658 C   0  0  0  0  0  0  0  0  0  0  0  0
  -22.2491   -4.9874   24.4422 C   0  0  0  0  0  0  0  0  0  0  0  0
  -23.1621  -11.1167   21.2449 C   0  0  0  0  0  0  0  0  0  0  0  0
  -30.4751  -19.4014   23.1122 C   0  0  0  0  0  0  0  0  0  0  0  0
  -21.9224  -13.3397   21.0739 C   0  0  0  0  0  0  0  0  0  0  0  0
  -22.3641  -35.1136   17.7635 C   0  0  0  0  0  0  0  0  0  0  0  0
  -24.9581  -28.7152   20.2560 C   0  0  0  0  0  0  0  0  0  0  0  0
  -23.2446  -34.0151   17.7833 C   0  0  0  0  0  0  0  0  0  0  0  0
  -26.0268  -28.8438   21.1546 C   0  0  0  0  0  0  0  0  0  0  0  0
  -31.1063  -21.4757   22.0464 C   0  0  0  0  0  0  0  0  0  0  0  0
  -23.3081   -8.3390   21.4582 C   0  0  0  0  0  0  0  0  0  0  0  0
  -27.2631  -27.1642   19.9055 C   0  0  0  0  0  0  0  0  0  0  0  0
  -22.5461   -6.3644   22.4793 C   0  0  0  0  0  0  0  0  0  0  0  0
  -20.8654   -5.1192   24.3252 C   0  0  0  0  0  0  0  0  0  0  0  0
  -23.0894   -5.6100   23.5192 C   0  0  0  0  0  0  0  0  0  0  0  0
  -23.0872  -12.5514   21.1353 C   0  0  0  0  0  0  0  0  0  0  0  0
  -22.3852  -14.6291   20.9762 C   0  0  0  0  0  0  0  0  0  0  0  0
  -28.4499  -25.1999   20.3570 C   0  0  0  0  0  0  0  0  0  1  0  0
  -29.4307  -18.4379   23.5186 C   0  0  0  0  0  0  0  0  0  0  0  0
  -20.5452  -12.9418   21.1027 C   0  0  0  0  0  0  0  0  0  0  0  0
  -29.5050  -24.3822   20.2590 C   0  0  0  0  0  0  0  0  0  0  0  0
  -29.4760  -23.0676   20.9795 C   0  0  0  0  0  0  0  0  0  0  0  0
  -24.6123  -31.8683   20.4616 C   0  0  0  0  0  0  0  0  0  0  0  0
  -24.3823  -31.2446   23.6366 C   0  0  0  0  0  0  0  0  0  0  0  0
  -25.0926  -29.1517   26.2370 C   0  0  0  0  0  0  0  0  0  0  0  0
  -27.6122  -16.9241   22.7582 C   0  0  0  0  0  0  0  0  0  0  0  0
  -22.3852  -36.1668   18.8429 C   0  0  0  0  0  0  0  0  0  0  0  0
  -23.7006  -29.5179   20.4481 C   0  0  0  0  0  0  0  0  0  0  0  0
  -25.9757  -29.8018   22.3157 C   0  0  0  0  0  0  0  0  0  0  0  0
  -23.0924  -35.7172   20.1189 C   0  0  0  0  0  0  0  0  0  0  0  0
  -26.0731  -17.1909   19.3941 C   0  0  0  0  0  0  0  0  0  0  0  0
  -24.4199  -35.0442   19.7847 C   0  0  0  0  0  0  0  0  0  0  0  0
  -25.0783  -16.0364   19.4431 C   0  0  0  0  0  0  0  0  0  0  0  0
  -27.3263  -16.9092   20.2218 C   0  0  0  0  0  0  0  0  0  0  0  0
  -26.0263  -15.3784   21.6856 C   0  0  0  0  0  0  0  0  0  0  0  0
  -24.2025  -33.7879   18.9327 C   0  0  1  0  0  0  0  0  0  0  0  0
  -23.9234  -30.7937   21.2543 C   0  0  1  0  0  0  0  0  0  0  0  0
  -24.7429  -15.6797   20.8983 C   0  0  2  0  0  0  0  0  0  0  0  0
  -24.8081  -28.9285   28.7203 C   0  0  0  0  0  0  0  0  0  0  0  0
  -26.6006  -33.2938   24.0725 C   0  0  0  0  0  0  0  0  0  0  0  0
  -26.9232  -32.3525   26.3699 C   0  0  0  0  0  0  0  0  0  0  0  0
  -24.7443  -33.3941   25.7454 C   0  0  0  0  0  0  0  0  0  0  0  0
  -23.5195  -26.6614   25.9497 C   0  0  0  0  0  0  0  0  0  0  0  0
  -25.3630  -31.1410   24.7796 C   0  0  1  0  0  0  0  0  0  0  0  0
  -24.2240  -28.6028   27.3545 C   0  0  2  0  0  0  0  0  0  0  0  0
  -25.9098  -32.5286   25.2189 C   0  0  0  0  0  0  0  0  0  0  0  0
  -24.2058  -13.2793   21.0809 N   0  0  0  0  0  0  0  0  0  0  0  0
  -23.7460  -14.5384   20.9843 N   0  0  0  0  0  0  0  0  0  0  0  0
  -24.7271  -30.5689   22.4575 N   0  0  0  0  0  0  0  0  0  0  0  0
  -27.0005  -16.4706   21.5858 N   0  0  0  0  0  0  0  0  0  0  0  0
  -21.7568  -15.8204   20.8848 N   0  0  0  0  0  0  0  0  0  0  0  0
  -20.2462  -11.5765   21.2066 N   0  0  0  0  0  0  0  0  0  0  0  0
  -30.7482  -22.6574   21.3539 N   0  0  0  0  0  0  0  0  0  0  0  0
  -28.6772  -17.8829   22.5567 N   0  0  0  0  0  0  0  0  0  0  0  0
  -23.7509  -32.6889   19.7588 N   0  0  0  0  0  0  0  0  0  0  0  0
  -24.6799  -30.4055   25.8382 N   0  0  0  0  0  0  0  0  0  0  0  0
  -29.2988  -18.1840   24.8204 N   0  3  0  0  0  0  0  0  0  0  0  0
  -24.1022  -27.1223   27.2362 N   0  3  0  0  0  0  0  0  0  0  0  0
  -19.6076  -13.7712   21.0218 O   0  0  0  0  0  0  0  0  0  0  0  0
  -28.4173  -22.4815   21.1786 O   0  0  0  0  0  0  0  0  0  0  0  0
  -25.8349  -31.9480   20.4870 O   0  0  0  0  0  0  0  0  0  0  0  0
  -23.3450  -31.8951   23.7869 O   0  0  0  0  0  0  0  0  0  0  0  0
  -26.0445  -28.5320   25.7676 O   0  0  0  0  0  0  0  0  0  0  0  0
  -27.3372  -16.5553   23.8950 O   0  0  0  0  0  0  0  0  0  0  0  0
  -30.6242  -24.7005   19.5168 O   0  0  0  0  0  0  0  0  0  0  0  0
  -23.3791   -6.9837   21.5627 O   0  0  0  0  0  0  0  0  0  0  0  0
  -28.3866  -26.4154   19.7355 O   0  0  0  0  0  0  0  0  0  1  0  0
  -20.0583   -4.5226   25.2122 F   0  0  0  0  0  0  0  0  0  0  0  0
  -24.4180   -5.4808   23.6374 F   0  0  0  0  0  0  0  0  0  0  0  0
  1  2  1  0  0  0  0
  1  7  2  0  0  0  0
  2  8  2  0  0  0  0
  3  6  1  0  0  0  0
  3 10  2  0  0  0  0
  4 11  2  0  0  0  0
  4 19  1  0  0  0  0
  5 12  1  0  0  0  0
  5 19  2  0  0  0  0
  6 20  2  0  0  0  0
  7 22  1  0  0  0  0
  8 24  1  0  0  0  0
  9 13  2  0  0  0  0
  9 23  1  0  0  0  0
 10 26  1  0  0  0  0
 11 27  1  0  0  0  0
 12 27  2  0  0  0  0
 13 28  1  0  0  0  0
 14 15  2  0  0  0  0
 14 29  1  0  0  0  0
 15 30  1  0  0  0  0
 16 20  1  0  0  0  0
 16 26  2  0  0  0  0
 17 25  1  0  0  0  0
 17 28  2  0  0  0  0
 18 30  2  0  0  0  0
 18 31  1  0  0  0  0
 19 32  1  0  0  0  0
 20 35  1  0  0  0  0
 21 32  1  0  0  0  0
 21 33  2  0  0  0  0
 21 36  1  0  0  0  0
 22 24  2  0  0  0  0
 22 43  1  0  0  0  0
 23 25  2  0  0  0  0
 23 44  1  0  0  0  0
 24 52  1  0  0  0  0
 25 45  1  0  0  0  0
 26 69  1  0  0  0  0
 27 82  1  0  0  0  0
 28 83  1  0  0  0  0
 29 31  2  0  0  0  0
 29 82  1  0  0  0  0
 30 84  1  0  0  0  0
 31 85  1  0  0  0  0
 32 63  2  0  0  0  0
 33 64  1  0  0  0  0
 33 67  1  0  0  0  0
 34 37  2  0  0  0  0
 34 83  1  0  0  0  0
 35 70  1  0  0  0  0
 35 73  2  0  0  0  0
 36 68  1  0  0  0  0
 36 75  2  0  0  0  0
 37 38  1  0  0  0  0
 37 81  1  0  0  0  0
 38 69  1  0  0  0  0
 38 76  2  0  0  0  0
 39 53  1  0  0  0  0
 39 71  1  0  0  0  0
 39 77  2  0  0  0  0
 40 60  1  0  0  0  0
 40 65  1  0  0  0  0
 40 78  2  0  0  0  0
 41 61  1  0  0  0  0
 41 72  1  0  0  0  0
 41 79  2  0  0  0  0
 42 66  1  0  0  0  0
 42 70  1  0  0  0  0
 42 80  2  0  0  0  0
 43 46  1  0  0  0  0
 44 53  1  0  0  0  0
 45 65  1  0  0  0  0
 46 48  1  0  0  0  0
 47 49  1  0  0  0  0
 47 50  1  0  0  0  0
 48 52  1  0  0  0  0
 49 54  1  0  0  0  0
 50 66  1  0  0  0  0
 51 54  1  0  0  0  0
 51 66  1  0  0  0  0
 52 71  1  0  0  0  0
 53 65  1  0  0  0  0
 54 64  1  0  0  0  0
 55 61  1  0  0  0  0
 56 62  1  0  0  0  0
 57 62  1  0  0  0  0
 58 62  1  0  0  0  0
 59 74  1  0  0  0  0
 60 62  1  0  0  0  0
 60 72  1  0  0  0  0
 61 74  1  0  0  0  0
 63 64  1  0  0  0  0
M  CHG  2  73   1  74   1
M  ISO  4  34 101  42 100  70 100  83 101
M  END
> <Batch ID>
0091

> <Smiles>
CNC(C)C(=O)NC(C(=O)N1Cc2cc([101O:1][101CH2:1]C(=O)C(=O)Nc3cccc(C(=N)[100NH:0][100C:0](=O)N4CCCC(n5nc(-c6ccc(Oc7ccc(F)cc7F)cc6)c(C(N)=O)c5N)C4)c3)ccc2CC1C(=O)NC1CCCc2ccccc21)C(C)(C)C

> <Shape>
0.252

> <Color>
0.097

> <Negative vol penalty>
0.000

$$$$

  -OEChem-04052300313D

 84 92  0     1  0  0  0  0  0999 V2000
  -28.4102  -38.0831   16.0935 C   0  0  0  0  0  0  0  0  0  0  0  0
  -28.7332  -36.7301   16.0724 C   0  0  0  0  0  0  0  0  0  0  0  0
  -24.1681   -9.2903   22.5367 C   0  0  0  0  0  0  0  0  0  0  0  0
  -24.2678   -9.0958   20.1306 C   0  0  0  0  0  0  0  0  0  0  0  0
  -29.3231  -20.5759   18.8563 C   0  0  0  0  0  0  0  0  0  0  0  0
  -27.9824  -38.6782   17.2796 C   0  0  0  0  0  0  0  0  0  0  0  0
  -28.6297  -35.9716   17.2379 C   0  0  0  0  0  0  0  0  0  0  0  0
  -26.9826  -30.0887   17.6672 C   0  0  0  0  0  0  0  0  0  0  0  0
  -29.1663  -21.9600   18.7845 C   0  0  0  0  0  0  0  0  0  0  0  0
  -23.0753   -8.4238   22.5615 C   0  0  0  0  0  0  0  0  0  0  0  0
  -23.1751   -8.2292   20.1554 C   0  0  0  0  0  0  0  0  0  0  0  0
  -27.7232  -28.9138   17.7903 C   0  0  0  0  0  0  0  0  0  0  0  0
  -22.5327   -5.0926   22.3585 C   0  0  0  0  0  0  0  0  0  0  0  0
  -22.5313   -4.0782   23.3158 C   0  0  0  0  0  0  0  0  0  0  0  0
  -29.0486  -20.4204   16.4610 C   0  0  0  0  0  0  0  0  0  0  0  0
  -27.4246  -28.9835   20.1831 C   0  0  0  0  0  0  0  0  0  0  0  0
  -20.4852   -4.9614   24.2488 C   0  0  0  0  0  0  0  0  0  0  0  0
  -24.7643   -9.6263   21.3213 C   0  0  0  0  0  0  0  0  0  0  0  0
  -29.2643  -19.8061   17.6946 C   0  0  0  0  0  0  0  0  0  0  0  0
  -27.2548  -10.1758   21.3792 C   0  0  0  0  0  0  0  0  0  0  0  0
  -27.8644  -37.9243   18.4579 C   0  0  0  0  0  0  0  0  0  0  0  0
  -26.4659  -30.7267   18.8040 C   0  0  0  0  0  0  0  0  0  0  0  0
  -28.2012  -36.5574   18.4412 C   0  0  0  0  0  0  0  0  0  0  0  0
  -26.6757  -30.1649   20.0715 C   0  0  0  0  0  0  0  0  0  0  0  0
  -28.9506  -22.5744   17.5509 C   0  0  0  0  0  0  0  0  0  0  0  0
  -28.8917  -21.8046   16.3891 C   0  0  0  0  0  0  0  0  0  0  0  0
  -22.5788   -7.8933   21.3709 C   0  0  0  0  0  0  0  0  0  0  0  0
  -27.9467  -28.3626   19.0486 C   0  0  0  0  0  0  0  0  0  0  0  0
  -21.5103   -6.0415   22.3463 C   0  0  0  0  0  0  0  0  0  0  0  0
  -21.5076   -4.0125   24.2610 C   0  0  0  0  0  0  0  0  0  0  0  0
  -20.4866   -5.9758   23.2914 C   0  0  0  0  0  0  0  0  0  0  0  0
  -25.8928  -10.5218   21.2950 C   0  0  0  0  0  0  0  0  0  0  0  0
  -27.9190  -11.3759   21.3088 C   0  0  0  0  0  0  0  0  0  0  0  0
  -29.4304  -18.3396   17.7716 C   0  0  0  0  0  0  0  0  0  0  0  0
  -27.8650   -8.8849   21.5093 C   0  0  0  0  0  0  0  0  0  0  0  0
  -26.8858  -33.5671   20.1677 C   0  0  0  0  0  0  0  0  0  0  0  0
  -24.4922  -32.5545   22.1088 C   0  0  0  0  0  0  0  0  0  0  0  0
  -28.8281  -24.8728   18.5689 C   0  0  0  0  0  0  0  0  0  0  0  0
  -22.7718  -29.9369   23.4635 C   0  0  0  0  0  0  0  0  0  0  0  0
  -28.5558  -16.2110   18.7102 C   0  0  0  0  0  0  0  0  0  0  0  0
  -27.4430  -38.6221   19.7269 C   0  0  0  0  0  0  0  0  0  0  0  0
  -25.6464  -31.9788   18.6520 C   0  0  0  0  0  0  0  0  0  0  0  0
  -26.1253  -30.7999   21.3214 C   0  0  0  0  0  0  0  0  0  0  0  0
  -27.0016  -37.6645   20.8307 C   0  0  0  0  0  0  0  0  0  0  0  0
  -26.2397  -16.1124   21.6057 C   0  0  0  0  0  0  0  0  0  0  0  0
  -27.9967  -36.5170   20.9715 C   0  0  0  0  0  0  0  0  0  0  0  0
  -26.0018  -14.6115   21.7296 C   0  0  0  0  0  0  0  0  0  0  0  0
  -26.4804  -16.5416   20.1590 C   0  0  0  0  0  0  0  0  0  0  0  0
  -27.3417  -14.2737   19.6199 C   0  0  0  0  0  0  0  0  0  0  0  0
  -28.0780  -35.6956   19.6791 C   0  0  1  0  0  0  0  0  0  0  0  0
  -25.6038  -32.8229   19.9221 C   0  0  1  0  0  0  0  0  0  0  0  0
  -27.1522  -13.8310   21.0779 C   0  0  2  0  0  0  0  0  0  0  0  0
  -20.8922  -29.4223   25.0446 C   0  0  0  0  0  0  0  0  0  0  0  0
  -26.3128  -33.1858   24.4747 C   0  0  0  0  0  0  0  0  0  0  0  0
  -24.8056  -31.7992   25.9149 C   0  0  0  0  0  0  0  0  0  0  0  0
  -23.9214  -33.8446   24.7936 C   0  0  0  0  0  0  0  0  0  0  0  0
  -21.2031  -28.5924   21.3444 C   0  0  0  0  0  0  0  0  0  0  0  0
  -28.6162  -26.2947   18.0835 C   0  0  0  0  0  0  0  0  0  1  0  0
  -24.4208  -31.7895   23.4083 C   0  0  1  0  0  0  0  0  0  0  0  0
  -21.2832  -29.6707   23.5960 C   0  0  2  0  0  0  0  0  0  0  0  0
  -24.8773  -32.6436   24.6247 C   0  0  0  0  0  0  0  0  0  0  0  0
  -25.7016  -11.8387   21.1801 N   0  0  0  0  0  0  0  0  0  0  0  0
  -26.9522  -12.3307   21.1917 N   0  0  0  0  0  0  0  0  0  0  0  0
  -25.3359  -32.0265   21.1213 N   0  0  0  0  0  0  0  0  0  0  0  0
  -27.5131  -15.7260   19.5052 N   0  0  0  0  0  0  0  0  0  0  0  0
  -28.6732  -22.4064   15.1294 N   0  0  0  0  0  0  0  0  0  0  0  0
  -29.2299  -11.6971   21.3365 N   0  0  0  0  0  0  0  0  0  0  0  0
  -27.0356   -7.7565   21.5669 N   0  0  0  0  0  0  0  0  0  0  0  0
  -28.7939  -23.9800   17.5032 N   0  0  0  0  0  0  0  0  0  0  0  0
  -28.5552  -17.6449   18.5150 N   0  0  0  0  0  0  0  0  0  0  0  0
  -26.9374  -34.8116   19.5695 N   0  0  0  0  0  0  0  0  0  0  0  0
  -23.0556  -31.2854   23.5107 N   0  0  0  0  0  0  0  0  0  0  0  0
  -30.4461  -17.7978   17.0999 N   0  3  0  0  0  0  0  0  0  0  0  0
  -20.8972  -28.4757   22.7935 N   0  3  0  0  0  0  0  0  0  0  0  0
  -29.1082   -8.7377   21.5891 O   0  0  0  0  0  0  0  0  0  0  0  0
  -27.7626  -33.0510   20.8507 O   0  0  0  0  0  0  0  0  0  0  0  0
  -23.8186  -33.5789   21.9723 O   0  0  0  0  0  0  0  0  0  0  0  0
  -29.0001  -24.6182   19.7564 O   0  0  0  0  0  0  0  0  0  0  0  0
  -23.6003  -29.0383   23.3349 O   0  0  0  0  0  0  0  0  0  0  0  0
  -29.4159  -15.5267   18.1662 O   0  0  0  0  0  0  0  0  0  0  0  0
  -21.5127   -7.0475   21.3947 O   0  0  0  0  0  0  0  0  0  0  0  0
  -28.6698  -27.2164   19.1716 O   0  0  0  0  0  0  0  0  0  1  0  0
  -21.5056   -3.0374   25.1793 F   0  0  0  0  0  0  0  0  0  0  0  0
  -19.5011   -6.8839   23.2840 F   0  0  0  0  0  0  0  0  0  0  0  0
  1  2  1  0  0  0  0
  1  6  2  0  0  0  0
  2  7  2  0  0  0  0
  3 10  2  0  0  0  0
  3 18  1  0  0  0  0
  4 11  1  0  0  0  0
  4 18  2  0  0  0  0
  5  9  2  0  0  0  0
  5 19  1  0  0  0  0
  6 21  1  0  0  0  0
  7 23  1  0  0  0  0
  8 12  2  0  0  0  0
  8 22  1  0  0  0  0
  9 25  1  0  0  0  0
 10 27  1  0  0  0  0
 11 27  2  0  0  0  0
 12 28  1  0  0  0  0
 13 14  2  0  0  0  0
 13 29  1  0  0  0  0
 14 30  1  0  0  0  0
 15 19  2  0  0  0  0
 15 26  1  0  0  0  0
 16 24  1  0  0  0  0
 16 28  2  0  0  0  0
 17 30  2  0  0  0  0
 17 31  1  0  0  0  0
 18 32  1  0  0  0  0
 19 34  1  0  0  0  0
 20 32  1  0  0  0  0
 20 33  2  0  0  0  0
 20 35  1  0  0  0  0
 21 23  2  0  0  0  0
 21 41  1  0  0  0  0
 22 24  2  0  0  0  0
 22 42  1  0  0  0  0
 23 50  1  0  0  0  0
 24 43  1  0  0  0  0
 25 26  2  0  0  0  0
 25 69  1  0  0  0  0
 26 66  1  0  0  0  0
 27 81  1  0  0  0  0
 28 82  1  0  0  0  0
 29 31  2  0  0  0  0
 29 81  1  0  0  0  0
 30 83  1  0  0  0  0
 31 84  1  0  0  0  0
 32 62  2  0  0  0  0
 33 63  1  0  0  0  0
 33 67  1  0  0  0  0
 34 70  1  0  0  0  0
 34 73  2  0  0  0  0
 35 68  1  0  0  0  0
 35 75  2  0  0  0  0
 36 51  1  0  0  0  0
 36 71  1  0  0  0  0
 36 76  2  0  0  0  0
 37 59  1  0  0  0  0
 37 64  1  0  0  0  0
 37 77  2  0  0  0  0
 38 58  1  0  0  0  0
 38 69  1  0  0  0  0
 38 78  2  0  0  0  0
 39 60  1  0  0  0  0
 39 72  1  0  0  0  0
 39 79  2  0  0  0  0
 40 65  1  0  0  0  0
 40 70  1  0  0  0  0
 40 80  2  0  0  0  0
 41 44  1  0  0  0  0
 42 51  1  0  0  0  0
 43 64  1  0  0  0  0
 44 46  1  0  0  0  0
 45 47  1  0  0  0  0
 45 48  1  0  0  0  0
 46 50  1  0  0  0  0
 47 52  1  0  0  0  0
 48 65  1  0  0  0  0
 49 52  1  0  0  0  0
 49 65  1  0  0  0  0
 50 71  1  0  0  0  0
 51 64  1  0  0  0  0
 52 63  1  0  0  0  0
 53 60  1  0  0  0  0
 54 61  1  0  0  0  0
 55 61  1  0  0  0  0
 56 61  1  0  0  0  0
 57 74  1  0  0  0  0
 58 82  1  0  0  0  0
 59 61  1  0  0  0  0
 59 72  1  0  0  0  0
 60 74  1  0  0  0  0
 62 63  1  0  0  0  0
M  CHG  2  73   1  74   1
M  ISO  4  40 100  58 101  70 100  82 101
M  END
> <Batch ID>
0091

> <Smiles>
CNC(C)C(=O)NC(C(=O)N1Cc2cc([101O:1][101CH2:1]C(=O)Nc3ccc(C(=N)[100NH:0][100C:0](=O)N4CCCC(n5nc(-c6ccc(Oc7ccc(F)cc7F)cc6)c(C(N)=O)c5N)C4)cc3N)ccc2CC1C(=O)NC1CCCc2ccccc21)C(C)(C)C

> <Shape>
0.239

> <Color>
0.088

> <Negative vol penalty>
0.000

$$$$

  -OEChem-04052300313D

 84 92  0     1  0  0  0  0  0999 V2000
  -21.3497  -30.6280   14.4857 C   0  0  0  0  0  0  0  0  0  0  0  0
  -22.5447  -30.1342   14.9989 C   0  0  0  0  0  0  0  0  0  0  0  0
  -23.9920   -9.6294   21.9497 C   0  0  0  0  0  0  0  0  0  0  0  0
  -24.6596  -11.0672   23.7730 C   0  0  0  0  0  0  0  0  0  0  0  0
  -31.0288  -19.9815   19.6314 C   0  0  0  0  0  0  0  0  0  0  0  0
  -20.8126  -31.8120   14.9893 C   0  0  0  0  0  0  0  0  0  0  0  0
  -23.2040  -30.8247   16.0153 C   0  0  0  0  0  0  0  0  0  0  0  0
  -24.8360  -27.7617   19.7030 C   0  0  0  0  0  0  0  0  0  0  0  0
  -30.7083  -18.6410   19.4168 C   0  0  0  0  0  0  0  0  0  0  0  0
  -23.5884   -8.6568   22.8644 C   0  0  0  0  0  0  0  0  0  0  0  0
  -24.2560  -10.0946   24.6877 C   0  0  0  0  0  0  0  0  0  0  0  0
  -25.9973  -27.0307   19.4563 C   0  0  0  0  0  0  0  0  0  0  0  0
  -20.9365   -8.0825   24.8820 C   0  0  0  0  0  0  0  0  0  0  0  0
  -19.7063   -7.4613   24.6671 C   0  0  0  0  0  0  0  0  0  0  0  0
  -28.6902  -20.4873   19.9658 C   0  0  0  0  0  0  0  0  0  0  0  0
  -27.2706  -28.6348   20.7310 C   0  0  0  0  0  0  0  0  0  0  0  0
  -20.8145   -5.3201   24.5125 C   0  0  0  0  0  0  0  0  0  0  0  0
  -24.5277  -10.8346   22.4040 C   0  0  0  0  0  0  0  0  0  0  0  0
  -30.0198  -20.9046   19.9059 C   0  0  0  0  0  0  0  0  0  0  0  0
  -24.1635  -12.8809   20.9249 C   0  0  0  0  0  0  0  0  0  0  0  0
  -21.4606  -32.5123   16.0190 C   0  0  0  0  0  0  0  0  0  0  0  0
  -24.8852  -28.9426   20.4577 C   0  0  0  0  0  0  0  0  0  0  0  0
  -22.6757  -32.0199   16.5322 C   0  0  0  0  0  0  0  0  0  0  0  0
  -26.1081  -29.3775   20.9881 C   0  0  0  0  0  0  0  0  0  0  0  0
  -29.3787  -18.2237   19.4767 C   0  0  0  0  0  0  0  0  0  0  0  0
  -28.3696  -19.1468   19.7512 C   0  0  0  0  0  0  0  0  0  0  0  0
  -23.7203   -8.8894   24.2334 C   0  0  0  0  0  0  0  0  0  0  0  0
  -27.2153  -27.4688   19.9679 C   0  0  0  0  0  0  0  0  0  0  0  0
  -22.1058   -7.3225   24.9121 C   0  0  0  0  0  0  0  0  0  0  0  0
  -19.6453   -6.0801   24.4823 C   0  0  0  0  0  0  0  0  0  0  0  0
  -22.0448   -5.9413   24.7273 C   0  0  0  0  0  0  0  0  0  0  0  0
  -24.9454  -11.8394   21.4596 C   0  0  0  0  0  0  0  0  0  0  0  0
  -25.0161  -13.5532   20.0837 C   0  0  0  0  0  0  0  0  0  0  0  0
  -30.3617  -22.3317   20.1346 C   0  0  0  0  0  0  0  0  0  0  0  0
  -22.7895  -13.2111   21.1670 C   0  0  0  0  0  0  0  0  0  0  0  0
  -24.2265  -31.9992   19.8859 C   0  0  0  0  0  0  0  0  0  0  0  0
  -24.8033  -32.3140   23.0624 C   0  0  0  0  0  0  0  0  0  0  0  0
  -29.4715  -24.6303   19.9968 C   0  0  0  0  0  0  0  0  0  0  0  0
  -26.3306  -31.1028   25.8637 C   0  0  0  0  0  0  0  0  0  0  0  0
  -29.9759  -15.8281   18.9756 C   0  0  0  0  0  0  0  0  0  0  0  0
  -20.8659  -33.8127   16.4985 C   0  0  0  0  0  0  0  0  0  0  0  0
  -23.6193  -29.7053   20.7374 C   0  0  0  0  0  0  0  0  0  0  0  0
  -26.2112  -30.6278   21.8215 C   0  0  0  0  0  0  0  0  0  0  0  0
  -21.4333  -34.2862   17.8342 C   0  0  0  0  0  0  0  0  0  0  0  0
  -29.6329  -12.3301   18.4070 C   0  0  0  0  0  0  0  0  0  0  0  0
  -22.9551  -34.1809   17.8351 C   0  0  0  0  0  0  0  0  0  0  0  0
  -28.3185  -11.9763   19.1065 C   0  0  0  0  0  0  0  0  0  0  0  0
  -30.4174  -13.3910   19.1769 C   0  0  0  0  0  0  0  0  0  0  0  0
  -28.3488  -14.2554   20.1981 C   0  0  0  0  0  0  0  0  0  0  0  0
  -23.4076  -32.7272   17.6520 C   0  0  1  0  0  0  0  0  0  0  0  0
  -23.8685  -31.1694   21.0862 C   0  0  1  0  0  0  0  0  0  0  0  0
  -27.4929  -13.2379   19.4262 C   0  0  2  0  0  0  0  0  0  0  0  0
  -26.6495  -31.5968   28.3033 C   0  0  0  0  0  0  0  0  0  0  0  0
  -26.8052  -34.5051   22.3545 C   0  0  0  0  0  0  0  0  0  0  0  0
  -27.7530  -34.2880   24.6616 C   0  0  0  0  0  0  0  0  0  0  0  0
  -25.3819  -34.9979   24.3509 C   0  0  0  0  0  0  0  0  0  0  0  0
  -25.0381  -28.5640   26.6657 C   0  0  0  0  0  0  0  0  0  0  0  0
  -28.2103  -25.3471   19.5624 C   0  0  0  0  0  0  0  0  0  1  0  0
  -26.0245  -32.5937   23.9047 C   0  0  1  0  0  0  0  0  0  0  0  0
  -25.8112  -30.8611   27.2695 C   0  0  2  0  0  0  0  0  0  0  0  0
  -26.4898  -34.0736   23.8007 C   0  0  0  0  0  0  0  0  0  0  0  0
  -26.1983  -11.8454   20.9967 N   0  0  0  0  0  0  0  0  0  0  0  0
  -26.2102  -12.8988   20.1623 N   0  0  0  0  0  0  0  0  0  0  0  0
  -24.9466  -31.3423   22.0619 N   0  0  0  0  0  0  0  0  0  0  0  0
  -29.5730  -14.5583   19.4402 N   0  0  0  0  0  0  0  0  0  0  0  0
  -27.0162  -18.7464   19.8177 N   0  0  0  0  0  0  0  0  0  0  0  0
  -24.8533  -14.6343   19.2917 N   0  0  0  0  0  0  0  0  0  0  0  0
  -22.0587  -12.4161   22.0605 N   0  0  0  0  0  0  0  0  0  0  0  0
  -29.0773  -16.8568   19.2567 N   0  0  0  0  0  0  0  0  0  0  0  0
  -29.3598  -23.2497   19.8247 N   0  0  0  0  0  0  0  0  0  0  0  0
  -23.2667  -31.9940   18.8918 N   0  0  0  0  0  0  0  0  0  0  0  0
  -25.6929  -32.1655   25.2593 N   0  0  0  0  0  0  0  0  0  0  0  0
  -25.8410  -29.4059   27.5897 N   0  3  0  0  0  0  0  0  0  0  0  0
  -31.4639  -22.6159   20.5956 O   0  0  0  0  0  0  0  0  0  0  0  0
  -22.2218  -14.1724   20.5951 O   0  0  0  0  0  0  0  0  0  0  0  0
  -25.2939  -32.6008   19.8639 O   0  0  0  0  0  0  0  0  0  0  0  0
  -23.7586  -32.9296   23.2888 O   0  0  0  0  0  0  0  0  0  0  0  0
  -30.4530  -25.2212   20.4387 O   0  0  0  0  0  0  0  0  0  0  0  0
  -27.2162  -30.4197   25.3542 O   0  0  0  0  0  0  0  0  0  0  0  0
  -31.0267  -15.9865   18.3490 O   0  0  0  0  0  0  0  0  0  0  0  0
  -23.3263   -7.9407   25.1263 O   0  0  0  0  0  0  0  0  0  0  0  0
  -28.3504  -26.7575   19.7280 O   0  0  0  0  0  0  0  0  0  1  0  0
  -18.4636   -5.4835   24.2775 F   0  0  0  0  0  0  0  0  0  0  0  0
  -23.1646   -5.2058   24.7564 F   0  0  0  0  0  0  0  0  0  0  0  0
  1  2  1  0  0  0  0
  1  6  2  0  0  0  0
  2  7  2  0  0  0  0
  3 10  2  0  0  0  0
  3 18  1  0  0  0  0
  4 11  1  0  0  0  0
  4 18  2  0  0  0  0
  5  9  2  0  0  0  0
  5 19  1  0  0  0  0
  6 21  1  0  0  0  0
  7 23  1  0  0  0  0
  8 12  2  0  0  0  0
  8 22  1  0  0  0  0
  9 25  1  0  0  0  0
 10 27  1  0  0  0  0
 11 27  2  0  0  0  0
 12 28  1  0  0  0  0
 13 14  2  0  0  0  0
 13 29  1  0  0  0  0
 14 30  1  0  0  0  0
 15 19  2  0  0  0  0
 15 26  1  0  0  0  0
 16 24  1  0  0  0  0
 16 28  2  0  0  0  0
 17 30  2  0  0  0  0
 17 31  1  0  0  0  0
 18 32  1  0  0  0  0
 19 34  1  0  0  0  0
 20 32  1  0  0  0  0
 20 33  2  0  0  0  0
 20 35  1  0  0  0  0
 21 23  2  0  0  0  0
 21 41  1  0  0  0  0
 22 24  2  0  0  0  0
 22 42  1  0  0  0  0
 23 50  1  0  0  0  0
 24 43  1  0  0  0  0
 25 26  2  0  0  0  0
 25 69  1  0  0  0  0
 26 66  1  0  0  0  0
 27 81  1  0  0  0  0
 28 82  1  0  0  0  0
 29 31  2  0  0  0  0
 29 81  1  0  0  0  0
 30 83  1  0  0  0  0
 31 84  1  0  0  0  0
 32 62  2  0  0  0  0
 33 63  1  0  0  0  0
 33 67  1  0  0  0  0
 34 70  1  0  0  0  0
 34 74  2  0  0  0  0
 35 68  1  0  0  0  0
 35 75  2  0  0  0  0
 36 51  1  0  0  0  0
 36 71  1  0  0  0  0
 36 76  2  0  0  0  0
 37 59  1  0  0  0  0
 37 64  1  0  0  0  0
 37 77  2  0  0  0  0
 38 58  1  0  0  0  0
 38 70  1  0  0  0  0
 38 78  2  0  0  0  0
 39 60  1  0  0  0  0
 39 72  1  0  0  0  0
 39 79  2  0  0  0  0
 40 65  1  0  0  0  0
 40 69  1  0  0  0  0
 40 80  2  0  0  0  0
 41 44  1  0  0  0  0
 42 51  1  0  0  0  0
 43 64  1  0  0  0  0
 44 46  1  0  0  0  0
 45 47  1  0  0  0  0
 45 48  1  0  0  0  0
 46 50  1  0  0  0  0
 47 52  1  0  0  0  0
 48 65  1  0  0  0  0
 49 52  1  0  0  0  0
 49 65  1  0  0  0  0
 50 71  1  0  0  0  0
 51 64  1  0  0  0  0
 52 63  1  0  0  0  0
 53 60  1  0  0  0  0
 54 61  1  0  0  0  0
 55 61  1  0  0  0  0
 56 61  1  0  0  0  0
 57 73  1  0  0  0  0
 58 82  1  0  0  0  0
 59 61  1  0  0  0  0
 59 72  1  0  0  0  0
 60 73  1  0  0  0  0
 62 63  1  0  0  0  0
M  CHG  1  73   1
M  ISO  4  40 100  58 101  69 100  82 101
M  END
> <Batch ID>
0091

> <Smiles>
CNC(C)C(=O)NC(C(=O)N1Cc2cc([101O:1][101CH2:1]C(=O)NC(=O)c3ccc([100NH:0][100C:0](=O)N4CCCC(n5nc(-c6ccc(Oc7ccc(F)cc7F)cc6)c(C(N)=O)c5N)C4)c(N)c3)ccc2CC1C(=O)NC1CCCc2ccccc21)C(C)(C)C

> <Shape>
0.334

> <Color>
0.158

> <Negative vol penalty>
0.000

$$$$

  -OEChem-04052300313D

 80 88  0     1  0  0  0  0  0999 V2000
  -35.2060  -20.4444    8.6589 C   0  0  0  0  0  0  0  0  0  0  0  0
  -34.1924  -20.0155    9.5099 C   0  0  0  0  0  0  0  0  0  0  0  0
  -23.0512   -9.8367   19.9273 C   0  0  0  0  0  0  0  0  0  0  0  0
  -23.8706   -9.7954   22.1997 C   0  0  0  0  0  0  0  0  0  0  0  0
  -36.2786  -21.1758    9.1673 C   0  0  0  0  0  0  0  0  0  0  0  0
  -34.2515  -20.3170   10.8701 C   0  0  0  0  0  0  0  0  0  0  0  0
  -29.5327  -21.5323   14.5798 C   0  0  0  0  0  0  0  0  0  0  0  0
  -27.9315  -18.9913   20.3584 C   0  0  0  0  0  0  0  0  0  0  0  0
  -27.5949  -18.3851   21.5686 C   0  0  0  0  0  0  0  0  0  0  0  0
  -22.3246   -8.6708   20.1681 C   0  0  0  0  0  0  0  0  0  0  0  0
  -23.1439   -8.6294   22.4405 C   0  0  0  0  0  0  0  0  0  0  0  0
  -28.8275  -20.7452   15.4891 C   0  0  0  0  0  0  0  0  0  0  0  0
  -19.9399   -7.7861   23.1066 C   0  0  0  0  0  0  0  0  0  0  0  0
  -19.2142   -7.7104   24.2954 C   0  0  0  0  0  0  0  0  0  0  0  0
  -29.6885  -17.3653   20.0326 C   0  0  0  0  0  0  0  0  0  0  0  0
  -30.2138  -21.5804   17.2779 C   0  0  0  0  0  0  0  0  0  0  0  0
  -20.4918   -5.7677   24.9517 C   0  0  0  0  0  0  0  0  0  0  0  0
  -23.8243  -10.3990   20.9431 C   0  0  0  0  0  0  0  0  0  0  0  0
  -29.3519  -16.7591   21.2429 C   0  0  0  0  0  0  0  0  0  0  0  0
  -24.1402  -12.9295   20.8763 C   0  0  0  0  0  0  0  0  0  0  0  0
  -36.3459  -21.4947   10.5327 C   0  0  0  0  0  0  0  0  0  0  0  0
  -30.5926  -22.3425   15.0118 C   0  0  0  0  0  0  0  0  0  0  0  0
  -35.3267  -21.0522   11.3974 C   0  0  0  0  0  0  0  0  0  0  0  0
  -30.9292  -22.3788   16.3725 C   0  0  0  0  0  0  0  0  0  0  0  0
  -28.9783  -18.4814   19.5903 C   0  0  0  0  0  0  0  0  0  0  0  0
  -28.3051  -17.2690   22.0109 C   0  0  0  0  0  0  0  0  0  0  0  0
  -22.3709   -8.0671   21.4247 C   0  0  0  0  0  0  0  0  0  0  0  0
  -29.1699  -20.7669   16.8380 C   0  0  0  0  0  0  0  0  0  0  0  0
  -20.9416   -6.8525   22.8403 C   0  0  0  0  0  0  0  0  0  0  0  0
  -19.4901   -6.7013   25.2179 C   0  0  0  0  0  0  0  0  0  0  0  0
  -21.2175   -5.8434   23.7629 C   0  0  0  0  0  0  0  0  0  0  0  0
  -24.5757  -11.6032   20.6949 C   0  0  0  0  0  0  0  0  0  0  0  0
  -25.2157  -13.6981   20.5034 C   0  0  0  0  0  0  0  0  0  0  0  0
  -30.1129  -15.5943   21.6772 C   0  0  0  0  0  0  0  0  0  0  0  0
  -22.8765  -13.4228   21.3404 C   0  0  0  0  0  0  0  0  0  0  0  0
  -30.7219  -14.6651   20.6979 C   0  0  0  0  0  0  0  0  0  0  0  0
  -33.7089  -22.4744   14.3996 C   0  0  0  0  0  0  0  0  0  0  0  0
  -33.5576  -25.1532   16.2227 C   0  0  0  0  0  0  0  0  0  0  0  0
  -31.9358  -26.9152   18.6541 C   0  0  0  0  0  0  0  0  0  0  0  0
  -37.5490  -22.2470   11.0440 C   0  0  0  0  0  0  0  0  0  0  0  0
  -31.3260  -23.2060   14.0223 C   0  0  0  0  0  0  0  0  0  0  0  0
  -32.0457  -23.2469   16.8903 C   0  0  0  0  0  0  0  0  0  0  0  0
  -37.3473  -22.8463   12.4334 C   0  0  0  0  0  0  0  0  0  0  0  0
  -29.5068  -12.4552   18.1491 C   0  0  0  0  0  0  0  0  0  0  0  0
  -36.7252  -21.8182   13.3731 C   0  0  0  0  0  0  0  0  0  0  0  0
  -28.0934  -12.1153   18.6209 C   0  0  0  0  0  0  0  0  0  0  0  0
  -30.4599  -12.6358   19.3261 C   0  0  0  0  0  0  0  0  0  0  0  0
  -28.5845  -13.3150   20.7992 C   0  0  0  0  0  0  0  0  0  0  0  0
  -35.3426  -21.3807   12.8746 C   0  0  1  0  0  0  0  0  0  0  0  0
  -32.7213  -23.6028   14.4946 C   0  0  1  0  0  0  0  0  0  0  0  0
  -27.5869  -13.1523   19.6391 C   0  0  2  0  0  0  0  0  0  0  0  0
  -32.0710  -29.0544   19.9590 C   0  0  0  0  0  0  0  0  0  0  0  0
  -35.7978  -23.9711   17.9239 C   0  0  0  0  0  0  0  0  0  0  0  0
  -35.2389  -25.6458   19.6990 C   0  0  0  0  0  0  0  0  0  0  0  0
  -36.0208  -26.4184   17.4597 C   0  0  0  0  0  0  0  0  0  0  0  0
  -29.3277  -27.8503   17.6137 C   0  0  0  0  0  0  0  0  0  0  0  0
  -33.6960  -25.4532   17.6957 C   0  0  1  0  0  0  0  0  0  0  0  0
  -31.5031  -28.3685   18.7262 C   0  0  2  0  0  0  0  0  0  0  0  0
  -35.1685  -25.3542   18.1849 C   0  0  0  0  0  0  0  0  0  0  0  0
  -25.8300  -11.5297   20.2418 N   0  0  0  0  0  0  0  0  0  0  0  0
  -30.3079  -15.2966   22.9316 N   0  0  0  0  0  0  0  0  0  0  0  0
  -26.1919  -12.8196   20.1353 N   0  0  0  0  0  0  0  0  0  0  0  0
  -29.9323  -13.5989   20.2905 N   0  0  0  0  0  0  0  0  0  0  0  0
  -32.7370  -24.0683   15.8828 N   0  0  0  0  0  0  0  0  0  0  0  0
  -27.9473  -16.6693   23.2389 N   0  0  0  0  0  0  0  0  0  0  0  0
  -25.4121  -15.0329   20.4576 N   0  0  0  0  0  0  0  0  0  0  0  0
  -21.8819  -12.4960   21.6814 N   0  0  0  0  0  0  0  0  0  0  0  0
  -29.3162  -19.0906   18.3748 N   0  0  0  0  0  0  0  0  0  1  0  0
  -34.3523  -22.3910   13.1796 N   0  0  0  0  0  0  0  0  0  0  0  0
  -33.0833  -26.7605   17.9054 N   0  0  0  0  0  0  0  0  0  0  0  0
  -30.0168  -28.4645   18.7776 N   0  3  0  0  0  0  0  0  0  0  0  0
  -22.6307  -14.6493   21.4340 O   0  0  0  0  0  0  0  0  0  0  0  0
  -31.8635  -14.9385   20.3509 O   0  0  0  0  0  0  0  0  0  0  0  0
  -33.8760  -21.7351   15.3625 O   0  0  0  0  0  0  0  0  0  0  0  0
  -34.1499  -25.8600   15.4033 O   0  0  0  0  0  0  0  0  0  0  0  0
  -31.3197  -26.0084   19.2097 O   0  0  0  0  0  0  0  0  0  0  0  0
  -21.6617   -6.9294   21.6600 O   0  0  0  0  0  0  0  0  0  0  0  0
  -28.4837  -19.9991   17.7276 O   0  0  0  0  0  0  0  0  0  1  0  0
  -18.7941   -6.6297   26.3602 F   0  0  0  0  0  0  0  0  0  0  0  0
  -22.1794   -4.9443   23.5132 F   0  0  0  0  0  0  0  0  0  0  0  0
  1  2  1  0  0  0  0
  1  5  2  0  0  0  0
  2  6  2  0  0  0  0
  3 10  2  0  0  0  0
  3 18  1  0  0  0  0
  4 11  1  0  0  0  0
  4 18  2  0  0  0  0
  5 21  1  0  0  0  0
  6 23  1  0  0  0  0
  7 12  2  0  0  0  0
  7 22  1  0  0  0  0
  8  9  2  0  0  0  0
  8 25  1  0  0  0  0
  9 26  1  0  0  0  0
 10 27  1  0  0  0  0
 11 27  2  0  0  0  0
 12 28  1  0  0  0  0
 13 14  2  0  0  0  0
 13 29  1  0  0  0  0
 14 30  1  0  0  0  0
 15 19  1  0  0  0  0
 15 25  2  0  0  0  0
 16 24  1  0  0  0  0
 16 28  2  0  0  0  0
 17 30  2  0  0  0  0
 17 31  1  0  0  0  0
 18 32  1  0  0  0  0
 19 26  2  0  0  0  0
 19 34  1  0  0  0  0
 20 32  1  0  0  0  0
 20 33  2  0  0  0  0
 20 35  1  0  0  0  0
 21 23  2  0  0  0  0
 21 40  1  0  0  0  0
 22 24  2  0  0  0  0
 22 41  1  0  0  0  0
 23 49  1  0  0  0  0
 24 42  1  0  0  0  0
 25 68  1  0  0  0  0
 26 65  1  0  0  0  0
 27 77  1  0  0  0  0
 28 78  1  0  0  0  0
 29 31  2  0  0  0  0
 29 77  1  0  0  0  0
 30 79  1  0  0  0  0
 31 80  1  0  0  0  0
 32 60  2  0  0  0  0
 33 62  1  0  0  0  0
 33 66  1  0  0  0  0
 34 36  1  0  0  0  0
 34 61  2  0  0  0  0
 35 67  1  0  0  0  0
 35 72  2  0  0  0  0
 36 63  1  0  0  0  0
 36 73  2  0  0  0  0
 37 50  1  0  0  0  0
 37 69  1  0  0  0  0
 37 74  2  0  0  0  0
 38 57  1  0  0  0  0
 38 64  1  0  0  0  0
 38 75  2  0  0  0  0
 39 58  1  0  0  0  0
 39 70  1  0  0  0  0
 39 76  2  0  0  0  0
 40 43  1  0  0  0  0
 41 50  1  0  0  0  0
 42 64  1  0  0  0  0
 43 45  1  0  0  0  0
 44 46  1  0  0  0  0
 44 47  1  0  0  0  0
 45 49  1  0  0  0  0
 46 51  1  0  0  0  0
 47 63  1  0  0  0  0
 48 51  1  0  0  0  0
 48 63  1  0  0  0  0
 49 69  1  0  0  0  0
 50 64  1  0  0  0  0
 51 62  1  0  0  0  0
 52 58  1  0  0  0  0
 53 59  1  0  0  0  0
 54 59  1  0  0  0  0
 55 59  1  0  0  0  0
 56 71  1  0  0  0  0
 57 59  1  0  0  0  0
 57 70  1  0  0  0  0
 58 71  1  0  0  0  0
 60 62  1  0  0  0  0
 68 78  1  0  0  0  0
M  CHG  1  71   1
M  ISO  4  34 100  36 100  68 101  78 101
M  END
> <Batch ID>
0091

> <Smiles>
CNC(C)C(=O)NC(C(=O)N1Cc2cc([101O:1][101NH:1]c3ccc(N)c([100C:0](=N)[100C:0](=O)N4CCCC(n5nc(-c6ccc(Oc7ccc(F)cc7F)cc6)c(C(N)=O)c5N)C4)c3)ccc2CC1C(=O)NC1CCCc2ccccc21)C(C)(C)C

> <Shape>
0.223

> <Color>
0.195

> <Negative vol penalty>
0.000

$$$$

  -OEChem-04052300313D

 80 89  0     1  0  0  0  0  0999 V2000
  -33.2928  -33.0760   16.7934 C   0  0  0  0  0  0  0  0  0  0  0  0
  -32.8745  -31.7506   16.8538 C   0  0  0  0  0  0  0  0  0  0  0  0
  -22.7191  -10.4879   20.9599 C   0  0  0  0  0  0  0  0  0  0  0  0
  -24.5469   -9.1913   21.8629 C   0  0  0  0  0  0  0  0  0  0  0  0
  -33.0854  -33.9216   17.8823 C   0  0  0  0  0  0  0  0  0  0  0  0
  -32.2495  -31.2697   18.0038 C   0  0  0  0  0  0  0  0  0  0  0  0
  -27.7754  -27.0977   18.2915 C   0  0  0  0  0  0  0  0  0  0  0  0
  -27.9339  -19.8029   19.1271 C   0  0  0  0  0  0  0  0  0  0  0  0
  -27.8463  -21.1782   19.3619 C   0  0  0  0  0  0  0  0  0  0  0  0
  -21.9327   -9.3374   20.8999 C   0  0  0  0  0  0  0  0  0  0  0  0
  -23.7604   -8.0409   21.8030 C   0  0  0  0  0  0  0  0  0  0  0  0
  -27.7847  -25.7291   18.5572 C   0  0  0  0  0  0  0  0  0  0  0  0
  -22.1135   -4.8273   22.2255 C   0  0  0  0  0  0  0  0  0  0  0  0
  -22.1195   -3.9783   23.3322 C   0  0  0  0  0  0  0  0  0  0  0  0
  -25.5310  -21.2027   18.6286 C   0  0  0  0  0  0  0  0  0  0  0  0
  -27.2644  -26.1806   20.8690 C   0  0  0  0  0  0  0  0  0  0  0  0
  -21.2827   -5.7744   24.7145 C   0  0  0  0  0  0  0  0  0  0  0  0
  -24.0263  -10.4148   21.4413 C   0  0  0  0  0  0  0  0  0  0  0  0
  -24.9474  -12.5041   22.5790 C   0  0  0  0  0  0  0  0  0  0  0  0
  -32.4489  -33.4534   19.0426 C   0  0  0  0  0  0  0  0  0  0  0  0
  -27.5208  -28.0201   19.3165 C   0  0  0  0  0  0  0  0  0  0  0  0
  -32.0346  -32.1094   19.1099 C   0  0  0  0  0  0  0  0  0  0  0  0
  -25.6239  -19.8378   18.4058 C   0  0  0  0  0  0  0  0  0  0  0  0
  -27.2499  -27.5603   20.6132 C   0  0  0  0  0  0  0  0  0  0  0  0
  -26.8110  -19.1441   18.6480 C   0  0  0  0  0  0  0  0  0  0  0  0
  -26.6536  -21.8735   19.1148 C   0  0  0  0  0  0  0  0  0  0  0  0
  -22.4533   -8.1140   21.3215 C   0  0  0  0  0  0  0  0  0  0  0  0
  -27.5320  -25.2705   19.8467 C   0  0  0  0  0  0  0  0  0  0  0  0
  -21.6922   -6.1499   22.3632 C   0  0  0  0  0  0  0  0  0  0  0  0
  -21.7041   -4.4519   24.5767 C   0  0  0  0  0  0  0  0  0  0  0  0
  -21.2767   -6.6234   23.6077 C   0  0  0  0  0  0  0  0  0  0  0  0
  -24.8394  -11.6027   21.5030 C   0  0  0  0  0  0  0  0  0  0  0  0
  -25.8380  -13.4543   22.1428 C   0  0  0  0  0  0  0  0  0  0  0  0
  -24.3005  -12.4841   23.8584 C   0  0  0  0  0  0  0  0  0  0  0  0
  -29.1638  -30.3820   20.6678 C   0  0  0  0  0  0  0  0  0  0  0  0
  -26.3669  -30.9161   22.2217 C   0  0  0  0  0  0  0  0  0  0  0  0
  -23.3908  -29.6750   23.3396 C   0  0  0  0  0  0  0  0  0  0  0  0
  -27.6972  -16.8733   18.1619 C   0  0  0  0  0  0  0  0  0  0  0  0
  -32.2892  -34.3922   20.2121 C   0  0  0  0  0  0  0  0  0  0  0  0
  -27.4879  -29.4919   19.0079 C   0  0  0  0  0  0  0  0  0  0  0  0
  -24.5759  -18.9402   17.8314 C   0  0  0  0  0  0  0  0  0  0  0  0
  -26.9509  -28.5084   21.7446 C   0  0  0  0  0  0  0  0  0  0  0  0
  -31.2830  -33.9048   21.2515 C   0  0  0  0  0  0  0  0  0  0  0  0
  -28.8744  -13.5449   18.1207 C   0  0  0  0  0  0  0  0  0  0  0  0
  -31.5201  -32.4330   21.5749 C   0  0  0  0  0  0  0  0  0  0  0  0
  -27.9252  -12.8014   19.0565 C   0  0  0  0  0  0  0  0  0  0  0  0
  -25.2133  -17.5581   18.0228 C   0  0  0  0  0  0  0  0  0  0  0  0
  -28.1224  -14.5893   17.3071 C   0  0  0  0  0  0  0  0  0  0  0  0
  -26.4522  -14.8806   19.1200 C   0  0  0  0  0  0  0  0  0  0  0  0
  -31.3307  -31.5573   20.3304 C   0  0  1  0  0  0  0  0  0  0  0  0
  -27.7247  -30.3654   20.2361 C   0  0  1  0  0  0  0  0  0  0  0  0
  -27.1605  -13.7903   19.9502 C   0  0  1  0  0  0  0  0  0  0  0  0
  -21.3314  -30.3406   24.6098 C   0  0  0  0  0  0  0  0  0  0  0  0
  -27.9367  -30.7781   24.8344 C   0  0  0  0  0  0  0  0  0  0  0  0
  -25.7632  -30.4940   26.0442 C   0  0  0  0  0  0  0  0  0  0  0  0
  -26.2055  -32.5810   24.7515 C   0  0  0  0  0  0  0  0  0  0  0  0
  -21.6371  -29.0991   21.0263 C   0  0  0  0  0  0  0  0  0  0  0  0
  -25.7489  -30.4269   23.5092 C   0  0  1  0  0  0  0  0  0  0  0  0
  -21.9741  -30.2106   23.2376 C   0  0  2  0  0  0  0  0  0  0  0  0
  -26.4211  -31.0520   24.7642 C   0  0  0  0  0  0  0  0  0  0  0  0
  -25.6005  -11.9494   20.4615 N   0  0  0  0  0  0  0  0  0  0  0  0
  -26.1952  -13.0792   20.8811 N   0  0  0  0  0  0  0  0  0  0  0  0
  -26.6453  -17.7730   18.3476 N   0  0  0  0  0  0  0  0  0  0  0  0
  -26.9364  -29.9382   21.3939 N   0  0  0  0  0  0  0  0  0  0  0  0
  -27.3721  -15.5087   18.1638 N   0  0  0  0  0  0  0  0  0  0  0  0
  -26.3427  -14.5658   22.7192 N   0  0  0  0  0  0  0  0  0  0  0  0
  -23.4151  -11.4356   24.1431 N   0  0  0  0  0  0  0  0  0  0  0  0
  -26.5913  -23.2629   19.3560 N   0  0  0  0  0  0  0  0  0  1  0  0
  -29.9226  -31.3631   20.0586 N   0  0  0  0  0  0  0  0  0  0  0  0
  -24.3185  -30.6933   23.4024 N   0  0  0  0  0  0  0  0  0  0  0  0
  -21.1342  -29.2993   22.4098 N   0  3  0  0  0  0  0  0  0  0  0  0
  -24.4892  -13.3787   24.7172 O   0  0  0  0  0  0  0  0  0  0  0  0
  -29.5563  -29.5661   21.4936 O   0  0  0  0  0  0  0  0  0  0  0  0
  -26.3387  -32.1205   21.9567 O   0  0  0  0  0  0  0  0  0  0  0  0
  -23.6486  -28.4736   23.3651 O   0  0  0  0  0  0  0  0  0  0  0  0
  -28.8547  -17.2462   17.9345 O   0  0  0  0  0  0  0  0  0  0  0  0
  -21.6860   -6.9912   21.2634 O   0  0  0  0  0  0  0  0  0  0  0  0
  -27.5413  -23.9200   20.1120 O   0  0  0  0  0  0  0  0  0  1  0  0
  -21.7084   -3.6361   25.6390 F   0  0  0  0  0  0  0  0  0  0  0  0
  -20.8697   -7.8927   23.7460 F   0  0  0  0  0  0  0  0  0  0  0  0
  1  2  1  0  0  0  0
  1  5  2  0  0  0  0
  2  6  2  0  0  0  0
  3 10  2  0  0  0  0
  3 18  1  0  0  0  0
  4 11  1  0  0  0  0
  4 18  2  0  0  0  0
  5 20  1  0  0  0  0
  6 22  1  0  0  0  0
  7 12  2  0  0  0  0
  7 21  1  0  0  0  0
  8  9  2  0  0  0  0
  8 25  1  0  0  0  0
  9 26  1  0  0  0  0
 10 27  1  0  0  0  0
 11 27  2  0  0  0  0
 12 28  1  0  0  0  0
 13 14  2  0  0  0  0
 13 29  1  0  0  0  0
 14 30  1  0  0  0  0
 15 23  1  0  0  0  0
 15 26  2  0  0  0  0
 16 24  1  0  0  0  0
 16 28  2  0  0  0  0
 17 30  2  0  0  0  0
 17 31  1  0  0  0  0
 18 32  1  0  0  0  0
 19 32  1  0  0  0  0
 19 33  2  0  0  0  0
 19 34  1  0  0  0  0
 20 22  2  0  0  0  0
 20 39  1  0  0  0  0
 21 24  2  0  0  0  0
 21 40  1  0  0  0  0
 22 50  1  0  0  0  0
 23 25  2  0  0  0  0
 23 41  1  0  0  0  0
 24 42  1  0  0  0  0
 25 63  1  0  0  0  0
 26 68  1  0  0  0  0
 27 77  1  0  0  0  0
 28 78  1  0  0  0  0
 29 31  2  0  0  0  0
 29 77  1  0  0  0  0
 30 79  1  0  0  0  0
 31 80  1  0  0  0  0
 32 61  2  0  0  0  0
 33 62  1  0  0  0  0
 33 66  1  0  0  0  0
 34 67  1  0  0  0  0
 34 72  2  0  0  0  0
 35 51  1  0  0  0  0
 35 69  1  0  0  0  0
 35 73  2  0  0  0  0
 36 58  1  0  0  0  0
 36 64  1  0  0  0  0
 36 74  2  0  0  0  0
 37 59  1  0  0  0  0
 37 70  1  0  0  0  0
 37 75  2  0  0  0  0
 38 63  1  0  0  0  0
 38 65  1  0  0  0  0
 38 76  2  0  0  0  0
 39 43  1  0  0  0  0
 40 51  1  0  0  0  0
 41 47  1  0  0  0  0
 42 64  1  0  0  0  0
 43 45  1  0  0  0  0
 44 46  1  0  0  0  0
 44 48  1  0  0  0  0
 45 50  1  0  0  0  0
 46 52  1  0  0  0  0
 47 63  1  0  0  0  0
 48 65  1  0  0  0  0
 49 52  1  0  0  0  0
 49 65  1  0  0  0  0
 50 69  1  0  0  0  0
 51 64  1  0  0  0  0
 52 62  1  0  0  0  0
 53 59  1  0  0  0  0
 54 60  1  0  0  0  0
 55 60  1  0  0  0  0
 56 60  1  0  0  0  0
 57 71  1  0  0  0  0
 58 60  1  0  0  0  0
 58 70  1  0  0  0  0
 59 71  1  0  0  0  0
 61 62  1  0  0  0  0
 68 78  1  0  0  0  0
M  CHG  1  71   1
M  ISO  4  38 100  63 100  68 101  78 101
M  END
> <Batch ID>
0091

> <Smiles>
CNC(C)C(=O)NC(C(=O)N1Cc2cc([101O:1][101NH:1]c3ccc4c(c3)CC[100N:0]4[100C:0](=O)N3CCCC(n4nc(-c5ccc(Oc6ccc(F)cc6F)cc5)c(C(N)=O)c4N)C3)ccc2CC1C(=O)NC1CCCc2ccccc21)C(C)(C)C

> <Shape>
0.256

> <Color>
0.147

> <Negative vol penalty>
0.000

$$$$

  -OEChem-04052300313D

 83 91  0     1  0  0  0  0  0999 V2000
  -27.8788  -31.8982   27.9253 C   0  0  0  0  0  0  0  0  0  0  0  0
  -27.9487  -30.7844   27.0947 C   0  0  0  0  0  0  0  0  0  0  0  0
  -22.9465  -10.5503   19.7904 C   0  0  0  0  0  0  0  0  0  0  0  0
  -23.7001   -9.7494   21.9416 C   0  0  0  0  0  0  0  0  0  0  0  0
  -26.7038  -32.6460   27.9893 C   0  0  0  0  0  0  0  0  0  0  0  0
  -26.8431  -30.4170   26.3284 C   0  0  0  0  0  0  0  0  0  0  0  0
  -26.9051  -27.9356   20.7298 C   0  0  0  0  0  0  0  0  0  0  0  0
  -22.0334   -9.4983   19.7186 C   0  0  0  0  0  0  0  0  0  0  0  0
  -22.7870   -8.6974   21.8699 C   0  0  0  0  0  0  0  0  0  0  0  0
  -26.7837  -26.6196   20.2857 C   0  0  0  0  0  0  0  0  0  0  0  0
  -22.5601   -5.6961   20.3299 C   0  0  0  0  0  0  0  0  0  0  0  0
  -23.0101   -4.4225   20.6776 C   0  0  0  0  0  0  0  0  0  0  0  0
  -27.2603  -18.3870   17.9134 C   0  0  0  0  0  0  0  0  0  0  0  0
  -26.6221  -19.6305   18.1447 C   0  0  0  0  0  0  0  0  0  0  0  0
  -24.4277  -26.9717   19.9054 C   0  0  0  0  0  0  0  0  0  0  0  0
  -21.3574   -4.3188   22.4369 C   0  0  0  0  0  0  0  0  0  0  0  0
  -23.7799  -10.6758   20.9018 C   0  0  0  0  0  0  0  0  0  0  0  0
  -24.5081  -13.0393   21.5275 C   0  0  0  0  0  0  0  0  0  0  0  0
  -25.5865  -32.2933   27.2161 C   0  0  0  0  0  0  0  0  0  0  0  0
  -25.7847  -28.7776   20.7754 C   0  0  0  0  0  0  0  0  0  0  0  0
  -25.6516  -31.1600   26.3831 C   0  0  0  0  0  0  0  0  0  0  0  0
  -24.5380  -28.2987   20.3481 C   0  0  0  0  0  0  0  0  0  0  0  0
  -21.9536   -8.5719   20.7584 C   0  0  0  0  0  0  0  0  0  0  0  0
  -25.5443  -26.1366   19.8761 C   0  0  0  0  0  0  0  0  0  0  0  0
  -21.5087   -6.2812   21.0357 C   0  0  0  0  0  0  0  0  0  0  0  0
  -22.4088   -3.7338   21.7311 C   0  0  0  0  0  0  0  0  0  0  0  0
  -20.9074   -5.5925   22.0892 C   0  0  0  0  0  0  0  0  0  0  0  0
  -24.7237  -11.7620   20.9763 C   0  0  0  0  0  0  0  0  0  0  0  0
  -28.5909  -18.5415   18.2341 C   0  0  0  0  0  0  0  0  0  0  0  0
  -27.5823  -20.5072   18.5996 C   0  0  0  0  0  0  0  0  0  0  0  0
  -25.7028  -13.6943   21.3538 C   0  0  0  0  0  0  0  0  0  0  0  0
  -23.3331  -13.5848   22.1418 C   0  0  0  0  0  0  0  0  0  0  0  0
  -29.6647  -17.5179   18.1570 C   0  0  0  0  0  0  0  0  0  0  0  0
  -24.2268  -30.3154   23.0802 C   0  0  0  0  0  0  0  0  0  0  0  0
  -22.5717  -31.5704   20.5886 C   0  0  0  0  0  0  0  0  0  0  0  0
  -26.3050  -22.6455   18.9601 C   0  0  0  0  0  0  0  0  0  0  0  0
  -21.5315  -31.2630   17.3528 C   0  0  0  0  0  0  0  0  0  0  0  0
  -30.0974  -15.0845   18.2791 C   0  0  0  0  0  0  0  0  0  0  0  0
  -24.3226  -33.1045   27.3544 C   0  0  0  0  0  0  0  0  0  0  0  0
  -25.9375  -30.2027   21.2318 C   0  0  0  0  0  0  0  0  0  0  0  0
  -23.3084  -29.1683   20.3585 C   0  0  0  0  0  0  0  0  0  0  0  0
  -23.3203  -32.8675   26.2276 C   0  0  0  0  0  0  0  0  0  0  0  0
  -30.2382  -11.9555   19.9183 C   0  0  0  0  0  0  0  0  0  0  0  0
  -23.1568  -31.3740   25.9640 C   0  0  0  0  0  0  0  0  0  0  0  0
  -28.8000  -11.7319   20.3937 C   0  0  0  0  0  0  0  0  0  0  0  0
  -30.2844  -12.6270   18.5464 C   0  0  0  0  0  0  0  0  0  0  0  0
  -28.0691  -13.6380   18.9048 C   0  0  0  0  0  0  0  0  0  0  0  0
  -24.4818  -30.7442   25.5178 C   0  0  1  0  0  0  0  0  0  0  0  0
  -24.6298  -30.8165   21.7222 C   0  0  1  0  0  0  0  0  0  0  0  0
  -27.9693  -13.0284   20.3125 C   0  0  1  0  0  0  0  0  0  0  0  0
  -20.1592  -32.4296   15.6055 C   0  0  0  0  0  0  0  0  0  0  0  0
  -20.0185  -30.6525   21.9846 C   0  0  0  0  0  0  0  0  0  0  0  0
  -18.8029  -30.9711   19.8192 C   0  0  0  0  0  0  0  0  0  0  0  0
  -19.8794  -32.9214   20.9418 C   0  0  0  0  0  0  0  0  0  0  0  0
  -30.0395  -20.3990   19.0748 C   0  0  0  0  0  0  0  0  0  0  0  0
  -23.8578  -31.5394   15.5442 C   0  0  0  0  0  0  0  0  0  0  0  0
  -26.6065  -24.0552   19.4339 C   0  0  0  0  0  0  0  0  0  1  0  0
  -21.3303  -31.1786   19.8240 C   0  0  1  0  0  0  0  0  0  0  0  0
  -21.5496  -32.2407   16.1917 C   0  0  2  0  0  0  0  0  0  0  0  0
  -20.0304  -31.4137   20.6439 C   0  0  0  0  0  0  0  0  0  0  0  0
  -25.9582  -11.6125   20.4887 N   0  0  0  0  0  0  0  0  0  0  0  0
  -28.7752  -19.8344   18.6497 N   0  0  0  0  0  0  0  0  0  0  0  0
  -26.5290  -12.8044   20.7329 N   0  0  0  0  0  0  0  0  0  0  0  0
  -23.5078  -30.5524   20.8192 N   0  0  0  0  0  0  0  0  0  0  0  0
  -29.4818  -13.8513   18.5558 N   0  0  0  0  0  0  0  0  0  0  0  0
  -26.1166  -14.9390   21.6730 N   0  0  0  0  0  0  0  0  0  0  0  0
  -22.1930  -12.7755   22.2391 N   0  0  0  0  0  0  0  0  0  0  0  0
  -27.4573  -21.8670   18.9708 N   0  0  0  0  0  0  0  0  0  0  0  0
  -29.2547  -16.1991   18.3548 N   0  0  0  0  0  0  0  0  0  0  0  0
  -24.7450  -31.0518   24.1283 N   0  0  0  0  0  0  0  0  0  0  0  0
  -21.3810  -31.9085   18.5619 N   0  0  0  0  0  0  0  0  0  0  0  0
  -22.4515  -31.7471   15.1128 N   0  3  0  0  0  0  0  0  0  0  0  0
  -23.2901  -14.7608   22.5763 O   0  0  0  0  0  0  0  0  0  0  0  0
  -30.8104  -17.8717   17.8925 O   0  0  0  0  0  0  0  0  0  0  0  0
  -23.4983  -29.3341   23.1703 O   0  0  0  0  0  0  0  0  0  0  0  0
  -22.7090  -32.7383   20.9611 O   0  0  0  0  0  0  0  0  0  0  0  0
  -25.1737  -22.3077   18.6275 O   0  0  0  0  0  0  0  0  0  0  0  0
  -21.6364  -30.0478   17.2020 O   0  0  0  0  0  0  0  0  0  0  0  0
  -31.3013  -15.1889   18.0243 O   0  0  0  0  0  0  0  0  0  0  0  0
  -21.0626   -7.5454   20.6888 O   0  0  0  0  0  0  0  0  0  0  0  0
  -25.4229  -24.8523   19.4428 O   0  0  0  0  0  0  0  0  0  1  0  0
  -22.8401   -2.5101   22.0639 F   0  0  0  0  0  0  0  0  0  0  0  0
  -19.8962   -6.1488   22.7702 F   0  0  0  0  0  0  0  0  0  0  0  0
  1  2  1  0  0  0  0
  1  5  2  0  0  0  0
  2  6  2  0  0  0  0
  3  8  2  0  0  0  0
  3 17  1  0  0  0  0
  4  9  1  0  0  0  0
  4 17  2  0  0  0  0
  5 19  1  0  0  0  0
  6 21  1  0  0  0  0
  7 10  2  0  0  0  0
  7 20  1  0  0  0  0
  8 23  1  0  0  0  0
  9 23  2  0  0  0  0
 10 24  1  0  0  0  0
 11 12  2  0  0  0  0
 11 25  1  0  0  0  0
 12 26  1  0  0  0  0
 13 14  1  0  0  0  0
 13 29  2  0  0  0  0
 14 30  2  0  0  0  0
 15 22  1  0  0  0  0
 15 24  2  0  0  0  0
 16 26  2  0  0  0  0
 16 27  1  0  0  0  0
 17 28  1  0  0  0  0
 18 28  1  0  0  0  0
 18 31  2  0  0  0  0
 18 32  1  0  0  0  0
 19 21  2  0  0  0  0
 19 39  1  0  0  0  0
 20 22  2  0  0  0  0
 20 40  1  0  0  0  0
 21 48  1  0  0  0  0
 22 41  1  0  0  0  0
 23 80  1  0  0  0  0
 24 81  1  0  0  0  0
 25 27  2  0  0  0  0
 25 80  1  0  0  0  0
 26 82  1  0  0  0  0
 27 83  1  0  0  0  0
 28 61  2  0  0  0  0
 29 33  1  0  0  0  0
 29 62  1  0  0  0  0
 30 62  1  0  0  0  0
 30 68  1  0  0  0  0
 31 63  1  0  0  0  0
 31 66  1  0  0  0  0
 32 67  1  0  0  0  0
 32 73  2  0  0  0  0
 33 69  1  0  0  0  0
 33 74  2  0  0  0  0
 34 49  1  0  0  0  0
 34 70  1  0  0  0  0
 34 75  2  0  0  0  0
 35 58  1  0  0  0  0
 35 64  1  0  0  0  0
 35 76  2  0  0  0  0
 36 57  1  0  0  0  0
 36 68  1  0  0  0  0
 36 77  2  0  0  0  0
 37 59  1  0  0  0  0
 37 71  1  0  0  0  0
 37 78  2  0  0  0  0
 38 65  1  0  0  0  0
 38 69  1  0  0  0  0
 38 79  2  0  0  0  0
 39 42  1  0  0  0  0
 40 49  1  0  0  0  0
 41 64  1  0  0  0  0
 42 44  1  0  0  0  0
 43 45  1  0  0  0  0
 43 46  1  0  0  0  0
 44 48  1  0  0  0  0
 45 50  1  0  0  0  0
 46 65  1  0  0  0  0
 47 50  1  0  0  0  0
 47 65  1  0  0  0  0
 48 70  1  0  0  0  0
 49 64  1  0  0  0  0
 50 63  1  0  0  0  0
 51 59  1  0  0  0  0
 52 60  1  0  0  0  0
 53 60  1  0  0  0  0
 54 60  1  0  0  0  0
 55 62  1  0  0  0  0
 56 72  1  0  0  0  0
 57 81  1  0  0  0  0
 58 60  1  0  0  0  0
 58 71  1  0  0  0  0
 59 72  1  0  0  0  0
 61 63  1  0  0  0  0
M  CHG  1  72   1
M  ISO  4  38 100  57 101  69 100  81 101
M  END
> <Batch ID>
0091

> <Smiles>
CNC(C)C(=O)NC(C(=O)N1Cc2cc([101O:1][101CH2:1]C(=O)Nc3ccc(C(=O)[100NH:0][100C:0](=O)N4CCCC(n5nc(-c6ccc(Oc7ccc(F)cc7F)cc6)c(C(N)=O)c5N)C4)n3C)ccc2CC1C(=O)NC1CCCc2ccccc21)C(C)(C)C

> <Shape>
0.282

> <Color>
0.138

> <Negative vol penalty>
0.000

$$$$

  -OEChem-04052300313D

 86 94  0     1  0  0  0  0  0999 V2000
  -27.5109  -31.5499   27.9906 C   0  0  0  0  0  0  0  0  0  0  0  0
  -27.8152  -30.6879   26.9419 C   0  0  0  0  0  0  0  0  0  0  0  0
  -23.5754   -9.5923   21.0838 C   0  0  0  0  0  0  0  0  0  0  0  0
  -24.2275  -10.4227   23.2569 C   0  0  0  0  0  0  0  0  0  0  0  0
  -26.1798  -31.8196   28.3058 C   0  0  0  0  0  0  0  0  0  0  0  0
  -26.7886  -30.0942   26.2085 C   0  0  0  0  0  0  0  0  0  0  0  0
  -27.6260  -30.2501   21.2165 C   0  0  0  0  0  0  0  0  0  0  0  0
  -23.0077   -8.4683   21.6837 C   0  0  0  0  0  0  0  0  0  0  0  0
  -23.6597   -9.2987   23.8568 C   0  0  0  0  0  0  0  0  0  0  0  0
  -28.5263  -29.3234   20.6927 C   0  0  0  0  0  0  0  0  0  0  0  0
  -20.1582   -7.6960   23.3320 C   0  0  0  0  0  0  0  0  0  0  0  0
  -18.8956   -7.2958   22.8945 C   0  0  0  0  0  0  0  0  0  0  0  0
  -31.7823  -20.2475   19.7891 C   0  0  0  0  0  0  0  0  0  0  0  0
  -26.6808  -27.9500   19.9665 C   0  0  0  0  0  0  0  0  0  0  0  0
  -31.5075  -22.6478   19.7734 C   0  0  0  0  0  0  0  0  0  0  0  0
  -19.8027   -5.1562   22.2340 C   0  0  0  0  0  0  0  0  0  0  0  0
  -24.1853  -10.5695   21.8704 C   0  0  0  0  0  0  0  0  0  0  0  0
  -30.4009  -20.0886   19.6783 C   0  0  0  0  0  0  0  0  0  0  0  0
  -24.1398  -12.9570   20.9727 C   0  0  0  0  0  0  0  0  0  0  0  0
  -25.1363  -31.2364   27.5697 C   0  0  0  0  0  0  0  0  0  0  0  0
  -26.2441  -30.0280   21.1288 C   0  0  0  0  0  0  0  0  0  0  0  0
  -25.4422  -30.3553   26.5150 C   0  0  0  0  0  0  0  0  0  0  0  0
  -25.7650  -28.8767   20.4877 C   0  0  0  0  0  0  0  0  0  0  0  0
  -32.3356  -21.5271   19.8367 C   0  0  0  0  0  0  0  0  0  0  0  0
  -30.1262  -22.4889   19.6626 C   0  0  0  0  0  0  0  0  0  0  0  0
  -29.5729  -21.2093   19.6150 C   0  0  0  0  0  0  0  0  0  0  0  0
  -23.0498   -8.3215   23.0701 C   0  0  0  0  0  0  0  0  0  0  0  0
  -28.0539  -28.1717   20.0701 C   0  0  0  0  0  0  0  0  0  0  0  0
  -21.2431   -6.8264   23.2204 C   0  0  0  0  0  0  0  0  0  0  0  0
  -18.7179   -6.0259   22.3456 C   0  0  0  0  0  0  0  0  0  0  0  0
  -21.0653   -5.5565   22.6714 C   0  0  0  0  0  0  0  0  0  0  0  0
  -24.7725  -11.7306   21.2513 C   0  0  0  0  0  0  0  0  0  0  0  0
  -25.1182  -13.7229   20.3874 C   0  0  0  0  0  0  0  0  0  0  0  0
  -29.8457  -18.7106   19.6309 C   0  0  0  0  0  0  0  0  0  0  0  0
  -22.7886  -13.3671   21.2210 C   0  0  0  0  0  0  0  0  0  0  0  0
  -23.8963  -29.6399   23.2361 C   0  0  0  0  0  0  0  0  0  0  0  0
  -22.0309  -29.6986   20.5830 C   0  0  0  0  0  0  0  0  0  0  0  0
  -29.7139  -24.9715   19.6353 C   0  0  0  0  0  0  0  0  0  0  0  0
  -21.7714  -29.2280   17.2128 C   0  0  0  0  0  0  0  0  0  0  0  0
  -30.3725  -15.6083   20.2329 C   0  0  0  0  0  0  0  0  0  0  0  0
  -23.7126  -31.5211   27.9779 C   0  0  0  0  0  0  0  0  0  0  0  0
  -25.2856  -31.0503   21.6752 C   0  0  0  0  0  0  0  0  0  0  0  0
  -24.2907  -28.6013   20.3496 C   0  0  0  0  0  0  0  0  0  0  0  0
  -22.6865  -31.1446   26.9123 C   0  0  0  0  0  0  0  0  0  0  0  0
  -29.7119  -12.4641   18.6880 C   0  0  0  0  0  0  0  0  0  0  0  0
  -22.9805  -29.7552   26.3554 C   0  0  0  0  0  0  0  0  0  0  0  0
  -28.3207  -12.0892   19.2002 C   0  0  0  0  0  0  0  0  0  0  0  0
  -30.5312  -13.1813   19.7582 C   0  0  0  0  0  0  0  0  0  0  0  0
  -28.4805  -13.9920   20.8619 C   0  0  0  0  0  0  0  0  0  0  0  0
  -24.3566  -29.7113   25.6802 C   0  0  1  0  0  0  0  0  0  0  0  0
  -23.9083  -30.4723   21.9852 C   0  0  1  0  0  0  0  0  0  0  0  0
  -27.5988  -13.3094   19.8017 C   0  0  2  0  0  0  0  0  0  0  0  0
  -20.1106  -29.3162   15.3336 C   0  0  0  0  0  0  0  0  0  0  0  0
  -20.8408  -27.0476   21.5135 C   0  0  0  0  0  0  0  0  0  0  0  0
  -19.9312  -26.7250   19.2033 C   0  0  0  0  0  0  0  0  0  0  0  0
  -19.1793  -28.6659   20.5782 C   0  0  0  0  0  0  0  0  0  0  0  0
  -23.2992  -31.3373   15.8073 C   0  0  0  0  0  0  0  0  0  0  0  0
  -28.5170  -25.8996   19.5422 C   0  0  0  0  0  0  0  0  0  1  0  0
  -21.5167  -28.6610   19.6145 C   0  0  1  0  0  0  0  0  0  0  0  0
  -21.1601  -30.0862   16.1200 C   0  0  2  0  0  0  0  0  0  0  0  0
  -20.3949  -27.7788   20.2315 C   0  0  0  0  0  0  0  0  0  0  0  0
  -26.0536  -11.7139   20.8738 N   0  0  0  0  0  0  0  0  0  0  0  0
  -26.2338  -12.9392   20.3520 N   0  0  0  0  0  0  0  0  0  0  0  0
  -23.3936  -29.6278   20.9054 N   0  0  0  0  0  0  0  0  0  0  0  0
  -29.7940  -14.3293   20.2916 N   0  0  0  0  0  0  0  0  0  0  0  0
  -33.7321  -21.6882   19.9495 N   0  0  0  0  0  0  0  0  0  0  0  0
  -28.1712  -21.0462   19.5026 N   0  0  0  0  0  0  0  0  0  0  0  0
  -25.1243  -14.9836   19.9046 N   0  0  0  0  0  0  0  0  0  0  0  0
  -21.9150  -12.4561   21.8304 N   0  0  0  0  0  0  0  0  0  0  0  0
  -29.3080  -23.6418   19.6001 N   0  0  0  0  0  0  0  0  0  0  0  0
  -30.1103  -17.9180   20.7313 N   0  0  0  0  0  0  0  0  0  0  0  0
  -24.2962  -30.3218   24.3695 N   0  0  0  0  0  0  0  0  0  0  0  0
  -21.1142  -29.3867   18.4145 N   0  0  0  0  0  0  0  0  0  0  0  0
  -29.6056  -16.6367   20.7579 N   0  0  0  0  0  0  0  0  0  0  0  0
  -22.2140  -30.5461   15.1721 N   0  3  0  0  0  0  0  0  0  0  0  0
  -29.1851  -18.3608   18.6557 O   0  0  0  0  0  0  0  0  0  0  0  0
  -22.3638  -14.5020   20.8966 O   0  0  0  0  0  0  0  0  0  0  0  0
  -23.5485  -28.4664   23.1776 O   0  0  0  0  0  0  0  0  0  0  0  0
  -21.2538  -30.5453   21.0312 O   0  0  0  0  0  0  0  0  0  0  0  0
  -30.8576  -25.4052   19.7274 O   0  0  0  0  0  0  0  0  0  0  0  0
  -22.7332  -28.4879   17.0188 O   0  0  0  0  0  0  0  0  0  0  0  0
  -31.4898  -15.8133   19.7454 O   0  0  0  0  0  0  0  0  0  0  0  0
  -22.4957   -7.2249   23.6559 O   0  0  0  0  0  0  0  0  0  0  0  0
  -28.9305  -27.2652   19.5586 O   0  0  0  0  0  0  0  0  0  1  0  0
  -17.5051   -5.6412   21.9269 F   0  0  0  0  0  0  0  0  0  0  0  0
  -22.1035   -4.7162   22.5627 F   0  0  0  0  0  0  0  0  0  0  0  0
  1  2  1  0  0  0  0
  1  5  2  0  0  0  0
  2  6  2  0  0  0  0
  3  8  2  0  0  0  0
  3 17  1  0  0  0  0
  4  9  1  0  0  0  0
  4 17  2  0  0  0  0
  5 20  1  0  0  0  0
  6 22  1  0  0  0  0
  7 10  2  0  0  0  0
  7 21  1  0  0  0  0
  8 27  1  0  0  0  0
  9 27  2  0  0  0  0
 10 28  1  0  0  0  0
 11 12  2  0  0  0  0
 11 29  1  0  0  0  0
 12 30  1  0  0  0  0
 13 18  2  0  0  0  0
 13 24  1  0  0  0  0
 14 23  1  0  0  0  0
 14 28  2  0  0  0  0
 15 24  2  0  0  0  0
 15 25  1  0  0  0  0
 16 30  2  0  0  0  0
 16 31  1  0  0  0  0
 17 32  1  0  0  0  0
 18 26  1  0  0  0  0
 18 34  1  0  0  0  0
 19 32  1  0  0  0  0
 19 33  2  0  0  0  0
 19 35  1  0  0  0  0
 20 22  2  0  0  0  0
 20 41  1  0  0  0  0
 21 23  2  0  0  0  0
 21 42  1  0  0  0  0
 22 50  1  0  0  0  0
 23 43  1  0  0  0  0
 24 66  1  0  0  0  0
 25 26  2  0  0  0  0
 25 70  1  0  0  0  0
 26 67  1  0  0  0  0
 27 83  1  0  0  0  0
 28 84  1  0  0  0  0
 29 31  2  0  0  0  0
 29 83  1  0  0  0  0
 30 85  1  0  0  0  0
 31 86  1  0  0  0  0
 32 62  2  0  0  0  0
 33 63  1  0  0  0  0
 33 68  1  0  0  0  0
 34 71  1  0  0  0  0
 34 76  2  0  0  0  0
 35 69  1  0  0  0  0
 35 77  2  0  0  0  0
 36 51  1  0  0  0  0
 36 72  1  0  0  0  0
 36 78  2  0  0  0  0
 37 59  1  0  0  0  0
 37 64  1  0  0  0  0
 37 79  2  0  0  0  0
 38 58  1  0  0  0  0
 38 70  1  0  0  0  0
 38 80  2  0  0  0  0
 39 60  1  0  0  0  0
 39 73  1  0  0  0  0
 39 81  2  0  0  0  0
 40 65  1  0  0  0  0
 40 74  1  0  0  0  0
 40 82  2  0  0  0  0
 41 44  1  0  0  0  0
 42 51  1  0  0  0  0
 43 64  1  0  0  0  0
 44 46  1  0  0  0  0
 45 47  1  0  0  0  0
 45 48  1  0  0  0  0
 46 50  1  0  0  0  0
 47 52  1  0  0  0  0
 48 65  1  0  0  0  0
 49 52  1  0  0  0  0
 49 65  1  0  0  0  0
 50 72  1  0  0  0  0
 51 64  1  0  0  0  0
 52 63  1  0  0  0  0
 53 60  1  0  0  0  0
 54 61  1  0  0  0  0
 55 61  1  0  0  0  0
 56 61  1  0  0  0  0
 57 75  1  0  0  0  0
 58 84  1  0  0  0  0
 59 61  1  0  0  0  0
 59 73  1  0  0  0  0
 60 75  1  0  0  0  0
 62 63  1  0  0  0  0
 71 74  1  0  0  0  0
M  CHG  1  75   1
M  ISO  4  40 100  58 101  74 100  84 101
M  END
> <Batch ID>
0091

> <Smiles>
CNC(C)C(=O)NC(C(=O)N1Cc2cc([101O:1][101CH2:1]C(=O)Nc3cc(N)cc(C(=O)N[100NH:0][100C:0](=O)N4CCCC(n5nc(-c6ccc(Oc7ccc(F)cc7F)cc6)c(C(N)=O)c5N)C4)c3N)ccc2CC1C(=O)NC1CCCc2ccccc21)C(C)(C)C

> <Shape>
0.346

> <Color>
0.183

> <Negative vol penalty>
0.000

$$$$

  -OEChem-04052300313D

 86 95  0     1  0  0  0  0  0999 V2000
  -23.2436  -35.4588   15.6160 C   0  0  0  0  0  0  0  0  0  0  0  0
  -23.6655  -34.1331   15.6196 C   0  0  0  0  0  0  0  0  0  0  0  0
  -23.7897   -8.8142   20.0889 C   0  0  0  0  0  0  0  0  0  0  0  0
  -22.9963  -10.6189   21.4855 C   0  0  0  0  0  0  0  0  0  0  0  0
  -23.5666  -36.2949   16.6839 C   0  0  0  0  0  0  0  0  0  0  0  0
  -24.4119  -33.6431   16.6908 C   0  0  0  0  0  0  0  0  0  0  0  0
  -24.2115  -27.9897   19.0368 C   0  0  0  0  0  0  0  0  0  0  0  0
  -30.1758  -19.8238   20.5034 C   0  0  0  0  0  0  0  0  0  0  0  0
  -30.1445  -18.4296   20.4785 C   0  0  0  0  0  0  0  0  0  0  0  0
  -22.9031   -7.9390   20.7161 C   0  0  0  0  0  0  0  0  0  0  0  0
  -22.1096   -9.7437   22.1127 C   0  0  0  0  0  0  0  0  0  0  0  0
  -25.0211  -26.8693   18.8546 C   0  0  0  0  0  0  0  0  0  0  0  0
  -22.7393   -6.2174   23.6202 C   0  0  0  0  0  0  0  0  0  0  0  0
  -23.2254   -4.9670   24.0021 C   0  0  0  0  0  0  0  0  0  0  0  0
  -26.2639  -27.4522   20.8382 C   0  0  0  0  0  0  0  0  0  0  0  0
  -29.9427  -24.0465   19.5761 C   0  0  0  0  0  0  0  0  0  0  0  0
  -28.2180  -19.8931   19.0895 C   0  0  0  0  0  0  0  0  0  0  0  0
  -21.5902   -3.8974   22.5811 C   0  0  0  0  0  0  0  0  0  0  0  0
  -23.8363  -10.1542   20.4736 C   0  0  0  0  0  0  0  0  0  0  0  0
  -24.5093  -11.8391   18.6802 C   0  0  0  0  0  0  0  0  0  0  0  0
  -24.3090  -35.8123   17.7732 C   0  0  0  0  0  0  0  0  0  0  0  0
  -24.4294  -28.8572   20.1168 C   0  0  0  0  0  0  0  0  0  0  0  0
  -24.7463  -34.4740   17.7736 C   0  0  0  0  0  0  0  0  0  0  0  0
  -25.4541  -28.5815   21.0334 C   0  0  0  0  0  0  0  0  0  0  0  0
  -28.6507  -24.0688   20.1568 C   0  0  0  0  0  0  0  0  0  0  0  0
  -29.2125  -20.5556   19.8089 C   0  0  0  0  0  0  0  0  0  0  0  0
  -29.1499  -17.7670   19.7591 C   0  0  0  0  0  0  0  0  0  0  0  0
  -22.0630   -8.4037   21.7280 C   0  0  0  0  0  0  0  0  0  0  0  0
  -26.0492  -26.6020   19.7537 C   0  0  0  0  0  0  0  0  0  0  0  0
  -21.6786   -6.3078   22.7189 C   0  0  0  0  0  0  0  0  0  0  0  0
  -22.6509   -3.8070   23.4825 C   0  0  0  0  0  0  0  0  0  0  0  0
  -28.1867  -18.4988   19.0646 C   0  0  0  0  0  0  0  0  0  0  0  0
  -21.1041   -5.1478   22.1993 C   0  0  0  0  0  0  0  0  0  0  0  0
  -24.7524  -11.0587   19.8264 C   0  0  0  0  0  0  0  0  0  0  0  0
  -28.2434  -22.7613   20.3042 C   0  0  0  0  0  0  0  0  0  0  0  0
  -25.6846  -12.5184   18.4717 C   0  0  0  0  0  0  0  0  0  0  0  0
  -30.2856  -22.7260   19.3862 C   0  0  0  0  0  0  0  0  0  0  0  0
  -23.3266  -11.9409   17.8760 C   0  0  0  0  0  0  0  0  0  0  0  0
  -25.2098  -31.9247   20.4079 C   0  0  0  0  0  0  0  0  0  0  0  0
  -24.7022  -31.3524   23.5602 C   0  0  0  0  0  0  0  0  0  0  0  0
  -24.5712  -29.0868   26.1091 C   0  0  0  0  0  0  0  0  0  0  0  0
  -30.0034  -15.4766   20.3689 C   0  0  0  0  0  0  0  0  0  0  0  0
  -24.6743  -36.7666   18.8825 C   0  0  0  0  0  0  0  0  0  0  0  0
  -23.5304  -30.0468   20.3144 C   0  0  0  0  0  0  0  0  0  0  0  0
  -25.7164  -29.4704   22.2206 C   0  0  0  0  0  0  0  0  0  0  0  0
  -25.1486  -36.0689   20.1547 C   0  0  0  0  0  0  0  0  0  0  0  0
  -30.2478  -11.9309   20.5822 C   0  0  0  0  0  0  0  0  0  0  0  0
  -26.1621  -34.9791   19.8196 C   0  0  0  0  0  0  0  0  0  0  0  0
  -28.8199  -11.4521   20.3103 C   0  0  0  0  0  0  0  0  0  0  0  0
  -30.2671  -13.2269   21.3908 C   0  0  0  0  0  0  0  0  0  0  0  0
  -28.0293  -13.8393   20.5623 C   0  0  0  0  0  0  0  0  0  0  0  0
  -25.5364  -33.8989   18.9291 C   0  0  1  0  0  0  0  0  0  0  0  0
  -24.1689  -31.1444   21.1598 C   0  0  1  0  0  0  0  0  0  0  0  0
  -27.9576  -12.5718   19.6951 C   0  0  2  0  0  0  0  0  0  0  0  0
  -26.9802  -22.2222   20.8567 C   0  0  0  0  0  0  0  0  0  0  0  0
  -24.1693  -28.9235   28.5808 C   0  0  0  0  0  0  0  0  0  0  0  0
  -27.4887  -32.4791   24.0852 C   0  0  0  0  0  0  0  0  0  0  0  0
  -27.4068  -31.4342   26.3589 C   0  0  0  0  0  0  0  0  0  0  0  0
  -25.7483  -33.1898   25.7345 C   0  0  0  0  0  0  0  0  0  0  0  0
  -22.2299  -27.3168   25.7289 C   0  0  0  0  0  0  0  0  0  0  0  0
  -27.8759  -25.2961   20.5372 C   0  0  0  0  0  0  0  0  0  1  0  0
  -25.5573  -30.8850   24.7131 C   0  0  1  0  0  0  0  0  0  0  0  0
  -23.5396  -28.8545   27.1982 C   0  0  2  0  0  0  0  0  0  0  0  0
  -26.5468  -31.9812   25.1996 C   0  0  0  0  0  0  0  0  0  0  0  0
  -25.9854  -11.2258   20.3119 N   0  0  0  0  0  0  0  0  0  0  0  0
  -29.2450  -21.9537   19.8321 N   0  0  0  0  0  0  0  0  0  0  0  0
  -26.5276  -12.1189   19.4666 N   0  0  0  0  0  0  0  0  0  0  0  0
  -24.8144  -30.6246   22.3671 N   0  0  0  0  0  0  0  0  0  0  0  0
  -29.4323  -14.2427   20.7457 N   0  0  0  0  0  0  0  0  0  0  0  0
  -26.0690  -13.4124   17.5360 N   0  0  0  0  0  0  0  0  0  0  0  0
  -22.2090  -11.1735   18.2313 N   0  0  0  0  0  0  0  0  0  0  0  0
  -29.1212  -16.3506   19.7346 N   0  0  0  0  0  0  0  0  0  0  0  0
  -24.7083  -33.0113   19.7171 N   0  0  0  0  0  0  0  0  0  0  0  0
  -24.6350  -30.4141   25.7407 N   0  0  0  0  0  0  0  0  0  0  0  0
  -22.9077  -27.5146   27.0359 N   0  3  0  0  0  0  0  0  0  0  0  0
  -23.2684  -12.6777   16.8625 O   0  0  0  0  0  0  0  0  0  0  0  0
  -26.3814  -31.5682   20.4524 O   0  0  0  0  0  0  0  0  0  0  0  0
  -23.9567  -32.3230   23.7147 O   0  0  0  0  0  0  0  0  0  0  0  0
  -25.2549  -28.1821   25.6352 O   0  0  0  0  0  0  0  0  0  0  0  0
  -31.1947  -15.7281   20.5681 O   0  0  0  0  0  0  0  0  0  0  0  0
  -31.3870  -22.1871   18.8770 O   0  0  0  0  0  0  0  0  0  0  0  0
  -21.1976   -7.5500   22.3402 O   0  0  0  0  0  0  0  0  0  0  0  0
  -26.8413  -25.5095   19.5779 O   0  0  0  0  0  0  0  0  0  1  0  0
  -23.1188   -2.6064   23.8481 F   0  0  0  0  0  0  0  0  0  0  0  0
  -27.2272  -17.8724   18.3686 F   0  0  0  0  0  0  0  0  0  0  0  0
  -20.0856   -5.2284   21.3321 F   0  0  0  0  0  0  0  0  0  0  0  0
  1  2  1  0  0  0  0
  1  5  2  0  0  0  0
  2  6  2  0  0  0  0
  3 10  2  0  0  0  0
  3 19  1  0  0  0  0
  4 11  1  0  0  0  0
  4 19  2  0  0  0  0
  5 21  1  0  0  0  0
  6 23  1  0  0  0  0
  7 12  2  0  0  0  0
  7 22  1  0  0  0  0
  8  9  2  0  0  0  0
  8 26  1  0  0  0  0
  9 27  1  0  0  0  0
 10 28  1  0  0  0  0
 11 28  2  0  0  0  0
 12 29  1  0  0  0  0
 13 14  2  0  0  0  0
 13 30  1  0  0  0  0
 14 31  1  0  0  0  0
 15 24  1  0  0  0  0
 15 29  2  0  0  0  0
 16 25  1  0  0  0  0
 16 37  2  0  0  0  0
 17 26  2  0  0  0  0
 17 32  1  0  0  0  0
 18 31  2  0  0  0  0
 18 33  1  0  0  0  0
 19 34  1  0  0  0  0
 20 34  1  0  0  0  0
 20 36  2  0  0  0  0
 20 38  1  0  0  0  0
 21 23  2  0  0  0  0
 21 43  1  0  0  0  0
 22 24  2  0  0  0  0
 22 44  1  0  0  0  0
 23 52  1  0  0  0  0
 24 45  1  0  0  0  0
 25 35  2  0  0  0  0
 25 61  1  0  0  0  0
 26 66  1  0  0  0  0
 27 32  2  0  0  0  0
 27 72  1  0  0  0  0
 28 82  1  0  0  0  0
 29 83  1  0  0  0  0
 30 33  2  0  0  0  0
 30 82  1  0  0  0  0
 31 84  1  0  0  0  0
 32 85  1  0  0  0  0
 33 86  1  0  0  0  0
 34 65  2  0  0  0  0
 35 55  1  0  0  0  0
 35 66  1  0  0  0  0
 36 67  1  0  0  0  0
 36 70  1  0  0  0  0
 37 66  1  0  0  0  0
 37 81  1  0  0  0  0
 38 71  1  0  0  0  0
 38 76  2  0  0  0  0
 39 53  1  0  0  0  0
 39 73  1  0  0  0  0
 39 77  2  0  0  0  0
 40 62  1  0  0  0  0
 40 68  1  0  0  0  0
 40 78  2  0  0  0  0
 41 63  1  0  0  0  0
 41 74  1  0  0  0  0
 41 79  2  0  0  0  0
 42 69  1  0  0  0  0
 42 72  1  0  0  0  0
 42 80  2  0  0  0  0
 43 46  1  0  0  0  0
 44 53  1  0  0  0  0
 45 68  1  0  0  0  0
 46 48  1  0  0  0  0
 47 49  1  0  0  0  0
 47 50  1  0  0  0  0
 48 52  1  0  0  0  0
 49 54  1  0  0  0  0
 50 69  1  0  0  0  0
 51 54  1  0  0  0  0
 51 69  1  0  0  0  0
 52 73  1  0  0  0  0
 53 68  1  0  0  0  0
 54 67  1  0  0  0  0
 56 63  1  0  0  0  0
 57 64  1  0  0  0  0
 58 64  1  0  0  0  0
 59 64  1  0  0  0  0
 60 75  1  0  0  0  0
 61 83  1  0  0  0  0
 62 64  1  0  0  0  0
 62 74  1  0  0  0  0
 63 75  1  0  0  0  0
 65 67  1  0  0  0  0
M  CHG  1  75   1
M  ISO  4  42 100  61 101  72 100  83 101
M  END
> <Batch ID>
0091

> <Smiles>
CNC(C)C(=O)NC(C(=O)N1Cc2cc([101O:1][101CH2:1]C3=C(C)N(c4ccc([100NH:0][100C:0](=O)N5CCCC(n6nc(-c7ccc(Oc8ccc(F)cc8F)cc7)c(C(N)=O)c6N)C5)c(F)c4)C(=O)C3)ccc2CC1C(=O)NC1CCCc2ccccc21)C(C)(C)C

> <Shape>
0.313

> <Color>
0.111

> <Negative vol penalty>
0.000

$$$$

  -OEChem-04052300313D

 84 92  0     1  0  0  0  0  0999 V2000
  -16.9243  -29.2356   24.1911 C   0  0  0  0  0  0  0  0  0  0  0  0
  -17.9395  -28.3697   24.5847 C   0  0  0  0  0  0  0  0  0  0  0  0
  -24.5555   -8.8717   21.4553 C   0  0  0  0  0  0  0  0  0  0  0  0
  -23.6413  -10.7151   22.7214 C   0  0  0  0  0  0  0  0  0  0  0  0
  -17.0384  -29.9443   22.9959 C   0  0  0  0  0  0  0  0  0  0  0  0
  -19.0691  -28.2112   23.7826 C   0  0  0  0  0  0  0  0  0  0  0  0
  -24.8142  -27.2358   25.6662 C   0  0  0  0  0  0  0  0  0  0  0  0
  -28.4536  -18.1718   23.4734 C   0  0  0  0  0  0  0  0  0  0  0  0
  -28.2110  -19.5366   23.6279 C   0  0  0  0  0  0  0  0  0  0  0  0
  -24.0789   -7.9772   22.4135 C   0  0  0  0  0  0  0  0  0  0  0  0
  -23.1646   -9.8206   23.6796 C   0  0  0  0  0  0  0  0  0  0  0  0
  -25.5801  -26.0763   25.7795 C   0  0  0  0  0  0  0  0  0  0  0  0
  -21.1293   -6.5402   23.2310 C   0  0  0  0  0  0  0  0  0  0  0  0
  -20.4851   -5.3885   22.7791 C   0  0  0  0  0  0  0  0  0  0  0  0
  -26.5566  -26.5173   23.6182 C   0  0  0  0  0  0  0  0  0  0  0  0
  -28.8927  -18.5159   21.1227 C   0  0  0  0  0  0  0  0  0  0  0  0
  -22.1422   -4.0258   23.8900 C   0  0  0  0  0  0  0  0  0  0  0  0
  -24.3367  -10.2407   21.6092 C   0  0  0  0  0  0  0  0  0  0  0  0
  -24.1549  -11.6201   19.4710 C   0  0  0  0  0  0  0  0  0  0  0  0
  -18.1744  -29.8018   22.1835 C   0  0  0  0  0  0  0  0  0  0  0  0
  -24.9059  -28.0403   24.5212 C   0  0  0  0  0  0  0  0  0  0  0  0
  -19.1980  -28.9177   22.5747 C   0  0  0  0  0  0  0  0  0  0  0  0
  -25.7928  -27.6878   23.4939 C   0  0  0  0  0  0  0  0  0  0  0  0
  -28.7945  -17.6614   22.2208 C   0  0  0  0  0  0  0  0  0  0  0  0
  -28.3092  -20.3911   22.5298 C   0  0  0  0  0  0  0  0  0  0  0  0
  -28.6501  -19.8808   21.2772 C   0  0  0  0  0  0  0  0  0  0  0  0
  -23.3834   -8.4516   23.5257 C   0  0  0  0  0  0  0  0  0  0  0  0
  -26.4493  -25.7154   24.7542 C   0  0  0  0  0  0  0  0  0  0  0  0
  -22.2800   -6.4347   24.0123 C   0  0  0  0  0  0  0  0  0  0  0  0
  -20.9915   -4.1313   23.1086 C   0  0  0  0  0  0  0  0  0  0  0  0
  -22.7864   -5.1775   24.3418 C   0  0  0  0  0  0  0  0  0  0  0  0
  -24.8293  -11.1652   20.6199 C   0  0  0  0  0  0  0  0  0  0  0  0
  -25.0434  -12.4762   18.8676 C   0  0  0  0  0  0  0  0  0  0  0  0
  -29.6944  -14.2458   23.2015 C   0  0  0  0  0  0  0  0  0  0  0  0
  -28.9609  -15.3583   23.1226 C   0  0  0  0  0  0  0  0  0  0  0  0
  -22.8425  -11.2976   18.9921 C   0  0  0  0  0  0  0  0  0  0  0  0
  -22.8782  -28.9434   22.2461 C   0  0  0  0  0  0  0  0  0  0  0  0
  -25.3699  -30.7937   21.3024 C   0  0  0  0  0  0  0  0  0  0  0  0
  -27.7127  -22.4222   23.8910 C   0  0  0  0  0  0  0  0  0  0  0  0
  -28.7415  -31.3214   21.2804 C   0  0  0  0  0  0  0  0  0  0  0  0
  -29.5475  -15.7747   20.8187 C   0  0  0  0  0  0  0  0  0  0  0  0
  -18.2315  -30.5531   20.8770 C   0  0  0  0  0  0  0  0  0  0  0  0
  -24.0928  -29.3021   24.4260 C   0  0  0  0  0  0  0  0  0  0  0  0
  -25.9432  -28.5281   22.2531 C   0  0  0  0  0  0  0  0  0  0  0  0
  -19.6304  -30.6122   20.2690 C   0  0  0  0  0  0  0  0  0  0  0  0
  -29.7224  -13.2922   18.3701 C   0  0  0  0  0  0  0  0  0  0  0  0
  -20.2858  -29.2352   20.3028 C   0  0  0  0  0  0  0  0  0  0  0  0
  -28.4285  -12.4999   18.5549 C   0  0  0  0  0  0  0  0  0  0  0  0
  -30.3178  -13.6890   19.7161 C   0  0  0  0  0  0  0  0  0  0  0  0
  -28.0823  -13.6869   20.7772 C   0  0  0  0  0  0  0  0  0  0  0  0
  -20.4500  -28.7376   21.7440 C   0  0  1  0  0  0  0  0  0  0  0  0
  -23.8864  -29.7730   22.9897 C   0  0  1  0  0  0  0  0  0  0  0  0
  -27.4332  -13.2669   19.4431 C   0  0  2  0  0  0  0  0  0  0  0  0
  -30.4831  -32.8964   20.3952 C   0  0  0  0  0  0  0  0  0  0  0  0
  -25.0772  -29.5549   18.5293 C   0  0  0  0  0  0  0  0  0  0  0  0
  -27.3630  -30.4159   17.9798 C   0  0  0  0  0  0  0  0  0  0  0  0
  -25.5291  -32.0146   18.5307 C   0  0  0  0  0  0  0  0  0  0  0  0
  -29.6389  -32.0452   24.0061 C   0  0  0  0  0  0  0  0  0  0  0  0
  -27.5339  -23.9097   23.6501 C   0  0  0  0  0  0  0  0  0  1  0  0
  -26.5448  -30.6113   20.3722 C   0  0  1  0  0  0  0  0  0  0  0  0
  -29.5687  -32.5624   21.5635 C   0  0  2  0  0  0  0  0  0  0  0  0
  -26.1245  -30.6321   18.8754 C   0  0  0  0  0  0  0  0  0  0  0  0
  -26.0520  -11.6889   20.7413 N   0  0  0  0  0  0  0  0  0  0  0  0
  -26.1529  -12.4816   19.6607 N   0  0  0  0  0  0  0  0  0  0  0  0
  -25.1219  -29.7491   22.2041 N   0  0  0  0  0  0  0  0  0  0  0  0
  -29.3404  -14.4107   20.5317 N   0  0  0  0  0  0  0  0  0  0  0  0
  -28.7554  -20.7285   20.1515 N   0  0  0  0  0  0  0  0  0  0  0  0
  -24.9760  -13.2173   17.7413 N   0  0  0  0  0  0  0  0  0  0  0  0
  -22.0623  -10.4003   19.7339 N   0  0  0  0  0  0  0  0  0  0  0  0
  -28.0588  -21.7720   22.7113 N   0  0  0  0  0  0  0  0  0  0  0  0
  -21.5766  -29.3881   22.3780 N   0  0  0  0  0  0  0  0  0  0  0  0
  -27.5156  -31.6383   20.7346 N   0  0  0  0  0  0  0  0  0  0  0  0
  -29.0466  -16.2441   22.0608 N   0  0  0  0  0  0  0  0  0  0  0  0
  -30.4108  -32.3581   22.7760 N   0  3  0  0  0  0  0  0  0  0  0  0
  -22.3818  -11.7780   17.9288 O   0  0  0  0  0  0  0  0  0  0  0  0
  -23.2536  -27.9727   21.5992 O   0  0  0  0  0  0  0  0  0  0  0  0
  -24.7012  -31.8282   21.2363 O   0  0  0  0  0  0  0  0  0  0  0  0
  -27.5566  -21.9280   25.0028 O   0  0  0  0  0  0  0  0  0  0  0  0
  -29.1442  -30.1844   21.5161 O   0  0  0  0  0  0  0  0  0  0  0  0
  -30.1532  -16.5198   20.0375 O   0  0  0  0  0  0  0  0  0  0  0  0
  -22.9180   -7.5790   24.4608 O   0  0  0  0  0  0  0  0  0  0  0  0
  -27.1975  -24.5838   24.8621 O   0  0  0  0  0  0  0  0  0  1  0  0
  -20.3719   -3.0254   22.6759 F   0  0  0  0  0  0  0  0  0  0  0  0
  -23.8908   -5.0697   25.0931 F   0  0  0  0  0  0  0  0  0  0  0  0
  1  2  1  0  0  0  0
  1  5  2  0  0  0  0
  2  6  2  0  0  0  0
  3 10  2  0  0  0  0
  3 18  1  0  0  0  0
  4 11  1  0  0  0  0
  4 18  2  0  0  0  0
  5 20  1  0  0  0  0
  6 22  1  0  0  0  0
  7 12  2  0  0  0  0
  7 21  1  0  0  0  0
  8  9  2  0  0  0  0
  8 24  1  0  0  0  0
  9 25  1  0  0  0  0
 10 27  1  0  0  0  0
 11 27  2  0  0  0  0
 12 28  1  0  0  0  0
 13 14  2  0  0  0  0
 13 29  1  0  0  0  0
 14 30  1  0  0  0  0
 15 23  1  0  0  0  0
 15 28  2  0  0  0  0
 16 24  2  0  0  0  0
 16 26  1  0  0  0  0
 17 30  2  0  0  0  0
 17 31  1  0  0  0  0
 18 32  1  0  0  0  0
 19 32  1  0  0  0  0
 19 33  2  0  0  0  0
 19 36  1  0  0  0  0
 20 22  2  0  0  0  0
 20 42  1  0  0  0  0
 21 23  2  0  0  0  0
 21 43  1  0  0  0  0
 22 51  1  0  0  0  0
 23 44  1  0  0  0  0
 24 73  1  0  0  0  0
 25 26  2  0  0  0  0
 25 70  1  0  0  0  0
 26 67  1  0  0  0  0
 27 81  1  0  0  0  0
 28 82  1  0  0  0  0
 29 31  2  0  0  0  0
 29 81  1  0  0  0  0
 30 83  1  0  0  0  0
 31 84  1  0  0  0  0
 32 63  2  0  0  0  0
 33 64  1  0  0  0  0
 33 68  1  0  0  0  0
 34 35  2  0  0  0  0
 35 73  1  0  0  0  0
 36 69  1  0  0  0  0
 36 75  2  0  0  0  0
 37 52  1  0  0  0  0
 37 71  1  0  0  0  0
 37 76  2  0  0  0  0
 38 60  1  0  0  0  0
 38 65  1  0  0  0  0
 38 77  2  0  0  0  0
 39 59  1  0  0  0  0
 39 70  1  0  0  0  0
 39 78  2  0  0  0  0
 40 61  1  0  0  0  0
 40 72  1  0  0  0  0
 40 79  2  0  0  0  0
 41 66  1  0  0  0  0
 41 73  1  0  0  0  0
 41 80  2  0  0  0  0
 42 45  1  0  0  0  0
 43 52  1  0  0  0  0
 44 65  1  0  0  0  0
 45 47  1  0  0  0  0
 46 48  1  0  0  0  0
 46 49  1  0  0  0  0
 47 51  1  0  0  0  0
 48 53  1  0  0  0  0
 49 66  1  0  0  0  0
 50 53  1  0  0  0  0
 50 66  1  0  0  0  0
 51 71  1  0  0  0  0
 52 65  1  0  0  0  0
 53 64  1  0  0  0  0
 54 61  1  0  0  0  0
 55 62  1  0  0  0  0
 56 62  1  0  0  0  0
 57 62  1  0  0  0  0
 58 74  1  0  0  0  0
 59 82  1  0  0  0  0
 60 62  1  0  0  0  0
 60 72  1  0  0  0  0
 61 74  1  0  0  0  0
 63 64  1  0  0  0  0
M  CHG  1  74   1
M  ISO  4  41 100  59 101  73 100  82 101
M  END
> <Batch ID>
0091

> <Smiles>
C=C[100N:0](c1ccc(NC(=O)[101CH2:1][101O:1]c2ccc3c(c2)CN(C(=O)C(NC(=O)C(C)NC)C(C)(C)C)C(C(=O)NC2CCCc4ccccc42)C3)c(N)c1)[100C:0](=O)N1CCCC(n2nc(-c3ccc(Oc4ccc(F)cc4F)cc3)c(C(N)=O)c2N)C1

> <Shape>
0.243

> <Color>
0.110

> <Negative vol penalty>
0.000

$$$$

  -OEChem-04052300313D

 84 92  0     1  0  0  0  0  0999 V2000
  -26.4366  -32.8752   27.1922 C   0  0  0  0  0  0  0  0  0  0  0  0
  -26.9935  -32.0311   26.2368 C   0  0  0  0  0  0  0  0  0  0  0  0
  -22.8234  -11.4969   18.7241 C   0  0  0  0  0  0  0  0  0  0  0  0
  -22.8217  -10.3603   20.8561 C   0  0  0  0  0  0  0  0  0  0  0  0
  -30.4387  -19.5320   19.3289 C   0  0  0  0  0  0  0  0  0  0  0  0
  -25.1495  -32.6322   27.6700 C   0  0  0  0  0  0  0  0  0  0  0  0
  -26.2640  -30.9428   25.7594 C   0  0  0  0  0  0  0  0  0  0  0  0
  -26.3666  -28.6468   20.0829 C   0  0  0  0  0  0  0  0  0  0  0  0
  -29.6235  -20.6631   19.2864 C   0  0  0  0  0  0  0  0  0  0  0  0
  -21.8021  -10.6590   18.2765 C   0  0  0  0  0  0  0  0  0  0  0  0
  -21.8003   -9.5223   20.4085 C   0  0  0  0  0  0  0  0  0  0  0  0
  -27.0390  -27.5619   19.5219 C   0  0  0  0  0  0  0  0  0  0  0  0
  -21.5031   -6.7873   18.4433 C   0  0  0  0  0  0  0  0  0  0  0  0
  -21.6236   -5.4224   18.7040 C   0  0  0  0  0  0  0  0  0  0  0  0
  -28.5989  -18.2392   20.2125 C   0  0  0  0  0  0  0  0  0  0  0  0
  -25.0821  -26.1891   19.8463 C   0  0  0  0  0  0  0  0  0  0  0  0
  -19.5627   -5.4810   19.9634 C   0  0  0  0  0  0  0  0  0  0  0  0
  -23.3333  -11.3476   20.0139 C   0  0  0  0  0  0  0  0  0  0  0  0
  -29.9264  -18.3200   19.7919 C   0  0  0  0  0  0  0  0  0  0  0  0
  -24.2474  -13.4484   21.1357 C   0  0  0  0  0  0  0  0  0  0  0  0
  -24.4001  -31.5460   27.1912 C   0  0  0  0  0  0  0  0  0  0  0  0
  -25.0484  -28.5079   20.5405 C   0  0  0  0  0  0  0  0  0  0  0  0
  -24.9662  -30.6843   26.2323 C   0  0  0  0  0  0  0  0  0  0  0  0
  -24.3944  -27.2744   20.4104 C   0  0  0  0  0  0  0  0  0  0  0  0
  -28.2960  -20.5822   19.7071 C   0  0  0  0  0  0  0  0  0  0  0  0
  -27.7837  -19.3702   20.1701 C   0  0  0  0  0  0  0  0  0  0  0  0
  -21.2906   -9.6717   19.1187 C   0  0  0  0  0  0  0  0  0  0  0  0
  -26.3977  -26.3320   19.4062 C   0  0  0  0  0  0  0  0  0  0  0  0
  -20.4124   -7.4991   18.9427 C   0  0  0  0  0  0  0  0  0  0  0  0
  -20.6534   -4.7692   19.4640 C   0  0  0  0  0  0  0  0  0  0  0  0
  -19.4422   -6.8459   19.7027 C   0  0  0  0  0  0  0  0  0  0  0  0
  -24.3887  -12.2125   20.4767 C   0  0  0  0  0  0  0  0  0  0  0  0
  -25.5362  -13.8667   21.3608 C   0  0  0  0  0  0  0  0  0  0  0  0
  -30.7950  -17.1157   19.8366 C   0  0  0  0  0  0  0  0  0  0  0  0
  -23.0577  -14.1550   21.5110 C   0  0  0  0  0  0  0  0  0  0  0  0
  -23.6116  -28.7931   23.3615 C   0  0  0  0  0  0  0  0  0  0  0  0
  -20.9236  -28.3557   21.5991 C   0  0  0  0  0  0  0  0  0  0  0  0
  -27.8544  -23.0111   19.2177 C   0  0  0  0  0  0  0  0  0  0  0  0
  -19.4911  -27.1236   18.7572 C   0  0  0  0  0  0  0  0  0  0  0  0
  -30.7672  -14.6446   19.7088 C   0  0  0  0  0  0  0  0  0  0  0  0
  -23.0310  -31.2962   27.7723 C   0  0  0  0  0  0  0  0  0  0  0  0
  -24.3279  -29.6948   21.1188 C   0  0  0  0  0  0  0  0  0  0  0  0
  -22.9728  -27.0785   20.8678 C   0  0  0  0  0  0  0  0  0  0  0  0
  -22.1814  -30.3391   26.9401 C   0  0  0  0  0  0  0  0  0  0  0  0
  -29.9358  -11.4075   20.8610 C   0  0  0  0  0  0  0  0  0  0  0  0
  -22.9958  -29.1130   26.5396 C   0  0  0  0  0  0  0  0  0  0  0  0
  -28.4062  -11.4294   20.9267 C   0  0  0  0  0  0  0  0  0  0  0  0
  -30.4631  -12.1848   19.6557 C   0  0  0  0  0  0  0  0  0  0  0  0
  -28.4340  -13.5765   19.5950 C   0  0  0  0  0  0  0  0  0  0  0  0
  -24.1968  -29.5078   25.6718 C   0  0  1  0  0  0  0  0  0  0  0  0
  -23.1621  -29.3043   22.0220 C   0  0  1  0  0  0  0  0  0  0  0  0
  -27.8564  -12.8668   20.8302 C   0  0  1  0  0  0  0  0  0  0  0  0
  -17.2691  -26.8828   17.6161 C   0  0  0  0  0  0  0  0  0  0  0  0
  -20.1925  -26.0889   23.5062 C   0  0  0  0  0  0  0  0  0  0  0  0
  -18.5268  -25.2957   21.8138 C   0  0  0  0  0  0  0  0  0  0  0  0
  -18.2768  -27.5538   22.8439 C   0  0  0  0  0  0  0  0  0  0  0  0
  -20.3790  -28.7297   16.4353 C   0  0  0  0  0  0  0  0  0  0  0  0
  -26.6854  -23.9727   19.3240 C   0  0  0  0  0  0  0  0  0  1  0  0
  -20.1181  -27.1579   21.1572 C   0  0  1  0  0  0  0  0  0  0  0  0
  -18.5150  -27.7408   17.7720 C   0  0  2  0  0  0  0  0  0  0  0  0
  -19.3060  -26.5269   22.3233 C   0  0  0  0  0  0  0  0  0  0  0  0
  -25.6663  -11.8682   20.2947 N   0  0  0  0  0  0  0  0  0  0  0  0
  -26.3397  -12.8940   20.8427 N   0  0  0  0  0  0  0  0  0  0  0  0
  -22.3129  -28.2674   21.4322 N   0  0  0  0  0  0  0  0  0  0  0  0
  -29.9033  -13.5375   19.6425 N   0  0  0  0  0  0  0  0  0  0  0  0
  -26.4420  -19.2647   20.6002 N   0  0  0  0  0  0  0  0  0  0  0  0
  -26.0491  -14.9681   21.9492 N   0  0  0  0  0  0  0  0  0  0  0  0
  -21.8157  -13.5827   21.2040 N   0  0  0  0  0  0  0  0  0  0  0  0
  -27.4876  -21.7424   19.6537 N   0  0  0  0  0  0  0  0  0  0  0  0
  -30.1333  -15.8918   19.7333 N   0  0  0  0  0  0  0  0  0  0  0  0
  -23.7724  -29.7800   24.3152 N   0  0  0  0  0  0  0  0  0  0  0  0
  -19.3015  -27.6067   20.0347 N   0  0  0  0  0  0  0  0  0  0  0  0
  -19.1539  -27.8892   16.4338 N   0  3  0  0  0  0  0  0  0  0  0  0
  -32.0118  -17.2587   19.9191 O   0  0  0  0  0  0  0  0  0  0  0  0
  -23.0949  -15.2690   22.0865 O   0  0  0  0  0  0  0  0  0  0  0  0
  -23.7972  -27.5920   23.5185 O   0  0  0  0  0  0  0  0  0  0  0  0
  -20.3410  -29.3366   22.0683 O   0  0  0  0  0  0  0  0  0  0  0  0
  -28.9476  -23.3729   18.7953 O   0  0  0  0  0  0  0  0  0  0  0  0
  -20.3347  -26.2929   18.4273 O   0  0  0  0  0  0  0  0  0  0  0  0
  -31.9951  -14.5318   19.7789 O   0  0  0  0  0  0  0  0  0  0  0  0
  -20.2938   -8.8540   18.6823 O   0  0  0  0  0  0  0  0  0  0  0  0
  -27.0519  -25.2713   18.8596 O   0  0  0  0  0  0  0  0  0  1  0  0
  -20.7685   -3.4581   19.7130 F   0  0  0  0  0  0  0  0  0  0  0  0
  -18.3915   -7.5243   20.1842 F   0  0  0  0  0  0  0  0  0  0  0  0
  1  2  1  0  0  0  0
  1  6  2  0  0  0  0
  2  7  2  0  0  0  0
  3 10  2  0  0  0  0
  3 18  1  0  0  0  0
  4 11  1  0  0  0  0
  4 18  2  0  0  0  0
  5  9  2  0  0  0  0
  5 19  1  0  0  0  0
  6 21  1  0  0  0  0
  7 23  1  0  0  0  0
  8 12  2  0  0  0  0
  8 22  1  0  0  0  0
  9 25  1  0  0  0  0
 10 27  1  0  0  0  0
 11 27  2  0  0  0  0
 12 28  1  0  0  0  0
 13 14  2  0  0  0  0
 13 29  1  0  0  0  0
 14 30  1  0  0  0  0
 15 19  2  0  0  0  0
 15 26  1  0  0  0  0
 16 24  1  0  0  0  0
 16 28  2  0  0  0  0
 17 30  2  0  0  0  0
 17 31  1  0  0  0  0
 18 32  1  0  0  0  0
 19 34  1  0  0  0  0
 20 32  1  0  0  0  0
 20 33  2  0  0  0  0
 20 35  1  0  0  0  0
 21 23  2  0  0  0  0
 21 41  1  0  0  0  0
 22 24  2  0  0  0  0
 22 42  1  0  0  0  0
 23 50  1  0  0  0  0
 24 43  1  0  0  0  0
 25 26  2  0  0  0  0
 25 69  1  0  0  0  0
 26 66  1  0  0  0  0
 27 81  1  0  0  0  0
 28 82  1  0  0  0  0
 29 31  2  0  0  0  0
 29 81  1  0  0  0  0
 30 83  1  0  0  0  0
 31 84  1  0  0  0  0
 32 62  2  0  0  0  0
 33 63  1  0  0  0  0
 33 67  1  0  0  0  0
 34 70  1  0  0  0  0
 34 74  2  0  0  0  0
 35 68  1  0  0  0  0
 35 75  2  0  0  0  0
 36 51  1  0  0  0  0
 36 71  1  0  0  0  0
 36 76  2  0  0  0  0
 37 59  1  0  0  0  0
 37 64  1  0  0  0  0
 37 77  2  0  0  0  0
 38 58  1  0  0  0  0
 38 69  1  0  0  0  0
 38 78  2  0  0  0  0
 39 60  1  0  0  0  0
 39 72  1  0  0  0  0
 39 79  2  0  0  0  0
 40 65  1  0  0  0  0
 40 70  1  0  0  0  0
 40 80  2  0  0  0  0
 41 44  1  0  0  0  0
 42 51  1  0  0  0  0
 43 64  1  0  0  0  0
 44 46  1  0  0  0  0
 45 47  1  0  0  0  0
 45 48  1  0  0  0  0
 46 50  1  0  0  0  0
 47 52  1  0  0  0  0
 48 65  1  0  0  0  0
 49 52  1  0  0  0  0
 49 65  1  0  0  0  0
 50 71  1  0  0  0  0
 51 64  1  0  0  0  0
 52 63  1  0  0  0  0
 53 60  1  0  0  0  0
 54 61  1  0  0  0  0
 55 61  1  0  0  0  0
 56 61  1  0  0  0  0
 57 73  1  0  0  0  0
 58 82  1  0  0  0  0
 59 61  1  0  0  0  0
 59 72  1  0  0  0  0
 60 73  1  0  0  0  0
 62 63  1  0  0  0  0
M  CHG  1  73   1
M  ISO  4  40 100  58 101  70 100  82 101
M  END
> <Batch ID>
0091

> <Smiles>
CNC(C)C(=O)NC(C(=O)N1Cc2cc([101O:1][101CH2:1]C(=O)Nc3ccc(C(=O)[100NH:0][100C:0](=O)N4CCCC(n5nc(-c6ccc(Oc7ccc(F)cc7F)cc6)c(C(N)=O)c5N)C4)cc3N)ccc2CC1C(=O)NC1CCCc2ccccc21)C(C)(C)C

> <Shape>
0.296

> <Color>
0.097

> <Negative vol penalty>
0.000

$$$$

  -OEChem-04052300313D

 86 95  0     1  0  0  0  0  0999 V2000
  -22.6869  -27.7515   21.9986 C   0  0  0  0  0  0  0  0  0  0  0  0
  -23.5029  -26.8866   22.7208 C   0  0  0  0  0  0  0  0  0  0  0  0
  -23.1264   -9.7450   20.1298 C   0  0  0  0  0  0  0  0  0  0  0  0
  -23.7828  -10.0290   22.4375 C   0  0  0  0  0  0  0  0  0  0  0  0
  -23.2341  -28.5479   20.9935 C   0  0  0  0  0  0  0  0  0  0  0  0
  -24.8665  -26.8168   22.4375 C   0  0  0  0  0  0  0  0  0  0  0  0
  -29.4117  -25.8606   26.4290 C   0  0  0  0  0  0  0  0  0  0  0  0
  -22.3835   -8.6175   20.4798 C   0  0  0  0  0  0  0  0  0  0  0  0
  -23.0399   -8.9016   22.7876 C   0  0  0  0  0  0  0  0  0  0  0  0
  -30.1282  -24.7168   26.7782 C   0  0  0  0  0  0  0  0  0  0  0  0
  -21.0243   -6.3083   24.3466 C   0  0  0  0  0  0  0  0  0  0  0  0
  -20.2169   -6.3894   25.4811 C   0  0  0  0  0  0  0  0  0  0  0  0
  -31.8666  -25.3392   25.2258 C   0  0  0  0  0  0  0  0  0  0  0  0
  -30.2838  -18.7487   23.5401 C   0  0  0  0  0  0  0  0  0  0  0  0
  -31.9237  -16.8579   22.3078 C   0  0  0  0  0  0  0  0  0  0  0  0
  -18.9872   -8.2100   24.4758 C   0  0  0  0  0  0  0  0  0  0  0  0
  -23.8261  -10.4507   21.1086 C   0  0  0  0  0  0  0  0  0  0  0  0
  -24.1480  -12.9498   20.7103 C   0  0  0  0  0  0  0  0  0  0  0  0
  -24.6067  -28.4949   20.7042 C   0  0  0  0  0  0  0  0  0  0  0  0
  -29.9129  -26.7482   25.4660 C   0  0  0  0  0  0  0  0  0  0  0  0
  -25.4323  -27.6123   21.4266 C   0  0  0  0  0  0  0  0  0  0  0  0
  -31.1556  -26.4950   24.8680 C   0  0  0  0  0  0  0  0  0  0  0  0
  -31.6637  -18.7861   23.7402 C   0  0  0  0  0  0  0  0  0  0  0  0
  -29.7238  -17.7659   22.7238 C   0  0  0  0  0  0  0  0  0  0  0  0
  -32.4837  -17.8407   23.1241 C   0  0  0  0  0  0  0  0  0  0  0  0
  -30.5438  -16.8205   22.1077 C   0  0  0  0  0  0  0  0  0  0  0  0
  -22.3402   -8.1958   21.8087 C   0  0  0  0  0  0  0  0  0  0  0  0
  -31.3545  -24.4544   26.1744 C   0  0  0  0  0  0  0  0  0  0  0  0
  -20.8133   -7.1781   23.2767 C   0  0  0  0  0  0  0  0  0  0  0  0
  -19.1983   -7.3402   25.5457 C   0  0  0  0  0  0  0  0  0  0  0  0
  -19.7947   -8.1289   23.3413 C   0  0  0  0  0  0  0  0  0  0  0  0
  -24.5941  -11.6151   20.7475 C   0  0  0  0  0  0  0  0  0  0  0  0
  -25.2479  -13.6684   20.3099 C   0  0  0  0  0  0  0  0  0  0  0  0
  -33.4038  -20.4056   24.5477 C   0  0  0  0  0  0  0  0  0  0  0  0
  -31.6765  -20.4679   25.6041 C   0  0  0  0  0  0  0  0  0  0  0  0
  -22.8550  -13.4916   21.0110 C   0  0  0  0  0  0  0  0  0  0  0  0
  -28.9266  -27.7598   22.6187 C   0  0  0  0  0  0  0  0  0  0  0  0
  -31.4841  -29.7394   22.8695 C   0  0  0  0  0  0  0  0  0  0  0  0
  -34.5460  -30.3568   24.2443 C   0  0  0  0  0  0  0  0  0  0  0  0
  -30.6902  -14.8091   20.5980 C   0  0  0  0  0  0  0  0  0  0  0  0
  -25.1442  -29.3403   19.5768 C   0  0  0  0  0  0  0  0  0  0  0  0
  -29.1403  -27.9915   25.1200 C   0  0  0  0  0  0  0  0  0  0  0  0
  -31.7472  -27.4268   23.8433 C   0  0  0  0  0  0  0  0  0  0  0  0
  -26.6641  -29.4806   19.5918 C   0  0  0  0  0  0  0  0  0  0  0  0
  -29.7067  -12.1207   18.4808 C   0  0  0  0  0  0  0  0  0  0  0  0
  -27.3234  -28.1227   19.8115 C   0  0  0  0  0  0  0  0  0  0  0  0
  -28.2522  -11.8593   18.8787 C   0  0  0  0  0  0  0  0  0  0  0  0
  -30.5648  -12.5009   19.6861 C   0  0  0  0  0  0  0  0  0  0  0  0
  -28.5910  -13.3518   20.8899 C   0  0  0  0  0  0  0  0  0  0  0  0
  -26.9204  -27.5264   21.1655 C   0  0  1  0  0  0  0  0  0  0  0  0
  -32.9832  -21.2699   25.7512 C   0  0  0  0  0  0  0  0  0  0  0  0
  -29.5043  -28.5598   23.7518 C   0  0  1  0  0  0  0  0  0  0  0  0
  -27.6735  -13.0287   19.6992 C   0  0  2  0  0  0  0  0  0  0  0  0
  -36.4093  -32.0377   24.2294 C   0  0  0  0  0  0  0  0  0  0  0  0
  -32.3987  -28.6977   20.1513 C   0  0  0  0  0  0  0  0  0  0  0  0
  -34.6627  -29.6569   20.6235 C   0  0  0  0  0  0  0  0  0  0  0  0
  -32.6792  -31.1620   20.4724 C   0  0  0  0  0  0  0  0  0  0  0  0
  -34.2307  -30.9046   27.1356 C   0  0  0  0  0  0  0  0  0  0  0  0
  -32.8869  -22.7632   25.5057 C   0  0  0  0  0  0  0  0  0  1  0  0
  -32.9419  -29.6563   22.4863 C   0  0  1  0  0  0  0  0  0  0  0  0
  -35.1215  -31.5956   24.9067 C   0  0  2  0  0  0  0  0  0  0  0  0
  -33.1588  -29.7745   20.9512 C   0  0  0  0  0  0  0  0  0  0  0  0
  -25.8773  -11.4904   20.3983 N   0  0  0  0  0  0  0  0  0  0  0  0
  -26.2469  -12.7560   20.1379 N   0  0  0  0  0  0  0  0  0  0  0  0
  -32.1934  -19.7638   24.5489 N   0  0  0  0  0  0  0  0  0  0  0  0
  -30.9508  -28.6258   23.5339 N   0  0  0  0  0  0  0  0  0  0  0  0
  -29.9570  -13.6179   20.4125 N   0  0  0  0  0  0  0  0  0  0  0  0
  -28.3235  -17.7460   22.5353 N   0  0  0  0  0  0  0  0  0  0  0  0
  -33.8840  -17.8607   23.3125 N   0  0  0  0  0  0  0  0  0  0  0  0
  -25.4482  -14.9855   20.0915 N   0  0  0  0  0  0  0  0  0  0  0  0
  -21.8381  -12.6125   21.4077 N   0  0  0  0  0  0  0  0  0  0  0  0
  -29.9978  -15.8129   21.2744 N   0  0  0  0  0  0  0  0  0  0  0  0
  -27.6600  -28.1590   22.2366 N   0  0  0  0  0  0  0  0  0  0  0  0
  -33.6282  -30.6798   23.2673 N   0  0  0  0  0  0  0  0  0  0  0  0
  -35.4143  -31.3263   26.3429 N   0  3  0  0  0  0  0  0  0  0  0  0
  -34.3839  -20.3088   23.8441 O   0  0  0  0  0  0  0  0  0  0  0  0
  -30.6013  -20.4454   26.1595 O   0  0  0  0  0  0  0  0  0  0  0  0
  -22.6043  -14.7168   20.9144 O   0  0  0  0  0  0  0  0  0  0  0  0
  -29.5820  -26.8489   22.1264 O   0  0  0  0  0  0  0  0  0  0  0  0
  -30.8440  -30.7577   22.5959 O   0  0  0  0  0  0  0  0  0  0  0  0
  -34.8802  -29.2168   24.5593 O   0  0  0  0  0  0  0  0  0  0  0  0
  -31.8373  -14.9394   20.1632 O   0  0  0  0  0  0  0  0  0  0  0  0
  -21.6152   -7.0959   22.1507 O   0  0  0  0  0  0  0  0  0  0  0  0
  -32.0557  -23.3383   26.5129 O   0  0  0  0  0  0  0  0  0  1  0  0
  -18.4220   -7.4169   26.6346 F   0  0  0  0  0  0  0  0  0  0  0  0
  -19.5864   -8.9664   22.3161 F   0  0  0  0  0  0  0  0  0  0  0  0
  1  2  1  0  0  0  0
  1  5  2  0  0  0  0
  2  6  2  0  0  0  0
  3  8  2  0  0  0  0
  3 17  1  0  0  0  0
  4  9  1  0  0  0  0
  4 17  2  0  0  0  0
  5 19  1  0  0  0  0
  6 21  1  0  0  0  0
  7 10  2  0  0  0  0
  7 20  1  0  0  0  0
  8 27  1  0  0  0  0
  9 27  2  0  0  0  0
 10 28  1  0  0  0  0
 11 12  2  0  0  0  0
 11 29  1  0  0  0  0
 12 30  1  0  0  0  0
 13 22  1  0  0  0  0
 13 28  2  0  0  0  0
 14 23  1  0  0  0  0
 14 24  2  0  0  0  0
 15 25  1  0  0  0  0
 15 26  2  0  0  0  0
 16 30  2  0  0  0  0
 16 31  1  0  0  0  0
 17 32  1  0  0  0  0
 18 32  1  0  0  0  0
 18 33  2  0  0  0  0
 18 36  1  0  0  0  0
 19 21  2  0  0  0  0
 19 41  1  0  0  0  0
 20 22  2  0  0  0  0
 20 42  1  0  0  0  0
 21 50  1  0  0  0  0
 22 43  1  0  0  0  0
 23 25  2  0  0  0  0
 23 65  1  0  0  0  0
 24 26  1  0  0  0  0
 24 68  1  0  0  0  0
 25 69  1  0  0  0  0
 26 72  1  0  0  0  0
 27 83  1  0  0  0  0
 28 84  1  0  0  0  0
 29 31  2  0  0  0  0
 29 83  1  0  0  0  0
 30 85  1  0  0  0  0
 31 86  1  0  0  0  0
 32 63  2  0  0  0  0
 33 64  1  0  0  0  0
 33 70  1  0  0  0  0
 34 51  1  0  0  0  0
 34 65  1  0  0  0  0
 34 76  2  0  0  0  0
 35 51  1  0  0  0  0
 35 65  1  0  0  0  0
 35 77  2  0  0  0  0
 36 71  1  0  0  0  0
 36 78  2  0  0  0  0
 37 52  1  0  0  0  0
 37 73  1  0  0  0  0
 37 79  2  0  0  0  0
 38 60  1  0  0  0  0
 38 66  1  0  0  0  0
 38 80  2  0  0  0  0
 39 61  1  0  0  0  0
 39 74  1  0  0  0  0
 39 81  2  0  0  0  0
 40 67  1  0  0  0  0
 40 72  1  0  0  0  0
 40 82  2  0  0  0  0
 41 44  1  0  0  0  0
 42 52  1  0  0  0  0
 43 66  1  0  0  0  0
 44 46  1  0  0  0  0
 45 47  1  0  0  0  0
 45 48  1  0  0  0  0
 46 50  1  0  0  0  0
 47 53  1  0  0  0  0
 48 67  1  0  0  0  0
 49 53  1  0  0  0  0
 49 67  1  0  0  0  0
 50 73  1  0  0  0  0
 51 59  1  0  0  0  0
 52 66  1  0  0  0  0
 53 64  1  0  0  0  0
 54 61  1  0  0  0  0
 55 62  1  0  0  0  0
 56 62  1  0  0  0  0
 57 62  1  0  0  0  0
 58 75  1  0  0  0  0
 59 84  1  0  0  0  0
 60 62  1  0  0  0  0
 60 74  1  0  0  0  0
 61 75  1  0  0  0  0
 63 64  1  0  0  0  0
M  CHG  1  75   1
M  ISO  4  40 100  59 101  72 100  84 101
M  END
> <Batch ID>
0091

> <Smiles>
CNC(C)C(=O)NC(C(=O)N1Cc2cc([101O:1][101CH2:1]C3C(=O)N(c4cc(N)c([100NH:0][100C:0](=O)N5CCCC(n6nc(-c7ccc(Oc8ccc(F)cc8F)cc7)c(C(N)=O)c6N)C5)cc4N)C3=O)ccc2CC1C(=O)NC1CCCc2ccccc21)C(C)(C)C

> <Shape>
0.205

> <Color>
0.180

> <Negative vol penalty>
0.000

$$$$

  -OEChem-04052300313D

 86 95  0     1  0  0  0  0  0999 V2000
  -30.0103  -31.7064   23.4310 C   0  0  0  0  0  0  0  0  0  0  0  0
  -29.4709  -30.4522   23.1639 C   0  0  0  0  0  0  0  0  0  0  0  0
  -23.0728   -9.8320   19.9459 C   0  0  0  0  0  0  0  0  0  0  0  0
  -23.8600   -9.8540   22.2299 C   0  0  0  0  0  0  0  0  0  0  0  0
  -29.2633  -16.9611   19.7734 C   0  0  0  0  0  0  0  0  0  0  0  0
  -29.1937  -32.7256   23.9191 C   0  0  0  0  0  0  0  0  0  0  0  0
  -28.1146  -30.2161   23.3858 C   0  0  0  0  0  0  0  0  0  0  0  0
  -25.9320  -27.6967   19.5736 C   0  0  0  0  0  0  0  0  0  0  0  0
  -28.5500  -18.0688   19.3154 C   0  0  0  0  0  0  0  0  0  0  0  0
  -22.3338   -8.6793   20.2116 C   0  0  0  0  0  0  0  0  0  0  0  0
  -23.1210   -8.7012   22.4957 C   0  0  0  0  0  0  0  0  0  0  0  0
  -26.1534  -26.3217   19.5097 C   0  0  0  0  0  0  0  0  0  0  0  0
  -19.9015   -7.9021   23.1416 C   0  0  0  0  0  0  0  0  0  0  0  0
  -19.1587   -7.8681   24.3216 C   0  0  0  0  0  0  0  0  0  0  0  0
  -28.8416  -17.6330   22.0554 C   0  0  0  0  0  0  0  0  0  0  0  0
  -23.9942  -25.9335   20.5131 C   0  0  0  0  0  0  0  0  0  0  0  0
  -25.7610  -21.3029   18.6924 C   0  0  0  0  0  0  0  0  0  0  0  0
  -20.4119   -5.9370   25.0548 C   0  0  0  0  0  0  0  0  0  0  0  0
  -27.5947  -21.3652   19.9975 C   0  0  0  0  0  0  0  0  0  0  0  0
  -23.8359  -10.4194   20.9550 C   0  0  0  0  0  0  0  0  0  0  0  0
  -29.4091  -16.7432   21.1434 C   0  0  0  0  0  0  0  0  0  0  0  0
  -24.1723  -12.9443   20.8158 C   0  0  0  0  0  0  0  0  0  0  0  0
  -27.8248  -32.5048   24.1379 C   0  0  0  0  0  0  0  0  0  0  0  0
  -24.7426  -28.2015   20.1186 C   0  0  0  0  0  0  0  0  0  0  0  0
  -27.2792  -31.2330   23.8785 C   0  0  0  0  0  0  0  0  0  0  0  0
  -23.7591  -27.3152   20.5803 C   0  0  0  0  0  0  0  0  0  0  0  0
  -26.6714  -22.1614   19.3566 C   0  0  0  0  0  0  0  0  0  0  0  0
  -27.9825  -18.9586   20.2273 C   0  0  0  0  0  0  0  0  0  0  0  0
  -28.1283  -18.7408   21.5974 C   0  0  0  0  0  0  0  0  0  0  0  0
  -22.3579   -8.1139   21.4865 C   0  0  0  0  0  0  0  0  0  0  0  0
  -25.1857  -25.4399   19.9822 C   0  0  0  0  0  0  0  0  0  0  0  0
  -20.8995   -6.9536   22.9180 C   0  0  0  0  0  0  0  0  0  0  0  0
  -19.4138   -6.8856   25.2783 C   0  0  0  0  0  0  0  0  0  0  0  0
  -21.1547   -5.9710   23.8747 C   0  0  0  0  0  0  0  0  0  0  0  0
  -24.6000  -11.6098   20.6810 C   0  0  0  0  0  0  0  0  0  0  0  0
  -25.2588  -13.6932   20.4350 C   0  0  0  0  0  0  0  0  0  0  0  0
  -26.1556  -20.0081   18.9478 C   0  0  0  0  0  0  0  0  0  0  0  0
  -30.1536  -15.5884   21.6201 C   0  0  0  0  0  0  0  0  0  0  0  0
  -22.9061  -13.4606   21.2467 C   0  0  0  0  0  0  0  0  0  0  0  0
  -30.7691  -14.6254   20.6782 C   0  0  0  0  0  0  0  0  0  0  0  0
  -24.0201  -30.0484   22.6027 C   0  0  0  0  0  0  0  0  0  0  0  0
  -21.0268  -29.8741   21.3648 C   0  0  0  0  0  0  0  0  0  0  0  0
  -18.7830  -28.1711   19.4382 C   0  0  0  0  0  0  0  0  0  0  0  0
  -26.9916  -33.6236   24.7112 C   0  0  0  0  0  0  0  0  0  0  0  0
  -24.5077  -29.6867   20.1557 C   0  0  0  0  0  0  0  0  0  0  0  0
  -22.4566  -27.8059   21.1559 C   0  0  0  0  0  0  0  0  0  0  0  0
  -25.4886  -33.4005   24.5645 C   0  0  0  0  0  0  0  0  0  0  0  0
  -29.5727  -12.3476   18.1808 C   0  0  0  0  0  0  0  0  0  0  0  0
  -25.1167  -31.9804   24.9790 C   0  0  0  0  0  0  0  0  0  0  0  0
  -28.1502  -12.0327   18.6426 C   0  0  0  0  0  0  0  0  0  0  0  0
  -30.5106  -12.5571   19.3651 C   0  0  0  0  0  0  0  0  0  0  0  0
  -28.6201  -13.2947   20.7901 C   0  0  0  0  0  0  0  0  0  0  0  0
  -25.8076  -30.9454   24.0829 C   0  0  1  0  0  0  0  0  0  0  0  0
  -23.4785  -30.1029   21.2022 C   0  0  1  0  0  0  0  0  0  0  0  0
  -27.6376  -13.1040   19.6215 C   0  0  2  0  0  0  0  0  0  0  0  0
  -16.4038  -28.2558   18.6449 C   0  0  0  0  0  0  0  0  0  0  0  0
  -20.0804  -28.9412   24.1115 C   0  0  0  0  0  0  0  0  0  0  0  0
  -17.9633  -28.1484   23.0356 C   0  0  0  0  0  0  0  0  0  0  0  0
  -18.5568  -30.5707   22.9810 C   0  0  0  0  0  0  0  0  0  0  0  0
  -19.6124  -28.3222   16.6012 C   0  0  0  0  0  0  0  0  0  0  0  0
  -26.6377  -23.6615   19.3618 C   0  0  0  0  0  0  0  0  0  1  0  0
  -19.8500  -28.9449   21.5399 C   0  0  1  0  0  0  0  0  0  0  0  0
  -17.8446  -28.6334   18.3382 C   0  0  2  0  0  0  0  0  0  0  0  0
  -19.1379  -29.1418   22.9080 C   0  0  0  0  0  0  0  0  0  0  0  0
  -25.8599  -11.5134   20.2482 N   0  0  0  0  0  0  0  0  0  0  0  0
  -30.3317  -15.3232   22.8861 N   0  0  0  0  0  0  0  0  0  0  0  0
  -27.2711  -20.0581   19.7423 N   0  0  0  0  0  0  0  0  0  0  0  0
  -26.2332  -12.7968   20.1077 N   0  0  0  0  0  0  0  0  0  0  0  0
  -29.9771  -13.5531   20.2922 N   0  0  0  0  0  0  0  0  0  0  0  0
  -22.2765  -29.2669   21.1764 N   0  0  0  0  0  0  0  0  0  0  0  0
  -27.5616  -19.6272   22.5416 N   0  0  0  0  0  0  0  0  0  0  0  0
  -25.4662  -15.0245   20.3514 N   0  0  0  0  0  0  0  0  0  0  0  0
  -21.8997  -12.5520   21.6015 N   0  0  0  0  0  0  0  0  0  0  0  0
  -25.1289  -30.8469   22.8085 N   0  0  0  0  0  0  0  0  0  0  0  0
  -18.9880  -29.1553   20.3819 N   0  0  0  0  0  0  0  0  0  0  0  0
  -18.2261  -28.0140   17.0375 N   0  3  0  0  0  0  0  0  0  0  0  0
  -22.6685  -14.6912   21.2995 O   0  0  0  0  0  0  0  0  0  0  0  0
  -31.9175  -14.8797   20.3394 O   0  0  0  0  0  0  0  0  0  0  0  0
  -23.4717  -29.3359   23.4353 O   0  0  0  0  0  0  0  0  0  0  0  0
  -20.8430  -31.0937   21.3871 O   0  0  0  0  0  0  0  0  0  0  0  0
  -19.2813  -27.0478   19.4602 O   0  0  0  0  0  0  0  0  0  0  0  0
  -25.6315  -18.8536   18.5542 O   0  0  0  0  0  0  0  0  0  0  0  0
  -21.6367   -6.9891   21.7463 O   0  0  0  0  0  0  0  0  0  0  0  0
  -25.3996  -24.0973   19.9216 O   0  0  0  0  0  0  0  0  0  1  0  0
  -18.7015   -6.8540   26.4121 F   0  0  0  0  0  0  0  0  0  0  0  0
  -22.1130   -5.0578   23.6661 F   0  0  0  0  0  0  0  0  0  0  0  0
  1  2  1  0  0  0  0
  1  6  2  0  0  0  0
  2  7  2  0  0  0  0
  3 10  2  0  0  0  0
  3 20  1  0  0  0  0
  4 11  1  0  0  0  0
  4 20  2  0  0  0  0
  5  9  2  0  0  0  0
  5 21  1  0  0  0  0
  6 23  1  0  0  0  0
  7 25  1  0  0  0  0
  8 12  2  0  0  0  0
  8 24  1  0  0  0  0
  9 28  1  0  0  0  0
 10 30  1  0  0  0  0
 11 30  2  0  0  0  0
 12 31  1  0  0  0  0
 13 14  2  0  0  0  0
 13 32  1  0  0  0  0
 14 33  1  0  0  0  0
 15 21  2  0  0  0  0
 15 29  1  0  0  0  0
 16 26  1  0  0  0  0
 16 31  2  0  0  0  0
 17 27  1  0  0  0  0
 17 37  2  0  0  0  0
 18 33  2  0  0  0  0
 18 34  1  0  0  0  0
 19 27  2  0  0  0  0
 19 67  1  0  0  0  0
 20 35  1  0  0  0  0
 21 38  1  0  0  0  0
 22 35  1  0  0  0  0
 22 36  2  0  0  0  0
 22 39  1  0  0  0  0
 23 25  2  0  0  0  0
 23 44  1  0  0  0  0
 24 26  2  0  0  0  0
 24 45  1  0  0  0  0
 25 53  1  0  0  0  0
 26 46  1  0  0  0  0
 27 61  1  0  0  0  0
 28 29  2  0  0  0  0
 28 67  1  0  0  0  0
 29 71  1  0  0  0  0
 30 83  1  0  0  0  0
 31 84  1  0  0  0  0
 32 34  2  0  0  0  0
 32 83  1  0  0  0  0
 33 85  1  0  0  0  0
 34 86  1  0  0  0  0
 35 65  2  0  0  0  0
 36 68  1  0  0  0  0
 36 72  1  0  0  0  0
 37 67  1  0  0  0  0
 37 82  1  0  0  0  0
 38 40  1  0  0  0  0
 38 66  2  0  0  0  0
 39 73  1  0  0  0  0
 39 77  2  0  0  0  0
 40 69  1  0  0  0  0
 40 78  2  0  0  0  0
 41 54  1  0  0  0  0
 41 74  1  0  0  0  0
 41 79  2  0  0  0  0
 42 62  1  0  0  0  0
 42 70  1  0  0  0  0
 42 80  2  0  0  0  0
 43 63  1  0  0  0  0
 43 75  1  0  0  0  0
 43 81  2  0  0  0  0
 44 47  1  0  0  0  0
 45 54  1  0  0  0  0
 46 70  1  0  0  0  0
 47 49  1  0  0  0  0
 48 50  1  0  0  0  0
 48 51  1  0  0  0  0
 49 53  1  0  0  0  0
 50 55  1  0  0  0  0
 51 69  1  0  0  0  0
 52 55  1  0  0  0  0
 52 69  1  0  0  0  0
 53 74  1  0  0  0  0
 54 70  1  0  0  0  0
 55 68  1  0  0  0  0
 56 63  1  0  0  0  0
 57 64  1  0  0  0  0
 58 64  1  0  0  0  0
 59 64  1  0  0  0  0
 60 76  1  0  0  0  0
 61 84  1  0  0  0  0
 62 64  1  0  0  0  0
 62 75  1  0  0  0  0
 63 76  1  0  0  0  0
 65 68  1  0  0  0  0
M  CHG  1  76   1
M  ISO  4  38 100  40 100  61 101  84 101
M  END
> <Batch ID>
0091

> <Smiles>
CNC(C)C(=O)NC(C(=O)N1Cc2cc([101O:1][101CH2:1]C3=CN(c4ccc([100C:0](=N)[100C:0](=O)N5CCCC(n6nc(-c7ccc(Oc8ccc(F)cc8F)cc7)c(C(N)=O)c6N)C5)cc4N)C(=O)C3)ccc2CC1C(=O)NC1CCCc2ccccc21)C(C)(C)C

> <Shape>
0.374

> <Color>
0.193

> <Negative vol penalty>
0.000

$$$$

  -OEChem-04052300313D

 86 95  0     1  0  0  0  0  0999 V2000
  -27.6489  -36.4581   24.7172 C   0  0  0  0  0  0  0  0  0  0  0  0
  -28.1794  -35.3233   24.1121 C   0  0  0  0  0  0  0  0  0  0  0  0
  -32.8811  -20.0282   20.5938 C   0  0  0  0  0  0  0  0  0  0  0  0
  -25.7957  -14.0952   21.7075 C   0  0  0  0  0  0  0  0  0  0  0  0
  -24.8265  -15.0947   19.7329 C   0  0  0  0  0  0  0  0  0  0  0  0
  -26.4142  -36.3905   25.3615 C   0  0  0  0  0  0  0  0  0  0  0  0
  -27.4761  -34.1199   24.1519 C   0  0  0  0  0  0  0  0  0  0  0  0
  -27.2909  -29.8184   19.7966 C   0  0  0  0  0  0  0  0  0  0  0  0
  -32.3086  -21.0612   19.8516 C   0  0  0  0  0  0  0  0  0  0  0  0
  -32.5416  -19.8632   21.9366 C   0  0  0  0  0  0  0  0  0  0  0  0
  -24.7913  -13.1274   21.7107 C   0  0  0  0  0  0  0  0  0  0  0  0
  -23.8220  -14.1268   19.7361 C   0  0  0  0  0  0  0  0  0  0  0  0
  -27.9776  -28.6157   19.6363 C   0  0  0  0  0  0  0  0  0  0  0  0
  -22.6888  -10.1789   22.0287 C   0  0  0  0  0  0  0  0  0  0  0  0
  -23.0663   -8.8532   22.2422 C   0  0  0  0  0  0  0  0  0  0  0  0
  -26.1247  -27.4324   20.6291 C   0  0  0  0  0  0  0  0  0  0  0  0
  -30.0124  -24.1453   18.0111 C   0  0  0  0  0  0  0  0  0  0  0  0
  -24.4651   -8.9346   20.2740 C   0  0  0  0  0  0  0  0  0  0  0  0
  -30.4250  -24.1650   20.2245 C   0  0  0  0  0  0  0  0  0  0  0  0
  -25.8133  -15.0789   20.7186 C   0  0  0  0  0  0  0  0  0  0  0  0
  -28.0978  -16.0083   20.0666 C   0  0  0  0  0  0  0  0  0  0  0  0
  -25.6910  -35.1881   25.4008 C   0  0  0  0  0  0  0  0  0  0  0  0
  -26.0183  -29.8384   20.3853 C   0  0  0  0  0  0  0  0  0  0  0  0
  -26.2313  -34.0359   24.7984 C   0  0  0  0  0  0  0  0  0  0  0  0
  -25.4229  -28.6363   20.7934 C   0  0  0  0  0  0  0  0  0  0  0  0
  -29.9145  -24.9210   19.1925 C   0  0  0  0  0  0  0  0  0  0  0  0
  -31.3968  -21.9292   20.4522 C   0  0  0  0  0  0  0  0  0  0  0  0
  -31.6298  -20.7312   22.5373 C   0  0  0  0  0  0  0  0  0  0  0  0
  -23.8045  -13.1432   20.7250 C   0  0  0  0  0  0  0  0  0  0  0  0
  -27.3958  -27.4228   20.0552 C   0  0  0  0  0  0  0  0  0  0  0  0
  -23.1994  -10.8825   20.9378 C   0  0  0  0  0  0  0  0  0  0  0  0
  -23.9545   -8.2310   21.3649 C   0  0  0  0  0  0  0  0  0  0  0  0
  -24.0876  -10.2603   20.0605 C   0  0  0  0  0  0  0  0  0  0  0  0
  -31.0574  -21.7642   21.7951 C   0  0  0  0  0  0  0  0  0  0  0  0
  -26.8503  -16.0793   20.7151 C   0  0  0  0  0  0  0  0  0  0  0  0
  -28.7100  -17.2002   20.3684 C   0  0  0  0  0  0  0  0  0  0  0  0
  -30.5797  -22.9387   18.3571 C   0  0  0  0  0  0  0  0  0  0  0  0
  -28.6535  -14.9588   19.2632 C   0  0  0  0  0  0  0  0  0  0  0  0
  -24.7754  -31.1570   22.9968 C   0  0  0  0  0  0  0  0  0  0  0  0
  -21.9944  -30.0179   21.7759 C   0  0  0  0  0  0  0  0  0  0  0  0
  -20.4281  -27.7566   19.7560 C   0  0  0  0  0  0  0  0  0  0  0  0
  -30.0252  -20.9108   24.4567 C   0  0  0  0  0  0  0  0  0  0  0  0
  -24.3824  -35.1522   26.1499 C   0  0  0  0  0  0  0  0  0  0  0  0
  -25.2795  -31.1409   20.5267 C   0  0  0  0  0  0  0  0  0  0  0  0
  -24.0504  -28.6014   21.4127 C   0  0  0  0  0  0  0  0  0  0  0  0
  -23.5270  -33.9307   25.8235 C   0  0  0  0  0  0  0  0  0  0  0  0
  -26.9263  -21.4133   22.4979 C   0  0  0  0  0  0  0  0  0  0  0  0
  -24.3742  -32.6625   25.8525 C   0  0  0  0  0  0  0  0  0  0  0  0
  -26.6908  -20.0378   21.8766 C   0  0  0  0  0  0  0  0  0  0  0  0
  -27.6669  -21.3147   23.8281 C   0  0  0  0  0  0  0  0  0  0  0  0
  -28.7228  -19.1893   23.1147 C   0  0  0  0  0  0  0  0  0  0  0  0
  -25.4870  -32.7182   24.7988 C   0  0  1  0  0  0  0  0  0  0  0  0
  -24.2041  -31.1035   21.6082 C   0  0  1  0  0  0  0  0  0  0  0  0
  -28.0140  -19.2643   21.7540 C   0  0  1  0  0  0  0  0  0  0  0  0
  -18.1456  -27.0480   18.9910 C   0  0  0  0  0  0  0  0  0  0  0  0
  -21.5238  -28.6450   24.4598 C   0  0  0  0  0  0  0  0  0  0  0  0
  -19.7849  -27.2261   23.3502 C   0  0  0  0  0  0  0  0  0  0  0  0
  -19.4904  -29.7009   23.4575 C   0  0  0  0  0  0  0  0  0  0  0  0
  -32.3539  -20.2477   24.8681 C   0  0  0  0  0  0  0  0  0  0  0  0
  -21.0599  -28.3636   16.9291 C   0  0  0  0  0  0  0  0  0  0  0  0
  -29.3578  -26.3101   19.3013 C   0  0  0  0  0  0  0  0  0  1  0  0
  -21.2238  -28.7255   21.8967 C   0  0  1  0  0  0  0  0  0  0  0  0
  -19.3522  -27.9262   18.6986 C   0  0  2  0  0  0  0  0  0  0  0  0
  -20.5324  -28.5749   23.2812 C   0  0  0  0  0  0  0  0  0  0  0  0
  -26.6787  -17.2256   21.3789 N   0  0  0  0  0  0  0  0  0  0  0  0
  -30.8261  -22.9618   19.7050 N   0  0  0  0  0  0  0  0  0  0  0  0
  -27.8265  -17.8858   21.1492 N   0  0  0  0  0  0  0  0  0  0  0  0
  -23.3708  -29.9017   21.5353 N   0  0  0  0  0  0  0  0  0  0  0  0
  -28.8936  -20.5250   23.7092 N   0  0  0  0  0  0  0  0  0  0  0  0
  -29.9124  -17.7182   20.0395 N   0  0  0  0  0  0  0  0  0  0  0  0
  -27.8900  -13.8023   19.0535 N   0  0  0  0  0  0  0  0  0  0  0  0
  -24.9521  -32.4382   23.4836 N   0  0  0  0  0  0  0  0  0  0  0  0
  -20.3058  -28.6901   20.7634 N   0  0  0  0  0  0  0  0  0  0  0  0
  -31.2808  -20.5581   23.9262 N   0  0  0  0  0  0  0  0  0  0  0  0
  -19.8843  -27.5616   17.3551 N   0  3  0  0  0  0  0  0  0  0  0  0
  -29.7999  -15.0372   18.7601 O   0  0  0  0  0  0  0  0  0  0  0  0
  -25.0353  -30.1132   23.5839 O   0  0  0  0  0  0  0  0  0  0  0  0
  -21.3960  -31.0912   21.8837 O   0  0  0  0  0  0  0  0  0  0  0  0
  -21.2886  -26.8811   19.6963 O   0  0  0  0  0  0  0  0  0  0  0  0
  -29.9240  -21.4812   25.5499 O   0  0  0  0  0  0  0  0  0  0  0  0
  -30.8767  -21.8806   17.6124 O   0  0  0  0  0  0  0  0  0  0  0  0
  -22.8243  -12.1988   20.7277 O   0  0  0  0  0  0  0  0  0  0  0  0
  -28.0642  -26.2476   19.9005 O   0  0  0  0  0  0  0  0  0  1  0  0
  -24.3181   -6.9584   21.5709 F   0  0  0  0  0  0  0  0  0  0  0  0
  -24.5824  -10.9314   19.0114 F   0  0  0  0  0  0  0  0  0  0  0  0
  -30.1797  -22.5980   22.3749 F   0  0  0  0  0  0  0  0  0  0  0  0
  1  2  1  0  0  0  0
  1  6  2  0  0  0  0
  2  7  2  0  0  0  0
  3  9  2  0  0  0  0
  3 10  1  0  0  0  0
  4 11  2  0  0  0  0
  4 20  1  0  0  0  0
  5 12  1  0  0  0  0
  5 20  2  0  0  0  0
  6 22  1  0  0  0  0
  7 24  1  0  0  0  0
  8 13  2  0  0  0  0
  8 23  1  0  0  0  0
  9 27  1  0  0  0  0
 10 28  2  0  0  0  0
 11 29  1  0  0  0  0
 12 29  2  0  0  0  0
 13 30  1  0  0  0  0
 14 15  2  0  0  0  0
 14 31  1  0  0  0  0
 15 32  1  0  0  0  0
 16 25  1  0  0  0  0
 16 30  2  0  0  0  0
 17 26  1  0  0  0  0
 17 37  2  0  0  0  0
 18 32  2  0  0  0  0
 18 33  1  0  0  0  0
 19 26  2  0  0  0  0
 19 66  1  0  0  0  0
 20 35  1  0  0  0  0
 21 35  1  0  0  0  0
 21 36  2  0  0  0  0
 21 38  1  0  0  0  0
 22 24  2  0  0  0  0
 22 43  1  0  0  0  0
 23 25  2  0  0  0  0
 23 44  1  0  0  0  0
 24 52  1  0  0  0  0
 25 45  1  0  0  0  0
 26 61  1  0  0  0  0
 27 34  2  0  0  0  0
 27 66  1  0  0  0  0
 28 34  1  0  0  0  0
 28 74  1  0  0  0  0
 29 82  1  0  0  0  0
 30 83  1  0  0  0  0
 31 33  2  0  0  0  0
 31 82  1  0  0  0  0
 32 84  1  0  0  0  0
 33 85  1  0  0  0  0
 34 86  1  0  0  0  0
 35 65  2  0  0  0  0
 36 67  1  0  0  0  0
 36 70  1  0  0  0  0
 37 66  1  0  0  0  0
 37 81  1  0  0  0  0
 38 71  1  0  0  0  0
 38 76  2  0  0  0  0
 39 53  1  0  0  0  0
 39 72  1  0  0  0  0
 39 77  2  0  0  0  0
 40 62  1  0  0  0  0
 40 68  1  0  0  0  0
 40 78  2  0  0  0  0
 41 63  1  0  0  0  0
 41 73  1  0  0  0  0
 41 79  2  0  0  0  0
 42 69  1  0  0  0  0
 42 74  1  0  0  0  0
 42 80  2  0  0  0  0
 43 46  1  0  0  0  0
 44 53  1  0  0  0  0
 45 68  1  0  0  0  0
 46 48  1  0  0  0  0
 47 49  1  0  0  0  0
 47 50  1  0  0  0  0
 48 52  1  0  0  0  0
 49 54  1  0  0  0  0
 50 69  1  0  0  0  0
 51 54  1  0  0  0  0
 51 69  1  0  0  0  0
 52 72  1  0  0  0  0
 53 68  1  0  0  0  0
 54 67  1  0  0  0  0
 55 63  1  0  0  0  0
 56 64  1  0  0  0  0
 57 64  1  0  0  0  0
 58 64  1  0  0  0  0
 59 74  1  0  0  0  0
 60 75  1  0  0  0  0
 61 83  1  0  0  0  0
 62 64  1  0  0  0  0
 62 73  1  0  0  0  0
 63 75  1  0  0  0  0
 65 67  1  0  0  0  0
M  CHG  1  75   1
M  ISO  4  42 100  61 101  74 100  83 101
M  END
> <Batch ID>
0091

> <Smiles>
CNC(C)C(=O)NC(C(=O)N1Cc2cc([101O:1][101CH2:1]C3=CN(c4cccc([100N:0](C)[100C:0](=O)N5CCCC(n6nc(-c7ccc(Oc8ccc(F)cc8F)cc7)c(C(N)=O)c6N)C5)c4F)C(=O)C3)ccc2CC1C(=O)NC1CCCc2ccccc21)C(C)(C)C

> <Shape>
0.298

> <Color>
0.076

> <Negative vol penalty>
0.000

$$$$

  -OEChem-04052300313D

 86 94  0     1  0  0  0  0  0999 V2000
  -29.6086  -37.6311   22.8806 C   0  0  0  0  0  0  0  0  0  0  0  0
  -29.4160  -36.3628   22.3422 C   0  0  0  0  0  0  0  0  0  0  0  0
  -24.4524   -9.3211   21.5774 C   0  0  0  0  0  0  0  0  0  0  0  0
  -24.6199  -10.6205   23.6073 C   0  0  0  0  0  0  0  0  0  0  0  0
  -29.8013  -20.8749   21.3198 C   0  0  0  0  0  0  0  0  0  0  0  0
  -28.9848  -37.9811   24.0774 C   0  0  0  0  0  0  0  0  0  0  0  0
  -28.6002  -35.4435   23.0009 C   0  0  0  0  0  0  0  0  0  0  0  0
  -24.9672  -31.2386   20.4267 C   0  0  0  0  0  0  0  0  0  0  0  0
  -29.7717  -19.5345   20.9351 C   0  0  0  0  0  0  0  0  0  0  0  0
  -24.1076   -8.1959   22.3261 C   0  0  0  0  0  0  0  0  0  0  0  0
  -24.2751   -9.4953   24.3561 C   0  0  0  0  0  0  0  0  0  0  0  0
  -25.1344  -29.8756   20.1857 C   0  0  0  0  0  0  0  0  0  0  0  0
  -21.3560   -6.9765   23.8671 C   0  0  0  0  0  0  0  0  0  0  0  0
  -20.2898   -6.1989   23.4152 C   0  0  0  0  0  0  0  0  0  0  0  0
  -23.9580  -29.3758   22.2316 C   0  0  0  0  0  0  0  0  0  0  0  0
  -27.3562  -19.5823   20.9547 C   0  0  0  0  0  0  0  0  0  0  0  0
  -21.7615   -4.2926   23.2230 C   0  0  0  0  0  0  0  0  0  0  0  0
  -24.7086  -10.5334   22.2180 C   0  0  0  0  0  0  0  0  0  0  0  0
  -28.6084  -21.5690   21.5220 C   0  0  0  0  0  0  0  0  0  0  0  0
  -24.1914  -12.6570   20.9024 C   0  0  0  0  0  0  0  0  0  0  0  0
  -28.1533  -37.0689   24.7461 C   0  0  0  0  0  0  0  0  0  0  0  0
  -24.3026  -31.6814   21.5794 C   0  0  0  0  0  0  0  0  0  0  0  0
  -27.9658  -35.7812   24.2085 C   0  0  0  0  0  0  0  0  0  0  0  0
  -23.7815  -30.7449   22.4836 C   0  0  0  0  0  0  0  0  0  0  0  0
  -28.5492  -18.8882   20.7525 C   0  0  0  0  0  0  0  0  0  0  0  0
  -24.0190   -8.2830   23.7154 C   0  0  0  0  0  0  0  0  0  0  0  0
  -24.6322  -28.9440   21.0896 C   0  0  0  0  0  0  0  0  0  0  0  0
  -22.6250   -6.4122   23.9968 C   0  0  0  0  0  0  0  0  0  0  0  0
  -20.4925   -4.8570   23.0932 C   0  0  0  0  0  0  0  0  0  0  0  0
  -27.3859  -20.9227   21.3394 C   0  0  0  0  0  0  0  0  0  0  0  0
  -22.8277   -5.0702   23.6748 C   0  0  0  0  0  0  0  0  0  0  0  0
  -25.0653  -11.6960   21.4452 C   0  0  0  0  0  0  0  0  0  0  0  0
  -25.0168  -13.5499   20.2637 C   0  0  0  0  0  0  0  0  0  0  0  0
  -25.9153  -27.0058   21.3499 C   0  0  0  0  0  0  0  0  0  1  0  0
  -28.6449  -22.9954   21.9343 C   0  0  0  0  0  0  0  0  0  0  0  0
  -22.7614  -12.7355   20.9696 C   0  0  0  0  0  0  0  0  0  0  0  0
  -26.1762  -25.7041   21.1810 C   0  0  0  0  0  0  0  0  0  0  0  0
  -27.4325  -25.1378   21.7609 C   0  0  0  0  0  0  0  0  0  0  0  0
  -25.1162  -33.4314   24.1051 C   0  0  0  0  0  0  0  0  0  0  0  0
  -21.9611  -33.1719   24.8125 C   0  0  0  0  0  0  0  0  0  0  0  0
  -19.0458  -31.4335   24.4578 C   0  0  0  0  0  0  0  0  0  0  0  0
  -29.6106  -16.6929   20.1198 C   0  0  0  0  0  0  0  0  0  0  0  0
  -27.5382  -37.4767   26.0614 C   0  0  0  0  0  0  0  0  0  0  0  0
  -24.1072  -33.1546   21.8114 C   0  0  0  0  0  0  0  0  0  0  0  0
  -23.0425  -31.1682   23.7258 C   0  0  0  0  0  0  0  0  0  0  0  0
  -26.3904  -36.5726   26.5033 C   0  0  0  0  0  0  0  0  0  0  0  0
  -29.9531  -13.2765   19.1773 C   0  0  0  0  0  0  0  0  0  0  0  0
  -26.7761  -35.1051   26.3469 C   0  0  0  0  0  0  0  0  0  0  0  0
  -28.6401  -12.6398   19.6386 C   0  0  0  0  0  0  0  0  0  0  0  0
  -30.4363  -14.3493   20.1517 C   0  0  0  0  0  0  0  0  0  0  0  0
  -28.1349  -14.7501   20.9342 C   0  0  0  0  0  0  0  0  0  0  0  0
  -27.0685  -34.7648   24.8806 C   0  0  1  0  0  0  0  0  0  0  0  0
  -23.8644  -33.5017   23.2770 C   0  0  1  0  0  0  0  0  0  0  0  0
  -27.5748  -13.7088   19.9515 C   0  0  2  0  0  0  0  0  0  0  0  0
  -16.6443  -31.4451   25.1856 C   0  0  0  0  0  0  0  0  0  0  0  0
  -22.7905  -32.1295   27.5576 C   0  0  0  0  0  0  0  0  0  0  0  0
  -20.4545  -31.2825   27.8646 C   0  0  0  0  0  0  0  0  0  0  0  0
  -20.8665  -33.7270   27.5860 C   0  0  0  0  0  0  0  0  0  0  0  0
  -18.0819  -31.6927   21.6716 C   0  0  0  0  0  0  0  0  0  0  0  0
  -21.1173  -32.1926   25.5923 C   0  0  1  0  0  0  0  0  0  0  0  0
  -17.6368  -31.8875   24.1217 C   0  0  2  0  0  0  0  0  0  0  0  0
  -21.3228  -32.3247   27.1278 C   0  0  0  0  0  0  0  0  0  0  0  0
  -26.3476  -11.9541   21.1747 N   0  0  0  0  0  0  0  0  0  0  0  0
  -26.2855  -13.0873   20.4550 N   0  0  0  0  0  0  0  0  0  0  0  0
  -22.8826  -32.6199   23.9115 N   0  0  0  0  0  0  0  0  0  0  0  0
  -29.3762  -15.3295   20.3972 N   0  0  0  0  0  0  0  0  0  0  0  0
  -24.7738  -14.6777   19.5627 N   0  0  0  0  0  0  0  0  0  0  0  0
  -22.0693  -11.7354   21.6661 N   0  0  0  0  0  0  0  0  0  0  0  0
  -28.5192  -17.5265   20.3617 N   0  0  0  0  0  0  0  0  0  0  0  0
  -27.5708  -23.7746   21.5068 N   0  0  0  0  0  0  0  0  0  0  0  0
  -25.8338  -34.6118   24.1413 N   0  0  0  0  0  0  0  0  0  0  0  0
  -19.7414  -32.3996   25.1536 N   0  0  0  0  0  0  0  0  0  0  0  0
  -17.2076  -31.3184   22.8129 N   0  3  0  0  0  0  0  0  0  0  0  0
  -29.6020  -23.4052   22.5855 O   0  0  0  0  0  0  0  0  0  0  0  0
  -22.1152  -13.6561   20.4142 O   0  0  0  0  0  0  0  0  0  0  0  0
  -28.2302  -25.8279   22.3889 O   0  0  0  0  0  0  0  0  0  0  0  0
  -25.4084  -32.3844   24.6707 O   0  0  0  0  0  0  0  0  0  0  0  0
  -21.8032  -34.3823   24.9910 O   0  0  0  0  0  0  0  0  0  0  0  0
  -19.4843  -30.3305   24.1386 O   0  0  0  0  0  0  0  0  0  0  0  0
  -30.6906  -17.0878   19.6728 O   0  0  0  0  0  0  0  0  0  0  0  0
  -25.3318  -24.8585   20.4917 O   0  0  0  0  0  0  0  0  0  0  0  0
  -23.6823   -7.1852   24.4463 O   0  0  0  0  0  0  0  0  0  0  0  0
  -24.7946  -27.6131   20.8572 O   0  0  0  0  0  0  0  0  0  1  0  0
  -19.4682   -4.1100   22.6607 F   0  0  0  0  0  0  0  0  0  0  0  0
  -26.2331  -21.5798   21.5314 F   0  0  0  0  0  0  0  0  0  0  0  0
  -24.0443   -4.5221   23.7986 F   0  0  0  0  0  0  0  0  0  0  0  0
  1  2  1  0  0  0  0
  1  6  2  0  0  0  0
  2  7  2  0  0  0  0
  3 10  2  0  0  0  0
  3 18  1  0  0  0  0
  4 11  1  0  0  0  0
  4 18  2  0  0  0  0
  5  9  2  0  0  0  0
  5 19  1  0  0  0  0
  6 21  1  0  0  0  0
  7 23  1  0  0  0  0
  8 12  2  0  0  0  0
  8 22  1  0  0  0  0
  9 25  1  0  0  0  0
 10 26  1  0  0  0  0
 11 26  2  0  0  0  0
 12 27  1  0  0  0  0
 13 14  2  0  0  0  0
 13 28  1  0  0  0  0
 14 29  1  0  0  0  0
 15 24  1  0  0  0  0
 15 27  2  0  0  0  0
 16 25  2  0  0  0  0
 16 30  1  0  0  0  0
 17 29  2  0  0  0  0
 17 31  1  0  0  0  0
 18 32  1  0  0  0  0
 19 30  2  0  0  0  0
 19 35  1  0  0  0  0
 20 32  1  0  0  0  0
 20 33  2  0  0  0  0
 20 36  1  0  0  0  0
 21 23  2  0  0  0  0
 21 43  1  0  0  0  0
 22 24  2  0  0  0  0
 22 44  1  0  0  0  0
 23 52  1  0  0  0  0
 24 45  1  0  0  0  0
 25 69  1  0  0  0  0
 26 82  1  0  0  0  0
 27 83  1  0  0  0  0
 28 31  2  0  0  0  0
 28 82  1  0  0  0  0
 29 84  1  0  0  0  0
 30 85  1  0  0  0  0
 31 86  1  0  0  0  0
 32 63  2  0  0  0  0
 33 64  1  0  0  0  0
 33 67  1  0  0  0  0
 34 37  2  0  0  0  0
 34 83  1  0  0  0  0
 35 70  1  0  0  0  0
 35 74  2  0  0  0  0
 36 68  1  0  0  0  0
 36 75  2  0  0  0  0
 37 38  1  0  0  0  0
 37 81  1  0  0  0  0
 38 70  1  0  0  0  0
 38 76  2  0  0  0  0
 39 53  1  0  0  0  0
 39 71  1  0  0  0  0
 39 77  2  0  0  0  0
 40 60  1  0  0  0  0
 40 65  1  0  0  0  0
 40 78  2  0  0  0  0
 41 61  1  0  0  0  0
 41 72  1  0  0  0  0
 41 79  2  0  0  0  0
 42 66  1  0  0  0  0
 42 69  1  0  0  0  0
 42 80  2  0  0  0  0
 43 46  1  0  0  0  0
 44 53  1  0  0  0  0
 45 65  1  0  0  0  0
 46 48  1  0  0  0  0
 47 49  1  0  0  0  0
 47 50  1  0  0  0  0
 48 52  1  0  0  0  0
 49 54  1  0  0  0  0
 50 66  1  0  0  0  0
 51 54  1  0  0  0  0
 51 66  1  0  0  0  0
 52 71  1  0  0  0  0
 53 65  1  0  0  0  0
 54 64  1  0  0  0  0
 55 61  1  0  0  0  0
 56 62  1  0  0  0  0
 57 62  1  0  0  0  0
 58 62  1  0  0  0  0
 59 73  1  0  0  0  0
 60 62  1  0  0  0  0
 60 72  1  0  0  0  0
 61 73  1  0  0  0  0
 63 64  1  0  0  0  0
M  CHG  1  73   1
M  ISO  4  34 101  42 100  69 100  83 101
M  END
> <Batch ID>
0091

> <Smiles>
CNC(C)C(=O)NC(C(=O)N1Cc2cc([101O:1][101CH2:1]C(=O)C(=O)NC(=O)c3ccc([100NH:0][100C:0](=O)N4CCCC(n5nc(-c6ccc(Oc7ccc(F)cc7F)cc6)c(C(N)=O)c5N)C4)cc3F)ccc2CC1C(=O)NC1CCCc2ccccc21)C(C)(C)C

> <Shape>
0.288

> <Color>
0.107

> <Negative vol penalty>
0.000

$$$$

  -OEChem-04052300313D

 85 93  0     1  0  0  0  0  0999 V2000
  -26.1755  -35.6722   21.8826 C   0  0  0  0  0  0  0  0  0  0  0  0
  -26.6943  -34.3813   21.8749 C   0  0  0  0  0  0  0  0  0  0  0  0
  -25.0700   -8.7367   21.4948 C   0  0  0  0  0  0  0  0  0  0  0  0
  -23.5494  -10.5895   21.1917 C   0  0  0  0  0  0  0  0  0  0  0  0
  -24.8998  -35.9065   22.3941 C   0  0  0  0  0  0  0  0  0  0  0  0
  -25.9380  -33.3242   22.3798 C   0  0  0  0  0  0  0  0  0  0  0  0
  -26.0616  -29.2427   19.3846 C   0  0  0  0  0  0  0  0  0  0  0  0
  -23.9905   -7.8536   21.5129 C   0  0  0  0  0  0  0  0  0  0  0  0
  -22.4698   -9.7064   21.2097 C   0  0  0  0  0  0  0  0  0  0  0  0
  -27.2032  -28.4445   19.4430 C   0  0  0  0  0  0  0  0  0  0  0  0
  -21.6080   -5.1497   21.9990 C   0  0  0  0  0  0  0  0  0  0  0  0
  -21.5940   -4.1601   22.9819 C   0  0  0  0  0  0  0  0  0  0  0  0
  -26.0398  -26.8964   20.8814 C   0  0  0  0  0  0  0  0  0  0  0  0
  -29.0451  -20.0118   20.5788 C   0  0  0  0  0  0  0  0  0  0  0  0
  -29.2019  -19.3441   23.2830 C   0  0  0  0  0  0  0  0  0  0  0  0
  -21.6112   -5.8625   24.6961 C   0  0  0  0  0  0  0  0  0  0  0  0
  -24.8495  -10.1046   21.3343 C   0  0  0  0  0  0  0  0  0  0  0  0
  -26.7004  -11.4380   20.1923 C   0  0  0  0  0  0  0  0  0  0  0  0
  -24.1237  -34.8502   22.8966 C   0  0  0  0  0  0  0  0  0  0  0  0
  -24.9021  -28.8788   20.0842 C   0  0  0  0  0  0  0  0  0  0  0  0
  -24.6512  -33.5448   22.8997 C   0  0  0  0  0  0  0  0  0  0  0  0
  -24.8840  -27.6905   20.8282 C   0  0  0  0  0  0  0  0  0  0  0  0
  -29.0025  -18.6738   20.9704 C   0  0  0  0  0  0  0  0  0  0  0  0
  -29.1662  -21.0161   21.5393 C   0  0  0  0  0  0  0  0  0  0  0  0
  -29.0808  -18.3399   22.3224 C   0  0  0  0  0  0  0  0  0  0  0  0
  -29.2446  -20.6822   22.8914 C   0  0  0  0  0  0  0  0  0  0  0  0
  -22.6904   -8.3385   21.3703 C   0  0  0  0  0  0  0  0  0  0  0  0
  -27.1933  -27.2726   20.1938 C   0  0  0  0  0  0  0  0  0  0  0  0
  -21.6236   -6.4958   22.3646 C   0  0  0  0  0  0  0  0  0  0  0  0
  -21.5956   -4.5165   24.3304 C   0  0  0  0  0  0  0  0  0  0  0  0
  -21.6252   -6.8521   23.7132 C   0  0  0  0  0  0  0  0  0  0  0  0
  -25.9643  -11.0174   21.3161 C   0  0  0  0  0  0  0  0  0  0  0  0
  -27.6438  -12.2966   20.7014 C   0  0  0  0  0  0  0  0  0  0  0  0
  -26.5452  -11.0842   18.8115 C   0  0  0  0  0  0  0  0  0  0  0  0
  -29.2188  -24.3290   19.7557 C   0  0  0  0  0  0  0  0  0  0  0  0
  -29.1432  -22.8311   19.8223 C   0  0  0  0  0  0  0  0  0  0  0  0
  -23.1914  -30.1840   22.4238 C   0  0  0  0  0  0  0  0  0  0  0  0
  -21.1886  -27.7062   21.8141 C   0  0  0  0  0  0  0  0  0  0  0  0
  -20.7727  -24.5554   20.5706 C   0  0  0  0  0  0  0  0  0  0  0  0
  -29.1022  -16.5026   24.0459 C   0  0  0  0  0  0  0  0  0  0  0  0
  -22.7688  -35.1597   23.4826 C   0  0  0  0  0  0  0  0  0  0  0  0
  -23.6704  -29.7370   19.9894 C   0  0  0  0  0  0  0  0  0  0  0  0
  -23.6580  -27.2448   21.5811 C   0  0  0  0  0  0  0  0  0  0  0  0
  -21.8840  -33.9278   23.6550 C   0  0  0  0  0  0  0  0  0  0  0  0
  -28.9900  -13.2488   25.4871 C   0  0  0  0  0  0  0  0  0  0  0  0
  -22.6713  -32.7909   24.2988 C   0  0  0  0  0  0  0  0  0  0  0  0
  -28.2534  -12.4128   24.4380 C   0  0  0  0  0  0  0  0  0  0  0  0
  -28.4286  -14.6665   25.5789 C   0  0  0  0  0  0  0  0  0  0  0  0
  -27.6216  -14.5542   23.2539 C   0  0  0  0  0  0  0  0  0  0  0  0
  -23.8517  -32.3682   23.4158 C   0  0  1  0  0  0  0  0  0  0  0  0
  -22.7099  -29.5348   21.1572 C   0  0  1  0  0  0  0  0  0  0  0  0
  -28.1943  -13.1382   23.0794 C   0  0  2  0  0  0  0  0  0  0  0  0
  -28.8735  -17.6186   19.9201 C   0  0  0  0  0  0  0  0  0  0  0  0
  -19.0289  -22.7804   20.2451 C   0  0  0  0  0  0  0  0  0  0  0  0
  -21.3406  -27.0160   24.7823 C   0  0  0  0  0  0  0  0  0  0  0  0
  -20.3972  -24.7624   24.2353 C   0  0  0  0  0  0  0  0  0  0  0  0
  -19.0578  -26.8171   23.7806 C   0  0  0  0  0  0  0  0  0  0  0  0
  -21.0992  -24.6105   17.6296 C   0  0  0  0  0  0  0  0  0  0  0  0
  -28.1078  -25.0901   20.4309 C   0  0  0  0  0  0  0  0  0  1  0  0
  -21.0539  -26.2907   22.3211 C   0  0  1  0  0  0  0  0  0  0  0  0
  -19.7374  -23.9744   19.6245 C   0  0  2  0  0  0  0  0  0  0  0  0
  -20.4862  -26.2307   23.7673 C   0  0  0  0  0  0  0  0  0  0  0  0
  -26.4024  -11.5637   22.4535 N   0  0  0  0  0  0  0  0  0  0  0  0
  -27.4242  -12.3363   22.0469 N   0  0  0  0  0  0  0  0  0  0  0  0
  -22.4809  -28.1210   21.4624 N   0  0  0  0  0  0  0  0  0  0  0  0
  -28.4069  -15.2928   24.2552 N   0  0  0  0  0  0  0  0  0  0  0  0
  -29.3705  -21.6835   23.8807 N   0  0  0  0  0  0  0  0  0  0  0  0
  -28.6315  -13.0138   20.1250 N   0  0  0  0  0  0  0  0  0  0  0  0
  -25.5252  -10.1889   18.4618 N   0  0  0  0  0  0  0  0  0  0  0  0
  -29.2090  -22.3656   21.1179 N   0  0  0  0  0  0  0  0  0  0  0  0
  -29.0371  -16.9865   22.7396 N   0  0  0  0  0  0  0  0  0  0  0  0
  -23.3918  -31.5470   22.3165 N   0  0  0  0  0  0  0  0  0  0  0  0
  -20.2503  -25.5782   21.3337 N   0  0  0  0  0  0  0  0  0  0  0  0
  -20.3847  -23.5305   18.3577 N   0  3  0  0  0  0  0  0  0  0  0  0
  -27.2995  -11.5355   17.9166 O   0  0  0  0  0  0  0  0  0  0  0  0
  -30.1566  -24.8213   19.1468 O   0  0  0  0  0  0  0  0  0  0  0  0
  -29.0627  -22.2401   18.7582 O   0  0  0  0  0  0  0  0  0  0  0  0
  -23.3667  -29.4992   23.4249 O   0  0  0  0  0  0  0  0  0  0  0  0
  -20.1831  -28.4154   21.7264 O   0  0  0  0  0  0  0  0  0  0  0  0
  -21.9282  -24.1408   20.6296 O   0  0  0  0  0  0  0  0  0  0  0  0
  -29.7332  -17.0535   24.9516 O   0  0  0  0  0  0  0  0  0  0  0  0
  -21.6367   -7.4770   21.3876 O   0  0  0  0  0  0  0  0  0  0  0  0
  -28.3064  -26.4920   20.2530 O   0  0  0  0  0  0  0  0  0  1  0  0
  -21.5806   -3.5661   25.2742 F   0  0  0  0  0  0  0  0  0  0  0  0
  -21.6390   -8.1436   24.0706 F   0  0  0  0  0  0  0  0  0  0  0  0
  1  2  1  0  0  0  0
  1  5  2  0  0  0  0
  2  6  2  0  0  0  0
  3  8  2  0  0  0  0
  3 17  1  0  0  0  0
  4  9  1  0  0  0  0
  4 17  2  0  0  0  0
  5 19  1  0  0  0  0
  6 21  1  0  0  0  0
  7 10  2  0  0  0  0
  7 20  1  0  0  0  0
  8 27  1  0  0  0  0
  9 27  2  0  0  0  0
 10 28  1  0  0  0  0
 11 12  2  0  0  0  0
 11 29  1  0  0  0  0
 12 30  1  0  0  0  0
 13 22  1  0  0  0  0
 13 28  2  0  0  0  0
 14 23  2  0  0  0  0
 14 24  1  0  0  0  0
 15 25  2  0  0  0  0
 15 26  1  0  0  0  0
 16 30  2  0  0  0  0
 16 31  1  0  0  0  0
 17 32  1  0  0  0  0
 18 32  1  0  0  0  0
 18 33  2  0  0  0  0
 18 34  1  0  0  0  0
 19 21  2  0  0  0  0
 19 41  1  0  0  0  0
 20 22  2  0  0  0  0
 20 42  1  0  0  0  0
 21 50  1  0  0  0  0
 22 43  1  0  0  0  0
 23 25  1  0  0  0  0
 23 53  1  0  0  0  0
 24 26  2  0  0  0  0
 24 70  1  0  0  0  0
 25 71  1  0  0  0  0
 26 67  1  0  0  0  0
 27 82  1  0  0  0  0
 28 83  1  0  0  0  0
 29 31  2  0  0  0  0
 29 82  1  0  0  0  0
 30 84  1  0  0  0  0
 31 85  1  0  0  0  0
 32 63  2  0  0  0  0
 33 64  1  0  0  0  0
 33 68  1  0  0  0  0
 34 69  1  0  0  0  0
 34 75  2  0  0  0  0
 35 36  1  0  0  0  0
 35 59  1  0  0  0  0
 35 76  2  0  0  0  0
 36 70  1  0  0  0  0
 36 77  2  0  0  0  0
 37 51  1  0  0  0  0
 37 72  1  0  0  0  0
 37 78  2  0  0  0  0
 38 60  1  0  0  0  0
 38 65  1  0  0  0  0
 38 79  2  0  0  0  0
 39 61  1  0  0  0  0
 39 73  1  0  0  0  0
 39 80  2  0  0  0  0
 40 66  1  0  0  0  0
 40 71  1  0  0  0  0
 40 81  2  0  0  0  0
 41 44  1  0  0  0  0
 42 51  1  0  0  0  0
 43 65  1  0  0  0  0
 44 46  1  0  0  0  0
 45 47  1  0  0  0  0
 45 48  1  0  0  0  0
 46 50  1  0  0  0  0
 47 52  1  0  0  0  0
 48 66  1  0  0  0  0
 49 52  1  0  0  0  0
 49 66  1  0  0  0  0
 50 72  1  0  0  0  0
 51 65  1  0  0  0  0
 52 64  1  0  0  0  0
 54 61  1  0  0  0  0
 55 62  1  0  0  0  0
 56 62  1  0  0  0  0
 57 62  1  0  0  0  0
 58 74  1  0  0  0  0
 59 83  1  0  0  0  0
 60 62  1  0  0  0  0
 60 73  1  0  0  0  0
 61 74  1  0  0  0  0
 63 64  1  0  0  0  0
M  CHG  1  74   1
M  ISO  4  40 100  59 101  71 100  83 101
M  END
> <Batch ID>
0091

> <Smiles>
CNC(C)C(=O)NC(C(=O)N1Cc2cc([101O:1][101CH2:1]C(=O)C(=O)Nc3cc(C)c([100NH:0][100C:0](=O)N4CCCC(n5nc(-c6ccc(Oc7ccc(F)cc7F)cc6)c(C(N)=O)c5N)C4)cc3N)ccc2CC1C(=O)NC1CCCc2ccccc21)C(C)(C)C

> <Shape>
0.309

> <Color>
0.110

> <Negative vol penalty>
0.000

$$$$

  -OEChem-04052300313D

 86 95  0     1  0  0  0  0  0999 V2000
  -26.3630  -33.6679   27.5912 C   0  0  0  0  0  0  0  0  0  0  0  0
  -26.9752  -32.8224   26.6716 C   0  0  0  0  0  0  0  0  0  0  0  0
  -25.5998  -12.3573   21.8421 C   0  0  0  0  0  0  0  0  0  0  0  0
  -26.0518  -12.5769   19.4790 C   0  0  0  0  0  0  0  0  0  0  0  0
  -25.0110  -33.5076   27.8914 C   0  0  0  0  0  0  0  0  0  0  0  0
  -26.2359  -31.8152   26.0524 C   0  0  0  0  0  0  0  0  0  0  0  0
  -26.8999  -29.7517   20.3247 C   0  0  0  0  0  0  0  0  0  0  0  0
  -29.3739  -21.2956   15.2512 C   0  0  0  0  0  0  0  0  0  0  0  0
  -29.5762  -19.9158   15.2238 C   0  0  0  0  0  0  0  0  0  0  0  0
  -24.3939  -11.7192   21.5522 C   0  0  0  0  0  0  0  0  0  0  0  0
  -24.8459  -11.9387   19.1890 C   0  0  0  0  0  0  0  0  0  0  0  0
  -27.5581  -28.6412   19.7982 C   0  0  0  0  0  0  0  0  0  0  0  0
  -23.3698   -8.6370   20.6119 C   0  0  0  0  0  0  0  0  0  0  0  0
  -23.0543   -7.4874   21.3361 C   0  0  0  0  0  0  0  0  0  0  0  0
  -25.4811  -27.4143   19.8057 C   0  0  0  0  0  0  0  0  0  0  0  0
  -29.3944  -21.2508   17.6667 C   0  0  0  0  0  0  0  0  0  0  0  0
  -21.0513   -8.5569   22.1613 C   0  0  0  0  0  0  0  0  0  0  0  0
  -26.4288  -12.7863   20.8055 C   0  0  0  0  0  0  0  0  0  0  0  0
  -28.9329  -12.8429   21.2888 C   0  0  0  0  0  0  0  0  0  0  0  0
  -24.2523  -32.5041   27.2684 C   0  0  0  0  0  0  0  0  0  0  0  0
  -25.5272  -29.6983   20.6063 C   0  0  0  0  0  0  0  0  0  0  0  0
  -24.8727  -31.6404   26.3456 C   0  0  0  0  0  0  0  0  0  0  0  0
  -24.8073  -28.5264   20.3333 C   0  0  0  0  0  0  0  0  0  0  0  0
  -29.2831  -21.9631   16.4726 C   0  0  0  0  0  0  0  0  0  0  0  0
  -29.6875  -19.2034   16.4179 C   0  0  0  0  0  0  0  0  0  0  0  0
  -29.5966  -19.8709   17.6393 C   0  0  0  0  0  0  0  0  0  0  0  0
  -24.0169  -11.5098   20.2257 C   0  0  0  0  0  0  0  0  0  0  0  0
  -26.8492  -27.4713   19.5413 C   0  0  0  0  0  0  0  0  0  0  0  0
  -22.5261   -9.7466   20.6625 C   0  0  0  0  0  0  0  0  0  0  0  0
  -21.8950   -7.4473   22.1107 C   0  0  0  0  0  0  0  0  0  0  0  0
  -21.3668   -9.7065   21.4371 C   0  0  0  0  0  0  0  0  0  0  0  0
  -27.6744  -13.4460   21.1043 C   0  0  0  0  0  0  0  0  0  0  0  0
  -29.7815  -13.8914   21.5477 C   0  0  0  0  0  0  0  0  0  0  0  0
  -28.7723  -25.5262   17.2108 C   0  0  0  0  0  0  0  0  0  0  0  0
  -28.7681  -25.5167   15.8723 C   0  0  0  0  0  0  0  0  0  0  0  0
  -28.9766  -24.1228   17.6536 C   0  0  0  0  0  0  0  0  0  0  0  0
  -29.3020  -11.4587   21.2313 C   0  0  0  0  0  0  0  0  0  0  0  0
  -23.7643  -29.9802   23.2362 C   0  0  0  0  0  0  0  0  0  0  0  0
  -21.3005  -29.8277   21.1317 C   0  0  0  0  0  0  0  0  0  0  0  0
  -20.1593  -28.8289   18.0745 C   0  0  0  0  0  0  0  0  0  0  0  0
  -29.6374  -19.6998   20.1524 C   0  0  0  0  0  0  0  0  0  0  0  0
  -22.8053  -32.3391   27.6604 C   0  0  0  0  0  0  0  0  0  0  0  0
  -24.8267  -30.9136   21.1491 C   0  0  0  0  0  0  0  0  0  0  0  0
  -23.3283  -28.4242   20.5989 C   0  0  0  0  0  0  0  0  0  0  0  0
  -28.9632  -24.1489   15.3085 C   0  0  0  0  0  0  0  0  0  0  0  0
  -22.0024  -31.4865   26.6813 C   0  0  0  0  0  0  0  0  0  0  0  0
  -29.8255  -18.2989   23.4203 C   0  0  0  0  0  0  0  0  0  0  0  0
  -22.7701  -30.2176   26.3244 C   0  0  0  0  0  0  0  0  0  0  0  0
  -29.4156  -16.8391   23.2130 C   0  0  0  0  0  0  0  0  0  0  0  0
  -29.0327  -19.2440   22.5191 C   0  0  0  0  0  0  0  0  0  0  0  0
  -28.6434  -17.4431   20.8837 C   0  0  0  0  0  0  0  0  0  0  0  0
  -24.0982  -30.5518   25.6347 C   0  0  1  0  0  0  0  0  0  0  0  0
  -23.5292  -30.5794   21.8785 C   0  0  1  0  0  0  0  0  0  0  0  0
  -29.4603  -16.4472   21.7231 C   0  0  2  0  0  0  0  0  0  0  0  0
  -28.5987  -26.6674   14.9421 C   0  0  0  0  0  0  0  0  0  0  0  0
  -18.0909  -28.8103   16.6537 C   0  0  0  0  0  0  0  0  0  0  0  0
  -20.1674  -27.5494   22.8156 C   0  0  0  0  0  0  0  0  0  0  0  0
  -18.6798  -26.9592   20.8903 C   0  0  0  0  0  0  0  0  0  0  0  0
  -18.4644  -29.1861   21.9937 C   0  0  0  0  0  0  0  0  0  0  0  0
  -21.4528  -30.4537   15.9659 C   0  0  0  0  0  0  0  0  0  0  0  0
  -28.6170  -26.6329   18.1892 C   0  0  0  0  0  0  0  0  0  1  0  0
  -20.4735  -28.7159   20.5327 C   0  0  1  0  0  0  0  0  0  0  0  0
  -19.3655  -29.5607   17.0073 C   0  0  2  0  0  0  0  0  0  0  0  0
  -19.4745  -28.1036   21.5548 C   0  0  0  0  0  0  0  0  0  0  0  0
  -27.7151  -14.7747   21.2351 N   0  0  0  0  0  0  0  0  0  0  0  0
  -29.0096  -15.0151   21.5046 N   0  0  0  0  0  0  0  0  0  0  0  0
  -29.0847  -23.3382   16.4995 N   0  0  0  0  0  0  0  0  0  0  0  0
  -22.6896  -29.6373   21.1356 N   0  0  0  0  0  0  0  0  0  0  0  0
  -29.1244  -18.8130   21.1225 N   0  0  0  0  0  0  0  0  0  0  0  0
  -29.8899  -17.8059   16.3666 N   0  0  0  0  0  0  0  0  0  0  0  0
  -31.1051  -13.9527   21.8058 N   0  0  0  0  0  0  0  0  0  0  0  0
  -28.3059  -10.5126   20.9536 N   0  0  0  0  0  0  0  0  0  0  0  0
  -29.7073  -19.1685   18.8650 N   0  0  0  0  0  0  0  0  0  0  0  0
  -23.8727  -30.9117   24.2512 N   0  0  0  0  0  0  0  0  0  0  0  0
  -19.8428  -29.2729   19.3409 N   0  0  0  0  0  0  0  0  0  0  0  0
  -20.1802  -29.7129   15.7688 N   0  3  0  0  0  0  0  0  0  0  0  0
  -29.0324  -23.7707   18.8213 O   0  0  0  0  0  0  0  0  0  0  0  0
  -30.4771  -11.0707   21.4367 O   0  0  0  0  0  0  0  0  0  0  0  0
  -23.8403  -28.7629   23.3544 O   0  0  0  0  0  0  0  0  0  0  0  0
  -20.7354  -30.8313   21.5732 O   0  0  0  0  0  0  0  0  0  0  0  0
  -20.9757  -27.9487   17.8112 O   0  0  0  0  0  0  0  0  0  0  0  0
  -30.0144  -20.8369   20.4474 O   0  0  0  0  0  0  0  0  0  0  0  0
  -22.8403  -10.8869   19.9424 O   0  0  0  0  0  0  0  0  0  0  0  0
  -27.4893  -26.3856   19.0280 O   0  0  0  0  0  0  0  0  0  1  0  0
  -21.5914   -6.3427   22.8048 F   0  0  0  0  0  0  0  0  0  0  0  0
  -20.5518  -10.7690   21.4887 F   0  0  0  0  0  0  0  0  0  0  0  0
  1  2  1  0  0  0  0
  1  5  2  0  0  0  0
  2  6  2  0  0  0  0
  3 10  2  0  0  0  0
  3 18  1  0  0  0  0
  4 11  1  0  0  0  0
  4 18  2  0  0  0  0
  5 20  1  0  0  0  0
  6 22  1  0  0  0  0
  7 12  2  0  0  0  0
  7 21  1  0  0  0  0
  8  9  2  0  0  0  0
  8 24  1  0  0  0  0
  9 25  1  0  0  0  0
 10 27  1  0  0  0  0
 11 27  2  0  0  0  0
 12 28  1  0  0  0  0
 13 14  2  0  0  0  0
 13 29  1  0  0  0  0
 14 30  1  0  0  0  0
 15 23  1  0  0  0  0
 15 28  2  0  0  0  0
 16 24  2  0  0  0  0
 16 26  1  0  0  0  0
 17 30  2  0  0  0  0
 17 31  1  0  0  0  0
 18 32  1  0  0  0  0
 19 32  1  0  0  0  0
 19 33  2  0  0  0  0
 19 37  1  0  0  0  0
 20 22  2  0  0  0  0
 20 42  1  0  0  0  0
 21 23  2  0  0  0  0
 21 43  1  0  0  0  0
 22 52  1  0  0  0  0
 23 44  1  0  0  0  0
 24 67  1  0  0  0  0
 25 26  2  0  0  0  0
 25 70  1  0  0  0  0
 26 73  1  0  0  0  0
 27 83  1  0  0  0  0
 28 84  1  0  0  0  0
 29 31  2  0  0  0  0
 29 83  1  0  0  0  0
 30 85  1  0  0  0  0
 31 86  1  0  0  0  0
 32 65  2  0  0  0  0
 33 66  1  0  0  0  0
 33 71  1  0  0  0  0
 34 35  2  0  0  0  0
 34 36  1  0  0  0  0
 34 61  1  0  0  0  0
 35 45  1  0  0  0  0
 35 55  1  0  0  0  0
 36 67  1  0  0  0  0
 36 77  2  0  0  0  0
 37 72  1  0  0  0  0
 37 78  2  0  0  0  0
 38 53  1  0  0  0  0
 38 74  1  0  0  0  0
 38 79  2  0  0  0  0
 39 62  1  0  0  0  0
 39 68  1  0  0  0  0
 39 80  2  0  0  0  0
 40 63  1  0  0  0  0
 40 75  1  0  0  0  0
 40 81  2  0  0  0  0
 41 69  1  0  0  0  0
 41 73  1  0  0  0  0
 41 82  2  0  0  0  0
 42 46  1  0  0  0  0
 43 53  1  0  0  0  0
 44 68  1  0  0  0  0
 45 67  1  0  0  0  0
 46 48  1  0  0  0  0
 47 49  1  0  0  0  0
 47 50  1  0  0  0  0
 48 52  1  0  0  0  0
 49 54  1  0  0  0  0
 50 69  1  0  0  0  0
 51 54  1  0  0  0  0
 51 69  1  0  0  0  0
 52 74  1  0  0  0  0
 53 68  1  0  0  0  0
 54 66  1  0  0  0  0
 56 63  1  0  0  0  0
 57 64  1  0  0  0  0
 58 64  1  0  0  0  0
 59 64  1  0  0  0  0
 60 76  1  0  0  0  0
 61 84  1  0  0  0  0
 62 64  1  0  0  0  0
 62 75  1  0  0  0  0
 63 76  1  0  0  0  0
 65 66  1  0  0  0  0
M  CHG  1  76   1
M  ISO  4  41 100  61 101  73 100  84 101
M  END
> <Batch ID>
0091

> <Smiles>
CNC(C)C(=O)NC(C(=O)N1Cc2cc([101O:1][101CH2:1]C3=C(C)CN(c4ccc(N)c([100NH:0][100C:0](=O)N5CCCC(n6nc(-c7ccc(Oc8ccc(F)cc8F)cc7)c(C(N)=O)c6N)C5)c4)C3=O)ccc2CC1C(=O)NC1CCCc2ccccc21)C(C)(C)C

> <Shape>
0.294

> <Color>
0.083

> <Negative vol penalty>
0.000

$$$$

  -OEChem-04052300313D

 85 93  0     1  0  0  0  0  0999 V2000
  -18.5518  -27.5732   23.6114 C   0  0  0  0  0  0  0  0  0  0  0  0
  -18.9765  -26.3649   23.0683 C   0  0  0  0  0  0  0  0  0  0  0  0
  -26.1598  -11.9537   19.4267 C   0  0  0  0  0  0  0  0  0  0  0  0
  -26.8614  -19.1778   25.4929 C   0  0  0  0  0  0  0  0  0  0  0  0
  -28.6664  -20.5921   26.2537 C   0  0  0  0  0  0  0  0  0  0  0  0
  -27.5433  -12.1245   19.3778 C   0  0  0  0  0  0  0  0  0  0  0  0
  -19.0555  -28.7747   23.1148 C   0  0  0  0  0  0  0  0  0  0  0  0
  -19.9045  -26.3574   22.0275 C   0  0  0  0  0  0  0  0  0  0  0  0
  -23.5478  -22.9046   22.6977 C   0  0  0  0  0  0  0  0  0  0  0  0
  -25.3352  -13.0305   19.7530 C   0  0  0  0  0  0  0  0  0  0  0  0
  -26.2882  -19.2257   26.7636 C   0  0  0  0  0  0  0  0  0  0  0  0
  -28.0932  -20.6400   27.5244 C   0  0  0  0  0  0  0  0  0  0  0  0
  -23.2280  -21.5779   22.4124 C   0  0  0  0  0  0  0  0  0  0  0  0
  -24.4279  -21.3899   28.5771 C   0  0  0  0  0  0  0  0  0  0  0  0
  -23.0531  -21.6105   28.6602 C   0  0  0  0  0  0  0  0  0  0  0  0
  -27.2777  -14.4487   19.9818 C   0  0  0  0  0  0  0  0  0  0  0  0
  -24.3248  -21.7797   20.2734 C   0  0  0  0  0  0  0  0  0  0  0  0
  -22.7820  -19.4939   29.7933 C   0  0  0  0  0  0  0  0  0  0  0  0
  -28.0505  -19.8609   25.2379 C   0  0  0  0  0  0  0  0  0  0  0  0
  -28.1023  -13.3719   19.6554 C   0  0  0  0  0  0  0  0  0  0  0  0
  -28.4070  -20.6909   22.8522 C   0  0  0  0  0  0  0  0  0  0  0  0
  -19.9973  -28.7816   22.0739 C   0  0  0  0  0  0  0  0  0  0  0  0
  -24.2502  -23.6834   21.7668 C   0  0  0  0  0  0  0  0  0  0  0  0
  -20.4202  -27.5602   21.5156 C   0  0  0  0  0  0  0  0  0  0  0  0
  -24.6546  -23.1153   20.5503 C   0  0  0  0  0  0  0  0  0  0  0  0
  -25.8942  -14.2779   20.0306 C   0  0  0  0  0  0  0  0  0  0  0  0
  -26.9041  -19.9569   27.7794 C   0  0  0  0  0  0  0  0  0  0  0  0
  -23.6139  -21.0161   21.1990 C   0  0  0  0  0  0  0  0  0  0  0  0
  -24.9798  -20.2212   29.1020 C   0  0  0  0  0  0  0  0  0  0  0  0
  -22.2302  -20.6625   29.2684 C   0  0  0  0  0  0  0  0  0  0  0  0
  -24.1568  -19.2733   29.7102 C   0  0  0  0  0  0  0  0  0  0  0  0
  -28.6434  -19.8113   23.9256 C   0  0  0  0  0  0  0  0  0  0  0  0
  -29.2051  -20.2186   21.8391 C   0  0  0  0  0  0  0  0  0  0  0  0
  -24.3280  -18.8503   20.6793 C   0  0  0  0  0  0  0  0  0  1  0  0
  -29.5759  -13.5523   19.6029 C   0  0  0  0  0  0  0  0  0  0  0  0
  -27.5431  -21.8328   22.7775 C   0  0  0  0  0  0  0  0  0  0  0  0
  -24.2581  -17.5436   20.9608 C   0  0  0  0  0  0  0  0  0  0  0  0
  -25.4400  -16.6708   20.6617 C   0  0  0  0  0  0  0  0  0  0  0  0
  -23.6235  -26.3392   20.1367 C   0  0  0  0  0  0  0  0  0  0  0  0
  -26.7231  -26.0471   19.2261 C   0  0  0  0  0  0  0  0  0  0  0  0
  -29.4234  -24.0155   18.7488 C   0  0  0  0  0  0  0  0  0  0  0  0
  -31.4477  -14.8679   20.5458 C   0  0  0  0  0  0  0  0  0  0  0  0
  -20.4777  -30.1072   21.5383 C   0  0  0  0  0  0  0  0  0  0  0  0
  -24.6108  -25.1050   22.1008 C   0  0  0  0  0  0  0  0  0  0  0  0
  -25.4280  -23.9027   19.5256 C   0  0  0  0  0  0  0  0  0  0  0  0
  -21.7398  -29.9986   20.6864 C   0  0  0  0  0  0  0  0  0  0  0  0
  -33.2950  -17.8314   21.0956 C   0  0  0  0  0  0  0  0  0  0  0  0
  -21.6113  -28.8550   19.6852 C   0  0  0  0  0  0  0  0  0  0  0  0
  -32.2874  -18.7646   21.7725 C   0  0  0  0  0  0  0  0  0  0  0  0
  -33.1275  -16.3846   21.5576 C   0  0  0  0  0  0  0  0  0  0  0  0
  -30.7640  -16.7790   22.1199 C   0  0  0  0  0  0  0  0  0  0  0  0
  -21.4441  -27.5100   20.4024 C   0  0  1  0  0  0  0  0  0  0  0  0
  -24.8810  -25.9588   20.8657 C   0  0  1  0  0  0  0  0  0  0  0  0
  -30.8456  -18.2356   21.6353 C   0  0  1  0  0  0  0  0  0  0  0  0
  -31.7951  -23.3774   18.2336 C   0  0  0  0  0  0  0  0  0  0  0  0
  -25.7604  -26.2239   16.3362 C   0  0  0  0  0  0  0  0  0  0  0  0
  -27.9821  -25.3233   15.6142 C   0  0  0  0  0  0  0  0  0  0  0  0
  -27.8538  -27.5042   16.8185 C   0  0  0  0  0  0  0  0  0  0  0  0
  -30.2499  -24.3545   21.5704 C   0  0  0  0  0  0  0  0  0  0  0  0
  -27.4440  -25.3590   18.0922 C   0  0  1  0  0  0  0  0  0  0  0  0
  -30.8774  -24.1593   19.1606 C   0  0  2  0  0  0  0  0  0  0  0  0
  -27.2438  -26.0881   16.7335 C   0  0  0  0  0  0  0  0  0  0  0  0
  -29.5228  -18.8527   23.6227 N   0  0  0  0  0  0  0  0  0  0  0  0
  -29.8459  -19.1272   22.3474 N   0  0  0  0  0  0  0  0  0  0  0  0
  -25.7512  -25.2905   19.8960 N   0  0  0  0  0  0  0  0  0  0  0  0
  -31.7379  -15.9569   21.3861 N   0  0  0  0  0  0  0  0  0  0  0  0
  -29.4143  -20.6345   20.5720 N   0  0  0  0  0  0  0  0  0  0  0  0
  -26.7937  -22.1788   23.9102 N   0  0  0  0  0  0  0  0  0  0  0  0
  -25.0571  -15.3707   20.3615 N   0  0  0  0  0  0  0  0  0  0  0  0
  -30.0879  -14.5648   20.4147 N   0  0  0  0  0  0  0  0  0  0  0  0
  -22.7182  -27.0444   20.9067 N   0  0  0  0  0  0  0  0  0  0  0  0
  -28.8376  -25.2401   18.5068 N   0  0  0  0  0  0  0  0  0  0  0  0
  -31.0744  -23.6574   20.5499 N   0  3  0  0  0  0  0  0  0  0  0  0
  -30.2460  -12.7992   18.9017 O   0  0  0  0  0  0  0  0  0  0  0  0
  -27.4266  -22.5161   21.7320 O   0  0  0  0  0  0  0  0  0  0  0  0
  -26.5803  -17.1205   20.6972 O   0  0  0  0  0  0  0  0  0  0  0  0
  -23.4854  -26.0182   18.9622 O   0  0  0  0  0  0  0  0  0  0  0  0
  -27.0168  -27.2107   19.5118 O   0  0  0  0  0  0  0  0  0  0  0  0
  -28.8643  -22.9257   18.6480 O   0  0  0  0  0  0  0  0  0  0  0  0
  -32.3205  -14.2432   19.9347 O   0  0  0  0  0  0  0  0  0  0  0  0
  -23.1372  -16.9637   21.5194 O   0  0  0  0  0  0  0  0  0  0  0  0
  -26.3449  -20.0041   29.0194 O   0  0  0  0  0  0  0  0  0  0  0  0
  -23.3025  -19.7216   20.9177 O   0  0  0  0  0  0  0  0  0  1  0  0
  -20.9102  -20.8752   29.3495 F   0  0  0  0  0  0  0  0  0  0  0  0
  -24.6814  -18.1493   30.2173 F   0  0  0  0  0  0  0  0  0  0  0  0
  1  2  1  0  0  0  0
  1  7  2  0  0  0  0
  2  8  2  0  0  0  0
  3  6  1  0  0  0  0
  3 10  2  0  0  0  0
  4 11  2  0  0  0  0
  4 19  1  0  0  0  0
  5 12  1  0  0  0  0
  5 19  2  0  0  0  0
  6 20  2  0  0  0  0
  7 22  1  0  0  0  0
  8 24  1  0  0  0  0
  9 13  2  0  0  0  0
  9 23  1  0  0  0  0
 10 26  1  0  0  0  0
 11 27  1  0  0  0  0
 12 27  2  0  0  0  0
 13 28  1  0  0  0  0
 14 15  2  0  0  0  0
 14 29  1  0  0  0  0
 15 30  1  0  0  0  0
 16 20  1  0  0  0  0
 16 26  2  0  0  0  0
 17 25  1  0  0  0  0
 17 28  2  0  0  0  0
 18 30  2  0  0  0  0
 18 31  1  0  0  0  0
 19 32  1  0  0  0  0
 20 35  1  0  0  0  0
 21 32  1  0  0  0  0
 21 33  2  0  0  0  0
 21 36  1  0  0  0  0
 22 24  2  0  0  0  0
 22 43  1  0  0  0  0
 23 25  2  0  0  0  0
 23 44  1  0  0  0  0
 24 52  1  0  0  0  0
 25 45  1  0  0  0  0
 26 69  1  0  0  0  0
 27 82  1  0  0  0  0
 28 83  1  0  0  0  0
 29 31  2  0  0  0  0
 29 82  1  0  0  0  0
 30 84  1  0  0  0  0
 31 85  1  0  0  0  0
 32 63  2  0  0  0  0
 33 64  1  0  0  0  0
 33 67  1  0  0  0  0
 34 37  2  0  0  0  0
 34 83  1  0  0  0  0
 35 70  1  0  0  0  0
 35 74  2  0  0  0  0
 36 68  1  0  0  0  0
 36 75  2  0  0  0  0
 37 38  1  0  0  0  0
 37 81  1  0  0  0  0
 38 69  1  0  0  0  0
 38 76  2  0  0  0  0
 39 53  1  0  0  0  0
 39 71  1  0  0  0  0
 39 77  2  0  0  0  0
 40 60  1  0  0  0  0
 40 65  1  0  0  0  0
 40 78  2  0  0  0  0
 41 61  1  0  0  0  0
 41 72  1  0  0  0  0
 41 79  2  0  0  0  0
 42 66  1  0  0  0  0
 42 70  1  0  0  0  0
 42 80  2  0  0  0  0
 43 46  1  0  0  0  0
 44 53  1  0  0  0  0
 45 65  1  0  0  0  0
 46 48  1  0  0  0  0
 47 49  1  0  0  0  0
 47 50  1  0  0  0  0
 48 52  1  0  0  0  0
 49 54  1  0  0  0  0
 50 66  1  0  0  0  0
 51 54  1  0  0  0  0
 51 66  1  0  0  0  0
 52 71  1  0  0  0  0
 53 65  1  0  0  0  0
 54 64  1  0  0  0  0
 55 61  1  0  0  0  0
 56 62  1  0  0  0  0
 57 62  1  0  0  0  0
 58 62  1  0  0  0  0
 59 73  1  0  0  0  0
 60 62  1  0  0  0  0
 60 72  1  0  0  0  0
 61 73  1  0  0  0  0
 63 64  1  0  0  0  0
M  CHG  1  73   1
M  ISO  4  34 101  42 100  70 100  83 101
M  END
> <Batch ID>
0091

> <Smiles>
CNC(C)C(=O)NC(C(=O)N1Cc2cc([101O:1][101CH2:1]C(=O)C(=O)Nc3cccc(C(=O)[100NH:0][100C:0](=O)N4CCCC(n5nc(-c6ccc(Oc7ccc(F)cc7F)cc6)c(C(N)=O)c5N)C4)c3)ccc2CC1C(=O)NC1CCCc2ccccc21)C(C)(C)C

> <Shape>
0.188

> <Color>
0.077

> <Negative vol penalty>
0.000

$$$$

  -OEChem-04052300313D

 89 98  0     1  0  0  0  0  0999 V2000
  -16.5433  -29.3414   23.6557 C   0  0  0  0  0  0  0  0  0  0  0  0
  -17.1098  -29.7715   22.4601 C   0  0  0  0  0  0  0  0  0  0  0  0
  -24.4664   -9.5527   21.8161 C   0  0  0  0  0  0  0  0  0  0  0  0
  -24.5667  -10.9416   23.7905 C   0  0  0  0  0  0  0  0  0  0  0  0
  -17.2244  -29.5328   24.8571 C   0  0  0  0  0  0  0  0  0  0  0  0
  -18.3574  -30.3944   22.4654 C   0  0  0  0  0  0  0  0  0  0  0  0
  -24.8910  -28.5378   18.6064 C   0  0  0  0  0  0  0  0  0  0  0  0
  -27.5399  -21.1005   20.1307 C   0  0  0  0  0  0  0  0  0  0  0  0
  -27.5657  -19.7282   20.3787 C   0  0  0  0  0  0  0  0  0  0  0  0
  -24.0619   -8.4706   22.5978 C   0  0  0  0  0  0  0  0  0  0  0  0
  -24.1622   -9.8595   24.5722 C   0  0  0  0  0  0  0  0  0  0  0  0
  -26.1508  -28.2176   18.0999 C   0  0  0  0  0  0  0  0  0  0  0  0
  -21.2144   -7.3793   24.0585 C   0  0  0  0  0  0  0  0  0  0  0  0
  -20.1538   -6.6029   23.5917 C   0  0  0  0  0  0  0  0  0  0  0  0
  -27.1990  -29.3447   19.9651 C   0  0  0  0  0  0  0  0  0  0  0  0
  -29.8899  -19.6534   19.7235 C   0  0  0  0  0  0  0  0  0  0  0  0
  -21.5905   -4.6608   23.5575 C   0  0  0  0  0  0  0  0  0  0  0  0
  -24.7188  -10.7882   22.4124 C   0  0  0  0  0  0  0  0  0  0  0  0
  -24.3113  -12.8581   20.9781 C   0  0  0  0  0  0  0  0  0  0  0  0
  -18.4853  -30.1497   24.8761 C   0  0  0  0  0  0  0  0  0  0  0  0
  -24.7802  -29.2503   19.8038 C   0  0  0  0  0  0  0  0  0  0  0  0
  -19.0554  -30.5955   23.6684 C   0  0  0  0  0  0  0  0  0  0  0  0
  -25.9398  -29.6575   20.4838 C   0  0  0  0  0  0  0  0  0  0  0  0
  -28.6891  -21.7494   19.6791 C   0  0  0  0  0  0  0  0  0  0  0  0
  -28.7407  -19.0046   20.1751 C   0  0  0  0  0  0  0  0  0  0  0  0
  -23.9098   -8.6240   23.9759 C   0  0  0  0  0  0  0  0  0  0  0  0
  -27.3019  -28.6203   18.7774 C   0  0  0  0  0  0  0  0  0  0  0  0
  -22.4631   -6.7964   24.2747 C   0  0  0  0  0  0  0  0  0  0  0  0
  -20.3418   -5.2436   23.3412 C   0  0  0  0  0  0  0  0  0  0  0  0
  -29.8641  -21.0258   19.4755 C   0  0  0  0  0  0  0  0  0  0  0  0
  -22.6511   -5.4372   24.0243 C   0  0  0  0  0  0  0  0  0  0  0  0
  -25.1372  -11.9062   21.6055 C   0  0  0  0  0  0  0  0  0  0  0  0
  -25.1854  -13.7037   20.3399 C   0  0  0  0  0  0  0  0  0  0  0  0
  -22.8818  -12.9681   20.9728 C   0  0  0  0  0  0  0  0  0  0  0  0
  -22.5110  -30.7761   22.3725 C   0  0  0  0  0  0  0  0  0  0  0  0
  -29.6615  -23.9795   20.2826 C   0  0  0  0  0  0  0  0  0  0  0  0
  -24.8304  -29.4691   23.8964 C   0  0  0  0  0  0  0  0  0  0  0  0
  -27.3239  -27.5478   25.2110 C   0  0  0  0  0  0  0  0  0  0  0  0
  -29.8492  -16.7446   20.2742 C   0  0  0  0  0  0  0  0  0  0  0  0
  -19.1622  -30.3773   26.2045 C   0  0  0  0  0  0  0  0  0  0  0  0
  -23.4445  -29.6703   20.3544 C   0  0  0  0  0  0  0  0  0  0  0  0
  -25.7726  -30.4521   21.7502 C   0  0  0  0  0  0  0  0  0  0  0  0
  -20.6473  -30.7087   26.0824 C   0  0  0  0  0  0  0  0  0  0  0  0
  -30.1602  -13.2819   19.5058 C   0  0  0  0  0  0  0  0  0  0  0  0
  -20.8720  -31.7632   25.0033 C   0  0  0  0  0  0  0  0  0  0  0  0
  -28.8132  -12.6937   19.9320 C   0  0  0  0  0  0  0  0  0  0  0  0
  -31.7462  -26.8589   19.6307 C   0  0  0  0  0  0  0  0  0  0  0  0
  -30.6205  -14.3891   20.4525 C   0  0  0  0  0  0  0  0  0  0  0  0
  -31.2141  -25.8518   20.6446 C   0  0  0  0  0  0  0  0  0  0  0  0
  -29.9401  -25.7063   18.5502 C   0  0  0  0  0  0  0  0  0  0  0  0
  -28.2942  -14.8716   21.1043 C   0  0  0  0  0  0  0  0  0  0  0  0
  -20.4179  -31.2530   23.6304 C   0  0  1  0  0  0  0  0  0  0  0  0
  -23.3971  -29.6642   21.8929 C   0  0  1  0  0  0  0  0  0  0  0  0
  -30.5743  -27.0955   18.6726 C   0  0  1  0  0  0  0  0  0  0  0  0
  -27.7581  -13.7970   20.1443 C   0  0  2  0  0  0  0  0  0  0  0  0
  -28.3031  -26.8221   27.4046 C   0  0  0  0  0  0  0  0  0  0  0  0
  -27.2800  -23.9236   19.6567 C   0  0  0  0  0  0  0  0  0  0  0  0
  -26.1355  -32.2074   24.2156 C   0  0  0  0  0  0  0  0  0  0  0  0
  -27.7758  -31.1632   25.7927 C   0  0  0  0  0  0  0  0  0  0  0  0
  -25.3445  -31.1732   26.3508 C   0  0  0  0  0  0  0  0  0  0  0  0
  -26.7665  -24.6961   24.6487 C   0  0  0  0  0  0  0  0  0  0  0  0
  -29.5845  -28.1213   19.2227 C   0  0  0  0  0  0  0  0  0  1  0  0
  -26.1904  -29.6446   24.5232 C   0  0  1  0  0  0  0  0  0  0  0  0
  -27.3131  -26.4894   26.2992 C   0  0  2  0  0  0  0  0  0  0  0  0
  -28.6569  -23.2615   19.4090 C   0  0  2  0  0  0  0  0  0  0  0  0
  -26.3585  -31.0371   25.1941 C   0  0  0  0  0  0  0  0  0  0  0  0
  -26.4362  -12.1258   21.3856 N   0  0  0  0  0  0  0  0  0  0  0  0
  -26.4331  -13.2253   20.6129 N   0  0  0  0  0  0  0  0  0  0  0  0
  -30.2292  -25.0937   19.8584 N   0  0  0  0  0  0  0  0  0  0  0  0
  -24.6903  -29.8776   22.5645 N   0  0  0  0  0  0  0  0  0  0  0  0
  -29.5719  -15.4006   20.6019 N   0  0  0  0  0  0  0  0  0  0  0  0
  -25.0007  -14.8022   19.5774 N   0  0  0  0  0  0  0  0  0  0  0  0
  -22.1357  -12.0154   21.6800 N   0  0  0  0  0  0  0  0  0  0  0  0
  -28.7663  -17.6101   20.4252 N   0  0  0  0  0  0  0  0  0  0  0  0
  -21.4020  -30.3477   23.0768 N   0  0  0  0  0  0  0  0  0  0  0  0
  -26.3693  -28.5178   25.4325 N   0  0  0  0  0  0  0  0  0  0  0  0
  -29.9352  -23.4465   21.4690 N   0  3  0  0  0  0  0  0  0  0  0  0
  -28.8953  -23.4850   17.9224 N   0  3  0  0  0  0  0  0  0  0  0  0
  -27.6721  -25.1591   25.7314 N   0  3  0  0  0  0  0  0  0  0  0  0
  -22.2830  -13.8746   20.3456 O   0  0  0  0  0  0  0  0  0  0  0  0
  -22.8110  -31.9379   22.1237 O   0  0  0  0  0  0  0  0  0  0  0  0
  -23.9138  -28.9884   24.5689 O   0  0  0  0  0  0  0  0  0  0  0  0
  -28.1039  -27.5191   24.2616 O   0  0  0  0  0  0  0  0  0  0  0  0
  -30.9575  -17.0967   19.8622 O   0  0  0  0  0  0  0  0  0  0  0  0
  -23.5149   -7.5684   24.7389 O   0  0  0  0  0  0  0  0  0  0  0  0
  -28.5286  -28.3004   18.2797 O   0  0  0  0  0  0  0  0  0  1  0  0
  -19.3228   -4.4979   22.8945 F   0  0  0  0  0  0  0  0  0  0  0  0
  -30.9734  -21.6404   19.0418 F   0  0  0  0  0  0  0  0  0  0  0  0
  -23.8482   -4.8714   24.2313 F   0  0  0  0  0  0  0  0  0  0  0  0
  1  2  1  0  0  0  0
  1  5  2  0  0  0  0
  2  6  2  0  0  0  0
  3 10  2  0  0  0  0
  3 18  1  0  0  0  0
  4 11  1  0  0  0  0
  4 18  2  0  0  0  0
  5 20  1  0  0  0  0
  6 22  1  0  0  0  0
  7 12  2  0  0  0  0
  7 21  1  0  0  0  0
  8  9  2  0  0  0  0
  8 24  1  0  0  0  0
  9 25  1  0  0  0  0
 10 26  1  0  0  0  0
 11 26  2  0  0  0  0
 12 27  1  0  0  0  0
 13 14  2  0  0  0  0
 13 28  1  0  0  0  0
 14 29  1  0  0  0  0
 15 23  1  0  0  0  0
 15 27  2  0  0  0  0
 16 25  2  0  0  0  0
 16 30  1  0  0  0  0
 17 29  2  0  0  0  0
 17 31  1  0  0  0  0
 18 32  1  0  0  0  0
 19 32  1  0  0  0  0
 19 33  2  0  0  0  0
 19 34  1  0  0  0  0
 20 22  2  0  0  0  0
 20 40  1  0  0  0  0
 21 23  2  0  0  0  0
 21 41  1  0  0  0  0
 22 52  1  0  0  0  0
 23 42  1  0  0  0  0
 24 30  2  0  0  0  0
 24 65  1  0  0  0  0
 25 74  1  0  0  0  0
 26 85  1  0  0  0  0
 27 86  1  0  0  0  0
 28 31  2  0  0  0  0
 28 85  1  0  0  0  0
 29 87  1  0  0  0  0
 30 88  1  0  0  0  0
 31 89  1  0  0  0  0
 32 67  2  0  0  0  0
 33 68  1  0  0  0  0
 33 72  1  0  0  0  0
 34 73  1  0  0  0  0
 34 80  2  0  0  0  0
 35 53  1  0  0  0  0
 35 75  1  0  0  0  0
 35 81  2  0  0  0  0
 36 65  1  0  0  0  0
 36 69  1  0  0  0  0
 36 77  2  0  0  0  0
 37 63  1  0  0  0  0
 37 70  1  0  0  0  0
 37 82  2  0  0  0  0
 38 64  1  0  0  0  0
 38 76  1  0  0  0  0
 38 83  2  0  0  0  0
 39 71  1  0  0  0  0
 39 74  1  0  0  0  0
 39 84  2  0  0  0  0
 40 43  1  0  0  0  0
 41 53  1  0  0  0  0
 42 70  1  0  0  0  0
 43 45  1  0  0  0  0
 44 46  1  0  0  0  0
 44 48  1  0  0  0  0
 45 52  1  0  0  0  0
 46 55  1  0  0  0  0
 47 49  1  0  0  0  0
 47 54  1  0  0  0  0
 48 71  1  0  0  0  0
 49 69  1  0  0  0  0
 50 54  1  0  0  0  0
 50 69  1  0  0  0  0
 51 55  1  0  0  0  0
 51 71  1  0  0  0  0
 52 75  1  0  0  0  0
 53 70  1  0  0  0  0
 54 62  1  0  0  0  0
 55 68  1  0  0  0  0
 56 64  1  0  0  0  0
 57 65  1  0  0  0  0
 58 66  1  0  0  0  0
 59 66  1  0  0  0  0
 60 66  1  0  0  0  0
 61 79  1  0  0  0  0
 62 86  1  0  0  0  0
 63 66  1  0  0  0  0
 63 76  1  0  0  0  0
 64 79  1  0  0  0  0
 65 78  1  0  0  0  0
 67 68  1  0  0  0  0
M  CHG  3  77   1  78   1  79   1
M  ISO  4  39 100  62 101  74 100  86 101
M  END
> <Batch ID>
0091

> <Smiles>
CNC(C)C(=O)NC(C(=O)N1Cc2cc([101O:1][101CH2:1]C3CCN(C(=N)C(C)(N)c4ccc([100NH:0][100C:0](=O)N5CCCC(n6nc(-c7ccc(Oc8ccc(F)cc8F)cc7)c(C(N)=O)c6N)C5)cc4F)C3)ccc2CC1C(=O)NC1CCCc2ccccc21)C(C)(C)C

> <Shape>
0.371

> <Color>
0.140

> <Negative vol penalty>
0.000

$$$$

  -OEChem-04052300313D

 88 97  0     1  0  0  0  0  0999 V2000
  -24.2229   -5.9642   23.2850 C   0  0  0  0  0  0  0  0  0  0  0  0
  -25.4445   -6.5846   23.0438 C   0  0  0  0  0  0  0  0  0  0  0  0
  -22.0826  -27.9889   20.5686 C   0  0  0  0  0  0  0  0  0  0  0  0
  -22.2928  -29.1007   22.7032 C   0  0  0  0  0  0  0  0  0  0  0  0
  -23.0453   -6.5360   22.8052 C   0  0  0  0  0  0  0  0  0  0  0  0
  -25.4893   -7.7766   22.3217 C   0  0  0  0  0  0  0  0  0  0  0  0
  -29.1821  -13.8989   21.8767 C   0  0  0  0  0  0  0  0  0  0  0  0
  -29.8855  -24.0273   15.8019 C   0  0  0  0  0  0  0  0  0  0  0  0
  -30.0364  -22.6549   16.0161 C   0  0  0  0  0  0  0  0  0  0  0  0
  -20.7736  -27.6268   20.8861 C   0  0  0  0  0  0  0  0  0  0  0  0
  -20.9837  -28.7386   23.0207 C   0  0  0  0  0  0  0  0  0  0  0  0
  -29.8526  -14.6867   20.9422 C   0  0  0  0  0  0  0  0  0  0  0  0
  -17.8598  -29.7908   22.2758 C   0  0  0  0  0  0  0  0  0  0  0  0
  -17.0368  -30.7674   22.8365 C   0  0  0  0  0  0  0  0  0  0  0  0
  -27.7469  -15.6240   20.2304 C   0  0  0  0  0  0  0  0  0  0  0  0
  -29.7075  -22.9414   18.4091 C   0  0  0  0  0  0  0  0  0  0  0  0
  -16.7515  -29.3965   24.8054 C   0  0  0  0  0  0  0  0  0  0  0  0
  -22.8423  -28.7258   21.4772 C   0  0  0  0  0  0  0  0  0  0  0  0
  -24.6183  -30.2730   20.4975 C   0  0  0  0  0  0  0  0  0  0  0  0
  -23.0747   -7.7407   22.0851 C   0  0  0  0  0  0  0  0  0  0  0  0
  -27.7855  -13.9597   21.9878 C   0  0  0  0  0  0  0  0  0  0  0  0
  -24.3111   -8.3644   21.8307 C   0  0  0  0  0  0  0  0  0  0  0  0
  -27.0612  -14.8378   21.1689 C   0  0  0  0  0  0  0  0  0  0  0  0
  -29.6460  -24.8403   16.8991 C   0  0  0  0  0  0  0  0  0  0  0  0
  -29.5619  -24.3034   18.1905 C   0  0  0  0  0  0  0  0  0  0  0  0
  -29.9469  -22.1166   17.3077 C   0  0  0  0  0  0  0  0  0  0  0  0
  -20.2241  -28.0017   22.1121 C   0  0  0  0  0  0  0  0  0  0  0  0
  -29.1348  -15.5473   20.1169 C   0  0  0  0  0  0  0  0  0  0  0  0
  -18.1287  -28.6170   22.9798 C   0  0  0  0  0  0  0  0  0  0  0  0
  -16.4827  -30.5703   24.1013 C   0  0  0  0  0  0  0  0  0  0  0  0
  -17.5746  -28.4199   24.2446 C   0  0  0  0  0  0  0  0  0  0  0  0
  -24.1948  -29.0997   21.1501 C   0  0  0  0  0  0  0  0  0  0  0  0
  -25.9847  -30.1524   20.4267 C   0  0  0  0  0  0  0  0  0  0  0  0
  -29.6575  -17.6802   19.3115 C   0  0  0  0  0  0  0  0  0  1  0  0
  -23.8457  -31.3734   19.9999 C   0  0  0  0  0  0  0  0  0  0  0  0
  -30.2465  -18.5462   18.4780 C   0  0  0  0  0  0  0  0  0  0  0  0
  -30.0379  -20.0159   18.6895 C   0  0  0  0  0  0  0  0  0  0  0  0
  -25.4112  -11.8837   21.5922 C   0  0  0  0  0  0  0  0  0  0  0  0
  -29.4989  -27.1170   15.8791 C   0  0  0  0  0  0  0  0  0  0  0  0
  -23.6048  -14.3282   22.7250 C   0  0  0  0  0  0  0  0  0  0  0  0
  -23.2453  -17.6893   23.1950 C   0  0  0  0  0  0  0  0  0  0  0  0
  -29.4574  -25.2056   20.5150 C   0  0  0  0  0  0  0  0  0  0  0  0
  -21.7803   -8.2960   21.5459 C   0  0  0  0  0  0  0  0  0  0  0  0
  -27.0796  -13.1230   23.0193 C   0  0  0  0  0  0  0  0  0  0  0  0
  -25.5626  -14.9553   21.2625 C   0  0  0  0  0  0  0  0  0  0  0  0
  -21.8779   -9.7562   21.1116 C   0  0  0  0  0  0  0  0  0  0  0  0
  -29.7047  -28.1451   22.6876 C   0  0  0  0  0  0  0  0  0  0  0  0
  -23.1294   -9.9799   20.2688 C   0  0  0  0  0  0  0  0  0  0  0  0
  -28.3344  -28.8048   22.5106 C   0  0  0  0  0  0  0  0  0  0  0  0
  -29.6365  -26.6261   22.5364 C   0  0  0  0  0  0  0  0  0  0  0  0
  -27.6126  -26.8162   21.1451 C   0  0  0  0  0  0  0  0  0  0  0  0
  -29.2172  -26.5884   18.3592 C   0  0  0  0  0  0  0  0  0  0  0  0
  -24.3983   -9.6712   21.0727 C   0  0  1  0  0  0  0  0  0  0  0  0
  -25.6081  -12.8877   22.6926 C   0  0  1  0  0  0  0  0  0  0  0  0
  -27.6598  -28.3485   21.2022 C   0  0  1  0  0  0  0  0  0  0  0  0
  -29.2494  -28.5618   16.2425 C   0  0  0  0  0  0  0  0  0  0  0  0
  -21.6452  -19.3898   24.1146 C   0  0  0  0  0  0  0  0  0  0  0  0
  -21.8535  -14.0176   20.2458 C   0  0  0  0  0  0  0  0  0  0  0  0
  -20.8938  -16.2796   20.7258 C   0  0  0  0  0  0  0  0  0  0  0  0
  -20.5946  -14.4258   22.3679 C   0  0  0  0  0  0  0  0  0  0  0  0
  -25.2046  -18.6130   25.2116 C   0  0  0  0  0  0  0  0  0  0  0  0
  -22.8715  -15.4927   22.1043 C   0  0  1  0  0  0  0  0  0  0  0  0
  -22.8404  -18.4984   24.4140 C   0  0  2  0  0  0  0  0  0  0  0  0
  -21.5814  -15.0505   21.3576 C   0  0  0  0  0  0  0  0  0  0  0  0
  -25.2099  -28.2930   21.4709 N   0  0  0  0  0  0  0  0  0  0  0  0
  -26.2848  -28.9605   21.0179 N   0  0  0  0  0  0  0  0  0  0  0  0
  -29.4667  -26.2392   16.9501 N   0  0  0  0  0  0  0  0  0  0  0  0
  -29.3171  -25.3327   19.1323 N   0  0  0  0  0  0  0  0  0  0  0  0
  -24.9174  -14.1119   22.2823 N   0  0  0  0  0  0  0  0  0  0  0  0
  -28.9608  -26.2611   21.2923 N   0  0  0  0  0  0  0  0  0  0  0  0
  -26.9466  -30.9507   19.9171 N   0  0  0  0  0  0  0  0  0  0  0  0
  -22.4532  -31.3366   20.1553 N   0  0  0  0  0  0  0  0  0  0  0  0
  -30.0950  -20.7409   17.4928 N   0  0  0  0  0  0  0  0  0  0  0  0
  -24.7025  -10.7610   21.9751 N   0  0  0  0  0  0  0  0  0  0  0  0
  -22.6406  -16.4502   23.1805 N   0  0  0  0  0  0  0  0  0  0  0  0
  -23.9700  -19.3614   24.8614 N   0  3  0  0  0  0  0  0  0  0  0  0
  -24.3729  -32.3526   19.4195 O   0  0  0  0  0  0  0  0  0  0  0  0
  -29.8434  -20.4696   19.8121 O   0  0  0  0  0  0  0  0  0  0  0  0
  -25.8672  -12.1115   20.4778 O   0  0  0  0  0  0  0  0  0  0  0  0
  -29.7084  -26.8143   14.7046 O   0  0  0  0  0  0  0  0  0  0  0  0
  -23.0364  -13.6404   23.5768 O   0  0  0  0  0  0  0  0  0  0  0  0
  -24.0176  -18.1155   22.3391 O   0  0  0  0  0  0  0  0  0  0  0  0
  -30.0501  -24.2568   21.0420 O   0  0  0  0  0  0  0  0  0  0  0  0
  -31.0434  -18.1398   17.4271 O   0  0  0  0  0  0  0  0  0  0  0  0
  -18.9466  -27.6487   22.4221 O   0  0  0  0  0  0  0  0  0  0  0  0
  -29.7914  -16.3224   19.1970 O   0  0  0  0  0  0  0  0  0  1  0  0
  -15.6935  -31.5089   24.6403 F   0  0  0  0  0  0  0  0  0  0  0  0
  -17.8302  -27.2948   24.9263 F   0  0  0  0  0  0  0  0  0  0  0  0
  1  2  1  0  0  0  0
  1  5  2  0  0  0  0
  2  6  2  0  0  0  0
  3 10  2  0  0  0  0
  3 18  1  0  0  0  0
  4 11  1  0  0  0  0
  4 18  2  0  0  0  0
  5 20  1  0  0  0  0
  6 22  1  0  0  0  0
  7 12  2  0  0  0  0
  7 21  1  0  0  0  0
  8  9  2  0  0  0  0
  8 24  1  0  0  0  0
  9 26  1  0  0  0  0
 10 27  1  0  0  0  0
 11 27  2  0  0  0  0
 12 28  1  0  0  0  0
 13 14  2  0  0  0  0
 13 29  1  0  0  0  0
 14 30  1  0  0  0  0
 15 23  1  0  0  0  0
 15 28  2  0  0  0  0
 16 25  1  0  0  0  0
 16 26  2  0  0  0  0
 17 30  2  0  0  0  0
 17 31  1  0  0  0  0
 18 32  1  0  0  0  0
 19 32  1  0  0  0  0
 19 33  2  0  0  0  0
 19 35  1  0  0  0  0
 20 22  2  0  0  0  0
 20 43  1  0  0  0  0
 21 23  2  0  0  0  0
 21 44  1  0  0  0  0
 22 53  1  0  0  0  0
 23 45  1  0  0  0  0
 24 25  2  0  0  0  0
 24 67  1  0  0  0  0
 25 68  1  0  0  0  0
 26 73  1  0  0  0  0
 27 85  1  0  0  0  0
 28 86  1  0  0  0  0
 29 31  2  0  0  0  0
 29 85  1  0  0  0  0
 30 87  1  0  0  0  0
 31 88  1  0  0  0  0
 32 65  2  0  0  0  0
 33 66  1  0  0  0  0
 33 71  1  0  0  0  0
 34 36  2  0  0  0  0
 34 86  1  0  0  0  0
 35 72  1  0  0  0  0
 35 77  2  0  0  0  0
 36 37  1  0  0  0  0
 36 84  1  0  0  0  0
 37 73  1  0  0  0  0
 37 78  2  0  0  0  0
 38 54  1  0  0  0  0
 38 74  1  0  0  0  0
 38 79  2  0  0  0  0
 39 56  1  0  0  0  0
 39 67  1  0  0  0  0
 39 80  2  0  0  0  0
 40 62  1  0  0  0  0
 40 69  1  0  0  0  0
 40 81  2  0  0  0  0
 41 63  1  0  0  0  0
 41 75  1  0  0  0  0
 41 82  2  0  0  0  0
 42 68  1  0  0  0  0
 42 70  1  0  0  0  0
 42 83  2  0  0  0  0
 43 46  1  0  0  0  0
 44 54  1  0  0  0  0
 45 69  1  0  0  0  0
 46 48  1  0  0  0  0
 47 49  1  0  0  0  0
 47 50  1  0  0  0  0
 48 53  1  0  0  0  0
 49 55  1  0  0  0  0
 50 70  1  0  0  0  0
 51 55  1  0  0  0  0
 51 70  1  0  0  0  0
 52 67  1  0  0  0  0
 52 68  1  0  0  0  0
 53 74  1  0  0  0  0
 54 69  1  0  0  0  0
 55 66  1  0  0  0  0
 57 63  1  0  0  0  0
 58 64  1  0  0  0  0
 59 64  1  0  0  0  0
 60 64  1  0  0  0  0
 61 76  1  0  0  0  0
 62 64  1  0  0  0  0
 62 75  1  0  0  0  0
 63 76  1  0  0  0  0
 65 66  1  0  0  0  0
M  CHG  1  76   1
M  ISO  4  34 101  42 100  68 100  86 101
M  END
> <Batch ID>
0091

> <Smiles>
CNC(C)C(=O)NC(C(=O)N1Cc2cc([101O:1][101CH2:1]C(=O)C(=O)Nc3ccc4c(c3)[100N:0]([100C:0](=O)N3CCCC(n5nc(-c6ccc(Oc7ccc(F)cc7F)cc6)c(C(N)=O)c5N)C3)CN4C(C)=O)ccc2CC1C(=O)NC1CCCc2ccccc21)C(C)(C)C

> <Shape>
0.279

> <Color>
0.071

> <Negative vol penalty>
0.000

$$$$

  -OEChem-04052300313D

 85 93  0     1  0  0  0  0  0999 V2000
  -29.0265  -36.2472   21.8960 C   0  0  0  0  0  0  0  0  0  0  0  0
  -29.0176  -34.9268   22.3339 C   0  0  0  0  0  0  0  0  0  0  0  0
  -23.1539   -9.9900   19.9176 C   0  0  0  0  0  0  0  0  0  0  0  0
  -24.3982   -9.6382   21.9584 C   0  0  0  0  0  0  0  0  0  0  0  0
  -27.8260  -36.9421   21.7558 C   0  0  0  0  0  0  0  0  0  0  0  0
  -27.8080  -34.3008   22.6330 C   0  0  0  0  0  0  0  0  0  0  0  0
  -27.5226  -29.6161   20.7313 C   0  0  0  0  0  0  0  0  0  0  0  0
  -22.6840   -8.6781   19.9779 C   0  0  0  0  0  0  0  0  0  0  0  0
  -23.9283   -8.3262   22.0188 C   0  0  0  0  0  0  0  0  0  0  0  0
  -28.2041  -28.6093   21.4137 C   0  0  0  0  0  0  0  0  0  0  0  0
  -21.0931   -6.7380   22.9460 C   0  0  0  0  0  0  0  0  0  0  0  0
  -20.6357   -6.2711   24.1782 C   0  0  0  0  0  0  0  0  0  0  0  0
  -26.1364  -27.9178   22.4462 C   0  0  0  0  0  0  0  0  0  0  0  0
  -29.1197  -19.7949   23.7087 C   0  0  0  0  0  0  0  0  0  0  0  0
  -29.1129  -20.3668   21.3614 C   0  0  0  0  0  0  0  0  0  0  0  0
  -22.3104   -4.5301   24.1402 C   0  0  0  0  0  0  0  0  0  0  0  0
  -24.0111  -10.4700   20.9078 C   0  0  0  0  0  0  0  0  0  0  0  0
  -23.8998  -12.9691   21.4075 C   0  0  0  0  0  0  0  0  0  0  0  0
  -26.6004  -36.3213   22.0441 C   0  0  0  0  0  0  0  0  0  0  0  0
  -26.1424  -29.7885   20.9099 C   0  0  0  0  0  0  0  0  0  0  0  0
  -26.5900  -34.9885   22.4979 C   0  0  0  0  0  0  0  0  0  0  0  0
  -25.4393  -28.9259   21.7629 C   0  0  0  0  0  0  0  0  0  0  0  0
  -29.1825  -18.4412   23.3788 C   0  0  0  0  0  0  0  0  0  0  0  0
  -29.0848  -20.7578   22.7000 C   0  0  0  0  0  0  0  0  0  0  0  0
  -29.2105  -18.0502   22.0401 C   0  0  0  0  0  0  0  0  0  0  0  0
  -23.0711   -7.8462   21.0285 C   0  0  0  0  0  0  0  0  0  0  0  0
  -27.5115  -27.7618   22.2735 C   0  0  0  0  0  0  0  0  0  0  0  0
  -22.1591   -6.1009   22.3108 C   0  0  0  0  0  0  0  0  0  0  0  0
  -21.2443   -5.1672   24.7754 C   0  0  0  0  0  0  0  0  0  0  0  0
  -29.1757  -19.0130   21.0314 C   0  0  0  0  0  0  0  0  0  0  0  0
  -22.7677   -4.9970   22.9079 C   0  0  0  0  0  0  0  0  0  0  0  0
  -24.4973  -11.8250   20.8457 C   0  0  0  0  0  0  0  0  0  0  0  0
  -24.7447  -13.9982   21.0707 C   0  0  0  0  0  0  0  0  0  0  0  0
  -28.2824  -25.5546   22.3432 C   0  0  0  0  0  0  0  0  0  1  0  0
  -22.6892  -13.0908   22.1660 C   0  0  0  0  0  0  0  0  0  0  0  0
  -28.9118  -24.5173   22.9083 C   0  0  0  0  0  0  0  0  0  0  0  0
  -28.9762  -23.2146   22.1686 C   0  0  0  0  0  0  0  0  0  0  0  0
  -24.2991  -32.1296   22.0166 C   0  0  0  0  0  0  0  0  0  0  0  0
  -21.9010  -30.1802   21.0311 C   0  0  0  0  0  0  0  0  0  0  0  0
  -20.8596  -27.0165   20.2872 C   0  0  0  0  0  0  0  0  0  0  0  0
  -29.8640  -16.1259   20.5513 C   0  0  0  0  0  0  0  0  0  0  0  0
  -25.3318  -37.1279   21.9228 C   0  0  0  0  0  0  0  0  0  0  0  0
  -25.4173  -30.8624   20.1460 C   0  0  0  0  0  0  0  0  0  0  0  0
  -23.9537  -29.0563   21.9738 C   0  0  0  0  0  0  0  0  0  0  0  0
  -24.0667  -36.2739   21.9018 C   0  0  0  0  0  0  0  0  0  0  0  0
  -28.6556  -14.1325   17.8599 C   0  0  0  0  0  0  0  0  0  0  0  0
  -24.1136  -35.2229   23.0063 C   0  0  0  0  0  0  0  0  0  0  0  0
  -27.4169  -13.4486   18.4430 C   0  0  0  0  0  0  0  0  0  0  0  0
  -29.7674  -14.2731   18.8982 C   0  0  0  0  0  0  0  0  0  0  0  0
  -28.1276  -14.2373   20.7364 C   0  0  0  0  0  0  0  0  0  0  0  0
  -25.2964  -34.2672   22.8085 C   0  0  1  0  0  0  0  0  0  0  0  0
  -24.1008  -31.2739   20.7976 C   0  0  1  0  0  0  0  0  0  0  0  0
  -26.9567  -14.1317   19.7458 C   0  0  2  0  0  0  0  0  0  0  0  0
  -29.2174  -17.4316   24.4802 C   0  0  0  0  0  0  0  0  0  0  0  0
  -18.8351  -25.7323   19.5458 C   0  0  0  0  0  0  0  0  0  0  0  0
  -20.7336  -30.4030   23.8414 C   0  0  0  0  0  0  0  0  0  0  0  0
  -19.3089  -28.4081   23.3323 C   0  0  0  0  0  0  0  0  0  0  0  0
  -19.0447  -30.5001   21.9994 C   0  0  0  0  0  0  0  0  0  0  0  0
  -22.2046  -26.0965   17.8167 C   0  0  0  0  0  0  0  0  0  0  0  0
  -21.1002  -29.0671   21.6626 C   0  0  1  0  0  0  0  0  0  0  0  0
  -20.0932  -26.4613   19.1003 C   0  0  2  0  0  0  0  0  0  0  0  0
  -20.0752  -29.5931   22.7066 C   0  0  0  0  0  0  0  0  0  0  0  0
  -25.6340  -12.1008   20.2008 N   0  0  0  0  0  0  0  0  0  0  0  0
  -25.7574  -13.4301   20.3552 N   0  0  0  0  0  0  0  0  0  0  0  0
  -23.2907  -30.1256   21.2092 N   0  0  0  0  0  0  0  0  0  0  0  0
  -29.2592  -14.9325   20.1031 N   0  0  0  0  0  0  0  0  0  0  0  0
  -24.7128  -15.3247   21.3196 N   0  0  0  0  0  0  0  0  0  0  0  0
  -21.9415  -11.9332   22.4215 N   0  0  0  0  0  0  0  0  0  0  0  0
  -29.0198  -22.1316   23.0358 N   0  0  0  0  0  0  0  0  0  0  0  0
  -29.2749  -16.6792   21.6877 N   0  0  0  0  0  0  0  0  0  0  0  0
  -24.9962  -33.2983   21.7763 N   0  0  0  0  0  0  0  0  0  0  0  0
  -20.5019  -28.3195   20.5619 N   0  0  0  0  0  0  0  0  0  0  0  0
  -20.9438  -25.5062   18.3353 N   0  3  0  0  0  0  0  0  0  0  0  0
  -22.2740  -14.1959   22.5903 O   0  0  0  0  0  0  0  0  0  0  0  0
  -28.9855  -23.1861   20.9426 O   0  0  0  0  0  0  0  0  0  0  0  0
  -23.8514  -31.7579   23.0951 O   0  0  0  0  0  0  0  0  0  0  0  0
  -21.3158  -31.0616   20.3969 O   0  0  0  0  0  0  0  0  0  0  0  0
  -21.6896  -26.3588   20.9108 O   0  0  0  0  0  0  0  0  0  0  0  0
  -30.8159  -16.6350   19.9542 O   0  0  0  0  0  0  0  0  0  0  0  0
  -29.5084  -24.5982   24.1501 O   0  0  0  0  0  0  0  0  0  0  0  0
  -22.6126   -6.5661   21.0879 O   0  0  0  0  0  0  0  0  0  0  0  0
  -28.1744  -26.7787   22.9413 O   0  0  0  0  0  0  0  0  0  1  0  0
  -20.8060   -4.7199   25.9594 F   0  0  0  0  0  0  0  0  0  0  0  0
  -29.2020  -18.6494   19.7412 F   0  0  0  0  0  0  0  0  0  0  0  0
  -23.7930   -4.3815   22.3031 F   0  0  0  0  0  0  0  0  0  0  0  0
  1  2  1  0  0  0  0
  1  5  2  0  0  0  0
  2  6  2  0  0  0  0
  3  8  2  0  0  0  0
  3 17  1  0  0  0  0
  4  9  1  0  0  0  0
  4 17  2  0  0  0  0
  5 19  1  0  0  0  0
  6 21  1  0  0  0  0
  7 10  2  0  0  0  0
  7 20  1  0  0  0  0
  8 26  1  0  0  0  0
  9 26  2  0  0  0  0
 10 27  1  0  0  0  0
 11 12  2  0  0  0  0
 11 28  1  0  0  0  0
 12 29  1  0  0  0  0
 13 22  1  0  0  0  0
 13 27  2  0  0  0  0
 14 23  2  0  0  0  0
 14 24  1  0  0  0  0
 15 24  2  0  0  0  0
 15 30  1  0  0  0  0
 16 29  2  0  0  0  0
 16 31  1  0  0  0  0
 17 32  1  0  0  0  0
 18 32  1  0  0  0  0
 18 33  2  0  0  0  0
 18 35  1  0  0  0  0
 19 21  2  0  0  0  0
 19 42  1  0  0  0  0
 20 22  2  0  0  0  0
 20 43  1  0  0  0  0
 21 51  1  0  0  0  0
 22 44  1  0  0  0  0
 23 25  1  0  0  0  0
 23 54  1  0  0  0  0
 24 69  1  0  0  0  0
 25 30  2  0  0  0  0
 25 70  1  0  0  0  0
 26 81  1  0  0  0  0
 27 82  1  0  0  0  0
 28 31  2  0  0  0  0
 28 81  1  0  0  0  0
 29 83  1  0  0  0  0
 30 84  1  0  0  0  0
 31 85  1  0  0  0  0
 32 63  2  0  0  0  0
 33 64  1  0  0  0  0
 33 67  1  0  0  0  0
 34 36  2  0  0  0  0
 34 82  1  0  0  0  0
 35 68  1  0  0  0  0
 35 74  2  0  0  0  0
 36 37  1  0  0  0  0
 36 80  1  0  0  0  0
 37 69  1  0  0  0  0
 37 75  2  0  0  0  0
 38 52  1  0  0  0  0
 38 71  1  0  0  0  0
 38 76  2  0  0  0  0
 39 60  1  0  0  0  0
 39 65  1  0  0  0  0
 39 77  2  0  0  0  0
 40 61  1  0  0  0  0
 40 72  1  0  0  0  0
 40 78  2  0  0  0  0
 41 66  1  0  0  0  0
 41 70  1  0  0  0  0
 41 79  2  0  0  0  0
 42 45  1  0  0  0  0
 43 52  1  0  0  0  0
 44 65  1  0  0  0  0
 45 47  1  0  0  0  0
 46 48  1  0  0  0  0
 46 49  1  0  0  0  0
 47 51  1  0  0  0  0
 48 53  1  0  0  0  0
 49 66  1  0  0  0  0
 50 53  1  0  0  0  0
 50 66  1  0  0  0  0
 51 71  1  0  0  0  0
 52 65  1  0  0  0  0
 53 64  1  0  0  0  0
 55 61  1  0  0  0  0
 56 62  1  0  0  0  0
 57 62  1  0  0  0  0
 58 62  1  0  0  0  0
 59 73  1  0  0  0  0
 60 62  1  0  0  0  0
 60 72  1  0  0  0  0
 61 73  1  0  0  0  0
 63 64  1  0  0  0  0
M  CHG  1  73   1
M  ISO  4  34 101  41 100  70 100  82 101
M  END
> <Batch ID>
0091

> <Smiles>
CNC(C)C(=O)NC(C(=O)N1Cc2cc([101O:1][101CH2:1]C(=O)C(=O)Nc3cc(C)c([100NH:0][100C:0](=O)N4CCCC(n5nc(-c6ccc(Oc7ccc(F)cc7F)cc6)c(C(N)=O)c5N)C4)c(F)c3)ccc2CC1C(=O)NC1CCCc2ccccc21)C(C)(C)C

> <Shape>
0.324

> <Color>
0.124

> <Negative vol penalty>
0.000

$$$$

  -OEChem-04052300313D

 85 93  0     1  0  0  0  0  0999 V2000
  -30.8429  -35.1044   21.0231 C   0  0  0  0  0  0  0  0  0  0  0  0
  -31.0132  -33.7237   21.0287 C   0  0  0  0  0  0  0  0  0  0  0  0
  -27.1157  -16.9911   17.5067 C   0  0  0  0  0  0  0  0  0  0  0  0
  -24.3055  -11.0111   24.0626 C   0  0  0  0  0  0  0  0  0  0  0  0
  -23.4917  -12.9348   25.2767 C   0  0  0  0  0  0  0  0  0  0  0  0
  -29.6474  -35.6600   21.4770 C   0  0  0  0  0  0  0  0  0  0  0  0
  -29.9883  -32.8978   21.4891 C   0  0  0  0  0  0  0  0  0  0  0  0
  -28.5189  -27.3352   19.3904 C   0  0  0  0  0  0  0  0  0  0  0  0
  -27.2442  -18.1881   18.2113 C   0  0  0  0  0  0  0  0  0  0  0  0
  -28.0357  -15.9619   17.7065 C   0  0  0  0  0  0  0  0  0  0  0  0
  -23.7073  -10.1674   24.9985 C   0  0  0  0  0  0  0  0  0  0  0  0
  -22.8935  -12.0911   26.2126 C   0  0  0  0  0  0  0  0  0  0  0  0
  -28.8218  -26.0518   19.8429 C   0  0  0  0  0  0  0  0  0  0  0  0
  -20.6087   -8.9939   25.6725 C   0  0  0  0  0  0  0  0  0  0  0  0
  -19.8911   -7.8984   25.1924 C   0  0  0  0  0  0  0  0  0  0  0  0
  -26.7107  -25.9707   21.0073 C   0  0  0  0  0  0  0  0  0  0  0  0
  -21.3684   -6.4066   26.3879 C   0  0  0  0  0  0  0  0  0  0  0  0
  -24.1978  -12.3948   24.2017 C   0  0  0  0  0  0  0  0  0  0  0  0
  -24.2404  -13.7697   22.0534 C   0  0  0  0  0  0  0  0  0  0  0  0
  -28.6038  -34.8400   21.9343 C   0  0  0  0  0  0  0  0  0  0  0  0
  -27.3124  -27.9514   19.7525 C   0  0  0  0  0  0  0  0  0  0  0  0
  -28.7783  -33.4430   21.9508 C   0  0  0  0  0  0  0  0  0  0  0  0
  -26.3938  -27.2610   20.5560 C   0  0  0  0  0  0  0  0  0  0  0  0
  -28.2929  -18.3559   19.1156 C   0  0  0  0  0  0  0  0  0  0  0  0
  -29.0844  -16.1297   18.6108 C   0  0  0  0  0  0  0  0  0  0  0  0
  -23.0013  -10.7074   26.0735 C   0  0  0  0  0  0  0  0  0  0  0  0
  -27.9190  -25.3704   20.6539 C   0  0  0  0  0  0  0  0  0  0  0  0
  -21.7062   -8.7958   26.5103 C   0  0  0  0  0  0  0  0  0  0  0  0
  -20.2708   -6.6048   25.5501 C   0  0  0  0  0  0  0  0  0  0  0  0
  -22.0860   -7.5021   26.8680 C   0  0  0  0  0  0  0  0  0  0  0  0
  -29.2131  -17.3267   19.3153 C   0  0  0  0  0  0  0  0  0  0  0  0
  -24.8160  -13.2669   23.2356 C   0  0  0  0  0  0  0  0  0  0  0  0
  -25.2278  -14.5424   21.4925 C   0  0  0  0  0  0  0  0  0  0  0  0
  -27.8264  -23.0561   20.3285 C   0  0  0  0  0  0  0  0  0  1  0  0
  -22.9304  -13.5574   21.5108 C   0  0  0  0  0  0  0  0  0  0  0  0
  -28.0627  -21.7830   20.6676 C   0  0  0  0  0  0  0  0  0  0  0  0
  -27.5988  -20.6885   19.7537 C   0  0  0  0  0  0  0  0  0  0  0  0
  -26.5296  -30.5672   21.3798 C   0  0  0  0  0  0  0  0  0  0  0  0
  -23.5280  -29.7906   20.4259 C   0  0  0  0  0  0  0  0  0  0  0  0
  -21.3531  -27.3763   19.3829 C   0  0  0  0  0  0  0  0  0  0  0  0
  -30.7043  -14.8484   20.0340 C   0  0  0  0  0  0  0  0  0  0  0  0
  -27.3477  -35.4889   22.4595 C   0  0  0  0  0  0  0  0  0  0  0  0
  -26.9888  -29.3258   19.2342 C   0  0  0  0  0  0  0  0  0  0  0  0
  -25.0759  -27.8702   20.9566 C   0  0  0  0  0  0  0  0  0  0  0  0
  -26.1695  -34.5258   22.5806 C   0  0  0  0  0  0  0  0  0  0  0  0
  -29.6433  -16.1520   23.3306 C   0  0  0  0  0  0  0  0  0  0  0  0
  -26.6080  -33.2274   23.2505 C   0  0  0  0  0  0  0  0  0  0  0  0
  -28.2827  -15.4886   23.5359 C   0  0  0  0  0  0  0  0  0  0  0  0
  -30.5637  -15.2997   22.4623 C   0  0  0  0  0  0  0  0  0  0  0  0
  -28.6047  -14.2718   21.3457 C   0  0  0  0  0  0  0  0  0  0  0  0
  -27.6805  -32.5128   22.4195 C   0  0  1  0  0  0  0  0  0  0  0  0
  -25.9576  -30.0585   20.0869 C   0  0  1  0  0  0  0  0  0  0  0  0
  -27.6448  -15.1295   22.1838 C   0  0  1  0  0  0  0  0  0  0  0  0
  -18.9576  -27.0377   18.7164 C   0  0  0  0  0  0  0  0  0  0  0  0
  -22.6952  -29.9283   23.3581 C   0  0  0  0  0  0  0  0  0  0  0  0
  -20.6088  -28.6844   22.7517 C   0  0  0  0  0  0  0  0  0  0  0  0
  -21.0534  -30.9294   21.7592 C   0  0  0  0  0  0  0  0  0  0  0  0
  -30.5121  -14.3384   17.6393 C   0  0  0  0  0  0  0  0  0  0  0  0
  -22.1145  -26.4766   16.6682 C   0  0  0  0  0  0  0  0  0  0  0  0
  -22.4133  -28.9422   20.9887 C   0  0  1  0  0  0  0  0  0  0  0  0
  -20.3665  -27.3394   18.2298 C   0  0  2  0  0  0  0  0  0  0  0  0
  -21.7183  -29.6101   22.2086 C   0  0  0  0  0  0  0  0  0  0  0  0
  -26.0717  -13.6849   23.4160 N   0  0  0  0  0  0  0  0  0  0  0  0
  -26.2933  -14.4584   22.3397 N   0  0  0  0  0  0  0  0  0  0  0  0
  -24.8081  -29.2186   20.4297 N   0  0  0  0  0  0  0  0  0  0  0  0
  -29.9211  -14.9153   21.2046 N   0  0  0  0  0  0  0  0  0  0  0  0
  -25.2798  -15.2787   20.3621 N   0  0  0  0  0  0  0  0  0  0  0  0
  -22.0405  -12.7353   22.2155 N   0  0  0  0  0  0  0  0  0  0  0  0
  -28.4202  -19.5721   19.8290 N   0  0  0  0  0  0  0  0  0  0  0  0
  -27.0775  -31.8328   21.2933 N   0  0  0  0  0  0  0  0  0  0  0  0
  -21.5170  -28.6543   19.8741 N   0  0  0  0  0  0  0  0  0  0  0  0
  -30.0340  -15.0631   18.8146 N   0  0  0  0  0  0  0  0  0  0  0  0
  -20.7585  -26.2909   17.2460 N   0  3  0  0  0  0  0  0  0  0  0  0
  -22.5655  -14.0680   20.4246 O   0  0  0  0  0  0  0  0  0  0  0  0
  -26.6035  -20.8331   19.0521 O   0  0  0  0  0  0  0  0  0  0  0  0
  -26.4763  -29.8642   22.3821 O   0  0  0  0  0  0  0  0  0  0  0  0
  -23.2712  -30.9165   19.9922 O   0  0  0  0  0  0  0  0  0  0  0  0
  -21.9188  -26.3714   19.8080 O   0  0  0  0  0  0  0  0  0  0  0  0
  -31.9074  -14.5618   20.0671 O   0  0  0  0  0  0  0  0  0  0  0  0
  -28.7206  -21.4344   21.8297 O   0  0  0  0  0  0  0  0  0  0  0  0
  -22.4172   -9.8844   26.9868 O   0  0  0  0  0  0  0  0  0  0  0  0
  -28.2124  -24.1178   21.0975 O   0  0  0  0  0  0  0  0  0  1  0  0
  -19.5807   -5.5530   25.0902 F   0  0  0  0  0  0  0  0  0  0  0  0
  -23.1388   -7.3056   27.6735 F   0  0  0  0  0  0  0  0  0  0  0  0
  -30.2225  -17.4887   20.1846 F   0  0  0  0  0  0  0  0  0  0  0  0
  1  2  1  0  0  0  0
  1  6  2  0  0  0  0
  2  7  2  0  0  0  0
  3  9  2  0  0  0  0
  3 10  1  0  0  0  0
  4 11  2  0  0  0  0
  4 18  1  0  0  0  0
  5 12  1  0  0  0  0
  5 18  2  0  0  0  0
  6 20  1  0  0  0  0
  7 22  1  0  0  0  0
  8 13  2  0  0  0  0
  8 21  1  0  0  0  0
  9 24  1  0  0  0  0
 10 25  2  0  0  0  0
 11 26  1  0  0  0  0
 12 26  2  0  0  0  0
 13 27  1  0  0  0  0
 14 15  2  0  0  0  0
 14 28  1  0  0  0  0
 15 29  1  0  0  0  0
 16 23  1  0  0  0  0
 16 27  2  0  0  0  0
 17 29  2  0  0  0  0
 17 30  1  0  0  0  0
 18 32  1  0  0  0  0
 19 32  1  0  0  0  0
 19 33  2  0  0  0  0
 19 35  1  0  0  0  0
 20 22  2  0  0  0  0
 20 42  1  0  0  0  0
 21 23  2  0  0  0  0
 21 43  1  0  0  0  0
 22 51  1  0  0  0  0
 23 44  1  0  0  0  0
 24 31  2  0  0  0  0
 24 69  1  0  0  0  0
 25 31  1  0  0  0  0
 25 72  1  0  0  0  0
 26 81  1  0  0  0  0
 27 82  1  0  0  0  0
 28 30  2  0  0  0  0
 28 81  1  0  0  0  0
 29 83  1  0  0  0  0
 30 84  1  0  0  0  0
 31 85  1  0  0  0  0
 32 63  2  0  0  0  0
 33 64  1  0  0  0  0
 33 67  1  0  0  0  0
 34 36  2  0  0  0  0
 34 82  1  0  0  0  0
 35 68  1  0  0  0  0
 35 74  2  0  0  0  0
 36 37  1  0  0  0  0
 36 80  1  0  0  0  0
 37 69  1  0  0  0  0
 37 75  2  0  0  0  0
 38 52  1  0  0  0  0
 38 70  1  0  0  0  0
 38 76  2  0  0  0  0
 39 60  1  0  0  0  0
 39 65  1  0  0  0  0
 39 77  2  0  0  0  0
 40 61  1  0  0  0  0
 40 71  1  0  0  0  0
 40 78  2  0  0  0  0
 41 66  1  0  0  0  0
 41 72  1  0  0  0  0
 41 79  2  0  0  0  0
 42 45  1  0  0  0  0
 43 52  1  0  0  0  0
 44 65  1  0  0  0  0
 45 47  1  0  0  0  0
 46 48  1  0  0  0  0
 46 49  1  0  0  0  0
 47 51  1  0  0  0  0
 48 53  1  0  0  0  0
 49 66  1  0  0  0  0
 50 53  1  0  0  0  0
 50 66  1  0  0  0  0
 51 70  1  0  0  0  0
 52 65  1  0  0  0  0
 53 64  1  0  0  0  0
 54 61  1  0  0  0  0
 55 62  1  0  0  0  0
 56 62  1  0  0  0  0
 57 62  1  0  0  0  0
 58 72  1  0  0  0  0
 59 73  1  0  0  0  0
 60 62  1  0  0  0  0
 60 71  1  0  0  0  0
 61 73  1  0  0  0  0
 63 64  1  0  0  0  0
M  CHG  1  73   1
M  ISO  4  34 101  41 100  72 100  82 101
M  END
> <Batch ID>
0091

> <Smiles>
CNC(C)C(=O)NC(C(=O)N1Cc2cc([101O:1][101CH2:1]C(=O)C(=O)Nc3cccc([100N:0](C)[100C:0](=O)N4CCCC(n5nc(-c6ccc(Oc7ccc(F)cc7F)cc6)c(C(N)=O)c5N)C4)c3F)ccc2CC1C(=O)NC1CCCc2ccccc21)C(C)(C)C

> <Shape>
0.231

> <Color>
0.108

> <Negative vol penalty>
0.000

$$$$

  -OEChem-04052300313D

 81 89  0     1  0  0  0  0  0999 V2000
  -28.5173  -32.6986   20.5073 C   0  0  0  0  0  0  0  0  0  0  0  0
  -28.3965  -31.3292   20.7212 C   0  0  0  0  0  0  0  0  0  0  0  0
  -25.8279  -14.0125   19.7125 C   0  0  0  0  0  0  0  0  0  0  0  0
  -24.7183  -13.7891   21.8469 C   0  0  0  0  0  0  0  0  0  0  0  0
  -27.5544  -33.5698   21.0147 C   0  0  0  0  0  0  0  0  0  0  0  0
  -27.3131  -30.8305   21.4436 C   0  0  0  0  0  0  0  0  0  0  0  0
  -25.2307  -26.7624   19.2620 C   0  0  0  0  0  0  0  0  0  0  0  0
  -25.9068  -12.6238   19.6081 C   0  0  0  0  0  0  0  0  0  0  0  0
  -24.7972  -12.4004   21.7426 C   0  0  0  0  0  0  0  0  0  0  0  0
  -25.8903  -25.5449   19.4246 C   0  0  0  0  0  0  0  0  0  0  0  0
  -23.1551   -9.9285   20.1258 C   0  0  0  0  0  0  0  0  0  0  0  0
  -22.0153   -9.1904   20.4445 C   0  0  0  0  0  0  0  0  0  0  0  0
  -24.3385  -24.9441   21.1710 C   0  0  0  0  0  0  0  0  0  0  0  0
  -26.7223  -20.7303   18.1106 C   0  0  0  0  0  0  0  0  0  0  0  0
  -28.1239  -21.5242   19.9112 C   0  0  0  0  0  0  0  0  0  0  0  0
  -23.2398   -8.0525   22.1889 C   0  0  0  0  0  0  0  0  0  0  0  0
  -25.2337  -14.5952   20.8319 C   0  0  0  0  0  0  0  0  0  0  0  0
  -24.1098  -16.8589   20.4855 C   0  0  0  0  0  0  0  0  0  0  0  0
  -26.4535  -33.0807   21.7355 C   0  0  0  0  0  0  0  0  0  0  0  0
  -24.1248  -27.0850   20.0616 C   0  0  0  0  0  0  0  0  0  0  0  0
  -26.3352  -31.6961   21.9623 C   0  0  0  0  0  0  0  0  0  0  0  0
  -23.6650  -26.1653   21.0148 C   0  0  0  0  0  0  0  0  0  0  0  0
  -28.7724  -19.5700   18.6473 C   0  0  0  0  0  0  0  0  0  0  0  0
  -26.9733  -21.6463   19.1321 C   0  0  0  0  0  0  0  0  0  0  0  0
  -27.6218  -19.6921   17.8682 C   0  0  0  0  0  0  0  0  0  0  0  0
  -29.0234  -20.4860   19.6688 C   0  0  0  0  0  0  0  0  0  0  0  0
  -25.3914  -11.8177   20.6231 C   0  0  0  0  0  0  0  0  0  0  0  0
  -25.4460  -24.6368   20.3812 C   0  0  0  0  0  0  0  0  0  0  0  0
  -24.3374   -9.7285   20.8386 C   0  0  0  0  0  0  0  0  0  0  0  0
  -22.0576   -8.2524   21.4760 C   0  0  0  0  0  0  0  0  0  0  0  0
  -24.3797   -8.7905   21.8702 C   0  0  0  0  0  0  0  0  0  0  0  0
  -25.1525  -16.0296   20.9405 C   0  0  0  0  0  0  0  0  0  0  0  0
  -24.5076  -18.1287   20.8261 C   0  0  0  0  0  0  0  0  0  0  0  0
  -22.8908  -16.5124   19.8151 C   0  0  0  0  0  0  0  0  0  0  0  0
  -23.4771  -29.3645   22.1801 C   0  0  0  0  0  0  0  0  0  0  0  0
  -20.5183  -28.0362   22.1222 C   0  0  0  0  0  0  0  0  0  0  0  0
  -18.5864  -25.2910   21.5069 C   0  0  0  0  0  0  0  0  0  0  0  0
  -30.1679  -20.2065   21.8831 C   0  0  0  0  0  0  0  0  0  0  0  0
  -25.4632  -34.0653   22.3050 C   0  0  0  0  0  0  0  0  0  0  0  0
  -23.4078  -28.3911   19.8555 C   0  0  0  0  0  0  0  0  0  0  0  0
  -22.4699  -26.4551   21.8845 C   0  0  0  0  0  0  0  0  0  0  0  0
  -24.1475  -33.4241   22.7389 C   0  0  0  0  0  0  0  0  0  0  0  0
  -27.1538  -20.5228   24.0063 C   0  0  0  0  0  0  0  0  0  0  0  0
  -24.4120  -32.1615   23.5530 C   0  0  0  0  0  0  0  0  0  0  0  0
  -26.2451  -19.4171   23.4724 C   0  0  0  0  0  0  0  0  0  0  0  0
  -28.6293  -20.1825   23.8202 C   0  0  0  0  0  0  0  0  0  0  0  0
  -28.0826  -18.7530   21.8711 C   0  0  0  0  0  0  0  0  0  0  0  0
  -25.1613  -31.1146   22.7198 C   0  0  1  0  0  0  0  0  0  0  0  0
  -22.6070  -28.8323   21.0767 C   0  0  1  0  0  0  0  0  0  0  0  0
  -26.5905  -19.0900   22.0102 C   0  0  1  0  0  0  0  0  0  0  0  0
  -29.7378  -18.4553   18.3867 C   0  0  0  0  0  0  0  0  0  0  0  0
  -16.2066  -24.4990   21.5866 C   0  0  0  0  0  0  0  0  0  0  0  0
  -20.7002  -27.8029   25.1590 C   0  0  0  0  0  0  0  0  0  0  0  0
  -18.7876  -26.1892   25.0799 C   0  0  0  0  0  0  0  0  0  0  0  0
  -18.4689  -28.5375   24.3010 C   0  0  0  0  0  0  0  0  0  0  0  0
  -31.4913  -20.7222   19.8796 C   0  0  0  0  0  0  0  0  0  0  0  0
  -18.5465  -24.7519   18.5971 C   0  0  0  0  0  0  0  0  0  0  0  0
  -19.8247  -26.9368   22.8898 C   0  0  1  0  0  0  0  0  0  0  0  0
  -17.2951  -25.1223   20.7268 C   0  0  2  0  0  0  0  0  0  0  0  0
  -19.4691  -27.3616   24.3425 C   0  0  0  0  0  0  0  0  0  0  0  0
  -26.1385  -16.7149   21.5254 N   0  0  0  0  0  0  0  0  0  0  0  0
  -25.7173  -17.9883   21.4402 N   0  0  0  0  0  0  0  0  0  0  0  0
  -21.8064  -27.7482   21.6495 N   0  0  0  0  0  0  0  0  0  0  0  0
  -28.9312  -19.8150   22.4359 N   0  0  0  0  0  0  0  0  0  0  0  0
  -27.3495  -18.7751   16.8289 N   0  0  0  0  0  0  0  0  0  0  0  0
  -23.9371  -19.3405   20.6572 N   0  0  0  0  0  0  0  0  0  0  0  0
  -22.6393  -15.1609   19.5420 N   0  0  0  0  0  0  0  0  0  0  0  0
  -26.0704  -22.6895   19.3755 N   0  0  0  0  0  0  0  0  0  1  0  0
  -24.2533  -30.4469   21.8120 N   0  0  0  0  0  0  0  0  0  0  0  0
  -18.6746  -26.5398   22.0848 N   0  0  0  0  0  0  0  0  0  0  0  0
  -30.2070  -20.3792   20.4864 N   0  0  0  0  0  0  0  0  0  0  0  0
  -17.5167  -24.2469   19.5413 N   0  3  0  0  0  0  0  0  0  0  0  0
  -22.0571  -17.3772   19.4537 O   0  0  0  0  0  0  0  0  0  0  0  0
  -23.4454  -28.8334   23.2840 O   0  0  0  0  0  0  0  0  0  0  0  0
  -19.9356  -29.1085   21.9422 O   0  0  0  0  0  0  0  0  0  0  0  0
  -19.4307  -24.4024   21.5977 O   0  0  0  0  0  0  0  0  0  0  0  0
  -31.1827  -20.3391   22.5783 O   0  0  0  0  0  0  0  0  0  0  0  0
  -25.4680  -10.4626   20.5215 O   0  0  0  0  0  0  0  0  0  0  0  0
  -26.0885  -23.4480   20.5423 O   0  0  0  0  0  0  0  0  0  1  0  0
  -20.9625   -7.5448   21.7830 F   0  0  0  0  0  0  0  0  0  0  0  0
  -25.5122   -8.5949   22.5593 F   0  0  0  0  0  0  0  0  0  0  0  0
  1  2  1  0  0  0  0
  1  5  2  0  0  0  0
  2  6  2  0  0  0  0
  3  8  2  0  0  0  0
  3 17  1  0  0  0  0
  4  9  1  0  0  0  0
  4 17  2  0  0  0  0
  5 19  1  0  0  0  0
  6 21  1  0  0  0  0
  7 10  2  0  0  0  0
  7 20  1  0  0  0  0
  8 27  1  0  0  0  0
  9 27  2  0  0  0  0
 10 28  1  0  0  0  0
 11 12  2  0  0  0  0
 11 29  1  0  0  0  0
 12 30  1  0  0  0  0
 13 22  1  0  0  0  0
 13 28  2  0  0  0  0
 14 24  1  0  0  0  0
 14 25  2  0  0  0  0
 15 24  2  0  0  0  0
 15 26  1  0  0  0  0
 16 30  2  0  0  0  0
 16 31  1  0  0  0  0
 17 32  1  0  0  0  0
 18 32  1  0  0  0  0
 18 33  2  0  0  0  0
 18 34  1  0  0  0  0
 19 21  2  0  0  0  0
 19 39  1  0  0  0  0
 20 22  2  0  0  0  0
 20 40  1  0  0  0  0
 21 48  1  0  0  0  0
 22 41  1  0  0  0  0
 23 25  1  0  0  0  0
 23 26  2  0  0  0  0
 23 51  1  0  0  0  0
 24 68  1  0  0  0  0
 25 65  1  0  0  0  0
 26 71  1  0  0  0  0
 27 78  1  0  0  0  0
 28 79  1  0  0  0  0
 29 31  2  0  0  0  0
 29 78  1  0  0  0  0
 30 80  1  0  0  0  0
 31 81  1  0  0  0  0
 32 61  2  0  0  0  0
 33 62  1  0  0  0  0
 33 66  1  0  0  0  0
 34 67  1  0  0  0  0
 34 73  2  0  0  0  0
 35 49  1  0  0  0  0
 35 69  1  0  0  0  0
 35 74  2  0  0  0  0
 36 58  1  0  0  0  0
 36 63  1  0  0  0  0
 36 75  2  0  0  0  0
 37 59  1  0  0  0  0
 37 70  1  0  0  0  0
 37 76  2  0  0  0  0
 38 64  1  0  0  0  0
 38 71  1  0  0  0  0
 38 77  2  0  0  0  0
 39 42  1  0  0  0  0
 40 49  1  0  0  0  0
 41 63  1  0  0  0  0
 42 44  1  0  0  0  0
 43 45  1  0  0  0  0
 43 46  1  0  0  0  0
 44 48  1  0  0  0  0
 45 50  1  0  0  0  0
 46 64  1  0  0  0  0
 47 50  1  0  0  0  0
 47 64  1  0  0  0  0
 48 69  1  0  0  0  0
 49 63  1  0  0  0  0
 50 62  1  0  0  0  0
 52 59  1  0  0  0  0
 53 60  1  0  0  0  0
 54 60  1  0  0  0  0
 55 60  1  0  0  0  0
 56 71  1  0  0  0  0
 57 72  1  0  0  0  0
 58 60  1  0  0  0  0
 58 70  1  0  0  0  0
 59 72  1  0  0  0  0
 61 62  1  0  0  0  0
 68 79  1  0  0  0  0
M  CHG  1  72   1
M  ISO  4  38 100  68 101  71 100  79 101
M  END
> <Batch ID>
0091

> <Smiles>
CNC(C)C(=O)NC(C(=O)N1Cc2cc([101O:1][101NH:1]c3cc(N)c(C)c([100N:0](C)[100C:0](=O)N4CCCC(n5nc(-c6ccc(Oc7ccc(F)cc7F)cc6)c(C(N)=O)c5N)C4)c3)ccc2CC1C(=O)NC1CCCc2ccccc21)C(C)(C)C

> <Shape>
0.240

> <Color>
0.055

> <Negative vol penalty>
0.000

$$$$

  -OEChem-04052300313D

 84 92  0     1  0  0  0  0  0999 V2000
  -30.4416  -35.8604   19.9558 C   0  0  0  0  0  0  0  0  0  0  0  0
  -30.2843  -34.5389   19.5505 C   0  0  0  0  0  0  0  0  0  0  0  0
  -23.2624   -7.1927   23.5580 C   0  0  0  0  0  0  0  0  0  0  0  0
  -21.1096   -7.3035   22.4670 C   0  0  0  0  0  0  0  0  0  0  0  0
  -27.5474  -19.2025   19.6799 C   0  0  0  0  0  0  0  0  0  0  0  0
  -29.9994  -36.2590   21.2166 C   0  0  0  0  0  0  0  0  0  0  0  0
  -29.6857  -33.6149   20.4062 C   0  0  0  0  0  0  0  0  0  0  0  0
  -26.0938  -28.9157   18.8181 C   0  0  0  0  0  0  0  0  0  0  0  0
  -27.6491  -20.5936   19.6643 C   0  0  0  0  0  0  0  0  0  0  0  0
  -22.7917   -6.1715   24.3832 C   0  0  0  0  0  0  0  0  0  0  0  0
  -20.6389   -6.2822   23.2922 C   0  0  0  0  0  0  0  0  0  0  0  0
  -26.3492  -27.5557   18.6477 C   0  0  0  0  0  0  0  0  0  0  0  0
  -22.2323   -2.8445   24.1571 C   0  0  0  0  0  0  0  0  0  0  0  0
  -23.0559   -1.7354   24.3500 C   0  0  0  0  0  0  0  0  0  0  0  0
  -25.6855  -19.3558   21.2118 C   0  0  0  0  0  0  0  0  0  0  0  0
  -25.5919  -27.1375   20.8995 C   0  0  0  0  0  0  0  0  0  0  0  0
  -23.0921   -2.1754   26.7253 C   0  0  0  0  0  0  0  0  0  0  0  0
  -22.4213   -7.7588   22.5999 C   0  0  0  0  0  0  0  0  0  0  0  0
  -26.5655  -18.5837   20.4536 C   0  0  0  0  0  0  0  0  0  0  0  0
  -23.5341   -8.6747   20.4951 C   0  0  0  0  0  0  0  0  0  0  0  0
  -29.3863  -35.3416   22.0844 C   0  0  0  0  0  0  0  0  0  0  0  0
  -25.5951  -29.3990   20.0363 C   0  0  0  0  0  0  0  0  0  0  0  0
  -29.2361  -34.0012   21.6802 C   0  0  0  0  0  0  0  0  0  0  0  0
  -25.3287  -28.5037   21.0820 C   0  0  0  0  0  0  0  0  0  0  0  0
  -26.7691  -21.3658   20.4225 C   0  0  0  0  0  0  0  0  0  0  0  0
  -25.7873  -20.7469   21.1963 C   0  0  0  0  0  0  0  0  0  0  0  0
  -21.4799   -5.7161   24.2504 C   0  0  0  0  0  0  0  0  0  0  0  0
  -26.1009  -26.6668   19.6894 C   0  0  0  0  0  0  0  0  0  0  0  0
  -21.8387   -3.6191   25.2483 C   0  0  0  0  0  0  0  0  0  0  0  0
  -23.4858   -1.4008   25.6341 C   0  0  0  0  0  0  0  0  0  0  0  0
  -22.2686   -3.2845   26.5324 C   0  0  0  0  0  0  0  0  0  0  0  0
  -22.9068   -8.8142   21.7476 C   0  0  0  0  0  0  0  0  0  0  0  0
  -23.8002   -9.9626   20.0989 C   0  0  0  0  0  0  0  0  0  0  0  0
  -26.4594  -17.1331   20.4686 C   0  0  0  0  0  0  0  0  0  0  0  0
  -25.8443  -16.4026   21.4229 C   0  0  0  0  0  0  0  0  0  0  0  0
  -23.8482   -7.4870   19.7558 C   0  0  0  0  0  0  0  0  0  0  0  0
  -25.8123  -14.9321   21.2907 C   0  0  0  0  0  0  0  0  0  0  0  0
  -27.8110  -23.5100   19.6740 C   0  0  0  0  0  0  0  0  0  0  0  0
  -27.6359  -24.9835   19.8892 C   0  0  0  0  0  0  0  0  0  1  0  0
  -26.6523  -31.4218   22.2487 C   0  0  0  0  0  0  0  0  0  0  0  0
  -23.7037  -30.9618   23.5204 C   0  0  0  0  0  0  0  0  0  0  0  0
  -20.9535  -28.9622   23.8107 C   0  0  0  0  0  0  0  0  0  0  0  0
  -28.9671  -35.8083   23.4559 C   0  0  0  0  0  0  0  0  0  0  0  0
  -25.2997  -30.8653   20.1952 C   0  0  0  0  0  0  0  0  0  0  0  0
  -24.7741  -28.9692   22.4027 C   0  0  0  0  0  0  0  0  0  0  0  0
  -28.0044  -34.8530   24.1566 C   0  0  0  0  0  0  0  0  0  0  0  0
  -22.2528  -14.3828   21.9691 C   0  0  0  0  0  0  0  0  0  0  0  0
  -28.4986  -33.4148   24.0378 C   0  0  0  0  0  0  0  0  0  0  0  0
  -22.1750  -12.8595   21.9139 C   0  0  0  0  0  0  0  0  0  0  0  0
  -23.5858  -14.8671   22.5376 C   0  0  0  0  0  0  0  0  0  0  0  0
  -24.6959  -12.7884   21.7713 C   0  0  0  0  0  0  0  0  0  0  0  0
  -28.5691  -32.9751   22.5704 C   0  0  1  0  0  0  0  0  0  0  0  0
  -25.2771  -31.3158   21.6525 C   0  0  1  0  0  0  0  0  0  0  0  0
  -23.3816  -12.2798   21.1587 C   0  0  1  0  0  0  0  0  0  0  0  0
  -18.7210  -28.8360   24.9498 C   0  0  0  0  0  0  0  0  0  0  0  0
  -25.0851  -30.2325   26.1414 C   0  0  0  0  0  0  0  0  0  0  0  0
  -22.9288  -29.2231   26.9161 C   0  0  0  0  0  0  0  0  0  0  0  0
  -23.0479  -31.6603   26.3979 C   0  0  0  0  0  0  0  0  0  0  0  0
  -19.5094  -28.8993   21.2281 C   0  0  0  0  0  0  0  0  0  0  0  0
  -23.1040  -29.9863   24.5041 C   0  0  1  0  0  0  0  0  0  0  0  0
  -19.4705  -29.2664   23.6985 C   0  0  2  0  0  0  0  0  0  0  0  0
  -23.5537  -30.2667   25.9658 C   0  0  0  0  0  0  0  0  0  0  0  0
  -22.7819  -10.0901   22.1224 N   0  0  0  0  0  0  0  0  0  0  0  0
  -23.3345  -10.7640   21.0994 N   0  0  0  0  0  0  0  0  0  0  0  0
  -24.7243  -14.2538   21.8372 N   0  0  0  0  0  0  0  0  0  0  0  0
  -24.5078  -30.4131   22.5113 N   0  0  0  0  0  0  0  0  0  0  0  0
  -24.8847  -21.5101   21.9708 N   0  0  0  0  0  0  0  0  0  0  0  0
  -24.3848  -10.4764   18.9959 N   0  0  0  0  0  0  0  0  0  0  0  0
  -23.5051   -6.2456   20.3085 N   0  0  0  0  0  0  0  0  0  0  0  0
  -26.8918  -22.7740   20.3907 N   0  0  0  0  0  0  0  0  0  0  0  0
  -27.2475  -32.6565   22.0742 N   0  0  0  0  0  0  0  0  0  0  0  0
  -21.6600  -30.0392   24.3026 N   0  0  0  0  0  0  0  0  0  0  0  0
  -18.8824  -28.5530   22.5296 N   0  3  0  0  0  0  0  0  0  0  0  0
  -24.4310   -7.5248   18.6456 O   0  0  0  0  0  0  0  0  0  0  0  0
  -26.7547  -14.3930   20.7078 O   0  0  0  0  0  0  0  0  0  0  0  0
  -28.6969  -23.1701   18.9081 O   0  0  0  0  0  0  0  0  0  0  0  0
  -28.5337  -25.6692   20.3381 O   0  0  0  0  0  0  0  0  0  0  0  0
  -27.1368  -30.4553   22.8257 O   0  0  0  0  0  0  0  0  0  0  0  0
  -23.4617  -32.1656   23.6385 O   0  0  0  0  0  0  0  0  0  0  0  0
  -21.4363  -27.8763   23.4971 O   0  0  0  0  0  0  0  0  0  0  0  0
  -21.0204   -4.7194   25.0553 O   0  0  0  0  0  0  0  0  0  0  0  0
  -26.3499  -25.3389   19.5259 O   0  0  0  0  0  0  0  0  0  1  0  0
  -24.2754   -0.3348   25.8193 F   0  0  0  0  0  0  0  0  0  0  0  0
  -21.8927   -4.0242   27.5848 F   0  0  0  0  0  0  0  0  0  0  0  0
  1  2  1  0  0  0  0
  1  6  2  0  0  0  0
  2  7  2  0  0  0  0
  3 10  2  0  0  0  0
  3 18  1  0  0  0  0
  4 11  1  0  0  0  0
  4 18  2  0  0  0  0
  5  9  2  0  0  0  0
  5 19  1  0  0  0  0
  6 21  1  0  0  0  0
  7 23  1  0  0  0  0
  8 12  2  0  0  0  0
  8 22  1  0  0  0  0
  9 25  1  0  0  0  0
 10 27  1  0  0  0  0
 11 27  2  0  0  0  0
 12 28  1  0  0  0  0
 13 14  2  0  0  0  0
 13 29  1  0  0  0  0
 14 30  1  0  0  0  0
 15 19  2  0  0  0  0
 15 26  1  0  0  0  0
 16 24  1  0  0  0  0
 16 28  2  0  0  0  0
 17 30  2  0  0  0  0
 17 31  1  0  0  0  0
 18 32  1  0  0  0  0
 19 34  1  0  0  0  0
 20 32  1  0  0  0  0
 20 33  2  0  0  0  0
 20 36  1  0  0  0  0
 21 23  2  0  0  0  0
 21 43  1  0  0  0  0
 22 24  2  0  0  0  0
 22 44  1  0  0  0  0
 23 52  1  0  0  0  0
 24 45  1  0  0  0  0
 25 26  2  0  0  0  0
 25 70  1  0  0  0  0
 26 67  1  0  0  0  0
 27 81  1  0  0  0  0
 28 82  1  0  0  0  0
 29 31  2  0  0  0  0
 29 81  1  0  0  0  0
 30 83  1  0  0  0  0
 31 84  1  0  0  0  0
 32 63  2  0  0  0  0
 33 64  1  0  0  0  0
 33 68  1  0  0  0  0
 34 35  2  0  0  0  0
 35 37  1  0  0  0  0
 36 69  1  0  0  0  0
 36 74  2  0  0  0  0
 37 65  1  0  0  0  0
 37 75  2  0  0  0  0
 38 39  1  0  0  0  0
 38 70  1  0  0  0  0
 38 76  2  0  0  0  0
 39 77  2  0  0  0  0
 39 82  1  0  0  0  0
 40 53  1  0  0  0  0
 40 71  1  0  0  0  0
 40 78  2  0  0  0  0
 41 60  1  0  0  0  0
 41 66  1  0  0  0  0
 41 79  2  0  0  0  0
 42 61  1  0  0  0  0
 42 72  1  0  0  0  0
 42 80  2  0  0  0  0
 43 46  1  0  0  0  0
 44 53  1  0  0  0  0
 45 66  1  0  0  0  0
 46 48  1  0  0  0  0
 47 49  1  0  0  0  0
 47 50  1  0  0  0  0
 48 52  1  0  0  0  0
 49 54  1  0  0  0  0
 50 65  1  0  0  0  0
 51 54  1  0  0  0  0
 51 65  1  0  0  0  0
 52 71  1  0  0  0  0
 53 66  1  0  0  0  0
 54 64  1  0  0  0  0
 55 61  1  0  0  0  0
 56 62  1  0  0  0  0
 57 62  1  0  0  0  0
 58 62  1  0  0  0  0
 59 73  1  0  0  0  0
 60 62  1  0  0  0  0
 60 72  1  0  0  0  0
 61 73  1  0  0  0  0
 63 64  1  0  0  0  0
M  CHG  1  73   1
M  ISO  4  35 100  37 100  39 101  82 101
M  END
> <Batch ID>
0091

> <Smiles>
CNC(C)C(=O)NC(C(=O)N1Cc2cc([101O:1][101C:1](=O)C(=O)Nc3ccc(C=[100CH:0][100C:0](=O)N4CCCC(n5nc(-c6ccc(Oc7ccc(F)cc7F)cc6)c(C(N)=O)c5N)C4)cc3N)ccc2CC1C(=O)NC1CCCc2ccccc21)C(C)(C)C

> <Shape>
0.250

> <Color>
0.091

> <Negative vol penalty>
0.000

$$$$

  -OEChem-04052300313D

 84 93  0     1  0  0  0  0  0999 V2000
  -18.7196   -9.9597   19.8436 C   0  0  0  0  0  0  0  0  0  0  0  0
  -18.7561  -11.2319   20.4053 C   0  0  0  0  0  0  0  0  0  0  0  0
  -23.0823  -28.5339   20.4342 C   0  0  0  0  0  0  0  0  0  0  0  0
  -23.8206  -26.2336   20.4632 C   0  0  0  0  0  0  0  0  0  0  0  0
  -19.7571   -9.0610   20.0882 C   0  0  0  0  0  0  0  0  0  0  0  0
  -19.8297  -11.6059   21.2127 C   0  0  0  0  0  0  0  0  0  0  0  0
  -24.7138  -17.6666   20.5496 C   0  0  0  0  0  0  0  0  0  0  0  0
  -21.7675  -28.1144   20.6370 C   0  0  0  0  0  0  0  0  0  0  0  0
  -22.5059  -25.8142   20.6661 C   0  0  0  0  0  0  0  0  0  0  0  0
  -25.7363  -18.6103   20.4492 C   0  0  0  0  0  0  0  0  0  0  0  0
  -19.8588  -27.0639   23.2227 C   0  0  0  0  0  0  0  0  0  0  0  0
  -19.0993  -27.7478   24.1719 C   0  0  0  0  0  0  0  0  0  0  0  0
  -32.3050  -21.6677   18.8141 C   0  0  0  0  0  0  0  0  0  0  0  0
  -27.2311  -17.1339   21.6466 C   0  0  0  0  0  0  0  0  0  0  0  0
  -17.5057  -28.3539   22.4601 C   0  0  0  0  0  0  0  0  0  0  0  0
  -33.0357  -21.8727   17.6645 C   0  0  0  0  0  0  0  0  0  0  0  0
  -24.1088  -27.5935   20.3473 C   0  0  0  0  0  0  0  0  0  0  0  0
  -26.2285  -28.8700   20.9677 C   0  0  0  0  0  0  0  0  0  0  0  0
  -20.8487   -9.4274   20.8912 C   0  0  0  0  0  0  0  0  0  0  0  0
  -24.9509  -16.4451   21.1862 C   0  0  0  0  0  0  0  0  0  0  0  0
  -20.8821  -10.7107   21.4694 C   0  0  0  0  0  0  0  0  0  0  0  0
  -26.2144  -16.1797   21.7393 C   0  0  0  0  0  0  0  0  0  0  0  0
  -31.2413  -22.6065   18.9467 C   0  0  0  0  0  0  0  0  0  0  0  0
  -21.4793  -26.7546   20.7529 C   0  0  0  0  0  0  0  0  0  0  0  0
  -26.9917  -18.3447   20.9966 C   0  0  0  0  0  0  0  0  0  0  0  0
  -19.4418  -27.0250   21.8921 C   0  0  0  0  0  0  0  0  0  0  0  0
  -17.9228  -28.3928   23.7907 C   0  0  0  0  0  0  0  0  0  0  0  0
  -18.2653  -27.6700   21.5109 C   0  0  0  0  0  0  0  0  0  0  0  0
  -25.4671  -28.0261   20.1372 C   0  0  0  0  0  0  0  0  0  0  0  0
  -27.4421  -28.9727   20.3328 C   0  0  0  0  0  0  0  0  0  0  0  0
  -31.1999  -23.4935   17.8934 C   0  0  0  0  0  0  0  0  0  0  0  0
  -28.6881  -21.4856   21.4011 C   0  0  0  0  0  0  0  0  0  0  0  0
  -28.3366  -22.7829   22.0444 C   0  0  0  0  0  0  0  0  0  0  0  0
  -27.7806  -20.5011   21.4444 C   0  0  0  0  0  0  0  0  0  1  0  0
  -25.8708  -29.5044   22.2028 C   0  0  0  0  0  0  0  0  0  0  0  0
  -23.5833  -13.1127   22.2354 C   0  0  0  0  0  0  0  0  0  0  0  0
  -26.4446  -12.6286   21.2407 C   0  0  0  0  0  0  0  0  0  0  0  0
  -29.4707  -12.4583   19.6752 C   0  0  0  0  0  0  0  0  0  0  0  0
  -30.3629  -25.4266   16.5118 C   0  0  0  0  0  0  0  0  0  0  0  0
  -21.9235   -8.4055   21.1656 C   0  0  0  0  0  0  0  0  0  0  0  0
  -23.8613  -15.4243   21.3717 C   0  0  0  0  0  0  0  0  0  0  0  0
  -26.4137  -14.8664   22.4454 C   0  0  0  0  0  0  0  0  0  0  0  0
  -30.0161  -21.3682   20.7107 C   0  0  0  0  0  0  0  0  0  0  0  0
  -28.8572  -24.0288   21.3681 C   0  0  0  0  0  0  0  0  0  0  0  0
  -23.2083   -9.0087   21.7274 C   0  0  0  0  0  0  0  0  0  0  0  0
  -29.4112  -28.8146   15.9702 C   0  0  0  0  0  0  0  0  0  0  0  0
  -22.8902   -9.9939   22.8476 C   0  0  0  0  0  0  0  0  0  0  0  0
  -28.3655  -29.0755   17.0568 C   0  0  0  0  0  0  0  0  0  0  0  0
  -30.2690  -23.8435   20.8300 C   0  0  0  0  0  0  0  0  0  0  0  0
  -29.3117  -27.3941   15.4168 C   0  0  0  0  0  0  0  0  0  0  0  0
  -28.3003  -26.5909   17.5147 C   0  0  0  0  0  0  0  0  0  0  0  0
  -22.0418  -11.1620   22.3306 C   0  0  1  0  0  0  0  0  0  0  0  0
  -24.3729  -13.9747   21.2946 C   0  0  1  0  0  0  0  0  0  0  0  0
  -28.4035  -27.9879   18.1483 C   0  0  2  0  0  0  0  0  0  0  0  0
  -31.2601  -10.8256   19.0194 C   0  0  0  0  0  0  0  0  0  0  0  0
  -27.4105  -12.5314   24.1323 C   0  0  0  0  0  0  0  0  0  0  0  0
  -29.6295  -11.7350   23.2898 C   0  0  0  0  0  0  0  0  0  0  0  0
  -27.5837  -10.3617   22.9008 C   0  0  0  0  0  0  0  0  0  0  0  0
  -29.1224  -13.0547   16.7974 C   0  0  0  0  0  0  0  0  0  0  0  0
  -27.9041  -12.5048   21.5982 C   0  0  1  0  0  0  0  0  0  0  0  0
  -29.9902  -11.5399   18.5837 C   0  0  2  0  0  0  0  0  0  0  0  0
  -28.1209  -11.8078   22.9710 C   0  0  0  0  0  0  0  0  0  0  0  0
  -26.1404  -27.6215   19.0570 N   0  0  0  0  0  0  0  0  0  0  0  0
  -27.3377  -28.2138   19.2043 N   0  0  0  0  0  0  0  0  0  0  0  0
  -30.3487  -22.6201   20.0234 N   0  0  1  0  0  0  0  0  0  0  0  0
  -25.7820  -13.7821   21.6774 N   0  0  0  0  0  0  0  0  0  0  0  0
  -29.3587  -26.4178   16.5074 N   0  0  0  0  0  0  0  0  0  0  0  0
  -28.5776  -29.6372   20.6352 N   0  0  0  0  0  0  0  0  0  0  0  0
  -24.5833  -29.2925   22.7143 N   0  0  0  0  0  0  0  0  0  0  0  0
  -30.3275  -24.5749   17.6154 N   0  0  0  0  0  0  0  0  0  0  0  0
  -22.8684  -12.1079   21.6119 N   0  0  0  0  0  0  0  0  0  0  0  0
  -28.5431  -11.8261   20.4760 N   0  0  0  0  0  0  0  0  0  0  0  0
  -30.2894  -12.3198   17.3495 N   0  3  0  0  0  0  0  0  0  0  0  0
  -27.6013  -22.8435   23.0269 O   0  0  0  0  0  0  0  0  0  0  0  0
  -26.6638  -30.2506   22.8256 O   0  0  0  0  0  0  0  0  0  0  0  0
  -23.6204  -13.3405   23.4389 O   0  0  0  0  0  0  0  0  0  0  0  0
  -25.9027  -11.7258   20.5967 O   0  0  0  0  0  0  0  0  0  0  0  0
  -29.8525  -13.6190   19.8067 O   0  0  0  0  0  0  0  0  0  0  0  0
  -31.2097  -25.3568   15.6174 O   0  0  0  0  0  0  0  0  0  0  0  0
  -20.1965  -26.3450   20.9511 O   0  0  0  0  0  0  0  0  0  0  0  0
  -27.9867  -19.2686   20.8910 O   0  0  0  0  0  0  0  0  0  1  0  0
  -17.1927  -29.0482   24.7026 F   0  0  0  0  0  0  0  0  0  0  0  0
  -17.8590  -27.6352   20.2344 F   0  0  0  0  0  0  0  0  0  0  0  0
  -32.4394  -23.1926   16.7509 S   0  0  0  0  0  0  0  0  0  0  0  0
  1  2  1  0  0  0  0
  1  5  2  0  0  0  0
  2  6  2  0  0  0  0
  3  8  2  0  0  0  0
  3 17  1  0  0  0  0
  4  9  1  0  0  0  0
  4 17  2  0  0  0  0
  5 19  1  0  0  0  0
  6 21  1  0  0  0  0
  7 10  2  0  0  0  0
  7 20  1  0  0  0  0
  8 24  1  0  0  0  0
  9 24  2  0  0  0  0
 10 25  1  0  0  0  0
 11 12  2  0  0  0  0
 11 26  1  0  0  0  0
 12 27  1  0  0  0  0
 13 16  2  0  0  0  0
 13 23  1  0  0  0  0
 14 22  1  0  0  0  0
 14 25  2  0  0  0  0
 15 27  2  0  0  0  0
 15 28  1  0  0  0  0
 16 84  1  0  0  0  0
 17 29  1  0  0  0  0
 18 29  1  0  0  0  0
 18 30  2  0  0  0  0
 18 35  1  0  0  0  0
 19 21  2  0  0  0  0
 19 40  1  0  0  0  0
 20 22  2  0  0  0  0
 20 41  1  0  0  0  0
 21 52  1  0  0  0  0
 22 42  1  0  0  0  0
 23 31  2  0  0  0  0
 23 65  1  0  0  0  0
 24 80  1  0  0  0  0
 25 81  1  0  0  0  0
 26 28  2  0  0  0  0
 26 80  1  0  0  0  0
 27 82  1  0  0  0  0
 28 83  1  0  0  0  0
 29 63  2  0  0  0  0
 30 64  1  0  0  0  0
 30 68  1  0  0  0  0
 31 70  1  0  0  0  0
 31 84  1  0  0  0  0
 32 33  1  0  0  0  0
 32 34  2  0  0  0  0
 32 43  1  0  0  0  0
 33 44  1  0  0  0  0
 33 74  2  0  0  0  0
 34 81  1  0  0  0  0
 35 69  1  0  0  0  0
 35 75  2  0  0  0  0
 36 53  1  0  0  0  0
 36 71  1  0  0  0  0
 36 76  2  0  0  0  0
 37 60  1  0  0  0  0
 37 66  1  0  0  0  0
 37 77  2  0  0  0  0
 38 61  1  0  0  0  0
 38 72  1  0  0  0  0
 38 78  2  0  0  0  0
 39 67  1  0  0  0  0
 39 70  1  0  0  0  0
 39 79  2  0  0  0  0
 40 45  1  0  0  0  0
 41 53  1  0  0  0  0
 42 66  1  0  0  0  0
 43 65  1  0  0  0  0
 44 49  1  0  0  0  0
 45 47  1  0  0  0  0
 46 48  1  0  0  0  0
 46 50  1  0  0  0  0
 47 52  1  0  0  0  0
 48 54  1  0  0  0  0
 49 65  1  0  0  0  0
 50 67  1  0  0  0  0
 51 54  1  0  0  0  0
 51 67  1  0  0  0  0
 52 71  1  0  0  0  0
 53 66  1  0  0  0  0
 54 64  1  0  0  0  0
 55 61  1  0  0  0  0
 56 62  1  0  0  0  0
 57 62  1  0  0  0  0
 58 62  1  0  0  0  0
 59 73  1  0  0  0  0
 60 62  1  0  0  0  0
 60 72  1  0  0  0  0
 61 73  1  0  0  0  0
 63 64  1  0  0  0  0
M  CHG  1  73   1
M  ISO  4  34 101  39 100  70 100  81 101
M  END
> <Batch ID>
0091

> <Smiles>
CNC(C)C(=O)NC(C(=O)N1Cc2cc([101O:1][101CH:1]=C3CN(c4ccsc4[100NH:0][100C:0](=O)N4CCCC(n5nc(-c6ccc(Oc7ccc(F)cc7F)cc6)c(C(N)=O)c5N)C4)CCC3=O)ccc2CC1C(=O)NC1CCCc2ccccc21)C(C)(C)C

> <Shape>
0.265

> <Color>
0.053

> <Negative vol penalty>
0.000

$$$$

  -OEChem-04052300313D

 85 93  0     1  0  0  0  0  0999 V2000
  -24.9889  -35.6085   15.1561 C   0  0  0  0  0  0  0  0  0  0  0  0
  -25.4108  -34.2950   15.3352 C   0  0  0  0  0  0  0  0  0  0  0  0
  -23.8532  -10.1275   22.1177 C   0  0  0  0  0  0  0  0  0  0  0  0
  -24.5196   -8.3933   20.5733 C   0  0  0  0  0  0  0  0  0  0  0  0
  -25.0085  -36.4983   16.2293 C   0  0  0  0  0  0  0  0  0  0  0  0
  -25.8536  -33.8708   16.5876 C   0  0  0  0  0  0  0  0  0  0  0  0
  -25.1089  -28.3223   19.0706 C   0  0  0  0  0  0  0  0  0  0  0  0
  -28.6683  -19.4386   21.4778 C   0  0  0  0  0  0  0  0  0  0  0  0
  -28.3580  -20.7563   21.1417 C   0  0  0  0  0  0  0  0  0  0  0  0
  -22.6431   -9.4687   22.3354 C   0  0  0  0  0  0  0  0  0  0  0  0
  -23.3095   -7.7344   20.7910 C   0  0  0  0  0  0  0  0  0  0  0  0
  -25.9511  -27.2151   19.1627 C   0  0  0  0  0  0  0  0  0  0  0  0
  -20.5468   -5.4093   21.2140 C   0  0  0  0  0  0  0  0  0  0  0  0
  -20.5856   -4.0293   21.4135 C   0  0  0  0  0  0  0  0  0  0  0  0
  -26.6190  -27.9146   21.3726 C   0  0  0  0  0  0  0  0  0  0  0  0
  -27.4851  -18.6605   19.5204 C   0  0  0  0  0  0  0  0  0  0  0  0
  -21.9924   -4.3489   23.3515 C   0  0  0  0  0  0  0  0  0  0  0  0
  -24.7914   -9.5898   21.2366 C   0  0  0  0  0  0  0  0  0  0  0  0
  -27.2436  -10.0979   21.7227 C   0  0  0  0  0  0  0  0  0  0  0  0
  -25.4427  -36.0822   17.4978 C   0  0  0  0  0  0  0  0  0  0  0  0
  -25.0234  -29.2414   20.1263 C   0  0  0  0  0  0  0  0  0  0  0  0
  -25.8803  -34.7562   17.6785 C   0  0  0  0  0  0  0  0  0  0  0  0
  -25.7730  -29.0312   21.2925 C   0  0  0  0  0  0  0  0  0  0  0  0
  -28.2319  -18.3907   20.6672 C   0  0  0  0  0  0  0  0  0  0  0  0
  -27.6111  -21.0261   19.9949 C   0  0  0  0  0  0  0  0  0  0  0  0
  -27.1747  -19.9782   19.1842 C   0  0  0  0  0  0  0  0  0  0  0  0
  -22.3713   -8.2722   21.6720 C   0  0  0  0  0  0  0  0  0  0  0  0
  -26.7086  -27.0127   20.3126 C   0  0  0  0  0  0  0  0  0  0  0  0
  -21.2309   -6.2591   22.0833 C   0  0  0  0  0  0  0  0  0  0  0  0
  -21.3083   -3.4991   22.4822 C   0  0  0  0  0  0  0  0  0  0  0  0
  -21.9536   -5.7289   23.1520 C   0  0  0  0  0  0  0  0  0  0  0  0
  -26.0413  -10.2702   21.0109 C   0  0  0  0  0  0  0  0  0  0  0  0
  -28.1237  -10.9669   21.1255 C   0  0  0  0  0  0  0  0  0  0  0  0
  -31.9551  -15.8987   20.2504 C   0  0  0  0  0  0  0  0  0  0  0  0
  -30.9207  -16.6605   20.6132 C   0  0  0  0  0  0  0  0  0  0  0  0
  -27.5384   -9.2300   22.8252 C   0  0  0  0  0  0  0  0  0  0  0  0
  -25.6624  -32.3369   20.4627 C   0  0  0  0  0  0  0  0  0  0  0  0
  -24.3475  -31.8910   23.3944 C   0  0  0  0  0  0  0  0  0  0  0  0
  -27.6724  -23.5123   20.3808 C   0  0  0  0  0  0  0  0  0  0  0  0
  -23.5753  -29.7368   25.9261 C   0  0  0  0  0  0  0  0  0  0  0  0
  -29.4131  -15.8342   18.9277 C   0  0  0  0  0  0  0  0  0  0  0  0
  -25.4906  -37.0928   18.6163 C   0  0  0  0  0  0  0  0  0  0  0  0
  -24.0899  -30.4162   20.0222 C   0  0  0  0  0  0  0  0  0  0  0  0
  -25.7019  -29.9774   22.4622 C   0  0  0  0  0  0  0  0  0  0  0  0
  -25.6206  -36.4632   20.0008 C   0  0  0  0  0  0  0  0  0  0  0  0
  -27.7602  -13.6132   16.8418 C   0  0  0  0  0  0  0  0  0  0  0  0
  -26.6995  -35.3849   19.9978 C   0  0  0  0  0  0  0  0  0  0  0  0
  -27.2542  -12.5264   17.7890 C   0  0  0  0  0  0  0  0  0  0  0  0
  -27.6010  -14.9948   17.4648 C   0  0  0  0  0  0  0  0  0  0  0  0
  -27.7948  -14.0597   19.7476 C   0  0  0  0  0  0  0  0  0  0  0  0
  -26.3442  -34.2517   19.0277 C   0  0  1  0  0  0  0  0  0  0  0  0
  -24.4694  -31.5651   20.9513 C   0  0  1  0  0  0  0  0  0  0  0  0
  -27.9319  -12.6375   19.1657 C   0  0  1  0  0  0  0  0  0  0  0  0
  -22.5372  -29.6721   28.2099 C   0  0  0  0  0  0  0  0  0  0  0  0
  -26.8828  -33.1073   24.5787 C   0  0  0  0  0  0  0  0  0  0  0  0
  -26.2160  -32.1614   26.7988 C   0  0  0  0  0  0  0  0  0  0  0  0
  -24.7603  -33.8470   25.6752 C   0  0  0  0  0  0  0  0  0  0  0  0
  -21.4389  -27.8952   25.0299 C   0  0  0  0  0  0  0  0  0  0  0  0
  -28.5641  -16.9821   21.0271 C   0  0  0  0  0  0  0  0  0  0  0  0
  -27.1445  -24.7581   19.6939 C   0  0  0  0  0  0  0  0  0  1  0  0
  -24.8734  -31.4956   24.7531 C   0  0  1  0  0  0  0  0  0  0  0  0
  -22.2956  -29.5273   26.7154 C   0  0  2  0  0  0  0  0  0  0  0  0
  -25.6862  -32.6359   25.4288 C   0  0  0  0  0  0  0  0  0  0  0  0
  -26.1447  -11.1774   20.0360 N   0  0  0  0  0  0  0  0  0  0  0  0
  -27.4224  -11.5830   20.1311 N   0  0  0  0  0  0  0  0  0  0  0  0
  -24.7794  -31.1146   22.3097 N   0  0  0  0  0  0  0  0  0  0  0  0
  -28.2490  -15.0648   18.7748 N   0  0  0  0  0  0  0  0  0  0  0  0
  -26.4169  -20.2288   18.0182 N   0  0  0  0  0  0  0  0  0  0  0  0
  -29.4214  -11.2565   21.3591 N   0  0  0  0  0  0  0  0  0  0  0  0
  -26.5188   -8.4027   23.3155 N   0  0  0  0  0  0  0  0  0  0  0  0
  -27.3085  -22.3708   19.6746 N   0  0  0  0  0  0  0  0  0  0  0  0
  -25.3481  -33.3796   19.6123 N   0  0  0  0  0  0  0  0  0  0  0  0
  -23.7182  -31.0477   25.5234 N   0  0  0  0  0  0  0  0  0  0  0  0
  -29.6304  -16.4276   20.1850 N   0  0  0  0  0  0  0  0  0  0  0  0
  -21.7452  -28.1665   26.4580 N   0  3  0  0  0  0  0  0  0  0  0  0
  -28.6678   -9.2013   23.3704 O   0  0  0  0  0  0  0  0  0  0  0  0
  -26.7849  -32.0114   20.8313 O   0  0  0  0  0  0  0  0  0  0  0  0
  -23.5760  -32.8489   23.2998 O   0  0  0  0  0  0  0  0  0  0  0  0
  -28.3251  -23.5778   21.4172 O   0  0  0  0  0  0  0  0  0  0  0  0
  -24.3707  -28.8291   25.6936 O   0  0  0  0  0  0  0  0  0  0  0  0
  -30.2010  -15.9950   17.9858 O   0  0  0  0  0  0  0  0  0  0  0  0
  -21.1908   -7.6289   21.8844 O   0  0  0  0  0  0  0  0  0  0  0  0
  -27.5320  -25.9332   20.4048 O   0  0  0  0  0  0  0  0  0  1  0  0
  -21.3442   -2.1740   22.6745 F   0  0  0  0  0  0  0  0  0  0  0  0
  -22.6119   -6.5404   23.9911 F   0  0  0  0  0  0  0  0  0  0  0  0
  1  2  1  0  0  0  0
  1  5  2  0  0  0  0
  2  6  2  0  0  0  0
  3 10  2  0  0  0  0
  3 18  1  0  0  0  0
  4 11  1  0  0  0  0
  4 18  2  0  0  0  0
  5 20  1  0  0  0  0
  6 22  1  0  0  0  0
  7 12  2  0  0  0  0
  7 21  1  0  0  0  0
  8  9  2  0  0  0  0
  8 24  1  0  0  0  0
  9 25  1  0  0  0  0
 10 27  1  0  0  0  0
 11 27  2  0  0  0  0
 12 28  1  0  0  0  0
 13 14  2  0  0  0  0
 13 29  1  0  0  0  0
 14 30  1  0  0  0  0
 15 23  1  0  0  0  0
 15 28  2  0  0  0  0
 16 24  2  0  0  0  0
 16 26  1  0  0  0  0
 17 30  2  0  0  0  0
 17 31  1  0  0  0  0
 18 32  1  0  0  0  0
 19 32  1  0  0  0  0
 19 33  2  0  0  0  0
 19 36  1  0  0  0  0
 20 22  2  0  0  0  0
 20 42  1  0  0  0  0
 21 23  2  0  0  0  0
 21 43  1  0  0  0  0
 22 51  1  0  0  0  0
 23 44  1  0  0  0  0
 24 59  1  0  0  0  0
 25 26  2  0  0  0  0
 25 71  1  0  0  0  0
 26 68  1  0  0  0  0
 27 82  1  0  0  0  0
 28 83  1  0  0  0  0
 29 31  2  0  0  0  0
 29 82  1  0  0  0  0
 30 84  1  0  0  0  0
 31 85  1  0  0  0  0
 32 64  2  0  0  0  0
 33 65  1  0  0  0  0
 33 69  1  0  0  0  0
 34 35  2  0  0  0  0
 35 74  1  0  0  0  0
 36 70  1  0  0  0  0
 36 76  2  0  0  0  0
 37 52  1  0  0  0  0
 37 72  1  0  0  0  0
 37 77  2  0  0  0  0
 38 61  1  0  0  0  0
 38 66  1  0  0  0  0
 38 78  2  0  0  0  0
 39 60  1  0  0  0  0
 39 71  1  0  0  0  0
 39 79  2  0  0  0  0
 40 62  1  0  0  0  0
 40 73  1  0  0  0  0
 40 80  2  0  0  0  0
 41 67  1  0  0  0  0
 41 74  1  0  0  0  0
 41 81  2  0  0  0  0
 42 45  1  0  0  0  0
 43 52  1  0  0  0  0
 44 66  1  0  0  0  0
 45 47  1  0  0  0  0
 46 48  1  0  0  0  0
 46 49  1  0  0  0  0
 47 51  1  0  0  0  0
 48 53  1  0  0  0  0
 49 67  1  0  0  0  0
 50 53  1  0  0  0  0
 50 67  1  0  0  0  0
 51 72  1  0  0  0  0
 52 66  1  0  0  0  0
 53 65  1  0  0  0  0
 54 62  1  0  0  0  0
 55 63  1  0  0  0  0
 56 63  1  0  0  0  0
 57 63  1  0  0  0  0
 58 75  1  0  0  0  0
 59 74  1  0  0  0  0
 60 83  1  0  0  0  0
 61 63  1  0  0  0  0
 61 73  1  0  0  0  0
 62 75  1  0  0  0  0
 64 65  1  0  0  0  0
M  CHG  1  75   1
M  ISO  4  41 100  60 101  74 100  83 101
M  END
> <Batch ID>
0091

> <Smiles>
C=C[100N:0](Cc1ccc(NC(=O)[101CH2:1][101O:1]c2ccc3c(c2)CN(C(=O)C(NC(=O)C(C)NC)C(C)(C)C)C(C(=O)NC2CCCc4ccccc42)C3)c(N)c1)[100C:0](=O)N1CCCC(n2nc(-c3ccc(Oc4ccc(F)cc4F)cc3)c(C(N)=O)c2N)C1

> <Shape>
0.261

> <Color>
0.084

> <Negative vol penalty>
0.000

$$$$

  -OEChem-04052300313D

 84 92  0     1  0  0  0  0  0999 V2000
  -15.5250  -27.2504   23.2166 C   0  0  0  0  0  0  0  0  0  0  0  0
  -16.6480  -26.8216   22.5163 C   0  0  0  0  0  0  0  0  0  0  0  0
  -23.0670  -10.3561   20.4613 C   0  0  0  0  0  0  0  0  0  0  0  0
  -24.2082   -9.2019   22.2509 C   0  0  0  0  0  0  0  0  0  0  0  0
  -28.5418  -19.7851   18.6021 C   0  0  0  0  0  0  0  0  0  0  0  0
  -15.3836  -28.5974   23.5476 C   0  0  0  0  0  0  0  0  0  0  0  0
  -17.6298  -27.7399   22.1456 C   0  0  0  0  0  0  0  0  0  0  0  0
  -22.3155  -26.0453   23.0498 C   0  0  0  0  0  0  0  0  0  0  0  0
  -27.6011  -20.7211   19.0318 C   0  0  0  0  0  0  0  0  0  0  0  0
  -22.1235   -9.3306   20.4016 C   0  0  0  0  0  0  0  0  0  0  0  0
  -23.2646   -8.1764   22.1912 C   0  0  0  0  0  0  0  0  0  0  0  0
  -22.8452  -25.1251   22.1462 C   0  0  0  0  0  0  0  0  0  0  0  0
  -22.6347   -5.4805   20.2506 C   0  0  0  0  0  0  0  0  0  0  0  0
  -23.1024   -4.1668   20.2825 C   0  0  0  0  0  0  0  0  0  0  0  0
  -24.0894  -26.8962   21.0812 C   0  0  0  0  0  0  0  0  0  0  0  0
  -26.6772  -19.0919   20.5580 C   0  0  0  0  0  0  0  0  0  0  0  0
  -21.8321   -3.7634   22.2975 C   0  0  0  0  0  0  0  0  0  0  0  0
  -24.1094  -10.2918   21.3860 C   0  0  0  0  0  0  0  0  0  0  0  0
  -28.5501  -18.5025   19.1502 C   0  0  0  0  0  0  0  0  0  0  0  0
  -25.0263  -12.5152   22.2365 C   0  0  0  0  0  0  0  0  0  0  0  0
  -16.3687  -29.5310   23.1892 C   0  0  0  0  0  0  0  0  0  0  0  0
  -22.6609  -27.4019   22.9689 C   0  0  0  0  0  0  0  0  0  0  0  0
  -17.5007  -29.1008   22.4709 C   0  0  0  0  0  0  0  0  0  0  0  0
  -23.5647  -27.8311   21.9865 C   0  0  0  0  0  0  0  0  0  0  0  0
  -26.6689  -20.3745   20.0098 C   0  0  0  0  0  0  0  0  0  0  0  0
  -22.2222   -8.2408   21.2665 C   0  0  0  0  0  0  0  0  0  0  0  0
  -23.7300  -25.5509   21.1599 C   0  0  0  0  0  0  0  0  0  0  0  0
  -21.7657   -5.9357   21.2422 C   0  0  0  0  0  0  0  0  0  0  0  0
  -22.7011   -3.3083   21.3059 C   0  0  0  0  0  0  0  0  0  0  0  0
  -27.6179  -18.1559   20.1282 C   0  0  0  0  0  0  0  0  0  0  0  0
  -21.3643   -5.0772   22.2656 C   0  0  0  0  0  0  0  0  0  0  0  0
  -25.0848  -11.3506   21.4478 C   0  0  0  0  0  0  0  0  0  0  0  0
  -26.1833  -13.1917   21.9361 C   0  0  0  0  0  0  0  0  0  0  0  0
  -29.5520  -17.5081   18.6874 C   0  0  0  0  0  0  0  0  0  0  0  0
  -24.0165  -12.9469   23.1582 C   0  0  0  0  0  0  0  0  0  0  0  0
  -21.0587  -30.0973   22.4477 C   0  0  0  0  0  0  0  0  0  0  0  0
  -23.9224  -31.4697   23.1097 C   0  0  0  0  0  0  0  0  0  0  0  0
  -25.5649  -22.6362   20.0094 C   0  0  0  0  0  0  0  0  0  0  0  0
  -27.3200  -31.1710   23.2277 C   0  0  0  0  0  0  0  0  0  0  0  0
  -29.9189  -15.0899   18.3112 C   0  0  0  0  0  0  0  0  0  0  0  0
  -16.1491  -30.9842   23.5277 C   0  0  0  0  0  0  0  0  0  0  0  0
  -22.1016  -28.3775   23.9678 C   0  0  0  0  0  0  0  0  0  0  0  0
  -23.9833  -29.2732   21.8698 C   0  0  0  0  0  0  0  0  0  0  0  0
  -17.4147  -31.8315   23.4252 C   0  0  0  0  0  0  0  0  0  0  0  0
  -30.2798  -11.7277   19.3419 C   0  0  0  0  0  0  0  0  0  0  0  0
  -18.1556  -31.5294   22.1265 C   0  0  0  0  0  0  0  0  0  0  0  0
  -28.9590  -11.4248   20.0546 C   0  0  0  0  0  0  0  0  0  0  0  0
  -30.0734  -12.6230   18.1209 C   0  0  0  0  0  0  0  0  0  0  0  0
  -28.0095  -13.5557   19.0844 C   0  0  0  0  0  0  0  0  0  0  0  0
  -18.5992  -30.0625   22.0728 C   0  0  1  0  0  0  0  0  0  0  0  0
  -22.1233  -29.8198   23.4711 C   0  0  1  0  0  0  0  0  0  0  0  0
  -28.1727  -12.7152   20.3611 C   0  0  1  0  0  0  0  0  0  0  0  0
  -29.3943  -32.4740   23.7726 C   0  0  0  0  0  0  0  0  0  0  0  0
  -23.6806  -32.9589   20.4576 C   0  0  0  0  0  0  0  0  0  0  0  0
  -26.1264  -33.4737   20.6035 C   0  0  0  0  0  0  0  0  0  0  0  0
  -24.5662  -34.3342   22.3493 C   0  0  0  0  0  0  0  0  0  0  0  0
  -28.0655  -29.3001   25.3963 C   0  0  0  0  0  0  0  0  0  0  0  0
  -24.4175  -23.3143   20.7348 C   0  0  0  0  0  0  0  0  0  1  0  0
  -25.1295  -31.8701   22.2963 C   0  0  1  0  0  0  0  0  0  0  0  0
  -28.3261  -31.5320   24.3057 C   0  0  2  0  0  0  0  0  0  0  0  0
  -24.8665  -33.1323   21.4274 C   0  0  0  0  0  0  0  0  0  0  0  0
  -26.1912  -11.2876   20.7023 N   0  0  0  0  0  0  0  0  0  0  0  0
  -26.8387  -12.4213   21.0211 N   0  0  0  0  0  0  0  0  0  0  0  0
  -23.4043  -30.1899   22.8658 N   0  0  0  0  0  0  0  0  0  0  0  0
  -29.3301  -13.8269   18.4970 N   0  0  0  0  0  0  0  0  0  0  0  0
  -26.6938  -14.3644   22.3679 N   0  0  0  0  0  0  0  0  0  0  0  0
  -22.8925  -12.1315   23.3480 N   0  0  0  0  0  0  0  0  0  0  0  0
  -25.7147  -21.3242   20.4457 N   0  0  0  0  0  0  0  0  0  0  0  0
  -29.1461  -16.1744   18.7410 N   0  0  0  0  0  0  0  0  0  0  0  0
  -19.7730  -29.8591   22.8946 N   0  0  0  0  0  0  0  0  0  0  0  0
  -26.2299  -32.0152   23.2432 N   0  0  0  0  0  0  0  0  0  0  0  0
  -28.9964  -30.3046   24.8206 N   0  3  0  0  0  0  0  0  0  0  0  0
  -30.6330  -17.9031   18.2591 O   0  0  0  0  0  0  0  0  0  0  0  0
  -24.1004  -14.0318   23.7823 O   0  0  0  0  0  0  0  0  0  0  0  0
  -21.3799  -30.4993   21.3355 O   0  0  0  0  0  0  0  0  0  0  0  0
  -23.4607  -32.2604   23.9362 O   0  0  0  0  0  0  0  0  0  0  0  0
  -26.2287  -23.2265   19.1635 O   0  0  0  0  0  0  0  0  0  0  0  0
  -27.4864  -30.2362   22.4474 O   0  0  0  0  0  0  0  0  0  0  0  0
  -31.0504  -15.2376   17.8388 O   0  0  0  0  0  0  0  0  0  0  0  0
  -21.3015   -7.2400   21.2087 O   0  0  0  0  0  0  0  0  0  0  0  0
  -24.2480  -24.6549   20.2763 O   0  0  0  0  0  0  0  0  0  1  0  0
  -23.1492   -2.0463   21.3356 F   0  0  0  0  0  0  0  0  0  0  0  0
  -27.6163  -16.9259   20.6617 F   0  0  0  0  0  0  0  0  0  0  0  0
  -20.5287   -5.5084   23.2204 F   0  0  0  0  0  0  0  0  0  0  0  0
  1  2  1  0  0  0  0
  1  6  2  0  0  0  0
  2  7  2  0  0  0  0
  3 10  2  0  0  0  0
  3 18  1  0  0  0  0
  4 11  1  0  0  0  0
  4 18  2  0  0  0  0
  5  9  2  0  0  0  0
  5 19  1  0  0  0  0
  6 21  1  0  0  0  0
  7 23  1  0  0  0  0
  8 12  2  0  0  0  0
  8 22  1  0  0  0  0
  9 25  1  0  0  0  0
 10 26  1  0  0  0  0
 11 26  2  0  0  0  0
 12 27  1  0  0  0  0
 13 14  2  0  0  0  0
 13 28  1  0  0  0  0
 14 29  1  0  0  0  0
 15 24  1  0  0  0  0
 15 27  2  0  0  0  0
 16 25  2  0  0  0  0
 16 30  1  0  0  0  0
 17 29  2  0  0  0  0
 17 31  1  0  0  0  0
 18 32  1  0  0  0  0
 19 30  2  0  0  0  0
 19 34  1  0  0  0  0
 20 32  1  0  0  0  0
 20 33  2  0  0  0  0
 20 35  1  0  0  0  0
 21 23  2  0  0  0  0
 21 41  1  0  0  0  0
 22 24  2  0  0  0  0
 22 42  1  0  0  0  0
 23 50  1  0  0  0  0
 24 43  1  0  0  0  0
 25 68  1  0  0  0  0
 26 80  1  0  0  0  0
 27 81  1  0  0  0  0
 28 31  2  0  0  0  0
 28 80  1  0  0  0  0
 29 82  1  0  0  0  0
 30 83  1  0  0  0  0
 31 84  1  0  0  0  0
 32 62  2  0  0  0  0
 33 63  1  0  0  0  0
 33 66  1  0  0  0  0
 34 69  1  0  0  0  0
 34 73  2  0  0  0  0
 35 67  1  0  0  0  0
 35 74  2  0  0  0  0
 36 51  1  0  0  0  0
 36 70  1  0  0  0  0
 36 75  2  0  0  0  0
 37 59  1  0  0  0  0
 37 64  1  0  0  0  0
 37 76  2  0  0  0  0
 38 58  1  0  0  0  0
 38 68  1  0  0  0  0
 38 77  2  0  0  0  0
 39 60  1  0  0  0  0
 39 71  1  0  0  0  0
 39 78  2  0  0  0  0
 40 65  1  0  0  0  0
 40 69  1  0  0  0  0
 40 79  2  0  0  0  0
 41 44  1  0  0  0  0
 42 51  1  0  0  0  0
 43 64  1  0  0  0  0
 44 46  1  0  0  0  0
 45 47  1  0  0  0  0
 45 48  1  0  0  0  0
 46 50  1  0  0  0  0
 47 52  1  0  0  0  0
 48 65  1  0  0  0  0
 49 52  1  0  0  0  0
 49 65  1  0  0  0  0
 50 70  1  0  0  0  0
 51 64  1  0  0  0  0
 52 63  1  0  0  0  0
 53 60  1  0  0  0  0
 54 61  1  0  0  0  0
 55 61  1  0  0  0  0
 56 61  1  0  0  0  0
 57 72  1  0  0  0  0
 58 81  1  0  0  0  0
 59 61  1  0  0  0  0
 59 71  1  0  0  0  0
 60 72  1  0  0  0  0
 62 63  1  0  0  0  0
M  CHG  1  72   1
M  ISO  4  40 100  58 101  69 100  81 101
M  END
> <Batch ID>
0091

> <Smiles>
CNC(C)C(=O)NC(C(=O)N1Cc2cc([101O:1][101CH2:1]C(=O)Nc3ccc(C(=O)[100NH:0][100C:0](=O)N4CCCC(n5nc(-c6ccc(Oc7ccc(F)cc7F)cc6)c(C(N)=O)c5N)C4)c(F)c3)ccc2CC1C(=O)NC1CCCc2ccccc21)C(C)(C)C

> <Shape>
0.294

> <Color>
0.095

> <Negative vol penalty>
0.000

$$$$

  -OEChem-04052300313D

 85 93  0     1  0  0  0  0  0999 V2000
  -27.4677  -38.4246   17.2568 C   0  0  0  0  0  0  0  0  0  0  0  0
  -27.7822  -37.0778   17.1064 C   0  0  0  0  0  0  0  0  0  0  0  0
  -24.3156   -9.1542   22.3430 C   0  0  0  0  0  0  0  0  0  0  0  0
  -23.9911   -9.1755   19.9490 C   0  0  0  0  0  0  0  0  0  0  0  0
  -27.2506  -38.9507   18.5296 C   0  0  0  0  0  0  0  0  0  0  0  0
  -27.8808  -36.2564   18.2289 C   0  0  0  0  0  0  0  0  0  0  0  0
  -26.3319  -30.3437   18.6119 C   0  0  0  0  0  0  0  0  0  0  0  0
  -23.2368   -8.2809   22.4815 C   0  0  0  0  0  0  0  0  0  0  0  0
  -22.9124   -8.3021   20.0874 C   0  0  0  0  0  0  0  0  0  0  0  0
  -27.0825  -29.1710   18.5413 C   0  0  0  0  0  0  0  0  0  0  0  0
  -22.6392   -4.9771   22.0810 C   0  0  0  0  0  0  0  0  0  0  0  0
  -22.7969   -3.8815   22.9297 C   0  0  0  0  0  0  0  0  0  0  0  0
  -28.1496  -20.7942   16.5077 C   0  0  0  0  0  0  0  0  0  0  0  0
  -27.2004  -29.1085   20.9499 C   0  0  0  0  0  0  0  0  0  0  0  0
  -28.6740  -22.1680   18.8784 C   0  0  0  0  0  0  0  0  0  0  0  0
  -20.9531   -4.6630   24.2812 C   0  0  0  0  0  0  0  0  0  0  0  0
  -24.6928   -9.6015   21.0767 C   0  0  0  0  0  0  0  0  0  0  0  0
  -28.5736  -20.0967   17.6387 C   0  0  0  0  0  0  0  0  0  0  0  0
  -27.1594  -10.1620   20.7465 C   0  0  0  0  0  0  0  0  0  0  0  0
  -27.3371  -38.1332   19.6676 C   0  0  0  0  0  0  0  0  0  0  0  0
  -26.0186  -30.9146   19.8538 C   0  0  0  0  0  0  0  0  0  0  0  0
  -27.6659  -36.7724   19.5183 C   0  0  0  0  0  0  0  0  0  0  0  0
  -26.4435  -30.2871   21.0336 C   0  0  0  0  0  0  0  0  0  0  0  0
  -28.8358  -20.7836   18.8241 C   0  0  0  0  0  0  0  0  0  0  0  0
  -28.2500  -22.8655   17.7472 C   0  0  0  0  0  0  0  0  0  0  0  0
  -22.5352   -7.8548   21.3537 C   0  0  0  0  0  0  0  0  0  0  0  0
  -27.5193  -28.5548   19.7102 C   0  0  0  0  0  0  0  0  0  0  0  0
  -21.6385   -5.9157   22.3324 C   0  0  0  0  0  0  0  0  0  0  0  0
  -21.9539   -3.7244   24.0298 C   0  0  0  0  0  0  0  0  0  0  0  0
  -27.9878  -22.1786   16.5619 C   0  0  0  0  0  0  0  0  0  0  0  0
  -20.7954   -5.7586   23.4325 C   0  0  0  0  0  0  0  0  0  0  0  0
  -25.8067  -10.5041   20.9331 C   0  0  0  0  0  0  0  0  0  0  0  0
  -27.8111  -11.3685   20.6681 C   0  0  0  0  0  0  0  0  0  0  0  0
  -28.7383  -18.6304   17.5547 C   0  0  0  0  0  0  0  0  0  0  0  0
  -27.7722   -8.8691   20.6524 C   0  0  0  0  0  0  0  0  0  0  0  0
  -26.6672  -33.6810   21.2787 C   0  0  0  0  0  0  0  0  0  0  0  0
  -24.6436  -32.5427   23.5439 C   0  0  0  0  0  0  0  0  0  0  0  0
  -28.3048  -25.1043   18.8956 C   0  0  0  0  0  0  0  0  0  0  0  0
  -23.1819  -29.8397   25.0286 C   0  0  0  0  0  0  0  0  0  0  0  0
  -28.0237  -16.4203   18.4387 C   0  0  0  0  0  0  0  0  0  0  0  0
  -27.1405  -38.7574   21.0264 C   0  0  0  0  0  0  0  0  0  0  0  0
  -25.1853  -32.1654   19.9138 C   0  0  0  0  0  0  0  0  0  0  0  0
  -26.1165  -30.8486   22.3924 C   0  0  0  0  0  0  0  0  0  0  0  0
  -26.8957  -37.7375   22.1355 C   0  0  0  0  0  0  0  0  0  0  0  0
  -26.2493  -16.0471   21.6745 C   0  0  0  0  0  0  0  0  0  0  0  0
  -27.9001  -36.5935   22.0400 C   0  0  0  0  0  0  0  0  0  0  0  0
  -26.0242  -14.5394   21.7041 C   0  0  0  0  0  0  0  0  0  0  0  0
  -26.2367  -16.6053   20.2520 C   0  0  0  0  0  0  0  0  0  0  0  0
  -26.9714  -14.4008   19.3709 C   0  0  0  0  0  0  0  0  0  0  0  0
  -27.7576  -35.8439   20.7098 C   0  0  1  0  0  0  0  0  0  0  0  0
  -25.3620  -32.9392   21.2166 C   0  0  1  0  0  0  0  0  0  0  0  0
  -27.0362  -13.8286   20.7943 C   0  0  2  0  0  0  0  0  0  0  0  0
  -21.6026  -29.2228   26.8786 C   0  0  0  0  0  0  0  0  0  0  0  0
  -26.8442  -33.0623   25.5925 C   0  0  0  0  0  0  0  0  0  0  0  0
  -25.6075  -31.5859   27.1922 C   0  0  0  0  0  0  0  0  0  0  0  0
  -24.5435  -33.6804   26.3535 C   0  0  0  0  0  0  0  0  0  0  0  0
  -21.2717  -28.5969   23.1403 C   0  0  0  0  0  0  0  0  0  0  0  0
  -28.0126  -26.5484   18.5325 C   0  0  0  0  0  0  0  0  0  1  0  0
  -24.7969  -31.7079   24.7924 C   0  0  1  0  0  0  0  0  0  0  0  0
  -21.7383  -29.5527   25.4003 C   0  0  2  0  0  0  0  0  0  0  0  0
  -25.4560  -32.4993   25.9571 C   0  0  0  0  0  0  0  0  0  0  0  0
  -25.6093  -11.8245   20.9711 N   0  0  0  0  0  0  0  0  0  0  0  0
  -26.8467  -12.3228   20.8073 N   0  0  0  0  0  0  0  0  0  0  0  0
  -25.3046  -32.0766   22.3986 N   0  0  0  0  0  0  0  0  0  0  0  0
  -27.1322  -15.8588   19.3576 N   0  0  0  0  0  0  0  0  0  0  0  0
  -29.2659  -20.0941   19.9795 N   0  0  0  0  0  0  0  0  0  0  0  0
  -29.1092  -11.6956   20.4943 N   0  0  0  0  0  0  0  0  0  0  0  0
  -26.9562   -7.7341   20.7537 N   0  0  0  0  0  0  0  0  0  0  0  0
  -28.0875  -24.2701   17.8043 N   0  0  0  0  0  0  0  0  0  0  0  0
  -28.0009  -17.8659   18.3750 N   0  0  0  0  0  0  0  0  0  0  0  0
  -26.6151  -34.9565   20.7496 N   0  0  0  0  0  0  0  0  0  0  0  0
  -23.4697  -31.1863   25.1002 N   0  0  0  0  0  0  0  0  0  0  0  0
  -29.6163  -18.1582   16.6701 N   0  3  0  0  0  0  0  0  0  0  0  0
  -21.2199  -28.3993   24.6118 N   0  3  0  0  0  0  0  0  0  0  0  0
  -29.0089   -8.7246   20.5000 O   0  0  0  0  0  0  0  0  0  0  0  0
  -27.6485  -33.1370   21.7714 O   0  0  0  0  0  0  0  0  0  0  0  0
  -23.9566  -33.5665   23.5816 O   0  0  0  0  0  0  0  0  0  0  0  0
  -28.6786  -24.7876   20.0201 O   0  0  0  0  0  0  0  0  0  0  0  0
  -23.9759  -28.9572   24.7104 O   0  0  0  0  0  0  0  0  0  0  0  0
  -28.7695  -15.7935   17.6939 O   0  0  0  0  0  0  0  0  0  0  0  0
  -21.4827   -7.0025   21.4884 O   0  0  0  0  0  0  0  0  0  0  0  0
  -28.2527  -27.4104   19.6441 O   0  0  0  0  0  0  0  0  0  1  0  0
  -22.1044   -2.6714   24.8438 F   0  0  0  0  0  0  0  0  0  0  0  0
  -27.5817  -22.8394   15.4684 F   0  0  0  0  0  0  0  0  0  0  0  0
  -19.8314   -6.6564   23.6785 F   0  0  0  0  0  0  0  0  0  0  0  0
  1  2  1  0  0  0  0
  1  5  2  0  0  0  0
  2  6  2  0  0  0  0
  3  8  2  0  0  0  0
  3 17  1  0  0  0  0
  4  9  1  0  0  0  0
  4 17  2  0  0  0  0
  5 20  1  0  0  0  0
  6 22  1  0  0  0  0
  7 10  2  0  0  0  0
  7 21  1  0  0  0  0
  8 26  1  0  0  0  0
  9 26  2  0  0  0  0
 10 27  1  0  0  0  0
 11 12  2  0  0  0  0
 11 28  1  0  0  0  0
 12 29  1  0  0  0  0
 13 18  2  0  0  0  0
 13 30  1  0  0  0  0
 14 23  1  0  0  0  0
 14 27  2  0  0  0  0
 15 24  2  0  0  0  0
 15 25  1  0  0  0  0
 16 29  2  0  0  0  0
 16 31  1  0  0  0  0
 17 32  1  0  0  0  0
 18 24  1  0  0  0  0
 18 34  1  0  0  0  0
 19 32  1  0  0  0  0
 19 33  2  0  0  0  0
 19 35  1  0  0  0  0
 20 22  2  0  0  0  0
 20 41  1  0  0  0  0
 21 23  2  0  0  0  0
 21 42  1  0  0  0  0
 22 50  1  0  0  0  0
 23 43  1  0  0  0  0
 24 66  1  0  0  0  0
 25 30  2  0  0  0  0
 25 69  1  0  0  0  0
 26 81  1  0  0  0  0
 27 82  1  0  0  0  0
 28 31  2  0  0  0  0
 28 81  1  0  0  0  0
 29 83  1  0  0  0  0
 30 84  1  0  0  0  0
 31 85  1  0  0  0  0
 32 62  2  0  0  0  0
 33 63  1  0  0  0  0
 33 67  1  0  0  0  0
 34 70  1  0  0  0  0
 34 73  2  0  0  0  0
 35 68  1  0  0  0  0
 35 75  2  0  0  0  0
 36 51  1  0  0  0  0
 36 71  1  0  0  0  0
 36 76  2  0  0  0  0
 37 59  1  0  0  0  0
 37 64  1  0  0  0  0
 37 77  2  0  0  0  0
 38 58  1  0  0  0  0
 38 69  1  0  0  0  0
 38 78  2  0  0  0  0
 39 60  1  0  0  0  0
 39 72  1  0  0  0  0
 39 79  2  0  0  0  0
 40 65  1  0  0  0  0
 40 70  1  0  0  0  0
 40 80  2  0  0  0  0
 41 44  1  0  0  0  0
 42 51  1  0  0  0  0
 43 64  1  0  0  0  0
 44 46  1  0  0  0  0
 45 47  1  0  0  0  0
 45 48  1  0  0  0  0
 46 50  1  0  0  0  0
 47 52  1  0  0  0  0
 48 65  1  0  0  0  0
 49 52  1  0  0  0  0
 49 65  1  0  0  0  0
 50 71  1  0  0  0  0
 51 64  1  0  0  0  0
 52 63  1  0  0  0  0
 53 60  1  0  0  0  0
 54 61  1  0  0  0  0
 55 61  1  0  0  0  0
 56 61  1  0  0  0  0
 57 74  1  0  0  0  0
 58 82  1  0  0  0  0
 59 61  1  0  0  0  0
 59 72  1  0  0  0  0
 60 74  1  0  0  0  0
 62 63  1  0  0  0  0
M  CHG  2  73   1  74   1
M  ISO  4  40 100  58 101  70 100  82 101
M  END
> <Batch ID>
0091

> <Smiles>
CNC(C)C(=O)NC(C(=O)N1Cc2cc([101O:1][101CH2:1]C(=O)Nc3cc(N)c(C(=N)[100NH:0][100C:0](=O)N4CCCC(n5nc(-c6ccc(Oc7ccc(F)cc7F)cc6)c(C(N)=O)c5N)C4)cc3F)ccc2CC1C(=O)NC1CCCc2ccccc21)C(C)(C)C

> <Shape>
0.250

> <Color>
0.091

> <Negative vol penalty>
0.000

$$$$

  -OEChem-04052300313D

 86 95  0     1  0  0  0  0  0999 V2000
  -20.1510  -30.4737   27.6547 C   0  0  0  0  0  0  0  0  0  0  0  0
  -21.2309  -29.7480   27.1622 C   0  0  0  0  0  0  0  0  0  0  0  0
  -23.0753   -9.8685   19.9405 C   0  0  0  0  0  0  0  0  0  0  0  0
  -23.8347   -9.8749   22.2340 C   0  0  0  0  0  0  0  0  0  0  0  0
  -19.1454  -29.8254   28.3707 C   0  0  0  0  0  0  0  0  0  0  0  0
  -21.3065  -28.3738   27.3863 C   0  0  0  0  0  0  0  0  0  0  0  0
  -23.6088  -24.1472   23.5994 C   0  0  0  0  0  0  0  0  0  0  0  0
  -22.3310   -8.7156   20.1902 C   0  0  0  0  0  0  0  0  0  0  0  0
  -23.0903   -8.7220   22.4838 C   0  0  0  0  0  0  0  0  0  0  0  0
  -24.8476  -23.5097   23.5472 C   0  0  0  0  0  0  0  0  0  0  0  0
  -19.8618   -7.9253   23.0855 C   0  0  0  0  0  0  0  0  0  0  0  0
  -19.1046   -7.8855   24.2562 C   0  0  0  0  0  0  0  0  0  0  0  0
  -23.9341  -21.6469   24.7780 C   0  0  0  0  0  0  0  0  0  0  0  0
  -32.0647  -16.6042   22.5496 C   0  0  0  0  0  0  0  0  0  0  0  0
  -20.3451   -5.9476   24.9928 C   0  0  0  0  0  0  0  0  0  0  0  0
  -23.8272  -10.4481   20.9624 C   0  0  0  0  0  0  0  0  0  0  0  0
  -24.1700  -12.9732   20.8427 C   0  0  0  0  0  0  0  0  0  0  0  0
  -19.2038  -28.4410   28.5954 C   0  0  0  0  0  0  0  0  0  0  0  0
  -22.5244  -23.5432   24.2519 C   0  0  0  0  0  0  0  0  0  0  0  0
  -20.3014  -27.7067   28.1071 C   0  0  0  0  0  0  0  0  0  0  0  0
  -22.6819  -22.2777   24.8349 C   0  0  0  0  0  0  0  0  0  0  0  0
  -30.4734  -18.3399   24.0455 C   0  0  0  0  0  0  0  0  0  0  0  0
  -32.6551  -17.4873   23.4535 C   0  0  0  0  0  0  0  0  0  0  0  0
  -30.6786  -16.5890   22.3935 C   0  0  0  0  0  0  0  0  0  0  0  0
  -31.8595  -18.3551   24.2015 C   0  0  0  0  0  0  0  0  0  0  0  0
  -22.3384   -8.1423   21.4618 C   0  0  0  0  0  0  0  0  0  0  0  0
  -25.0112  -22.2607   24.1390 C   0  0  0  0  0  0  0  0  0  0  0  0
  -20.8606   -6.9762   22.8683 C   0  0  0  0  0  0  0  0  0  0  0  0
  -19.3462   -6.8967   25.2099 C   0  0  0  0  0  0  0  0  0  0  0  0
  -21.1023   -5.9873   23.8220 C   0  0  0  0  0  0  0  0  0  0  0  0
  -29.8830  -17.4569   23.1415 C   0  0  0  0  0  0  0  0  0  0  0  0
  -24.5968  -11.6387   20.7050 C   0  0  0  0  0  0  0  0  0  0  0  0
  -25.2625  -13.7223   20.4798 C   0  0  0  0  0  0  0  0  0  0  0  0
  -28.0244  -20.7255   25.3428 C   0  0  0  0  0  0  0  0  0  0  0  0
  -26.8372  -21.3369   25.2717 C   0  0  0  0  0  0  0  0  0  1  0  0
  -22.8996  -13.4894   21.2614 C   0  0  0  0  0  0  0  0  0  0  0  0
  -20.7090  -24.2939   26.7508 C   0  0  0  0  0  0  0  0  0  0  0  0
  -19.0409  -21.6672   25.8342 C   0  0  0  0  0  0  0  0  0  0  0  0
  -19.0204  -18.6750   24.1931 C   0  0  0  0  0  0  0  0  0  0  0  0
  -30.7291  -14.7659   20.6557 C   0  0  0  0  0  0  0  0  0  0  0  0
  -18.1171  -27.7922   29.4156 C   0  0  0  0  0  0  0  0  0  0  0  0
  -21.1875  -24.2320   24.2763 C   0  0  0  0  0  0  0  0  0  0  0  0
  -21.5439  -21.5775   25.5299 C   0  0  0  0  0  0  0  0  0  0  0  0
  -28.7376  -20.3760   26.6105 C   0  0  0  0  0  0  0  0  0  0  0  0
  -28.7836  -20.1824   24.1697 C   0  0  0  0  0  0  0  0  0  0  0  0
  -18.0830  -26.2714   29.2875 C   0  0  0  0  0  0  0  0  0  0  0  0
  -29.6143  -12.3527   18.2869 C   0  0  0  0  0  0  0  0  0  0  0  0
  -19.4880  -25.6928   29.4218 C   0  0  0  0  0  0  0  0  0  0  0  0
  -28.1744  -12.0616   18.7162 C   0  0  0  0  0  0  0  0  0  0  0  0
  -29.5141  -19.1191   26.2278 C   0  0  0  0  0  0  0  0  0  0  0  0
  -30.5292  -12.5811   19.4888 C   0  0  0  0  0  0  0  0  0  0  0  0
  -28.6222  -13.3061   20.8698 C   0  0  0  0  0  0  0  0  0  0  0  0
  -20.4065  -26.2105   28.3083 C   0  0  1  0  0  0  0  0  0  0  0  0
  -20.2895  -23.7536   25.4130 C   0  0  1  0  0  0  0  0  0  0  0  0
  -27.6496  -13.1333   19.6917 C   0  0  2  0  0  0  0  0  0  0  0  0
  -17.5219  -16.7372   23.6486 C   0  0  0  0  0  0  0  0  0  0  0  0
  -19.3515  -20.6286   28.6864 C   0  0  0  0  0  0  0  0  0  0  0  0
  -18.7046  -18.3572   27.8555 C   0  0  0  0  0  0  0  0  0  0  0  0
  -17.0932  -20.2533   27.6796 C   0  0  0  0  0  0  0  0  0  0  0  0
  -19.2693  -19.1507   21.2827 C   0  0  0  0  0  0  0  0  0  0  0  0
  -19.1078  -20.1932   26.1532 C   0  0  1  0  0  0  0  0  0  0  0  0
  -18.0504  -18.0857   23.1850 C   0  0  2  0  0  0  0  0  0  0  0  0
  -18.5864  -19.8719   27.5823 C   0  0  0  0  0  0  0  0  0  0  0  0
  -25.8617  -11.5425   20.2869 N   0  0  0  0  0  0  0  0  0  0  0  0
  -26.2391  -12.8259   20.1588 N   0  0  0  0  0  0  0  0  0  0  0  0
  -29.6684  -19.1912   24.7768 N   0  0  3  0  0  0  0  0  0  0  0  0
  -20.2580  -22.2945   25.5326 N   0  0  0  0  0  0  0  0  0  0  0  0
  -29.9704  -13.6120   20.3662 N   0  0  0  0  0  0  0  0  0  0  0  0
  -34.0611  -17.4844   23.5951 N   0  0  0  0  0  0  0  0  0  0  0  0
  -32.4588  -19.2512   25.1192 N   0  0  0  0  0  0  0  0  0  0  0  0
  -25.4734  -15.0537   20.4069 N   0  0  0  0  0  0  0  0  0  0  0  0
  -21.8873  -12.5806   21.5984 N   0  0  0  0  0  0  0  0  0  0  0  0
  -30.0819  -15.6911   21.4741 N   0  0  0  0  0  0  0  0  0  0  0  0
  -20.1408  -25.5127   27.0686 N   0  0  0  0  0  0  0  0  0  0  0  0
  -18.3839  -19.5113   25.0858 N   0  0  0  0  0  0  0  0  0  0  0  0
  -18.7219  -17.8996   21.8677 N   0  3  0  0  0  0  0  0  0  0  0  0
  -22.6638  -14.7201   21.3189 O   0  0  0  0  0  0  0  0  0  0  0  0
  -21.4893  -23.6518   27.4440 O   0  0  0  0  0  0  0  0  0  0  0  0
  -17.9481  -22.2393   25.8450 O   0  0  0  0  0  0  0  0  0  0  0  0
  -20.2219  -18.4162   24.1914 O   0  0  0  0  0  0  0  0  0  0  0  0
  -31.8583  -14.9342   20.1883 O   0  0  0  0  0  0  0  0  0  0  0  0
  -21.6120   -7.0175   21.7059 O   0  0  0  0  0  0  0  0  0  0  0  0
  -26.2195  -21.6365   24.0900 O   0  0  0  0  0  0  0  0  0  1  0  0
  -18.6200   -6.8596   26.3348 F   0  0  0  0  0  0  0  0  0  0  0  0
  -22.0613   -5.0735   23.6195 F   0  0  0  0  0  0  0  0  0  0  0  0
  -28.5496  -17.4425   22.9908 F   0  0  0  0  0  0  0  0  0  0  0  0
  1  2  1  0  0  0  0
  1  5  2  0  0  0  0
  2  6  2  0  0  0  0
  3  8  2  0  0  0  0
  3 16  1  0  0  0  0
  4  9  1  0  0  0  0
  4 16  2  0  0  0  0
  5 18  1  0  0  0  0
  6 20  1  0  0  0  0
  7 10  2  0  0  0  0
  7 19  1  0  0  0  0
  8 26  1  0  0  0  0
  9 26  2  0  0  0  0
 10 27  1  0  0  0  0
 11 12  2  0  0  0  0
 11 28  1  0  0  0  0
 12 29  1  0  0  0  0
 13 21  1  0  0  0  0
 13 27  2  0  0  0  0
 14 23  1  0  0  0  0
 14 24  2  0  0  0  0
 15 29  2  0  0  0  0
 15 30  1  0  0  0  0
 16 32  1  0  0  0  0
 17 32  1  0  0  0  0
 17 33  2  0  0  0  0
 17 36  1  0  0  0  0
 18 20  2  0  0  0  0
 18 41  1  0  0  0  0
 19 21  2  0  0  0  0
 19 42  1  0  0  0  0
 20 53  1  0  0  0  0
 21 43  1  0  0  0  0
 22 25  1  0  0  0  0
 22 31  2  0  0  0  0
 22 66  1  0  0  0  0
 23 25  2  0  0  0  0
 23 69  1  0  0  0  0
 24 31  1  0  0  0  0
 24 73  1  0  0  0  0
 25 70  1  0  0  0  0
 26 82  1  0  0  0  0
 27 83  1  0  0  0  0
 28 30  2  0  0  0  0
 28 82  1  0  0  0  0
 29 84  1  0  0  0  0
 30 85  1  0  0  0  0
 31 86  1  0  0  0  0
 32 64  2  0  0  0  0
 33 65  1  0  0  0  0
 33 71  1  0  0  0  0
 34 35  2  0  0  0  0
 34 44  1  0  0  0  0
 34 45  1  0  0  0  0
 35 83  1  0  0  0  0
 36 72  1  0  0  0  0
 36 77  2  0  0  0  0
 37 54  1  0  0  0  0
 37 74  1  0  0  0  0
 37 78  2  0  0  0  0
 38 61  1  0  0  0  0
 38 67  1  0  0  0  0
 38 79  2  0  0  0  0
 39 62  1  0  0  0  0
 39 75  1  0  0  0  0
 39 80  2  0  0  0  0
 40 68  1  0  0  0  0
 40 73  1  0  0  0  0
 40 81  2  0  0  0  0
 41 46  1  0  0  0  0
 42 54  1  0  0  0  0
 43 67  1  0  0  0  0
 44 50  1  0  0  0  0
 45 66  1  0  0  0  0
 46 48  1  0  0  0  0
 47 49  1  0  0  0  0
 47 51  1  0  0  0  0
 48 53  1  0  0  0  0
 49 55  1  0  0  0  0
 50 66  1  0  0  0  0
 51 68  1  0  0  0  0
 52 55  1  0  0  0  0
 52 68  1  0  0  0  0
 53 74  1  0  0  0  0
 54 67  1  0  0  0  0
 55 65  1  0  0  0  0
 56 62  1  0  0  0  0
 57 63  1  0  0  0  0
 58 63  1  0  0  0  0
 59 63  1  0  0  0  0
 60 76  1  0  0  0  0
 61 63  1  0  0  0  0
 61 75  1  0  0  0  0
 62 76  1  0  0  0  0
 64 65  1  0  0  0  0
M  CHG  1  76   1
M  ISO  4  35 101  40 100  73 100  83 101
M  END
> <Batch ID>
0091

> <Smiles>
CNC(C)C(=O)NC(C(=O)N1Cc2cc([101O:1][101CH:1]=C3CCN(c4c(N)c(N)cc([100NH:0][100C:0](=O)N5CCCC(n6nc(-c7ccc(Oc8ccc(F)cc8F)cc7)c(C(N)=O)c6N)C5)c4F)C3)ccc2CC1C(=O)NC1CCCc2ccccc21)C(C)(C)C

> <Shape>
0.166

> <Color>
0.180

> <Negative vol penalty>
0.000

$$$$

  -OEChem-04052300313D

 84 92  0     1  0  0  0  0  0999 V2000
  -20.0584  -32.8823   15.3069 C   0  0  0  0  0  0  0  0  0  0  0  0
  -21.0164  -31.8826   15.4416 C   0  0  0  0  0  0  0  0  0  0  0  0
  -23.9697   -9.6134   21.8848 C   0  0  0  0  0  0  0  0  0  0  0  0
  -24.6592  -11.0072   23.7338 C   0  0  0  0  0  0  0  0  0  0  0  0
  -31.0472  -19.9826   19.7504 C   0  0  0  0  0  0  0  0  0  0  0  0
  -20.1773  -34.0632   16.0386 C   0  0  0  0  0  0  0  0  0  0  0  0
  -22.0945  -32.0636   16.3072 C   0  0  0  0  0  0  0  0  0  0  0  0
  -24.8819  -27.7664   19.6644 C   0  0  0  0  0  0  0  0  0  0  0  0
  -30.7381  -18.6444   19.5075 C   0  0  0  0  0  0  0  0  0  0  0  0
  -23.5633   -8.6251   22.7813 C   0  0  0  0  0  0  0  0  0  0  0  0
  -24.2527  -10.0190   24.6303 C   0  0  0  0  0  0  0  0  0  0  0  0
  -26.0519  -27.0343   19.4670 C   0  0  0  0  0  0  0  0  0  0  0  0
  -20.9181   -8.0301   24.8016 C   0  0  0  0  0  0  0  0  0  0  0  0
  -19.6816   -7.4234   24.5808 C   0  0  0  0  0  0  0  0  0  0  0  0
  -27.2654  -28.6204   20.8200 C   0  0  0  0  0  0  0  0  0  0  0  0
  -28.3957  -19.1219   19.8572 C   0  0  0  0  0  0  0  0  0  0  0  0
  -20.7715   -5.2770   24.3751 C   0  0  0  0  0  0  0  0  0  0  0  0
  -24.5177  -10.8044   22.3610 C   0  0  0  0  0  0  0  0  0  0  0  0
  -30.0306  -20.8906   20.0467 C   0  0  0  0  0  0  0  0  0  0  0  0
  -24.1620  -12.8841   20.9271 C   0  0  0  0  0  0  0  0  0  0  0  0
  -21.2522  -34.2548   16.9209 C   0  0  0  0  0  0  0  0  0  0  0  0
  -24.8971  -28.9389   20.4334 C   0  0  0  0  0  0  0  0  0  0  0  0
  -22.2285  -33.2486   17.0504 C   0  0  0  0  0  0  0  0  0  0  0  0
  -26.0938  -29.3642   21.0278 C   0  0  0  0  0  0  0  0  0  0  0  0
  -29.4124  -18.2140   19.5608 C   0  0  0  0  0  0  0  0  0  0  0  0
  -23.7047   -8.8279   24.1540 C   0  0  0  0  0  0  0  0  0  0  0  0
  -27.2445  -27.4629   20.0424 C   0  0  0  0  0  0  0  0  0  0  0  0
  -22.0813   -7.2602   24.8091 C   0  0  0  0  0  0  0  0  0  0  0  0
  -19.6083   -6.0469   24.3676 C   0  0  0  0  0  0  0  0  0  0  0  0
  -28.7049  -20.4602   20.1001 C   0  0  0  0  0  0  0  0  0  0  0  0
  -22.0080   -5.8837   24.5959 C   0  0  0  0  0  0  0  0  0  0  0  0
  -24.9383  -11.8255   21.4354 C   0  0  0  0  0  0  0  0  0  0  0  0
  -25.0153  -13.5670   20.0952 C   0  0  0  0  0  0  0  0  0  0  0  0
  -30.3648  -22.3140   20.3074 C   0  0  0  0  0  0  0  0  0  0  0  0
  -22.7920  -13.2202   21.1840 C   0  0  0  0  0  0  0  0  0  0  0  0
  -24.2758  -32.0037   19.8632 C   0  0  0  0  0  0  0  0  0  0  0  0
  -24.6968  -32.2825   23.0674 C   0  0  0  0  0  0  0  0  0  0  0  0
  -29.4887  -24.6169   20.1511 C   0  0  0  0  0  0  0  0  0  0  0  0
  -26.0814  -31.0363   25.9269 C   0  0  0  0  0  0  0  0  0  0  0  0
  -29.9872  -15.8247   19.0064 C   0  0  0  0  0  0  0  0  0  0  0  0
  -21.3636  -35.5675   17.6550 C   0  0  0  0  0  0  0  0  0  0  0  0
  -23.6211  -29.7027   20.6589 C   0  0  0  0  0  0  0  0  0  0  0  0
  -26.1593  -30.6051   21.8788 C   0  0  0  0  0  0  0  0  0  0  0  0
  -22.3349  -35.5266   18.8320 C   0  0  0  0  0  0  0  0  0  0  0  0
  -29.6125  -12.3422   18.3668 C   0  0  0  0  0  0  0  0  0  0  0  0
  -23.6401  -34.8508   18.4238 C   0  0  0  0  0  0  0  0  0  0  0  0
  -28.2992  -11.9844   19.0663 C   0  0  0  0  0  0  0  0  0  0  0  0
  -30.4099  -13.3804   19.1542 C   0  0  0  0  0  0  0  0  0  0  0  0
  -28.3542  -14.2399   20.2051 C   0  0  0  0  0  0  0  0  0  0  0  0
  -23.3991  -33.3975   17.9979 C   0  0  1  0  0  0  0  0  0  0  0  0
  -23.8570  -31.1622   21.0354 C   0  0  1  0  0  0  0  0  0  0  0  0
  -27.4857  -13.2457   19.4171 C   0  0  2  0  0  0  0  0  0  0  0  0
  -26.2816  -31.5031   28.3844 C   0  0  0  0  0  0  0  0  0  0  0  0
  -26.7371  -34.4745   22.4824 C   0  0  0  0  0  0  0  0  0  0  0  0
  -27.5698  -34.2296   24.8308 C   0  0  0  0  0  0  0  0  0  0  0  0
  -25.2188  -34.9505   24.4118 C   0  0  0  0  0  0  0  0  0  0  0  0
  -24.7442  -28.4933   26.6369 C   0  0  0  0  0  0  0  0  0  0  0  0
  -28.2524  -25.3424   19.6632 C   0  0  0  0  0  0  0  0  0  1  0  0
  -25.8759  -32.5492   23.9716 C   0  0  1  0  0  0  0  0  0  0  0  0
  -25.4930  -30.7813   27.3028 C   0  0  2  0  0  0  0  0  0  0  0  0
  -26.3499  -34.0286   23.9066 C   0  0  0  0  0  0  0  0  0  0  0  0
  -26.1886  -11.8311   20.9656 N   0  0  0  0  0  0  0  0  0  0  0  0
  -26.2044  -12.9016   20.1533 N   0  0  0  0  0  0  0  0  0  0  0  0
  -24.8864  -31.3211   22.0646 N   0  0  0  0  0  0  0  0  0  0  0  0
  -29.5765  -14.5487   19.4467 N   0  0  0  0  0  0  0  0  0  0  0  0
  -24.8569  -14.6657   19.3270 N   0  0  0  0  0  0  0  0  0  0  0  0
  -22.0598  -12.4126   22.0649 N   0  0  0  0  0  0  0  0  0  0  0  0
  -29.0986  -16.8544   19.3141 N   0  0  0  0  0  0  0  0  0  0  0  0
  -29.3818  -23.2385   19.9587 N   0  0  0  0  0  0  0  0  0  0  0  0
  -23.2210  -32.5532   19.1597 N   0  0  0  0  0  0  0  0  0  0  0  0
  -25.4771  -32.1075   25.3036 N   0  0  0  0  0  0  0  0  0  0  0  0
  -25.5030  -29.3226   27.6082 N   0  3  0  0  0  0  0  0  0  0  0  0
  -31.4438  -22.5897   20.8250 O   0  0  0  0  0  0  0  0  0  0  0  0
  -22.2291  -14.1979   20.6356 O   0  0  0  0  0  0  0  0  0  0  0  0
  -25.4677  -32.1451   19.6161 O   0  0  0  0  0  0  0  0  0  0  0  0
  -23.6439  -32.8991   23.2489 O   0  0  0  0  0  0  0  0  0  0  0  0
  -30.4489  -25.1997   20.6470 O   0  0  0  0  0  0  0  0  0  0  0  0
  -26.9891  -30.3559   25.4540 O   0  0  0  0  0  0  0  0  0  0  0  0
  -31.0358  -15.9877   18.3772 O   0  0  0  0  0  0  0  0  0  0  0  0
  -23.3080   -7.8639   25.0291 O   0  0  0  0  0  0  0  0  0  0  0  0
  -28.3880  -26.7505   19.8508 O   0  0  0  0  0  0  0  0  0  1  0  0
  -18.4207   -5.4642   24.1572 F   0  0  0  0  0  0  0  0  0  0  0  0
  -27.7196  -21.3239   20.3844 F   0  0  0  0  0  0  0  0  0  0  0  0
  -23.1219   -5.1388   24.6031 F   0  0  0  0  0  0  0  0  0  0  0  0
  1  2  1  0  0  0  0
  1  6  2  0  0  0  0
  2  7  2  0  0  0  0
  3 10  2  0  0  0  0
  3 18  1  0  0  0  0
  4 11  1  0  0  0  0
  4 18  2  0  0  0  0
  5  9  2  0  0  0  0
  5 19  1  0  0  0  0
  6 21  1  0  0  0  0
  7 23  1  0  0  0  0
  8 12  2  0  0  0  0
  8 22  1  0  0  0  0
  9 25  1  0  0  0  0
 10 26  1  0  0  0  0
 11 26  2  0  0  0  0
 12 27  1  0  0  0  0
 13 14  2  0  0  0  0
 13 28  1  0  0  0  0
 14 29  1  0  0  0  0
 15 24  1  0  0  0  0
 15 27  2  0  0  0  0
 16 25  2  0  0  0  0
 16 30  1  0  0  0  0
 17 29  2  0  0  0  0
 17 31  1  0  0  0  0
 18 32  1  0  0  0  0
 19 30  2  0  0  0  0
 19 34  1  0  0  0  0
 20 32  1  0  0  0  0
 20 33  2  0  0  0  0
 20 35  1  0  0  0  0
 21 23  2  0  0  0  0
 21 41  1  0  0  0  0
 22 24  2  0  0  0  0
 22 42  1  0  0  0  0
 23 50  1  0  0  0  0
 24 43  1  0  0  0  0
 25 68  1  0  0  0  0
 26 80  1  0  0  0  0
 27 81  1  0  0  0  0
 28 31  2  0  0  0  0
 28 80  1  0  0  0  0
 29 82  1  0  0  0  0
 30 83  1  0  0  0  0
 31 84  1  0  0  0  0
 32 62  2  0  0  0  0
 33 63  1  0  0  0  0
 33 66  1  0  0  0  0
 34 69  1  0  0  0  0
 34 73  2  0  0  0  0
 35 67  1  0  0  0  0
 35 74  2  0  0  0  0
 36 51  1  0  0  0  0
 36 70  1  0  0  0  0
 36 75  2  0  0  0  0
 37 59  1  0  0  0  0
 37 64  1  0  0  0  0
 37 76  2  0  0  0  0
 38 58  1  0  0  0  0
 38 69  1  0  0  0  0
 38 77  2  0  0  0  0
 39 60  1  0  0  0  0
 39 71  1  0  0  0  0
 39 78  2  0  0  0  0
 40 65  1  0  0  0  0
 40 68  1  0  0  0  0
 40 79  2  0  0  0  0
 41 44  1  0  0  0  0
 42 51  1  0  0  0  0
 43 64  1  0  0  0  0
 44 46  1  0  0  0  0
 45 47  1  0  0  0  0
 45 48  1  0  0  0  0
 46 50  1  0  0  0  0
 47 52  1  0  0  0  0
 48 65  1  0  0  0  0
 49 52  1  0  0  0  0
 49 65  1  0  0  0  0
 50 70  1  0  0  0  0
 51 64  1  0  0  0  0
 52 63  1  0  0  0  0
 53 60  1  0  0  0  0
 54 61  1  0  0  0  0
 55 61  1  0  0  0  0
 56 61  1  0  0  0  0
 57 72  1  0  0  0  0
 58 81  1  0  0  0  0
 59 61  1  0  0  0  0
 59 71  1  0  0  0  0
 60 72  1  0  0  0  0
 62 63  1  0  0  0  0
M  CHG  1  72   1
M  ISO  4  40 100  58 101  68 100  81 101
M  END
> <Batch ID>
0091

> <Smiles>
CNC(C)C(=O)NC(C(=O)N1Cc2cc([101O:1][101CH2:1]C(=O)NC(=O)c3ccc([100NH:0][100C:0](=O)N4CCCC(n5nc(-c6ccc(Oc7ccc(F)cc7F)cc6)c(C(N)=O)c5N)C4)cc3F)ccc2CC1C(=O)NC1CCCc2ccccc21)C(C)(C)C

> <Shape>
0.338

> <Color>
0.165

> <Negative vol penalty>
0.000

$$$$

  -OEChem-04052300313D

 83 91  0     1  0  0  0  0  0999 V2000
  -29.9413  -31.2245   26.0910 C   0  0  0  0  0  0  0  0  0  0  0  0
  -29.5621  -30.2449   25.1789 C   0  0  0  0  0  0  0  0  0  0  0  0
  -24.7707   -8.6078   22.1151 C   0  0  0  0  0  0  0  0  0  0  0  0
  -23.9093   -9.0651   19.9047 C   0  0  0  0  0  0  0  0  0  0  0  0
  -28.9689  -31.9359   26.7927 C   0  0  0  0  0  0  0  0  0  0  0  0
  -28.2102  -29.9753   24.9688 C   0  0  0  0  0  0  0  0  0  0  0  0
  -27.0592  -29.5263   20.0577 C   0  0  0  0  0  0  0  0  0  0  0  0
  -23.5510   -8.0324   22.4714 C   0  0  0  0  0  0  0  0  0  0  0  0
  -22.6896   -8.4895   20.2609 C   0  0  0  0  0  0  0  0  0  0  0  0
  -27.3885  -28.3238   19.4339 C   0  0  0  0  0  0  0  0  0  0  0  0
  -21.9512   -5.0915   21.9968 C   0  0  0  0  0  0  0  0  0  0  0  0
  -21.9832   -3.8796   22.6865 C   0  0  0  0  0  0  0  0  0  0  0  0
  -27.4333  -20.7575   19.2457 C   0  0  0  0  0  0  0  0  0  0  0  0
  -29.6521  -19.8081   19.1344 C   0  0  0  0  0  0  0  0  0  0  0  0
  -25.1018  -27.5887   19.6571 C   0  0  0  0  0  0  0  0  0  0  0  0
  -29.3583  -22.1214   19.7662 C   0  0  0  0  0  0  0  0  0  0  0  0
  -20.8166   -4.9027   24.5384 C   0  0  0  0  0  0  0  0  0  0  0  0
  -24.9498   -9.1243   20.8318 C   0  0  0  0  0  0  0  0  0  0  0  0
  -28.2708  -19.6699   18.9979 C   0  0  0  0  0  0  0  0  0  0  0  0
  -27.3221   -9.0708   19.8953 C   0  0  0  0  0  0  0  0  0  0  0  0
  -27.6042  -31.6816   26.5839 C   0  0  0  0  0  0  0  0  0  0  0  0
  -25.7488  -29.7651   20.4964 C   0  0  0  0  0  0  0  0  0  0  0  0
  -27.2187  -30.6830   25.6693 C   0  0  0  0  0  0  0  0  0  0  0  0
  -24.7578  -28.7961   20.2839 C   0  0  0  0  0  0  0  0  0  0  0  0
  -27.9770  -21.9833   19.6298 C   0  0  0  0  0  0  0  0  0  0  0  0
  -30.1959  -21.0339   19.5186 C   0  0  0  0  0  0  0  0  0  0  0  0
  -22.5105   -7.9732   21.5443 C   0  0  0  0  0  0  0  0  0  0  0  0
  -26.4104  -27.3535   19.2361 C   0  0  0  0  0  0  0  0  0  0  0  0
  -21.3520   -6.2091   22.5779 C   0  0  0  0  0  0  0  0  0  0  0  0
  -21.4159   -3.7852   23.9573 C   0  0  0  0  0  0  0  0  0  0  0  0
  -20.7847   -6.1147   23.8486 C   0  0  0  0  0  0  0  0  0  0  0  0
  -26.2092   -9.7194   20.4633 C   0  0  0  0  0  0  0  0  0  0  0  0
  -28.2553  -10.0659   19.7365 C   0  0  0  0  0  0  0  0  0  0  0  0
  -26.8734  -23.8325   18.8630 C   0  0  0  0  0  0  0  0  0  0  0  0
  -27.6943  -18.3715   18.5907 C   0  0  0  0  0  0  0  0  0  0  0  0
  -27.4965   -7.6921   19.5426 C   0  0  0  0  0  0  0  0  0  0  0  0
  -24.3921  -30.3056   23.3197 C   0  0  0  0  0  0  0  0  0  0  0  0
  -21.7433  -30.8028   21.5144 C   0  0  0  0  0  0  0  0  0  0  0  0
  -20.0803  -30.2278   18.5902 C   0  0  0  0  0  0  0  0  0  0  0  0
  -27.4446  -15.9612   19.1430 C   0  0  0  0  0  0  0  0  0  0  0  0
  -26.5906  -32.4435   27.4005 C   0  0  0  0  0  0  0  0  0  0  0  0
  -25.4039  -31.0783   21.1436 C   0  0  0  0  0  0  0  0  0  0  0  0
  -23.3319  -29.0118   20.7181 C   0  0  0  0  0  0  0  0  0  0  0  0
  -25.1715  -32.3570   26.8447 C   0  0  0  0  0  0  0  0  0  0  0  0
  -29.6585  -14.2317   21.5649 C   0  0  0  0  0  0  0  0  0  0  0  0
  -24.8258  -30.9154   26.4854 C   0  0  0  0  0  0  0  0  0  0  0  0
  -29.0563  -12.8311   21.5520 C   0  0  0  0  0  0  0  0  0  0  0  0
  -28.6080  -15.3145   21.3210 C   0  0  0  0  0  0  0  0  0  0  0  0
  -27.2130  -13.6897   20.0601 C   0  0  0  0  0  0  0  0  0  0  0  0
  -25.7617  -30.3789   25.3956 C   0  0  1  0  0  0  0  0  0  0  0  0
  -24.1517  -31.0057   22.0121 C   0  0  1  0  0  0  0  0  0  0  0  0
  -28.2738  -12.5962   20.2520 C   0  0  2  0  0  0  0  0  0  0  0  0
  -17.9189  -30.7354   17.4206 C   0  0  0  0  0  0  0  0  0  0  0  0
  -20.3157  -28.7550   23.2690 C   0  0  0  0  0  0  0  0  0  0  0  0
  -18.5327  -28.6011   21.5182 C   0  0  0  0  0  0  0  0  0  0  0  0
  -18.9467  -30.7655   22.6874 C   0  0  0  0  0  0  0  0  0  0  0  0
  -21.4694  -31.6237   16.3810 C   0  0  0  0  0  0  0  0  0  0  0  0
  -25.9776  -25.0263   19.0068 C   0  0  0  0  0  0  0  0  0  1  0  0
  -20.6266  -29.9315   20.9919 C   0  0  1  0  0  0  0  0  0  0  0  0
  -19.3606  -31.1671   17.6393 C   0  0  2  0  0  0  0  0  0  0  0  0
  -19.6326  -29.5081   22.1101 C   0  0  0  0  0  0  0  0  0  0  0  0
  -26.4149  -11.0254   20.6528 N   0  0  0  0  0  0  0  0  0  0  0  0
  -27.1333  -23.0785   19.8806 N   0  0  0  0  0  0  0  0  0  0  0  0
  -27.6678  -11.2056   20.2013 N   0  0  0  0  0  0  0  0  0  0  0  0
  -23.0456  -30.3094   21.3520 N   0  0  0  0  0  0  0  0  0  0  0  0
  -27.7929  -15.0352   20.1308 N   0  0  0  0  0  0  0  0  0  0  0  0
  -31.5927  -21.1736   19.6568 N   0  0  0  0  0  0  0  0  0  0  0  0
  -29.5131  -10.0684   19.2461 N   0  0  0  0  0  0  0  0  0  0  0  0
  -26.4368   -6.8042   19.7727 N   0  0  0  0  0  0  0  0  0  0  0  0
  -27.9231  -17.3070   19.3753 N   0  0  0  0  0  0  0  0  0  0  0  0
  -25.3725  -30.8898   24.0987 N   0  0  0  0  0  0  0  0  0  0  0  0
  -20.0119  -30.6703   19.8944 N   0  0  0  0  0  0  0  0  0  0  0  0
  -26.9855  -18.3381   17.4625 N   0  3  0  0  0  0  0  0  0  0  0  0
  -20.0488  -31.1935   16.3177 N   0  3  0  0  0  0  0  0  0  0  0  0
  -28.5666   -7.2571   19.0534 O   0  0  0  0  0  0  0  0  0  0  0  0
  -23.7355  -29.3101   23.6016 O   0  0  0  0  0  0  0  0  0  0  0  0
  -21.4706  -31.8846   22.0406 O   0  0  0  0  0  0  0  0  0  0  0  0
  -20.6434  -29.2021   18.2143 O   0  0  0  0  0  0  0  0  0  0  0  0
  -26.7639  -15.7240   18.1509 O   0  0  0  0  0  0  0  0  0  0  0  0
  -21.3204   -7.4115   21.8915 O   0  0  0  0  0  0  0  0  0  0  0  0
  -26.7293  -26.1786   18.6281 O   0  0  0  0  0  0  0  0  0  1  0  0
  -21.4453   -2.6208   24.6189 F   0  0  0  0  0  0  0  0  0  0  0  0
  -20.2065   -7.1846   24.4115 F   0  0  0  0  0  0  0  0  0  0  0  0
  1  2  1  0  0  0  0
  1  5  2  0  0  0  0
  2  6  2  0  0  0  0
  3  8  2  0  0  0  0
  3 18  1  0  0  0  0
  4  9  1  0  0  0  0
  4 18  2  0  0  0  0
  5 21  1  0  0  0  0
  6 23  1  0  0  0  0
  7 10  2  0  0  0  0
  7 22  1  0  0  0  0
  8 27  1  0  0  0  0
  9 27  2  0  0  0  0
 10 28  1  0  0  0  0
 11 12  2  0  0  0  0
 11 29  1  0  0  0  0
 12 30  1  0  0  0  0
 13 19  1  0  0  0  0
 13 25  2  0  0  0  0
 14 19  2  0  0  0  0
 14 26  1  0  0  0  0
 15 24  1  0  0  0  0
 15 28  2  0  0  0  0
 16 25  1  0  0  0  0
 16 26  2  0  0  0  0
 17 30  2  0  0  0  0
 17 31  1  0  0  0  0
 18 32  1  0  0  0  0
 19 35  1  0  0  0  0
 20 32  1  0  0  0  0
 20 33  2  0  0  0  0
 20 36  1  0  0  0  0
 21 23  2  0  0  0  0
 21 41  1  0  0  0  0
 22 24  2  0  0  0  0
 22 42  1  0  0  0  0
 23 50  1  0  0  0  0
 24 43  1  0  0  0  0
 25 63  1  0  0  0  0
 26 67  1  0  0  0  0
 27 80  1  0  0  0  0
 28 81  1  0  0  0  0
 29 31  2  0  0  0  0
 29 80  1  0  0  0  0
 30 82  1  0  0  0  0
 31 83  1  0  0  0  0
 32 62  2  0  0  0  0
 33 64  1  0  0  0  0
 33 68  1  0  0  0  0
 34 58  1  0  0  0  0
 34 63  2  0  0  0  0
 35 70  1  0  0  0  0
 35 73  2  0  0  0  0
 36 69  1  0  0  0  0
 36 75  2  0  0  0  0
 37 51  1  0  0  0  0
 37 71  1  0  0  0  0
 37 76  2  0  0  0  0
 38 59  1  0  0  0  0
 38 65  1  0  0  0  0
 38 77  2  0  0  0  0
 39 60  1  0  0  0  0
 39 72  1  0  0  0  0
 39 78  2  0  0  0  0
 40 66  1  0  0  0  0
 40 70  1  0  0  0  0
 40 79  2  0  0  0  0
 41 44  1  0  0  0  0
 42 51  1  0  0  0  0
 43 65  1  0  0  0  0
 44 46  1  0  0  0  0
 45 47  1  0  0  0  0
 45 48  1  0  0  0  0
 46 50  1  0  0  0  0
 47 52  1  0  0  0  0
 48 66  1  0  0  0  0
 49 52  1  0  0  0  0
 49 66  1  0  0  0  0
 50 71  1  0  0  0  0
 51 65  1  0  0  0  0
 52 64  1  0  0  0  0
 53 60  1  0  0  0  0
 54 61  1  0  0  0  0
 55 61  1  0  0  0  0
 56 61  1  0  0  0  0
 57 74  1  0  0  0  0
 58 81  1  0  0  0  0
 59 61  1  0  0  0  0
 59 72  1  0  0  0  0
 60 74  1  0  0  0  0
 62 64  1  0  0  0  0
M  CHG  2  73   1  74   1
M  ISO  4  40 100  58 101  70 100  81 101
M  END
> <Batch ID>
0091

> <Smiles>
CNC(C)C(=O)NC(C(=O)N1Cc2cc([101O:1][101CH:1]=CNc3cc(N)cc(C(=N)[100NH:0][100C:0](=O)N4CCCC(n5nc(-c6ccc(Oc7ccc(F)cc7F)cc6)c(C(N)=O)c5N)C4)c3)ccc2CC1C(=O)NC1CCCc2ccccc21)C(C)(C)C

> <Shape>
0.304

> <Color>
0.090

> <Negative vol penalty>
0.000

$$$$

  -OEChem-04052300313D

 87 96  0     1  0  0  0  0  0999 V2000
  -28.5867  -37.1089   19.2430 C   0  0  0  0  0  0  0  0  0  0  0  0
  -28.7035  -35.7746   18.8667 C   0  0  0  0  0  0  0  0  0  0  0  0
  -24.6520   -8.4420   20.6763 C   0  0  0  0  0  0  0  0  0  0  0  0
  -22.9554  -10.1130   20.2682 C   0  0  0  0  0  0  0  0  0  0  0  0
  -28.2281  -37.4343   20.5505 C   0  0  0  0  0  0  0  0  0  0  0  0
  -28.4629  -34.7651   19.7980 C   0  0  0  0  0  0  0  0  0  0  0  0
  -25.9434  -29.2879   18.7217 C   0  0  0  0  0  0  0  0  0  0  0  0
  -23.6686   -7.5458   21.0950 C   0  0  0  0  0  0  0  0  0  0  0  0
  -21.9720   -9.2168   20.6869 C   0  0  0  0  0  0  0  0  0  0  0  0
  -26.4967  -28.0237   18.5228 C   0  0  0  0  0  0  0  0  0  0  0  0
  -21.8212   -6.9938   23.8711 C   0  0  0  0  0  0  0  0  0  0  0  0
  -22.0644   -6.2626   25.0338 C   0  0  0  0  0  0  0  0  0  0  0  0
  -26.1617  -27.5165   20.8573 C   0  0  0  0  0  0  0  0  0  0  0  0
  -29.2061  -23.3605   20.4269 C   0  0  0  0  0  0  0  0  0  0  0  0
  -27.6781  -20.5496   17.2289 C   0  0  0  0  0  0  0  0  0  0  0  0
  -28.1545  -19.3265   19.2572 C   0  0  0  0  0  0  0  0  0  0  0  0
  -21.8840   -4.2064   23.7782 C   0  0  0  0  0  0  0  0  0  0  0  0
  -24.2954   -9.7257   20.2630 C   0  0  0  0  0  0  0  0  0  0  0  0
  -25.7992  -10.8288   18.5225 C   0  0  0  0  0  0  0  0  0  0  0  0
  -27.9736  -36.4282   21.4957 C   0  0  0  0  0  0  0  0  0  0  0  0
  -25.5044  -29.6805   19.9943 C   0  0  0  0  0  0  0  0  0  0  0  0
  -28.1019  -35.0774   21.1196 C   0  0  0  0  0  0  0  0  0  0  0  0
  -25.6009  -28.7852   21.0691 C   0  0  0  0  0  0  0  0  0  0  0  0
  -27.8778  -23.7562   20.1334 C   0  0  0  0  0  0  0  0  0  0  0  0
  -27.6051  -18.1347   17.2287 C   0  0  0  0  0  0  0  0  0  0  0  0
  -28.0200  -20.5392   18.5812 C   0  0  0  0  0  0  0  0  0  0  0  0
  -27.4706  -19.3474   16.5527 C   0  0  0  0  0  0  0  0  0  0  0  0
  -27.9471  -18.1242   18.5809 C   0  0  0  0  0  0  0  0  0  0  0  0
  -22.3286   -7.9332   21.1003 C   0  0  0  0  0  0  0  0  0  0  0  0
  -26.6085  -27.1388   19.5913 C   0  0  0  0  0  0  0  0  0  0  0  0
  -21.6093   -6.3314   22.6620 C   0  0  0  0  0  0  0  0  0  0  0  0
  -22.0959   -4.8689   24.9873 C   0  0  0  0  0  0  0  0  0  0  0  0
  -21.6407   -4.9376   22.6156 C   0  0  0  0  0  0  0  0  0  0  0  0
  -25.3108  -10.6522   19.8309 C   0  0  0  0  0  0  0  0  0  0  0  0
  -27.2956  -22.7384   19.4107 C   0  0  0  0  0  0  0  0  0  0  0  0
  -26.7445  -11.8183   18.6395 C   0  0  0  0  0  0  0  0  0  0  0  0
  -29.3952  -22.1130   19.8744 C   0  0  0  0  0  0  0  0  0  0  0  0
  -25.4313  -10.1583   17.3097 C   0  0  0  0  0  0  0  0  0  0  0  0
  -26.3169  -31.9753   22.0382 C   0  0  0  0  0  0  0  0  0  0  0  0
  -23.7582  -30.8671   23.6957 C   0  0  0  0  0  0  0  0  0  0  0  0
  -21.6366  -28.2776   24.3591 C   0  0  0  0  0  0  0  0  0  0  0  0
  -28.4238  -16.7395   20.6307 C   0  0  0  0  0  0  0  0  0  0  0  0
  -27.6350  -36.8293   22.9096 C   0  0  0  0  0  0  0  0  0  0  0  0
  -24.8855  -31.0378   20.1867 C   0  0  0  0  0  0  0  0  0  0  0  0
  -25.1258  -29.1509   22.4508 C   0  0  0  0  0  0  0  0  0  0  0  0
  -27.0319  -35.6965   23.7362 C   0  0  0  0  0  0  0  0  0  0  0  0
  -28.8352  -13.9073   22.7488 C   0  0  0  0  0  0  0  0  0  0  0  0
  -27.8405  -34.4156   23.5567 C   0  0  0  0  0  0  0  0  0  0  0  0
  -27.9952  -12.8225   22.0709 C   0  0  0  0  0  0  0  0  0  0  0  0
  -28.1849  -15.2846   22.6310 C   0  0  0  0  0  0  0  0  0  0  0  0
  -26.9905  -14.6042   20.5866 C   0  0  0  0  0  0  0  0  0  0  0  0
  -27.8248  -33.9536   22.0946 C   0  0  1  0  0  0  0  0  0  0  0  0
  -24.9432  -31.5214   21.6324 C   0  0  1  0  0  0  0  0  0  0  0  0
  -27.6371  -13.2098   20.6227 C   0  0  2  0  0  0  0  0  0  0  0  0
  -27.3822  -16.8443   16.5022 C   0  0  0  0  0  0  0  0  0  0  0  0
  -25.9273  -22.6377   18.8549 C   0  0  0  0  0  0  0  0  0  0  0  0
  -19.6683  -27.6602   25.7881 C   0  0  0  0  0  0  0  0  0  0  0  0
  -25.6027  -30.5843   26.1098 C   0  0  0  0  0  0  0  0  0  0  0  0
  -23.8747  -29.1154   27.1703 C   0  0  0  0  0  0  0  0  0  0  0  0
  -23.3310  -31.4899   26.6330 C   0  0  0  0  0  0  0  0  0  0  0  0
  -19.9289  -27.7781   21.9942 C   0  0  0  0  0  0  0  0  0  0  0  0
  -27.2328  -25.0488   20.5389 C   0  0  0  0  0  0  0  0  0  1  0  0
  -23.5456  -29.8119   24.7542 C   0  0  1  0  0  0  0  0  0  0  0  0
  -20.1224  -28.2130   24.4461 C   0  0  2  0  0  0  0  0  0  0  0  0
  -24.0993  -30.2439   26.1413 C   0  0  0  0  0  0  0  0  0  0  0  0
  -25.8975  -11.4643   20.7143 N   0  0  0  0  0  0  0  0  0  0  0  0
  -28.2273  -21.7449   19.2590 N   0  0  0  0  0  0  0  0  0  0  0  0
  -26.7644  -12.1607   19.9595 N   0  0  0  0  0  0  0  0  0  0  0  0
  -24.5337  -30.4916   22.5896 N   0  0  0  0  0  0  0  0  0  0  0  0
  -27.8778  -15.5852   21.2309 N   0  0  0  0  0  0  0  0  0  0  0  0
  -27.1259  -19.3792   15.1831 N   0  0  0  0  0  0  0  0  0  0  0  0
  -27.5525  -12.4202   17.7409 N   0  0  0  0  0  0  0  0  0  0  0  0
  -24.4421   -9.1671   17.3679 N   0  0  0  0  0  0  0  0  0  0  0  0
  -28.0888  -16.9040   19.2871 N   0  0  0  0  0  0  0  0  0  0  0  0
  -26.5671  -33.3098   21.7814 N   0  0  0  0  0  0  0  0  0  0  0  0
  -22.1184  -29.5095   24.7483 N   0  0  0  0  0  0  0  0  0  0  0  0
  -19.5786  -27.3381   23.3692 N   0  3  0  0  0  0  0  0  0  0  0  0
  -25.9755  -10.4187   16.2099 O   0  0  0  0  0  0  0  0  0  0  0  0
  -27.0918  -31.1745   22.5479 O   0  0  0  0  0  0  0  0  0  0  0  0
  -23.2489  -31.9810   23.8415 O   0  0  0  0  0  0  0  0  0  0  0  0
  -22.3235  -27.3288   23.9870 O   0  0  0  0  0  0  0  0  0  0  0  0
  -29.1581  -17.5098   21.2546 O   0  0  0  0  0  0  0  0  0  0  0  0
  -30.4629  -21.3238   19.8753 O   0  0  0  0  0  0  0  0  0  0  0  0
  -21.3687   -7.0588   21.5085 O   0  0  0  0  0  0  0  0  0  0  0  0
  -27.1487  -25.9045   19.4001 O   0  0  0  0  0  0  0  0  0  1  0  0
  -22.3310   -4.1668   26.1036 F   0  0  0  0  0  0  0  0  0  0  0  0
  -21.4390   -4.2956   21.4567 F   0  0  0  0  0  0  0  0  0  0  0  0
  1  2  1  0  0  0  0
  1  5  2  0  0  0  0
  2  6  2  0  0  0  0
  3  8  2  0  0  0  0
  3 18  1  0  0  0  0
  4  9  1  0  0  0  0
  4 18  2  0  0  0  0
  5 20  1  0  0  0  0
  6 22  1  0  0  0  0
  7 10  2  0  0  0  0
  7 21  1  0  0  0  0
  8 29  1  0  0  0  0
  9 29  2  0  0  0  0
 10 30  1  0  0  0  0
 11 12  2  0  0  0  0
 11 31  1  0  0  0  0
 12 32  1  0  0  0  0
 13 23  1  0  0  0  0
 13 30  2  0  0  0  0
 14 24  1  0  0  0  0
 14 37  2  0  0  0  0
 15 26  1  0  0  0  0
 15 27  2  0  0  0  0
 16 26  2  0  0  0  0
 16 28  1  0  0  0  0
 17 32  2  0  0  0  0
 17 33  1  0  0  0  0
 18 34  1  0  0  0  0
 19 34  1  0  0  0  0
 19 36  2  0  0  0  0
 19 38  1  0  0  0  0
 20 22  2  0  0  0  0
 20 43  1  0  0  0  0
 21 23  2  0  0  0  0
 21 44  1  0  0  0  0
 22 52  1  0  0  0  0
 23 45  1  0  0  0  0
 24 35  2  0  0  0  0
 24 62  1  0  0  0  0
 25 27  1  0  0  0  0
 25 28  2  0  0  0  0
 25 55  1  0  0  0  0
 26 67  1  0  0  0  0
 27 71  1  0  0  0  0
 28 74  1  0  0  0  0
 29 84  1  0  0  0  0
 30 85  1  0  0  0  0
 31 33  2  0  0  0  0
 31 84  1  0  0  0  0
 32 86  1  0  0  0  0
 33 87  1  0  0  0  0
 34 66  2  0  0  0  0
 35 56  1  0  0  0  0
 35 67  1  0  0  0  0
 36 68  1  0  0  0  0
 36 72  1  0  0  0  0
 37 67  1  0  0  0  0
 37 83  1  0  0  0  0
 38 73  1  0  0  0  0
 38 78  2  0  0  0  0
 39 53  1  0  0  0  0
 39 75  1  0  0  0  0
 39 79  2  0  0  0  0
 40 63  1  0  0  0  0
 40 69  1  0  0  0  0
 40 80  2  0  0  0  0
 41 64  1  0  0  0  0
 41 76  1  0  0  0  0
 41 81  2  0  0  0  0
 42 70  1  0  0  0  0
 42 74  1  0  0  0  0
 42 82  2  0  0  0  0
 43 46  1  0  0  0  0
 44 53  1  0  0  0  0
 45 69  1  0  0  0  0
 46 48  1  0  0  0  0
 47 49  1  0  0  0  0
 47 50  1  0  0  0  0
 48 52  1  0  0  0  0
 49 54  1  0  0  0  0
 50 70  1  0  0  0  0
 51 54  1  0  0  0  0
 51 70  1  0  0  0  0
 52 75  1  0  0  0  0
 53 69  1  0  0  0  0
 54 68  1  0  0  0  0
 57 64  1  0  0  0  0
 58 65  1  0  0  0  0
 59 65  1  0  0  0  0
 60 65  1  0  0  0  0
 61 77  1  0  0  0  0
 62 85  1  0  0  0  0
 63 65  1  0  0  0  0
 63 76  1  0  0  0  0
 64 77  1  0  0  0  0
 66 68  1  0  0  0  0
M  CHG  1  77   1
M  ISO  4  42 100  62 101  74 100  85 101
M  END
> <Batch ID>
0091

> <Smiles>
CNC(C)C(=O)NC(C(=O)N1Cc2cc([101O:1][101CH2:1]C3=C(C)N(c4cc(N)c(C)c([100NH:0][100C:0](=O)N5CCCC(n6nc(-c7ccc(Oc8ccc(F)cc8F)cc7)c(C(N)=O)c6N)C5)c4)C(=O)C3)ccc2CC1C(=O)NC1CCCc2ccccc21)C(C)(C)C

> <Shape>
0.292

> <Color>
0.116

> <Negative vol penalty>
0.000

$$$$

  -OEChem-04052300313D

 82 90  0     1  0  0  0  0  0999 V2000
  -24.7718  -30.8461   27.2197 C   0  0  0  0  0  0  0  0  0  0  0  0
  -25.0734  -29.6261   26.6230 C   0  0  0  0  0  0  0  0  0  0  0  0
  -23.0779   -9.8623   19.9446 C   0  0  0  0  0  0  0  0  0  0  0  0
  -23.8337   -9.8776   22.2392 C   0  0  0  0  0  0  0  0  0  0  0  0
  -25.0080  -32.0350   26.5308 C   0  0  0  0  0  0  0  0  0  0  0  0
  -25.6104  -29.5943   25.3365 C   0  0  0  0  0  0  0  0  0  0  0  0
  -29.4876  -26.3623   24.9292 C   0  0  0  0  0  0  0  0  0  0  0  0
  -22.3344   -8.7094   20.1971 C   0  0  0  0  0  0  0  0  0  0  0  0
  -23.0902   -8.7247   22.4918 C   0  0  0  0  0  0  0  0  0  0  0  0
  -29.1784  -25.0067   24.8258 C   0  0  0  0  0  0  0  0  0  0  0  0
  -19.8616   -7.9264   23.0913 C   0  0  0  0  0  0  0  0  0  0  0  0
  -19.1026   -7.8898   24.2610 C   0  0  0  0  0  0  0  0  0  0  0  0
  -31.8750  -18.8218   22.3582 C   0  0  0  0  0  0  0  0  0  0  0  0
  -31.7896  -17.5603   21.7013 C   0  0  0  0  0  0  0  0  0  0  0  0
  -29.5038  -25.1207   22.4383 C   0  0  0  0  0  0  0  0  0  0  0  0
  -20.3442   -5.9558   25.0061 C   0  0  0  0  0  0  0  0  0  0  0  0
  -23.8276  -10.4464   20.9656 C   0  0  0  0  0  0  0  0  0  0  0  0
  -24.1677  -12.9714   20.8377 C   0  0  0  0  0  0  0  0  0  0  0  0
  -25.5571  -32.0182   25.2390 C   0  0  0  0  0  0  0  0  0  0  0  0
  -29.7971  -27.1110   23.7846 C   0  0  0  0  0  0  0  0  0  0  0  0
  -25.8529  -30.7841   24.6292 C   0  0  0  0  0  0  0  0  0  0  0  0
  -29.8191  -26.4850   22.5301 C   0  0  0  0  0  0  0  0  0  0  0  0
  -22.3406   -8.1406   21.4707 C   0  0  0  0  0  0  0  0  0  0  0  0
  -29.1836  -24.3864   23.5799 C   0  0  0  0  0  0  0  0  0  0  0  0
  -20.8619   -6.9777   22.8789 C   0  0  0  0  0  0  0  0  0  0  0  0
  -19.3439   -6.9046   25.2184 C   0  0  0  0  0  0  0  0  0  0  0  0
  -21.1032   -5.9924   23.8364 C   0  0  0  0  0  0  0  0  0  0  0  0
  -24.5962  -11.6370   20.7053 C   0  0  0  0  0  0  0  0  0  0  0  0
  -30.7258  -19.1203   23.0566 C   0  0  0  0  0  0  0  0  0  0  0  0
  -25.2599  -13.7204   20.4739 C   0  0  0  0  0  0  0  0  0  0  0  0
  -30.5783  -16.9425   21.9229 C   0  0  0  0  0  0  0  0  0  0  0  0
  -22.8960  -13.4876   21.2527 C   0  0  0  0  0  0  0  0  0  0  0  0
  -30.4141  -20.3254   23.8676 C   0  0  0  0  0  0  0  0  0  0  0  0
  -28.5043  -29.6251   22.3314 C   0  0  0  0  0  0  0  0  0  0  0  0
  -31.1507  -29.4174   20.4671 C   0  0  0  0  0  0  0  0  0  0  0  0
  -33.6733  -27.4852   19.2222 C   0  0  0  0  0  0  0  0  0  0  0  0
  -30.7250  -14.7707   20.6548 C   0  0  0  0  0  0  0  0  0  0  0  0
  -25.7506  -33.3272   24.5153 C   0  0  0  0  0  0  0  0  0  0  0  0
  -30.1545  -28.5661   23.9161 C   0  0  0  0  0  0  0  0  0  0  0  0
  -30.1644  -27.2396   21.2732 C   0  0  0  0  0  0  0  0  0  0  0  0
  -26.6708  -33.2221   23.3018 C   0  0  0  0  0  0  0  0  0  0  0  0
  -29.6165  -12.3483   18.2925 C   0  0  0  0  0  0  0  0  0  0  0  0
  -26.2973  -32.0118   22.4518 C   0  0  0  0  0  0  0  0  0  0  0  0
  -28.1764  -12.0570   18.7205 C   0  0  0  0  0  0  0  0  0  0  0  0
  -30.5294  -12.5817   19.4950 C   0  0  0  0  0  0  0  0  0  0  0  0
  -28.6195  -13.3093   20.8705 C   0  0  0  0  0  0  0  0  0  0  0  0
  -26.4596  -30.7094   23.2448 C   0  0  1  0  0  0  0  0  0  0  0  0
  -29.9524  -29.3503   22.6232 C   0  0  1  0  0  0  0  0  0  0  0  0
  -27.6488  -13.1314   19.6916 C   0  0  2  0  0  0  0  0  0  0  0  0
  -35.6607  -27.5856   17.6933 C   0  0  0  0  0  0  0  0  0  0  0  0
  -26.7326  -22.0013   23.7379 C   0  0  0  0  0  0  0  0  0  0  0  0
  -29.2903  -29.3638   18.0492 C   0  0  0  0  0  0  0  0  0  0  0  0
  -31.2091  -28.5215   16.6791 C   0  0  0  0  0  0  0  0  0  0  0  0
  -31.3398  -30.7670   17.7576 C   0  0  0  0  0  0  0  0  0  0  0  0
  -35.5375  -26.7774   21.4092 C   0  0  0  0  0  0  0  0  0  0  0  0
  -28.7024  -21.4604   25.2596 C   0  0  0  0  0  0  0  0  0  0  0  0
  -31.5058  -28.6916   19.1919 C   0  0  1  0  0  0  0  0  0  0  0  0
  -35.1698  -27.7216   19.1262 C   0  0  2  0  0  0  0  0  0  0  0  0
  -27.9776  -22.5262   24.4407 C   0  0  1  0  0  0  0  0  0  1  0  0
  -30.8278  -29.3219   17.9427 C   0  0  0  0  0  0  0  0  0  0  0  0
  -25.8618  -11.5407   20.2895 N   0  0  0  0  0  0  0  0  0  0  0  0
  -26.2380  -12.8241   20.1576 N   0  0  0  0  0  0  0  0  0  0  0  0
  -30.5006  -28.6617   21.4530 N   0  0  0  0  0  0  0  0  0  0  0  0
  -29.9681  -13.6150   20.3680 N   0  0  0  0  0  0  0  0  0  0  0  0
  -25.4694  -15.0518   20.3967 N   0  0  0  0  0  0  0  0  0  0  0  0
  -21.8842  -12.5788   21.5912 N   0  0  0  0  0  0  0  0  0  0  0  0
  -30.0755  -15.6980   21.4690 N   0  0  0  0  0  0  0  0  0  0  0  0
  -29.1599  -20.3520   24.4645 N   0  0  0  0  0  0  0  0  0  0  0  0
  -27.8556  -30.3360   23.3230 N   0  0  0  0  0  0  0  0  0  0  0  0
  -32.9632  -28.6635   19.1305 N   0  0  0  0  0  0  0  0  0  0  0  0
  -35.9048  -26.7377   19.9703 N   0  3  0  0  0  0  0  0  0  0  0  0
  -22.6587  -14.7182   21.3054 O   0  0  0  0  0  0  0  0  0  0  0  0
  -31.2476  -21.2236   23.9523 O   0  0  0  0  0  0  0  0  0  0  0  0
  -28.0123  -29.2233   21.2835 O   0  0  0  0  0  0  0  0  0  0  0  0
  -31.4458  -30.6091   20.5869 O   0  0  0  0  0  0  0  0  0  0  0  0
  -33.1832  -26.3666   19.3607 O   0  0  0  0  0  0  0  0  0  0  0  0
  -31.8548  -14.9387   20.1886 O   0  0  0  0  0  0  0  0  0  0  0  0
  -21.6151   -7.0158   21.7175 O   0  0  0  0  0  0  0  0  0  0  0  0
  -28.8816  -23.0636   23.4761 O   0  0  0  0  0  0  0  0  0  1  0  0
  -18.6160   -6.8705   26.3423 F   0  0  0  0  0  0  0  0  0  0  0  0
  -22.0636   -5.0790   23.6385 F   0  0  0  0  0  0  0  0  0  0  0  0
  -29.5505  -17.8825   22.9191 S   0  0  0  0  0  0  0  0  0  0  0  0
  1  2  1  0  0  0  0
  1  5  2  0  0  0  0
  2  6  2  0  0  0  0
  3  8  2  0  0  0  0
  3 17  1  0  0  0  0
  4  9  1  0  0  0  0
  4 17  2  0  0  0  0
  5 19  1  0  0  0  0
  6 21  1  0  0  0  0
  7 10  2  0  0  0  0
  7 20  1  0  0  0  0
  8 23  1  0  0  0  0
  9 23  2  0  0  0  0
 10 24  1  0  0  0  0
 11 12  2  0  0  0  0
 11 25  1  0  0  0  0
 12 26  1  0  0  0  0
 13 14  1  0  0  0  0
 13 29  2  0  0  0  0
 14 31  2  0  0  0  0
 15 22  1  0  0  0  0
 15 24  2  0  0  0  0
 16 26  2  0  0  0  0
 16 27  1  0  0  0  0
 17 28  1  0  0  0  0
 18 28  1  0  0  0  0
 18 30  2  0  0  0  0
 18 32  1  0  0  0  0
 19 21  2  0  0  0  0
 19 38  1  0  0  0  0
 20 22  2  0  0  0  0
 20 39  1  0  0  0  0
 21 47  1  0  0  0  0
 22 40  1  0  0  0  0
 23 78  1  0  0  0  0
 24 79  1  0  0  0  0
 25 27  2  0  0  0  0
 25 78  1  0  0  0  0
 26 80  1  0  0  0  0
 27 81  1  0  0  0  0
 28 61  2  0  0  0  0
 29 33  1  0  0  0  0
 29 82  1  0  0  0  0
 30 62  1  0  0  0  0
 30 65  1  0  0  0  0
 31 67  1  0  0  0  0
 31 82  1  0  0  0  0
 32 66  1  0  0  0  0
 32 72  2  0  0  0  0
 33 68  1  0  0  0  0
 33 73  2  0  0  0  0
 34 48  1  0  0  0  0
 34 69  1  0  0  0  0
 34 74  2  0  0  0  0
 35 57  1  0  0  0  0
 35 63  1  0  0  0  0
 35 75  2  0  0  0  0
 36 58  1  0  0  0  0
 36 70  1  0  0  0  0
 36 76  2  0  0  0  0
 37 64  1  0  0  0  0
 37 67  1  0  0  0  0
 37 77  2  0  0  0  0
 38 41  1  0  0  0  0
 39 48  1  0  0  0  0
 40 63  1  0  0  0  0
 41 43  1  0  0  0  0
 42 44  1  0  0  0  0
 42 45  1  0  0  0  0
 43 47  1  0  0  0  0
 44 49  1  0  0  0  0
 45 64  1  0  0  0  0
 46 49  1  0  0  0  0
 46 64  1  0  0  0  0
 47 69  1  0  0  0  0
 48 63  1  0  0  0  0
 49 62  1  0  0  0  0
 50 58  1  0  0  0  0
 51 59  1  0  0  0  0
 52 60  1  0  0  0  0
 53 60  1  0  0  0  0
 54 60  1  0  0  0  0
 55 71  1  0  0  0  0
 56 59  1  0  0  0  0
 56 68  1  0  0  0  0
 57 60  1  0  0  0  0
 57 70  1  0  0  0  0
 58 71  1  0  0  0  0
 59 79  1  0  0  0  0
 61 62  1  0  0  0  0
M  CHG  1  71   1
M  ISO  4  37 100  59 101  67 100  79 101
M  END
> <Batch ID>
0091

> <Smiles>
CNC(C)C(=O)NC(C(=O)N1Cc2cc([101O:1][101CH:1](C)CNC(=O)c3ccc([100NH:0][100C:0](=O)N4CCCC(n5nc(-c6ccc(Oc7ccc(F)cc7F)cc6)c(C(N)=O)c5N)C4)s3)ccc2CC1C(=O)NC1CCCc2ccccc21)C(C)(C)C

> <Shape>
0.266

> <Color>
0.192

> <Negative vol penalty>
0.000

$$$$

  -OEChem-04052300313D

 86 95  0     1  0  0  0  0  0999 V2000
  -23.4865  -35.5276   15.5853 C   0  0  0  0  0  0  0  0  0  0  0  0
  -23.8987  -34.1989   15.5983 C   0  0  0  0  0  0  0  0  0  0  0  0
  -23.8187   -8.8113   20.1326 C   0  0  0  0  0  0  0  0  0  0  0  0
  -22.9789  -10.6254   21.4893 C   0  0  0  0  0  0  0  0  0  0  0  0
  -23.7856  -36.3596   16.6634 C   0  0  0  0  0  0  0  0  0  0  0  0
  -24.6111  -33.7018   16.6891 C   0  0  0  0  0  0  0  0  0  0  0  0
  -24.3043  -28.0460   19.0179 C   0  0  0  0  0  0  0  0  0  0  0  0
  -30.1663  -19.8348   20.6359 C   0  0  0  0  0  0  0  0  0  0  0  0
  -30.1245  -18.4409   20.6094 C   0  0  0  0  0  0  0  0  0  0  0  0
  -22.9193   -7.9378   20.7438 C   0  0  0  0  0  0  0  0  0  0  0  0
  -22.0794   -9.7519   22.1005 C   0  0  0  0  0  0  0  0  0  0  0  0
  -25.1106  -26.9201   18.8564 C   0  0  0  0  0  0  0  0  0  0  0  0
  -22.6837   -6.2434   23.6589 C   0  0  0  0  0  0  0  0  0  0  0  0
  -23.1649   -4.9991   24.0661 C   0  0  0  0  0  0  0  0  0  0  0  0
  -26.3014  -27.4906   20.8752 C   0  0  0  0  0  0  0  0  0  0  0  0
  -29.9896  -24.0604   19.7103 C   0  0  0  0  0  0  0  0  0  0  0  0
  -28.2481  -19.9203   19.1695 C   0  0  0  0  0  0  0  0  0  0  0  0
  -21.5743   -3.9079   22.6113 C   0  0  0  0  0  0  0  0  0  0  0  0
  -23.8485  -10.1551   20.5054 C   0  0  0  0  0  0  0  0  0  0  0  0
  -24.5626  -11.8259   18.7149 C   0  0  0  0  0  0  0  0  0  0  0  0
  -24.4936  -35.8698   17.7722 C   0  0  0  0  0  0  0  0  0  0  0  0
  -24.4981  -28.9101   20.1052 C   0  0  0  0  0  0  0  0  0  0  0  0
  -24.9210  -34.5284   17.7824 C   0  0  0  0  0  0  0  0  0  0  0  0
  -25.4946  -28.6254   21.0496 C   0  0  0  0  0  0  0  0  0  0  0  0
  -28.6820  -24.0911   20.2546 C   0  0  0  0  0  0  0  0  0  0  0  0
  -29.2280  -20.5745   19.9160 C   0  0  0  0  0  0  0  0  0  0  0  0
  -29.1446  -17.7866   19.8629 C   0  0  0  0  0  0  0  0  0  0  0  0
  -28.2063  -18.5263   19.1429 C   0  0  0  0  0  0  0  0  0  0  0  0
  -22.0496   -8.4081   21.7278 C   0  0  0  0  0  0  0  0  0  0  0  0
  -26.1112  -26.6438   19.7835 C   0  0  0  0  0  0  0  0  0  0  0  0
  -21.6477   -6.3200   22.7280 C   0  0  0  0  0  0  0  0  0  0  0  0
  -22.6102   -3.8314   23.5423 C   0  0  0  0  0  0  0  0  0  0  0  0
  -21.0930   -5.1522   22.2042 C   0  0  0  0  0  0  0  0  0  0  0  0
  -24.7778  -11.0578   19.8748 C   0  0  0  0  0  0  0  0  0  0  0  0
  -28.2613  -22.7863   20.3881 C   0  0  0  0  0  0  0  0  0  0  0  0
  -25.7402  -12.5089   18.5320 C   0  0  0  0  0  0  0  0  0  0  0  0
  -30.3281  -22.7377   19.5276 C   0  0  0  0  0  0  0  0  0  0  0  0
  -23.4021  -11.9142   17.8776 C   0  0  0  0  0  0  0  0  0  0  0  0
  -25.2921  -31.9714   20.4238 C   0  0  0  0  0  0  0  0  0  0  0  0
  -24.6922  -31.3975   23.5596 C   0  0  0  0  0  0  0  0  0  0  0  0
  -24.4734  -29.1287   26.0996 C   0  0  0  0  0  0  0  0  0  0  0  0
  -29.9916  -15.5063   20.5181 C   0  0  0  0  0  0  0  0  0  0  0  0
  -24.8345  -36.8196   18.8931 C   0  0  0  0  0  0  0  0  0  0  0  0
  -23.6025  -30.1058   20.2798 C   0  0  0  0  0  0  0  0  0  0  0  0
  -25.7300  -29.5104   22.2454 C   0  0  0  0  0  0  0  0  0  0  0  0
  -25.2679  -36.1163   20.1768 C   0  0  0  0  0  0  0  0  0  0  0  0
  -30.2463  -11.9640   20.7724 C   0  0  0  0  0  0  0  0  0  0  0  0
  -26.2825  -35.0198   19.8683 C   0  0  0  0  0  0  0  0  0  0  0  0
  -28.8286  -11.4757   20.4661 C   0  0  0  0  0  0  0  0  0  0  0  0
  -30.2375  -13.2678   21.5686 C   0  0  0  0  0  0  0  0  0  0  0  0
  -28.0204  -13.8613   20.6732 C   0  0  0  0  0  0  0  0  0  0  0  0
  -25.6743  -33.9456   18.9585 C   0  0  1  0  0  0  0  0  0  0  0  0
  -24.2250  -31.1974   21.1448 C   0  0  1  0  0  0  0  0  0  0  0  0
  -27.9784  -12.5852   19.8167 C   0  0  2  0  0  0  0  0  0  0  0  0
  -26.9793  -22.2555   20.9039 C   0  0  0  0  0  0  0  0  0  0  0  0
  -24.0013  -28.9641   28.5587 C   0  0  0  0  0  0  0  0  0  0  0  0
  -27.4710  -32.5031   24.1646 C   0  0  0  0  0  0  0  0  0  0  0  0
  -27.3178  -31.4550   26.4332 C   0  0  0  0  0  0  0  0  0  0  0  0
  -25.6902  -33.2237   25.7658 C   0  0  0  0  0  0  0  0  0  0  0  0
  -22.1311  -27.3764   25.6506 C   0  0  0  0  0  0  0  0  0  0  0  0
  -27.9057  -25.3234   20.6154 C   0  0  0  0  0  0  0  0  0  1  0  0
  -25.5112  -30.9220   24.7352 C   0  0  1  0  0  0  0  0  0  0  0  0
  -23.4100  -28.9021   27.1590 C   0  0  2  0  0  0  0  0  0  0  0  0
  -26.4946  -32.0101   25.2512 C   0  0  0  0  0  0  0  0  0  0  0  0
  -25.9963  -11.2356   20.3923 N   0  0  0  0  0  0  0  0  0  0  0  0
  -29.2699  -21.9723   19.9428 N   0  0  0  0  0  0  0  0  0  0  0  0
  -26.5574  -12.1232   19.5535 N   0  0  0  0  0  0  0  0  0  0  0  0
  -24.8325  -30.6709   22.3687 N   0  0  0  0  0  0  0  0  0  0  0  0
  -29.4160  -14.2732   20.8910 N   0  0  0  0  0  0  0  0  0  0  0  0
  -27.2050  -17.8836   18.3807 N   0  0  0  0  0  0  0  0  0  0  0  0
  -26.1459  -13.3958   17.5986 N   0  0  0  0  0  0  0  0  0  0  0  0
  -22.2786  -11.1449   18.2096 N   0  0  0  0  0  0  0  0  0  0  0  0
  -29.1230  -16.3698   19.8513 N   0  0  0  0  0  0  0  0  0  0  0  0
  -24.8180  -33.0628   19.7213 N   0  0  0  0  0  0  0  0  0  0  0  0
  -24.5571  -30.4560   25.7357 N   0  0  0  0  0  0  0  0  0  0  0  0
  -22.7734  -27.5670   26.9765 N   0  3  0  0  0  0  0  0  0  0  0  0
  -23.3683  -12.6410   16.8558 O   0  0  0  0  0  0  0  0  0  0  0  0
  -26.4594  -31.6063   20.5005 O   0  0  0  0  0  0  0  0  0  0  0  0
  -23.9497  -32.3732   23.6950 O   0  0  0  0  0  0  0  0  0  0  0  0
  -25.1636  -28.2198   25.6434 O   0  0  0  0  0  0  0  0  0  0  0  0
  -31.1757  -15.7655   20.7473 O   0  0  0  0  0  0  0  0  0  0  0  0
  -31.4394  -22.1917   19.0485 O   0  0  0  0  0  0  0  0  0  0  0  0
  -21.1716   -7.5560   22.3242 O   0  0  0  0  0  0  0  0  0  0  0  0
  -26.9000  -25.5458   19.6279 O   0  0  0  0  0  0  0  0  0  1  0  0
  -23.0735   -2.6366   23.9322 F   0  0  0  0  0  0  0  0  0  0  0  0
  -20.0984   -5.2195   21.3087 F   0  0  0  0  0  0  0  0  0  0  0  0
  1  2  1  0  0  0  0
  1  5  2  0  0  0  0
  2  6  2  0  0  0  0
  3 10  2  0  0  0  0
  3 19  1  0  0  0  0
  4 11  1  0  0  0  0
  4 19  2  0  0  0  0
  5 21  1  0  0  0  0
  6 23  1  0  0  0  0
  7 12  2  0  0  0  0
  7 22  1  0  0  0  0
  8  9  2  0  0  0  0
  8 26  1  0  0  0  0
  9 27  1  0  0  0  0
 10 29  1  0  0  0  0
 11 29  2  0  0  0  0
 12 30  1  0  0  0  0
 13 14  2  0  0  0  0
 13 31  1  0  0  0  0
 14 32  1  0  0  0  0
 15 24  1  0  0  0  0
 15 30  2  0  0  0  0
 16 25  1  0  0  0  0
 16 37  2  0  0  0  0
 17 26  2  0  0  0  0
 17 28  1  0  0  0  0
 18 32  2  0  0  0  0
 18 33  1  0  0  0  0
 19 34  1  0  0  0  0
 20 34  1  0  0  0  0
 20 36  2  0  0  0  0
 20 38  1  0  0  0  0
 21 23  2  0  0  0  0
 21 43  1  0  0  0  0
 22 24  2  0  0  0  0
 22 44  1  0  0  0  0
 23 52  1  0  0  0  0
 24 45  1  0  0  0  0
 25 35  2  0  0  0  0
 25 61  1  0  0  0  0
 26 66  1  0  0  0  0
 27 28  2  0  0  0  0
 27 73  1  0  0  0  0
 28 70  1  0  0  0  0
 29 83  1  0  0  0  0
 30 84  1  0  0  0  0
 31 33  2  0  0  0  0
 31 83  1  0  0  0  0
 32 85  1  0  0  0  0
 33 86  1  0  0  0  0
 34 65  2  0  0  0  0
 35 55  1  0  0  0  0
 35 66  1  0  0  0  0
 36 67  1  0  0  0  0
 36 71  1  0  0  0  0
 37 66  1  0  0  0  0
 37 82  1  0  0  0  0
 38 72  1  0  0  0  0
 38 77  2  0  0  0  0
 39 53  1  0  0  0  0
 39 74  1  0  0  0  0
 39 78  2  0  0  0  0
 40 62  1  0  0  0  0
 40 68  1  0  0  0  0
 40 79  2  0  0  0  0
 41 63  1  0  0  0  0
 41 75  1  0  0  0  0
 41 80  2  0  0  0  0
 42 69  1  0  0  0  0
 42 73  1  0  0  0  0
 42 81  2  0  0  0  0
 43 46  1  0  0  0  0
 44 53  1  0  0  0  0
 45 68  1  0  0  0  0
 46 48  1  0  0  0  0
 47 49  1  0  0  0  0
 47 50  1  0  0  0  0
 48 52  1  0  0  0  0
 49 54  1  0  0  0  0
 50 69  1  0  0  0  0
 51 54  1  0  0  0  0
 51 69  1  0  0  0  0
 52 74  1  0  0  0  0
 53 68  1  0  0  0  0
 54 67  1  0  0  0  0
 56 63  1  0  0  0  0
 57 64  1  0  0  0  0
 58 64  1  0  0  0  0
 59 64  1  0  0  0  0
 60 76  1  0  0  0  0
 61 84  1  0  0  0  0
 62 64  1  0  0  0  0
 62 75  1  0  0  0  0
 63 76  1  0  0  0  0
 65 67  1  0  0  0  0
M  CHG  1  76   1
M  ISO  4  42 100  61 101  73 100  84 101
M  END
> <Batch ID>
0091

> <Smiles>
CNC(C)C(=O)NC(C(=O)N1Cc2cc([101O:1][101CH2:1]C3=C(C)N(c4ccc([100NH:0][100C:0](=O)N5CCCC(n6nc(-c7ccc(Oc8ccc(F)cc8F)cc7)c(C(N)=O)c6N)C5)c(N)c4)C(=O)C3)ccc2CC1C(=O)NC1CCCc2ccccc21)C(C)(C)C

> <Shape>
0.314

> <Color>
0.107

> <Negative vol penalty>
0.000

$$$$

  -OEChem-04052300313D

 86 94  0     1  0  0  0  0  0999 V2000
  -30.1489  -23.0132   14.4633 C   0  0  0  0  0  0  0  0  0  0  0  0
  -29.3761  -22.6554   15.5634 C   0  0  0  0  0  0  0  0  0  0  0  0
  -27.7800  -21.3106   25.2181 C   0  0  0  0  0  0  0  0  0  0  0  0
  -30.0850  -22.0342   25.1995 C   0  0  0  0  0  0  0  0  0  0  0  0
  -30.8586  -24.2133   14.4721 C   0  0  0  0  0  0  0  0  0  0  0  0
  -29.3133  -23.4972   16.6734 C   0  0  0  0  0  0  0  0  0  0  0  0
  -24.5916  -24.0715   18.4114 C   0  0  0  0  0  0  0  0  0  0  0  0
  -27.6119  -21.8786   26.4809 C   0  0  0  0  0  0  0  0  0  0  0  0
  -29.9169  -22.6023   26.4623 C   0  0  0  0  0  0  0  0  0  0  0  0
  -24.0646  -23.0331   19.1781 C   0  0  0  0  0  0  0  0  0  0  0  0
  -26.4758  -23.4526   29.5545 C   0  0  0  0  0  0  0  0  0  0  0  0
  -25.3242  -24.2073   29.7781 C   0  0  0  0  0  0  0  0  0  0  0  0
  -24.4422  -13.3366   21.6320 C   0  0  0  0  0  0  0  0  0  0  0  0
  -25.1344  -15.6474   21.4988 C   0  0  0  0  0  0  0  0  0  0  0  0
  -24.5598  -24.2732   21.1871 C   0  0  0  0  0  0  0  0  0  0  0  0
  -22.8441  -15.1019   22.0407 C   0  0  0  0  0  0  0  0  0  0  0  0
  -25.9692  -25.7165   28.0051 C   0  0  0  0  0  0  0  0  0  0  0  0
  -29.0166  -21.3883   24.5774 C   0  0  0  0  0  0  0  0  0  0  0  0
  -25.4363  -14.2887   21.4069 C   0  0  0  0  0  0  0  0  0  0  0  0
  -28.9861  -21.4228   22.0268 C   0  0  0  0  0  0  0  0  0  0  0  0
  -30.7968  -25.0747   15.5788 C   0  0  0  0  0  0  0  0  0  0  0  0
  -25.1175  -25.2158   19.0283 C   0  0  0  0  0  0  0  0  0  0  0  0
  -30.0238  -24.7093   16.6974 C   0  0  0  0  0  0  0  0  0  0  0  0
  -25.0906  -25.3258   20.4259 C   0  0  0  0  0  0  0  0  0  0  0  0
  -23.1460  -13.7432   21.9488 C   0  0  0  0  0  0  0  0  0  0  0  0
  -23.8383  -16.0540   21.8157 C   0  0  0  0  0  0  0  0  0  0  0  0
  -28.6803  -22.5245   27.1030 C   0  0  0  0  0  0  0  0  0  0  0  0
  -24.0513  -23.1326   20.5662 C   0  0  0  0  0  0  0  0  0  0  0  0
  -27.3741  -23.8299   28.5563 C   0  0  0  0  0  0  0  0  0  0  0  0
  -25.0709  -25.3392   29.0034 C   0  0  0  0  0  0  0  0  0  0  0  0
  -27.1208  -24.9618   27.7816 C   0  0  0  0  0  0  0  0  0  0  0  0
  -29.1911  -20.8013   23.2732 C   0  0  0  0  0  0  0  0  0  0  0  0
  -29.2849  -20.4498   21.1046 C   0  0  0  0  0  0  0  0  0  0  0  0
  -24.1133  -20.8851   21.2108 C   0  0  0  0  0  0  0  0  0  1  0  0
  -26.8170  -13.8555   21.0708 C   0  0  0  0  0  0  0  0  0  0  0  0
  -28.5633  -22.7602   21.7293 C   0  0  0  0  0  0  0  0  0  0  0  0
  -23.6902  -19.8194   21.9013 C   0  0  0  0  0  0  0  0  0  0  0  0
  -24.3903  -18.5067   21.7144 C   0  0  0  0  0  0  0  0  0  0  0  0
  -27.9806  -26.5924   19.1330 C   0  0  0  0  0  0  0  0  0  0  0  0
  -26.3740  -28.9162   20.7271 C   0  0  0  0  0  0  0  0  0  0  0  0
  -23.6791  -29.7928   22.6286 C   0  0  0  0  0  0  0  0  0  0  0  0
  -29.1977  -14.5080   21.2433 C   0  0  0  0  0  0  0  0  0  0  0  0
  -31.6189  -26.3391   15.5613 C   0  0  0  0  0  0  0  0  0  0  0  0
  -25.6580  -26.3387   18.1860 C   0  0  0  0  0  0  0  0  0  0  0  0
  -25.6244  -26.5421   21.1360 C   0  0  0  0  0  0  0  0  0  0  0  0
  -31.2011  -27.3520   16.6243 C   0  0  0  0  0  0  0  0  0  0  0  0
  -31.9999  -16.5414   20.5291 C   0  0  0  0  0  0  0  0  0  0  0  0
  -31.0193  -26.6651   17.9741 C   0  0  0  0  0  0  0  0  0  0  0  0
  -31.5758  -17.9272   21.0232 C   0  0  0  0  0  0  0  0  0  0  0  0
  -31.4895  -15.4312   21.4465 C   0  0  0  0  0  0  0  0  0  0  0  0
  -29.6283  -16.8461   22.2158 C   0  0  0  0  0  0  0  0  0  0  0  0
  -29.9107  -25.6075   17.9101 C   0  0  1  0  0  0  0  0  0  0  0  0
  -26.6358  -27.2343   18.9405 C   0  0  1  0  0  0  0  0  0  0  0  0
  -30.0582  -17.9935   21.2876 C   0  0  1  0  0  0  0  0  0  0  0  0
  -22.6587  -31.7558   23.8130 C   0  0  0  0  0  0  0  0  0  0  0  0
  -28.4429  -28.6453   22.9534 C   0  0  0  0  0  0  0  0  0  0  0  0
  -26.8792  -29.8886   24.4626 C   0  0  0  0  0  0  0  0  0  0  0  0
  -27.7855  -30.9988   22.4208 C   0  0  0  0  0  0  0  0  0  0  0  0
  -21.2281  -29.6643   20.9748 C   0  0  0  0  0  0  0  0  0  0  0  0
  -26.0412  -29.1853   22.1748 C   0  0  1  0  0  0  0  0  0  0  0  0
  -22.7058  -30.9529   22.5223 C   0  0  2  0  0  0  0  0  0  0  0  0
  -27.2788  -29.6556   22.9899 C   0  0  0  0  0  0  0  0  0  0  0  0
  -29.5892  -19.5316   23.1569 N   0  0  0  0  0  0  0  0  0  0  0  0
  -29.6367  -19.3475   21.8266 N   0  0  0  0  0  0  0  0  0  0  0  0
  -26.1481  -27.6105   20.2689 N   0  0  0  0  0  0  0  0  0  0  0  0
  -30.0438  -15.5589   21.6385 N   0  0  0  0  0  0  0  0  0  0  0  0
  -22.1405  -12.7807   22.1760 N   0  0  0  0  0  0  0  0  0  0  0  0
  -29.2784  -20.4382   19.7547 N   0  0  0  0  0  0  0  0  0  0  0  0
  -28.2981  -23.6299   22.7958 N   0  0  0  0  0  0  0  0  0  0  0  0
  -23.5318  -17.4331   21.9081 N   0  0  0  0  0  0  0  0  0  0  0  0
  -27.8310  -14.7442   21.4289 N   0  0  0  0  0  0  0  0  0  0  0  0
  -28.6084  -26.2372   17.9544 N   0  0  0  0  0  0  0  0  0  0  0  0
  -24.9334  -30.1347   22.1693 N   0  0  0  0  0  0  0  0  0  0  0  0
  -21.3330  -30.4521   22.2299 N   0  3  0  0  0  0  0  0  0  0  0  0
  -26.9888  -12.7571   20.5494 O   0  0  0  0  0  0  0  0  0  0  0  0
  -28.4091  -23.1667   20.5526 O   0  0  0  0  0  0  0  0  0  0  0  0
  -25.5812  -18.4633   21.4252 O   0  0  0  0  0  0  0  0  0  0  0  0
  -28.4171  -26.4327   20.2669 O   0  0  0  0  0  0  0  0  0  0  0  0
  -26.8114  -29.8326   20.0267 O   0  0  0  0  0  0  0  0  0  0  0  0
  -23.3596  -28.6943   23.0780 O   0  0  0  0  0  0  0  0  0  0  0  0
  -29.6195  -13.4650   20.7339 O   0  0  0  0  0  0  0  0  0  0  0  0
  -22.6312  -19.8797   22.7843 O   0  0  0  0  0  0  0  0  0  0  0  0
  -28.5165  -23.0791   28.3351 O   0  0  0  0  0  0  0  0  0  0  0  0
  -23.5381  -22.1203   21.3170 O   0  0  0  0  0  0  0  0  0  1  0  0
  -23.9643  -26.0629   29.2171 F   0  0  0  0  0  0  0  0  0  0  0  0
  -27.9795  -25.3286   26.8204 F   0  0  0  0  0  0  0  0  0  0  0  0
  1  2  1  0  0  0  0
  1  5  2  0  0  0  0
  2  6  2  0  0  0  0
  3  8  2  0  0  0  0
  3 18  1  0  0  0  0
  4  9  1  0  0  0  0
  4 18  2  0  0  0  0
  5 21  1  0  0  0  0
  6 23  1  0  0  0  0
  7 10  2  0  0  0  0
  7 22  1  0  0  0  0
  8 27  1  0  0  0  0
  9 27  2  0  0  0  0
 10 28  1  0  0  0  0
 11 12  2  0  0  0  0
 11 29  1  0  0  0  0
 12 30  1  0  0  0  0
 13 19  2  0  0  0  0
 13 25  1  0  0  0  0
 14 19  1  0  0  0  0
 14 26  2  0  0  0  0
 15 24  1  0  0  0  0
 15 28  2  0  0  0  0
 16 25  2  0  0  0  0
 16 26  1  0  0  0  0
 17 30  2  0  0  0  0
 17 31  1  0  0  0  0
 18 32  1  0  0  0  0
 19 35  1  0  0  0  0
 20 32  1  0  0  0  0
 20 33  2  0  0  0  0
 20 36  1  0  0  0  0
 21 23  2  0  0  0  0
 21 43  1  0  0  0  0
 22 24  2  0  0  0  0
 22 44  1  0  0  0  0
 23 52  1  0  0  0  0
 24 45  1  0  0  0  0
 25 67  1  0  0  0  0
 26 70  1  0  0  0  0
 27 83  1  0  0  0  0
 28 84  1  0  0  0  0
 29 31  2  0  0  0  0
 29 83  1  0  0  0  0
 30 85  1  0  0  0  0
 31 86  1  0  0  0  0
 32 63  2  0  0  0  0
 33 64  1  0  0  0  0
 33 68  1  0  0  0  0
 34 37  2  0  0  0  0
 34 84  1  0  0  0  0
 35 71  1  0  0  0  0
 35 75  2  0  0  0  0
 36 69  1  0  0  0  0
 36 76  2  0  0  0  0
 37 38  1  0  0  0  0
 37 82  1  0  0  0  0
 38 70  1  0  0  0  0
 38 77  2  0  0  0  0
 39 53  1  0  0  0  0
 39 72  1  0  0  0  0
 39 78  2  0  0  0  0
 40 60  1  0  0  0  0
 40 65  1  0  0  0  0
 40 79  2  0  0  0  0
 41 61  1  0  0  0  0
 41 73  1  0  0  0  0
 41 80  2  0  0  0  0
 42 66  1  0  0  0  0
 42 71  1  0  0  0  0
 42 81  2  0  0  0  0
 43 46  1  0  0  0  0
 44 53  1  0  0  0  0
 45 65  1  0  0  0  0
 46 48  1  0  0  0  0
 47 49  1  0  0  0  0
 47 50  1  0  0  0  0
 48 52  1  0  0  0  0
 49 54  1  0  0  0  0
 50 66  1  0  0  0  0
 51 54  1  0  0  0  0
 51 66  1  0  0  0  0
 52 72  1  0  0  0  0
 53 65  1  0  0  0  0
 54 64  1  0  0  0  0
 55 61  1  0  0  0  0
 56 62  1  0  0  0  0
 57 62  1  0  0  0  0
 58 62  1  0  0  0  0
 59 74  1  0  0  0  0
 60 62  1  0  0  0  0
 60 73  1  0  0  0  0
 61 74  1  0  0  0  0
 63 64  1  0  0  0  0
M  CHG  1  74   1
M  ISO  4  34 101  42 100  71 100  84 101
M  END
> <Batch ID>
0091

> <Smiles>
CNC(C)C(=O)NC(C(=O)N1Cc2cc([101O:1][101CH2:1]C(=O)C(=O)Nc3cc(N)cc(C(=O)[100NH:0][100C:0](=O)N4CCCC(n5nc(-c6ccc(Oc7ccc(F)cc7F)cc6)c(C(N)=O)c5N)C4)c3)ccc2CC1C(=O)NC1CCCc2ccccc21)C(C)(C)C

> <Shape>
0.208

> <Color>
0.075

> <Negative vol penalty>
0.000

$$$$

  -OEChem-04052300313D

 89 98  0     1  0  0  0  0  0999 V2000
  -18.0180  -24.8183   25.1664 C   0  0  0  0  0  0  0  0  0  0  0  0
  -19.3381  -24.3823   25.2200 C   0  0  0  0  0  0  0  0  0  0  0  0
  -23.2973   -9.8212   19.9437 C   0  0  0  0  0  0  0  0  0  0  0  0
  -23.7253  -10.0686   22.3086 C   0  0  0  0  0  0  0  0  0  0  0  0
  -17.6718  -25.8897   24.3441 C   0  0  0  0  0  0  0  0  0  0  0  0
  -20.3125  -25.0168   24.4503 C   0  0  0  0  0  0  0  0  0  0  0  0
  -26.1753  -25.9374   25.9620 C   0  0  0  0  0  0  0  0  0  0  0  0
  -31.3601  -19.4030   21.4166 C   0  0  0  0  0  0  0  0  0  0  0  0
  -31.1955  -18.0180   21.4091 C   0  0  0  0  0  0  0  0  0  0  0  0
  -22.5865   -8.6477   20.1951 C   0  0  0  0  0  0  0  0  0  0  0  0
  -23.0144   -8.8951   22.5600 C   0  0  0  0  0  0  0  0  0  0  0  0
  -27.3463  -25.2542   25.6367 C   0  0  0  0  0  0  0  0  0  0  0  0
  -19.5086   -7.7880   21.2999 C   0  0  0  0  0  0  0  0  0  0  0  0
  -18.2872   -7.6177   20.6481 C   0  0  0  0  0  0  0  0  0  0  0  0
  -27.7525  -26.8164   23.8439 C   0  0  0  0  0  0  0  0  0  0  0  0
  -29.7931  -19.5795   23.2470 C   0  0  0  0  0  0  0  0  0  0  0  0
  -19.1275   -5.6107   19.5979 C   0  0  0  0  0  0  0  0  0  0  0  0
  -23.8668  -10.5316   21.0004 C   0  0  0  0  0  0  0  0  0  0  0  0
  -24.0907  -13.0546   20.6968 C   0  0  0  0  0  0  0  0  0  0  0  0
  -18.6442  -26.5438   23.5713 C   0  0  0  0  0  0  0  0  0  0  0  0
  -25.7778  -27.0606   25.2226 C   0  0  0  0  0  0  0  0  0  0  0  0
  -19.9787  -26.0970   23.6159 C   0  0  0  0  0  0  0  0  0  0  0  0
  -26.5774  -27.5136   24.1635 C   0  0  0  0  0  0  0  0  0  0  0  0
  -30.6590  -20.1838   22.3356 C   0  0  0  0  0  0  0  0  0  0  0  0
  -30.3296  -17.4137   22.3206 C   0  0  0  0  0  0  0  0  0  0  0  0
  -22.4450   -8.1847   21.5033 C   0  0  0  0  0  0  0  0  0  0  0  0
  -28.1336  -25.6919   24.5757 C   0  0  0  0  0  0  0  0  0  0  0  0
  -20.5395   -6.8697   21.1006 C   0  0  0  0  0  0  0  0  0  0  0  0
  -18.0966   -6.5291   19.7971 C   0  0  0  0  0  0  0  0  0  0  0  0
  -29.6283  -18.1944   23.2395 C   0  0  0  0  0  0  0  0  0  0  0  0
  -20.3489   -5.7811   20.2496 C   0  0  0  0  0  0  0  0  0  0  0  0
  -24.6017  -11.7436   20.7413 C   0  0  0  0  0  0  0  0  0  0  0  0
  -25.1828  -13.8395   20.4178 C   0  0  0  0  0  0  0  0  0  0  0  0
  -31.7082  -23.6742   22.1376 C   0  0  0  0  0  0  0  0  0  0  0  0
  -30.4526  -23.8207   22.5675 C   0  0  0  0  0  0  0  0  0  0  0  0
  -31.9740  -22.2289   21.9744 C   0  0  0  0  0  0  0  0  0  0  0  0
  -29.8575  -22.4757   22.7194 C   0  0  0  0  0  0  0  0  0  0  0  0
  -29.6958  -13.9378   23.4706 C   0  0  0  0  0  0  0  0  0  0  0  0
  -29.8561  -15.2629   23.4587 C   0  0  0  0  0  0  0  0  0  0  0  0
  -22.7489  -13.5212   20.8904 C   0  0  0  0  0  0  0  0  0  0  0  0
  -23.2598  -27.7853   23.4231 C   0  0  0  0  0  0  0  0  0  0  0  0
  -24.6518  -30.7141   23.3405 C   0  0  0  0  0  0  0  0  0  0  0  0
  -27.4969  -32.5785   23.6168 C   0  0  0  0  0  0  0  0  0  0  0  0
  -30.4686  -15.2592   21.1241 C   0  0  0  0  0  0  0  0  0  0  0  0
  -18.2137  -27.6670   22.6615 C   0  0  0  0  0  0  0  0  0  0  0  0
  -24.5258  -27.8024   25.6032 C   0  0  0  0  0  0  0  0  0  0  0  0
  -26.2053  -28.7261   23.3513 C   0  0  0  0  0  0  0  0  0  0  0  0
  -19.3733  -28.5252   22.1625 C   0  0  0  0  0  0  0  0  0  0  0  0
  -29.8523  -12.5988   18.9490 C   0  0  0  0  0  0  0  0  0  0  0  0
  -20.5192  -27.6435   21.6763 C   0  0  0  0  0  0  0  0  0  0  0  0
  -28.3918  -12.2353   19.2152 C   0  0  0  0  0  0  0  0  0  0  0  0
  -30.5762  -12.9404   20.2463 C   0  0  0  0  0  0  0  0  0  0  0  0
  -28.4663  -13.6887   21.3008 C   0  0  0  0  0  0  0  0  0  0  0  0
  -21.0687  -26.7755   22.8147 C   0  0  1  0  0  0  0  0  0  0  0  0
  -23.9495  -28.6289   24.4577 C   0  0  1  0  0  0  0  0  0  0  0  0
  -27.6847  -13.3416   20.0177 C   0  0  2  0  0  0  0  0  0  0  0  0
  -32.7473  -24.6882   21.8322 C   0  0  0  0  0  0  0  0  0  0  0  0
  -28.3263  -34.9418   23.4608 C   0  0  0  0  0  0  0  0  0  0  0  0
  -24.4878  -30.5681   20.2972 C   0  0  0  0  0  0  0  0  0  0  0  0
  -26.1416  -32.4447   20.1877 C   0  0  0  0  0  0  0  0  0  0  0  0
  -23.9211  -32.8028   21.2665 C   0  0  0  0  0  0  0  0  0  0  0  0
  -28.4071  -32.5677   26.4329 C   0  0  0  0  0  0  0  0  0  0  0  0
  -29.6788  -25.0476   22.8866 C   0  0  0  0  0  0  0  0  0  1  0  0
  -25.6588  -31.3943   22.4448 C   0  0  1  0  0  0  0  0  0  0  0  0
  -27.7941  -33.8553   24.3822 C   0  0  2  0  0  0  0  0  0  0  0  0
  -25.0586  -31.7784   21.0629 C   0  0  0  0  0  0  0  0  0  0  0  0
  -25.9161  -11.6943   20.5090 N   0  0  0  0  0  0  0  0  0  0  0  0
  -26.2403  -12.9842   20.3158 N   0  0  0  0  0  0  0  0  0  0  0  0
  -30.8225  -21.5646   22.3428 N   0  0  0  0  0  0  0  0  0  0  0  0
  -24.9688  -29.4138   23.7583 N   0  0  0  0  0  0  0  0  0  0  0  0
  -29.8712  -13.9910   20.9814 N   0  0  0  0  0  0  0  0  0  0  0  0
  -25.3321  -15.1709   20.2522 N   0  0  0  0  0  0  0  0  0  0  0  0
  -21.7481  -12.5804   21.1692 N   0  0  0  0  0  0  0  0  0  0  0  0
  -21.9213  -27.5598   23.6821 N   0  0  0  0  0  0  0  0  0  0  0  0
  -26.1824  -32.5248   23.2040 N   0  0  0  0  0  0  0  0  0  0  0  0
  -30.1603  -15.9752   22.3100 N   0  0  0  0  0  0  0  0  0  0  0  0
  -28.8097  -33.5992   25.4424 N   0  3  0  0  0  0  0  0  0  0  0  0
  -33.0344  -21.7660   21.5844 O   0  0  0  0  0  0  0  0  0  0  0  0
  -28.7187  -22.2695   23.1081 O   0  0  0  0  0  0  0  0  0  0  0  0
  -22.4434  -14.7346   20.8020 O   0  0  0  0  0  0  0  0  0  0  0  0
  -23.8947  -27.3709   22.4603 O   0  0  0  0  0  0  0  0  0  0  0  0
  -23.6253  -31.3170   23.6635 O   0  0  0  0  0  0  0  0  0  0  0  0
  -28.3468  -31.7168   23.4030 O   0  0  0  0  0  0  0  0  0  0  0  0
  -31.2388  -15.7160   20.2694 O   0  0  0  0  0  0  0  0  0  0  0  0
  -21.7512   -7.0398   21.7490 O   0  0  0  0  0  0  0  0  0  0  0  0
  -29.2767  -25.0265   24.2556 O   0  0  0  0  0  0  0  0  0  1  0  0
  -16.9231   -6.3648   19.1725 F   0  0  0  0  0  0  0  0  0  0  0  0
  -28.7922  -17.6246   24.1192 F   0  0  0  0  0  0  0  0  0  0  0  0
  -21.3351   -4.8949   20.0552 F   0  0  0  0  0  0  0  0  0  0  0  0
  1  2  1  0  0  0  0
  1  5  2  0  0  0  0
  2  6  2  0  0  0  0
  3 10  2  0  0  0  0
  3 18  1  0  0  0  0
  4 11  1  0  0  0  0
  4 18  2  0  0  0  0
  5 20  1  0  0  0  0
  6 22  1  0  0  0  0
  7 12  2  0  0  0  0
  7 21  1  0  0  0  0
  8  9  2  0  0  0  0
  8 24  1  0  0  0  0
  9 25  1  0  0  0  0
 10 26  1  0  0  0  0
 11 26  2  0  0  0  0
 12 27  1  0  0  0  0
 13 14  2  0  0  0  0
 13 28  1  0  0  0  0
 14 29  1  0  0  0  0
 15 23  1  0  0  0  0
 15 27  2  0  0  0  0
 16 24  2  0  0  0  0
 16 30  1  0  0  0  0
 17 29  2  0  0  0  0
 17 31  1  0  0  0  0
 18 32  1  0  0  0  0
 19 32  1  0  0  0  0
 19 33  2  0  0  0  0
 19 40  1  0  0  0  0
 20 22  2  0  0  0  0
 20 45  1  0  0  0  0
 21 23  2  0  0  0  0
 21 46  1  0  0  0  0
 22 54  1  0  0  0  0
 23 47  1  0  0  0  0
 24 69  1  0  0  0  0
 25 30  2  0  0  0  0
 25 76  1  0  0  0  0
 26 85  1  0  0  0  0
 27 86  1  0  0  0  0
 28 31  2  0  0  0  0
 28 85  1  0  0  0  0
 29 87  1  0  0  0  0
 30 88  1  0  0  0  0
 31 89  1  0  0  0  0
 32 67  2  0  0  0  0
 33 68  1  0  0  0  0
 33 72  1  0  0  0  0
 34 35  2  0  0  0  0
 34 36  1  0  0  0  0
 34 57  1  0  0  0  0
 35 37  1  0  0  0  0
 35 63  1  0  0  0  0
 36 69  1  0  0  0  0
 36 78  2  0  0  0  0
 37 69  1  0  0  0  0
 37 79  2  0  0  0  0
 38 39  2  0  0  0  0
 39 76  1  0  0  0  0
 40 73  1  0  0  0  0
 40 80  2  0  0  0  0
 41 55  1  0  0  0  0
 41 74  1  0  0  0  0
 41 81  2  0  0  0  0
 42 64  1  0  0  0  0
 42 70  1  0  0  0  0
 42 82  2  0  0  0  0
 43 65  1  0  0  0  0
 43 75  1  0  0  0  0
 43 83  2  0  0  0  0
 44 71  1  0  0  0  0
 44 76  1  0  0  0  0
 44 84  2  0  0  0  0
 45 48  1  0  0  0  0
 46 55  1  0  0  0  0
 47 70  1  0  0  0  0
 48 50  1  0  0  0  0
 49 51  1  0  0  0  0
 49 52  1  0  0  0  0
 50 54  1  0  0  0  0
 51 56  1  0  0  0  0
 52 71  1  0  0  0  0
 53 56  1  0  0  0  0
 53 71  1  0  0  0  0
 54 74  1  0  0  0  0
 55 70  1  0  0  0  0
 56 68  1  0  0  0  0
 58 65  1  0  0  0  0
 59 66  1  0  0  0  0
 60 66  1  0  0  0  0
 61 66  1  0  0  0  0
 62 77  1  0  0  0  0
 63 86  1  0  0  0  0
 64 66  1  0  0  0  0
 64 75  1  0  0  0  0
 65 77  1  0  0  0  0
 67 68  1  0  0  0  0
M  CHG  1  77   1
M  ISO  4  44 100  63 101  76 100  86 101
M  END
> <Batch ID>
0091

> <Smiles>
C=C[100N:0](c1ccc(N2C(=O)C(C)=C([101CH2:1][101O:1]c3ccc4c(c3)CN(C(=O)C(NC(=O)C(C)NC)C(C)(C)C)C(C(=O)NC3CCCc5ccccc53)C4)C2=O)cc1F)[100C:0](=O)N1CCCC(n2nc(-c3ccc(Oc4ccc(F)cc4F)cc3)c(C(N)=O)c2N)C1

> <Shape>
0.268

> <Color>
0.202

> <Negative vol penalty>
0.000

$$$$

  -OEChem-04052300313D

 85 93  0     1  0  0  0  0  0999 V2000
  -28.4107  -35.1440   26.4143 C   0  0  0  0  0  0  0  0  0  0  0  0
  -28.9094  -34.5080   25.2820 C   0  0  0  0  0  0  0  0  0  0  0  0
  -22.7077  -12.1346   18.4913 C   0  0  0  0  0  0  0  0  0  0  0  0
  -22.6118  -10.8183   20.5149 C   0  0  0  0  0  0  0  0  0  0  0  0
  -30.4128  -19.4513   19.3070 C   0  0  0  0  0  0  0  0  0  0  0  0
  -27.5037  -34.4826   27.2414 C   0  0  0  0  0  0  0  0  0  0  0  0
  -28.5022  -33.2097   24.9766 C   0  0  0  0  0  0  0  0  0  0  0  0
  -27.2092  -28.9366   19.3744 C   0  0  0  0  0  0  0  0  0  0  0  0
  -29.6762  -20.6356   19.3262 C   0  0  0  0  0  0  0  0  0  0  0  0
  -21.6510  -11.3951   17.9601 C   0  0  0  0  0  0  0  0  0  0  0  0
  -21.5550  -10.0788   19.9838 C   0  0  0  0  0  0  0  0  0  0  0  0
  -27.5512  -27.6800   18.8767 C   0  0  0  0  0  0  0  0  0  0  0  0
  -21.1459   -7.5454   17.7826 C   0  0  0  0  0  0  0  0  0  0  0  0
  -21.1901   -6.1584   17.9238 C   0  0  0  0  0  0  0  0  0  0  0  0
  -25.9193  -26.6650   20.3348 C   0  0  0  0  0  0  0  0  0  0  0  0
  -19.1151   -6.2180   19.1599 C   0  0  0  0  0  0  0  0  0  0  0  0
  -23.1881  -11.8462   19.7687 C   0  0  0  0  0  0  0  0  0  0  0  0
  -30.1419  -18.4463   20.2355 C   0  0  0  0  0  0  0  0  0  0  0  0
  -24.1934  -13.7890   21.0811 C   0  0  0  0  0  0  0  0  0  0  0  0
  -27.0778  -33.1792   26.9407 C   0  0  0  0  0  0  0  0  0  0  0  0
  -26.2256  -29.0660   20.3656 C   0  0  0  0  0  0  0  0  0  0  0  0
  -27.5897  -32.5299   25.8011 C   0  0  0  0  0  0  0  0  0  0  0  0
  -25.5648  -27.9246   20.8416 C   0  0  0  0  0  0  0  0  0  0  0  0
  -28.3977  -19.8098   21.2026 C   0  0  0  0  0  0  0  0  0  0  0  0
  -28.6686  -20.8149   20.2740 C   0  0  0  0  0  0  0  0  0  0  0  0
  -29.1344  -18.6255   21.1833 C   0  0  0  0  0  0  0  0  0  0  0  0
  -21.0746  -10.3672   18.7064 C   0  0  0  0  0  0  0  0  0  0  0  0
  -26.9083  -26.5437   19.3590 C   0  0  0  0  0  0  0  0  0  0  0  0
  -20.0863   -8.2687   18.3302 C   0  0  0  0  0  0  0  0  0  0  0  0
  -20.1748   -5.4947   18.6124 C   0  0  0  0  0  0  0  0  0  0  0  0
  -19.0709   -7.6050   19.0188 C   0  0  0  0  0  0  0  0  0  0  0  0
  -24.2800  -12.6094   20.3177 C   0  0  0  0  0  0  0  0  0  0  0  0
  -25.4986  -14.1161   21.3568 C   0  0  0  0  0  0  0  0  0  0  0  0
  -30.9450  -17.1976   20.1842 C   0  0  0  0  0  0  0  0  0  0  0  0
  -23.0367  -14.5233   21.5034 C   0  0  0  0  0  0  0  0  0  0  0  0
  -26.1823  -30.1445   23.3553 C   0  0  0  0  0  0  0  0  0  0  0  0
  -22.9873  -29.6615   23.0704 C   0  0  0  0  0  0  0  0  0  0  0  0
  -28.0888  -23.1102   19.4199 C   0  0  0  0  0  0  0  0  0  0  0  0
  -20.4332  -28.0158   21.5165 C   0  0  0  0  0  0  0  0  0  0  0  0
  -30.7893  -14.7521   19.8394 C   0  0  0  0  0  0  0  0  0  0  0  0
  -26.1322  -32.4874   27.8903 C   0  0  0  0  0  0  0  0  0  0  0  0
  -25.8493  -30.4311   20.8728 C   0  0  0  0  0  0  0  0  0  0  0  0
  -24.4877  -28.0115   21.8907 C   0  0  0  0  0  0  0  0  0  0  0  0
  -25.4643  -31.2518   27.2923 C   0  0  0  0  0  0  0  0  0  0  0  0
  -29.7701  -11.4765   20.6931 C   0  0  0  0  0  0  0  0  0  0  0  0
  -26.4948  -30.3775   26.5849 C   0  0  0  0  0  0  0  0  0  0  0  0
  -28.2430  -11.5749   20.7430 C   0  0  0  0  0  0  0  0  0  0  0  0
  -30.3570  -12.3262   19.5669 C   0  0  0  0  0  0  0  0  0  0  0  0
  -28.4052  -13.8252   19.6056 C   0  0  0  0  0  0  0  0  0  0  0  0
  -27.1531  -31.1312   25.4229 C   0  0  1  0  0  0  0  0  0  0  0  0
  -25.1955  -30.3973   22.2507 C   0  0  1  0  0  0  0  0  0  0  0  0
  -27.7712  -13.0427   20.7670 C   0  0  1  0  0  0  0  0  0  0  0  0
  -27.3172  -20.0050   22.2213 C   0  0  0  0  0  0  0  0  0  0  0  0
  -17.9327  -27.8034   21.5250 C   0  0  0  0  0  0  0  0  0  0  0  0
  -23.1410  -27.9819   25.6131 C   0  0  0  0  0  0  0  0  0  0  0  0
  -20.8897  -27.0443   25.0466 C   0  0  0  0  0  0  0  0  0  0  0  0
  -21.1490  -29.4878   25.4765 C   0  0  0  0  0  0  0  0  0  0  0  0
  -20.2287  -28.9451   18.7141 C   0  0  0  0  0  0  0  0  0  0  0  0
  -27.0991  -24.2079   19.7635 C   0  0  0  0  0  0  0  0  0  1  0  0
  -22.0537  -28.5040   23.3303 C   0  0  1  0  0  0  0  0  0  0  0  0
  -19.1312  -28.5145   20.9161 C   0  0  2  0  0  0  0  0  0  0  0  0
  -21.8300  -28.2523   24.8482 C   0  0  0  0  0  0  0  0  0  0  0  0
  -25.5405  -12.2140   20.1208 N   0  0  0  0  0  0  0  0  0  0  0  0
  -26.2580  -13.1504   20.7645 N   0  0  0  0  0  0  0  0  0  0  0  0
  -24.1597  -29.3680   22.3597 N   0  0  0  0  0  0  0  0  0  0  0  0
  -29.8695  -13.7031   19.6662 N   0  0  0  0  0  0  0  0  0  0  0  0
  -28.8570  -17.6048   22.1231 N   0  0  0  0  0  0  0  0  0  0  0  0
  -26.0593  -15.1328   22.0455 N   0  0  0  0  0  0  0  0  0  0  0  0
  -21.7714  -14.0476   21.1331 N   0  0  0  0  0  0  0  0  0  0  0  0
  -27.9348  -22.0248   20.2757 N   0  0  0  0  0  0  0  0  0  0  0  0
  -30.2216  -16.0248   19.9662 N   0  0  0  0  0  0  0  0  0  0  0  0
  -26.2676  -31.1689   24.2788 N   0  0  0  0  0  0  0  0  0  0  0  0
  -20.8321  -28.7897   22.5856 N   0  0  0  0  0  0  0  0  0  0  0  0
  -19.1172  -28.2826   19.4440 N   0  3  0  0  0  0  0  0  0  0  0  0
  -32.1662  -17.2671   20.2928 O   0  0  0  0  0  0  0  0  0  0  0  0
  -23.1232  -15.5793   22.1749 O   0  0  0  0  0  0  0  0  0  0  0  0
  -26.8180  -29.0970   23.3696 O   0  0  0  0  0  0  0  0  0  0  0  0
  -22.6840  -30.7861   23.4766 O   0  0  0  0  0  0  0  0  0  0  0  0
  -28.8889  -23.2319   18.4981 O   0  0  0  0  0  0  0  0  0  0  0  0
  -21.0341  -27.0352   21.0829 O   0  0  0  0  0  0  0  0  0  0  0  0
  -32.0082  -14.5676   19.9133 O   0  0  0  0  0  0  0  0  0  0  0  0
  -20.0434   -9.6456   18.1885 O   0  0  0  0  0  0  0  0  0  0  0  0
  -27.2407  -25.3159   18.8754 O   0  0  0  0  0  0  0  0  0  1  0  0
  -20.2166   -4.1626   18.7465 F   0  0  0  0  0  0  0  0  0  0  0  0
  -18.0498   -8.2944   19.5459 F   0  0  0  0  0  0  0  0  0  0  0  0
  1  2  1  0  0  0  0
  1  6  2  0  0  0  0
  2  7  2  0  0  0  0
  3 10  2  0  0  0  0
  3 17  1  0  0  0  0
  4 11  1  0  0  0  0
  4 17  2  0  0  0  0
  5  9  2  0  0  0  0
  5 18  1  0  0  0  0
  6 20  1  0  0  0  0
  7 22  1  0  0  0  0
  8 12  2  0  0  0  0
  8 21  1  0  0  0  0
  9 25  1  0  0  0  0
 10 27  1  0  0  0  0
 11 27  2  0  0  0  0
 12 28  1  0  0  0  0
 13 14  2  0  0  0  0
 13 29  1  0  0  0  0
 14 30  1  0  0  0  0
 15 23  1  0  0  0  0
 15 28  2  0  0  0  0
 16 30  2  0  0  0  0
 16 31  1  0  0  0  0
 17 32  1  0  0  0  0
 18 26  2  0  0  0  0
 18 34  1  0  0  0  0
 19 32  1  0  0  0  0
 19 33  2  0  0  0  0
 19 35  1  0  0  0  0
 20 22  2  0  0  0  0
 20 41  1  0  0  0  0
 21 23  2  0  0  0  0
 21 42  1  0  0  0  0
 22 50  1  0  0  0  0
 23 43  1  0  0  0  0
 24 25  2  0  0  0  0
 24 26  1  0  0  0  0
 24 53  1  0  0  0  0
 25 70  1  0  0  0  0
 26 67  1  0  0  0  0
 27 82  1  0  0  0  0
 28 83  1  0  0  0  0
 29 31  2  0  0  0  0
 29 82  1  0  0  0  0
 30 84  1  0  0  0  0
 31 85  1  0  0  0  0
 32 63  2  0  0  0  0
 33 64  1  0  0  0  0
 33 68  1  0  0  0  0
 34 71  1  0  0  0  0
 34 75  2  0  0  0  0
 35 69  1  0  0  0  0
 35 76  2  0  0  0  0
 36 51  1  0  0  0  0
 36 72  1  0  0  0  0
 36 77  2  0  0  0  0
 37 60  1  0  0  0  0
 37 65  1  0  0  0  0
 37 78  2  0  0  0  0
 38 59  1  0  0  0  0
 38 70  1  0  0  0  0
 38 79  2  0  0  0  0
 39 61  1  0  0  0  0
 39 73  1  0  0  0  0
 39 80  2  0  0  0  0
 40 66  1  0  0  0  0
 40 71  1  0  0  0  0
 40 81  2  0  0  0  0
 41 44  1  0  0  0  0
 42 51  1  0  0  0  0
 43 65  1  0  0  0  0
 44 46  1  0  0  0  0
 45 47  1  0  0  0  0
 45 48  1  0  0  0  0
 46 50  1  0  0  0  0
 47 52  1  0  0  0  0
 48 66  1  0  0  0  0
 49 52  1  0  0  0  0
 49 66  1  0  0  0  0
 50 72  1  0  0  0  0
 51 65  1  0  0  0  0
 52 64  1  0  0  0  0
 54 61  1  0  0  0  0
 55 62  1  0  0  0  0
 56 62  1  0  0  0  0
 57 62  1  0  0  0  0
 58 74  1  0  0  0  0
 59 83  1  0  0  0  0
 60 62  1  0  0  0  0
 60 73  1  0  0  0  0
 61 74  1  0  0  0  0
 63 64  1  0  0  0  0
M  CHG  1  74   1
M  ISO  4  40 100  59 101  71 100  83 101
M  END
> <Batch ID>
0091

> <Smiles>
CNC(C)C(=O)NC(C(=O)N1Cc2cc([101O:1][101CH2:1]C(=O)Nc3ccc(C(=O)[100NH:0][100C:0](=O)N4CCCC(n5nc(-c6ccc(Oc7ccc(F)cc7F)cc6)c(C(N)=O)c5N)C4)c(N)c3C)ccc2CC1C(=O)NC1CCCc2ccccc21)C(C)(C)C

> <Shape>
0.309

> <Color>
0.102

> <Negative vol penalty>
0.000

$$$$

  -OEChem-04052300313D

 84 92  0     1  0  0  0  0  0999 V2000
  -32.1497  -17.7261   28.0761 C   0  0  0  0  0  0  0  0  0  0  0  0
  -30.9502  -18.4076   27.8968 C   0  0  0  0  0  0  0  0  0  0  0  0
  -28.4382  -26.3135   20.2101 C   0  0  0  0  0  0  0  0  0  0  0  0
  -26.6213  -25.7509   18.7203 C   0  0  0  0  0  0  0  0  0  0  0  0
  -32.6606  -16.9343   27.0484 C   0  0  0  0  0  0  0  0  0  0  0  0
  -30.2614  -18.2987   26.6893 C   0  0  0  0  0  0  0  0  0  0  0  0
  -24.1878  -18.2877   25.9036 C   0  0  0  0  0  0  0  0  0  0  0  0
  -21.3240  -25.1098   21.1321 C   0  0  0  0  0  0  0  0  0  0  0  0
  -20.7923  -26.3988   21.1705 C   0  0  0  0  0  0  0  0  0  0  0  0
  -29.0415  -25.0857   19.9380 C   0  0  0  0  0  0  0  0  0  0  0  0
  -27.2246  -24.5231   18.4482 C   0  0  0  0  0  0  0  0  0  0  0  0
  -23.2881  -19.2863   25.5334 C   0  0  0  0  0  0  0  0  0  0  0  0
  -28.6681  -21.8630   20.8862 C   0  0  0  0  0  0  0  0  0  0  0  0
  -29.1696  -21.1349   21.9651 C   0  0  0  0  0  0  0  0  0  0  0  0
  -23.4029  -18.5328   23.2447 C   0  0  0  0  0  0  0  0  0  0  0  0
  -31.3803  -21.2190   20.9941 C   0  0  0  0  0  0  0  0  0  0  0  0
  -27.2281  -26.6461   19.6013 C   0  0  0  0  0  0  0  0  0  0  0  0
  -26.7940  -29.1265   19.1926 C   0  0  0  0  0  0  0  0  0  0  0  0
  -31.9728  -16.8079   25.8312 C   0  0  0  0  0  0  0  0  0  0  0  0
  -24.7111  -17.4096   24.9437 C   0  0  0  0  0  0  0  0  0  0  0  0
  -30.7642  -17.5055   25.6439 C   0  0  0  0  0  0  0  0  0  0  0  0
  -24.3071  -17.5223   23.6057 C   0  0  0  0  0  0  0  0  0  0  0  0
  -21.9651  -24.5860   22.2547 C   0  0  0  0  0  0  0  0  0  0  0  0
  -20.9018  -27.1640   22.3316 C   0  0  0  0  0  0  0  0  0  0  0  0
  -22.0746  -25.3513   23.4158 C   0  0  0  0  0  0  0  0  0  0  0  0
  -28.4348  -24.1905   19.0571 C   0  0  0  0  0  0  0  0  0  0  0  0
  -22.8977  -19.4108   24.2033 C   0  0  0  0  0  0  0  0  0  0  0  0
  -29.5226  -22.2690   19.8612 C   0  0  0  0  0  0  0  0  0  0  0  0
  -30.5257  -20.8130   22.0191 C   0  0  0  0  0  0  0  0  0  0  0  0
  -30.8788  -21.9470   19.9152 C   0  0  0  0  0  0  0  0  0  0  0  0
  -21.5430  -26.6403   23.4543 C   0  0  0  0  0  0  0  0  0  0  0  0
  -26.6041  -27.9141   19.8824 C   0  0  0  0  0  0  0  0  0  0  0  0
  -25.9817  -30.0227   19.8434 C   0  0  0  0  0  0  0  0  0  0  0  0
  -18.7159  -30.0869   21.6353 C   0  0  0  0  0  0  0  0  0  0  0  0
  -19.2414  -28.8600   21.6160 C   0  0  0  0  0  0  0  0  0  0  0  0
  -21.6908  -22.3356   22.5479 C   0  0  0  0  0  0  0  0  0  0  0  0
  -27.6298  -29.4166   18.0644 C   0  0  0  0  0  0  0  0  0  0  0  0
  -27.6231  -16.7638   23.8450 C   0  0  0  0  0  0  0  0  0  0  0  0
  -26.0694  -14.4199   22.2281 C   0  0  0  0  0  0  0  0  0  0  0  0
  -23.1454  -13.2641   20.9009 C   0  0  0  0  0  0  0  0  0  0  0  0
  -21.0526  -29.5141   23.0711 C   0  0  0  0  0  0  0  0  0  0  0  0
  -32.5882  -15.9781   24.7324 C   0  0  0  0  0  0  0  0  0  0  0  0
  -25.6601  -16.3208   25.3637 C   0  0  0  0  0  0  0  0  0  0  0  0
  -24.8241  -16.5919   22.5402 C   0  0  0  0  0  0  0  0  0  0  0  0
  -31.6076  -15.6173   23.6196 C   0  0  0  0  0  0  0  0  0  0  0  0
  -24.0650  -30.9318   24.1219 C   0  0  0  0  0  0  0  0  0  0  0  0
  -30.8090  -16.8449   23.1929 C   0  0  0  0  0  0  0  0  0  0  0  0
  -25.0838  -30.4360   23.0962 C   0  0  0  0  0  0  0  0  0  0  0  0
  -23.0705  -29.8335   24.4801 C   0  0  0  0  0  0  0  0  0  0  0  0
  -23.3546  -28.7663   22.2656 C   0  0  0  0  0  0  0  0  0  0  0  0
  -29.9752  -17.3927   24.3575 C   0  0  1  0  0  0  0  0  0  0  0  0
  -26.5256  -15.8074   24.2171 C   0  0  1  0  0  0  0  0  0  0  0  0
  -24.3813  -29.8436   21.8619 C   0  0  2  0  0  0  0  0  0  0  0  0
  -22.1964  -11.3355   19.6059 C   0  0  0  0  0  0  0  0  0  0  0  0
  -27.3354  -15.5136   19.6764 C   0  0  0  0  0  0  0  0  0  0  0  0
  -25.6540  -14.2030   18.3635 C   0  0  0  0  0  0  0  0  0  0  0  0
  -27.2871  -13.0179   19.8302 C   0  0  0  0  0  0  0  0  0  0  0  0
  -21.2853  -12.5577   23.0918 C   0  0  0  0  0  0  0  0  0  0  0  0
  -22.1398  -20.9054   22.5157 C   0  0  0  0  0  0  0  0  0  1  0  0
  -25.3913  -14.3176   20.8831 C   0  0  1  0  0  0  0  0  0  0  0  0
  -22.4656  -11.9096   20.9881 C   0  0  2  0  0  0  0  0  0  0  0  0
  -26.4085  -14.2820   19.7078 C   0  0  0  0  0  0  0  0  0  0  0  0
  -25.7391  -28.0264   20.8940 N   0  0  0  0  0  0  0  0  0  0  0  0
  -22.4933  -23.2854   22.1937 N   0  0  0  0  0  0  0  0  0  0  0  0
  -25.3784  -29.3200   20.8447 N   0  0  0  0  0  0  0  0  0  0  0  0
  -25.7547  -15.5476   22.9996 N   0  0  0  0  0  0  0  0  0  0  0  0
  -22.4284  -29.2935   23.2812 N   0  0  0  0  0  0  0  0  0  0  0  0
  -22.7208  -24.8360   24.5613 N   0  0  0  0  0  0  0  0  0  0  0  0
  -25.7319  -31.3353   19.6512 N   0  0  0  0  0  0  0  0  0  0  0  0
  -28.3992  -28.3800   17.5187 N   0  0  0  0  0  0  0  0  0  0  0  0
  -28.7930  -16.5824   24.5577 N   0  0  0  0  0  0  0  0  0  0  0  0
  -24.5186  -13.1507   20.9537 N   0  0  0  0  0  0  0  0  0  0  0  0
  -20.3486  -28.5021   22.3681 N   0  0  0  0  0  0  0  0  0  0  0  0
  -21.1667  -12.0274   21.7092 N   0  3  0  0  0  0  0  0  0  0  0  0
  -27.7050  -30.5651   17.5655 O   0  0  0  0  0  0  0  0  0  0  0  0
  -27.4238  -17.6031   22.9747 O   0  0  0  0  0  0  0  0  0  0  0  0
  -26.8441  -13.5284   22.5841 O   0  0  0  0  0  0  0  0  0  0  0  0
  -22.5209  -14.3171   20.7928 O   0  0  0  0  0  0  0  0  0  0  0  0
  -20.4834  -30.5279   23.4961 O   0  0  0  0  0  0  0  0  0  0  0  0
  -29.0233  -22.9924   18.7911 O   0  0  0  0  0  0  0  0  0  0  0  0
  -22.0202  -20.3851   23.8391 O   0  0  0  0  0  0  0  0  0  1  0  0
  -31.0075  -20.1152   23.0560 F   0  0  0  0  0  0  0  0  0  0  0  0
  -31.7048  -22.3353   18.9341 F   0  0  0  0  0  0  0  0  0  0  0  0
  -21.6483  -27.3766   24.5713 F   0  0  0  0  0  0  0  0  0  0  0  0
  1  2  1  0  0  0  0
  1  5  2  0  0  0  0
  2  6  2  0  0  0  0
  3 10  2  0  0  0  0
  3 17  1  0  0  0  0
  4 11  1  0  0  0  0
  4 17  2  0  0  0  0
  5 19  1  0  0  0  0
  6 21  1  0  0  0  0
  7 12  2  0  0  0  0
  7 20  1  0  0  0  0
  8  9  2  0  0  0  0
  8 23  1  0  0  0  0
  9 24  1  0  0  0  0
 10 26  1  0  0  0  0
 11 26  2  0  0  0  0
 12 27  1  0  0  0  0
 13 14  2  0  0  0  0
 13 28  1  0  0  0  0
 14 29  1  0  0  0  0
 15 22  1  0  0  0  0
 15 27  2  0  0  0  0
 16 29  2  0  0  0  0
 16 30  1  0  0  0  0
 17 32  1  0  0  0  0
 18 32  1  0  0  0  0
 18 33  2  0  0  0  0
 18 37  1  0  0  0  0
 19 21  2  0  0  0  0
 19 42  1  0  0  0  0
 20 22  2  0  0  0  0
 20 43  1  0  0  0  0
 21 51  1  0  0  0  0
 22 44  1  0  0  0  0
 23 25  2  0  0  0  0
 23 64  1  0  0  0  0
 24 31  2  0  0  0  0
 24 73  1  0  0  0  0
 25 31  1  0  0  0  0
 25 68  1  0  0  0  0
 26 80  1  0  0  0  0
 27 81  1  0  0  0  0
 28 30  2  0  0  0  0
 28 80  1  0  0  0  0
 29 82  1  0  0  0  0
 30 83  1  0  0  0  0
 31 84  1  0  0  0  0
 32 63  2  0  0  0  0
 33 65  1  0  0  0  0
 33 69  1  0  0  0  0
 34 35  2  0  0  0  0
 35 73  1  0  0  0  0
 36 59  1  0  0  0  0
 36 64  2  0  0  0  0
 37 70  1  0  0  0  0
 37 75  2  0  0  0  0
 38 52  1  0  0  0  0
 38 71  1  0  0  0  0
 38 76  2  0  0  0  0
 39 60  1  0  0  0  0
 39 66  1  0  0  0  0
 39 77  2  0  0  0  0
 40 61  1  0  0  0  0
 40 72  1  0  0  0  0
 40 78  2  0  0  0  0
 41 67  1  0  0  0  0
 41 73  1  0  0  0  0
 41 79  2  0  0  0  0
 42 45  1  0  0  0  0
 43 52  1  0  0  0  0
 44 66  1  0  0  0  0
 45 47  1  0  0  0  0
 46 48  1  0  0  0  0
 46 49  1  0  0  0  0
 47 51  1  0  0  0  0
 48 53  1  0  0  0  0
 49 67  1  0  0  0  0
 50 53  1  0  0  0  0
 50 67  1  0  0  0  0
 51 71  1  0  0  0  0
 52 66  1  0  0  0  0
 53 65  1  0  0  0  0
 54 61  1  0  0  0  0
 55 62  1  0  0  0  0
 56 62  1  0  0  0  0
 57 62  1  0  0  0  0
 58 74  1  0  0  0  0
 59 81  1  0  0  0  0
 60 62  1  0  0  0  0
 60 72  1  0  0  0  0
 61 74  1  0  0  0  0
 63 65  1  0  0  0  0
M  CHG  1  74   1
M  ISO  4  41 100  59 101  73 100  81 101
M  END
> <Batch ID>
0091

> <Smiles>
C=C[100N:0](c1ccc(NC=[101CH:1][101O:1]c2ccc3c(c2)CN(C(=O)C(NC(=O)C(C)NC)C(C)(C)C)C(C(=O)NC2CCCc4ccccc42)C3)c(N)c1F)[100C:0](=O)N1CCCC(n2nc(-c3ccc(Oc4ccc(F)cc4F)cc3)c(C(N)=O)c2N)C1

> <Shape>
0.202

> <Color>
0.053

> <Negative vol penalty>
0.000

$$$$

  -OEChem-04052300313D

 87 96  0     1  0  0  0  0  0999 V2000
  -21.8262  -28.3812   22.9710 C   0  0  0  0  0  0  0  0  0  0  0  0
  -22.7460  -28.1712   23.9934 C   0  0  0  0  0  0  0  0  0  0  0  0
  -22.8565  -10.0802   20.0698 C   0  0  0  0  0  0  0  0  0  0  0  0
  -24.2818   -9.5123   21.9361 C   0  0  0  0  0  0  0  0  0  0  0  0
  -20.8070  -27.4556   22.7508 C   0  0  0  0  0  0  0  0  0  0  0  0
  -22.6464  -27.0359   24.7970 C   0  0  0  0  0  0  0  0  0  0  0  0
  -27.9231  -21.4635   26.2570 C   0  0  0  0  0  0  0  0  0  0  0  0
  -22.1541   -8.8877   20.2433 C   0  0  0  0  0  0  0  0  0  0  0  0
  -23.5794   -8.3197   22.1096 C   0  0  0  0  0  0  0  0  0  0  0  0
  -28.7173  -20.3359   26.4666 C   0  0  0  0  0  0  0  0  0  0  0  0
  -20.6479   -7.3329   23.4710 C   0  0  0  0  0  0  0  0  0  0  0  0
  -20.2855   -6.9792   24.7707 C   0  0  0  0  0  0  0  0  0  0  0  0
  -33.0357  -13.6235   26.0701 C   0  0  0  0  0  0  0  0  0  0  0  0
  -26.7381  -18.9993   26.8465 C   0  0  0  0  0  0  0  0  0  0  0  0
  -32.8182  -13.5278   23.6659 C   0  0  0  0  0  0  0  0  0  0  0  0
  -21.5685   -4.9415   24.5739 C   0  0  0  0  0  0  0  0  0  0  0  0
  -23.9204  -10.3925   20.9162 C   0  0  0  0  0  0  0  0  0  0  0  0
  -31.6993  -13.2475   26.2060 C   0  0  0  0  0  0  0  0  0  0  0  0
  -24.1311  -12.9323   20.8031 C   0  0  0  0  0  0  0  0  0  0  0  0
  -20.7007  -26.3036   23.5458 C   0  0  0  0  0  0  0  0  0  0  0  0
  -26.5310  -21.3599   26.3263 C   0  0  0  0  0  0  0  0  0  0  0  0
  -21.6241  -26.0947   24.5880 C   0  0  0  0  0  0  0  0  0  0  0  0
  -25.9370  -20.1227   26.6252 C   0  0  0  0  0  0  0  0  0  0  0  0
  -33.5951  -13.7637   24.8001 C   0  0  0  0  0  0  0  0  0  0  0  0
  -31.4818  -13.1518   23.8017 C   0  0  0  0  0  0  0  0  0  0  0  0
  -22.5155   -8.0075   21.2632 C   0  0  0  0  0  0  0  0  0  0  0  0
  -28.1262  -19.1069   26.7608 C   0  0  0  0  0  0  0  0  0  0  0  0
  -21.4706   -6.4909   22.7228 C   0  0  0  0  0  0  0  0  0  0  0  0
  -20.7457   -5.7836   25.3222 C   0  0  0  0  0  0  0  0  0  0  0  0
  -21.9309   -5.2952   23.2742 C   0  0  0  0  0  0  0  0  0  0  0  0
  -30.9224  -13.0117   25.0718 C   0  0  0  0  0  0  0  0  0  0  0  0
  -24.6467  -11.6240   20.7372 C   0  0  0  0  0  0  0  0  0  0  0  0
  -25.2154  -13.7410   20.5648 C   0  0  0  0  0  0  0  0  0  0  0  0
  -29.5519  -16.2933   28.4752 C   0  0  0  0  0  0  0  0  0  0  0  0
  -28.8324  -17.3780   28.1697 C   0  0  0  0  0  0  0  0  0  1  0  0
  -31.1135  -13.1005   27.5469 C   0  0  0  0  0  0  0  0  0  0  0  0
  -22.7919  -13.3768   21.0570 C   0  0  0  0  0  0  0  0  0  0  0  0
  -23.2170  -23.0960   26.0451 C   0  0  0  0  0  0  0  0  0  0  0  0
  -22.8984  -20.3475   24.7203 C   0  0  0  0  0  0  0  0  0  0  0  0
  -21.9778  -17.6999   22.7761 C   0  0  0  0  0  0  0  0  0  0  0  0
  -31.0979  -13.0084   21.3161 C   0  0  0  0  0  0  0  0  0  0  0  0
  -19.5539  -25.3553   23.3002 C   0  0  0  0  0  0  0  0  0  0  0  0
  -25.6389  -22.5611   26.1684 C   0  0  0  0  0  0  0  0  0  0  0  0
  -24.4370  -20.0658   26.7238 C   0  0  0  0  0  0  0  0  0  0  0  0
  -29.5048  -15.5671   29.7855 C   0  0  0  0  0  0  0  0  0  0  0  0
  -30.4343  -15.5532   27.5188 C   0  0  0  0  0  0  0  0  0  0  0  0
  -19.7417  -23.9896   23.9557 C   0  0  0  0  0  0  0  0  0  0  0  0
  -29.4206  -13.7880   18.2738 C   0  0  0  0  0  0  0  0  0  0  0  0
  -20.2080  -24.1499   25.3992 C   0  0  0  0  0  0  0  0  0  0  0  0
  -27.9581  -13.4464   18.5682 C   0  0  0  0  0  0  0  0  0  0  0  0
  -29.7929  -14.1354   29.3692 C   0  0  0  0  0  0  0  0  0  0  0  0
  -30.3788  -12.8064   18.9460 C   0  0  0  0  0  0  0  0  0  0  0  0
  -28.7115  -12.2870   20.6837 C   0  0  0  0  0  0  0  0  0  0  0  0
  -21.5640  -24.8629   25.4650 C   0  0  1  0  0  0  0  0  0  0  0  0
  -24.3047  -22.2347   25.4736 C   0  0  1  0  0  0  0  0  0  0  0  0
  -27.7104  -13.2861   20.0810 C   0  0  2  0  0  0  0  0  0  0  0  0
  -19.9597  -16.3974   22.0492 C   0  0  0  0  0  0  0  0  0  0  0  0
  -22.8050  -18.9790   27.4447 C   0  0  0  0  0  0  0  0  0  0  0  0
  -21.4972  -17.1235   26.3887 C   0  0  0  0  0  0  0  0  0  0  0  0
  -20.5657  -19.4372   26.4297 C   0  0  0  0  0  0  0  0  0  0  0  0
  -22.4276  -18.3694   19.9286 C   0  0  0  0  0  0  0  0  0  0  0  0
  -22.4932  -18.9044   24.8828 C   0  0  1  0  0  0  0  0  0  0  0  0
  -20.8945  -17.5518   21.7230 C   0  0  2  0  0  0  0  0  0  0  0  0
  -21.8659  -18.6182   26.2764 C   0  0  0  0  0  0  0  0  0  0  0  0
  -25.9566  -11.5984   20.4773 N   0  0  0  0  0  0  0  0  0  0  0  0
  -26.2733  -12.9007   20.3777 N   0  0  0  0  0  0  0  0  0  0  0  0
  -30.5237  -14.2222   28.1132 N   0  0  0  0  0  0  0  0  0  0  0  0
  -23.8319  -20.8493   25.6353 N   0  0  0  0  0  0  0  0  0  0  0  0
  -30.0873  -12.7094   20.3780 N   0  0  0  0  0  0  0  0  0  0  0  0
  -34.9464  -14.1445   24.6630 N   0  0  0  0  0  0  0  0  0  0  0  0
  -25.3576  -15.0819   20.4992 N   0  0  0  0  0  0  0  0  0  0  0  0
  -21.9275  -13.5500   19.9674 N   0  0  0  0  0  0  0  0  0  0  0  0
  -30.6951  -12.9131   22.6477 N   0  0  0  0  0  0  0  0  0  0  0  0
  -22.6331  -23.9478   25.1270 N   0  0  0  0  0  0  0  0  0  0  0  0
  -21.6159  -18.5976   23.7582 N   0  0  0  0  0  0  0  0  0  0  0  0
  -21.5029  -17.3004   20.3860 N   0  3  0  0  0  0  0  0  0  0  0  0
  -31.1748  -11.9900   28.0706 O   0  0  0  0  0  0  0  0  0  0  0  0
  -22.3790  -13.6291   22.2143 O   0  0  0  0  0  0  0  0  0  0  0  0
  -22.9268  -22.9950   27.2314 O   0  0  0  0  0  0  0  0  0  0  0  0
  -22.3981  -21.0158   23.8112 O   0  0  0  0  0  0  0  0  0  0  0  0
  -23.0373  -17.0785   22.7339 O   0  0  0  0  0  0  0  0  0  0  0  0
  -32.2292  -13.3519   20.9638 O   0  0  0  0  0  0  0  0  0  0  0  0
  -21.8302   -6.8438   21.4329 O   0  0  0  0  0  0  0  0  0  0  0  0
  -28.9073  -18.0092   26.9598 O   0  0  0  0  0  0  0  0  0  1  0  0
  -20.3989   -5.4448   26.5708 F   0  0  0  0  0  0  0  0  0  0  0  0
  -22.7224   -4.4827   22.5607 F   0  0  0  0  0  0  0  0  0  0  0  0
  -29.6369  -12.6500   25.2028 F   0  0  0  0  0  0  0  0  0  0  0  0
  1  2  1  0  0  0  0
  1  5  2  0  0  0  0
  2  6  2  0  0  0  0
  3  8  2  0  0  0  0
  3 17  1  0  0  0  0
  4  9  1  0  0  0  0
  4 17  2  0  0  0  0
  5 20  1  0  0  0  0
  6 22  1  0  0  0  0
  7 10  2  0  0  0  0
  7 21  1  0  0  0  0
  8 26  1  0  0  0  0
  9 26  2  0  0  0  0
 10 27  1  0  0  0  0
 11 12  2  0  0  0  0
 11 28  1  0  0  0  0
 12 29  1  0  0  0  0
 13 18  1  0  0  0  0
 13 24  2  0  0  0  0
 14 23  1  0  0  0  0
 14 27  2  0  0  0  0
 15 24  1  0  0  0  0
 15 25  2  0  0  0  0
 16 29  2  0  0  0  0
 16 30  1  0  0  0  0
 17 32  1  0  0  0  0
 18 31  2  0  0  0  0
 18 36  1  0  0  0  0
 19 32  1  0  0  0  0
 19 33  2  0  0  0  0
 19 37  1  0  0  0  0
 20 22  2  0  0  0  0
 20 42  1  0  0  0  0
 21 23  2  0  0  0  0
 21 43  1  0  0  0  0
 22 54  1  0  0  0  0
 23 44  1  0  0  0  0
 24 70  1  0  0  0  0
 25 31  1  0  0  0  0
 25 73  1  0  0  0  0
 26 83  1  0  0  0  0
 27 84  1  0  0  0  0
 28 30  2  0  0  0  0
 28 83  1  0  0  0  0
 29 85  1  0  0  0  0
 30 86  1  0  0  0  0
 31 87  1  0  0  0  0
 32 65  2  0  0  0  0
 33 66  1  0  0  0  0
 33 71  1  0  0  0  0
 34 35  2  0  0  0  0
 34 45  1  0  0  0  0
 34 46  1  0  0  0  0
 35 84  1  0  0  0  0
 36 67  1  0  0  0  0
 36 77  2  0  0  0  0
 37 72  1  0  0  0  0
 37 78  2  0  0  0  0
 38 55  1  0  0  0  0
 38 74  1  0  0  0  0
 38 79  2  0  0  0  0
 39 62  1  0  0  0  0
 39 68  1  0  0  0  0
 39 80  2  0  0  0  0
 40 63  1  0  0  0  0
 40 75  1  0  0  0  0
 40 81  2  0  0  0  0
 41 69  1  0  0  0  0
 41 73  1  0  0  0  0
 41 82  2  0  0  0  0
 42 47  1  0  0  0  0
 43 55  1  0  0  0  0
 44 68  1  0  0  0  0
 45 51  1  0  0  0  0
 46 67  1  0  0  0  0
 47 49  1  0  0  0  0
 48 50  1  0  0  0  0
 48 52  1  0  0  0  0
 49 54  1  0  0  0  0
 50 56  1  0  0  0  0
 51 67  1  0  0  0  0
 52 69  1  0  0  0  0
 53 56  1  0  0  0  0
 53 69  1  0  0  0  0
 54 74  1  0  0  0  0
 55 68  1  0  0  0  0
 56 66  1  0  0  0  0
 57 63  1  0  0  0  0
 58 64  1  0  0  0  0
 59 64  1  0  0  0  0
 60 64  1  0  0  0  0
 61 76  1  0  0  0  0
 62 64  1  0  0  0  0
 62 75  1  0  0  0  0
 63 76  1  0  0  0  0
 65 66  1  0  0  0  0
M  CHG  1  76   1
M  ISO  4  35 101  41 100  73 100  84 101
M  END
> <Batch ID>
0091

> <Smiles>
CNC(C)C(=O)NC(C(=O)N1Cc2cc([101O:1][101CH:1]=C3CCN(C(=O)c4cc(N)cc([100NH:0][100C:0](=O)N5CCCC(n6nc(-c7ccc(Oc8ccc(F)cc8F)cc7)c(C(N)=O)c6N)C5)c4F)C3)ccc2CC1C(=O)NC1CCCc2ccccc21)C(C)(C)C

> <Shape>
0.175

> <Color>
0.141

> <Negative vol penalty>
0.000

$$$$

  -OEChem-04052300313D

 85 93  0     1  0  0  0  0  0999 V2000
  -29.1285  -31.9094   26.3842 C   0  0  0  0  0  0  0  0  0  0  0  0
  -29.0848  -30.8550   25.4776 C   0  0  0  0  0  0  0  0  0  0  0  0
  -24.1280  -10.1866   22.7065 C   0  0  0  0  0  0  0  0  0  0  0  0
  -24.3730  -11.9800   24.3068 C   0  0  0  0  0  0  0  0  0  0  0  0
  -27.9587  -32.3378   27.0103 C   0  0  0  0  0  0  0  0  0  0  0  0
  -27.8713  -30.2278   25.1974 C   0  0  0  0  0  0  0  0  0  0  0  0
  -27.1917  -29.4374   20.2418 C   0  0  0  0  0  0  0  0  0  0  0  0
  -29.6225  -18.9197   22.0108 C   0  0  0  0  0  0  0  0  0  0  0  0
  -29.2780  -20.1144   21.3787 C   0  0  0  0  0  0  0  0  0  0  0  0
  -23.6940   -9.3376   23.7245 C   0  0  0  0  0  0  0  0  0  0  0  0
  -23.9389  -11.1310   25.3248 C   0  0  0  0  0  0  0  0  0  0  0  0
  -27.8711  -28.3630   19.6693 C   0  0  0  0  0  0  0  0  0  0  0  0
  -20.8455   -8.7820   25.4596 C   0  0  0  0  0  0  0  0  0  0  0  0
  -19.7287   -7.9854   25.2071 C   0  0  0  0  0  0  0  0  0  0  0  0
  -25.8577  -27.0388   19.7801 C   0  0  0  0  0  0  0  0  0  0  0  0
  -31.6609  -18.8232   20.7174 C   0  0  0  0  0  0  0  0  0  0  0  0
  -21.0567   -6.0032   25.5876 C   0  0  0  0  0  0  0  0  0  0  0  0
  -24.4676  -11.5079   22.9977 C   0  0  0  0  0  0  0  0  0  0  0  0
  -24.1214  -13.2174   21.1361 C   0  0  0  0  0  0  0  0  0  0  0  0
  -26.7288  -31.7218   26.7303 C   0  0  0  0  0  0  0  0  0  0  0  0
  -25.8409  -29.3170   20.5984 C   0  0  0  0  0  0  0  0  0  0  0  0
  -26.6842  -30.6475   25.8214 C   0  0  0  0  0  0  0  0  0  0  0  0
  -25.1628  -28.1141   20.3546 C   0  0  0  0  0  0  0  0  0  0  0  0
  -30.8140  -18.2741   21.6802 C   0  0  0  0  0  0  0  0  0  0  0  0
  -30.1248  -20.6634   20.4158 C   0  0  0  0  0  0  0  0  0  0  0  0
  -31.3163  -20.0179   20.0852 C   0  0  0  0  0  0  0  0  0  0  0  0
  -23.5993   -9.8097   25.0336 C   0  0  0  0  0  0  0  0  0  0  0  0
  -27.2049  -27.1625   19.4411 C   0  0  0  0  0  0  0  0  0  0  0  0
  -22.0679   -8.1893   25.7760 C   0  0  0  0  0  0  0  0  0  0  0  0
  -19.8343   -6.5960   25.2711 C   0  0  0  0  0  0  0  0  0  0  0  0
  -22.1735   -6.7999   25.8400 C   0  0  0  0  0  0  0  0  0  0  0  0
  -24.9167  -12.3853   21.9467 C   0  0  0  0  0  0  0  0  0  0  0  0
  -25.0166  -13.8409   20.3016 C   0  0  0  0  0  0  0  0  0  0  0  0
  -27.9495  -24.9508   19.5991 C   0  0  0  0  0  0  0  0  0  1  0  0
  -22.7006  -13.4096   21.1375 C   0  0  0  0  0  0  0  0  0  0  0  0
  -28.5747  -23.8567   19.1479 C   0  0  0  0  0  0  0  0  0  0  0  0
  -28.6098  -22.6310   20.0108 C   0  0  0  0  0  0  0  0  0  0  0  0
  -24.2157  -29.4971   23.3242 C   0  0  0  0  0  0  0  0  0  0  0  0
  -21.6486  -29.2419   21.3577 C   0  0  0  0  0  0  0  0  0  0  0  0
  -20.3872  -28.2107   18.3590 C   0  0  0  0  0  0  0  0  0  0  0  0
  -30.8496  -15.1013   20.7894 C   0  0  0  0  0  0  0  0  0  0  0  0
  -25.4986  -32.1889   27.4674 C   0  0  0  0  0  0  0  0  0  0  0  0
  -25.1152  -30.4940   21.1904 C   0  0  0  0  0  0  0  0  0  0  0  0
  -23.7073  -27.9400   20.7006 C   0  0  0  0  0  0  0  0  0  0  0  0
  -24.1927  -31.7164   26.8336 C   0  0  0  0  0  0  0  0  0  0  0  0
  -29.2787  -13.1931   18.2267 C   0  0  0  0  0  0  0  0  0  0  0  0
  -24.2713  -30.2317   26.4927 C   0  0  0  0  0  0  0  0  0  0  0  0
  -27.9109  -12.8447   18.8163 C   0  0  0  0  0  0  0  0  0  0  0  0
  -30.3715  -13.1857   19.2933 C   0  0  0  0  0  0  0  0  0  0  0  0
  -28.7262  -13.6820   21.0598 C   0  0  0  0  0  0  0  0  0  0  0  0
  -25.3831  -29.9580   25.4726 C   0  0  1  0  0  0  0  0  0  0  0  0
  -23.8774  -30.0936   21.9872 C   0  0  1  0  0  0  0  0  0  0  0  0
  -27.5823  -13.7314   20.0325 C   0  0  2  0  0  0  0  0  0  0  0  0
  -18.2461  -28.1034   17.0546 C   0  0  0  0  0  0  0  0  0  0  0  0
  -20.7193  -26.9011   23.0803 C   0  0  0  0  0  0  0  0  0  0  0  0
  -19.1563  -26.2539   21.2347 C   0  0  0  0  0  0  0  0  0  0  0  0
  -18.8981  -28.4605   22.3691 C   0  0  0  0  0  0  0  0  0  0  0  0
  -21.4834  -29.9092   16.1975 C   0  0  0  0  0  0  0  0  0  0  0  0
  -31.1819  -16.9969   22.3564 C   0  0  0  0  0  0  0  0  0  0  0  0
  -20.8427  -28.0961   20.7950 C   0  0  1  0  0  0  0  0  0  0  0  0
  -19.5017  -28.9111   17.3443 C   0  0  2  0  0  0  0  0  0  0  0  0
  -19.9320  -27.4302   21.8649 C   0  0  0  0  0  0  0  0  0  0  0  0
  -26.2170  -12.4700   21.6534 N   0  0  0  0  0  0  0  0  0  0  0  0
  -26.2457  -13.3627   20.6492 N   0  0  0  0  0  0  0  0  0  0  0  0
  -23.0431  -29.1177   21.2831 N   0  0  0  0  0  0  0  0  0  0  0  0
  -29.9989  -14.0471   20.4181 N   0  0  0  0  0  0  0  0  0  0  0  0
  -32.1887  -20.5563   19.1127 N   0  0  0  0  0  0  0  0  0  0  0  0
  -24.8643  -14.7460   19.3117 N   0  0  0  0  0  0  0  0  0  0  0  0
  -21.9299  -12.6900   22.0609 N   0  0  0  0  0  0  0  0  0  0  0  0
  -29.7536  -21.8767   19.7877 N   0  0  0  0  0  0  0  0  0  0  0  0
  -24.9521  -30.3322   24.1427 N   0  0  0  0  0  0  0  0  0  0  0  0
  -20.1211  -28.6306   19.6451 N   0  0  0  0  0  0  0  0  0  0  0  0
  -30.4186  -15.8730   21.8615 N   0  0  0  0  0  0  0  0  0  0  0  0
  -20.2382  -29.1101   16.0641 N   0  3  0  0  0  0  0  0  0  0  0  0
  -22.1296  -14.1839   20.3326 O   0  0  0  0  0  0  0  0  0  0  0  0
  -27.7009  -22.3881   20.7975 O   0  0  0  0  0  0  0  0  0  0  0  0
  -23.8355  -28.3638   23.5938 O   0  0  0  0  0  0  0  0  0  0  0  0
  -21.0622  -30.2146   21.8392 O   0  0  0  0  0  0  0  0  0  0  0  0
  -21.2282  -27.3720   18.0428 O   0  0  0  0  0  0  0  0  0  0  0  0
  -31.9118  -15.3407   20.2051 O   0  0  0  0  0  0  0  0  0  0  0  0
  -29.1906  -23.8096   17.9138 O   0  0  0  0  0  0  0  0  0  0  0  0
  -23.1755   -8.9816   26.0271 O   0  0  0  0  0  0  0  0  0  0  0  0
  -27.8658  -26.1119   18.8831 O   0  0  0  0  0  0  0  0  0  1  0  0
  -18.7614   -5.8311   25.0302 F   0  0  0  0  0  0  0  0  0  0  0  0
  -23.3449   -6.2247   26.1446 F   0  0  0  0  0  0  0  0  0  0  0  0
  1  2  1  0  0  0  0
  1  5  2  0  0  0  0
  2  6  2  0  0  0  0
  3 10  2  0  0  0  0
  3 18  1  0  0  0  0
  4 11  1  0  0  0  0
  4 18  2  0  0  0  0
  5 20  1  0  0  0  0
  6 22  1  0  0  0  0
  7 12  2  0  0  0  0
  7 21  1  0  0  0  0
  8  9  2  0  0  0  0
  8 24  1  0  0  0  0
  9 25  1  0  0  0  0
 10 27  1  0  0  0  0
 11 27  2  0  0  0  0
 12 28  1  0  0  0  0
 13 14  2  0  0  0  0
 13 29  1  0  0  0  0
 14 30  1  0  0  0  0
 15 23  1  0  0  0  0
 15 28  2  0  0  0  0
 16 24  2  0  0  0  0
 16 26  1  0  0  0  0
 17 30  2  0  0  0  0
 17 31  1  0  0  0  0
 18 32  1  0  0  0  0
 19 32  1  0  0  0  0
 19 33  2  0  0  0  0
 19 35  1  0  0  0  0
 20 22  2  0  0  0  0
 20 42  1  0  0  0  0
 21 23  2  0  0  0  0
 21 43  1  0  0  0  0
 22 51  1  0  0  0  0
 23 44  1  0  0  0  0
 24 59  1  0  0  0  0
 25 26  2  0  0  0  0
 25 70  1  0  0  0  0
 26 67  1  0  0  0  0
 27 82  1  0  0  0  0
 28 83  1  0  0  0  0
 29 31  2  0  0  0  0
 29 82  1  0  0  0  0
 30 84  1  0  0  0  0
 31 85  1  0  0  0  0
 32 63  2  0  0  0  0
 33 64  1  0  0  0  0
 33 68  1  0  0  0  0
 34 36  2  0  0  0  0
 34 83  1  0  0  0  0
 35 69  1  0  0  0  0
 35 75  2  0  0  0  0
 36 37  1  0  0  0  0
 36 81  1  0  0  0  0
 37 70  1  0  0  0  0
 37 76  2  0  0  0  0
 38 52  1  0  0  0  0
 38 71  1  0  0  0  0
 38 77  2  0  0  0  0
 39 60  1  0  0  0  0
 39 65  1  0  0  0  0
 39 78  2  0  0  0  0
 40 61  1  0  0  0  0
 40 72  1  0  0  0  0
 40 79  2  0  0  0  0
 41 66  1  0  0  0  0
 41 73  1  0  0  0  0
 41 80  2  0  0  0  0
 42 45  1  0  0  0  0
 43 52  1  0  0  0  0
 44 65  1  0  0  0  0
 45 47  1  0  0  0  0
 46 48  1  0  0  0  0
 46 49  1  0  0  0  0
 47 51  1  0  0  0  0
 48 53  1  0  0  0  0
 49 66  1  0  0  0  0
 50 53  1  0  0  0  0
 50 66  1  0  0  0  0
 51 71  1  0  0  0  0
 52 65  1  0  0  0  0
 53 64  1  0  0  0  0
 54 61  1  0  0  0  0
 55 62  1  0  0  0  0
 56 62  1  0  0  0  0
 57 62  1  0  0  0  0
 58 74  1  0  0  0  0
 59 73  1  0  0  0  0
 60 62  1  0  0  0  0
 60 72  1  0  0  0  0
 61 74  1  0  0  0  0
 63 64  1  0  0  0  0
M  CHG  1  74   1
M  ISO  4  34 101  41 100  73 100  83 101
M  END
> <Batch ID>
0091

> <Smiles>
CNC(C)C(=O)NC(C(=O)N1Cc2cc([101O:1][101CH2:1]C(=O)C(=O)Nc3ccc(C[100NH:0][100C:0](=O)N4CCCC(n5nc(-c6ccc(Oc7ccc(F)cc7F)cc6)c(C(N)=O)c5N)C4)cc3N)ccc2CC1C(=O)NC1CCCc2ccccc21)C(C)(C)C

> <Shape>
0.332

> <Color>
0.115

> <Negative vol penalty>
0.000

$$$$

  -OEChem-04052300313D

 83 91  0     1  0  0  0  0  0999 V2000
  -27.4514  -24.3744   16.6527 C   0  0  0  0  0  0  0  0  0  0  0  0
  -26.2811  -24.6862   17.3372 C   0  0  0  0  0  0  0  0  0  0  0  0
  -26.6171  -15.6360   20.5689 C   0  0  0  0  0  0  0  0  0  0  0  0
  -24.3129  -15.2399   19.9601 C   0  0  0  0  0  0  0  0  0  0  0  0
  -16.9794  -22.7427   21.2628 C   0  0  0  0  0  0  0  0  0  0  0  0
  -28.6867  -24.7486   17.1798 C   0  0  0  0  0  0  0  0  0  0  0  0
  -26.3456  -25.3715   18.5499 C   0  0  0  0  0  0  0  0  0  0  0  0
  -22.9422  -29.1092   18.8523 C   0  0  0  0  0  0  0  0  0  0  0  0
  -26.8124  -14.2635   20.7229 C   0  0  0  0  0  0  0  0  0  0  0  0
  -24.5082  -13.8674   20.1140 C   0  0  0  0  0  0  0  0  0  0  0  0
  -21.6249  -28.7497   19.1338 C   0  0  0  0  0  0  0  0  0  0  0  0
  -25.8782  -11.3343   18.3457 C   0  0  0  0  0  0  0  0  0  0  0  0
  -17.2987  -21.4016   21.0509 C   0  0  0  0  0  0  0  0  0  0  0  0
  -25.3685  -10.4937   17.3561 C   0  0  0  0  0  0  0  0  0  0  0  0
  -19.0418  -23.0408   22.4854 C   0  0  0  0  0  0  0  0  0  0  0  0
  -21.9569  -29.3643   21.4427 C   0  0  0  0  0  0  0  0  0  0  0  0
  -23.9860   -9.3927   19.0034 C   0  0  0  0  0  0  0  0  0  0  0  0
  -25.3673  -16.1243   20.1876 C   0  0  0  0  0  0  0  0  0  0  0  0
  -17.8509  -23.5624   21.9799 C   0  0  0  0  0  0  0  0  0  0  0  0
  -25.3440  -18.3003   18.8565 C   0  0  0  0  0  0  0  0  0  0  0  0
  -28.7658  -25.4473   18.3947 C   0  0  0  0  0  0  0  0  0  0  0  0
  -23.7814  -29.5896   19.8679 C   0  0  0  0  0  0  0  0  0  0  0  0
  -27.5832  -25.7543   19.0944 C   0  0  0  0  0  0  0  0  0  0  0  0
  -23.2836  -29.7317   21.1710 C   0  0  0  0  0  0  0  0  0  0  0  0
  -19.3611  -21.6995   22.2736 C   0  0  0  0  0  0  0  0  0  0  0  0
  -25.7580  -13.3792   20.4954 C   0  0  0  0  0  0  0  0  0  0  0  0
  -21.1329  -28.8744   20.4297 C   0  0  0  0  0  0  0  0  0  0  0  0
  -25.4418  -11.2040   19.6642 C   0  0  0  0  0  0  0  0  0  0  0  0
  -24.4224   -9.5229   17.6850 C   0  0  0  0  0  0  0  0  0  0  0  0
  -18.4895  -20.8799   21.5564 C   0  0  0  0  0  0  0  0  0  0  0  0
  -24.4958  -10.2333   19.9930 C   0  0  0  0  0  0  0  0  0  0  0  0
  -25.1648  -17.5420   20.0289 C   0  0  0  0  0  0  0  0  0  0  0  0
  -25.0249  -19.5842   19.2259 C   0  0  0  0  0  0  0  0  0  0  0  0
  -18.4377  -27.0690   21.9246 C   0  0  0  0  0  0  0  0  0  0  0  0
  -17.5091  -24.9968   22.2060 C   0  0  0  0  0  0  0  0  0  0  0  0
  -25.7616  -17.8817   17.5503 C   0  0  0  0  0  0  0  0  0  0  0  0
  -26.5015  -28.6032   21.1839 C   0  0  0  0  0  0  0  0  0  0  0  0
  -26.3216  -31.4411   22.7449 C   0  0  0  0  0  0  0  0  0  0  0  0
  -24.3746  -33.9987   23.8913 C   0  0  0  0  0  0  0  0  0  0  0  0
  -21.5441  -21.8501   23.5218 C   0  0  0  0  0  0  0  0  0  0  0  0
  -30.1265  -25.7891   18.9483 C   0  0  0  0  0  0  0  0  0  0  0  0
  -25.1918  -29.9984   19.5424 C   0  0  0  0  0  0  0  0  0  0  0  0
  -24.1377  -30.2614   22.2928 C   0  0  0  0  0  0  0  0  0  0  0  0
  -30.0877  -26.8422   20.0528 C   0  0  0  0  0  0  0  0  0  0  0  0
  -25.0116  -22.4925   23.0306 C   0  0  0  0  0  0  0  0  0  0  0  0
  -28.9931  -26.5154   21.0638 C   0  0  0  0  0  0  0  0  0  0  0  0
  -25.4593  -21.3684   22.0935 C   0  0  0  0  0  0  0  0  0  0  0  0
  -23.9696  -22.0098   24.0381 C   0  0  0  0  0  0  0  0  0  0  0  0
  -23.2520  -20.2119   22.5143 C   0  0  0  0  0  0  0  0  0  0  0  0
  -27.6106  -26.5184   20.4003 C   0  0  1  0  0  0  0  0  0  0  0  0
  -26.1120  -29.9909   20.7593 C   0  0  1  0  0  0  0  0  0  0  0  0
  -24.2533  -20.6659   21.4396 C   0  0  2  0  0  0  0  0  0  0  0  0
  -24.5070  -36.1578   25.1635 C   0  0  0  0  0  0  0  0  0  0  0  0
  -26.6221  -29.8839   25.3515 C   0  0  0  0  0  0  0  0  0  0  0  0
  -25.8065  -31.9103   26.5749 C   0  0  0  0  0  0  0  0  0  0  0  0
  -27.9211  -32.0188   25.2561 C   0  0  0  0  0  0  0  0  0  0  0  0
  -23.3407  -35.5507   21.5932 C   0  0  0  0  0  0  0  0  0  0  0  0
  -19.5757  -28.0417   22.0227 C   0  0  0  0  0  0  0  0  0  1  0  0
  -25.7066  -31.9113   24.0409 C   0  0  1  0  0  0  0  0  0  0  0  0
  -24.5286  -35.5055   23.7899 C   0  0  2  0  0  0  0  0  0  0  0  0
  -26.4983  -31.4192   25.2853 C   0  0  0  0  0  0  0  0  0  0  0  0
  -24.7632  -18.2823   21.0656 N   0  0  0  0  0  0  0  0  0  0  0  0
  -18.5893  -25.8468   22.3120 N   0  0  0  0  0  0  0  0  0  0  0  0
  -24.6874  -19.5193   20.5458 N   0  0  0  0  0  0  0  0  0  0  0  0
  -25.5118  -30.6417   21.9257 N   0  0  0  0  0  0  0  0  0  0  0  0
  -22.8550  -21.3587   23.3462 N   0  0  0  0  0  0  0  0  0  0  0  0
  -25.0029  -20.7509   18.5472 N   0  0  0  0  0  0  0  0  0  0  0  0
  -26.0500  -16.5258   17.3437 N   0  0  0  0  0  0  0  0  0  0  0  0
  -20.5710  -21.1718   22.7886 N   0  0  0  0  0  0  0  0  0  0  0  0
  -27.1477  -27.8753   20.2031 N   0  0  0  0  0  0  0  0  0  0  0  0
  -25.5969  -33.3624   23.9379 N   0  0  0  0  0  0  0  0  0  0  0  0
  -23.4227  -36.0857   22.9766 N   0  3  0  0  0  0  0  0  0  0  0  0
  -16.3260  -25.3169   22.2818 O   0  0  0  0  0  0  0  0  0  0  0  0
  -25.8913  -18.6889   16.5989 O   0  0  0  0  0  0  0  0  0  0  0  0
  -26.2367  -28.2217   22.3180 O   0  0  0  0  0  0  0  0  0  0  0  0
  -27.4754  -31.7768   22.4661 O   0  0  0  0  0  0  0  0  0  0  0  0
  -23.2794  -33.4422   23.9294 O   0  0  0  0  0  0  0  0  0  0  0  0
  -21.3062  -22.8197   24.2465 O   0  0  0  0  0  0  0  0  0  0  0  0
  -25.9482  -12.0399   20.6453 O   0  0  0  0  0  0  0  0  0  0  0  0
  -19.8477  -28.5236   20.7073 O   0  0  0  0  0  0  0  0  0  1  0  0
  -23.9319   -8.7168   16.7343 F   0  0  0  0  0  0  0  0  0  0  0  0
  -18.7862  -19.5897   21.3465 F   0  0  0  0  0  0  0  0  0  0  0  0
  -24.0719  -10.1042   21.2577 F   0  0  0  0  0  0  0  0  0  0  0  0
  1  2  1  0  0  0  0
  1  6  2  0  0  0  0
  2  7  2  0  0  0  0
  3  9  2  0  0  0  0
  3 18  1  0  0  0  0
  4 10  1  0  0  0  0
  4 18  2  0  0  0  0
  5 13  2  0  0  0  0
  5 19  1  0  0  0  0
  6 21  1  0  0  0  0
  7 23  1  0  0  0  0
  8 11  2  0  0  0  0
  8 22  1  0  0  0  0
  9 26  1  0  0  0  0
 10 26  2  0  0  0  0
 11 27  1  0  0  0  0
 12 14  2  0  0  0  0
 12 28  1  0  0  0  0
 13 30  1  0  0  0  0
 14 29  1  0  0  0  0
 15 19  2  0  0  0  0
 15 25  1  0  0  0  0
 16 24  1  0  0  0  0
 16 27  2  0  0  0  0
 17 29  2  0  0  0  0
 17 31  1  0  0  0  0
 18 32  1  0  0  0  0
 19 35  1  0  0  0  0
 20 32  1  0  0  0  0
 20 33  2  0  0  0  0
 20 36  1  0  0  0  0
 21 23  2  0  0  0  0
 21 41  1  0  0  0  0
 22 24  2  0  0  0  0
 22 42  1  0  0  0  0
 23 50  1  0  0  0  0
 24 43  1  0  0  0  0
 25 30  2  0  0  0  0
 25 69  1  0  0  0  0
 26 79  1  0  0  0  0
 27 80  1  0  0  0  0
 28 31  2  0  0  0  0
 28 79  1  0  0  0  0
 29 81  1  0  0  0  0
 30 82  1  0  0  0  0
 31 83  1  0  0  0  0
 32 62  2  0  0  0  0
 33 64  1  0  0  0  0
 33 67  1  0  0  0  0
 34 58  1  0  0  0  0
 34 63  2  0  0  0  0
 35 63  1  0  0  0  0
 35 73  2  0  0  0  0
 36 68  1  0  0  0  0
 36 74  2  0  0  0  0
 37 51  1  0  0  0  0
 37 70  1  0  0  0  0
 37 75  2  0  0  0  0
 38 59  1  0  0  0  0
 38 65  1  0  0  0  0
 38 76  2  0  0  0  0
 39 60  1  0  0  0  0
 39 71  1  0  0  0  0
 39 77  2  0  0  0  0
 40 66  1  0  0  0  0
 40 69  1  0  0  0  0
 40 78  2  0  0  0  0
 41 44  1  0  0  0  0
 42 51  1  0  0  0  0
 43 65  1  0  0  0  0
 44 46  1  0  0  0  0
 45 47  1  0  0  0  0
 45 48  1  0  0  0  0
 46 50  1  0  0  0  0
 47 52  1  0  0  0  0
 48 66  1  0  0  0  0
 49 52  1  0  0  0  0
 49 66  1  0  0  0  0
 50 70  1  0  0  0  0
 51 65  1  0  0  0  0
 52 64  1  0  0  0  0
 53 60  1  0  0  0  0
 54 61  1  0  0  0  0
 55 61  1  0  0  0  0
 56 61  1  0  0  0  0
 57 72  1  0  0  0  0
 58 80  1  0  0  0  0
 59 61  1  0  0  0  0
 59 71  1  0  0  0  0
 60 72  1  0  0  0  0
 62 64  1  0  0  0  0
M  CHG  1  72   1
M  ISO  4  40 100  58 101  69 100  80 101
M  END
> <Batch ID>
0091

> <Smiles>
CNC(C)C(=O)NC(C(=O)N1Cc2cc([101O:1][101CH:1]=CNC(=O)c3ccc(F)c([100NH:0][100C:0](=O)N4CCCC(n5nc(-c6ccc(Oc7ccc(F)cc7F)cc6)c(C(N)=O)c5N)C4)c3)ccc2CC1C(=O)NC1CCCc2ccccc21)C(C)(C)C

> <Shape>
0.243

> <Color>
0.069

> <Negative vol penalty>
0.000

$$$$

  -OEChem-04052300313D

 85 93  0     1  0  0  0  0  0999 V2000
  -27.6470  -20.3982   26.5487 C   0  0  0  0  0  0  0  0  0  0  0  0
  -26.9723  -30.8876   33.7180 C   0  0  0  0  0  0  0  0  0  0  0  0
  -27.3083  -29.6212   33.2503 C   0  0  0  0  0  0  0  0  0  0  0  0
  -32.6483  -17.4947   23.4552 C   0  0  0  0  0  0  0  0  0  0  0  0
  -23.0778   -9.8657   19.9398 C   0  0  0  0  0  0  0  0  0  0  0  0
  -23.8353   -9.8744   22.2340 C   0  0  0  0  0  0  0  0  0  0  0  0
  -26.6415  -31.8976   32.8155 C   0  0  0  0  0  0  0  0  0  0  0  0
  -27.3126  -29.3637   31.8798 C   0  0  0  0  0  0  0  0  0  0  0  0
  -31.1048  -25.6319   28.8470 C   0  0  0  0  0  0  0  0  0  0  0  0
  -31.8518  -18.3624   24.2023 C   0  0  0  0  0  0  0  0  0  0  0  0
  -32.0589  -16.6109   22.5511 C   0  0  0  0  0  0  0  0  0  0  0  0
  -22.3343   -8.7123   20.1897 C   0  0  0  0  0  0  0  0  0  0  0  0
  -23.0918   -8.7210   22.4839 C   0  0  0  0  0  0  0  0  0  0  0  0
  -30.9668  -24.3207   28.3938 C   0  0  0  0  0  0  0  0  0  0  0  0
  -19.8634   -7.9218   23.0836 C   0  0  0  0  0  0  0  0  0  0  0  0
  -19.1053   -7.8822   24.2538 C   0  0  0  0  0  0  0  0  0  0  0  0
  -30.3312  -25.1458   26.2180 C   0  0  0  0  0  0  0  0  0  0  0  0
  -20.3470   -5.9458   24.9926 C   0  0  0  0  0  0  0  0  0  0  0  0
  -23.8284  -10.4467   20.9620 C   0  0  0  0  0  0  0  0  0  0  0  0
  -24.1689  -12.9720   20.8408 C   0  0  0  0  0  0  0  0  0  0  0  0
  -26.6512  -31.6551   31.4329 C   0  0  0  0  0  0  0  0  0  0  0  0
  -30.8460  -26.7118   27.9907 C   0  0  0  0  0  0  0  0  0  0  0  0
  -26.9803  -30.3711   30.9581 C   0  0  0  0  0  0  0  0  0  0  0  0
  -30.4691  -26.4698   26.6620 C   0  0  0  0  0  0  0  0  0  0  0  0
  -30.4659  -18.3463   24.0456 C   0  0  0  0  0  0  0  0  0  0  0  0
  -30.6729  -16.5949   22.3943 C   0  0  0  0  0  0  0  0  0  0  0  0
  -22.3412   -8.1399   21.4618 C   0  0  0  0  0  0  0  0  0  0  0  0
  -30.5772  -24.0774   27.0800 C   0  0  0  0  0  0  0  0  0  0  0  0
  -20.8633   -6.9734   22.8679 C   0  0  0  0  0  0  0  0  0  0  0  0
  -19.3471   -6.8942   25.2083 C   0  0  0  0  0  0  0  0  0  0  0  0
  -21.1051   -5.9855   23.8224 C   0  0  0  0  0  0  0  0  0  0  0  0
  -29.8764  -17.4625   23.1416 C   0  0  0  0  0  0  0  0  0  0  0  0
  -24.5970  -11.6379   20.7043 C   0  0  0  0  0  0  0  0  0  0  0  0
  -25.2610  -13.7219   20.4782 C   0  0  0  0  0  0  0  0  0  0  0  0
  -29.2206  -22.1979   26.7673 C   0  0  0  0  0  0  0  0  0  1  0  0
  -28.9523  -20.9444   26.3712 C   0  0  0  0  0  0  0  0  0  0  0  0
  -22.8977  -13.4874   21.2581 C   0  0  0  0  0  0  0  0  0  0  0  0
  -30.0826  -20.1659   25.7434 C   0  0  0  0  0  0  0  0  0  0  0  0
  -28.7657  -29.1151   27.9769 C   0  0  0  0  0  0  0  0  0  0  0  0
  -30.4944  -30.0832   25.4084 C   0  0  0  0  0  0  0  0  0  0  0  0
  -32.5822  -29.2501   22.8406 C   0  0  0  0  0  0  0  0  0  0  0  0
  -30.7265  -14.7705   20.6579 C   0  0  0  0  0  0  0  0  0  0  0  0
  -26.2405  -32.7653   30.4982 C   0  0  0  0  0  0  0  0  0  0  0  0
  -31.0254  -28.1203   28.4871 C   0  0  0  0  0  0  0  0  0  0  0  0
  -30.1992  -27.5942   25.6969 C   0  0  0  0  0  0  0  0  0  0  0  0
  -26.6329  -32.5141   29.0446 C   0  0  0  0  0  0  0  0  0  0  0  0
  -29.6158  -12.3547   18.2899 C   0  0  0  0  0  0  0  0  0  0  0  0
  -26.2666  -31.0922   28.6308 C   0  0  0  0  0  0  0  0  0  0  0  0
  -28.1759  -12.0626   18.7182 C   0  0  0  0  0  0  0  0  0  0  0  0
  -30.5296  -12.5847   19.4923 C   0  0  0  0  0  0  0  0  0  0  0  0
  -28.6208  -13.3090   20.8712 C   0  0  0  0  0  0  0  0  0  0  0  0
  -27.0205  -30.0598   29.4777 C   0  0  1  0  0  0  0  0  0  0  0  0
  -30.2376  -29.1446   27.6761 C   0  0  1  0  0  0  0  0  0  0  0  0
  -27.6493  -13.1345   19.6925 C   0  0  2  0  0  0  0  0  0  0  0  0
  -33.7962  -30.2501   20.8851 C   0  0  0  0  0  0  0  0  0  0  0  0
  -27.8738  -30.2125   23.8509 C   0  0  0  0  0  0  0  0  0  0  0  0
  -29.2141  -30.2756   21.7371 C   0  0  0  0  0  0  0  0  0  0  0  0
  -29.4429  -32.1099   23.4122 C   0  0  0  0  0  0  0  0  0  0  0  0
  -35.2209  -28.4749   23.9339 C   0  0  0  0  0  0  0  0  0  0  0  0
  -30.4274  -29.8374   23.9205 C   0  0  1  0  0  0  0  0  0  0  0  0
  -33.8798  -29.8709   22.3555 C   0  0  2  0  0  0  0  0  0  0  0  0
  -29.2427  -30.5874   23.2486 C   0  0  0  0  0  0  0  0  0  0  0  0
  -26.5858  -19.9505   26.6913 N   0  0  0  0  0  0  0  0  0  0  0  0
  -25.8624  -11.5425   20.2874 N   0  0  0  0  0  0  0  0  0  0  0  0
  -26.2387  -12.8262   20.1587 N   0  0  0  0  0  0  0  0  0  0  0  0
  -30.3821  -28.9537   26.2315 N   0  0  0  0  0  0  0  0  0  0  0  0
  -29.9691  -13.6158   20.3685 N   0  0  0  0  0  0  0  0  0  0  0  0
  -25.4708  -15.0534   20.4046 N   0  0  0  0  0  0  0  0  0  0  0  0
  -21.8860  -12.5779   21.5949 N   0  0  0  0  0  0  0  0  0  0  0  0
  -29.6593  -19.2300   24.8068 N   0  0  0  0  0  0  0  0  0  0  0  0
  -30.0778  -15.6957   21.4751 N   0  0  0  0  0  0  0  0  0  0  0  0
  -28.3888  -29.9353   29.0232 N   0  0  0  0  0  0  0  0  0  0  0  0
  -31.7384  -30.1930   23.3885 N   0  0  0  0  0  0  0  0  0  0  0  0
  -35.0090  -28.9143   22.5307 N   0  3  0  0  0  0  0  0  0  0  0  0
  -22.6608  -14.7179   21.3145 O   0  0  0  0  0  0  0  0  0  0  0  0
  -31.2449  -20.3872   26.0741 O   0  0  0  0  0  0  0  0  0  0  0  0
  -28.0266  -28.4023   27.3082 O   0  0  0  0  0  0  0  0  0  0  0  0
  -30.6481  -31.2341   25.8249 O   0  0  0  0  0  0  0  0  0  0  0  0
  -32.3398  -28.0495   22.7399 O   0  0  0  0  0  0  0  0  0  0  0  0
  -31.8560  -14.9396   20.1913 O   0  0  0  0  0  0  0  0  0  0  0  0
  -21.6157   -7.0146   21.7060 O   0  0  0  0  0  0  0  0  0  0  0  0
  -30.4411  -22.7985   26.6354 O   0  0  0  0  0  0  0  0  0  1  0  0
  -18.6200   -6.8572   26.3326 F   0  0  0  0  0  0  0  0  0  0  0  0
  -22.0652   -5.0724   23.6213 F   0  0  0  0  0  0  0  0  0  0  0  0
  -28.5430  -17.4466   22.9915 F   0  0  0  0  0  0  0  0  0  0  0  0
  1 36  1  0  0  0  0
  1 63  3  0  0  0  0
  2  3  1  0  0  0  0
  2  7  2  0  0  0  0
  3  8  2  0  0  0  0
  4 10  2  0  0  0  0
  4 11  1  0  0  0  0
  5 12  2  0  0  0  0
  5 19  1  0  0  0  0
  6 13  1  0  0  0  0
  6 19  2  0  0  0  0
  7 21  1  0  0  0  0
  8 23  1  0  0  0  0
  9 14  2  0  0  0  0
  9 22  1  0  0  0  0
 10 25  1  0  0  0  0
 11 26  2  0  0  0  0
 12 27  1  0  0  0  0
 13 27  2  0  0  0  0
 14 28  1  0  0  0  0
 15 16  2  0  0  0  0
 15 29  1  0  0  0  0
 16 30  1  0  0  0  0
 17 24  1  0  0  0  0
 17 28  2  0  0  0  0
 18 30  2  0  0  0  0
 18 31  1  0  0  0  0
 19 33  1  0  0  0  0
 20 33  1  0  0  0  0
 20 34  2  0  0  0  0
 20 37  1  0  0  0  0
 21 23  2  0  0  0  0
 21 43  1  0  0  0  0
 22 24  2  0  0  0  0
 22 44  1  0  0  0  0
 23 52  1  0  0  0  0
 24 45  1  0  0  0  0
 25 32  2  0  0  0  0
 25 70  1  0  0  0  0
 26 32  1  0  0  0  0
 26 71  1  0  0  0  0
 27 81  1  0  0  0  0
 28 82  1  0  0  0  0
 29 31  2  0  0  0  0
 29 81  1  0  0  0  0
 30 83  1  0  0  0  0
 31 84  1  0  0  0  0
 32 85  1  0  0  0  0
 33 64  2  0  0  0  0
 34 65  1  0  0  0  0
 34 68  1  0  0  0  0
 35 36  2  0  0  0  0
 35 82  1  0  0  0  0
 36 38  1  0  0  0  0
 37 69  1  0  0  0  0
 37 75  2  0  0  0  0
 38 70  1  0  0  0  0
 38 76  2  0  0  0  0
 39 53  1  0  0  0  0
 39 72  1  0  0  0  0
 39 77  2  0  0  0  0
 40 60  1  0  0  0  0
 40 66  1  0  0  0  0
 40 78  2  0  0  0  0
 41 61  1  0  0  0  0
 41 73  1  0  0  0  0
 41 79  2  0  0  0  0
 42 67  1  0  0  0  0
 42 71  1  0  0  0  0
 42 80  2  0  0  0  0
 43 46  1  0  0  0  0
 44 53  1  0  0  0  0
 45 66  1  0  0  0  0
 46 48  1  0  0  0  0
 47 49  1  0  0  0  0
 47 50  1  0  0  0  0
 48 52  1  0  0  0  0
 49 54  1  0  0  0  0
 50 67  1  0  0  0  0
 51 54  1  0  0  0  0
 51 67  1  0  0  0  0
 52 72  1  0  0  0  0
 53 66  1  0  0  0  0
 54 65  1  0  0  0  0
 55 61  1  0  0  0  0
 56 62  1  0  0  0  0
 57 62  1  0  0  0  0
 58 62  1  0  0  0  0
 59 74  1  0  0  0  0
 60 62  1  0  0  0  0
 60 73  1  0  0  0  0
 61 74  1  0  0  0  0
 64 65  1  0  0  0  0
M  CHG  1  74   1
M  ISO  4  35 101  42 100  71 100  82 101
M  END
> <Batch ID>
0091

> <Smiles>
CNC(C)C(=O)NC(C(=O)N1Cc2cc([101O:1][101CH:1]=C(C#N)C(=O)Nc3cccc([100NH:0][100C:0](=O)N4CCCC(n5nc(-c6ccc(Oc7ccc(F)cc7F)cc6)c(C(N)=O)c5N)C4)c3F)ccc2CC1C(=O)NC1CCCc2ccccc21)C(C)(C)C

> <Shape>
0.178

> <Color>
0.188

> <Negative vol penalty>
0.000

$$$$

  -OEChem-04052300313D

 81 89  0     1  0  0  0  0  0999 V2000
  -18.2945  -24.7252   20.9968 C   0  0  0  0  0  0  0  0  0  0  0  0
  -19.6277  -24.7511   20.6005 C   0  0  0  0  0  0  0  0  0  0  0  0
  -28.3434  -15.5256   18.1777 C   0  0  0  0  0  0  0  0  0  0  0  0
  -28.5896  -14.9695   20.5159 C   0  0  0  0  0  0  0  0  0  0  0  0
  -17.8028  -25.7120   21.8503 C   0  0  0  0  0  0  0  0  0  0  0  0
  -20.4700  -25.7646   21.0566 C   0  0  0  0  0  0  0  0  0  0  0  0
  -24.9722  -24.0127   22.5749 C   0  0  0  0  0  0  0  0  0  0  0  0
  -28.6849  -26.0967   17.1910 C   0  0  0  0  0  0  0  0  0  0  0  0
  -29.7469  -26.2620   16.3019 C   0  0  0  0  0  0  0  0  0  0  0  0
  -27.9072  -14.2271   17.9147 C   0  0  0  0  0  0  0  0  0  0  0  0
  -28.1533  -13.6709   20.2529 C   0  0  0  0  0  0  0  0  0  0  0  0
  -25.9002  -23.6977   21.5833 C   0  0  0  0  0  0  0  0  0  0  0  0
  -26.7607  -10.3125   20.2585 C   0  0  0  0  0  0  0  0  0  0  0  0
  -25.8231   -9.7542   21.1273 C   0  0  0  0  0  0  0  0  0  0  0  0
  -30.1219  -24.8432   18.6746 C   0  0  0  0  0  0  0  0  0  0  0  0
  -27.0087  -25.8070   21.9590 C   0  0  0  0  0  0  0  0  0  0  0  0
  -24.2736  -11.5303   20.5966 C   0  0  0  0  0  0  0  0  0  0  0  0
  -28.6846  -15.8968   19.4783 C   0  0  0  0  0  0  0  0  0  0  0  0
  -31.1839  -25.0084   17.7855 C   0  0  0  0  0  0  0  0  0  0  0  0
  -28.3424  -18.3476   20.0981 C   0  0  0  0  0  0  0  0  0  0  0  0
  -18.6418  -26.7326   22.3248 C   0  0  0  0  0  0  0  0  0  0  0  0
  -25.0492  -25.2340   23.2596 C   0  0  0  0  0  0  0  0  0  0  0  0
  -19.9888  -26.7667   21.9162 C   0  0  0  0  0  0  0  0  0  0  0  0
  -26.0820  -26.1340   22.9607 C   0  0  0  0  0  0  0  0  0  0  0  0
  -28.8724  -25.3874   18.3774 C   0  0  0  0  0  0  0  0  0  0  0  0
  -30.9964  -25.7178   16.5992 C   0  0  0  0  0  0  0  0  0  0  0  0
  -27.8122  -13.2997   18.9523 C   0  0  0  0  0  0  0  0  0  0  0  0
  -26.9169  -24.5961   21.2732 C   0  0  0  0  0  0  0  0  0  0  0  0
  -26.4548  -11.4799   19.5589 C   0  0  0  0  0  0  0  0  0  0  0  0
  -24.5795  -10.3630   21.2963 C   0  0  0  0  0  0  0  0  0  0  0  0
  -25.2112  -12.0887   19.7279 C   0  0  0  0  0  0  0  0  0  0  0  0
  -29.1358  -17.2379   19.7504 C   0  0  0  0  0  0  0  0  0  0  0  0
  -29.2391  -19.3769   20.2494 C   0  0  0  0  0  0  0  0  0  0  0  0
  -32.5019  -24.4170   18.1316 C   0  0  0  0  0  0  0  0  0  0  0  0
  -26.9218  -18.4397   20.2691 C   0  0  0  0  0  0  0  0  0  0  0  0
  -23.1459  -27.7624   23.5575 C   0  0  0  0  0  0  0  0  0  0  0  0
  -25.3880  -28.7094   25.7018 C   0  0  0  0  0  0  0  0  0  0  0  0
  -28.6137  -28.5127   26.7986 C   0  0  0  0  0  0  0  0  0  0  0  0
  -33.6575  -22.2764   18.5856 C   0  0  0  0  0  0  0  0  0  0  0  0
  -18.0534  -27.8042   23.2080 C   0  0  0  0  0  0  0  0  0  0  0  0
  -24.0563  -25.5473   24.3452 C   0  0  0  0  0  0  0  0  0  0  0  0
  -26.2206  -27.4497   23.6806 C   0  0  0  0  0  0  0  0  0  0  0  0
  -19.1039  -28.6305   23.9455 C   0  0  0  0  0  0  0  0  0  0  0  0
  -34.3002  -19.3386   20.4439 C   0  0  0  0  0  0  0  0  0  0  0  0
  -20.2153  -29.0556   22.9910 C   0  0  0  0  0  0  0  0  0  0  0  0
  -32.9472  -18.6223   20.4664 C   0  0  0  0  0  0  0  0  0  0  0  0
  -34.5567  -20.0249   19.1030 C   0  0  0  0  0  0  0  0  0  0  0  0
  -32.1406  -20.2054   18.6699 C   0  0  0  0  0  0  0  0  0  0  0  0
  -20.9397  -27.8356   22.4094 C   0  0  1  0  0  0  0  0  0  0  0  0
  -23.9247  -27.0419   24.6214 C   0  0  1  0  0  0  0  0  0  0  0  0
  -31.8045  -19.5578   20.0230 C   0  0  1  0  0  0  0  0  0  0  0  0
  -30.1584  -29.4315   28.5499 C   0  0  0  0  0  0  0  0  0  0  0  0
  -25.5860  -31.3288   24.1495 C   0  0  0  0  0  0  0  0  0  0  0  0
  -27.7461  -31.7845   25.3304 C   0  0  0  0  0  0  0  0  0  0  0  0
  -25.6305  -31.5844   26.6369 C   0  0  0  0  0  0  0  0  0  0  0  0
  -29.0976  -25.8279   27.9461 C   0  0  0  0  0  0  0  0  0  0  0  0
  -26.6661  -29.5096   25.6294 C   0  0  1  0  0  0  0  0  0  0  0  0
  -29.1953  -28.3121   28.1864 C   0  0  2  0  0  0  0  0  0  0  0  0
  -26.4037  -31.0280   25.4215 C   0  0  0  0  0  0  0  0  0  0  0  0
  -30.4365  -17.5343   19.6845 N   0  0  0  0  0  0  0  0  0  0  0  0
  -30.4672  -18.8420   19.9928 N   0  0  0  0  0  0  0  0  0  0  0  0
  -25.2216  -27.7130   24.7296 N   0  0  0  0  0  0  0  0  0  0  0  0
  -33.4340  -20.8995   18.7600 N   0  0  0  0  0  0  0  0  0  0  0  0
  -32.0589  -25.8977   15.6858 N   0  0  0  0  0  0  0  0  0  0  0  0
  -29.0890  -20.6782   20.5754 N   0  0  0  0  0  0  0  0  0  0  0  0
  -26.1494  -17.2864   20.0753 N   0  0  0  0  0  0  0  0  0  0  0  0
  -27.8054  -25.2216   19.2700 N   0  0  0  0  0  0  0  0  0  1  0  0
  -32.5146  -23.0324   18.3022 N   0  0  0  0  0  0  0  0  0  0  0  0
  -21.8614  -27.2850   23.3799 N   0  0  0  0  0  0  0  0  0  0  0  0
  -27.4151  -29.1931   26.8406 N   0  0  0  0  0  0  0  0  0  0  0  0
  -29.9306  -27.0178   28.2578 N   0  3  0  0  0  0  0  0  0  0  0  0
  -33.4847  -25.1493   18.2071 O   0  0  0  0  0  0  0  0  0  0  0  0
  -26.3527  -19.5168   20.5683 O   0  0  0  0  0  0  0  0  0  0  0  0
  -23.6710  -28.6842   22.9441 O   0  0  0  0  0  0  0  0  0  0  0  0
  -24.5708  -28.9545   26.5927 O   0  0  0  0  0  0  0  0  0  0  0  0
  -29.1691  -28.1096   25.7790 O   0  0  0  0  0  0  0  0  0  0  0  0
  -34.7720  -22.7942   18.7093 O   0  0  0  0  0  0  0  0  0  0  0  0
  -27.3864  -12.0326   18.6962 O   0  0  0  0  0  0  0  0  0  0  0  0
  -27.8237  -24.2914   20.3053 O   0  0  0  0  0  0  0  0  0  1  0  0
  -23.6787   -9.8258   22.1294 F   0  0  0  0  0  0  0  0  0  0  0  0
  -24.9112  -13.2096   19.0575 F   0  0  0  0  0  0  0  0  0  0  0  0
  1  2  1  0  0  0  0
  1  5  2  0  0  0  0
  2  6  2  0  0  0  0
  3 10  2  0  0  0  0
  3 18  1  0  0  0  0
  4 11  1  0  0  0  0
  4 18  2  0  0  0  0
  5 21  1  0  0  0  0
  6 23  1  0  0  0  0
  7 12  2  0  0  0  0
  7 22  1  0  0  0  0
  8  9  2  0  0  0  0
  8 25  1  0  0  0  0
  9 26  1  0  0  0  0
 10 27  1  0  0  0  0
 11 27  2  0  0  0  0
 12 28  1  0  0  0  0
 13 14  2  0  0  0  0
 13 29  1  0  0  0  0
 14 30  1  0  0  0  0
 15 19  1  0  0  0  0
 15 25  2  0  0  0  0
 16 24  1  0  0  0  0
 16 28  2  0  0  0  0
 17 30  2  0  0  0  0
 17 31  1  0  0  0  0
 18 32  1  0  0  0  0
 19 26  2  0  0  0  0
 19 34  1  0  0  0  0
 20 32  1  0  0  0  0
 20 33  2  0  0  0  0
 20 35  1  0  0  0  0
 21 23  2  0  0  0  0
 21 40  1  0  0  0  0
 22 24  2  0  0  0  0
 22 41  1  0  0  0  0
 23 49  1  0  0  0  0
 24 42  1  0  0  0  0
 25 67  1  0  0  0  0
 26 64  1  0  0  0  0
 27 78  1  0  0  0  0
 28 79  1  0  0  0  0
 29 31  2  0  0  0  0
 29 78  1  0  0  0  0
 30 80  1  0  0  0  0
 31 81  1  0  0  0  0
 32 60  2  0  0  0  0
 33 61  1  0  0  0  0
 33 65  1  0  0  0  0
 34 68  1  0  0  0  0
 34 72  2  0  0  0  0
 35 66  1  0  0  0  0
 35 73  2  0  0  0  0
 36 50  1  0  0  0  0
 36 69  1  0  0  0  0
 36 74  2  0  0  0  0
 37 57  1  0  0  0  0
 37 62  1  0  0  0  0
 37 75  2  0  0  0  0
 38 58  1  0  0  0  0
 38 70  1  0  0  0  0
 38 76  2  0  0  0  0
 39 63  1  0  0  0  0
 39 68  1  0  0  0  0
 39 77  2  0  0  0  0
 40 43  1  0  0  0  0
 41 50  1  0  0  0  0
 42 62  1  0  0  0  0
 43 45  1  0  0  0  0
 44 46  1  0  0  0  0
 44 47  1  0  0  0  0
 45 49  1  0  0  0  0
 46 51  1  0  0  0  0
 47 63  1  0  0  0  0
 48 51  1  0  0  0  0
 48 63  1  0  0  0  0
 49 69  1  0  0  0  0
 50 62  1  0  0  0  0
 51 61  1  0  0  0  0
 52 58  1  0  0  0  0
 53 59  1  0  0  0  0
 54 59  1  0  0  0  0
 55 59  1  0  0  0  0
 56 71  1  0  0  0  0
 57 59  1  0  0  0  0
 57 70  1  0  0  0  0
 58 71  1  0  0  0  0
 60 61  1  0  0  0  0
 67 79  1  0  0  0  0
M  CHG  1  71   1
M  ISO  4  39 100  67 101  68 100  79 101
M  END
> <Batch ID>
0091

> <Smiles>
CNC(C)C(=O)NC(C(=O)N1Cc2cc([101O:1][101NH:1]c3ccc(N)c(C(=O)[100NH:0][100C:0](=O)N4CCCC(n5nc(-c6ccc(Oc7ccc(F)cc7F)cc6)c(C(N)=O)c5N)C4)c3)ccc2CC1C(=O)NC1CCCc2ccccc21)C(C)(C)C

> <Shape>
0.222

> <Color>
0.080

> <Negative vol penalty>
0.000

$$$$

  -OEChem-04052300313D

 89 98  0     1  0  0  0  0  0999 V2000
  -17.3678  -25.7220   21.6037 C   0  0  0  0  0  0  0  0  0  0  0  0
  -18.6620  -25.4901   21.1489 C   0  0  0  0  0  0  0  0  0  0  0  0
  -33.1095  -19.3993   21.9951 C   0  0  0  0  0  0  0  0  0  0  0  0
  -22.5230  -10.4500   21.5249 C   0  0  0  0  0  0  0  0  0  0  0  0
  -24.6046   -9.3606   20.9619 C   0  0  0  0  0  0  0  0  0  0  0  0
  -17.0930  -26.8504   22.3751 C   0  0  0  0  0  0  0  0  0  0  0  0
  -19.6819  -26.3872   21.4644 C   0  0  0  0  0  0  0  0  0  0  0  0
  -23.9258  -24.0587   22.9520 C   0  0  0  0  0  0  0  0  0  0  0  0
  -32.2604  -20.2287   21.2626 C   0  0  0  0  0  0  0  0  0  0  0  0
  -32.6960  -18.1147   22.3481 C   0  0  0  0  0  0  0  0  0  0  0  0
  -21.8979   -9.2067   21.6199 C   0  0  0  0  0  0  0  0  0  0  0  0
  -23.9795   -8.1172   21.0570 C   0  0  0  0  0  0  0  0  0  0  0  0
  -24.7304  -23.5049   21.9572 C   0  0  0  0  0  0  0  0  0  0  0  0
  -19.6679   -6.3346   21.6581 C   0  0  0  0  0  0  0  0  0  0  0  0
  -18.4162   -6.1889   21.0602 C   0  0  0  0  0  0  0  0  0  0  0  0
  -26.1842  -25.4265   22.0718 C   0  0  0  0  0  0  0  0  0  0  0  0
  -19.3775   -6.7407   18.9134 C   0  0  0  0  0  0  0  0  0  0  0  0
  -23.8763  -10.5270   21.1958 C   0  0  0  0  0  0  0  0  0  0  0  0
  -24.1886  -12.8659   20.2265 C   0  0  0  0  0  0  0  0  0  0  0  0
  -18.1120  -27.7567   22.7083 C   0  0  0  0  0  0  0  0  0  0  0  0
  -24.2388  -25.3077   23.5074 C   0  0  0  0  0  0  0  0  0  0  0  0
  -19.4202  -27.5294   22.2399 C   0  0  0  0  0  0  0  0  0  0  0  0
  -25.3833  -25.9928   23.0753 C   0  0  0  0  0  0  0  0  0  0  0  0
  -30.9976  -19.7735   20.8830 C   0  0  0  0  0  0  0  0  0  0  0  0
  -31.4332  -17.6596   21.9685 C   0  0  0  0  0  0  0  0  0  0  0  0
  -22.6262   -8.0403   21.3860 C   0  0  0  0  0  0  0  0  0  0  0  0
  -25.8582  -24.1901   21.5149 C   0  0  0  0  0  0  0  0  0  0  0  0
  -20.7744   -6.6834   20.8838 C   0  0  0  0  0  0  0  0  0  0  0  0
  -18.2710   -6.3919   19.6878 C   0  0  0  0  0  0  0  0  0  0  0  0
  -20.6292   -6.8864   19.5114 C   0  0  0  0  0  0  0  0  0  0  0  0
  -30.5841  -18.4890   21.2360 C   0  0  0  0  0  0  0  0  0  0  0  0
  -24.5224  -11.8111   21.0970 C   0  0  0  0  0  0  0  0  0  0  0  0
  -25.0942  -13.8552   20.5228 C   0  0  0  0  0  0  0  0  0  0  0  0
  -28.8832  -21.0188   20.5810 C   0  0  0  0  0  0  0  0  0  0  0  0
  -28.0284  -21.8033   19.9049 C   0  0  0  0  0  0  0  0  0  0  0  0
  -29.5552  -21.5726   17.9531 C   0  0  0  0  0  0  0  0  0  0  0  0
  -32.2414  -16.8894   25.5340 C   0  0  0  0  0  0  0  0  0  0  0  0
  -31.3502  -16.3103   24.7215 C   0  0  0  0  0  0  0  0  0  0  0  0
  -23.1525  -12.9445   19.2386 C   0  0  0  0  0  0  0  0  0  0  0  0
  -22.7883  -28.1333   23.6342 C   0  0  0  0  0  0  0  0  0  0  0  0
  -25.2770  -28.8870   25.5734 C   0  0  0  0  0  0  0  0  0  0  0  0
  -28.8349  -28.2924   25.6433 C   0  0  0  0  0  0  0  0  0  0  0  0
  -30.1105  -15.5986   21.5279 C   0  0  0  0  0  0  0  0  0  0  0  0
  -17.7572  -28.9872   23.5050 C   0  0  0  0  0  0  0  0  0  0  0  0
  -23.3755  -25.8791   24.5986 C   0  0  0  0  0  0  0  0  0  0  0  0
  -25.7743  -27.3274   23.6536 C   0  0  0  0  0  0  0  0  0  0  0  0
  -28.3613  -22.3072   18.5322 C   0  0  0  0  0  0  0  0  0  0  0  0
  -30.6798  -21.1847   18.8920 C   0  0  0  0  0  0  0  0  0  0  0  0
  -18.9690  -29.6916   24.1097 C   0  0  0  0  0  0  0  0  0  0  0  0
  -28.3689  -14.2980   24.3418 C   0  0  0  0  0  0  0  0  0  0  0  0
  -20.0755  -29.8375   23.0699 C   0  0  0  0  0  0  0  0  0  0  0  0
  -27.1821  -13.6069   23.6712 C   0  0  0  0  0  0  0  0  0  0  0  0
  -29.6624  -14.1132   23.5476 C   0  0  0  0  0  0  0  0  0  0  0  0
  -28.3713  -13.8275   21.4558 C   0  0  0  0  0  0  0  0  0  0  0  0
  -20.5583  -28.4663   22.5820 C   0  0  1  0  0  0  0  0  0  0  0  0
  -23.5028  -27.3937   24.7297 C   0  0  1  0  0  0  0  0  0  0  0  0
  -27.0459  -14.0449   22.2023 C   0  0  1  0  0  0  0  0  0  0  0  0
  -30.4328  -28.1808   27.5751 C   0  0  0  0  0  0  0  0  0  0  0  0
  -25.7555  -31.8401   24.9733 C   0  0  0  0  0  0  0  0  0  0  0  0
  -28.1778  -31.4819   25.4953 C   0  0  0  0  0  0  0  0  0  0  0  0
  -26.4554  -31.1139   27.2618 C   0  0  0  0  0  0  0  0  0  0  0  0
  -29.7778  -25.5993   24.8579 C   0  0  0  0  0  0  0  0  0  0  0  0
  -26.7084  -22.2283   20.4736 C   0  0  0  0  0  0  0  0  0  1  0  0
  -31.7068  -15.6490   23.4317 C   0  0  0  0  0  0  0  0  0  0  0  0
  -26.6605  -29.4541   25.3657 C   0  0  1  0  0  0  0  0  0  0  0  0
  -29.5854  -27.3812   26.5976 C   0  0  2  0  0  0  0  0  0  0  0  0
  -26.7494  -30.9570   25.7539 C   0  0  0  0  0  0  0  0  0  0  0  0
  -25.5592  -12.1028   21.8868 N   0  0  0  0  0  0  0  0  0  0  0  0
  -25.8848  -13.3522   21.5138 N   0  0  0  0  0  0  0  0  0  0  0  0
  -30.1343  -20.6213   20.1357 N   0  0  0  0  0  0  0  0  0  0  0  0
  -24.8949  -27.8474   24.7137 N   0  0  0  0  0  0  0  0  0  0  0  0
  -29.4725  -14.5055   22.1440 N   0  0  0  0  0  0  0  0  0  0  0  0
  -25.2834  -15.0975   20.0296 N   0  0  0  0  0  0  0  0  0  0  0  0
  -23.4420  -12.5275   17.9322 N   0  0  0  0  0  0  0  0  0  0  0  0
  -21.4354  -27.8614   23.5614 N   0  0  0  0  0  0  0  0  0  0  0  0
  -27.5716  -28.5901   26.1087 N   0  0  0  0  0  0  0  0  0  0  0  0
  -31.0082  -16.3292   22.3358 N   0  0  0  0  0  0  0  0  0  0  0  0
  -30.4822  -26.4633   25.8398 N   0  3  0  0  0  0  0  0  0  0  0  0
  -29.6595  -21.4016   16.7370 O   0  0  0  0  0  0  0  0  0  0  0  0
  -22.0089  -13.3873   19.5025 O   0  0  0  0  0  0  0  0  0  0  0  0
  -23.4175  -28.8953   22.9096 O   0  0  0  0  0  0  0  0  0  0  0  0
  -24.5642  -29.3446   26.4702 O   0  0  0  0  0  0  0  0  0  0  0  0
  -29.3221  -28.7024   24.5920 O   0  0  0  0  0  0  0  0  0  0  0  0
  -29.9137  -15.8841   20.3406 O   0  0  0  0  0  0  0  0  0  0  0  0
  -22.0166   -6.8269   21.4788 O   0  0  0  0  0  0  0  0  0  0  0  0
  -26.6449  -23.6522   20.5435 O   0  0  0  0  0  0  0  0  0  1  0  0
  -17.0692   -6.2505   19.1134 F   0  0  0  0  0  0  0  0  0  0  0  0
  -21.6888   -7.2205   18.7621 F   0  0  0  0  0  0  0  0  0  0  0  0
  -29.3693  -18.0515   20.8704 F   0  0  0  0  0  0  0  0  0  0  0  0
  1  2  1  0  0  0  0
  1  6  2  0  0  0  0
  2  7  2  0  0  0  0
  3  9  1  0  0  0  0
  3 10  2  0  0  0  0
  4 11  2  0  0  0  0
  4 18  1  0  0  0  0
  5 12  1  0  0  0  0
  5 18  2  0  0  0  0
  6 20  1  0  0  0  0
  7 22  1  0  0  0  0
  8 13  2  0  0  0  0
  8 21  1  0  0  0  0
  9 24  2  0  0  0  0
 10 25  1  0  0  0  0
 11 26  1  0  0  0  0
 12 26  2  0  0  0  0
 13 27  1  0  0  0  0
 14 15  2  0  0  0  0
 14 28  1  0  0  0  0
 15 29  1  0  0  0  0
 16 23  1  0  0  0  0
 16 27  2  0  0  0  0
 17 29  2  0  0  0  0
 17 30  1  0  0  0  0
 18 32  1  0  0  0  0
 19 32  1  0  0  0  0
 19 33  2  0  0  0  0
 19 39  1  0  0  0  0
 20 22  2  0  0  0  0
 20 44  1  0  0  0  0
 21 23  2  0  0  0  0
 21 45  1  0  0  0  0
 22 55  1  0  0  0  0
 23 46  1  0  0  0  0
 24 31  1  0  0  0  0
 24 70  1  0  0  0  0
 25 31  2  0  0  0  0
 25 77  1  0  0  0  0
 26 85  1  0  0  0  0
 27 86  1  0  0  0  0
 28 30  2  0  0  0  0
 28 85  1  0  0  0  0
 29 87  1  0  0  0  0
 30 88  1  0  0  0  0
 31 89  1  0  0  0  0
 32 68  2  0  0  0  0
 33 69  1  0  0  0  0
 33 73  1  0  0  0  0
 34 35  2  0  0  0  0
 34 70  1  0  0  0  0
 35 47  1  0  0  0  0
 35 63  1  0  0  0  0
 36 47  1  0  0  0  0
 36 48  1  0  0  0  0
 36 79  2  0  0  0  0
 37 38  2  0  0  0  0
 38 64  1  0  0  0  0
 39 74  1  0  0  0  0
 39 80  2  0  0  0  0
 40 56  1  0  0  0  0
 40 75  1  0  0  0  0
 40 81  2  0  0  0  0
 41 65  1  0  0  0  0
 41 71  1  0  0  0  0
 41 82  2  0  0  0  0
 42 66  1  0  0  0  0
 42 76  1  0  0  0  0
 42 83  2  0  0  0  0
 43 72  1  0  0  0  0
 43 77  1  0  0  0  0
 43 84  2  0  0  0  0
 44 49  1  0  0  0  0
 45 56  1  0  0  0  0
 46 71  1  0  0  0  0
 48 70  1  0  0  0  0
 49 51  1  0  0  0  0
 50 52  1  0  0  0  0
 50 53  1  0  0  0  0
 51 55  1  0  0  0  0
 52 57  1  0  0  0  0
 53 72  1  0  0  0  0
 54 57  1  0  0  0  0
 54 72  1  0  0  0  0
 55 75  1  0  0  0  0
 56 71  1  0  0  0  0
 57 69  1  0  0  0  0
 58 66  1  0  0  0  0
 59 67  1  0  0  0  0
 60 67  1  0  0  0  0
 61 67  1  0  0  0  0
 62 78  1  0  0  0  0
 63 86  1  0  0  0  0
 64 77  1  0  0  0  0
 65 67  1  0  0  0  0
 65 76  1  0  0  0  0
 66 78  1  0  0  0  0
 68 69  1  0  0  0  0
M  CHG  1  78   1
M  ISO  4  43 100  63 101  77 100  86 101
M  END
> <Batch ID>
0091

> <Smiles>
C=CC[100N:0](c1cccc(N2C=C([101CH2:1][101O:1]c3ccc4c(c3)CN(C(=O)C(NC(=O)C(C)NC)C(C)(C)C)C(C(=O)NC3CCCc5ccccc53)C4)CC(=O)C2)c1F)[100C:0](=O)N1CCCC(n2nc(-c3ccc(Oc4ccc(F)cc4F)cc3)c(C(N)=O)c2N)C1

> <Shape>
0.245

> <Color>
0.135

> <Negative vol penalty>
0.000

$$$$

  -OEChem-04052300313D

 84 92  0     1  0  0  0  0  0999 V2000
  -28.2800  -35.0964   26.5048 C   0  0  0  0  0  0  0  0  0  0  0  0
  -28.7887  -34.4746   25.3690 C   0  0  0  0  0  0  0  0  0  0  0  0
  -22.7131  -12.1597   18.3929 C   0  0  0  0  0  0  0  0  0  0  0  0
  -22.5860  -10.8495   20.4189 C   0  0  0  0  0  0  0  0  0  0  0  0
  -30.4284  -19.4555   19.2915 C   0  0  0  0  0  0  0  0  0  0  0  0
  -27.3747  -34.4206   27.3218 C   0  0  0  0  0  0  0  0  0  0  0  0
  -28.3931  -33.1760   25.0502 C   0  0  0  0  0  0  0  0  0  0  0  0
  -27.1584  -28.9434   19.4042 C   0  0  0  0  0  0  0  0  0  0  0  0
  -29.6953  -20.6421   19.3012 C   0  0  0  0  0  0  0  0  0  0  0  0
  -21.6612  -11.4220   17.8499 C   0  0  0  0  0  0  0  0  0  0  0  0
  -21.5340  -10.1119   19.8758 C   0  0  0  0  0  0  0  0  0  0  0  0
  -27.5126  -27.6940   18.8969 C   0  0  0  0  0  0  0  0  0  0  0  0
  -19.0538   -7.6463   18.8862 C   0  0  0  0  0  0  0  0  0  0  0  0
  -19.0895   -6.2599   19.0349 C   0  0  0  0  0  0  0  0  0  0  0  0
  -25.8823  -26.6532   20.3384 C   0  0  0  0  0  0  0  0  0  0  0  0
  -28.3934  -19.8225   21.1642 C   0  0  0  0  0  0  0  0  0  0  0  0
  -21.1808   -6.1842   17.8274 C   0  0  0  0  0  0  0  0  0  0  0  0
  -23.1755  -11.8734   19.6774 C   0  0  0  0  0  0  0  0  0  0  0  0
  -30.1440  -18.4523   20.2180 C   0  0  0  0  0  0  0  0  0  0  0  0
  -24.1696  -13.8168   20.9976 C   0  0  0  0  0  0  0  0  0  0  0  0
  -26.9604  -33.1167   27.0076 C   0  0  0  0  0  0  0  0  0  0  0  0
  -26.1696  -29.0562   20.3921 C   0  0  0  0  0  0  0  0  0  0  0  0
  -27.4824  -32.4816   25.8645 C   0  0  0  0  0  0  0  0  0  0  0  0
  -25.5157  -27.9054   20.8549 C   0  0  0  0  0  0  0  0  0  0  0  0
  -28.6778  -20.8256   20.2376 C   0  0  0  0  0  0  0  0  0  0  0  0
  -29.1266  -18.6358   21.1544 C   0  0  0  0  0  0  0  0  0  0  0  0
  -21.0716  -10.3982   18.5913 C   0  0  0  0  0  0  0  0  0  0  0  0
  -26.8765  -26.5484   19.3660 C   0  0  0  0  0  0  0  0  0  0  0  0
  -20.0815   -8.3017   18.2080 C   0  0  0  0  0  0  0  0  0  0  0  0
  -20.1530   -5.5288   18.5055 C   0  0  0  0  0  0  0  0  0  0  0  0
  -21.1450   -7.5707   17.6786 C   0  0  0  0  0  0  0  0  0  0  0  0
  -24.2625  -12.6347   20.2388 C   0  0  0  0  0  0  0  0  0  0  0  0
  -25.4721  -14.1405   21.2897 C   0  0  0  0  0  0  0  0  0  0  0  0
  -30.9437  -17.2009   20.1810 C   0  0  0  0  0  0  0  0  0  0  0  0
  -23.0098  -14.5560   21.4023 C   0  0  0  0  0  0  0  0  0  0  0  0
  -26.1045  -30.1074   23.3912 C   0  0  0  0  0  0  0  0  0  0  0  0
  -22.9147  -29.6019   23.0877 C   0  0  0  0  0  0  0  0  0  0  0  0
  -28.0837  -23.1239   19.4015 C   0  0  0  0  0  0  0  0  0  0  0  0
  -20.3805  -27.9503   21.5076 C   0  0  0  0  0  0  0  0  0  0  0  0
  -30.7845  -14.7549   19.8412 C   0  0  0  0  0  0  0  0  0  0  0  0
  -26.0161  -32.4089   27.9467 C   0  0  0  0  0  0  0  0  0  0  0  0
  -25.7803  -30.4137   20.9098 C   0  0  0  0  0  0  0  0  0  0  0  0
  -24.4333  -27.9744   21.8999 C   0  0  0  0  0  0  0  0  0  0  0  0
  -25.3605  -31.1736   27.3347 C   0  0  0  0  0  0  0  0  0  0  0  0
  -29.7434  -11.4851   20.6905 C   0  0  0  0  0  0  0  0  0  0  0  0
  -26.4010  -30.3138   26.6241 C   0  0  0  0  0  0  0  0  0  0  0  0
  -28.2161  -11.5886   20.7198 C   0  0  0  0  0  0  0  0  0  0  0  0
  -30.3480  -12.3297   19.5698 C   0  0  0  0  0  0  0  0  0  0  0  0
  -28.4008  -13.8351   19.5782 C   0  0  0  0  0  0  0  0  0  0  0  0
  -27.0584  -31.0830   25.4718 C   0  0  1  0  0  0  0  0  0  0  0  0
  -25.1207  -30.3623   22.2845 C   0  0  1  0  0  0  0  0  0  0  0  0
  -27.7488  -13.0580   20.7333 C   0  0  1  0  0  0  0  0  0  0  0  0
  -17.8818  -27.7182   21.5030 C   0  0  0  0  0  0  0  0  0  0  0  0
  -23.0705  -27.9007   25.6158 C   0  0  0  0  0  0  0  0  0  0  0  0
  -20.8292  -26.9507   25.0308 C   0  0  0  0  0  0  0  0  0  0  0  0
  -21.0674  -29.3922   25.4838 C   0  0  0  0  0  0  0  0  0  0  0  0
  -20.1811  -28.9031   18.7128 C   0  0  0  0  0  0  0  0  0  0  0  0
  -27.0839  -24.2106   19.7504 C   0  0  0  0  0  0  0  0  0  1  0  0
  -21.9891  -28.4349   23.3330 C   0  0  1  0  0  0  0  0  0  0  0  0
  -19.0773  -28.4442   20.9059 C   0  0  2  0  0  0  0  0  0  0  0  0
  -21.7608  -28.1678   24.8476 C   0  0  0  0  0  0  0  0  0  0  0  0
  -25.5242  -12.2346   20.0598 N   0  0  0  0  0  0  0  0  0  0  0  0
  -26.2362  -13.1706   20.7103 N   0  0  0  0  0  0  0  0  0  0  0  0
  -24.0926  -29.3240   22.3796 N   0  0  0  0  0  0  0  0  0  0  0  0
  -29.8637  -13.7085   19.6587 N   0  0  0  0  0  0  0  0  0  0  0  0
  -28.8217  -17.6317   22.1001 N   0  0  0  0  0  0  0  0  0  0  0  0
  -26.0268  -15.1574   21.9829 N   0  0  0  0  0  0  0  0  0  0  0  0
  -21.7480  -14.0833   21.0166 N   0  0  0  0  0  0  0  0  0  0  0  0
  -27.9345  -22.0297   20.2468 N   0  0  0  0  0  0  0  0  0  0  0  0
  -30.2194  -16.0298   19.9567 N   0  0  0  0  0  0  0  0  0  0  0  0
  -26.1777  -31.1241   24.3241 N   0  0  0  0  0  0  0  0  0  0  0  0
  -20.7687  -28.7177   22.5854 N   0  0  0  0  0  0  0  0  0  0  0  0
  -19.0717  -28.2254   19.4317 N   0  3  0  0  0  0  0  0  0  0  0  0
  -32.1635  -17.2668   20.3056 O   0  0  0  0  0  0  0  0  0  0  0  0
  -23.0908  -15.6137   22.0719 O   0  0  0  0  0  0  0  0  0  0  0  0
  -26.7484  -29.0648   23.3989 O   0  0  0  0  0  0  0  0  0  0  0  0
  -22.6008  -30.7204   23.5026 O   0  0  0  0  0  0  0  0  0  0  0  0
  -28.8869  -23.2601   18.4844 O   0  0  0  0  0  0  0  0  0  0  0  0
  -20.9911  -26.9784   21.0680 O   0  0  0  0  0  0  0  0  0  0  0  0
  -32.0018  -14.5668   19.9318 O   0  0  0  0  0  0  0  0  0  0  0  0
  -20.0450   -9.6783   18.0618 O   0  0  0  0  0  0  0  0  0  0  0  0
  -27.2207  -25.3276   18.8729 O   0  0  0  0  0  0  0  0  0  1  0  0
  -20.1880   -4.1976   18.6498 F   0  0  0  0  0  0  0  0  0  0  0  0
  -22.1358   -8.1949   17.0271 F   0  0  0  0  0  0  0  0  0  0  0  0
  1  2  1  0  0  0  0
  1  6  2  0  0  0  0
  2  7  2  0  0  0  0
  3 10  2  0  0  0  0
  3 18  1  0  0  0  0
  4 11  1  0  0  0  0
  4 18  2  0  0  0  0
  5  9  2  0  0  0  0
  5 19  1  0  0  0  0
  6 21  1  0  0  0  0
  7 23  1  0  0  0  0
  8 12  2  0  0  0  0
  8 22  1  0  0  0  0
  9 25  1  0  0  0  0
 10 27  1  0  0  0  0
 11 27  2  0  0  0  0
 12 28  1  0  0  0  0
 13 14  2  0  0  0  0
 13 29  1  0  0  0  0
 14 30  1  0  0  0  0
 15 24  1  0  0  0  0
 15 28  2  0  0  0  0
 16 25  2  0  0  0  0
 16 26  1  0  0  0  0
 17 30  2  0  0  0  0
 17 31  1  0  0  0  0
 18 32  1  0  0  0  0
 19 26  2  0  0  0  0
 19 34  1  0  0  0  0
 20 32  1  0  0  0  0
 20 33  2  0  0  0  0
 20 35  1  0  0  0  0
 21 23  2  0  0  0  0
 21 41  1  0  0  0  0
 22 24  2  0  0  0  0
 22 42  1  0  0  0  0
 23 50  1  0  0  0  0
 24 43  1  0  0  0  0
 25 69  1  0  0  0  0
 26 66  1  0  0  0  0
 27 81  1  0  0  0  0
 28 82  1  0  0  0  0
 29 31  2  0  0  0  0
 29 81  1  0  0  0  0
 30 83  1  0  0  0  0
 31 84  1  0  0  0  0
 32 62  2  0  0  0  0
 33 63  1  0  0  0  0
 33 67  1  0  0  0  0
 34 70  1  0  0  0  0
 34 74  2  0  0  0  0
 35 68  1  0  0  0  0
 35 75  2  0  0  0  0
 36 51  1  0  0  0  0
 36 71  1  0  0  0  0
 36 76  2  0  0  0  0
 37 59  1  0  0  0  0
 37 64  1  0  0  0  0
 37 77  2  0  0  0  0
 38 58  1  0  0  0  0
 38 69  1  0  0  0  0
 38 78  2  0  0  0  0
 39 60  1  0  0  0  0
 39 72  1  0  0  0  0
 39 79  2  0  0  0  0
 40 65  1  0  0  0  0
 40 70  1  0  0  0  0
 40 80  2  0  0  0  0
 41 44  1  0  0  0  0
 42 51  1  0  0  0  0
 43 64  1  0  0  0  0
 44 46  1  0  0  0  0
 45 47  1  0  0  0  0
 45 48  1  0  0  0  0
 46 50  1  0  0  0  0
 47 52  1  0  0  0  0
 48 65  1  0  0  0  0
 49 52  1  0  0  0  0
 49 65  1  0  0  0  0
 50 71  1  0  0  0  0
 51 64  1  0  0  0  0
 52 63  1  0  0  0  0
 53 60  1  0  0  0  0
 54 61  1  0  0  0  0
 55 61  1  0  0  0  0
 56 61  1  0  0  0  0
 57 73  1  0  0  0  0
 58 82  1  0  0  0  0
 59 61  1  0  0  0  0
 59 72  1  0  0  0  0
 60 73  1  0  0  0  0
 62 63  1  0  0  0  0
M  CHG  1  73   1
M  ISO  4  40 100  58 101  70 100  82 101
M  END
> <Batch ID>
0091

> <Smiles>
CNC(C)C(=O)NC(C(=O)N1Cc2cc([101O:1][101CH2:1]C(=O)Nc3ccc(C(=O)[100NH:0][100C:0](=O)N4CCCC(n5nc(-c6ccc(Oc7ccc(F)cc7F)cc6)c(C(N)=O)c5N)C4)c(N)c3)ccc2CC1C(=O)NC1CCCc2ccccc21)C(C)(C)C

> <Shape>
0.307

> <Color>
0.099

> <Negative vol penalty>
0.000

$$$$

  -OEChem-04052300313D

 84 92  0     1  0  0  0  0  0999 V2000
  -28.2499  -36.1956   17.0189 C   0  0  0  0  0  0  0  0  0  0  0  0
  -28.5982  -34.8734   17.2755 C   0  0  0  0  0  0  0  0  0  0  0  0
  -24.2921   -9.8471   22.5195 C   0  0  0  0  0  0  0  0  0  0  0  0
  -23.4263  -12.0197   23.1254 C   0  0  0  0  0  0  0  0  0  0  0  0
  -27.4152  -36.8793   17.9018 C   0  0  0  0  0  0  0  0  0  0  0  0
  -28.1129  -34.2345   18.4161 C   0  0  0  0  0  0  0  0  0  0  0  0
  -26.5892  -28.3279   18.9602 C   0  0  0  0  0  0  0  0  0  0  0  0
  -28.6430  -19.1516   22.0052 C   0  0  0  0  0  0  0  0  0  0  0  0
  -28.4767  -20.5102   21.7367 C   0  0  0  0  0  0  0  0  0  0  0  0
  -23.7096   -9.2965   23.6611 C   0  0  0  0  0  0  0  0  0  0  0  0
  -22.8438  -11.4692   24.2670 C   0  0  0  0  0  0  0  0  0  0  0  0
  -27.2724  -27.2264   19.4738 C   0  0  0  0  0  0  0  0  0  0  0  0
  -20.6367   -8.2936   24.6531 C   0  0  0  0  0  0  0  0  0  0  0  0
  -19.9479   -7.0888   24.5127 C   0  0  0  0  0  0  0  0  0  0  0  0
  -26.1490  -27.5232   21.5879 C   0  0  0  0  0  0  0  0  0  0  0  0
  -29.2291  -18.7664   19.6932 C   0  0  0  0  0  0  0  0  0  0  0  0
  -21.4546   -6.0441   26.0862 C   0  0  0  0  0  0  0  0  0  0  0  0
  -24.1505  -11.2087   22.2517 C   0  0  0  0  0  0  0  0  0  0  0  0
  -24.1708  -11.9024   19.7969 C   0  0  0  0  0  0  0  0  0  0  0  0
  -26.9116  -36.2455   19.0487 C   0  0  0  0  0  0  0  0  0  0  0  0
  -25.6874  -29.0431   19.7612 C   0  0  0  0  0  0  0  0  0  0  0  0
  -27.2718  -34.9109   19.3159 C   0  0  0  0  0  0  0  0  0  0  0  0
  -25.4538  -28.6318   21.0812 C   0  0  0  0  0  0  0  0  0  0  0  0
  -29.0193  -18.2797   20.9834 C   0  0  0  0  0  0  0  0  0  0  0  0
  -28.6865  -20.9969   20.4464 C   0  0  0  0  0  0  0  0  0  0  0  0
  -22.9855  -10.1076   24.5348 C   0  0  0  0  0  0  0  0  0  0  0  0
  -27.0545  -26.8257   20.7887 C   0  0  0  0  0  0  0  0  0  0  0  0
  -21.7345   -8.3736   25.5099 C   0  0  0  0  0  0  0  0  0  0  0  0
  -20.3569   -5.9641   25.2293 C   0  0  0  0  0  0  0  0  0  0  0  0
  -29.0627  -20.1250   19.4247 C   0  0  0  0  0  0  0  0  0  0  0  0
  -22.1434   -7.2489   26.2265 C   0  0  0  0  0  0  0  0  0  0  0  0
  -24.7524  -11.7780   21.0729 C   0  0  0  0  0  0  0  0  0  0  0  0
  -25.1421  -12.5031   19.0339 C   0  0  0  0  0  0  0  0  0  0  0  0
  -29.6513  -15.2699   22.9783 C   0  0  0  0  0  0  0  0  0  0  0  0
  -28.9935  -16.3402   22.5271 C   0  0  0  0  0  0  0  0  0  0  0  0
  -22.8690  -11.5100   19.3420 C   0  0  0  0  0  0  0  0  0  0  0  0
  -25.5191  -32.0319   20.8300 C   0  0  0  0  0  0  0  0  0  0  0  0
  -22.6256  -31.0626   21.9302 C   0  0  0  0  0  0  0  0  0  0  0  0
  -28.1478  -23.3745   21.0718 C   0  0  0  0  0  0  0  0  0  0  0  0
  -20.6141  -28.4867   22.9129 C   0  0  0  0  0  0  0  0  0  0  0  0
  -29.7291  -16.0326   20.2490 C   0  0  0  0  0  0  0  0  0  0  0  0
  -26.0508  -37.0402   19.9985 C   0  0  0  0  0  0  0  0  0  0  0  0
  -24.9384  -30.2128   19.1840 C   0  0  0  0  0  0  0  0  0  0  0  0
  -24.4808  -29.3534   21.9762 C   0  0  0  0  0  0  0  0  0  0  0  0
  -25.2768  -36.1741   20.9889 C   0  0  0  0  0  0  0  0  0  0  0  0
  -29.8828  -12.9331   18.6495 C   0  0  0  0  0  0  0  0  0  0  0  0
  -26.1911  -35.1192   21.6038 C   0  0  0  0  0  0  0  0  0  0  0  0
  -28.5343  -12.2872   18.9661 C   0  0  0  0  0  0  0  0  0  0  0  0
  -30.4276  -13.6832   19.8596 C   0  0  0  0  0  0  0  0  0  0  0  0
  -28.1418  -14.0909   20.7156 C   0  0  0  0  0  0  0  0  0  0  0  0
  -26.7455  -34.1758   20.5295 C   0  0  1  0  0  0  0  0  0  0  0  0
  -24.4274  -31.1791   20.2481 C   0  0  1  0  0  0  0  0  0  0  0  0
  -27.5415  -13.3244   19.5199 C   0  0  2  0  0  0  0  0  0  0  0  0
  -18.3140  -28.0097   23.7955 C   0  0  0  0  0  0  0  0  0  0  0  0
  -23.4782  -32.0608   24.6845 C   0  0  0  0  0  0  0  0  0  0  0  0
  -21.6010  -30.7300   25.6710 C   0  0  0  0  0  0  0  0  0  0  0  0
  -21.1097  -32.5817   24.0733 C   0  0  0  0  0  0  0  0  0  0  0  0
  -19.9307  -26.8239   20.5619 C   0  0  0  0  0  0  0  0  0  0  0  0
  -28.0797  -24.7202   20.3740 C   0  0  0  0  0  0  0  0  0  1  0  0
  -22.1234  -30.4335   23.2073 C   0  0  1  0  0  0  0  0  0  0  0  0
  -19.1824  -28.1330   22.5532 C   0  0  2  0  0  0  0  0  0  0  0  0
  -22.0979  -31.4389   24.3930 C   0  0  0  0  0  0  0  0  0  0  0  0
  -25.9968  -12.2609   21.1216 N   0  0  0  0  0  0  0  0  0  0  0  0
  -26.2052  -12.6944   19.8667 N   0  0  0  0  0  0  0  0  0  0  0  0
  -23.7775  -30.4948   21.3677 N   0  0  0  0  0  0  0  0  0  0  0  0
  -29.4539  -14.6550   20.3586 N   0  0  0  0  0  0  0  0  0  0  0  0
  -25.1821  -12.8811   17.7386 N   0  0  0  0  0  0  0  0  0  0  0  0
  -21.9956  -10.9060   20.2567 N   0  0  0  0  0  0  0  0  0  0  0  0
  -28.5164  -22.3757   20.1770 N   0  0  0  0  0  0  0  0  0  0  0  0
  -25.7423  -33.2082   20.1401 N   0  0  0  0  0  0  0  0  0  0  0  0
  -20.8245  -29.8493   22.8912 N   0  0  0  0  0  0  0  0  0  0  0  0
  -29.1914  -16.8687   21.2619 N   0  0  0  0  0  0  0  0  0  0  0  0
  -19.1379  -26.8373   21.8182 N   0  3  0  0  0  0  0  0  0  0  0  0
  -22.4974  -11.6747   18.1553 O   0  0  0  0  0  0  0  0  0  0  0  0
  -26.1139  -31.6516   21.8317 O   0  0  0  0  0  0  0  0  0  0  0  0
  -22.0141  -32.0180   21.4455 O   0  0  0  0  0  0  0  0  0  0  0  0
  -27.8981  -23.2570   22.2669 O   0  0  0  0  0  0  0  0  0  0  0  0
  -21.4603  -27.6393   23.1893 O   0  0  0  0  0  0  0  0  0  0  0  0
  -30.4213  -16.4872   19.3290 O   0  0  0  0  0  0  0  0  0  0  0  0
  -22.4167   -9.5707   25.6488 O   0  0  0  0  0  0  0  0  0  0  0  0
  -27.7205  -25.7513   21.2928 O   0  0  0  0  0  0  0  0  0  1  0  0
  -19.6944   -4.8076   25.0956 F   0  0  0  0  0  0  0  0  0  0  0  0
  -29.2656  -20.5814   18.1804 F   0  0  0  0  0  0  0  0  0  0  0  0
  -23.1965   -7.3201   27.0521 F   0  0  0  0  0  0  0  0  0  0  0  0
  1  2  1  0  0  0  0
  1  5  2  0  0  0  0
  2  6  2  0  0  0  0
  3 10  2  0  0  0  0
  3 18  1  0  0  0  0
  4 11  1  0  0  0  0
  4 18  2  0  0  0  0
  5 20  1  0  0  0  0
  6 22  1  0  0  0  0
  7 12  2  0  0  0  0
  7 21  1  0  0  0  0
  8  9  2  0  0  0  0
  8 24  1  0  0  0  0
  9 25  1  0  0  0  0
 10 26  1  0  0  0  0
 11 26  2  0  0  0  0
 12 27  1  0  0  0  0
 13 14  2  0  0  0  0
 13 28  1  0  0  0  0
 14 29  1  0  0  0  0
 15 23  1  0  0  0  0
 15 27  2  0  0  0  0
 16 24  2  0  0  0  0
 16 30  1  0  0  0  0
 17 29  2  0  0  0  0
 17 31  1  0  0  0  0
 18 32  1  0  0  0  0
 19 32  1  0  0  0  0
 19 33  2  0  0  0  0
 19 36  1  0  0  0  0
 20 22  2  0  0  0  0
 20 42  1  0  0  0  0
 21 23  2  0  0  0  0
 21 43  1  0  0  0  0
 22 51  1  0  0  0  0
 23 44  1  0  0  0  0
 24 72  1  0  0  0  0
 25 30  2  0  0  0  0
 25 69  1  0  0  0  0
 26 80  1  0  0  0  0
 27 81  1  0  0  0  0
 28 31  2  0  0  0  0
 28 80  1  0  0  0  0
 29 82  1  0  0  0  0
 30 83  1  0  0  0  0
 31 84  1  0  0  0  0
 32 63  2  0  0  0  0
 33 64  1  0  0  0  0
 33 67  1  0  0  0  0
 34 35  2  0  0  0  0
 35 72  1  0  0  0  0
 36 68  1  0  0  0  0
 36 74  2  0  0  0  0
 37 52  1  0  0  0  0
 37 70  1  0  0  0  0
 37 75  2  0  0  0  0
 38 60  1  0  0  0  0
 38 65  1  0  0  0  0
 38 76  2  0  0  0  0
 39 59  1  0  0  0  0
 39 69  1  0  0  0  0
 39 77  2  0  0  0  0
 40 61  1  0  0  0  0
 40 71  1  0  0  0  0
 40 78  2  0  0  0  0
 41 66  1  0  0  0  0
 41 72  1  0  0  0  0
 41 79  2  0  0  0  0
 42 45  1  0  0  0  0
 43 52  1  0  0  0  0
 44 65  1  0  0  0  0
 45 47  1  0  0  0  0
 46 48  1  0  0  0  0
 46 49  1  0  0  0  0
 47 51  1  0  0  0  0
 48 53  1  0  0  0  0
 49 66  1  0  0  0  0
 50 53  1  0  0  0  0
 50 66  1  0  0  0  0
 51 70  1  0  0  0  0
 52 65  1  0  0  0  0
 53 64  1  0  0  0  0
 54 61  1  0  0  0  0
 55 62  1  0  0  0  0
 56 62  1  0  0  0  0
 57 62  1  0  0  0  0
 58 73  1  0  0  0  0
 59 81  1  0  0  0  0
 60 62  1  0  0  0  0
 60 71  1  0  0  0  0
 61 73  1  0  0  0  0
 63 64  1  0  0  0  0
M  CHG  1  73   1
M  ISO  4  41 100  59 101  72 100  81 101
M  END
> <Batch ID>
0091

> <Smiles>
C=C[100N:0](c1ccc(NC(=O)[101CH2:1][101O:1]c2ccc3c(c2)CN(C(=O)C(NC(=O)C(C)NC)C(C)(C)C)C(C(=O)NC2CCCc4ccccc42)C3)c(F)c1)[100C:0](=O)N1CCCC(n2nc(-c3ccc(Oc4ccc(F)cc4F)cc3)c(C(N)=O)c2N)C1

> <Shape>
0.286

> <Color>
0.078

> <Negative vol penalty>
0.000

$$$$

  -OEChem-04052300313D

 83 91  0     1  0  0  0  0  0999 V2000
  -31.2918  -30.7376   14.0565 C   0  0  0  0  0  0  0  0  0  0  0  0
  -30.8076  -29.5082   14.4916 C   0  0  0  0  0  0  0  0  0  0  0  0
  -22.9058  -10.0199   20.0012 C   0  0  0  0  0  0  0  0  0  0  0  0
  -23.6699  -10.0168   22.2932 C   0  0  0  0  0  0  0  0  0  0  0  0
  -29.0872  -17.4973   22.1098 C   0  0  0  0  0  0  0  0  0  0  0  0
  -31.4300  -31.7905   14.9599 C   0  0  0  0  0  0  0  0  0  0  0  0
  -30.4622  -29.3306   15.8309 C   0  0  0  0  0  0  0  0  0  0  0  0
  -25.9173  -25.8660   18.0325 C   0  0  0  0  0  0  0  0  0  0  0  0
  -28.4421  -18.6400   21.6368 C   0  0  0  0  0  0  0  0  0  0  0  0
  -22.0998   -8.9133   20.2684 C   0  0  0  0  0  0  0  0  0  0  0  0
  -22.8638   -8.9102   22.5604 C   0  0  0  0  0  0  0  0  0  0  0  0
  -25.8945  -24.5804   18.5714 C   0  0  0  0  0  0  0  0  0  0  0  0
  -22.9692   -5.5698   22.0496 C   0  0  0  0  0  0  0  0  0  0  0  0
  -23.5286   -4.5221   22.7810 C   0  0  0  0  0  0  0  0  0  0  0  0
  -29.4928  -16.7853   19.8370 C   0  0  0  0  0  0  0  0  0  0  0  0
  -26.0131  -25.5157   20.7919 C   0  0  0  0  0  0  0  0  0  0  0  0
  -21.8430   -4.8135   24.4873 C   0  0  0  0  0  0  0  0  0  0  0  0
  -23.6909  -10.5716   21.0136 C   0  0  0  0  0  0  0  0  0  0  0  0
  -29.6126  -16.5700   21.2100 C   0  0  0  0  0  0  0  0  0  0  0  0
  -24.1717  -13.0720   20.8575 C   0  0  0  0  0  0  0  0  0  0  0  0
  -31.0770  -31.6286   16.3089 C   0  0  0  0  0  0  0  0  0  0  0  0
  -25.9994  -26.9876   18.8702 C   0  0  0  0  0  0  0  0  0  0  0  0
  -30.5970  -30.3819   16.7535 C   0  0  0  0  0  0  0  0  0  0  0  0
  -26.0342  -26.8145   20.2612 C   0  0  0  0  0  0  0  0  0  0  0  0
  -28.3223  -18.8553   20.2638 C   0  0  0  0  0  0  0  0  0  0  0  0
  -28.8476  -17.9280   19.3639 C   0  0  0  0  0  0  0  0  0  0  0  0
  -22.0788   -8.3585   21.5480 C   0  0  0  0  0  0  0  0  0  0  0  0
  -25.9453  -24.4049   19.9512 C   0  0  0  0  0  0  0  0  0  0  0  0
  -21.8468   -6.2394   22.5370 C   0  0  0  0  0  0  0  0  0  0  0  0
  -22.9655   -4.1439   23.9999 C   0  0  0  0  0  0  0  0  0  0  0  0
  -21.2837   -5.8613   23.7558 C   0  0  0  0  0  0  0  0  0  0  0  0
  -24.5242  -11.7144   20.7381 C   0  0  0  0  0  0  0  0  0  0  0  0
  -25.3029  -13.7547   20.4823 C   0  0  0  0  0  0  0  0  0  0  0  0
  -30.2854  -15.3790   21.7038 C   0  0  0  0  0  0  0  0  0  0  0  0
  -22.9327  -13.6632   21.2709 C   0  0  0  0  0  0  0  0  0  0  0  0
  -30.8546  -14.3745   20.7763 C   0  0  0  0  0  0  0  0  0  0  0  0
  -28.0988  -29.3407   19.2691 C   0  0  0  0  0  0  0  0  0  0  0  0
  -25.8352  -30.4940   21.2860 C   0  0  0  0  0  0  0  0  0  0  0  0
  -27.0963  -21.0307   20.5779 C   0  0  0  0  0  0  0  0  0  0  0  0
  -23.1590  -29.8576   23.3059 C   0  0  0  0  0  0  0  0  0  0  0  0
  -31.2884  -32.7816   17.2580 C   0  0  0  0  0  0  0  0  0  0  0  0
  -25.9961  -28.3687   18.2743 C   0  0  0  0  0  0  0  0  0  0  0  0
  -26.1023  -27.9865   21.2047 C   0  0  0  0  0  0  0  0  0  0  0  0
  -30.5468  -32.6237   18.5829 C   0  0  0  0  0  0  0  0  0  0  0  0
  -29.5558  -12.1468   18.2848 C   0  0  0  0  0  0  0  0  0  0  0  0
  -30.7509  -31.2204   19.1450 C   0  0  0  0  0  0  0  0  0  0  0  0
  -28.1131  -11.9172   18.7340 C   0  0  0  0  0  0  0  0  0  0  0  0
  -30.4921  -12.3130   19.4773 C   0  0  0  0  0  0  0  0  0  0  0  0
  -28.6323  -13.1690   20.8762 C   0  0  0  0  0  0  0  0  0  0  0  0
  -30.1883  -30.1577   18.1933 C   0  0  1  0  0  0  0  0  0  0  0  0
  -26.6000  -29.4203   19.1999 C   0  0  1  0  0  0  0  0  0  0  0  0
  -27.6524  -13.0243   19.6988 C   0  0  2  0  0  0  0  0  0  0  0  0
  -21.5441  -30.9959   24.8531 C   0  0  0  0  0  0  0  0  0  0  0  0
  -28.0032  -30.6546   23.4269 C   0  0  0  0  0  0  0  0  0  0  0  0
  -26.1939  -30.8698   25.1440 C   0  0  0  0  0  0  0  0  0  0  0  0
  -26.4434  -32.6088   23.3730 C   0  0  0  0  0  0  0  0  0  0  0  0
  -20.8379  -29.0796   21.6429 C   0  0  0  0  0  0  0  0  0  0  0  0
  -26.4915  -22.1047   19.6930 C   0  0  0  0  0  0  0  0  0  1  0  0
  -25.5309  -30.3332   22.7558 C   0  0  1  0  0  0  0  0  0  0  0  0
  -21.8056  -30.5343   23.4278 C   0  0  2  0  0  0  0  0  0  0  0  0
  -26.5435  -31.0942   23.6574 C   0  0  0  0  0  0  0  0  0  0  0  0
  -25.7809  -11.5428   20.3194 N   0  0  0  0  0  0  0  0  0  0  0  0
  -30.4353  -15.1151   22.9737 N   0  0  0  0  0  0  0  0  0  0  0  0
  -26.2280  -12.8016   20.1725 N   0  0  0  0  0  0  0  0  0  0  0  0
  -30.0068  -13.3456   20.3906 N   0  0  0  0  0  0  0  0  0  0  0  0
  -26.1031  -29.3166   20.5734 N   0  0  0  0  0  0  0  0  0  0  0  0
  -28.7389  -18.1260   17.9692 N   0  0  0  0  0  0  0  0  0  0  0  0
  -25.5866  -15.0714   20.3902 N   0  0  0  0  0  0  0  0  0  0  0  0
  -21.8727  -12.8163   21.6223 N   0  0  0  0  0  0  0  0  0  0  0  0
  -27.6649  -20.0223   19.8073 N   0  0  0  0  0  0  0  0  0  0  0  0
  -28.7471  -30.0903   18.3061 N   0  0  0  0  0  0  0  0  0  0  0  0
  -24.1436  -30.7482   22.9333 N   0  0  0  0  0  0  0  0  0  0  0  0
  -20.7191  -29.5945   23.0313 N   0  3  0  0  0  0  0  0  0  0  0  0
  -22.7650  -14.9057   21.3112 O   0  0  0  0  0  0  0  0  0  0  0  0
  -32.0190  -14.5602   20.4476 O   0  0  0  0  0  0  0  0  0  0  0  0
  -28.6280  -28.6514   20.1331 O   0  0  0  0  0  0  0  0  0  0  0  0
  -25.8281  -31.6220   20.7868 O   0  0  0  0  0  0  0  0  0  0  0  0
  -27.0527  -21.1065   21.8014 O   0  0  0  0  0  0  0  0  0  0  0  0
  -23.3268  -28.6597   23.5234 O   0  0  0  0  0  0  0  0  0  0  0  0
  -21.2922   -7.2788   21.8092 O   0  0  0  0  0  0  0  0  0  0  0  0
  -25.9238  -23.1512   20.4798 O   0  0  0  0  0  0  0  0  0  1  0  0
  -23.5018   -3.1368   24.7015 F   0  0  0  0  0  0  0  0  0  0  0  0
  -20.2047   -6.5000   24.2286 F   0  0  0  0  0  0  0  0  0  0  0  0
  1  2  1  0  0  0  0
  1  6  2  0  0  0  0
  2  7  2  0  0  0  0
  3 10  2  0  0  0  0
  3 18  1  0  0  0  0
  4 11  1  0  0  0  0
  4 18  2  0  0  0  0
  5  9  2  0  0  0  0
  5 19  1  0  0  0  0
  6 21  1  0  0  0  0
  7 23  1  0  0  0  0
  8 12  2  0  0  0  0
  8 22  1  0  0  0  0
  9 25  1  0  0  0  0
 10 27  1  0  0  0  0
 11 27  2  0  0  0  0
 12 28  1  0  0  0  0
 13 14  2  0  0  0  0
 13 29  1  0  0  0  0
 14 30  1  0  0  0  0
 15 19  2  0  0  0  0
 15 26  1  0  0  0  0
 16 24  1  0  0  0  0
 16 28  2  0  0  0  0
 17 30  2  0  0  0  0
 17 31  1  0  0  0  0
 18 32  1  0  0  0  0
 19 34  1  0  0  0  0
 20 32  1  0  0  0  0
 20 33  2  0  0  0  0
 20 35  1  0  0  0  0
 21 23  2  0  0  0  0
 21 41  1  0  0  0  0
 22 24  2  0  0  0  0
 22 42  1  0  0  0  0
 23 50  1  0  0  0  0
 24 43  1  0  0  0  0
 25 26  2  0  0  0  0
 25 70  1  0  0  0  0
 26 67  1  0  0  0  0
 27 80  1  0  0  0  0
 28 81  1  0  0  0  0
 29 31  2  0  0  0  0
 29 80  1  0  0  0  0
 30 82  1  0  0  0  0
 31 83  1  0  0  0  0
 32 62  2  0  0  0  0
 33 64  1  0  0  0  0
 33 68  1  0  0  0  0
 34 36  1  0  0  0  0
 34 63  2  0  0  0  0
 35 69  1  0  0  0  0
 35 74  2  0  0  0  0
 36 65  1  0  0  0  0
 36 75  2  0  0  0  0
 37 51  1  0  0  0  0
 37 71  1  0  0  0  0
 37 76  2  0  0  0  0
 38 59  1  0  0  0  0
 38 66  1  0  0  0  0
 38 77  2  0  0  0  0
 39 58  1  0  0  0  0
 39 70  1  0  0  0  0
 39 78  2  0  0  0  0
 40 60  1  0  0  0  0
 40 72  1  0  0  0  0
 40 79  2  0  0  0  0
 41 44  1  0  0  0  0
 42 51  1  0  0  0  0
 43 66  1  0  0  0  0
 44 46  1  0  0  0  0
 45 47  1  0  0  0  0
 45 48  1  0  0  0  0
 46 50  1  0  0  0  0
 47 52  1  0  0  0  0
 48 65  1  0  0  0  0
 49 52  1  0  0  0  0
 49 65  1  0  0  0  0
 50 71  1  0  0  0  0
 51 66  1  0  0  0  0
 52 64  1  0  0  0  0
 53 60  1  0  0  0  0
 54 61  1  0  0  0  0
 55 61  1  0  0  0  0
 56 61  1  0  0  0  0
 57 73  1  0  0  0  0
 58 81  1  0  0  0  0
 59 61  1  0  0  0  0
 59 72  1  0  0  0  0
 60 73  1  0  0  0  0
 62 64  1  0  0  0  0
M  CHG  1  73   1
M  ISO  4  34 100  36 100  58 101  81 101
M  END
> <Batch ID>
0091

> <Smiles>
CNC(C)C(=O)NC(C(=O)N1Cc2cc([101O:1][101CH2:1]C(=O)Nc3ccc([100C:0](=N)[100C:0](=O)N4CCCC(n5nc(-c6ccc(Oc7ccc(F)cc7F)cc6)c(C(N)=O)c5N)C4)cc3N)ccc2CC1C(=O)NC1CCCc2ccccc21)C(C)(C)C

> <Shape>
0.350

> <Color>
0.234

> <Negative vol penalty>
0.000

$$$$

  -OEChem-04052300313D

 88 96  0     1  0  0  0  0  0999 V2000
  -19.4572   -9.2185   21.0339 C   0  0  0  0  0  0  0  0  0  0  0  0
  -19.7613  -10.4193   21.6673 C   0  0  0  0  0  0  0  0  0  0  0  0
  -29.9453  -28.1937   20.9725 C   0  0  0  0  0  0  0  0  0  0  0  0
  -28.2301  -26.5157   21.2544 C   0  0  0  0  0  0  0  0  0  0  0  0
  -20.4823   -8.3546   20.6509 C   0  0  0  0  0  0  0  0  0  0  0  0
  -21.0908  -10.7562   21.9190 C   0  0  0  0  0  0  0  0  0  0  0  0
  -22.1299  -15.5719   20.7463 C   0  0  0  0  0  0  0  0  0  0  0  0
  -30.7230  -27.2794   20.2619 C   0  0  0  0  0  0  0  0  0  0  0  0
  -29.0077  -25.6014   20.5438 C   0  0  0  0  0  0  0  0  0  0  0  0
  -21.7182  -16.5503   21.6501 C   0  0  0  0  0  0  0  0  0  0  0  0
  -29.7472  -24.9444   17.3123 C   0  0  0  0  0  0  0  0  0  0  0  0
  -29.1113  -24.1735   16.3392 C   0  0  0  0  0  0  0  0  0  0  0  0
  -22.7267  -25.9872   22.9023 C   0  0  0  0  0  0  0  0  0  0  0  0
  -22.0737  -24.9231   23.5718 C   0  0  0  0  0  0  0  0  0  0  0  0
  -23.9600  -16.6691   22.5331 C   0  0  0  0  0  0  0  0  0  0  0  0
  -29.7459  -22.1622   17.5178 C   0  0  0  0  0  0  0  0  0  0  0  0
  -28.6989  -27.8118   21.4688 C   0  0  0  0  0  0  0  0  0  0  0  0
  -28.2377  -29.4136   23.3999 C   0  0  0  0  0  0  0  0  0  0  0  0
  -21.8255   -8.6856   20.8894 C   0  0  0  0  0  0  0  0  0  0  0  0
  -23.4594  -15.1261   20.7364 C   0  0  0  0  0  0  0  0  0  0  0  0
  -22.1348   -9.8953   21.5400 C   0  0  0  0  0  0  0  0  0  0  0  0
  -24.3865  -15.6867   21.6265 C   0  0  0  0  0  0  0  0  0  0  0  0
  -30.2542  -25.9833   20.0475 C   0  0  0  0  0  0  0  0  0  0  0  0
  -22.6327  -17.0971   22.5457 C   0  0  0  0  0  0  0  0  0  0  0  0
  -30.3825  -24.3242   18.3882 C   0  0  0  0  0  0  0  0  0  0  0  0
  -29.1107  -22.7824   16.4420 C   0  0  0  0  0  0  0  0  0  0  0  0
  -30.3818  -22.9331   18.4910 C   0  0  0  0  0  0  0  0  0  0  0  0
  -27.8953  -28.7556   22.2034 C   0  0  0  0  0  0  0  0  0  0  0  0
  -21.8991  -26.4008   21.8819 C   0  0  0  0  0  0  0  0  0  0  0  0
  -20.8669  -24.7186   22.9399 C   0  0  0  0  0  0  0  0  0  0  0  0
  -27.1458  -30.1961   23.6860 C   0  0  0  0  0  0  0  0  0  0  0  0
  -21.7216  -19.2167   22.9304 C   0  0  0  0  0  0  0  0  0  1  0  0
  -29.4357  -29.3254   24.1827 C   0  0  0  0  0  0  0  0  0  0  0  0
  -22.1442  -27.4808   20.9091 C   0  0  0  0  0  0  0  0  0  0  0  0
  -21.2783  -20.2669   23.6389 C   0  0  0  0  0  0  0  0  0  0  0  0
  -20.7524  -21.4502   22.8856 C   0  0  0  0  0  0  0  0  0  0  0  0
  -24.8936  -12.3359   21.2480 C   0  0  0  0  0  0  0  0  0  0  0  0
  -27.5367  -13.9645   20.3079 C   0  0  0  0  0  0  0  0  0  0  0  0
  -29.1126  -16.9702   19.9488 C   0  0  0  0  0  0  0  0  0  0  0  0
  -23.9203  -28.5338   19.5867 C   0  0  0  0  0  0  0  0  0  0  0  0
  -22.8967   -7.6980   20.4997 C   0  0  0  0  0  0  0  0  0  0  0  0
  -23.8937  -14.0891   19.7372 C   0  0  0  0  0  0  0  0  0  0  0  0
  -25.8300  -15.2572   21.6427 C   0  0  0  0  0  0  0  0  0  0  0  0
  -24.2985   -8.3015   20.4663 C   0  0  0  0  0  0  0  0  0  0  0  0
  -24.9679  -31.8657   20.3071 C   0  0  0  0  0  0  0  0  0  0  0  0
  -24.5507   -9.1354   21.7184 C   0  0  0  0  0  0  0  0  0  0  0  0
  -24.9344  -31.9623   21.8297 C   0  0  0  0  0  0  0  0  0  0  0  0
  -23.8259  -31.0021   19.7899 C   0  0  0  0  0  0  0  0  0  0  0  0
  -23.8177  -29.6599   21.8782 C   0  0  0  0  0  0  0  0  0  0  0  0
  -23.5660  -10.3075   21.8082 C   0  0  1  0  0  0  0  0  0  0  0  0
  -25.1536  -13.3410   20.1618 C   0  0  1  0  0  0  0  0  0  0  0  0
  -24.8695  -30.5897   22.5210 C   0  0  1  0  0  0  0  0  0  0  0  0
  -18.7323  -24.2559   24.2134 C   0  0  0  0  0  0  0  0  0  0  0  0
  -30.8932  -18.5979   19.2577 C   0  0  0  0  0  0  0  0  0  0  0  0
  -28.8677  -13.0505   22.8970 C   0  0  0  0  0  0  0  0  0  0  0  0
  -30.6085  -14.8148   22.5431 C   0  0  0  0  0  0  0  0  0  0  0  0
  -30.3454  -12.9737   20.8807 C   0  0  0  0  0  0  0  0  0  0  0  0
  -19.6519  -25.7381   21.0036 C   0  0  0  0  0  0  0  0  0  0  0  0
  -23.5689  -26.1255   19.3746 C   0  0  0  0  0  0  0  0  0  0  0  0
  -27.8838  -17.3616   17.2851 C   0  0  0  0  0  0  0  0  0  0  0  0
  -19.7746  -23.7140   23.2373 C   0  0  2  0  0  0  0  0  0  0  0  0
  -28.5900  -14.7887   21.0082 C   0  0  1  0  0  0  0  0  0  0  0  0
  -29.8715  -17.5767   18.7823 C   0  0  2  0  0  0  0  0  0  0  0  0
  -29.5753  -13.9138   21.8335 C   0  0  0  0  0  0  0  0  0  0  0  0
  -26.6808  -29.0908   21.7600 N   0  0  0  0  0  0  0  0  0  0  0  0
  -20.7716  -25.6223   21.9141 N   0  0  0  0  0  0  0  0  0  0  0  0
  -26.2505  -29.9679   22.6828 N   0  0  0  0  0  0  0  0  0  0  0  0
  -26.2045  -14.2358   20.6507 N   0  0  0  0  0  0  0  0  0  0  0  0
  -23.8363  -29.6766   20.4070 N   0  0  0  0  0  0  0  0  0  0  0  0
  -26.8737  -31.0502   24.6954 N   0  0  0  0  0  0  0  0  0  0  0  0
  -29.5018  -28.3601   25.1966 N   0  0  0  0  0  0  0  0  0  0  0  0
  -20.3253  -22.4679   23.7211 N   0  0  0  0  0  0  0  0  0  0  0  0
  -23.9633  -11.3713   20.9110 N   0  0  0  0  0  0  0  0  0  0  0  0
  -29.2295  -15.5966   19.9754 N   0  0  0  0  0  0  0  0  0  0  0  0
  -23.2720  -27.3786   20.0701 N   0  0  0  0  0  0  0  0  0  0  0  0
  -28.9291  -18.2547   17.8477 N   0  3  0  0  0  0  0  0  0  0  0  0
  -30.4122  -30.0912   23.9996 O   0  0  0  0  0  0  0  0  0  0  0  0
  -21.3271  -28.4009   20.8892 O   0  0  0  0  0  0  0  0  0  0  0  0
  -20.7161  -21.4815   21.6587 O   0  0  0  0  0  0  0  0  0  0  0  0
  -25.4936  -12.4279   22.3125 O   0  0  0  0  0  0  0  0  0  0  0  0
  -27.8829  -13.1163   19.4819 O   0  0  0  0  0  0  0  0  0  0  0  0
  -28.4825  -17.6476   20.7579 O   0  0  0  0  0  0  0  0  0  0  0  0
  -24.5023  -28.5371   18.4960 O   0  0  0  0  0  0  0  0  0  0  0  0
  -21.2736  -20.3286   25.0151 O   0  0  0  0  0  0  0  0  0  0  0  0
  -31.0127  -25.0910   19.3540 O   0  0  0  0  0  0  0  0  0  0  0  0
  -22.2334  -18.0518   23.4294 O   0  0  0  0  0  0  0  0  0  1  0  0
  -28.4987  -22.0424   15.5082 F   0  0  0  0  0  0  0  0  0  0  0  0
  -30.9895  -22.3317   19.5229 F   0  0  0  0  0  0  0  0  0  0  0  0
  1  2  1  0  0  0  0
  1  5  2  0  0  0  0
  2  6  2  0  0  0  0
  3  8  2  0  0  0  0
  3 17  1  0  0  0  0
  4  9  1  0  0  0  0
  4 17  2  0  0  0  0
  5 19  1  0  0  0  0
  6 21  1  0  0  0  0
  7 10  2  0  0  0  0
  7 20  1  0  0  0  0
  8 23  1  0  0  0  0
  9 23  2  0  0  0  0
 10 24  1  0  0  0  0
 11 12  2  0  0  0  0
 11 25  1  0  0  0  0
 12 26  1  0  0  0  0
 13 14  1  0  0  0  0
 13 29  2  0  0  0  0
 14 30  2  0  0  0  0
 15 22  1  0  0  0  0
 15 24  2  0  0  0  0
 16 26  2  0  0  0  0
 16 27  1  0  0  0  0
 17 28  1  0  0  0  0
 18 28  1  0  0  0  0
 18 31  2  0  0  0  0
 18 33  1  0  0  0  0
 19 21  2  0  0  0  0
 19 41  1  0  0  0  0
 20 22  2  0  0  0  0
 20 42  1  0  0  0  0
 21 50  1  0  0  0  0
 22 43  1  0  0  0  0
 23 85  1  0  0  0  0
 24 86  1  0  0  0  0
 25 27  2  0  0  0  0
 25 85  1  0  0  0  0
 26 87  1  0  0  0  0
 27 88  1  0  0  0  0
 28 65  2  0  0  0  0
 29 34  1  0  0  0  0
 29 66  1  0  0  0  0
 30 61  1  0  0  0  0
 30 66  1  0  0  0  0
 31 67  1  0  0  0  0
 31 70  1  0  0  0  0
 32 35  2  0  0  0  0
 32 86  1  0  0  0  0
 33 71  1  0  0  0  0
 33 77  2  0  0  0  0
 34 75  1  0  0  0  0
 34 78  2  0  0  0  0
 35 36  1  0  0  0  0
 35 84  1  0  0  0  0
 36 72  1  0  0  0  0
 36 79  2  0  0  0  0
 37 51  1  0  0  0  0
 37 73  1  0  0  0  0
 37 80  2  0  0  0  0
 38 62  1  0  0  0  0
 38 68  1  0  0  0  0
 38 81  2  0  0  0  0
 39 63  1  0  0  0  0
 39 74  1  0  0  0  0
 39 82  2  0  0  0  0
 40 69  1  0  0  0  0
 40 75  1  0  0  0  0
 40 83  2  0  0  0  0
 41 44  1  0  0  0  0
 42 51  1  0  0  0  0
 43 68  1  0  0  0  0
 44 46  1  0  0  0  0
 45 47  1  0  0  0  0
 45 48  1  0  0  0  0
 46 50  1  0  0  0  0
 47 52  1  0  0  0  0
 48 69  1  0  0  0  0
 49 52  1  0  0  0  0
 49 69  1  0  0  0  0
 50 73  1  0  0  0  0
 51 68  1  0  0  0  0
 52 67  1  0  0  0  0
 53 61  1  0  0  0  0
 54 63  1  0  0  0  0
 55 64  1  0  0  0  0
 56 64  1  0  0  0  0
 57 64  1  0  0  0  0
 58 66  1  0  0  0  0
 59 75  1  0  0  0  0
 60 76  1  0  0  0  0
 61 72  1  0  0  0  0
 62 64  1  0  0  0  0
 62 74  1  0  0  0  0
 63 76  1  0  0  0  0
 65 67  1  0  0  0  0
M  CHG  1  76   1
M  ISO  4  32 101  40 100  75 100  86 101
M  END
> <Batch ID>
0091

> <Smiles>
CNC(C)C(=O)NC(C(=O)N1Cc2cc([101O:1][101CH2:1]C(=O)C(=O)NC(C)c3ccc(C(=O)[100N:0](C)[100C:0](=O)N4CCCC(n5nc(-c6ccc(Oc7ccc(F)cc7F)cc6)c(C(N)=O)c5N)C4)n3C)ccc2CC1C(=O)NC1CCCc2ccccc21)C(C)(C)C

> <Shape>
0.294

> <Color>
0.045

> <Negative vol penalty>
0.000

$$$$

  -OEChem-04052300313D

 85 93  0     1  0  0  0  0  0999 V2000
  -29.7790  -32.5448   24.6635 C   0  0  0  0  0  0  0  0  0  0  0  0
  -29.5592  -31.3413   24.0011 C   0  0  0  0  0  0  0  0  0  0  0  0
  -23.5212  -12.4675   15.7354 C   0  0  0  0  0  0  0  0  0  0  0  0
  -22.7837  -10.9930   17.5014 C   0  0  0  0  0  0  0  0  0  0  0  0
  -28.7561  -33.1232   25.4138 C   0  0  0  0  0  0  0  0  0  0  0  0
  -28.3165  -30.7149   24.0897 C   0  0  0  0  0  0  0  0  0  0  0  0
  -26.6648  -29.0333   19.6076 C   0  0  0  0  0  0  0  0  0  0  0  0
  -22.7213  -11.7771   14.8249 C   0  0  0  0  0  0  0  0  0  0  0  0
  -21.9837  -10.3026   16.5909 C   0  0  0  0  0  0  0  0  0  0  0  0
  -27.2202  -27.8477   19.1284 C   0  0  0  0  0  0  0  0  0  0  0  0
  -19.4514  -11.6574   13.9724 C   0  0  0  0  0  0  0  0  0  0  0  0
  -18.6807  -12.4096   13.0860 C   0  0  0  0  0  0  0  0  0  0  0  0
  -28.5268  -18.6383   20.9439 C   0  0  0  0  0  0  0  0  0  0  0  0
  -25.2743  -26.6381   19.8830 C   0  0  0  0  0  0  0  0  0  0  0  0
  -29.5068  -20.8541   19.5610 C   0  0  0  0  0  0  0  0  0  0  0  0
  -19.8227  -11.3822   11.2212 C   0  0  0  0  0  0  0  0  0  0  0  0
  -23.5524  -12.0754   17.0737 C   0  0  0  0  0  0  0  0  0  0  0  0
  -29.7907  -18.5904   20.3560 C   0  0  0  0  0  0  0  0  0  0  0  0
  -24.0139  -13.9026   18.7930 C   0  0  0  0  0  0  0  0  0  0  0  0
  -27.4973  -32.5085   25.5038 C   0  0  0  0  0  0  0  0  0  0  0  0
  -25.4127  -29.0285   20.2390 C   0  0  0  0  0  0  0  0  0  0  0  0
  -27.2762  -31.2850   24.8431 C   0  0  0  0  0  0  0  0  0  0  0  0
  -24.7041  -27.8254   20.3671 C   0  0  0  0  0  0  0  0  0  0  0  0
  -30.2807  -19.6983   19.6646 C   0  0  0  0  0  0  0  0  0  0  0  0
  -27.7527  -19.7941   20.8404 C   0  0  0  0  0  0  0  0  0  0  0  0
  -28.2427  -20.9020   20.1490 C   0  0  0  0  0  0  0  0  0  0  0  0
  -21.9525  -10.6946   15.2526 C   0  0  0  0  0  0  0  0  0  0  0  0
  -26.5263  -26.6495   19.2686 C   0  0  0  0  0  0  0  0  0  0  0  0
  -20.4078  -10.7675   13.4832 C   0  0  0  0  0  0  0  0  0  0  0  0
  -18.8663  -12.2720   11.7104 C   0  0  0  0  0  0  0  0  0  0  0  0
  -20.5934  -10.6299   12.1076 C   0  0  0  0  0  0  0  0  0  0  0  0
  -24.3790  -12.7879   18.0146 C   0  0  0  0  0  0  0  0  0  0  0  0
  -25.1432  -14.2016   19.5154 C   0  0  0  0  0  0  0  0  0  0  0  0
  -30.5937  -17.3468   20.4814 C   0  0  0  0  0  0  0  0  0  0  0  0
  -22.7656  -14.6049   18.8575 C   0  0  0  0  0  0  0  0  0  0  0  0
  -24.3634  -29.7726   23.1457 C   0  0  0  0  0  0  0  0  0  0  0  0
  -21.4565  -29.2420   21.8076 C   0  0  0  0  0  0  0  0  0  0  0  0
  -27.8279  -23.2612   19.3770 C   0  0  0  0  0  0  0  0  0  0  0  0
  -19.6260  -27.7109   19.3678 C   0  0  0  0  0  0  0  0  0  0  0  0
  -30.6200  -14.9376   19.9170 C   0  0  0  0  0  0  0  0  0  0  0  0
  -26.4372  -33.1476   26.3654 C   0  0  0  0  0  0  0  0  0  0  0  0
  -24.8154  -30.3200   20.7266 C   0  0  0  0  0  0  0  0  0  0  0  0
  -23.3475  -27.7696   21.0191 C   0  0  0  0  0  0  0  0  0  0  0  0
  -25.0328  -32.6100   26.1025 C   0  0  0  0  0  0  0  0  0  0  0  0
  -29.4509  -11.6078   20.1238 C   0  0  0  0  0  0  0  0  0  0  0  0
  -25.0473  -31.0859   26.0422 C   0  0  0  0  0  0  0  0  0  0  0  0
  -27.9935  -11.7076   19.6653 C   0  0  0  0  0  0  0  0  0  0  0  0
  -30.3611  -12.5432   19.3291 C   0  0  0  0  0  0  0  0  0  0  0  0
  -28.4745  -14.0415   18.8253 C   0  0  0  0  0  0  0  0  0  0  0  0
  -25.9342  -30.5876   24.8948 C   0  0  1  0  0  0  0  0  0  0  0  0
  -23.7630  -30.1191   21.8126 C   0  0  1  0  0  0  0  0  0  0  0  0
  -27.5066  -13.1705   19.6424 C   0  0  1  0  0  0  0  0  0  0  0  0
  -31.6309  -19.6734   19.0253 C   0  0  0  0  0  0  0  0  0  0  0  0
  -17.2681  -27.4349   18.5545 C   0  0  0  0  0  0  0  0  0  0  0  0
  -20.8981  -27.2992   24.0931 C   0  0  0  0  0  0  0  0  0  0  0  0
  -19.0006  -26.3718   22.7486 C   0  0  0  0  0  0  0  0  0  0  0  0
  -18.9659  -28.7595   23.4697 C   0  0  0  0  0  0  0  0  0  0  0  0
  -20.2628  -28.9351   16.7497 C   0  0  0  0  0  0  0  0  0  0  0  0
  -26.7172  -24.2891   19.4883 C   0  0  0  0  0  0  0  0  0  1  0  0
  -20.5587  -28.0395   21.6431 C   0  0  1  0  0  0  0  0  0  0  0  0
  -18.5533  -28.2387   18.4324 C   0  0  2  0  0  0  0  0  0  0  0  0
  -19.8822  -27.6179   22.9780 C   0  0  0  0  0  0  0  0  0  0  0  0
  -25.6415  -12.4048   18.2227 N   0  0  0  0  0  0  0  0  0  0  0  0
  -26.0797  -13.2838   19.1400 N   0  0  0  0  0  0  0  0  0  0  0  0
  -22.8085  -29.0579   21.4854 N   0  0  0  0  0  0  0  0  0  0  0  0
  -29.8363  -13.9094   19.3646 N   0  0  0  0  0  0  0  0  0  0  0  0
  -26.4752  -19.8210   21.4436 N   0  0  0  0  0  0  0  0  0  0  0  0
  -25.4166  -15.1575   20.4286 N   0  0  0  0  0  0  0  0  0  0  0  0
  -21.7091  -14.1653   18.0482 N   0  0  0  0  0  0  0  0  0  0  0  0
  -27.4758  -22.0853   20.0308 N   0  0  0  0  0  0  0  0  0  0  0  0
  -30.0129  -16.1981   19.9434 N   0  0  0  0  0  0  0  0  0  0  0  0
  -25.2451  -30.7204   23.6291 N   0  0  0  0  0  0  0  0  0  0  0  0
  -19.6203  -28.3734   20.5771 N   0  0  0  0  0  0  0  0  0  0  0  0
  -19.0189  -28.1687   17.0184 N   0  3  0  0  0  0  0  0  0  0  0  0
  -31.7059  -17.4028   20.9988 O   0  0  0  0  0  0  0  0  0  0  0  0
  -22.5973  -15.6031   19.5983 O   0  0  0  0  0  0  0  0  0  0  0  0
  -24.0487  -28.7238   23.6958 O   0  0  0  0  0  0  0  0  0  0  0  0
  -20.9744  -30.3073   22.2004 O   0  0  0  0  0  0  0  0  0  0  0  0
  -28.8695  -23.5033   18.7762 O   0  0  0  0  0  0  0  0  0  0  0  0
  -20.3900  -26.7993   19.0583 O   0  0  0  0  0  0  0  0  0  0  0  0
  -31.7476  -14.7432   20.3816 O   0  0  0  0  0  0  0  0  0  0  0  0
  -21.1716  -10.0208   14.3645 O   0  0  0  0  0  0  0  0  0  0  0  0
  -27.0664  -25.4907   18.8023 O   0  0  0  0  0  0  0  0  0  1  0  0
  -18.1251  -12.9933   10.8592 F   0  0  0  0  0  0  0  0  0  0  0  0
  -21.5099   -9.7758   11.6317 F   0  0  0  0  0  0  0  0  0  0  0  0
  1  2  1  0  0  0  0
  1  5  2  0  0  0  0
  2  6  2  0  0  0  0
  3  8  2  0  0  0  0
  3 17  1  0  0  0  0
  4  9  1  0  0  0  0
  4 17  2  0  0  0  0
  5 20  1  0  0  0  0
  6 22  1  0  0  0  0
  7 10  2  0  0  0  0
  7 21  1  0  0  0  0
  8 27  1  0  0  0  0
  9 27  2  0  0  0  0
 10 28  1  0  0  0  0
 11 12  2  0  0  0  0
 11 29  1  0  0  0  0
 12 30  1  0  0  0  0
 13 18  2  0  0  0  0
 13 25  1  0  0  0  0
 14 23  1  0  0  0  0
 14 28  2  0  0  0  0
 15 24  2  0  0  0  0
 15 26  1  0  0  0  0
 16 30  2  0  0  0  0
 16 31  1  0  0  0  0
 17 32  1  0  0  0  0
 18 24  1  0  0  0  0
 18 34  1  0  0  0  0
 19 32  1  0  0  0  0
 19 33  2  0  0  0  0
 19 35  1  0  0  0  0
 20 22  2  0  0  0  0
 20 41  1  0  0  0  0
 21 23  2  0  0  0  0
 21 42  1  0  0  0  0
 22 50  1  0  0  0  0
 23 43  1  0  0  0  0
 24 53  1  0  0  0  0
 25 26  2  0  0  0  0
 25 67  1  0  0  0  0
 26 70  1  0  0  0  0
 27 82  1  0  0  0  0
 28 83  1  0  0  0  0
 29 31  2  0  0  0  0
 29 82  1  0  0  0  0
 30 84  1  0  0  0  0
 31 85  1  0  0  0  0
 32 63  2  0  0  0  0
 33 64  1  0  0  0  0
 33 68  1  0  0  0  0
 34 71  1  0  0  0  0
 34 75  2  0  0  0  0
 35 69  1  0  0  0  0
 35 76  2  0  0  0  0
 36 51  1  0  0  0  0
 36 72  1  0  0  0  0
 36 77  2  0  0  0  0
 37 60  1  0  0  0  0
 37 65  1  0  0  0  0
 37 78  2  0  0  0  0
 38 59  1  0  0  0  0
 38 70  1  0  0  0  0
 38 79  2  0  0  0  0
 39 61  1  0  0  0  0
 39 73  1  0  0  0  0
 39 80  2  0  0  0  0
 40 66  1  0  0  0  0
 40 71  1  0  0  0  0
 40 81  2  0  0  0  0
 41 44  1  0  0  0  0
 42 51  1  0  0  0  0
 43 65  1  0  0  0  0
 44 46  1  0  0  0  0
 45 47  1  0  0  0  0
 45 48  1  0  0  0  0
 46 50  1  0  0  0  0
 47 52  1  0  0  0  0
 48 66  1  0  0  0  0
 49 52  1  0  0  0  0
 49 66  1  0  0  0  0
 50 72  1  0  0  0  0
 51 65  1  0  0  0  0
 52 64  1  0  0  0  0
 54 61  1  0  0  0  0
 55 62  1  0  0  0  0
 56 62  1  0  0  0  0
 57 62  1  0  0  0  0
 58 74  1  0  0  0  0
 59 83  1  0  0  0  0
 60 62  1  0  0  0  0
 60 73  1  0  0  0  0
 61 74  1  0  0  0  0
 63 64  1  0  0  0  0
M  CHG  1  74   1
M  ISO  4  40 100  59 101  71 100  83 101
M  END
> <Batch ID>
0091

> <Smiles>
CNC(C)C(=O)NC(C(=O)N1Cc2cc([101O:1][101CH2:1]C(=O)Nc3cc(C)c(C(=O)[100NH:0][100C:0](=O)N4CCCC(n5nc(-c6ccc(Oc7ccc(F)cc7F)cc6)c(C(N)=O)c5N)C4)cc3N)ccc2CC1C(=O)NC1CCCc2ccccc21)C(C)(C)C

> <Shape>
0.278

> <Color>
0.120

> <Negative vol penalty>
0.000

$$$$

  -OEChem-04052300313D

 86 94  0     1  0  0  0  0  0999 V2000
  -19.2671  -31.6030   12.9648 C   0  0  0  0  0  0  0  0  0  0  0  0
  -19.3316  -30.2229   12.8017 C   0  0  0  0  0  0  0  0  0  0  0  0
  -23.1920   -9.8163   19.9308 C   0  0  0  0  0  0  0  0  0  0  0  0
  -23.5513  -10.0018   22.3127 C   0  0  0  0  0  0  0  0  0  0  0  0
  -20.1233  -32.2384   13.8631 C   0  0  0  0  0  0  0  0  0  0  0  0
  -20.2532  -29.4775   13.5362 C   0  0  0  0  0  0  0  0  0  0  0  0
  -19.4940  -23.8082   15.7244 C   0  0  0  0  0  0  0  0  0  0  0  0
  -22.4220   -8.6715   20.1361 C   0  0  0  0  0  0  0  0  0  0  0  0
  -22.7812   -8.8570   22.5181 C   0  0  0  0  0  0  0  0  0  0  0  0
  -19.8981  -22.5594   15.2543 C   0  0  0  0  0  0  0  0  0  0  0  0
  -23.1784   -5.5090   22.2654 C   0  0  0  0  0  0  0  0  0  0  0  0
  -23.6679   -4.5489   23.1510 C   0  0  0  0  0  0  0  0  0  0  0  0
  -28.3689  -18.3371   15.1433 C   0  0  0  0  0  0  0  0  0  0  0  0
  -21.8386  -22.6558   16.6841 C   0  0  0  0  0  0  0  0  0  0  0  0
  -25.9091  -18.1800   16.4501 C   0  0  0  0  0  0  0  0  0  0  0  0
  -21.7006   -4.8158   24.5278 C   0  0  0  0  0  0  0  0  0  0  0  0
  -23.7567  -10.4814   21.0191 C   0  0  0  0  0  0  0  0  0  0  0  0
  -28.2263  -17.5214   16.2657 C   0  0  0  0  0  0  0  0  0  0  0  0
  -24.1019  -12.9968   20.7720 C   0  0  0  0  0  0  0  0  0  0  0  0
  -21.0492  -31.4993   14.6161 C   0  0  0  0  0  0  0  0  0  0  0  0
  -20.2662  -24.4962   16.6714 C   0  0  0  0  0  0  0  0  0  0  0  0
  -21.1235  -30.1038   14.4445 C   0  0  0  0  0  0  0  0  0  0  0  0
  -21.4408  -23.9120   17.1665 C   0  0  0  0  0  0  0  0  0  0  0  0
  -27.2816  -19.0744   14.6742 C   0  0  0  0  0  0  0  0  0  0  0  0
  -26.0517  -18.9958   15.3276 C   0  0  0  0  0  0  0  0  0  0  0  0
  -22.2166   -8.1919   21.4297 C   0  0  0  0  0  0  0  0  0  0  0  0
  -21.0720  -21.9843   15.7320 C   0  0  0  0  0  0  0  0  0  0  0  0
  -21.9500   -6.1226   22.5110 C   0  0  0  0  0  0  0  0  0  0  0  0
  -22.9291   -4.2023   24.2821 C   0  0  0  0  0  0  0  0  0  0  0  0
  -26.9965  -17.4428   16.9191 C   0  0  0  0  0  0  0  0  0  0  0  0
  -21.2112   -5.7759   23.6422 C   0  0  0  0  0  0  0  0  0  0  0  0
  -24.5527  -11.6637   20.8076 C   0  0  0  0  0  0  0  0  0  0  0  0
  -25.2363  -13.7369   20.5441 C   0  0  0  0  0  0  0  0  0  0  0  0
  -29.3874  -16.7409   16.7654 C   0  0  0  0  0  0  0  0  0  0  0  0
  -22.7763  -13.5195   20.9308 C   0  0  0  0  0  0  0  0  0  0  0  0
  -21.8165  -27.2708   16.7131 C   0  0  0  0  0  0  0  0  0  0  0  0
  -22.2788  -26.5207   19.8350 C   0  0  0  0  0  0  0  0  0  0  0  0
  -22.4708  -24.1031   22.2361 C   0  0  0  0  0  0  0  0  0  0  0  0
  -23.6581  -19.7717   15.4154 C   0  0  0  0  0  0  0  0  0  0  0  0
  -30.0211  -14.6343   17.8987 C   0  0  0  0  0  0  0  0  0  0  0  0
  -21.9864  -32.2359   15.5401 C   0  0  0  0  0  0  0  0  0  0  0  0
  -19.8026  -25.8305   17.1883 C   0  0  0  0  0  0  0  0  0  0  0  0
  -22.2947  -24.6004   18.1986 C   0  0  0  0  0  0  0  0  0  0  0  0
  -22.6780  -31.3297   16.5553 C   0  0  0  0  0  0  0  0  0  0  0  0
  -30.1202  -12.3977   20.6345 C   0  0  0  0  0  0  0  0  0  0  0  0
  -23.2235  -30.0803   15.8710 C   0  0  0  0  0  0  0  0  0  0  0  0
  -28.6432  -12.1210   20.9284 C   0  0  0  0  0  0  0  0  0  0  0  0
  -30.3877  -12.5169   19.1348 C   0  0  0  0  0  0  0  0  0  0  0  0
  -28.0584  -13.1933   18.7166 C   0  0  0  0  0  0  0  0  0  0  0  0
  -22.0928  -29.2578   15.2414 C   0  0  1  0  0  0  0  0  0  0  0  0
  -20.9341  -26.6713   17.7713 C   0  0  1  0  0  0  0  0  0  0  0  0
  -27.7252  -13.1346   20.2162 C   0  0  1  0  0  0  0  0  0  0  0  0
  -27.4632  -19.9402   13.4699 C   0  0  0  0  0  0  0  0  0  0  0  0
  -22.8989  -23.7927   24.6892 C   0  0  0  0  0  0  0  0  0  0  0  0
  -22.5458  -20.2122   13.1955 C   0  0  0  0  0  0  0  0  0  0  0  0
  -25.2637  -26.9445   19.3652 C   0  0  0  0  0  0  0  0  0  0  0  0
  -25.7029  -25.7272   21.5085 C   0  0  0  0  0  0  0  0  0  0  0  0
  -24.4081  -27.8592   21.5299 C   0  0  0  0  0  0  0  0  0  0  0  0
  -19.7842  -22.9423   22.6763 C   0  0  0  0  0  0  0  0  0  0  0  0
  -23.3324  -25.7651   20.6083 C   0  0  1  0  0  0  0  0  0  0  0  0
  -21.8431  -24.0003   23.6145 C   0  0  2  0  0  0  0  0  0  0  0  0
  -22.7378  -20.6979   14.6245 C   0  0  1  0  0  0  0  0  0  1  0  0
  -24.6619  -26.5616   20.7321 C   0  0  0  0  0  0  0  0  0  0  0  0
  -25.8706  -11.5598   20.6174 N   0  0  0  0  0  0  0  0  0  0  0  0
  -26.2577  -12.8370   20.4600 N   0  0  0  0  0  0  0  0  0  0  0  0
  -21.8026  -25.9061   18.6682 N   0  0  0  0  0  0  0  0  0  0  0  0
  -29.4850  -13.5025   18.5373 N   0  0  0  0  0  0  0  0  0  0  0  0
  -25.4497  -15.0631   20.4093 N   0  0  0  0  0  0  0  0  0  0  0  0
  -21.7261  -12.6197   21.1586 N   0  0  0  0  0  0  0  0  0  0  0  0
  -24.9369  -19.7374   14.8691 N   0  0  0  0  0  0  0  0  0  0  0  0
  -29.0763  -15.5370   17.3982 N   0  0  0  0  0  0  0  0  0  0  0  0
  -21.3902  -28.5036   16.2573 N   0  0  0  0  0  0  0  0  0  0  0  0
  -22.7257  -25.4125   21.8873 N   0  0  0  0  0  0  0  0  0  0  0  0
  -20.8894  -22.8564   23.6654 N   0  3  0  0  0  0  0  0  0  0  0  0
  -30.5228  -17.1639   16.5658 O   0  0  0  0  0  0  0  0  0  0  0  0
  -22.5278  -14.7468   20.8561 O   0  0  0  0  0  0  0  0  0  0  0  0
  -22.8112  -26.6607   16.3390 O   0  0  0  0  0  0  0  0  0  0  0  0
  -21.8874  -27.6126   20.2547 O   0  0  0  0  0  0  0  0  0  0  0  0
  -22.7142  -23.1199   21.5400 O   0  0  0  0  0  0  0  0  0  0  0  0
  -23.2578  -19.1749   16.4107 O   0  0  0  0  0  0  0  0  0  0  0  0
  -31.2355  -14.8427   17.8149 O   0  0  0  0  0  0  0  0  0  0  0  0
  -21.4651   -7.0750   21.6305 O   0  0  0  0  0  0  0  0  0  0  0  0
  -21.4691  -20.7658   15.2743 O   0  0  0  0  0  0  0  0  0  1  0  0
  -23.3985   -3.2792   25.1316 F   0  0  0  0  0  0  0  0  0  0  0  0
  -26.8497  -16.6644   18.0007 F   0  0  0  0  0  0  0  0  0  0  0  0
  -20.0298   -6.3611   23.8829 F   0  0  0  0  0  0  0  0  0  0  0  0
  1  2  1  0  0  0  0
  1  5  2  0  0  0  0
  2  6  2  0  0  0  0
  3  8  2  0  0  0  0
  3 17  1  0  0  0  0
  4  9  1  0  0  0  0
  4 17  2  0  0  0  0
  5 20  1  0  0  0  0
  6 22  1  0  0  0  0
  7 10  2  0  0  0  0
  7 21  1  0  0  0  0
  8 26  1  0  0  0  0
  9 26  2  0  0  0  0
 10 27  1  0  0  0  0
 11 12  2  0  0  0  0
 11 28  1  0  0  0  0
 12 29  1  0  0  0  0
 13 18  2  0  0  0  0
 13 24  1  0  0  0  0
 14 23  1  0  0  0  0
 14 27  2  0  0  0  0
 15 25  1  0  0  0  0
 15 30  2  0  0  0  0
 16 29  2  0  0  0  0
 16 31  1  0  0  0  0
 17 32  1  0  0  0  0
 18 30  1  0  0  0  0
 18 34  1  0  0  0  0
 19 32  1  0  0  0  0
 19 33  2  0  0  0  0
 19 35  1  0  0  0  0
 20 22  2  0  0  0  0
 20 41  1  0  0  0  0
 21 23  2  0  0  0  0
 21 42  1  0  0  0  0
 22 50  1  0  0  0  0
 23 43  1  0  0  0  0
 24 25  2  0  0  0  0
 24 53  1  0  0  0  0
 25 70  1  0  0  0  0
 26 82  1  0  0  0  0
 27 83  1  0  0  0  0
 28 31  2  0  0  0  0
 28 82  1  0  0  0  0
 29 84  1  0  0  0  0
 30 85  1  0  0  0  0
 31 86  1  0  0  0  0
 32 64  2  0  0  0  0
 33 65  1  0  0  0  0
 33 68  1  0  0  0  0
 34 71  1  0  0  0  0
 34 75  2  0  0  0  0
 35 69  1  0  0  0  0
 35 76  2  0  0  0  0
 36 51  1  0  0  0  0
 36 72  1  0  0  0  0
 36 77  2  0  0  0  0
 37 60  1  0  0  0  0
 37 66  1  0  0  0  0
 37 78  2  0  0  0  0
 38 61  1  0  0  0  0
 38 73  1  0  0  0  0
 38 79  2  0  0  0  0
 39 62  1  0  0  0  0
 39 70  1  0  0  0  0
 39 80  2  0  0  0  0
 40 67  1  0  0  0  0
 40 71  1  0  0  0  0
 40 81  2  0  0  0  0
 41 44  1  0  0  0  0
 42 51  1  0  0  0  0
 43 66  1  0  0  0  0
 44 46  1  0  0  0  0
 45 47  1  0  0  0  0
 45 48  1  0  0  0  0
 46 50  1  0  0  0  0
 47 52  1  0  0  0  0
 48 67  1  0  0  0  0
 49 52  1  0  0  0  0
 49 67  1  0  0  0  0
 50 72  1  0  0  0  0
 51 66  1  0  0  0  0
 52 65  1  0  0  0  0
 54 61  1  0  0  0  0
 55 62  1  0  0  0  0
 56 63  1  0  0  0  0
 57 63  1  0  0  0  0
 58 63  1  0  0  0  0
 59 74  1  0  0  0  0
 60 63  1  0  0  0  0
 60 73  1  0  0  0  0
 61 74  1  0  0  0  0
 62 83  1  0  0  0  0
 64 65  1  0  0  0  0
M  CHG  1  74   1
M  ISO  4  40 100  62 101  71 100  83 101
M  END
> <Batch ID>
0091

> <Smiles>
CNC(C)C(=O)NC(C(=O)N1Cc2cc([101O:1][101CH:1](C)C(=O)Nc3cc(F)c(C(=O)[100NH:0][100C:0](=O)N4CCCC(n5nc(-c6ccc(Oc7ccc(F)cc7F)cc6)c(C(N)=O)c5N)C4)cc3C)ccc2CC1C(=O)NC1CCCc2ccccc21)C(C)(C)C

> <Shape>
0.155

> <Color>
0.178

> <Negative vol penalty>
0.000

$$$$

  -OEChem-04052300313D

 86 95  0     1  0  0  0  0  0999 V2000
  -26.8703  -37.9856   21.9405 C   0  0  0  0  0  0  0  0  0  0  0  0
  -27.4703  -36.9542   21.2251 C   0  0  0  0  0  0  0  0  0  0  0  0
  -22.9733  -11.1805   21.1639 C   0  0  0  0  0  0  0  0  0  0  0  0
  -24.0478   -9.0405   21.4846 C   0  0  0  0  0  0  0  0  0  0  0  0
  -26.1183  -37.6974   23.0786 C   0  0  0  0  0  0  0  0  0  0  0  0
  -27.3195  -35.6341   21.6481 C   0  0  0  0  0  0  0  0  0  0  0  0
  -26.8179  -28.9688   19.0716 C   0  0  0  0  0  0  0  0  0  0  0  0
  -21.7696  -10.5341   20.8833 C   0  0  0  0  0  0  0  0  0  0  0  0
  -22.8440   -8.3941   21.2041 C   0  0  0  0  0  0  0  0  0  0  0  0
  -27.3917  -27.7078   19.2275 C   0  0  0  0  0  0  0  0  0  0  0  0
  -19.2817   -9.0391   22.6178 C   0  0  0  0  0  0  0  0  0  0  0  0
  -18.1249   -9.5328   23.2207 C   0  0  0  0  0  0  0  0  0  0  0  0
  -26.0044  -27.3223   21.1629 C   0  0  0  0  0  0  0  0  0  0  0  0
  -31.2495  -18.1423   21.9998 C   0  0  0  0  0  0  0  0  0  0  0  0
  -17.1676   -9.9502   21.0421 C   0  0  0  0  0  0  0  0  0  0  0  0
  -24.1125  -10.4337   21.4645 C   0  0  0  0  0  0  0  0  0  0  0  0
  -25.8215  -11.5230   23.0137 C   0  0  0  0  0  0  0  0  0  0  0  0
  -25.9502  -36.3723   23.5103 C   0  0  0  0  0  0  0  0  0  0  0  0
  -25.8391  -29.4211   19.9682 C   0  0  0  0  0  0  0  0  0  0  0  0
  -26.5656  -35.3281   22.7939 C   0  0  0  0  0  0  0  0  0  0  0  0
  -25.4178  -28.5884   21.0147 C   0  0  0  0  0  0  0  0  0  0  0  0
  -31.1822  -19.5623   21.9036 C   0  0  0  0  0  0  0  0  0  0  0  0
  -21.7049   -9.1409   20.9034 C   0  0  0  0  0  0  0  0  0  0  0  0
  -26.9871  -26.8854   20.2750 C   0  0  0  0  0  0  0  0  0  0  0  0
  -19.3816   -9.0010   21.2270 C   0  0  0  0  0  0  0  0  0  0  0  0
  -17.0678   -9.9884   22.4329 C   0  0  0  0  0  0  0  0  0  0  0  0
  -18.3245   -9.4565   20.4392 C   0  0  0  0  0  0  0  0  0  0  0  0
  -25.3563  -11.1009   21.7539 C   0  0  0  0  0  0  0  0  0  0  0  0
  -27.0425  -12.0963   22.7545 C   0  0  0  0  0  0  0  0  0  0  0  0
  -30.3648  -19.9729   20.8736 C   0  0  0  0  0  0  0  0  0  0  0  0
  -30.4806  -17.5217   21.0398 C   0  0  0  0  0  0  0  0  0  0  0  0
  -30.3663  -23.7059   20.1126 C   0  0  0  0  0  0  0  0  0  0  0  0
  -29.0748  -23.9109   19.8258 C   0  0  0  0  0  0  0  0  0  0  0  0
  -30.8840  -22.3769   20.5432 C   0  0  0  0  0  0  0  0  0  0  0  0
  -25.2052  -11.4073   24.3031 C   0  0  0  0  0  0  0  0  0  0  0  0
  -25.6206  -31.8414   22.0171 C   0  0  0  0  0  0  0  0  0  0  0  0
  -22.5772  -30.7710   22.3548 C   0  0  0  0  0  0  0  0  0  0  0  0
  -20.3739  -28.1768   22.1046 C   0  0  0  0  0  0  0  0  0  0  0  0
  -29.9832  -15.6615   19.4626 C   0  0  0  0  0  0  0  0  0  0  0  0
  -25.1675  -36.1140   24.7734 C   0  0  0  0  0  0  0  0  0  0  0  0
  -25.2107  -30.7733   19.7706 C   0  0  0  0  0  0  0  0  0  0  0  0
  -24.3561  -29.0189   21.9924 C   0  0  0  0  0  0  0  0  0  0  0  0
  -28.0892  -22.7867   19.8465 C   0  0  0  0  0  0  0  0  0  0  0  0
  -24.7455  -34.6566   24.9412 C   0  0  0  0  0  0  0  0  0  0  0  0
  -29.8877  -12.0799   18.5833 C   0  0  0  0  0  0  0  0  0  0  0  0
  -25.9181  -33.7247   24.6528 C   0  0  0  0  0  0  0  0  0  0  0  0
  -28.6951  -11.5637   19.3868 C   0  0  0  0  0  0  0  0  0  0  0  0
  -28.7706  -21.4413   19.6298 C   0  0  0  0  0  0  0  0  0  0  0  0
  -29.7200  -13.5470   18.1992 C   0  0  0  0  0  0  0  0  0  0  0  0
  -28.2626  -13.9290   20.1639 C   0  0  0  0  0  0  0  0  0  0  0  0
  -26.4045  -33.8812   23.2070 C   0  0  1  0  0  0  0  0  0  0  0  0
  -24.5913  -31.3365   21.0459 C   0  0  1  0  0  0  0  0  0  0  0  0
  -28.4213  -12.4654   20.6029 C   0  0  1  0  0  0  0  0  0  0  0  0
  -17.9625  -27.5966   22.4866 C   0  0  0  0  0  0  0  0  0  0  0  0
  -23.0826  -30.6606   25.3619 C   0  0  0  0  0  0  0  0  0  0  0  0
  -21.0499  -29.2153   25.5800 C   0  0  0  0  0  0  0  0  0  0  0  0
  -20.8347  -31.5446   24.7135 C   0  0  0  0  0  0  0  0  0  0  0  0
  -30.5544  -15.1479   21.8247 C   0  0  0  0  0  0  0  0  0  0  0  0
  -19.9616  -27.5118   19.2504 C   0  0  0  0  0  0  0  0  0  0  0  0
  -28.5415  -25.2693   19.4826 C   0  0  0  0  0  0  0  0  0  1  0  0
  -21.8890  -29.7711   23.2523 C   0  0  1  0  0  0  0  0  0  0  0  0
  -18.9932  -28.0845   21.4804 C   0  0  2  0  0  0  0  0  0  0  0  0
  -21.7355  -30.2903   24.7098 C   0  0  0  0  0  0  0  0  0  0  0  0
  -26.2119  -11.3821   20.7676 N   0  0  0  0  0  0  0  0  0  0  0  0
  -27.2270  -11.9872   21.4076 N   0  0  0  0  0  0  0  0  0  0  0  0
  -30.0050  -21.2913   20.4105 N   0  0  0  0  0  0  0  0  0  0  0  0
  -23.7763  -30.3522   21.7609 N   0  0  0  0  0  0  0  0  0  0  0  0
  -29.4156  -14.3751   19.3667 N   0  0  0  0  0  0  0  0  0  0  0  0
  -31.8466  -20.4035   22.7308 N   0  0  0  0  0  0  0  0  0  0  0  0
  -27.9654  -12.6780   23.5495 N   0  0  0  0  0  0  0  0  0  0  0  0
  -23.9496  -10.7908   24.3905 N   0  0  0  0  0  0  0  0  0  0  0  0
  -25.5158  -33.1905   22.2972 N   0  0  0  0  0  0  0  0  0  0  0  0
  -20.6270  -29.4383   22.6005 N   0  0  0  0  0  0  0  0  0  0  0  0
  -30.2559  -16.1213   20.7692 N   0  0  0  0  0  0  0  0  0  0  0  0
  -19.0081  -27.1405   20.3274 N   0  3  0  0  0  0  0  0  0  0  0  0
  -32.0442  -22.3351   20.9529 O   0  0  0  0  0  0  0  0  0  0  0  0
  -25.7443  -11.8525   25.3445 O   0  0  0  0  0  0  0  0  0  0  0  0
  -26.4477  -31.0643   22.4793 O   0  0  0  0  0  0  0  0  0  0  0  0
  -22.0659  -31.8801   22.1812 O   0  0  0  0  0  0  0  0  0  0  0  0
  -21.1489  -27.2240   22.1513 O   0  0  0  0  0  0  0  0  0  0  0  0
  -30.2521  -16.3324   18.4590 O   0  0  0  0  0  0  0  0  0  0  0  0
  -20.5304   -8.5098   20.6299 O   0  0  0  0  0  0  0  0  0  0  0  0
  -27.5461  -25.6544   20.4298 O   0  0  0  0  0  0  0  0  0  1  0  0
  -15.9563  -10.4610   23.0120 F   0  0  0  0  0  0  0  0  0  0  0  0
  -18.4141   -9.4213   19.1025 F   0  0  0  0  0  0  0  0  0  0  0  0
  -29.6826  -18.6494   20.0280 S   0  0  0  0  0  0  0  0  0  0  0  0
  1  2  1  0  0  0  0
  1  5  2  0  0  0  0
  2  6  2  0  0  0  0
  3  8  2  0  0  0  0
  3 16  1  0  0  0  0
  4  9  1  0  0  0  0
  4 16  2  0  0  0  0
  5 18  1  0  0  0  0
  6 20  1  0  0  0  0
  7 10  2  0  0  0  0
  7 19  1  0  0  0  0
  8 23  1  0  0  0  0
  9 23  2  0  0  0  0
 10 24  1  0  0  0  0
 11 12  2  0  0  0  0
 11 25  1  0  0  0  0
 12 26  1  0  0  0  0
 13 21  1  0  0  0  0
 13 24  2  0  0  0  0
 14 22  1  0  0  0  0
 14 31  2  0  0  0  0
 15 26  2  0  0  0  0
 15 27  1  0  0  0  0
 16 28  1  0  0  0  0
 17 28  1  0  0  0  0
 17 29  2  0  0  0  0
 17 35  1  0  0  0  0
 18 20  2  0  0  0  0
 18 40  1  0  0  0  0
 19 21  2  0  0  0  0
 19 41  1  0  0  0  0
 20 51  1  0  0  0  0
 21 42  1  0  0  0  0
 22 30  2  0  0  0  0
 22 69  1  0  0  0  0
 23 82  1  0  0  0  0
 24 83  1  0  0  0  0
 25 27  2  0  0  0  0
 25 82  1  0  0  0  0
 26 84  1  0  0  0  0
 27 85  1  0  0  0  0
 28 64  2  0  0  0  0
 29 65  1  0  0  0  0
 29 70  1  0  0  0  0
 30 66  1  0  0  0  0
 30 86  1  0  0  0  0
 31 74  1  0  0  0  0
 31 86  1  0  0  0  0
 32 33  2  0  0  0  0
 32 34  1  0  0  0  0
 33 43  1  0  0  0  0
 33 60  1  0  0  0  0
 34 66  1  0  0  0  0
 34 76  2  0  0  0  0
 35 71  1  0  0  0  0
 35 77  2  0  0  0  0
 36 52  1  0  0  0  0
 36 72  1  0  0  0  0
 36 78  2  0  0  0  0
 37 61  1  0  0  0  0
 37 67  1  0  0  0  0
 37 79  2  0  0  0  0
 38 62  1  0  0  0  0
 38 73  1  0  0  0  0
 38 80  2  0  0  0  0
 39 68  1  0  0  0  0
 39 74  1  0  0  0  0
 39 81  2  0  0  0  0
 40 44  1  0  0  0  0
 41 52  1  0  0  0  0
 42 67  1  0  0  0  0
 43 48  1  0  0  0  0
 44 46  1  0  0  0  0
 45 47  1  0  0  0  0
 45 49  1  0  0  0  0
 46 51  1  0  0  0  0
 47 53  1  0  0  0  0
 48 66  1  0  0  0  0
 49 68  1  0  0  0  0
 50 53  1  0  0  0  0
 50 68  1  0  0  0  0
 51 72  1  0  0  0  0
 52 67  1  0  0  0  0
 53 65  1  0  0  0  0
 54 62  1  0  0  0  0
 55 63  1  0  0  0  0
 56 63  1  0  0  0  0
 57 63  1  0  0  0  0
 58 74  1  0  0  0  0
 59 75  1  0  0  0  0
 60 83  1  0  0  0  0
 61 63  1  0  0  0  0
 61 73  1  0  0  0  0
 62 75  1  0  0  0  0
 64 65  1  0  0  0  0
M  CHG  1  75   1
M  ISO  4  39 100  60 101  74 100  83 101
M  END
> <Batch ID>
0091

> <Smiles>
CNC(C)C(=O)NC(C(=O)N1Cc2cc([101O:1][101CH2:1]C3=CCN(c4sc([100N:0](C)[100C:0](=O)N5CCCC(n6nc(-c7ccc(Oc8ccc(F)cc8F)cc7)c(C(N)=O)c6N)C5)cc4N)C(=O)C3)ccc2CC1C(=O)NC1CCCc2ccccc21)C(C)(C)C

> <Shape>
0.324

> <Color>
0.095

> <Negative vol penalty>
0.000

$$$$

  -OEChem-04052300313D

 88 96  0     1  0  0  0  0  0999 V2000
  -17.1829  -30.3521   23.7484 C   0  0  0  0  0  0  0  0  0  0  0  0
  -18.4981  -30.7993   23.6731 C   0  0  0  0  0  0  0  0  0  0  0  0
  -25.3015  -13.6148   21.5055 C   0  0  0  0  0  0  0  0  0  0  0  0
  -25.0047  -14.1482   19.1679 C   0  0  0  0  0  0  0  0  0  0  0  0
  -16.8875  -29.0131   23.4958 C   0  0  0  0  0  0  0  0  0  0  0  0
  -19.5189  -29.9075   23.3463 C   0  0  0  0  0  0  0  0  0  0  0  0
  -25.8165  -29.6344   19.9429 C   0  0  0  0  0  0  0  0  0  0  0  0
  -24.3658  -12.5869   21.3898 C   0  0  0  0  0  0  0  0  0  0  0  0
  -24.0690  -13.1202   19.0522 C   0  0  0  0  0  0  0  0  0  0  0  0
  -27.1334  -29.2242   20.1457 C   0  0  0  0  0  0  0  0  0  0  0  0
  -24.2797   -9.4176   20.2146 C   0  0  0  0  0  0  0  0  0  0  0  0
  -24.5918   -8.1885   20.7956 C   0  0  0  0  0  0  0  0  0  0  0  0
  -26.4949  -26.9508   19.6522 C   0  0  0  0  0  0  0  0  0  0  0  0
  -29.4077  -23.7361   17.7820 C   0  0  0  0  0  0  0  0  0  0  0  0
  -22.6357   -8.3574   22.2036 C   0  0  0  0  0  0  0  0  0  0  0  0
  -31.0665  -23.7438   16.0776 C   0  0  0  0  0  0  0  0  0  0  0  0
  -25.6209  -14.3955   20.3946 C   0  0  0  0  0  0  0  0  0  0  0  0
  -27.9779  -15.3682   20.3163 C   0  0  0  0  0  0  0  0  0  0  0  0
  -17.9041  -28.1065   23.1563 C   0  0  0  0  0  0  0  0  0  0  0  0
  -24.8250  -28.7027   19.6034 C   0  0  0  0  0  0  0  0  0  0  0  0
  -19.2371  -28.5548   23.0903 C   0  0  0  0  0  0  0  0  0  0  0  0
  -25.1666  -27.3522   19.4432 C   0  0  0  0  0  0  0  0  0  0  0  0
  -30.0803  -24.4213   16.7763 C   0  0  0  0  0  0  0  0  0  0  0  0
  -29.7371  -22.4130   18.0543 C   0  0  0  0  0  0  0  0  0  0  0  0
  -23.7496  -12.3395   20.1632 C   0  0  0  0  0  0  0  0  0  0  0  0
  -27.4722  -27.8818   20.0032 C   0  0  0  0  0  0  0  0  0  0  0  0
  -23.1456  -10.1166   20.6282 C   0  0  0  0  0  0  0  0  0  0  0  0
  -23.7698   -7.6584   21.7901 C   0  0  0  0  0  0  0  0  0  0  0  0
  -22.3236   -9.5865   21.6226 C   0  0  0  0  0  0  0  0  0  0  0  0
  -26.5869  -15.4579   20.5136 C   0  0  0  0  0  0  0  0  0  0  0  0
  -30.7385  -21.8253   17.2982 C   0  0  0  0  0  0  0  0  0  0  0  0
  -28.4403  -16.6407   20.5471 C   0  0  0  0  0  0  0  0  0  0  0  0
  -28.7803  -14.2357   19.9565 C   0  0  0  0  0  0  0  0  0  0  0  0
  -31.0539  -27.7055   19.4794 C   0  0  0  0  0  0  0  0  0  0  0  0
  -31.0180  -26.8485   18.3093 C   0  0  0  0  0  0  0  0  0  0  0  0
  -22.1325  -27.6971   20.9610 C   0  0  0  0  0  0  0  0  0  0  0  0
  -21.7935  -26.0707   18.1749 C   0  0  0  0  0  0  0  0  0  0  0  0
  -23.2757  -24.6776   15.4346 C   0  0  0  0  0  0  0  0  0  0  0  0
  -28.0464  -22.1575   19.9043 C   0  0  0  0  0  0  0  0  0  0  0  0
  -17.5423  -26.6586   22.9383 C   0  0  0  0  0  0  0  0  0  0  0  0
  -23.4143  -29.1654   19.3620 C   0  0  0  0  0  0  0  0  0  0  0  0
  -24.1434  -26.3155   19.0600 C   0  0  0  0  0  0  0  0  0  0  0  0
  -18.6332  -25.8580   22.2316 C   0  0  0  0  0  0  0  0  0  0  0  0
  -26.1130  -20.6861   22.5070 C   0  0  0  0  0  0  0  0  0  0  0  0
  -19.9948  -26.1428   22.8575 C   0  0  0  0  0  0  0  0  0  0  0  0
  -26.1784  -19.1873   22.2042 C   0  0  0  0  0  0  0  0  0  0  0  0
  -26.0430  -21.5203   21.2292 C   0  0  0  0  0  0  0  0  0  0  0  0
  -27.1633  -19.7421   19.9438 C   0  0  0  0  0  0  0  0  0  0  0  0
  -20.3689  -27.6231   22.7146 C   0  0  1  0  0  0  0  0  0  0  0  0
  -22.3843  -28.0515   19.5228 C   0  0  1  0  0  0  0  0  0  0  0  0
  -27.3006  -18.8640   21.1983 C   0  0  2  0  0  0  0  0  0  0  0  0
  -30.3607  -27.9230   14.9957 C   0  0  0  0  0  0  0  0  0  0  0  0
  -22.7435  -23.3842   13.3510 C   0  0  0  0  0  0  0  0  0  0  0  0
  -28.2705  -26.0069   16.0243 C   0  0  0  0  0  0  0  0  0  0  0  0
  -21.4306  -23.5405   19.8412 C   0  0  0  0  0  0  0  0  0  0  0  0
  -21.8556  -22.1993   17.7703 C   0  0  0  0  0  0  0  0  0  0  0  0
  -19.8884  -23.7291   17.8815 C   0  0  0  0  0  0  0  0  0  0  0  0
  -24.3318  -26.8246   13.6928 C   0  0  0  0  0  0  0  0  0  0  0  0
  -29.7865  -28.4206   19.9031 C   0  0  0  0  0  0  0  0  0  1  0  0
  -30.6580  -26.4700   15.3562 C   0  0  0  0  0  0  0  0  0  0  0  0
  -22.2100  -24.7086   17.6747 C   0  0  1  0  0  0  0  0  0  0  0  0
  -22.9434  -24.7651   13.9560 C   0  0  2  0  0  0  0  0  0  0  0  0
  -29.7430  -25.8740   16.4525 C   0  0  2  0  0  0  0  0  0  0  0  0
  -21.3653  -23.5634   18.3010 C   0  0  0  0  0  0  0  0  0  0  0  0
  -31.4142  -22.4588   16.3134 N   0  0  0  0  0  0  0  0  0  0  0  0
  -26.1915  -16.6901   20.8444 N   0  0  0  0  0  0  0  0  0  0  0  0
  -27.3410  -17.3863   20.8568 N   0  0  0  0  0  0  0  0  0  0  0  0
  -22.7765  -26.8164   18.8409 N   0  0  0  0  0  0  0  0  0  0  0  0
  -27.1392  -21.1627   20.3262 N   0  0  0  0  0  0  0  0  0  0  0  0
  -29.6758  -17.1835   20.5133 N   0  0  0  0  0  0  0  0  0  0  0  0
  -28.1444  -13.0028   19.7567 N   0  0  0  0  0  0  0  0  0  0  0  0
  -32.1709  -26.2607   18.0083 N   0  0  0  0  0  0  0  0  0  0  0  0
  -29.0659  -21.6933   19.0737 N   0  0  0  0  0  0  0  0  0  0  0  0
  -20.8286  -27.9007   21.3707 N   0  0  0  0  0  0  0  0  0  0  0  0
  -22.1452  -24.7712   16.2185 N   0  0  0  0  0  0  0  0  0  0  0  0
  -29.8709  -26.7175   17.6443 N   0  3  0  0  0  0  0  0  0  0  0  0
  -24.0435  -25.4470   13.2173 N   0  3  0  0  0  0  0  0  0  0  0  0
  -30.0262  -14.3112   19.8324 O   0  0  0  0  0  0  0  0  0  0  0  0
  -32.1016  -27.8417   20.1096 O   0  0  0  0  0  0  0  0  0  0  0  0
  -23.0527  -27.2690   21.6478 O   0  0  0  0  0  0  0  0  0  0  0  0
  -20.6406  -26.4616   17.9757 O   0  0  0  0  0  0  0  0  0  0  0  0
  -24.4229  -24.5364   15.8523 O   0  0  0  0  0  0  0  0  0  0  0  0
  -27.9435  -23.3294   20.2760 O   0  0  0  0  0  0  0  0  0  0  0  0
  -22.8367  -11.3363   20.0498 O   0  0  0  0  0  0  0  0  0  0  0  0
  -28.7568  -27.4786   20.2011 O   0  0  0  0  0  0  0  0  0  1  0  0
  -24.0688   -6.4774   22.3468 F   0  0  0  0  0  0  0  0  0  0  0  0
  -21.2321  -10.2528   22.0232 F   0  0  0  0  0  0  0  0  0  0  0  0
  -31.0742  -20.5478   17.5422 F   0  0  0  0  0  0  0  0  0  0  0  0
  1  2  1  0  0  0  0
  1  5  2  0  0  0  0
  2  6  2  0  0  0  0
  3  8  2  0  0  0  0
  3 17  1  0  0  0  0
  4  9  1  0  0  0  0
  4 17  2  0  0  0  0
  5 19  1  0  0  0  0
  6 21  1  0  0  0  0
  7 10  2  0  0  0  0
  7 20  1  0  0  0  0
  8 25  1  0  0  0  0
  9 25  2  0  0  0  0
 10 26  1  0  0  0  0
 11 12  2  0  0  0  0
 11 27  1  0  0  0  0
 12 28  1  0  0  0  0
 13 22  1  0  0  0  0
 13 26  2  0  0  0  0
 14 23  2  0  0  0  0
 14 24  1  0  0  0  0
 15 28  2  0  0  0  0
 15 29  1  0  0  0  0
 16 23  1  0  0  0  0
 16 65  2  0  0  0  0
 17 30  1  0  0  0  0
 18 30  1  0  0  0  0
 18 32  2  0  0  0  0
 18 33  1  0  0  0  0
 19 21  2  0  0  0  0
 19 40  1  0  0  0  0
 20 22  2  0  0  0  0
 20 41  1  0  0  0  0
 21 49  1  0  0  0  0
 22 42  1  0  0  0  0
 23 63  1  0  0  0  0
 24 31  2  0  0  0  0
 24 73  1  0  0  0  0
 25 84  1  0  0  0  0
 26 85  1  0  0  0  0
 27 29  2  0  0  0  0
 27 84  1  0  0  0  0
 28 86  1  0  0  0  0
 29 87  1  0  0  0  0
 30 66  2  0  0  0  0
 31 65  1  0  0  0  0
 31 88  1  0  0  0  0
 32 67  1  0  0  0  0
 32 70  1  0  0  0  0
 33 71  1  0  0  0  0
 33 78  2  0  0  0  0
 34 35  1  0  0  0  0
 34 59  1  0  0  0  0
 34 79  2  0  0  0  0
 35 72  1  0  0  0  0
 35 76  2  0  0  0  0
 36 50  1  0  0  0  0
 36 74  1  0  0  0  0
 36 80  2  0  0  0  0
 37 61  1  0  0  0  0
 37 68  1  0  0  0  0
 37 81  2  0  0  0  0
 38 62  1  0  0  0  0
 38 75  1  0  0  0  0
 38 82  2  0  0  0  0
 39 69  1  0  0  0  0
 39 73  1  0  0  0  0
 39 83  2  0  0  0  0
 40 43  1  0  0  0  0
 41 50  1  0  0  0  0
 42 68  1  0  0  0  0
 43 45  1  0  0  0  0
 44 46  1  0  0  0  0
 44 47  1  0  0  0  0
 45 49  1  0  0  0  0
 46 51  1  0  0  0  0
 47 69  1  0  0  0  0
 48 51  1  0  0  0  0
 48 69  1  0  0  0  0
 49 74  1  0  0  0  0
 50 68  1  0  0  0  0
 51 67  1  0  0  0  0
 52 60  1  0  0  0  0
 53 62  1  0  0  0  0
 54 63  1  0  0  0  0
 55 64  1  0  0  0  0
 56 64  1  0  0  0  0
 57 64  1  0  0  0  0
 58 77  1  0  0  0  0
 59 85  1  0  0  0  0
 60 63  1  0  0  0  0
 61 64  1  0  0  0  0
 61 75  1  0  0  0  0
 62 77  1  0  0  0  0
 63 76  1  0  0  0  0
 66 67  1  0  0  0  0
M  CHG  2  76   1  77   1
M  ISO  4  39 100  59 101  73 100  85 101
M  END
> <Batch ID>
0091

> <Smiles>
CCC(C)(NC(=N)C(=O)[101CH2:1][101O:1]c1ccc2c(c1)CN(C(=O)C(NC(=O)C(C)NC)C(C)(C)C)C(C(=O)NC1CCCc3ccccc31)C2)c1cnc(F)c([100NH:0][100C:0](=O)N2CCCC(n3nc(-c4ccc(Oc5ccc(F)cc5F)cc4)c(C(N)=O)c3N)C2)c1

> <Shape>
0.285

> <Color>
0.083

> <Negative vol penalty>
0.000

$$$$

  -OEChem-04052300313D

 86 95  0     1  0  0  0  0  0999 V2000
  -29.7548  -37.0213   20.7204 C   0  0  0  0  0  0  0  0  0  0  0  0
  -29.8240  -35.7007   20.2883 C   0  0  0  0  0  0  0  0  0  0  0  0
  -24.1024   -9.5526   22.2007 C   0  0  0  0  0  0  0  0  0  0  0  0
  -24.6429  -11.1969   23.8863 C   0  0  0  0  0  0  0  0  0  0  0  0
  -29.1352  -37.3257   21.9317 C   0  0  0  0  0  0  0  0  0  0  0  0
  -29.2745  -34.6836   21.0680 C   0  0  0  0  0  0  0  0  0  0  0  0
  -26.5480  -29.5771   19.0689 C   0  0  0  0  0  0  0  0  0  0  0  0
  -23.7630   -8.6402   23.1996 C   0  0  0  0  0  0  0  0  0  0  0  0
  -24.3033  -10.2845   24.8852 C   0  0  0  0  0  0  0  0  0  0  0  0
  -27.0049  -28.2692   18.9132 C   0  0  0  0  0  0  0  0  0  0  0  0
  -21.1408   -8.0556   25.2527 C   0  0  0  0  0  0  0  0  0  0  0  0
  -19.9623   -7.3270   25.0917 C   0  0  0  0  0  0  0  0  0  0  0  0
  -26.0867  -27.6981   21.0695 C   0  0  0  0  0  0  0  0  0  0  0  0
  -28.0019  -20.5064   19.2358 C   0  0  0  0  0  0  0  0  0  0  0  0
  -30.1564  -18.7717   18.8724 C   0  0  0  0  0  0  0  0  0  0  0  0
  -21.2281   -5.2696   25.1381 C   0  0  0  0  0  0  0  0  0  0  0  0
  -24.5425  -10.8310   22.5440 C   0  0  0  0  0  0  0  0  0  0  0  0
  -24.0423  -12.7005   20.8820 C   0  0  0  0  0  0  0  0  0  0  0  0
  -28.5694  -36.3128   22.7220 C   0  0  0  0  0  0  0  0  0  0  0  0
  -25.8654  -29.9588   20.2328 C   0  0  0  0  0  0  0  0  0  0  0  0
  -28.6480  -34.9745   22.2917 C   0  0  0  0  0  0  0  0  0  0  0  0
  -25.6199  -29.0108   21.2364 C   0  0  0  0  0  0  0  0  0  0  0  0
  -29.2978  -21.0139   19.1421 C   0  0  0  0  0  0  0  0  0  0  0  0
  -27.7833  -19.1315   19.1478 C   0  0  0  0  0  0  0  0  0  0  0  0
  -28.8605  -18.2642   18.9661 C   0  0  0  0  0  0  0  0  0  0  0  0
  -23.8634   -9.0061   24.5418 C   0  0  0  0  0  0  0  0  0  0  0  0
  -26.7768  -27.3302   19.9148 C   0  0  0  0  0  0  0  0  0  0  0  0
  -22.3629   -7.3913   25.3563 C   0  0  0  0  0  0  0  0  0  0  0  0
  -20.0060   -5.9340   25.0345 C   0  0  0  0  0  0  0  0  0  0  0  0
  -30.3750  -20.1466   18.9604 C   0  0  0  0  0  0  0  0  0  0  0  0
  -22.4066   -5.9983   25.2990 C   0  0  0  0  0  0  0  0  0  0  0  0
  -24.8939  -11.7738   21.5127 C   0  0  0  0  0  0  0  0  0  0  0  0
  -24.8510  -13.3551   19.9854 C   0  0  0  0  0  0  0  0  0  0  0  0
  -29.1113  -24.6481   19.4535 C   0  0  0  0  0  0  0  0  0  0  0  0
  -30.5648  -24.4235   19.2818 C   0  0  0  0  0  0  0  0  0  0  0  0
  -28.5652  -25.8543   19.6077 C   0  0  0  0  0  0  0  0  0  1  0  0
  -22.6451  -12.9476   21.0883 C   0  0  0  0  0  0  0  0  0  0  0  0
  -26.4011  -32.0537   22.5626 C   0  0  0  0  0  0  0  0  0  0  0  0
  -23.4301  -31.1655   23.5148 C   0  0  0  0  0  0  0  0  0  0  0  0
  -20.9676  -28.8028   23.4972 C   0  0  0  0  0  0  0  0  0  0  0  0
  -29.6390  -15.8844   18.6892 C   0  0  0  0  0  0  0  0  0  0  0  0
  -27.9518  -36.6852   24.0466 C   0  0  0  0  0  0  0  0  0  0  0  0
  -25.3555  -31.3668   20.3738 C   0  0  0  0  0  0  0  0  0  0  0  0
  -24.8742  -29.3648   22.4963 C   0  0  0  0  0  0  0  0  0  0  0  0
  -28.4257  -23.3220   19.4204 C   0  0  0  0  0  0  0  0  0  0  0  0
  -30.8383  -22.9545   19.1349 C   0  0  0  0  0  0  0  0  0  0  0  0
  -27.0639  -35.5911   24.6338 C   0  0  0  0  0  0  0  0  0  0  0  0
  -29.5626  -12.3333   18.4432 C   0  0  0  0  0  0  0  0  0  0  0  0
  -27.7617  -34.2370   24.5536 C   0  0  0  0  0  0  0  0  0  0  0  0
  -28.2711  -11.9474   19.1680 C   0  0  0  0  0  0  0  0  0  0  0  0
  -30.2583  -13.5158   19.1150 C   0  0  0  0  0  0  0  0  0  0  0  0
  -28.1209  -14.3125   20.0457 C   0  0  0  0  0  0  0  0  0  0  0  0
  -28.0419  -33.8461   23.0976 C   0  0  1  0  0  0  0  0  0  0  0  0
  -25.1220  -31.7752   21.8250 C   0  0  1  0  0  0  0  0  0  0  0  0
  -27.3509  -13.1675   19.3678 C   0  0  2  0  0  0  0  0  0  0  0  0
  -18.6694  -28.3461   24.3955 C   0  0  0  0  0  0  0  0  0  0  0  0
  -24.6238  -30.5694   26.2588 C   0  0  0  0  0  0  0  0  0  0  0  0
  -22.5601  -29.2571   26.7943 C   0  0  0  0  0  0  0  0  0  0  0  0
  -22.3935  -31.6994   26.3145 C   0  0  0  0  0  0  0  0  0  0  0  0
  -19.8176  -28.6048   20.7774 C   0  0  0  0  0  0  0  0  0  0  0  0
  -22.8736  -30.0942   24.4212 C   0  0  1  0  0  0  0  0  0  0  0  0
  -19.4761  -28.9044   23.2335 C   0  0  2  0  0  0  0  0  0  0  0  0
  -23.1285  -30.3985   25.9244 C   0  0  0  0  0  0  0  0  0  0  0  0
  -26.1475  -11.8313   21.0553 N   0  0  0  0  0  0  0  0  0  0  0  0
  -26.0895  -12.8020   20.1277 N   0  0  0  0  0  0  0  0  0  0  0  0
  -29.5088  -22.3528   19.2289 N   0  0  3  0  0  0  0  0  0  0  0  0
  -24.4012  -30.7558   22.5901 N   0  0  0  0  0  0  0  0  0  0  0  0
  -29.3269  -14.6357   19.2672 N   0  0  0  0  0  0  0  0  0  0  0  0
  -26.4626  -18.6384   19.2460 N   0  0  0  0  0  0  0  0  0  0  0  0
  -24.6163  -14.3441   19.0969 N   0  0  0  0  0  0  0  0  0  0  0  0
  -21.9664  -12.1851   22.0487 N   0  0  0  0  0  0  0  0  0  0  0  0
  -28.6637  -16.8642   18.8716 N   0  0  0  0  0  0  0  0  0  0  0  0
  -26.8347  -33.3620   22.4630 N   0  0  0  0  0  0  0  0  0  0  0  0
  -21.4644  -29.9542   24.0704 N   0  0  0  0  0  0  0  0  0  0  0  0
  -19.1147  -28.1453   22.0029 N   0  3  0  0  0  0  0  0  0  0  0  0
  -31.4144  -25.2997   19.2617 O   0  0  0  0  0  0  0  0  0  0  0  0
  -22.0134  -13.8074   20.4287 O   0  0  0  0  0  0  0  0  0  0  0  0
  -26.9530  -31.1490   23.1779 O   0  0  0  0  0  0  0  0  0  0  0  0
  -23.0132  -32.3218   23.6184 O   0  0  0  0  0  0  0  0  0  0  0  0
  -21.6253  -27.8008   23.2255 O   0  0  0  0  0  0  0  0  0  0  0  0
  -30.6815  -16.0631   18.0541 O   0  0  0  0  0  0  0  0  0  0  0  0
  -23.5319   -8.1161   25.5168 O   0  0  0  0  0  0  0  0  0  0  0  0
  -27.2223  -26.0530   19.7657 O   0  0  0  0  0  0  0  0  0  1  0  0
  -18.8741   -5.2343   24.8815 F   0  0  0  0  0  0  0  0  0  0  0  0
  -31.6243  -20.6237   18.8667 F   0  0  0  0  0  0  0  0  0  0  0  0
  -23.5776   -5.3544   25.3992 F   0  0  0  0  0  0  0  0  0  0  0  0
  1  2  1  0  0  0  0
  1  5  2  0  0  0  0
  2  6  2  0  0  0  0
  3  8  2  0  0  0  0
  3 17  1  0  0  0  0
  4  9  1  0  0  0  0
  4 17  2  0  0  0  0
  5 19  1  0  0  0  0
  6 21  1  0  0  0  0
  7 10  2  0  0  0  0
  7 20  1  0  0  0  0
  8 26  1  0  0  0  0
  9 26  2  0  0  0  0
 10 27  1  0  0  0  0
 11 12  2  0  0  0  0
 11 28  1  0  0  0  0
 12 29  1  0  0  0  0
 13 22  1  0  0  0  0
 13 27  2  0  0  0  0
 14 23  1  0  0  0  0
 14 24  2  0  0  0  0
 15 25  2  0  0  0  0
 15 30  1  0  0  0  0
 16 29  2  0  0  0  0
 16 31  1  0  0  0  0
 17 32  1  0  0  0  0
 18 32  1  0  0  0  0
 18 33  2  0  0  0  0
 18 37  1  0  0  0  0
 19 21  2  0  0  0  0
 19 42  1  0  0  0  0
 20 22  2  0  0  0  0
 20 43  1  0  0  0  0
 21 53  1  0  0  0  0
 22 44  1  0  0  0  0
 23 30  2  0  0  0  0
 23 66  1  0  0  0  0
 24 25  1  0  0  0  0
 24 69  1  0  0  0  0
 25 72  1  0  0  0  0
 26 82  1  0  0  0  0
 27 83  1  0  0  0  0
 28 31  2  0  0  0  0
 28 82  1  0  0  0  0
 29 84  1  0  0  0  0
 30 85  1  0  0  0  0
 31 86  1  0  0  0  0
 32 64  2  0  0  0  0
 33 65  1  0  0  0  0
 33 70  1  0  0  0  0
 34 35  1  0  0  0  0
 34 36  2  0  0  0  0
 34 45  1  0  0  0  0
 35 46  1  0  0  0  0
 35 76  2  0  0  0  0
 36 83  1  0  0  0  0
 37 71  1  0  0  0  0
 37 77  2  0  0  0  0
 38 54  1  0  0  0  0
 38 73  1  0  0  0  0
 38 78  2  0  0  0  0
 39 61  1  0  0  0  0
 39 67  1  0  0  0  0
 39 79  2  0  0  0  0
 40 62  1  0  0  0  0
 40 74  1  0  0  0  0
 40 80  2  0  0  0  0
 41 68  1  0  0  0  0
 41 72  1  0  0  0  0
 41 81  2  0  0  0  0
 42 47  1  0  0  0  0
 43 54  1  0  0  0  0
 44 67  1  0  0  0  0
 45 66  1  0  0  0  0
 46 66  1  0  0  0  0
 47 49  1  0  0  0  0
 48 50  1  0  0  0  0
 48 51  1  0  0  0  0
 49 53  1  0  0  0  0
 50 55  1  0  0  0  0
 51 68  1  0  0  0  0
 52 55  1  0  0  0  0
 52 68  1  0  0  0  0
 53 73  1  0  0  0  0
 54 67  1  0  0  0  0
 55 65  1  0  0  0  0
 56 62  1  0  0  0  0
 57 63  1  0  0  0  0
 58 63  1  0  0  0  0
 59 63  1  0  0  0  0
 60 75  1  0  0  0  0
 61 63  1  0  0  0  0
 61 74  1  0  0  0  0
 62 75  1  0  0  0  0
 64 65  1  0  0  0  0
M  CHG  1  75   1
M  ISO  4  36 101  41 100  72 100  83 101
M  END
> <Batch ID>
0091

> <Smiles>
CNC(C)C(=O)NC(C(=O)N1Cc2cc([101O:1][101CH:1]=C3CN(c4cc(N)c([100NH:0][100C:0](=O)N5CCCC(n6nc(-c7ccc(Oc8ccc(F)cc8F)cc7)c(C(N)=O)c6N)C5)cc4F)CC3=O)ccc2CC1C(=O)NC1CCCc2ccccc21)C(C)(C)C

> <Shape>
0.321

> <Color>
0.127

> <Negative vol penalty>
0.000

$$$$

  -OEChem-04052300313D

 86 95  0     1  0  0  0  0  0999 V2000
  -23.9758  -12.1084   20.5149 C   0  0  0  0  0  0  0  0  0  0  0  0
  -23.6630  -13.4099   20.8937 C   0  0  0  0  0  0  0  0  0  0  0  0
  -25.2694  -27.7046   19.7328 C   0  0  0  0  0  0  0  0  0  0  0  0
  -26.9214  -28.0999   21.4508 C   0  0  0  0  0  0  0  0  0  0  0  0
  -25.3095  -11.7177   20.4027 C   0  0  0  0  0  0  0  0  0  0  0  0
  -24.6838  -14.3213   21.1615 C   0  0  0  0  0  0  0  0  0  0  0  0
  -23.8485  -18.8490   19.0526 C   0  0  0  0  0  0  0  0  0  0  0  0
  -18.8610  -26.1699   23.7983 C   0  0  0  0  0  0  0  0  0  0  0  0
  -18.6340  -27.5389   23.9397 C   0  0  0  0  0  0  0  0  0  0  0  0
  -26.1902  -28.0901   18.7586 C   0  0  0  0  0  0  0  0  0  0  0  0
  -27.8422  -28.4855   20.4767 C   0  0  0  0  0  0  0  0  0  0  0  0
  -22.9391  -19.6909   19.6913 C   0  0  0  0  0  0  0  0  0  0  0  0
  -27.9947  -29.3148   15.8486 C   0  0  0  0  0  0  0  0  0  0  0  0
  -27.5556  -30.1772   14.8442 C   0  0  0  0  0  0  0  0  0  0  0  0
  -24.7709  -20.9045   20.6867 C   0  0  0  0  0  0  0  0  0  0  0  0
  -19.4026  -26.5004   21.4671 C   0  0  0  0  0  0  0  0  0  0  0  0
  -27.0042  -31.8374   16.5105 C   0  0  0  0  0  0  0  0  0  0  0  0
  -25.6349  -27.7095   21.0789 C   0  0  0  0  0  0  0  0  0  0  0  0
  -24.4713  -26.0145   22.5890 C   0  0  0  0  0  0  0  0  0  0  0  0
  -26.3471  -12.6274   20.6599 C   0  0  0  0  0  0  0  0  0  0  0  0
  -25.2281  -19.0220   19.2351 C   0  0  0  0  0  0  0  0  0  0  0  0
  -26.0326  -13.9421   21.0540 C   0  0  0  0  0  0  0  0  0  0  0  0
  -25.6958  -20.0651   20.0472 C   0  0  0  0  0  0  0  0  0  0  0  0
  -19.2454  -25.6507   22.5621 C   0  0  0  0  0  0  0  0  0  0  0  0
  -18.7912  -28.3886   22.8447 C   0  0  0  0  0  0  0  0  0  0  0  0
  -19.1755  -27.8694   21.6084 C   0  0  0  0  0  0  0  0  0  0  0  0
  -27.4766  -28.4806   19.1305 C   0  0  0  0  0  0  0  0  0  0  0  0
  -23.4002  -20.7170   20.5108 C   0  0  0  0  0  0  0  0  0  0  0  0
  -27.9385  -29.7137   17.1841 C   0  0  0  0  0  0  0  0  0  0  0  0
  -27.0604  -31.4385   15.1751 C   0  0  0  0  0  0  0  0  0  0  0  0
  -27.4433  -30.9750   17.5151 C   0  0  0  0  0  0  0  0  0  0  0  0
  -24.6840  -27.3119   22.0857 C   0  0  0  0  0  0  0  0  0  0  0  0
  -23.4706  -26.1662   23.5175 C   0  0  0  0  0  0  0  0  0  0  0  0
  -19.4059  -22.0183   22.6485 C   0  0  0  0  0  0  0  0  0  0  0  0
  -20.3083  -22.2525   21.6932 C   0  0  0  0  0  0  0  0  0  0  0  0
  -20.3805  -23.7221   21.5157 C   0  0  0  0  0  0  0  0  0  0  0  0
  -25.1204  -24.7824   22.2479 C   0  0  0  0  0  0  0  0  0  0  0  0
  -27.5717  -17.2447   20.4402 C   0  0  0  0  0  0  0  0  0  0  0  0
  -29.4379  -19.6693   19.3627 C   0  0  0  0  0  0  0  0  0  0  0  0
  -29.6931  -22.9550   18.4762 C   0  0  0  0  0  0  0  0  0  0  0  0
  -19.2718  -30.6025   23.9213 C   0  0  0  0  0  0  0  0  0  0  0  0
  -27.7736  -12.1457   20.5713 C   0  0  0  0  0  0  0  0  0  0  0  0
  -26.1967  -18.1221   18.5179 C   0  0  0  0  0  0  0  0  0  0  0  0
  -27.1673  -20.3058   20.2598 C   0  0  0  0  0  0  0  0  0  0  0  0
  -18.8004  -23.2611   23.1914 C   0  0  0  0  0  0  0  0  0  0  0  0
  -28.7960  -13.2775   20.5091 C   0  0  0  0  0  0  0  0  0  0  0  0
  -21.5795  -29.3572   26.5322 C   0  0  0  0  0  0  0  0  0  0  0  0
  -28.4883  -14.3335   21.5659 C   0  0  0  0  0  0  0  0  0  0  0  0
  -22.6639  -28.6532   25.7188 C   0  0  0  0  0  0  0  0  0  0  0  0
  -20.9350  -30.4974   25.7497 C   0  0  0  0  0  0  0  0  0  0  0  0
  -21.4728  -29.3698   23.6095 C   0  0  0  0  0  0  0  0  0  0  0  0
  -27.1119  -14.9666   21.3289 C   0  0  1  0  0  0  0  0  0  0  0  0
  -27.5682  -18.0688   19.1838 C   0  0  1  0  0  0  0  0  0  0  0  0
  -22.1096  -28.1912   24.3611 C   0  0  1  0  0  0  0  0  0  0  0  0
  -31.3549  -24.6553   17.6732 C   0  0  0  0  0  0  0  0  0  0  0  0
  -30.6015  -19.8576   22.1771 C   0  0  0  0  0  0  0  0  0  0  0  0
  -31.5082  -22.1126   21.5761 C   0  0  0  0  0  0  0  0  0  0  0  0
  -32.2791  -20.0895   20.3369 C   0  0  0  0  0  0  0  0  0  0  0  0
  -17.3435  -30.3668   22.4187 C   0  0  0  0  0  0  0  0  0  0  0  0
  -28.1865  -23.4148   15.9707 C   0  0  0  0  0  0  0  0  0  0  0  0
  -21.1275  -21.2946   20.9076 C   0  0  0  0  0  0  0  0  0  1  0  0
  -29.9419  -20.9691   19.9420 C   0  0  1  0  0  0  0  0  0  0  0  0
  -30.3130  -23.6259   17.2638 C   0  0  2  0  0  0  0  0  0  0  0  0
  -31.0549  -20.7517   21.0058 C   0  0  0  0  0  0  0  0  0  0  0  0
  -23.8827  -28.2208   22.6477 N   0  0  0  0  0  0  0  0  0  0  0  0
  -23.1567  -27.4934   23.5138 N   0  0  0  0  0  0  0  0  0  0  0  0
  -19.4717  -24.2869   22.4217 N   0  0  0  0  0  0  0  0  0  0  0  0
  -28.0746  -19.3953   19.5418 N   0  0  0  0  0  0  0  0  0  0  0  0
  -20.4659  -30.0564   24.4351 N   0  0  0  0  0  0  0  0  0  0  0  0
  -19.3408  -28.7121   20.4863 N   0  0  0  0  0  0  0  0  0  0  0  0
  -22.8373  -25.2923   24.3285 N   0  0  0  0  0  0  0  0  0  0  0  0
  -26.1274  -24.8052   21.2733 N   0  0  0  0  0  0  0  0  0  0  0  0
  -27.1785  -15.9331   20.2538 N   0  0  0  0  0  0  0  0  0  0  0  0
  -30.3517  -21.7898   18.8076 N   0  0  0  0  0  0  0  0  0  0  0  0
  -18.5509  -29.8006   23.0160 N   0  0  0  0  0  0  0  0  0  0  0  0
  -29.2638  -24.3136   16.4593 N   0  3  0  0  0  0  0  0  0  0  0  0
  -21.1113  -24.2847   20.7162 O   0  0  0  0  0  0  0  0  0  0  0  0
  -24.8050  -23.6908   22.7793 O   0  0  0  0  0  0  0  0  0  0  0  0
  -27.9078  -17.7601   21.4999 O   0  0  0  0  0  0  0  0  0  0  0  0
  -30.2233  -18.9279   18.7668 O   0  0  0  0  0  0  0  0  0  0  0  0
  -28.7240  -23.4201   19.0721 O   0  0  0  0  0  0  0  0  0  0  0  0
  -18.9008  -31.7480   24.2053 O   0  0  0  0  0  0  0  0  0  0  0  0
  -28.3755  -28.8566   18.1802 O   0  0  0  0  0  0  0  0  0  0  0  0
  -22.5146  -21.5398   21.1359 O   0  0  0  0  0  0  0  0  0  1  0  0
  -26.6402  -32.2672   14.2102 F   0  0  0  0  0  0  0  0  0  0  0  0
  -27.3880  -31.3642   18.7962 F   0  0  0  0  0  0  0  0  0  0  0  0
  1  2  1  0  0  0  0
  1  5  2  0  0  0  0
  2  6  2  0  0  0  0
  3 10  2  0  0  0  0
  3 18  1  0  0  0  0
  4 11  1  0  0  0  0
  4 18  2  0  0  0  0
  5 20  1  0  0  0  0
  6 22  1  0  0  0  0
  7 12  2  0  0  0  0
  7 21  1  0  0  0  0
  8  9  2  0  0  0  0
  8 24  1  0  0  0  0
  9 25  1  0  0  0  0
 10 27  1  0  0  0  0
 11 27  2  0  0  0  0
 12 28  1  0  0  0  0
 13 14  2  0  0  0  0
 13 29  1  0  0  0  0
 14 30  1  0  0  0  0
 15 23  1  0  0  0  0
 15 28  2  0  0  0  0
 16 24  2  0  0  0  0
 16 26  1  0  0  0  0
 17 30  2  0  0  0  0
 17 31  1  0  0  0  0
 18 32  1  0  0  0  0
 19 32  1  0  0  0  0
 19 33  2  0  0  0  0
 19 37  1  0  0  0  0
 20 22  2  0  0  0  0
 20 42  1  0  0  0  0
 21 23  2  0  0  0  0
 21 43  1  0  0  0  0
 22 52  1  0  0  0  0
 23 44  1  0  0  0  0
 24 67  1  0  0  0  0
 25 26  2  0  0  0  0
 25 75  1  0  0  0  0
 26 70  1  0  0  0  0
 27 83  1  0  0  0  0
 28 84  1  0  0  0  0
 29 31  2  0  0  0  0
 29 83  1  0  0  0  0
 30 85  1  0  0  0  0
 31 86  1  0  0  0  0
 32 65  2  0  0  0  0
 33 66  1  0  0  0  0
 33 71  1  0  0  0  0
 34 35  2  0  0  0  0
 34 45  1  0  0  0  0
 35 36  1  0  0  0  0
 35 61  1  0  0  0  0
 36 67  1  0  0  0  0
 36 77  2  0  0  0  0
 37 72  1  0  0  0  0
 37 78  2  0  0  0  0
 38 53  1  0  0  0  0
 38 73  1  0  0  0  0
 38 79  2  0  0  0  0
 39 62  1  0  0  0  0
 39 68  1  0  0  0  0
 39 80  2  0  0  0  0
 40 63  1  0  0  0  0
 40 74  1  0  0  0  0
 40 81  2  0  0  0  0
 41 69  1  0  0  0  0
 41 75  1  0  0  0  0
 41 82  2  0  0  0  0
 42 46  1  0  0  0  0
 43 53  1  0  0  0  0
 44 68  1  0  0  0  0
 45 67  1  0  0  0  0
 46 48  1  0  0  0  0
 47 49  1  0  0  0  0
 47 50  1  0  0  0  0
 48 52  1  0  0  0  0
 49 54  1  0  0  0  0
 50 69  1  0  0  0  0
 51 54  1  0  0  0  0
 51 69  1  0  0  0  0
 52 73  1  0  0  0  0
 53 68  1  0  0  0  0
 54 66  1  0  0  0  0
 55 63  1  0  0  0  0
 56 64  1  0  0  0  0
 57 64  1  0  0  0  0
 58 64  1  0  0  0  0
 59 75  1  0  0  0  0
 60 76  1  0  0  0  0
 61 84  1  0  0  0  0
 62 64  1  0  0  0  0
 62 74  1  0  0  0  0
 63 76  1  0  0  0  0
 65 66  1  0  0  0  0
M  CHG  1  76   1
M  ISO  4  41 100  61 101  75 100  84 101
M  END
> <Batch ID>
0091

> <Smiles>
CNC(C)C(=O)NC(C(=O)N1Cc2cc([101O:1][101CH2:1]C3=CCN(c4ccc([100N:0](C)[100C:0](=O)N5CCCC(n6nc(-c7ccc(Oc8ccc(F)cc8F)cc7)c(C(N)=O)c6N)C5)c(N)c4)C3=O)ccc2CC1C(=O)NC1CCCc2ccccc21)C(C)(C)C

> <Shape>
0.207

> <Color>
0.063

> <Negative vol penalty>
0.000

$$$$

  -OEChem-04052300313D

 90 99  0     1  0  0  0  0  0999 V2000
  -26.7528  -37.4073   17.8115 C   0  0  0  0  0  0  0  0  0  0  0  0
  -27.1260  -36.0819   17.6126 C   0  0  0  0  0  0  0  0  0  0  0  0
  -23.2514  -16.8761   19.5095 C   0  0  0  0  0  0  0  0  0  0  0  0
  -24.0842  -15.5859   17.6443 C   0  0  0  0  0  0  0  0  0  0  0  0
  -26.4742  -37.8663   19.0982 C   0  0  0  0  0  0  0  0  0  0  0  0
  -27.2218  -35.2150   18.7006 C   0  0  0  0  0  0  0  0  0  0  0  0
  -25.9008  -29.2354   18.7706 C   0  0  0  0  0  0  0  0  0  0  0  0
  -30.7187  -20.8734   20.4156 C   0  0  0  0  0  0  0  0  0  0  0  0
  -30.7319  -19.5597   20.8841 C   0  0  0  0  0  0  0  0  0  0  0  0
  -22.7945  -17.8557   18.6279 C   0  0  0  0  0  0  0  0  0  0  0  0
  -23.6273  -16.5655   16.7627 C   0  0  0  0  0  0  0  0  0  0  0  0
  -26.6999  -28.0970   18.6736 C   0  0  0  0  0  0  0  0  0  0  0  0
  -24.6289  -19.6091   15.6838 C   0  0  0  0  0  0  0  0  0  0  0  0
  -25.4867  -20.0102   14.6596 C   0  0  0  0  0  0  0  0  0  0  0  0
  -26.7434  -27.9301   21.0798 C   0  0  0  0  0  0  0  0  0  0  0  0
  -30.4058  -24.4858   18.0510 C   0  0  0  0  0  0  0  0  0  0  0  0
  -28.8395  -20.3468   18.9915 C   0  0  0  0  0  0  0  0  0  0  0  0
  -23.8610  -19.2993   13.0198 C   0  0  0  0  0  0  0  0  0  0  0  0
  -23.8963  -15.7412   19.0177 C   0  0  0  0  0  0  0  0  0  0  0  0
  -23.6609  -13.6037   20.3900 C   0  0  0  0  0  0  0  0  0  0  0  0
  -26.5573  -37.0021   20.2013 C   0  0  0  0  0  0  0  0  0  0  0  0
  -25.5254  -29.7367   20.0252 C   0  0  0  0  0  0  0  0  0  0  0  0
  -26.9453  -35.6632   20.0034 C   0  0  0  0  0  0  0  0  0  0  0  0
  -25.9374  -29.0734   21.1898 C   0  0  0  0  0  0  0  0  0  0  0  0
  -29.0837  -24.6477   18.5337 C   0  0  0  0  0  0  0  0  0  0  0  0
  -29.7725  -21.2670   19.4693 C   0  0  0  0  0  0  0  0  0  0  0  0
  -29.7989  -18.6394   20.4062 C   0  0  0  0  0  0  0  0  0  0  0  0
  -22.9824  -17.7004   17.2545 C   0  0  0  0  0  0  0  0  0  0  0  0
  -27.1238  -27.4459   19.8284 C   0  0  0  0  0  0  0  0  0  0  0  0
  -23.3873  -19.0530   15.3760 C   0  0  0  0  0  0  0  0  0  0  0  0
  -28.8527  -19.0330   19.4599 C   0  0  0  0  0  0  0  0  0  0  0  0
  -25.1027  -19.8554   13.3276 C   0  0  0  0  0  0  0  0  0  0  0  0
  -23.0033  -18.8982   14.0440 C   0  0  0  0  0  0  0  0  0  0  0  0
  -24.3690  -14.7292   19.9279 C   0  0  0  0  0  0  0  0  0  0  0  0
  -28.7096  -23.4567   19.1158 C   0  0  0  0  0  0  0  0  0  0  0  0
  -24.5424  -12.9628   21.2259 C   0  0  0  0  0  0  0  0  0  0  0  0
  -30.7993  -23.2007   18.3528 C   0  0  0  0  0  0  0  0  0  0  0  0
  -22.3256  -13.1758   20.0904 C   0  0  0  0  0  0  0  0  0  0  0  0
  -26.0163  -32.4588   21.5914 C   0  0  0  0  0  0  0  0  0  0  0  0
  -23.9690  -31.1413   23.7350 C   0  0  0  0  0  0  0  0  0  0  0  0
  -31.0133  -16.6673   21.3197 C   0  0  0  0  0  0  0  0  0  0  0  0
  -22.5708  -28.3191   25.0493 C   0  0  0  0  0  0  0  0  0  0  0  0
  -28.5880  -16.6864   21.2233 C   0  0  0  0  0  0  0  0  0  0  0  0
  -26.2925  -37.5560   21.5789 C   0  0  0  0  0  0  0  0  0  0  0  0
  -24.6409  -30.9502   20.1121 C   0  0  0  0  0  0  0  0  0  0  0  0
  -25.5450  -29.5596   22.5603 C   0  0  0  0  0  0  0  0  0  0  0  0
  -26.0538  -36.4781   22.6332 C   0  0  0  0  0  0  0  0  0  0  0  0
  -28.7158  -13.1570   20.1436 C   0  0  0  0  0  0  0  0  0  0  0  0
  -27.1060  -35.3794   22.5212 C   0  0  0  0  0  0  0  0  0  0  0  0
  -27.8906  -12.4698   21.2249 C   0  0  0  0  0  0  0  0  0  0  0  0
  -29.4820  -14.3564   20.6915 C   0  0  0  0  0  0  0  0  0  0  0  0
  -27.7347  -14.6989   22.4350 C   0  0  0  0  0  0  0  0  0  0  0  0
  -27.0363  -34.6860   21.1553 C   0  0  1  0  0  0  0  0  0  0  0  0
  -24.7447  -31.6705   21.4529 C   0  0  1  0  0  0  0  0  0  0  0  0
  -26.9703  -13.4439   21.9763 C   0  0  1  0  0  0  0  0  0  0  0  0
  -27.4353  -23.0850   19.7712 C   0  0  0  0  0  0  0  0  0  0  0  0
  -32.2188  -16.8218   20.4178 C   0  0  0  0  0  0  0  0  0  0  0  0
  -20.9595  -27.5582   26.8162 C   0  0  0  0  0  0  0  0  0  0  0  0
  -26.0806  -31.6525   25.8774 C   0  0  0  0  0  0  0  0  0  0  0  0
  -24.8539  -30.0583   27.3680 C   0  0  0  0  0  0  0  0  0  0  0  0
  -23.7338  -32.1459   26.5870 C   0  0  0  0  0  0  0  0  0  0  0  0
  -20.7734  -27.0900   23.0449 C   0  0  0  0  0  0  0  0  0  0  0  0
  -28.2963  -17.4056   17.8175 C   0  0  0  0  0  0  0  0  0  0  0  0
  -28.2515  -25.8916   18.4255 C   0  0  0  0  0  0  0  0  0  1  0  0
  -24.1160  -30.2574   24.9500 C   0  0  1  0  0  0  0  0  0  0  0  0
  -21.1289  -27.9598   25.3592 C   0  0  2  0  0  0  0  0  0  0  0  0
  -24.7052  -31.0202   26.1699 C   0  0  0  0  0  0  0  0  0  0  0  0
  -25.6051  -14.8020   20.4288 N   0  0  0  0  0  0  0  0  0  0  0  0
  -29.7602  -22.5844   18.9997 N   0  0  0  0  0  0  0  0  0  0  0  0
  -25.6805  -13.7142   21.2143 N   0  0  0  0  0  0  0  0  0  0  0  0
  -24.6844  -30.7537   22.5931 N   0  0  0  0  0  0  0  0  0  0  0  0
  -28.6067  -15.2880   21.4145 N   0  0  0  0  0  0  0  0  0  0  0  0
  -24.4472  -11.8354   21.9623 N   0  0  0  0  0  0  0  0  0  0  0  0
  -21.5568  -13.9512   19.2118 N   0  0  0  0  0  0  0  0  0  0  0  0
  -25.9298  -33.7540   21.1175 N   0  0  0  0  0  0  0  0  0  0  0  0
  -22.8017  -29.6713   25.1897 N   0  0  0  0  0  0  0  0  0  0  0  0
  -29.8266  -17.2838   20.8997 N   0  0  0  0  0  0  0  0  0  0  0  0
  -20.6827  -26.8240   24.5037 N   0  3  0  0  0  0  0  0  0  0  0  0
  -21.8233  -12.1455   20.6000 O   0  0  0  0  0  0  0  0  0  0  0  0
  -27.0026  -31.9315   22.0925 O   0  0  0  0  0  0  0  0  0  0  0  0
  -23.2405  -32.1349   23.7946 O   0  0  0  0  0  0  0  0  0  0  0  0
  -31.1023  -15.9860   22.3450 O   0  0  0  0  0  0  0  0  0  0  0  0
  -23.4094  -27.4834   24.7194 O   0  0  0  0  0  0  0  0  0  0  0  0
  -27.5681  -17.3667   21.3898 O   0  0  0  0  0  0  0  0  0  0  0  0
  -31.9432  -22.5715   18.1113 O   0  0  0  0  0  0  0  0  0  0  0  0
  -22.5365  -18.6560   16.3940 O   0  0  0  0  0  0  0  0  0  0  0  0
  -27.9336  -18.1485   18.9792 O   0  0  0  0  0  0  0  0  0  0  0  0
  -27.9044  -26.3350   19.7367 O   0  0  0  0  0  0  0  0  0  1  0  0
  -25.9259  -20.2420   12.3442 F   0  0  0  0  0  0  0  0  0  0  0  0
  -21.8112  -18.3657   13.7421 F   0  0  0  0  0  0  0  0  0  0  0  0
  1  2  1  0  0  0  0
  1  5  2  0  0  0  0
  2  6  2  0  0  0  0
  3 10  2  0  0  0  0
  3 19  1  0  0  0  0
  4 11  1  0  0  0  0
  4 19  2  0  0  0  0
  5 21  1  0  0  0  0
  6 23  1  0  0  0  0
  7 12  2  0  0  0  0
  7 22  1  0  0  0  0
  8  9  2  0  0  0  0
  8 26  1  0  0  0  0
  9 27  1  0  0  0  0
 10 28  1  0  0  0  0
 11 28  2  0  0  0  0
 12 29  1  0  0  0  0
 13 14  2  0  0  0  0
 13 30  1  0  0  0  0
 14 32  1  0  0  0  0
 15 24  1  0  0  0  0
 15 29  2  0  0  0  0
 16 25  1  0  0  0  0
 16 37  2  0  0  0  0
 17 26  2  0  0  0  0
 17 31  1  0  0  0  0
 18 32  2  0  0  0  0
 18 33  1  0  0  0  0
 19 34  1  0  0  0  0
 20 34  1  0  0  0  0
 20 36  2  0  0  0  0
 20 38  1  0  0  0  0
 21 23  2  0  0  0  0
 21 44  1  0  0  0  0
 22 24  2  0  0  0  0
 22 45  1  0  0  0  0
 23 53  1  0  0  0  0
 24 46  1  0  0  0  0
 25 35  2  0  0  0  0
 25 64  1  0  0  0  0
 26 69  1  0  0  0  0
 27 31  2  0  0  0  0
 27 77  1  0  0  0  0
 28 86  1  0  0  0  0
 29 88  1  0  0  0  0
 30 33  2  0  0  0  0
 30 86  1  0  0  0  0
 31 87  1  0  0  0  0
 32 89  1  0  0  0  0
 33 90  1  0  0  0  0
 34 68  2  0  0  0  0
 35 56  1  0  0  0  0
 35 69  1  0  0  0  0
 36 70  1  0  0  0  0
 36 73  1  0  0  0  0
 37 69  1  0  0  0  0
 37 85  1  0  0  0  0
 38 74  1  0  0  0  0
 38 79  2  0  0  0  0
 39 54  1  0  0  0  0
 39 75  1  0  0  0  0
 39 80  2  0  0  0  0
 40 65  1  0  0  0  0
 40 71  1  0  0  0  0
 40 81  2  0  0  0  0
 41 57  1  0  0  0  0
 41 77  1  0  0  0  0
 41 82  2  0  0  0  0
 42 66  1  0  0  0  0
 42 76  1  0  0  0  0
 42 83  2  0  0  0  0
 43 72  1  0  0  0  0
 43 77  1  0  0  0  0
 43 84  2  0  0  0  0
 44 47  1  0  0  0  0
 45 54  1  0  0  0  0
 46 71  1  0  0  0  0
 47 49  1  0  0  0  0
 48 50  1  0  0  0  0
 48 51  1  0  0  0  0
 49 53  1  0  0  0  0
 50 55  1  0  0  0  0
 51 72  1  0  0  0  0
 52 55  1  0  0  0  0
 52 72  1  0  0  0  0
 53 75  1  0  0  0  0
 54 71  1  0  0  0  0
 55 70  1  0  0  0  0
 58 66  1  0  0  0  0
 59 67  1  0  0  0  0
 60 67  1  0  0  0  0
 61 67  1  0  0  0  0
 62 78  1  0  0  0  0
 63 87  1  0  0  0  0
 64 88  1  0  0  0  0
 65 67  1  0  0  0  0
 65 76  1  0  0  0  0
 66 78  1  0  0  0  0
 68 70  1  0  0  0  0
M  CHG  1  78   1
M  ISO  4  43 100  64 101  77 100  88 101
M  END
> <Batch ID>
0091

> <Smiles>
CNC(C)C(=O)NC(C(=O)N1Cc2cc([101O:1][101CH2:1]C3=C(C)N(c4ccc([100N:0](C(C)=O)[100C:0](=O)N5CCCC(n6nc(-c7ccc(Oc8ccc(F)cc8F)cc7)c(C(N)=O)c6N)C5)c(OC)c4)C(=O)C3)ccc2CC1C(=O)NC1CCCc2ccccc21)C(C)(C)C

> <Shape>
0.272

> <Color>
0.076

> <Negative vol penalty>
0.000

$$$$

  -OEChem-04052300313D

 83 91  0     1  0  0  0  0  0999 V2000
  -20.9469  -23.2879   20.0954 C   0  0  0  0  0  0  0  0  0  0  0  0
  -22.2861  -22.9487   19.9313 C   0  0  0  0  0  0  0  0  0  0  0  0
  -25.2458  -30.9398   22.0143 C   0  0  0  0  0  0  0  0  0  0  0  0
  -26.9476  -31.7118   20.4830 C   0  0  0  0  0  0  0  0  0  0  0  0
  -20.1262  -22.5082   20.9093 C   0  0  0  0  0  0  0  0  0  0  0  0
  -22.8057  -21.8302   20.5819 C   0  0  0  0  0  0  0  0  0  0  0  0
  -27.1256  -18.0286   18.4862 C   0  0  0  0  0  0  0  0  0  0  0  0
  -25.2789  -32.1698   22.6712 C   0  0  0  0  0  0  0  0  0  0  0  0
  -26.9806  -32.9419   21.1398 C   0  0  0  0  0  0  0  0  0  0  0  0
  -28.4973  -17.9463   18.7218 C   0  0  0  0  0  0  0  0  0  0  0  0
  -27.2424  -33.7315   24.9361 C   0  0  0  0  0  0  0  0  0  0  0  0
  -27.2631  -33.7202   26.3307 C   0  0  0  0  0  0  0  0  0  0  0  0
  -32.4845  -20.8421   20.0668 C   0  0  0  0  0  0  0  0  0  0  0  0
  -34.2766  -21.9515   21.2475 C   0  0  0  0  0  0  0  0  0  0  0  0
  -28.1004  -16.2717   20.4122 C   0  0  0  0  0  0  0  0  0  0  0  0
  -25.1953  -34.9690   26.3716 C   0  0  0  0  0  0  0  0  0  0  0  0
  -26.0803  -30.7108   20.9202 C   0  0  0  0  0  0  0  0  0  0  0  0
  -33.1351  -22.0154   20.4484 C   0  0  0  0  0  0  0  0  0  0  0  0
  -32.9752  -19.6049   20.4843 C   0  0  0  0  0  0  0  0  0  0  0  0
  -25.2312  -29.0791   19.1525 C   0  0  0  0  0  0  0  0  0  0  0  0
  -20.6336  -21.3739   21.5625 C   0  0  0  0  0  0  0  0  0  0  0  0
  -26.2287  -17.2396   19.2207 C   0  0  0  0  0  0  0  0  0  0  0  0
  -21.9913  -21.0353   21.4063 C   0  0  0  0  0  0  0  0  0  0  0  0
  -26.7180  -16.3439   20.1822 C   0  0  0  0  0  0  0  0  0  0  0  0
  -34.7674  -20.7143   21.6651 C   0  0  0  0  0  0  0  0  0  0  0  0
  -34.1166  -19.5411   21.2834 C   0  0  0  0  0  0  0  0  0  0  0  0
  -26.1462  -33.1709   22.2340 C   0  0  0  0  0  0  0  0  0  0  0  0
  -28.9847  -17.0699   19.6870 C   0  0  0  0  0  0  0  0  0  0  0  0
  -26.1981  -34.3617   24.2592 C   0  0  0  0  0  0  0  0  0  0  0  0
  -26.2396  -34.3390   27.0485 C   0  0  0  0  0  0  0  0  0  0  0  0
  -25.1746  -34.9804   24.9770 C   0  0  0  0  0  0  0  0  0  0  0  0
  -26.0470  -29.4401   20.2415 C   0  0  0  0  0  0  0  0  0  0  0  0
  -25.5777  -27.7782   18.8804 C   0  0  0  0  0  0  0  0  0  0  0  0
  -32.2587  -18.3902   20.0604 C   0  0  0  0  0  0  0  0  0  0  0  0
  -30.9753  -18.1176   20.3275 C   0  0  0  0  0  0  0  0  0  1  0  0
  -32.6149  -23.3263   20.0068 C   0  0  0  0  0  0  0  0  0  0  0  0
  -24.2481  -29.8507   18.4498 C   0  0  0  0  0  0  0  0  0  0  0  0
  -23.8365  -17.8391   21.2262 C   0  0  0  0  0  0  0  0  0  0  0  0
  -23.4193  -14.6258   21.0736 C   0  0  0  0  0  0  0  0  0  0  0  0
  -24.7747  -11.5541   20.4623 C   0  0  0  0  0  0  0  0  0  0  0  0
  -30.6896  -24.8976   20.0359 C   0  0  0  0  0  0  0  0  0  0  0  0
  -19.7196  -20.5890   22.4697 C   0  0  0  0  0  0  0  0  0  0  0  0
  -24.7540  -17.3206   18.9359 C   0  0  0  0  0  0  0  0  0  0  0  0
  -25.7985  -15.4604   20.9836 C   0  0  0  0  0  0  0  0  0  0  0  0
  -20.2563  -19.2050   22.8256 C   0  0  0  0  0  0  0  0  0  0  0  0
  -27.2549  -23.8248   20.9357 C   0  0  0  0  0  0  0  0  0  0  0  0
  -21.7246  -19.2897   23.2305 C   0  0  0  0  0  0  0  0  0  0  0  0
  -26.5062  -25.1490   20.8320 C   0  0  0  0  0  0  0  0  0  0  0  0
  -28.7056  -24.0145   21.3771 C   0  0  0  0  0  0  0  0  0  0  0  0
  -28.7080  -26.3061   20.4156 C   0  0  0  0  0  0  0  0  0  0  0  0
  -22.5858  -19.8152   22.0757 C   0  0  1  0  0  0  0  0  0  0  0  0
  -23.8932  -16.8440   20.1018 C   0  0  1  0  0  0  0  0  0  0  0  0
  -27.2657  -26.1241   19.9213 C   0  0  2  0  0  0  0  0  0  0  0  0
  -24.1973   -9.1119   20.4562 C   0  0  0  0  0  0  0  0  0  0  0  0
  -23.5481  -14.5902   24.1219 C   0  0  0  0  0  0  0  0  0  0  0  0
  -23.9225  -12.1174   24.0078 C   0  0  0  0  0  0  0  0  0  0  0  0
  -21.8015  -13.0975   23.1341 C   0  0  0  0  0  0  0  0  0  0  0  0
  -25.3701  -11.3017   17.5743 C   0  0  0  0  0  0  0  0  0  0  0  0
  -23.9490  -13.4412   21.8449 C   0  0  1  0  0  0  0  0  0  0  0  0
  -24.2841  -10.3845   19.6281 C   0  0  2  0  0  0  0  0  0  0  0  0
  -23.3227  -13.3295   23.2636 C   0  0  0  0  0  0  0  0  0  0  0  0
  -26.8511  -28.4486   20.6344 N   0  0  0  0  0  0  0  0  0  0  0  0
  -26.5422  -27.4517   19.7878 N   0  0  0  0  0  0  0  0  0  0  0  0
  -24.3645  -15.5807   20.6729 N   0  0  0  0  0  0  0  0  0  0  0  0
  -29.4023  -25.0228   20.5667 N   0  0  0  0  0  0  0  0  0  0  0  0
  -35.9240  -20.6752   22.4758 N   0  0  0  0  0  0  0  0  0  0  0  0
  -34.6185  -18.2877   21.7110 N   0  0  0  0  0  0  0  0  0  0  0  0
  -25.1484  -26.8931   17.9559 N   0  0  0  0  0  0  0  0  0  0  0  0
  -24.0169  -31.1709   18.8596 N   0  0  0  0  0  0  0  0  0  0  0  0
  -31.3680  -23.6640   20.3705 N   0  0  0  0  0  0  0  0  0  0  0  0
  -22.8215  -18.7687   21.1042 N   0  0  0  0  0  0  0  0  0  0  0  0
  -23.7279  -12.2723   21.0004 N   0  0  0  0  0  0  0  0  0  0  0  0
  -33.4180  -24.0912   19.2676 N   0  3  0  0  0  0  0  0  0  0  0  0
  -25.2088  -10.1394   18.4854 N   0  3  0  0  0  0  0  0  0  0  0  0
  -23.5825  -29.3780   17.4974 O   0  0  0  0  0  0  0  0  0  0  0  0
  -24.6524  -17.7678   22.1378 O   0  0  0  0  0  0  0  0  0  0  0  0
  -22.2123  -14.6977   20.8294 O   0  0  0  0  0  0  0  0  0  0  0  0
  -25.9674  -11.8032   20.6238 O   0  0  0  0  0  0  0  0  0  0  0  0
  -31.2677  -25.7418   19.3598 O   0  0  0  0  0  0  0  0  0  0  0  0
  -26.1785  -34.3713   22.8746 O   0  0  0  0  0  0  0  0  0  0  0  0
  -30.3230  -16.9882   19.9194 O   0  0  0  0  0  0  0  0  0  1  0  0
  -26.2589  -34.3267   28.3878 F   0  0  0  0  0  0  0  0  0  0  0  0
  -24.1681  -35.5863   24.3322 F   0  0  0  0  0  0  0  0  0  0  0  0
  1  2  1  0  0  0  0
  1  5  2  0  0  0  0
  2  6  2  0  0  0  0
  3  8  2  0  0  0  0
  3 17  1  0  0  0  0
  4  9  1  0  0  0  0
  4 17  2  0  0  0  0
  5 21  1  0  0  0  0
  6 23  1  0  0  0  0
  7 10  2  0  0  0  0
  7 22  1  0  0  0  0
  8 27  1  0  0  0  0
  9 27  2  0  0  0  0
 10 28  1  0  0  0  0
 11 12  2  0  0  0  0
 11 29  1  0  0  0  0
 12 30  1  0  0  0  0
 13 18  2  0  0  0  0
 13 19  1  0  0  0  0
 14 18  1  0  0  0  0
 14 25  2  0  0  0  0
 15 24  1  0  0  0  0
 15 28  2  0  0  0  0
 16 30  2  0  0  0  0
 16 31  1  0  0  0  0
 17 32  1  0  0  0  0
 18 36  1  0  0  0  0
 19 26  2  0  0  0  0
 19 34  1  0  0  0  0
 20 32  1  0  0  0  0
 20 33  2  0  0  0  0
 20 37  1  0  0  0  0
 21 23  2  0  0  0  0
 21 42  1  0  0  0  0
 22 24  2  0  0  0  0
 22 43  1  0  0  0  0
 23 51  1  0  0  0  0
 24 44  1  0  0  0  0
 25 26  1  0  0  0  0
 25 66  1  0  0  0  0
 26 67  1  0  0  0  0
 27 80  1  0  0  0  0
 28 81  1  0  0  0  0
 29 31  2  0  0  0  0
 29 80  1  0  0  0  0
 30 82  1  0  0  0  0
 31 83  1  0  0  0  0
 32 62  2  0  0  0  0
 33 63  1  0  0  0  0
 33 68  1  0  0  0  0
 34 35  2  0  0  0  0
 35 81  1  0  0  0  0
 36 70  1  0  0  0  0
 36 73  2  0  0  0  0
 37 69  1  0  0  0  0
 37 75  2  0  0  0  0
 38 52  1  0  0  0  0
 38 71  1  0  0  0  0
 38 76  2  0  0  0  0
 39 59  1  0  0  0  0
 39 64  1  0  0  0  0
 39 77  2  0  0  0  0
 40 60  1  0  0  0  0
 40 72  1  0  0  0  0
 40 78  2  0  0  0  0
 41 65  1  0  0  0  0
 41 70  1  0  0  0  0
 41 79  2  0  0  0  0
 42 45  1  0  0  0  0
 43 52  1  0  0  0  0
 44 64  1  0  0  0  0
 45 47  1  0  0  0  0
 46 48  1  0  0  0  0
 46 49  1  0  0  0  0
 47 51  1  0  0  0  0
 48 53  1  0  0  0  0
 49 65  1  0  0  0  0
 50 53  1  0  0  0  0
 50 65  1  0  0  0  0
 51 71  1  0  0  0  0
 52 64  1  0  0  0  0
 53 63  1  0  0  0  0
 54 60  1  0  0  0  0
 55 61  1  0  0  0  0
 56 61  1  0  0  0  0
 57 61  1  0  0  0  0
 58 74  1  0  0  0  0
 59 61  1  0  0  0  0
 59 72  1  0  0  0  0
 60 74  1  0  0  0  0
 62 63  1  0  0  0  0
M  CHG  2  73   1  74   1
M  ISO  4  35 101  41 100  70 100  81 101
M  END
> <Batch ID>
0091

> <Smiles>
CNC(C)C(=O)NC(C(=O)N1Cc2cc([101O:1][101CH:1]=Cc3cc(C(=N)[100NH:0][100C:0](=O)N4CCCC(n5nc(-c6ccc(Oc7ccc(F)cc7F)cc6)c(C(N)=O)c5N)C4)cc(N)c3N)ccc2CC1C(=O)NC1CCCc2ccccc21)C(C)(C)C

> <Shape>
0.195

> <Color>
0.084

> <Negative vol penalty>
0.000

$$$$

  -OEChem-04052300313D

 87 95  0     1  0  0  0  0  0999 V2000
  -27.2360  -35.3690   23.8250 C   0  0  0  0  0  0  0  0  0  0  0  0
  -27.5715  -34.0424   23.5740 C   0  0  0  0  0  0  0  0  0  0  0  0
  -22.5489  -18.2541   22.8526 C   0  0  0  0  0  0  0  0  0  0  0  0
  -21.1730  -18.1583   20.8690 C   0  0  0  0  0  0  0  0  0  0  0  0
  -25.9268  -35.7026   24.1692 C   0  0  0  0  0  0  0  0  0  0  0  0
  -26.5981  -33.0485   23.6680 C   0  0  0  0  0  0  0  0  0  0  0  0
  -26.7708  -29.7876   19.7974 C   0  0  0  0  0  0  0  0  0  0  0  0
  -22.2381  -19.6055   23.0030 C   0  0  0  0  0  0  0  0  0  0  0  0
  -20.8621  -19.5098   21.0194 C   0  0  0  0  0  0  0  0  0  0  0  0
  -27.7631  -28.8089   19.8331 C   0  0  0  0  0  0  0  0  0  0  0  0
  -23.2019  -22.5484   21.6484 C   0  0  0  0  0  0  0  0  0  0  0  0
  -24.2466  -23.4239   21.9447 C   0  0  0  0  0  0  0  0  0  0  0  0
  -29.9661  -18.2586   17.5083 C   0  0  0  0  0  0  0  0  0  0  0  0
  -28.7588  -20.2805   18.0478 C   0  0  0  0  0  0  0  0  0  0  0  0
  -26.1455  -27.2062   20.6292 C   0  0  0  0  0  0  0  0  0  0  0  0
  -23.1413  -24.0468   24.0008 C   0  0  0  0  0  0  0  0  0  0  0  0
  -22.0164  -17.5305   21.7856 C   0  0  0  0  0  0  0  0  0  0  0  0
  -28.7584  -18.9329   17.6880 C   0  0  0  0  0  0  0  0  0  0  0  0
  -21.6395  -15.0364   22.1664 C   0  0  0  0  0  0  0  0  0  0  0  0
  -24.9346  -34.7135   24.2581 C   0  0  0  0  0  0  0  0  0  0  0  0
  -25.4585  -29.4851   20.1884 C   0  0  0  0  0  0  0  0  0  0  0  0
  -25.2746  -33.3690   24.0151 C   0  0  0  0  0  0  0  0  0  0  0  0
  -25.1378  -28.1821   20.5951 C   0  0  0  0  0  0  0  0  0  0  0  0
  -31.1744  -18.9320   17.6886 C   0  0  0  0  0  0  0  0  0  0  0  0
  -29.9671  -20.9539   18.2280 C   0  0  0  0  0  0  0  0  0  0  0  0
  -31.1748  -20.2796   18.0483 C   0  0  0  0  0  0  0  0  0  0  0  0
  -21.3946  -20.2334   22.0864 C   0  0  0  0  0  0  0  0  0  0  0  0
  -27.4512  -27.5188   20.2518 C   0  0  0  0  0  0  0  0  0  0  0  0
  -22.1269  -22.4222   22.5282 C   0  0  0  0  0  0  0  0  0  0  0  0
  -24.2163  -24.1731   23.1209 C   0  0  0  0  0  0  0  0  0  0  0  0
  -22.0966  -23.1714   23.7044 C   0  0  0  0  0  0  0  0  0  0  0  0
  -22.3376  -16.1346   21.6294 C   0  0  0  0  0  0  0  0  0  0  0  0
  -22.3407  -13.9382   21.7320 C   0  0  0  0  0  0  0  0  0  0  0  0
  -27.4784  -18.2194   17.4973 C   0  0  0  0  0  0  0  0  0  0  0  0
  -20.4625  -15.0113   22.9846 C   0  0  0  0  0  0  0  0  0  0  0  0
  -23.5075  -30.5107   22.4787 C   0  0  0  0  0  0  0  0  0  0  0  0
  -29.1235  -24.4012   19.4473 C   0  0  0  0  0  0  0  0  0  0  0  0
  -21.3555  -28.6243   20.9514 C   0  0  0  0  0  0  0  0  0  0  0  0
  -20.7814  -25.9566   18.9019 C   0  0  0  0  0  0  0  0  0  0  0  0
  -26.0411  -16.3290   18.2304 C   0  0  0  0  0  0  0  0  0  0  0  0
  -23.5437  -35.1163   24.6798 C   0  0  0  0  0  0  0  0  0  0  0  0
  -24.3936  -30.5451   20.1187 C   0  0  0  0  0  0  0  0  0  0  0  0
  -23.7397  -27.8010   21.0057 C   0  0  0  0  0  0  0  0  0  0  0  0
  -22.4878  -34.0521   24.3920 C   0  0  0  0  0  0  0  0  0  0  0  0
  -26.5491  -14.4371   21.4479 C   0  0  0  0  0  0  0  0  0  0  0  0
  -22.9761  -32.6796   24.8443 C   0  0  0  0  0  0  0  0  0  0  0  0
  -25.6122  -13.2593   21.2219 C   0  0  0  0  0  0  0  0  0  0  0  0
  -27.0791  -15.0062   20.1359 C   0  0  0  0  0  0  0  0  0  0  0  0
  -25.0021  -14.2346   18.9748 C   0  0  0  0  0  0  0  0  0  0  0  0
  -24.2411  -32.2656   24.0828 C   0  0  1  0  0  0  0  0  0  0  0  0
  -23.2037  -30.2575   21.0291 C   0  0  1  0  0  0  0  0  0  0  0  0
  -24.4577  -13.6246   20.2780 C   0  0  2  0  0  0  0  0  0  0  0  0
  -18.9177  -24.6344   17.8648 C   0  0  0  0  0  0  0  0  0  0  0  0
  -20.8274  -27.2693   23.6337 C   0  0  0  0  0  0  0  0  0  0  0  0
  -19.7218  -25.3976   22.3917 C   0  0  0  0  0  0  0  0  0  0  0  0
  -18.7808  -27.7043   22.2640 C   0  0  0  0  0  0  0  0  0  0  0  0
  -21.6853  -26.6128   16.1612 C   0  0  0  0  0  0  0  0  0  0  0  0
  -32.4521  -18.1830   17.4889 C   0  0  0  0  0  0  0  0  0  0  0  0
  -28.8053  -22.9449   19.1830 C   0  0  0  0  0  0  0  0  0  0  0  0
  -28.0055  -25.2130   20.0720 C   0  0  0  0  0  0  0  0  0  1  0  0
  -20.9383  -27.1773   21.0559 C   0  0  1  0  0  0  0  0  0  0  0  0
  -19.8855  -25.7939   17.6873 C   0  0  2  0  0  0  0  0  0  0  0  0
  -20.0939  -26.8945   22.3305 C   0  0  0  0  0  0  0  0  0  0  0  0
  -23.4008  -15.7675   20.9090 N   0  0  0  0  0  0  0  0  0  0  0  0
  -23.3761  -14.4263   20.9904 N   0  0  0  0  0  0  0  0  0  0  0  0
  -22.7349  -28.8741   20.9264 N   0  0  0  0  0  0  0  0  0  0  0  0
  -26.0223  -15.2744   19.1532 N   0  0  0  0  0  0  0  0  0  0  0  0
  -32.4023  -20.9594   18.2302 N   0  0  0  0  0  0  0  0  0  0  0  0
  -22.1666  -12.6122   21.9160 N   0  0  0  0  0  0  0  0  0  0  0  0
  -26.6492  -18.6799   16.5609 N   0  0  0  0  0  0  0  0  0  0  0  0
  -19.8686  -16.2304   23.3386 N   0  0  0  0  0  0  0  0  0  0  0  0
  -29.9434  -22.2943   18.5859 N   0  0  0  0  0  0  0  0  0  0  0  0
  -23.9028  -31.8061   22.7528 N   0  0  0  0  0  0  0  0  0  0  0  0
  -20.2582  -26.8572   19.8055 N   0  0  0  0  0  0  0  0  0  0  0  0
  -27.2283  -17.1557   18.2764 N   0  3  0  0  0  0  0  0  0  0  0  0
  -32.9544  -17.5356   18.7308 N   0  3  0  0  0  0  0  0  0  0  0  0
  -20.7054  -25.5395   16.4691 N   0  3  0  0  0  0  0  0  0  0  0  0
  -19.9618  -13.9401   23.4035 O   0  0  0  0  0  0  0  0  0  0  0  0
  -23.3903  -29.5987   23.2888 O   0  0  0  0  0  0  0  0  0  0  0  0
  -30.2135  -24.9038   19.1768 O   0  0  0  0  0  0  0  0  0  0  0  0
  -20.4893  -29.5003   20.8869 O   0  0  0  0  0  0  0  0  0  0  0  0
  -21.8377  -25.3431   19.0374 O   0  0  0  0  0  0  0  0  0  0  0  0
  -25.1680  -16.5681   17.4030 O   0  0  0  0  0  0  0  0  0  0  0  0
  -21.0909  -21.5520   22.2330 O   0  0  0  0  0  0  0  0  0  0  0  0
  -28.4181  -26.5619   20.2882 O   0  0  0  0  0  0  0  0  0  1  0  0
  -25.2203  -25.0126   23.4060 F   0  0  0  0  0  0  0  0  0  0  0  0
  -21.0671  -23.0535   24.5541 F   0  0  0  0  0  0  0  0  0  0  0  0
  1  2  1  0  0  0  0
  1  5  2  0  0  0  0
  2  6  2  0  0  0  0
  3  8  2  0  0  0  0
  3 17  1  0  0  0  0
  4  9  1  0  0  0  0
  4 17  2  0  0  0  0
  5 20  1  0  0  0  0
  6 22  1  0  0  0  0
  7 10  2  0  0  0  0
  7 21  1  0  0  0  0
  8 27  1  0  0  0  0
  9 27  2  0  0  0  0
 10 28  1  0  0  0  0
 11 12  2  0  0  0  0
 11 29  1  0  0  0  0
 12 30  1  0  0  0  0
 13 18  1  0  0  0  0
 13 24  2  0  0  0  0
 14 18  2  0  0  0  0
 14 25  1  0  0  0  0
 15 23  1  0  0  0  0
 15 28  2  0  0  0  0
 16 30  2  0  0  0  0
 16 31  1  0  0  0  0
 17 32  1  0  0  0  0
 18 34  1  0  0  0  0
 19 32  1  0  0  0  0
 19 33  2  0  0  0  0
 19 35  1  0  0  0  0
 20 22  2  0  0  0  0
 20 41  1  0  0  0  0
 21 23  2  0  0  0  0
 21 42  1  0  0  0  0
 22 50  1  0  0  0  0
 23 43  1  0  0  0  0
 24 26  1  0  0  0  0
 24 58  1  0  0  0  0
 25 26  2  0  0  0  0
 25 72  1  0  0  0  0
 26 68  1  0  0  0  0
 27 84  1  0  0  0  0
 28 85  1  0  0  0  0
 29 31  2  0  0  0  0
 29 84  1  0  0  0  0
 30 86  1  0  0  0  0
 31 87  1  0  0  0  0
 32 64  2  0  0  0  0
 33 65  1  0  0  0  0
 33 69  1  0  0  0  0
 34 70  1  0  0  0  0
 34 75  2  0  0  0  0
 35 71  1  0  0  0  0
 35 78  2  0  0  0  0
 36 51  1  0  0  0  0
 36 73  1  0  0  0  0
 36 79  2  0  0  0  0
 37 59  1  0  0  0  0
 37 60  1  0  0  0  0
 37 80  2  0  0  0  0
 38 61  1  0  0  0  0
 38 66  1  0  0  0  0
 38 81  2  0  0  0  0
 39 62  1  0  0  0  0
 39 74  1  0  0  0  0
 39 82  2  0  0  0  0
 40 67  1  0  0  0  0
 40 75  1  0  0  0  0
 40 83  2  0  0  0  0
 41 44  1  0  0  0  0
 42 51  1  0  0  0  0
 43 66  1  0  0  0  0
 44 46  1  0  0  0  0
 45 47  1  0  0  0  0
 45 48  1  0  0  0  0
 46 50  1  0  0  0  0
 47 52  1  0  0  0  0
 48 67  1  0  0  0  0
 49 52  1  0  0  0  0
 49 67  1  0  0  0  0
 50 73  1  0  0  0  0
 51 66  1  0  0  0  0
 52 65  1  0  0  0  0
 53 62  1  0  0  0  0
 54 63  1  0  0  0  0
 55 63  1  0  0  0  0
 56 63  1  0  0  0  0
 57 77  1  0  0  0  0
 58 76  1  0  0  0  0
 59 72  1  0  0  0  0
 60 85  1  0  0  0  0
 61 63  1  0  0  0  0
 61 74  1  0  0  0  0
 62 77  1  0  0  0  0
 64 65  1  0  0  0  0
M  CHG  3  75   1  76   1  77   1
M  ISO  4  40 100  60 101  75 100  85 101
M  END
> <Batch ID>
0091

> <Smiles>
CNC(C)C(=O)NC(C(=O)N1Cc2cc([101O:1][101CH2:1]C(=O)CNc3cc(C(N)=[100N:0][100C:0](=O)N4CCCC(n5nc(-c6ccc(Oc7ccc(F)cc7F)cc6)c(C(N)=O)c5N)C4)cc(CN)c3N)ccc2CC1C(=O)NC1CCCc2ccccc21)C(C)(C)C

> <Shape>
0.224

> <Color>
0.073

> <Negative vol penalty>
0.000

$$$$

  -OEChem-04052300313D

 87 96  0     1  0  0  0  0  0999 V2000
  -21.5027  -32.2470   28.7789 C   0  0  0  0  0  0  0  0  0  0  0  0
  -22.7528  -31.7932   28.3706 C   0  0  0  0  0  0  0  0  0  0  0  0
  -24.5547   -8.7968   22.3228 C   0  0  0  0  0  0  0  0  0  0  0  0
  -24.0301   -9.0152   19.9746 C   0  0  0  0  0  0  0  0  0  0  0  0
  -28.7874  -20.0621   17.6912 C   0  0  0  0  0  0  0  0  0  0  0  0
  -31.1730  -19.9208   18.0465 C   0  0  0  0  0  0  0  0  0  0  0  0
  -20.3694  -31.9321   28.0302 C   0  0  0  0  0  0  0  0  0  0  0  0
  -22.8703  -31.0234   27.2139 C   0  0  0  0  0  0  0  0  0  0  0  0
  -27.3690  -29.7537   21.7857 C   0  0  0  0  0  0  0  0  0  0  0  0
  -28.8451  -21.4461   17.8542 C   0  0  0  0  0  0  0  0  0  0  0  0
  -31.2306  -21.3049   18.2095 C   0  0  0  0  0  0  0  0  0  0  0  0
  -23.3754   -8.0785   22.5196 C   0  0  0  0  0  0  0  0  0  0  0  0
  -22.8507   -8.2969   20.1713 C   0  0  0  0  0  0  0  0  0  0  0  0
  -27.9980  -28.6941   21.1334 C   0  0  0  0  0  0  0  0  0  0  0  0
  -22.2655   -4.9249   22.0132 C   0  0  0  0  0  0  0  0  0  0  0  0
  -22.3335   -3.7666   22.7872 C   0  0  0  0  0  0  0  0  0  0  0  0
  -25.9814  -28.2789   19.8763 C   0  0  0  0  0  0  0  0  0  0  0  0
  -30.6574  -25.5896   17.9721 C   0  0  0  0  0  0  0  0  0  0  0  0
  -20.7492   -4.7149   24.3454 C   0  0  0  0  0  0  0  0  0  0  0  0
  -24.8821   -9.2652   21.0504 C   0  0  0  0  0  0  0  0  0  0  0  0
  -29.9514  -19.2994   17.7874 C   0  0  0  0  0  0  0  0  0  0  0  0
  -27.3662   -9.4895   20.5153 C   0  0  0  0  0  0  0  0  0  0  0  0
  -20.4743  -31.1662   26.8585 C   0  0  0  0  0  0  0  0  0  0  0  0
  -26.0358  -30.0775   21.4955 C   0  0  0  0  0  0  0  0  0  0  0  0
  -21.7372  -30.6969   26.4495 C   0  0  0  0  0  0  0  0  0  0  0  0
  -25.3387  -29.3447   20.5244 C   0  0  0  0  0  0  0  0  0  0  0  0
  -29.7704  -25.4984   19.0730 C   0  0  0  0  0  0  0  0  0  0  0  0
  -30.0667  -22.0676   18.1134 C   0  0  0  0  0  0  0  0  0  0  0  0
  -22.5233   -7.8285   21.4438 C   0  0  0  0  0  0  0  0  0  0  0  0
  -27.3033  -27.9547   20.1806 C   0  0  0  0  0  0  0  0  0  0  0  0
  -21.4395   -5.9783   22.4053 C   0  0  0  0  0  0  0  0  0  0  0  0
  -21.5753   -3.6615   23.9533 C   0  0  0  0  0  0  0  0  0  0  0  0
  -20.6813   -5.8733   23.5714 C   0  0  0  0  0  0  0  0  0  0  0  0
  -26.1000  -10.0077   20.8466 C   0  0  0  0  0  0  0  0  0  0  0  0
  -29.4573  -24.1675   19.2398 C   0  0  0  0  0  0  0  0  0  0  0  0
  -28.1790  -10.5938   20.4356 C   0  0  0  0  0  0  0  0  0  0  0  0
  -30.8592  -24.3116   17.4995 C   0  0  0  0  0  0  0  0  0  0  0  0
  -29.8906  -17.8328   17.6149 C   0  0  0  0  0  0  0  0  0  0  0  0
  -27.7715   -8.1314   20.2989 C   0  0  0  0  0  0  0  0  0  0  0  0
  -23.3297  -30.1428   23.1617 C   0  0  0  0  0  0  0  0  0  0  0  0
  -22.1391  -31.4384   20.4366 C   0  0  0  0  0  0  0  0  0  0  0  0
  -22.3978  -31.8166   17.0548 C   0  0  0  0  0  0  0  0  0  0  0  0
  -28.9381  -15.6951   18.4514 C   0  0  0  0  0  0  0  0  0  0  0  0
  -19.2151  -30.8115   26.1080 C   0  0  0  0  0  0  0  0  0  0  0  0
  -25.3802  -31.2403   22.1886 C   0  0  0  0  0  0  0  0  0  0  0  0
  -23.9122  -29.6647   20.1620 C   0  0  0  0  0  0  0  0  0  0  0  0
  -19.4726  -30.3063   24.6907 C   0  0  0  0  0  0  0  0  0  0  0  0
  -27.4162  -15.3737   21.8186 C   0  0  0  0  0  0  0  0  0  0  0  0
  -20.5927  -29.2708   24.6883 C   0  0  0  0  0  0  0  0  0  0  0  0
  -26.9751  -13.9144   21.7941 C   0  0  0  0  0  0  0  0  0  0  0  0
  -27.3623  -16.0169   20.4334 C   0  0  0  0  0  0  0  0  0  0  0  0
  -27.6852  -13.7906   19.3773 C   0  0  0  0  0  0  0  0  0  0  0  0
  -21.9085  -29.8803   25.1870 C   0  0  1  0  0  0  0  0  0  0  0  0
  -23.8569  -31.1561   22.1856 C   0  0  1  0  0  0  0  0  0  0  0  0
  -27.7886  -13.1261   20.7577 C   0  0  2  0  0  0  0  0  0  0  0  0
  -28.5759  -23.5227   20.2392 C   0  0  0  0  0  0  0  0  0  0  0  0
  -21.2560  -32.9011   15.1008 C   0  0  0  0  0  0  0  0  0  0  0  0
  -19.9870  -29.2763   20.4972 C   0  0  0  0  0  0  0  0  0  0  0  0
  -19.4880  -29.8038   18.1012 C   0  0  0  0  0  0  0  0  0  0  0  0
  -19.1648  -31.5489   19.8542 C   0  0  0  0  0  0  0  0  0  0  0  0
  -24.7760  -33.4641   16.4310 C   0  0  0  0  0  0  0  0  0  0  0  0
  -29.2692  -26.6463   19.8990 C   0  0  0  0  0  0  0  0  0  1  0  0
  -21.5103  -30.8905   19.1782 C   0  0  1  0  0  0  0  0  0  0  0  0
  -22.3268  -33.0486   16.1706 C   0  0  2  0  0  0  0  0  0  0  0  0
  -20.0638  -30.3724   19.4157 C   0  0  0  0  0  0  0  0  0  0  0  0
  -26.1031  -11.3378   20.9692 N   0  0  0  0  0  0  0  0  0  0  0  0
  -30.1245  -23.4554   18.2775 N   0  0  0  0  0  0  0  0  0  0  0  0
  -27.3813  -11.6646   20.7135 N   0  0  0  0  0  0  0  0  0  0  0  0
  -23.3128  -30.8068   20.8718 N   0  0  0  0  0  0  0  0  0  0  0  0
  -28.0570  -15.2089   19.4217 N   0  0  0  0  0  0  0  0  0  0  0  0
  -29.4911  -10.7437   20.1556 N   0  0  0  0  0  0  0  0  0  0  0  0
  -26.8094   -7.1195   20.4205 N   0  0  0  0  0  0  0  0  0  0  0  0
  -29.1229  -17.1304   18.4624 N   0  0  0  0  0  0  0  0  0  0  0  0
  -22.5222  -30.6780   24.1471 N   0  0  0  0  0  0  0  0  0  0  0  0
  -21.6096  -31.9483   18.1784 N   0  0  0  0  0  0  0  0  0  0  0  0
  -30.6093  -17.2976   16.6283 N   0  3  0  0  0  0  0  0  0  0  0  0
  -23.6359  -33.2786   15.4967 N   0  3  0  0  0  0  0  0  0  0  0  0
  -28.9555   -7.8227   20.0224 O   0  0  0  0  0  0  0  0  0  0  0  0
  -23.6319  -28.9626   23.0297 O   0  0  0  0  0  0  0  0  0  0  0  0
  -21.6124  -32.3962   21.0083 O   0  0  0  0  0  0  0  0  0  0  0  0
  -23.0810  -30.8342   16.7746 O   0  0  0  0  0  0  0  0  0  0  0  0
  -29.5160  -15.0172   17.6086 O   0  0  0  0  0  0  0  0  0  0  0  0
  -31.6020  -23.8743   16.4896 O   0  0  0  0  0  0  0  0  0  0  0  0
  -21.3725   -7.1274   21.6353 O   0  0  0  0  0  0  0  0  0  0  0  0
  -27.9146  -26.9196   19.5429 O   0  0  0  0  0  0  0  0  0  1  0  0
  -21.6395   -2.5485   24.6957 F   0  0  0  0  0  0  0  0  0  0  0  0
  -19.8850   -6.8815   23.9526 F   0  0  0  0  0  0  0  0  0  0  0  0
  1  2  1  0  0  0  0
  1  7  2  0  0  0  0
  2  8  2  0  0  0  0
  3 12  2  0  0  0  0
  3 20  1  0  0  0  0
  4 13  1  0  0  0  0
  4 20  2  0  0  0  0
  5 10  2  0  0  0  0
  5 21  1  0  0  0  0
  6 11  1  0  0  0  0
  6 21  2  0  0  0  0
  7 23  1  0  0  0  0
  8 25  1  0  0  0  0
  9 14  2  0  0  0  0
  9 24  1  0  0  0  0
 10 28  1  0  0  0  0
 11 28  2  0  0  0  0
 12 29  1  0  0  0  0
 13 29  2  0  0  0  0
 14 30  1  0  0  0  0
 15 16  2  0  0  0  0
 15 31  1  0  0  0  0
 16 32  1  0  0  0  0
 17 26  1  0  0  0  0
 17 30  2  0  0  0  0
 18 27  1  0  0  0  0
 18 37  2  0  0  0  0
 19 32  2  0  0  0  0
 19 33  1  0  0  0  0
 20 34  1  0  0  0  0
 21 38  1  0  0  0  0
 22 34  1  0  0  0  0
 22 36  2  0  0  0  0
 22 39  1  0  0  0  0
 23 25  2  0  0  0  0
 23 44  1  0  0  0  0
 24 26  2  0  0  0  0
 24 45  1  0  0  0  0
 25 53  1  0  0  0  0
 26 46  1  0  0  0  0
 27 35  2  0  0  0  0
 27 62  1  0  0  0  0
 28 67  1  0  0  0  0
 29 84  1  0  0  0  0
 30 85  1  0  0  0  0
 31 33  2  0  0  0  0
 31 84  1  0  0  0  0
 32 86  1  0  0  0  0
 33 87  1  0  0  0  0
 34 66  2  0  0  0  0
 35 56  1  0  0  0  0
 35 67  1  0  0  0  0
 36 68  1  0  0  0  0
 36 71  1  0  0  0  0
 37 67  1  0  0  0  0
 37 83  1  0  0  0  0
 38 73  1  0  0  0  0
 38 76  2  0  0  0  0
 39 72  1  0  0  0  0
 39 78  2  0  0  0  0
 40 54  1  0  0  0  0
 40 74  1  0  0  0  0
 40 79  2  0  0  0  0
 41 63  1  0  0  0  0
 41 69  1  0  0  0  0
 41 80  2  0  0  0  0
 42 64  1  0  0  0  0
 42 75  1  0  0  0  0
 42 81  2  0  0  0  0
 43 70  1  0  0  0  0
 43 73  1  0  0  0  0
 43 82  2  0  0  0  0
 44 47  1  0  0  0  0
 45 54  1  0  0  0  0
 46 69  1  0  0  0  0
 47 49  1  0  0  0  0
 48 50  1  0  0  0  0
 48 51  1  0  0  0  0
 49 53  1  0  0  0  0
 50 55  1  0  0  0  0
 51 70  1  0  0  0  0
 52 55  1  0  0  0  0
 52 70  1  0  0  0  0
 53 74  1  0  0  0  0
 54 69  1  0  0  0  0
 55 68  1  0  0  0  0
 57 64  1  0  0  0  0
 58 65  1  0  0  0  0
 59 65  1  0  0  0  0
 60 65  1  0  0  0  0
 61 77  1  0  0  0  0
 62 85  1  0  0  0  0
 63 65  1  0  0  0  0
 63 75  1  0  0  0  0
 64 77  1  0  0  0  0
 66 68  1  0  0  0  0
M  CHG  2  76   1  77   1
M  ISO  4  43 100  62 101  73 100  85 101
M  END
> <Batch ID>
0091

> <Smiles>
CNC(C)C(=O)NC(C(=O)N1Cc2cc([101O:1][101CH2:1]C3=C(C)N(c4ccc(C(=N)[100NH:0][100C:0](=O)N5CCCC(n6nc(-c7ccc(Oc8ccc(F)cc8F)cc7)c(C(N)=O)c6N)C5)cc4)C(=O)C3)ccc2CC1C(=O)NC1CCCc2ccccc21)C(C)(C)C

> <Shape>
0.258

> <Color>
0.102

> <Negative vol penalty>
0.000

$$$$

  -OEChem-04052300313D

 86 95  0     1  0  0  0  0  0999 V2000
  -28.9326  -33.3893   24.0775 C   0  0  0  0  0  0  0  0  0  0  0  0
  -28.8625  -32.0997   23.5604 C   0  0  0  0  0  0  0  0  0  0  0  0
  -23.4707   -9.3143   20.6666 C   0  0  0  0  0  0  0  0  0  0  0  0
  -23.0515  -11.6663   21.0263 C   0  0  0  0  0  0  0  0  0  0  0  0
  -27.8414  -33.9259   24.7597 C   0  0  0  0  0  0  0  0  0  0  0  0
  -27.7015  -31.3455   23.7261 C   0  0  0  0  0  0  0  0  0  0  0  0
  -26.3031  -28.9726   19.4765 C   0  0  0  0  0  0  0  0  0  0  0  0
  -22.3671   -8.9965   21.4583 C   0  0  0  0  0  0  0  0  0  0  0  0
  -21.9479  -11.3485   21.8180 C   0  0  0  0  0  0  0  0  0  0  0  0
  -26.9989  -27.8135   19.1360 C   0  0  0  0  0  0  0  0  0  0  0  0
  -21.6337   -8.8206   24.7530 C   0  0  0  0  0  0  0  0  0  0  0  0
  -21.7858   -7.8064   25.6985 C   0  0  0  0  0  0  0  0  0  0  0  0
  -25.2017  -26.4781   20.0339 C   0  0  0  0  0  0  0  0  0  0  0  0
  -31.7549  -19.9235   20.9229 C   0  0  0  0  0  0  0  0  0  0  0  0
  -20.0264   -6.5439   24.6272 C   0  0  0  0  0  0  0  0  0  0  0  0
  -23.8129  -10.6492   20.4506 C   0  0  0  0  0  0  0  0  0  0  0  0
  -25.1539  -10.6447   18.2805 C   0  0  0  0  0  0  0  0  0  0  0  0
  -26.6629  -33.1813   24.9255 C   0  0  0  0  0  0  0  0  0  0  0  0
  -25.0542  -28.8932   20.1092 C   0  0  0  0  0  0  0  0  0  0  0  0
  -26.5940  -31.8720   24.4123 C   0  0  0  0  0  0  0  0  0  0  0  0
  -24.4909  -27.6378   20.3791 C   0  0  0  0  0  0  0  0  0  0  0  0
  -31.9356  -18.5114   20.8629 C   0  0  0  0  0  0  0  0  0  0  0  0
  -21.6057  -10.0136   22.0339 C   0  0  0  0  0  0  0  0  0  0  0  0
  -26.4496  -26.5660   19.4173 C   0  0  0  0  0  0  0  0  0  0  0  0
  -20.6779   -8.6965   23.7447 C   0  0  0  0  0  0  0  0  0  0  0  0
  -20.9822   -6.6681   25.6355 C   0  0  0  0  0  0  0  0  0  0  0  0
  -19.8743   -7.5581   23.6817 C   0  0  0  0  0  0  0  0  0  0  0  0
  -24.9531  -10.9781   19.6334 C   0  0  0  0  0  0  0  0  0  0  0  0
  -26.3794  -11.1829   17.9724 C   0  0  0  0  0  0  0  0  0  0  0  0
  -30.4271  -20.2794   20.8345 C   0  0  0  0  0  0  0  0  0  0  0  0
  -30.7388  -17.8418   20.7311 C   0  0  0  0  0  0  0  0  0  0  0  0
  -29.9088  -24.0441   20.5622 C   0  0  0  0  0  0  0  0  0  0  0  0
  -29.1319  -24.1750   19.4715 C   0  0  0  0  0  0  0  0  0  0  0  0
  -30.5552  -22.7588   20.9754 C   0  0  0  0  0  0  0  0  0  0  0  0
  -24.3081   -9.9139   17.3825 C   0  0  0  0  0  0  0  0  0  0  0  0
  -23.8962  -29.8398   22.9139 C   0  0  0  0  0  0  0  0  0  0  0  0
  -21.0852  -28.8181   21.6582 C   0  0  0  0  0  0  0  0  0  0  0  0
  -17.9806  -27.6381   20.8734 C   0  0  0  0  0  0  0  0  0  0  0  0
  -29.1916  -15.8574   20.5016 C   0  0  0  0  0  0  0  0  0  0  0  0
  -25.5266  -33.7863   25.7113 C   0  0  0  0  0  0  0  0  0  0  0  0
  -24.3042  -30.1528   20.4458 C   0  0  0  0  0  0  0  0  0  0  0  0
  -23.1441  -27.4981   21.0386 C   0  0  0  0  0  0  0  0  0  0  0  0
  -28.7952  -23.0166   18.5668 C   0  0  0  0  0  0  0  0  0  0  0  0
  -24.1979  -33.0598   25.5183 C   0  0  0  0  0  0  0  0  0  0  0  0
  -27.9216  -21.9647   19.2543 C   0  0  0  0  0  0  0  0  0  0  0  0
  -30.2274  -12.1701   20.7351 C   0  0  0  0  0  0  0  0  0  0  0  0
  -24.3924  -31.5514   25.6354 C   0  0  0  0  0  0  0  0  0  0  0  0
  -29.2766  -11.5736   19.6999 C   0  0  0  0  0  0  0  0  0  0  0  0
  -28.3293  -21.6729   20.7002 C   0  0  0  0  0  0  0  0  0  0  0  0
  -30.4761  -13.6551   20.5029 C   0  0  0  0  0  0  0  0  0  0  0  0
  -27.9829  -13.6924   20.3064 C   0  0  0  0  0  0  0  0  0  0  0  0
  -25.3429  -31.0317   24.5501 C   0  0  1  0  0  0  0  0  0  0  0  0
  -23.2722  -29.9562   21.5520 C   0  0  1  0  0  0  0  0  0  0  0  0
  -28.1284  -12.5274   19.3149 C   0  0  2  0  0  0  0  0  0  0  0  0
  -15.8374  -26.8753   21.9326 C   0  0  0  0  0  0  0  0  0  0  0  0
  -22.4056  -26.1753   22.4210 C   0  0  0  0  0  0  0  0  0  0  0  0
  -20.1231  -25.1571   22.5670 C   0  0  0  0  0  0  0  0  0  0  0  0
  -20.7495  -27.0331   24.0871 C   0  0  0  0  0  0  0  0  0  0  0  0
  -16.4264  -29.7759   19.5419 C   0  0  0  0  0  0  0  0  0  0  0  0
  -28.5521  -25.5052   19.0858 C   0  0  0  0  0  0  0  0  0  1  0  0
  -20.3370  -27.5071   21.6382 C   0  0  1  0  0  0  0  0  0  0  0  0
  -16.5974  -28.0526   21.3418 C   0  0  2  0  0  0  0  0  0  0  0  0
  -20.9126  -26.4806   22.6543 C   0  0  0  0  0  0  0  0  0  0  0  0
  -25.9697  -11.6741   20.1493 N   0  0  0  0  0  0  0  0  0  0  0  0
  -26.8211  -11.7824   19.1151 N   0  0  0  0  0  0  0  0  0  0  0  0
  -29.7919  -21.5801   20.8517 N   0  0  0  0  0  0  0  0  0  0  0  0
  -22.4526  -28.7590   21.3542 N   0  0  0  0  0  0  0  0  0  0  0  0
  -29.2374  -14.4436   20.4306 N   0  0  0  0  0  0  0  0  0  0  0  0
  -33.1447  -17.9053   20.9284 N   0  0  0  0  0  0  0  0  0  0  0  0
  -27.1114  -11.1972   16.8383 N   0  0  0  0  0  0  0  0  0  0  0  0
  -23.3673  -10.6238   16.6241 N   0  0  0  0  0  0  0  0  0  0  0  0
  -30.4461  -16.4584   20.6344 N   0  0  0  0  0  0  0  0  0  0  0  0
  -24.6555  -30.9347   23.2803 N   0  0  0  0  0  0  0  0  0  0  0  0
  -18.9317  -27.8358   21.8519 N   0  0  0  0  0  0  0  0  0  0  0  0
  -15.8067  -28.5984   20.2025 N   0  3  0  0  0  0  0  0  0  0  0  0
  -31.6953  -22.8342   21.4369 O   0  0  0  0  0  0  0  0  0  0  0  0
  -24.3733   -8.6664   17.2685 O   0  0  0  0  0  0  0  0  0  0  0  0
  -23.7019  -28.8320   23.5834 O   0  0  0  0  0  0  0  0  0  0  0  0
  -20.4773  -29.8574   21.9266 O   0  0  0  0  0  0  0  0  0  0  0  0
  -18.1953  -27.1809   19.7529 O   0  0  0  0  0  0  0  0  0  0  0  0
  -28.1267  -16.4752   20.4362 O   0  0  0  0  0  0  0  0  0  0  0  0
  -20.5287   -9.7039   22.8063 O   0  0  0  0  0  0  0  0  0  0  0  0
  -27.1269  -25.4330   19.0867 O   0  0  0  0  0  0  0  0  0  1  0  0
  -21.1294   -5.6935   26.5426 F   0  0  0  0  0  0  0  0  0  0  0  0
  -18.9552   -7.4327   22.7146 F   0  0  0  0  0  0  0  0  0  0  0  0
  -29.4049  -18.9143   20.6800 S   0  0  0  0  0  0  0  0  0  0  0  0
  1  2  1  0  0  0  0
  1  5  2  0  0  0  0
  2  6  2  0  0  0  0
  3  8  2  0  0  0  0
  3 16  1  0  0  0  0
  4  9  1  0  0  0  0
  4 16  2  0  0  0  0
  5 18  1  0  0  0  0
  6 20  1  0  0  0  0
  7 10  2  0  0  0  0
  7 19  1  0  0  0  0
  8 23  1  0  0  0  0
  9 23  2  0  0  0  0
 10 24  1  0  0  0  0
 11 12  2  0  0  0  0
 11 25  1  0  0  0  0
 12 26  1  0  0  0  0
 13 21  1  0  0  0  0
 13 24  2  0  0  0  0
 14 22  1  0  0  0  0
 14 30  2  0  0  0  0
 15 26  2  0  0  0  0
 15 27  1  0  0  0  0
 16 28  1  0  0  0  0
 17 28  1  0  0  0  0
 17 29  2  0  0  0  0
 17 35  1  0  0  0  0
 18 20  2  0  0  0  0
 18 40  1  0  0  0  0
 19 21  2  0  0  0  0
 19 41  1  0  0  0  0
 20 52  1  0  0  0  0
 21 42  1  0  0  0  0
 22 31  2  0  0  0  0
 22 69  1  0  0  0  0
 23 82  1  0  0  0  0
 24 83  1  0  0  0  0
 25 27  2  0  0  0  0
 25 82  1  0  0  0  0
 26 84  1  0  0  0  0
 27 85  1  0  0  0  0
 28 64  2  0  0  0  0
 29 65  1  0  0  0  0
 29 70  1  0  0  0  0
 30 66  1  0  0  0  0
 30 86  1  0  0  0  0
 31 72  1  0  0  0  0
 31 86  1  0  0  0  0
 32 33  2  0  0  0  0
 32 34  1  0  0  0  0
 33 43  1  0  0  0  0
 33 60  1  0  0  0  0
 34 66  1  0  0  0  0
 34 76  2  0  0  0  0
 35 71  1  0  0  0  0
 35 77  2  0  0  0  0
 36 53  1  0  0  0  0
 36 73  1  0  0  0  0
 36 78  2  0  0  0  0
 37 61  1  0  0  0  0
 37 67  1  0  0  0  0
 37 79  2  0  0  0  0
 38 62  1  0  0  0  0
 38 74  1  0  0  0  0
 38 80  2  0  0  0  0
 39 68  1  0  0  0  0
 39 72  1  0  0  0  0
 39 81  2  0  0  0  0
 40 44  1  0  0  0  0
 41 53  1  0  0  0  0
 42 67  1  0  0  0  0
 43 45  1  0  0  0  0
 44 47  1  0  0  0  0
 45 49  1  0  0  0  0
 46 48  1  0  0  0  0
 46 50  1  0  0  0  0
 47 52  1  0  0  0  0
 48 54  1  0  0  0  0
 49 66  1  0  0  0  0
 50 68  1  0  0  0  0
 51 54  1  0  0  0  0
 51 68  1  0  0  0  0
 52 73  1  0  0  0  0
 53 67  1  0  0  0  0
 54 65  1  0  0  0  0
 55 62  1  0  0  0  0
 56 63  1  0  0  0  0
 57 63  1  0  0  0  0
 58 63  1  0  0  0  0
 59 75  1  0  0  0  0
 60 83  1  0  0  0  0
 61 63  1  0  0  0  0
 61 74  1  0  0  0  0
 62 75  1  0  0  0  0
 64 65  1  0  0  0  0
M  CHG  1  75   1
M  ISO  4  39 100  60 101  72 100  83 101
M  END
> <Batch ID>
0091

> <Smiles>
CNC(C)C(=O)NC(C(=O)N1Cc2cc([101O:1][101CH2:1]C3=CCCN(c4cc(N)c([100NH:0][100C:0](=O)N5CCCC(n6nc(-c7ccc(Oc8ccc(F)cc8F)cc7)c(C(N)=O)c6N)C5)s4)C(=O)C3)ccc2CC1C(=O)NC1CCCc2ccccc21)C(C)(C)C

> <Shape>
0.329

> <Color>
0.060

> <Negative vol penalty>
0.000

$$$$

  -OEChem-04052300313D

 82 90  0     1  0  0  0  0  0999 V2000
  -26.6434  -35.7675   22.0602 C   0  0  0  0  0  0  0  0  0  0  0  0
  -27.0988  -34.4532   22.0380 C   0  0  0  0  0  0  0  0  0  0  0  0
  -22.9156  -10.0441   22.9173 C   0  0  0  0  0  0  0  0  0  0  0  0
  -23.8244   -9.9438   20.6810 C   0  0  0  0  0  0  0  0  0  0  0  0
  -25.3551  -36.0501   22.5123 C   0  0  0  0  0  0  0  0  0  0  0  0
  -26.2665  -33.4207   22.4689 C   0  0  0  0  0  0  0  0  0  0  0  0
  -26.3521  -29.4283   19.3546 C   0  0  0  0  0  0  0  0  0  0  0  0
  -22.2557   -8.8340   22.7035 C   0  0  0  0  0  0  0  0  0  0  0  0
  -23.1645   -8.7337   20.4671 C   0  0  0  0  0  0  0  0  0  0  0  0
  -27.4490  -28.5727   19.4463 C   0  0  0  0  0  0  0  0  0  0  0  0
  -23.0320   -5.5431   22.6824 C   0  0  0  0  0  0  0  0  0  0  0  0
  -23.0944   -4.5833   23.6926 C   0  0  0  0  0  0  0  0  0  0  0  0
  -27.9955  -20.1567   19.7289 C   0  0  0  0  0  0  0  0  0  0  0  0
  -26.1372  -27.0429   20.7723 C   0  0  0  0  0  0  0  0  0  0  0  0
  -20.6864   -4.6283   23.8840 C   0  0  0  0  0  0  0  0  0  0  0  0
  -30.2254  -19.5099   19.6222 C   0  0  0  0  0  0  0  0  0  0  0  0
  -23.7000  -10.5990   21.9061 C   0  0  0  0  0  0  0  0  0  0  0  0
  -29.3475  -20.5688   19.5483 C   0  0  0  0  0  0  0  0  0  0  0  0
  -25.6776  -12.0313   22.6446 C   0  0  0  0  0  0  0  0  0  0  0  0
  -24.5032  -35.0195   22.9399 C   0  0  0  0  0  0  0  0  0  0  0  0
  -25.1407  -29.1023   19.9813 C   0  0  0  0  0  0  0  0  0  0  0  0
  -24.9661  -33.6899   22.9284 C   0  0  0  0  0  0  0  0  0  0  0  0
  -25.0257  -27.8949   20.6849 C   0  0  0  0  0  0  0  0  0  0  0  0
  -22.3802   -8.1788   21.4784 C   0  0  0  0  0  0  0  0  0  0  0  0
  -27.3426  -27.3811   20.1576 C   0  0  0  0  0  0  0  0  0  0  0  0
  -21.7969   -6.0456   22.2730 C   0  0  0  0  0  0  0  0  0  0  0  0
  -21.9216   -4.1259   24.2934 C   0  0  0  0  0  0  0  0  0  0  0  0
  -20.6240   -5.5881   22.8737 C   0  0  0  0  0  0  0  0  0  0  0  0
  -24.3814  -11.8493   22.1262 C   0  0  0  0  0  0  0  0  0  0  0  0
  -25.8553  -13.3932   22.6548 C   0  0  0  0  0  0  0  0  0  0  0  0
  -27.8917  -18.7983   19.9337 C   0  0  0  0  0  0  0  0  0  0  0  0
  -29.7985  -21.9631   19.3072 C   0  0  0  0  0  0  0  0  0  0  0  0
  -26.6354  -11.0563   23.0780 C   0  0  0  0  0  0  0  0  0  0  0  0
  -23.3730  -30.4216   22.2700 C   0  0  0  0  0  0  0  0  0  0  0  0
  -21.2881  -28.0661   21.4783 C   0  0  0  0  0  0  0  0  0  0  0  0
  -29.2318  -24.3299   19.7224 C   0  0  0  0  0  0  0  0  0  0  0  0
  -20.7872  -24.9780   20.1145 C   0  0  0  0  0  0  0  0  0  0  0  0
  -25.4236  -18.3801   20.2160 C   0  0  0  0  0  0  0  0  0  0  0  0
  -23.1356  -35.3788   23.4646 C   0  0  0  0  0  0  0  0  0  0  0  0
  -23.9588  -30.0233   19.8505 C   0  0  0  0  0  0  0  0  0  0  0  0
  -23.7413  -27.4890   21.3586 C   0  0  0  0  0  0  0  0  0  0  0  0
  -22.1843  -34.1881   23.5515 C   0  0  0  0  0  0  0  0  0  0  0  0
  -22.5467  -17.1523   21.9170 C   0  0  0  0  0  0  0  0  0  0  0  0
  -22.8804  -32.9948   24.1982 C   0  0  0  0  0  0  0  0  0  0  0  0
  -22.8742  -15.6782   22.1657 C   0  0  0  0  0  0  0  0  0  0  0  0
  -23.0802  -17.6321   20.5683 C   0  0  0  0  0  0  0  0  0  0  0  0
  -24.8358  -15.9039   20.5883 C   0  0  0  0  0  0  0  0  0  0  0  0
  -24.0843  -32.5399   23.3644 C   0  0  1  0  0  0  0  0  0  0  0  0
  -22.9288  -29.8349   20.9600 C   0  0  1  0  0  0  0  0  0  0  0  0
  -24.3751  -15.3924   21.9630 C   0  0  2  0  0  0  0  0  0  0  0  0
  -18.9795  -23.3027   19.6425 C   0  0  0  0  0  0  0  0  0  0  0  0
  -21.2484  -27.2819   24.4267 C   0  0  0  0  0  0  0  0  0  0  0  0
  -20.2276  -25.0953   23.7596 C   0  0  0  0  0  0  0  0  0  0  0  0
  -19.0151  -27.2268   23.3025 C   0  0  0  0  0  0  0  0  0  0  0  0
  -21.2721  -25.1035   17.1976 C   0  0  0  0  0  0  0  0  0  0  0  0
  -28.1366  -25.1496   20.3716 C   0  0  0  0  0  0  0  0  0  1  0  0
  -21.0584  -26.6447   21.9320 C   0  0  1  0  0  0  0  0  0  0  0  0
  -19.7769  -24.4776   19.0980 C   0  0  2  0  0  0  0  0  0  0  0  0
  -20.4123  -26.5704   23.3442 C   0  0  0  0  0  0  0  0  0  0  0  0
  -23.7783  -13.0034   21.8289 N   0  0  0  0  0  0  0  0  0  0  0  0
  -24.6996  -13.9236   22.1615 N   0  0  0  0  0  0  0  0  0  0  0  0
  -22.6158  -28.4260   21.2073 N   0  0  0  0  0  0  0  0  0  0  0  0
  -24.5086  -17.3316   20.4491 N   0  0  0  0  0  0  0  0  0  0  0  0
  -26.8857  -14.1768   23.0376 N   0  0  0  0  0  0  0  0  0  0  0  0
  -26.2906   -9.7001   22.9995 N   0  0  0  0  0  0  0  0  0  0  0  0
  -26.7574  -17.9781   20.1537 N   0  0  0  0  0  0  0  0  0  0  0  0
  -28.9703  -22.9620   19.8161 N   0  0  0  0  0  0  0  0  0  0  0  0
  -23.6445  -31.7755   22.2169 N   0  0  0  0  0  0  0  0  0  0  0  0
  -20.2750  -26.0026   20.8820 N   0  0  0  0  0  0  0  0  0  0  0  0
  -20.4685  -24.0395   17.8527 N   0  3  0  0  0  0  0  0  0  0  0  0
  -30.8572  -22.1551   18.7152 O   0  0  0  0  0  0  0  0  0  0  0  0
  -27.7573  -11.3790   23.5370 O   0  0  0  0  0  0  0  0  0  0  0  0
  -23.4614  -29.6997   23.2563 O   0  0  0  0  0  0  0  0  0  0  0  0
  -20.3241  -28.8269   21.3615 O   0  0  0  0  0  0  0  0  0  0  0  0
  -30.2131  -24.8377   19.1867 O   0  0  0  0  0  0  0  0  0  0  0  0
  -21.9165  -24.5047   20.2198 O   0  0  0  0  0  0  0  0  0  0  0  0
  -25.0538  -19.5521   20.1085 O   0  0  0  0  0  0  0  0  0  0  0  0
  -21.7366   -6.9978   21.2694 O   0  0  0  0  0  0  0  0  0  0  0  0
  -28.4119  -26.5445   20.2492 O   0  0  0  0  0  0  0  0  0  1  0  0
  -21.9815   -3.2031   25.2624 F   0  0  0  0  0  0  0  0  0  0  0  0
  -19.4344   -6.0662   22.4838 F   0  0  0  0  0  0  0  0  0  0  0  0
  -29.4198  -18.0261   19.9080 S   0  0  0  0  0  0  0  0  0  0  0  0
  1  2  1  0  0  0  0
  1  5  2  0  0  0  0
  2  6  2  0  0  0  0
  3  8  2  0  0  0  0
  3 17  1  0  0  0  0
  4  9  1  0  0  0  0
  4 17  2  0  0  0  0
  5 20  1  0  0  0  0
  6 22  1  0  0  0  0
  7 10  2  0  0  0  0
  7 21  1  0  0  0  0
  8 24  1  0  0  0  0
  9 24  2  0  0  0  0
 10 25  1  0  0  0  0
 11 12  2  0  0  0  0
 11 26  1  0  0  0  0
 12 27  1  0  0  0  0
 13 18  1  0  0  0  0
 13 31  2  0  0  0  0
 14 23  1  0  0  0  0
 14 25  2  0  0  0  0
 15 27  2  0  0  0  0
 15 28  1  0  0  0  0
 16 18  2  0  0  0  0
 16 82  1  0  0  0  0
 17 29  1  0  0  0  0
 18 32  1  0  0  0  0
 19 29  1  0  0  0  0
 19 30  2  0  0  0  0
 19 33  1  0  0  0  0
 20 22  2  0  0  0  0
 20 39  1  0  0  0  0
 21 23  2  0  0  0  0
 21 40  1  0  0  0  0
 22 48  1  0  0  0  0
 23 41  1  0  0  0  0
 24 78  1  0  0  0  0
 25 79  1  0  0  0  0
 26 28  2  0  0  0  0
 26 78  1  0  0  0  0
 27 80  1  0  0  0  0
 28 81  1  0  0  0  0
 29 60  2  0  0  0  0
 30 61  1  0  0  0  0
 30 64  1  0  0  0  0
 31 66  1  0  0  0  0
 31 82  1  0  0  0  0
 32 67  1  0  0  0  0
 32 71  2  0  0  0  0
 33 65  1  0  0  0  0
 33 72  2  0  0  0  0
 34 49  1  0  0  0  0
 34 68  1  0  0  0  0
 34 73  2  0  0  0  0
 35 57  1  0  0  0  0
 35 62  1  0  0  0  0
 35 74  2  0  0  0  0
 36 56  1  0  0  0  0
 36 67  1  0  0  0  0
 36 75  2  0  0  0  0
 37 58  1  0  0  0  0
 37 69  1  0  0  0  0
 37 76  2  0  0  0  0
 38 63  1  0  0  0  0
 38 66  1  0  0  0  0
 38 77  2  0  0  0  0
 39 42  1  0  0  0  0
 40 49  1  0  0  0  0
 41 62  1  0  0  0  0
 42 44  1  0  0  0  0
 43 45  1  0  0  0  0
 43 46  1  0  0  0  0
 44 48  1  0  0  0  0
 45 50  1  0  0  0  0
 46 63  1  0  0  0  0
 47 50  1  0  0  0  0
 47 63  1  0  0  0  0
 48 68  1  0  0  0  0
 49 62  1  0  0  0  0
 50 61  1  0  0  0  0
 51 58  1  0  0  0  0
 52 59  1  0  0  0  0
 53 59  1  0  0  0  0
 54 59  1  0  0  0  0
 55 70  1  0  0  0  0
 56 79  1  0  0  0  0
 57 59  1  0  0  0  0
 57 69  1  0  0  0  0
 58 70  1  0  0  0  0
 60 61  1  0  0  0  0
M  CHG  1  70   1
M  ISO  4  38 100  56 101  66 100  79 101
M  END
> <Batch ID>
0091

> <Smiles>
CNC(C)C(=O)NC(C(=O)N1Cc2cc([101O:1][101CH2:1]C(=O)NC(=O)c3csc([100NH:0][100C:0](=O)N4CCCC(n5nc(-c6ccc(Oc7ccc(F)cc7F)cc6)c(C(N)=O)c5N)C4)c3)ccc2CC1C(=O)NC1CCCc2ccccc21)C(C)(C)C

> <Shape>
0.286

> <Color>
0.109

> <Negative vol penalty>
0.000

$$$$

  -OEChem-04052300313D

 88 97  0     1  0  0  0  0  0999 V2000
  -31.2745  -11.1915   19.1096 C   0  0  0  0  0  0  0  0  0  0  0  0
  -31.0923  -12.5654   18.9886 C   0  0  0  0  0  0  0  0  0  0  0  0
  -23.0169  -26.8734   22.7048 C   0  0  0  0  0  0  0  0  0  0  0  0
  -22.0558  -28.1598   20.8996 C   0  0  0  0  0  0  0  0  0  0  0  0
  -30.1991  -10.3267   18.9103 C   0  0  0  0  0  0  0  0  0  0  0  0
  -29.8349  -13.0753   18.6672 C   0  0  0  0  0  0  0  0  0  0  0  0
  -28.5638  -17.0567   21.5269 C   0  0  0  0  0  0  0  0  0  0  0  0
  -21.7624  -26.7823   23.3078 C   0  0  0  0  0  0  0  0  0  0  0  0
  -20.8013  -28.0686   21.5026 C   0  0  0  0  0  0  0  0  0  0  0  0
  -29.1373  -18.2846   21.1998 C   0  0  0  0  0  0  0  0  0  0  0  0
  -19.1450  -29.5594   24.0452 C   0  0  0  0  0  0  0  0  0  0  0  0
  -18.3737  -30.7195   24.1152 C   0  0  0  0  0  0  0  0  0  0  0  0
  -27.1081  -18.9225   20.0621 C   0  0  0  0  0  0  0  0  0  0  0  0
  -28.7277  -26.8263   22.0602 C   0  0  0  0  0  0  0  0  0  0  0  0
  -31.1882  -27.9046   22.8125 C   0  0  0  0  0  0  0  0  0  0  0  0
  -16.6400  -29.6451   22.8203 C   0  0  0  0  0  0  0  0  0  0  0  0
  -23.1636  -27.5622   21.5007 C   0  0  0  0  0  0  0  0  0  0  0  0
  -25.0207  -26.7662   19.9435 C   0  0  0  0  0  0  0  0  0  0  0  0
  -28.9257  -10.8268   18.5957 C   0  0  0  0  0  0  0  0  0  0  0  0
  -27.2598  -16.7476   21.1140 C   0  0  0  0  0  0  0  0  0  0  0  0
  -28.7419  -12.2163   18.4621 C   0  0  0  0  0  0  0  0  0  0  0  0
  -26.5194  -17.6910   20.3874 C   0  0  0  0  0  0  0  0  0  0  0  0
  -29.9024  -26.1100   21.8311 C   0  0  0  0  0  0  0  0  0  0  0  0
  -28.7832  -28.0819   22.6654 C   0  0  0  0  0  0  0  0  0  0  0  0
  -31.1327  -26.6491   22.2073 C   0  0  0  0  0  0  0  0  0  0  0  0
  -30.0135  -28.6210   23.0416 C   0  0  0  0  0  0  0  0  0  0  0  0
  -20.6546  -27.3798   22.7067 C   0  0  0  0  0  0  0  0  0  0  0  0
  -28.4106  -19.2166   20.4648 C   0  0  0  0  0  0  0  0  0  0  0  0
  -18.6638  -28.4422   23.3626 C   0  0  0  0  0  0  0  0  0  0  0  0
  -17.1213  -30.7624   23.5028 C   0  0  0  0  0  0  0  0  0  0  0  0
  -17.4113  -28.4850   22.7502 C   0  0  0  0  0  0  0  0  0  0  0  0
  -24.4593  -27.6572   20.8776 C   0  0  0  0  0  0  0  0  0  0  0  0
  -26.2561  -27.2966   19.6626 C   0  0  0  0  0  0  0  0  0  0  0  0
  -29.3059  -22.6721   20.8023 C   0  0  0  0  0  0  0  0  0  0  0  0
  -29.1192  -23.7875   21.7555 C   0  0  0  0  0  0  0  0  0  0  0  0
  -30.4401  -24.5398   20.0181 C   0  0  0  0  0  0  0  0  0  0  0  0
  -28.8039  -21.4557   21.0150 C   0  0  0  0  0  0  0  0  0  1  0  0
  -24.4744  -25.5663   19.3800 C   0  0  0  0  0  0  0  0  0  0  0  0
  -25.9661  -14.5263   19.2442 C   0  0  0  0  0  0  0  0  0  0  0  0
  -23.1826  -15.8243   20.2882 C   0  0  0  0  0  0  0  0  0  0  0  0
  -21.5515  -18.5316   21.5753 C   0  0  0  0  0  0  0  0  0  0  0  0
  -29.6434  -31.1017   23.0570 C   0  0  0  0  0  0  0  0  0  0  0  0
  -27.8045   -9.8503   18.3428 C   0  0  0  0  0  0  0  0  0  0  0  0
  -26.6458  -15.4292   21.4978 C   0  0  0  0  0  0  0  0  0  0  0  0
  -25.1085  -17.4160   19.9377 C   0  0  0  0  0  0  0  0  0  0  0  0
  -30.1071  -23.1187   19.6386 C   0  0  0  0  0  0  0  0  0  0  0  0
  -26.4196  -10.4918   18.3734 C   0  0  0  0  0  0  0  0  0  0  0  0
  -28.6319  -31.4417   19.5138 C   0  0  0  0  0  0  0  0  0  0  0  0
  -26.4100  -11.7805   17.5574 C   0  0  0  0  0  0  0  0  0  0  0  0
  -27.4391  -30.4932   19.4089 C   0  0  0  0  0  0  0  0  0  0  0  0
  -28.7827  -32.0085   20.9222 C   0  0  0  0  0  0  0  0  0  0  0  0
  -27.6766  -30.0066   21.8764 C   0  0  0  0  0  0  0  0  0  0  0  0
  -27.3874  -12.8090   18.1391 C   0  0  1  0  0  0  0  0  0  0  0  0
  -25.4957  -15.0171   20.5842 C   0  0  1  0  0  0  0  0  0  0  0  0
  -27.5272  -29.3908   20.4772 C   0  0  1  0  0  0  0  0  0  0  0  0
  -19.2720  -19.3032   22.2868 C   0  0  0  0  0  0  0  0  0  0  0  0
  -22.3822  -16.1499   17.3619 C   0  0  0  0  0  0  0  0  0  0  0  0
  -20.5967  -17.7424   18.0998 C   0  0  0  0  0  0  0  0  0  0  0  0
  -20.5429  -15.3690   18.8659 C   0  0  0  0  0  0  0  0  0  0  0  0
  -30.9142  -30.0441   24.8730 C   0  0  0  0  0  0  0  0  0  0  0  0
  -22.4462  -18.9833   24.3600 C   0  0  0  0  0  0  0  0  0  0  0  0
  -22.2804  -16.9396   19.8179 C   0  0  1  0  0  0  0  0  0  0  0  0
  -20.5782  -18.6648   22.7327 C   0  0  2  0  0  0  0  0  0  0  0  0
  -21.4778  -16.5549   18.5430 C   0  0  0  0  0  0  0  0  0  0  0  0
  -25.2714  -28.6763   21.1707 N   0  0  0  0  0  0  0  0  0  0  0  0
  -26.3558  -28.4289   20.4165 N   0  0  0  0  0  0  0  0  0  0  0  0
  -29.8225  -24.8582   21.2254 N   0  0  0  0  0  0  0  0  0  0  0  0
  -24.5545  -16.1103   20.3322 N   0  0  0  0  0  0  0  0  0  0  0  0
  -28.8047  -30.9506   21.9336 N   0  0  0  0  0  0  0  0  0  0  0  0
  -27.5811  -28.7907   22.8875 N   0  0  0  0  0  0  0  0  0  0  0  0
  -32.3347  -25.9402   21.9854 N   0  0  0  0  0  0  0  0  0  0  0  0
  -27.2561  -26.9003   18.8469 N   0  0  0  0  0  0  0  0  0  0  0  0
  -23.1918  -25.1651   19.7780 N   0  0  0  0  0  0  0  0  0  0  0  0
  -26.8186  -13.4408   19.3103 N   0  0  0  0  0  0  0  0  0  0  0  0
  -21.4490  -17.3015   20.9608 N   0  0  0  0  0  0  0  0  0  0  0  0
  -30.0962  -29.9174   23.6689 N   0  0  0  0  0  0  0  0  0  0  0  0
  -21.1685  -19.5065   23.8116 N   0  3  0  0  0  0  0  0  0  0  0  0
  -28.4747  -23.7316   22.7901 O   0  0  0  0  0  0  0  0  0  0  0  0
  -31.1441  -25.2716   19.3320 O   0  0  0  0  0  0  0  0  0  0  0  0
  -25.1114  -24.8618   18.5607 O   0  0  0  0  0  0  0  0  0  0  0  0
  -25.5827  -15.0898   18.2258 O   0  0  0  0  0  0  0  0  0  0  0  0
  -22.6876  -14.7417   20.6116 O   0  0  0  0  0  0  0  0  0  0  0  0
  -22.3226  -19.4304   21.2467 O   0  0  0  0  0  0  0  0  0  0  0  0
  -29.9251  -32.2146   23.5182 O   0  0  0  0  0  0  0  0  0  0  0  0
  -19.4303  -27.2909   23.2947 O   0  0  0  0  0  0  0  0  0  0  0  0
  -28.9682  -20.4157   20.1437 O   0  0  0  0  0  0  0  0  0  1  0  0
  -16.3801  -31.8760   23.5714 F   0  0  0  0  0  0  0  0  0  0  0  0
  -16.9432  -27.4144   22.0941 F   0  0  0  0  0  0  0  0  0  0  0  0
  1  2  1  0  0  0  0
  1  5  2  0  0  0  0
  2  6  2  0  0  0  0
  3  8  2  0  0  0  0
  3 17  1  0  0  0  0
  4  9  1  0  0  0  0
  4 17  2  0  0  0  0
  5 19  1  0  0  0  0
  6 21  1  0  0  0  0
  7 10  2  0  0  0  0
  7 20  1  0  0  0  0
  8 27  1  0  0  0  0
  9 27  2  0  0  0  0
 10 28  1  0  0  0  0
 11 12  2  0  0  0  0
 11 29  1  0  0  0  0
 12 30  1  0  0  0  0
 13 22  1  0  0  0  0
 13 28  2  0  0  0  0
 14 23  1  0  0  0  0
 14 24  2  0  0  0  0
 15 25  1  0  0  0  0
 15 26  2  0  0  0  0
 16 30  2  0  0  0  0
 16 31  1  0  0  0  0
 17 32  1  0  0  0  0
 18 32  1  0  0  0  0
 18 33  2  0  0  0  0
 18 38  1  0  0  0  0
 19 21  2  0  0  0  0
 19 43  1  0  0  0  0
 20 22  2  0  0  0  0
 20 44  1  0  0  0  0
 21 53  1  0  0  0  0
 22 45  1  0  0  0  0
 23 25  2  0  0  0  0
 23 67  1  0  0  0  0
 24 26  1  0  0  0  0
 24 70  1  0  0  0  0
 25 71  1  0  0  0  0
 26 76  1  0  0  0  0
 27 85  1  0  0  0  0
 28 86  1  0  0  0  0
 29 31  2  0  0  0  0
 29 85  1  0  0  0  0
 30 87  1  0  0  0  0
 31 88  1  0  0  0  0
 32 65  2  0  0  0  0
 33 66  1  0  0  0  0
 33 72  1  0  0  0  0
 34 35  1  0  0  0  0
 34 37  2  0  0  0  0
 34 46  1  0  0  0  0
 35 67  1  0  0  0  0
 35 78  2  0  0  0  0
 36 46  1  0  0  0  0
 36 67  1  0  0  0  0
 36 79  2  0  0  0  0
 37 86  1  0  0  0  0
 38 73  1  0  0  0  0
 38 80  2  0  0  0  0
 39 54  1  0  0  0  0
 39 74  1  0  0  0  0
 39 81  2  0  0  0  0
 40 62  1  0  0  0  0
 40 68  1  0  0  0  0
 40 82  2  0  0  0  0
 41 63  1  0  0  0  0
 41 75  1  0  0  0  0
 41 83  2  0  0  0  0
 42 69  1  0  0  0  0
 42 76  1  0  0  0  0
 42 84  2  0  0  0  0
 43 47  1  0  0  0  0
 44 54  1  0  0  0  0
 45 68  1  0  0  0  0
 47 49  1  0  0  0  0
 48 50  1  0  0  0  0
 48 51  1  0  0  0  0
 49 53  1  0  0  0  0
 50 55  1  0  0  0  0
 51 69  1  0  0  0  0
 52 55  1  0  0  0  0
 52 69  1  0  0  0  0
 53 74  1  0  0  0  0
 54 68  1  0  0  0  0
 55 66  1  0  0  0  0
 56 63  1  0  0  0  0
 57 64  1  0  0  0  0
 58 64  1  0  0  0  0
 59 64  1  0  0  0  0
 60 76  1  0  0  0  0
 61 77  1  0  0  0  0
 62 64  1  0  0  0  0
 62 75  1  0  0  0  0
 63 77  1  0  0  0  0
 65 66  1  0  0  0  0
M  CHG  1  77   1
M  ISO  4  37 101  42 100  76 100  86 101
M  END
> <Batch ID>
0091

> <Smiles>
CNC(C)C(=O)NC(C(=O)N1Cc2cc([101O:1][101CH:1]=C3CC(=O)N(c4cc(N)c([100N:0](C)[100C:0](=O)N5CCCC(n6nc(-c7ccc(Oc8ccc(F)cc8F)cc7)c(C(N)=O)c6N)C5)cc4N)C3=O)ccc2CC1C(=O)NC1CCCc2ccccc21)C(C)(C)C

> <Shape>
0.253

> <Color>
0.075

> <Negative vol penalty>
0.000

$$$$

  -OEChem-04052300313D

 89 97  0     1  0  0  0  0  0999 V2000
  -30.7935  -35.8963   21.1805 C   0  0  0  0  0  0  0  0  0  0  0  0
  -30.6847  -34.6137   20.6528 C   0  0  0  0  0  0  0  0  0  0  0  0
  -23.2683   -9.7949   21.5760 C   0  0  0  0  0  0  0  0  0  0  0  0
  -23.8071  -10.9652   23.6198 C   0  0  0  0  0  0  0  0  0  0  0  0
  -30.2206  -36.1911   22.4169 C   0  0  0  0  0  0  0  0  0  0  0  0
  -30.0037  -33.6247   21.3619 C   0  0  0  0  0  0  0  0  0  0  0  0
  -26.6159  -29.0902   19.0239 C   0  0  0  0  0  0  0  0  0  0  0  0
  -22.5945   -8.8201   22.3117 C   0  0  0  0  0  0  0  0  0  0  0  0
  -23.1332   -9.9904   24.3556 C   0  0  0  0  0  0  0  0  0  0  0  0
  -26.8930  -27.7478   18.7688 C   0  0  0  0  0  0  0  0  0  0  0  0
  -23.3886   -6.1165   24.1783 C   0  0  0  0  0  0  0  0  0  0  0  0
  -23.6216   -4.7811   23.8496 C   0  0  0  0  0  0  0  0  0  0  0  0
  -30.9381  -20.2114   21.6624 C   0  0  0  0  0  0  0  0  0  0  0  0
  -25.9066  -27.1480   20.8870 C   0  0  0  0  0  0  0  0  0  0  0  0
  -31.4309  -17.9246   21.0587 C   0  0  0  0  0  0  0  0  0  0  0  0
  -21.2749   -4.4943   23.3519 C   0  0  0  0  0  0  0  0  0  0  0  0
  -23.8747  -10.8674   22.2300 C   0  0  0  0  0  0  0  0  0  0  0  0
  -29.5781  -19.9694   21.4692 C   0  0  0  0  0  0  0  0  0  0  0  0
  -24.0325  -13.0593   20.9344 C   0  0  0  0  0  0  0  0  0  0  0  0
  -29.5239  -35.2078   23.1370 C   0  0  0  0  0  0  0  0  0  0  0  0
  -25.9908  -29.4733   20.2192 C   0  0  0  0  0  0  0  0  0  0  0  0
  -29.4221  -33.9063   22.6097 C   0  0  0  0  0  0  0  0  0  0  0  0
  -25.6203  -28.4956   21.1536 C   0  0  0  0  0  0  0  0  0  0  0  0
  -31.8646  -19.1890   21.4571 C   0  0  0  0  0  0  0  0  0  0  0  0
  -30.0709  -17.6825   20.8655 C   0  0  0  0  0  0  0  0  0  0  0  0
  -22.5269   -8.9179   23.7015 C   0  0  0  0  0  0  0  0  0  0  0  0
  -26.5410  -26.7768   19.7017 C   0  0  0  0  0  0  0  0  0  0  0  0
  -22.0988   -6.6408   24.0938 C   0  0  0  0  0  0  0  0  0  0  0  0
  -22.5648   -3.9700   23.4364 C   0  0  0  0  0  0  0  0  0  0  0  0
  -21.0419   -5.8297   23.6806 C   0  0  0  0  0  0  0  0  0  0  0  0
  -29.1444  -18.7049   21.0708 C   0  0  0  0  0  0  0  0  0  0  0  0
  -24.5714  -11.8744   21.4706 C   0  0  0  0  0  0  0  0  0  0  0  0
  -25.0935  -13.6664   20.3081 C   0  0  0  0  0  0  0  0  0  0  0  0
  -28.5947  -21.0610   21.6893 C   0  0  0  0  0  0  0  0  0  0  0  0
  -22.6926  -13.5659   20.9970 C   0  0  0  0  0  0  0  0  0  0  0  0
  -26.8033  -31.3008   22.6898 C   0  0  0  0  0  0  0  0  0  0  0  0
  -25.0253  -21.4281   20.7344 C   0  0  0  0  0  0  0  0  0  0  0  0
  -26.7818  -23.1137   20.0310 C   0  0  0  0  0  0  0  0  0  0  0  0
  -23.7401  -30.7510   23.6044 C   0  0  0  0  0  0  0  0  0  0  0  0
  -20.9825  -28.7471   23.4396 C   0  0  0  0  0  0  0  0  0  0  0  0
  -30.4233  -15.2746   20.2142 C   0  0  0  0  0  0  0  0  0  0  0  0
  -28.9621  -35.5613   24.4913 C   0  0  0  0  0  0  0  0  0  0  0  0
  -25.6747  -30.9228   20.4674 C   0  0  0  0  0  0  0  0  0  0  0  0
  -24.9291  -28.8528   22.4433 C   0  0  0  0  0  0  0  0  0  0  0  0
  -27.9354  -34.5558   25.0061 C   0  0  0  0  0  0  0  0  0  0  0  0
  -29.7234  -11.9229   19.2379 C   0  0  0  0  0  0  0  0  0  0  0  0
  -28.4450  -33.1300   24.8207 C   0  0  0  0  0  0  0  0  0  0  0  0
  -28.2763  -11.7090   19.6876 C   0  0  0  0  0  0  0  0  0  0  0  0
  -30.5017  -12.7909   20.2251 C   0  0  0  0  0  0  0  0  0  0  0  0
  -28.4239  -13.8619   21.0029 C   0  0  0  0  0  0  0  0  0  0  0  0
  -28.6700  -32.8131   23.3374 C   0  0  1  0  0  0  0  0  0  0  0  0
  -25.4983  -31.2511   21.9467 C   0  0  1  0  0  0  0  0  0  0  0  0
  -27.5819  -13.0473   20.0074 C   0  0  2  0  0  0  0  0  0  0  0  0
  -23.8341  -22.0083   21.4539 C   0  0  0  0  0  0  0  0  0  0  0  0
  -18.6439  -28.5375   24.3252 C   0  0  0  0  0  0  0  0  0  0  0  0
  -24.8432  -29.8005   26.2858 C   0  0  0  0  0  0  0  0  0  0  0  0
  -22.6220  -28.7406   26.7450 C   0  0  0  0  0  0  0  0  0  0  0  0
  -22.7848  -31.2118   26.4458 C   0  0  0  0  0  0  0  0  0  0  0  0
  -19.8160  -28.9052   20.7242 C   0  0  0  0  0  0  0  0  0  0  0  0
  -26.4227  -24.5241   20.4549 C   0  0  0  0  0  0  0  0  0  1  0  0
  -26.4068  -22.0053   20.9984 C   0  0  2  0  0  0  0  0  0  0  0  0
  -23.0448  -29.7002   24.4360 C   0  0  1  0  0  0  0  0  0  0  0  0
  -19.5181  -29.0666   23.1989 C   0  0  2  0  0  0  0  0  0  0  0  0
  -23.3385  -29.8564   25.9548 C   0  0  0  0  0  0  0  0  0  0  0  0
  -25.8735  -11.7351   21.2077 N   0  0  0  0  0  0  0  0  0  0  0  0
  -26.1617  -12.8402   20.4995 N   0  0  0  0  0  0  0  0  0  0  0  0
  -24.6472  -30.2839   22.6428 N   0  0  0  0  0  0  0  0  0  0  0  0
  -29.7859  -14.0436   20.4767 N   0  0  0  0  0  0  0  0  0  0  0  0
  -33.2400  -19.4343   21.6520 N   0  0  0  0  0  0  0  0  0  0  0  0
  -25.2075  -14.8209   19.6178 N   0  0  0  0  0  0  0  0  0  0  0  0
  -21.7259  -12.8158   21.6804 N   0  0  0  0  0  0  0  0  0  0  0  0
  -29.6334  -16.3971   20.4605 N   0  0  0  0  0  0  0  0  0  0  0  0
  -27.4389  -21.0097   20.9177 N   0  0  0  0  0  0  0  0  0  0  0  0
  -27.4086  -32.5430   22.6813 N   0  0  0  0  0  0  0  0  0  0  0  0
  -21.6296  -29.7763   24.0901 N   0  0  0  0  0  0  0  0  0  0  0  0
  -19.0580  -28.4552   21.9200 N   0  3  0  0  0  0  0  0  0  0  0  0
  -28.8505  -21.9437   22.5042 O   0  0  0  0  0  0  0  0  0  0  0  0
  -22.3588  -14.6436   20.4486 O   0  0  0  0  0  0  0  0  0  0  0  0
  -27.2288  -30.2876   23.2321 O   0  0  0  0  0  0  0  0  0  0  0  0
  -24.8724  -20.5237   19.9092 O   0  0  0  0  0  0  0  0  0  0  0  0
  -27.3174  -22.8777   18.9477 O   0  0  0  0  0  0  0  0  0  0  0  0
  -23.4822  -31.9420   23.7961 O   0  0  0  0  0  0  0  0  0  0  0  0
  -21.4997  -27.6887   23.0891 O   0  0  0  0  0  0  0  0  0  0  0  0
  -31.5751  -15.3284   19.7754 O   0  0  0  0  0  0  0  0  0  0  0  0
  -21.8693   -7.9670   24.4197 O   0  0  0  0  0  0  0  0  0  0  0  0
  -26.8109  -25.4659   19.4556 O   0  0  0  0  0  0  0  0  0  1  0  0
  -22.7889   -2.6881   23.1193 F   0  0  0  0  0  0  0  0  0  0  0  0
  -19.8008   -6.3280   23.5963 F   0  0  0  0  0  0  0  0  0  0  0  0
  -27.8360  -18.4724   20.8849 F   0  0  0  0  0  0  0  0  0  0  0  0
  1  2  1  0  0  0  0
  1  5  2  0  0  0  0
  2  6  2  0  0  0  0
  3  8  2  0  0  0  0
  3 17  1  0  0  0  0
  4  9  1  0  0  0  0
  4 17  2  0  0  0  0
  5 20  1  0  0  0  0
  6 22  1  0  0  0  0
  7 10  2  0  0  0  0
  7 21  1  0  0  0  0
  8 26  1  0  0  0  0
  9 26  2  0  0  0  0
 10 27  1  0  0  0  0
 11 12  2  0  0  0  0
 11 28  1  0  0  0  0
 12 29  1  0  0  0  0
 13 18  1  0  0  0  0
 13 24  2  0  0  0  0
 14 23  1  0  0  0  0
 14 27  2  0  0  0  0
 15 24  1  0  0  0  0
 15 25  2  0  0  0  0
 16 29  2  0  0  0  0
 16 30  1  0  0  0  0
 17 32  1  0  0  0  0
 18 31  2  0  0  0  0
 18 34  1  0  0  0  0
 19 32  1  0  0  0  0
 19 33  2  0  0  0  0
 19 35  1  0  0  0  0
 20 22  2  0  0  0  0
 20 42  1  0  0  0  0
 21 23  2  0  0  0  0
 21 43  1  0  0  0  0
 22 51  1  0  0  0  0
 23 44  1  0  0  0  0
 24 69  1  0  0  0  0
 25 31  1  0  0  0  0
 25 72  1  0  0  0  0
 26 85  1  0  0  0  0
 27 86  1  0  0  0  0
 28 30  2  0  0  0  0
 28 85  1  0  0  0  0
 29 87  1  0  0  0  0
 30 88  1  0  0  0  0
 31 89  1  0  0  0  0
 32 65  2  0  0  0  0
 33 66  1  0  0  0  0
 33 70  1  0  0  0  0
 34 73  1  0  0  0  0
 34 77  2  0  0  0  0
 35 71  1  0  0  0  0
 35 78  2  0  0  0  0
 36 52  1  0  0  0  0
 36 74  1  0  0  0  0
 36 79  2  0  0  0  0
 37 54  1  0  0  0  0
 37 61  1  0  0  0  0
 37 80  2  0  0  0  0
 38 60  1  0  0  0  0
 38 61  1  0  0  0  0
 38 81  2  0  0  0  0
 39 62  1  0  0  0  0
 39 67  1  0  0  0  0
 39 82  2  0  0  0  0
 40 63  1  0  0  0  0
 40 75  1  0  0  0  0
 40 83  2  0  0  0  0
 41 68  1  0  0  0  0
 41 72  1  0  0  0  0
 41 84  2  0  0  0  0
 42 45  1  0  0  0  0
 43 52  1  0  0  0  0
 44 67  1  0  0  0  0
 45 47  1  0  0  0  0
 46 48  1  0  0  0  0
 46 49  1  0  0  0  0
 47 51  1  0  0  0  0
 48 53  1  0  0  0  0
 49 68  1  0  0  0  0
 50 53  1  0  0  0  0
 50 68  1  0  0  0  0
 51 74  1  0  0  0  0
 52 67  1  0  0  0  0
 53 66  1  0  0  0  0
 55 63  1  0  0  0  0
 56 64  1  0  0  0  0
 57 64  1  0  0  0  0
 58 64  1  0  0  0  0
 59 76  1  0  0  0  0
 60 86  1  0  0  0  0
 61 73  1  0  0  0  0
 62 64  1  0  0  0  0
 62 75  1  0  0  0  0
 63 76  1  0  0  0  0
 65 66  1  0  0  0  0
M  CHG  1  76   1
M  ISO  4  41 100  60 101  72 100  86 101
M  END
> <Batch ID>
0091

> <Smiles>
CNC(C)C(=O)NC(C(=O)N1Cc2cc([101O:1][101CH2:1]C(=O)C(NC(=O)c3cc(N)cc([100NH:0][100C:0](=O)N4CCCC(n5nc(-c6ccc(Oc7ccc(F)cc7F)cc6)c(C(N)=O)c5N)C4)c3F)C(C)=O)ccc2CC1C(=O)NC1CCCc2ccccc21)C(C)(C)C

> <Shape>
0.312

> <Color>
0.167

> <Negative vol penalty>
0.000

$$$$

  -OEChem-04052300313D

 86 95  0     1  0  0  0  0  0999 V2000
  -20.5306  -30.7707   24.1478 C   0  0  0  0  0  0  0  0  0  0  0  0
  -21.7257  -30.1103   23.8811 C   0  0  0  0  0  0  0  0  0  0  0  0
  -24.2310  -14.1678   20.1157 C   0  0  0  0  0  0  0  0  0  0  0  0
  -26.6321  -13.9573   20.2819 C   0  0  0  0  0  0  0  0  0  0  0  0
  -19.3154  -30.1682   23.8251 C   0  0  0  0  0  0  0  0  0  0  0  0
  -21.7061  -28.8463   23.2924 C   0  0  0  0  0  0  0  0  0  0  0  0
  -25.1015  -28.3871   19.5635 C   0  0  0  0  0  0  0  0  0  0  0  0
  -29.5993  -24.3474   23.5018 C   0  0  0  0  0  0  0  0  0  0  0  0
  -29.2509  -23.2251   22.7504 C   0  0  0  0  0  0  0  0  0  0  0  0
  -24.1160  -12.7809   20.0210 C   0  0  0  0  0  0  0  0  0  0  0  0
  -26.5171  -12.5705   20.1872 C   0  0  0  0  0  0  0  0  0  0  0  0
  -26.4306  -28.1861   19.9337 C   0  0  0  0  0  0  0  0  0  0  0  0
  -24.1893  -10.1266   22.1143 C   0  0  0  0  0  0  0  0  0  0  0  0
  -23.2044   -9.5039   22.8811 C   0  0  0  0  0  0  0  0  0  0  0  0
  -26.1874  -25.8252   19.5027 C   0  0  0  0  0  0  0  0  0  0  0  0
  -30.1454  -24.2754   20.7670 C   0  0  0  0  0  0  0  0  0  0  0  0
  -22.1774   -8.6495   20.8680 C   0  0  0  0  0  0  0  0  0  0  0  0
  -25.4891  -14.7560   20.2461 C   0  0  0  0  0  0  0  0  0  0  0  0
  -25.0491  -17.0233   21.3294 C   0  0  0  0  0  0  0  0  0  0  0  0
  -19.2812  -28.9004   23.2234 C   0  0  0  0  0  0  0  0  0  0  0  0
  -24.3010  -27.3052   19.1699 C   0  0  0  0  0  0  0  0  0  0  0  0
  -20.4892  -28.2257   22.9626 C   0  0  0  0  0  0  0  0  0  0  0  0
  -24.8492  -26.0154   19.1255 C   0  0  0  0  0  0  0  0  0  0  0  0
  -30.2208  -25.4338   22.8858 C   0  0  0  0  0  0  0  0  0  0  0  0
  -30.4938  -25.3977   21.5184 C   0  0  0  0  0  0  0  0  0  0  0  0
  -29.5240  -23.1891   21.3830 C   0  0  0  0  0  0  0  0  0  0  0  0
  -25.2590  -11.9822   20.0568 C   0  0  0  0  0  0  0  0  0  0  0  0
  -26.9729  -26.9046   19.9061 C   0  0  0  0  0  0  0  0  0  0  0  0
  -24.1682  -10.0108   20.7244 C   0  0  0  0  0  0  0  0  0  0  0  0
  -22.1985   -8.7654   22.2579 C   0  0  0  0  0  0  0  0  0  0  0  0
  -23.1623   -9.2722   20.1013 C   0  0  0  0  0  0  0  0  0  0  0  0
  -25.6086  -16.1886   20.3434 C   0  0  0  0  0  0  0  0  0  0  0  0
  -25.4515  -18.2884   20.9770 C   0  0  0  0  0  0  0  0  0  0  0  0
  -30.5558  -27.2267   19.8237 C   0  0  0  0  0  0  0  0  0  0  0  0
  -32.4718  -28.7822   19.8579 C   0  0  0  0  0  0  0  0  0  0  0  0
  -29.2422  -27.3494   19.5553 C   0  0  0  0  0  0  0  0  0  1  0  0
  -24.2383  -16.6853   22.4625 C   0  0  0  0  0  0  0  0  0  0  0  0
  -21.6396  -25.9646   20.2762 C   0  0  0  0  0  0  0  0  0  0  0  0
  -21.8681  -24.1957   17.5667 C   0  0  0  0  0  0  0  0  0  0  0  0
  -23.8471  -22.9306   15.0909 C   0  0  0  0  0  0  0  0  0  0  0  0
  -29.3687  -21.8508   19.2543 C   0  0  0  0  0  0  0  0  0  0  0  0
  -17.9420  -28.2691   22.9360 C   0  0  0  0  0  0  0  0  0  0  0  0
  -22.8769  -27.5424   18.7479 C   0  0  0  0  0  0  0  0  0  0  0  0
  -24.0377  -24.8233   18.6910 C   0  0  0  0  0  0  0  0  0  0  0  0
  -31.5400  -27.9897   18.9647 C   0  0  0  0  0  0  0  0  0  0  0  0
  -32.9315  -28.1348   21.1471 C   0  0  0  0  0  0  0  0  0  0  0  0
  -18.0196  -27.0883   21.9716 C   0  0  0  0  0  0  0  0  0  0  0  0
  -27.6593  -19.9848   16.7497 C   0  0  0  0  0  0  0  0  0  0  0  0
  -19.1548  -26.1495   22.3674 C   0  0  0  0  0  0  0  0  0  0  0  0
  -26.9274  -18.8995   17.5425 C   0  0  0  0  0  0  0  0  0  0  0  0
  -32.5523  -26.6572   21.1995 C   0  0  0  0  0  0  0  0  0  0  0  0
  -29.0310  -20.2952   17.3462 C   0  0  0  0  0  0  0  0  0  0  0  0
  -28.2942  -19.5355   19.5709 C   0  0  0  0  0  0  0  0  0  0  0  0
  -20.5099  -26.8642   22.3023 C   0  0  1  0  0  0  0  0  0  0  0  0
  -22.0056  -26.2948   18.8568 C   0  0  1  0  0  0  0  0  0  0  0  0
  -26.8807  -19.2347   19.0462 C   0  0  2  0  0  0  0  0  0  0  0  0
  -30.5833  -26.6227   23.7147 C   0  0  0  0  0  0  0  0  0  0  0  0
  -23.7552  -21.4900   13.0382 C   0  0  0  0  0  0  0  0  0  0  0  0
  -21.6781  -21.7084   19.3237 C   0  0  0  0  0  0  0  0  0  0  0  0
  -22.5321  -20.3639   17.3922 C   0  0  0  0  0  0  0  0  0  0  0  0
  -20.3665  -21.5866   17.1979 C   0  0  0  0  0  0  0  0  0  0  0  0
  -24.7821  -25.1396   13.3574 C   0  0  0  0  0  0  0  0  0  0  0  0
  -22.5316  -22.8920   17.1938 C   0  0  1  0  0  0  0  0  0  0  0  0
  -23.6823  -22.9084   13.5820 C   0  0  2  0  0  0  0  0  0  0  0  0
  -21.7921  -21.6597   17.7870 C   0  0  0  0  0  0  0  0  0  0  0  0
  -26.3126  -16.8663   19.4329 N   0  0  0  0  0  0  0  0  0  0  0  0
  -26.1982  -18.1403   19.8452 N   0  0  0  0  0  0  0  0  0  0  0  0
  -31.1243  -26.4940   20.8757 N   0  0  0  0  0  0  0  0  0  0  0  0
  -22.6485  -25.1057   18.2939 N   0  0  0  0  0  0  0  0  0  0  0  0
  -28.9081  -20.6076   18.7717 N   0  0  0  0  0  0  0  0  0  0  0  0
  -25.2359  -19.5018   21.5278 N   0  0  0  0  0  0  0  0  0  0  0  0
  -23.9186  -15.3378   22.6772 N   0  0  0  0  0  0  0  0  0  0  0  0
  -29.1693  -22.0489   20.6202 N   0  0  0  0  0  0  0  0  0  0  0  0
  -20.9585  -26.9731   20.9307 N   0  0  0  0  0  0  0  0  0  0  0  0
  -22.6305  -22.8860   15.7383 N   0  0  0  0  0  0  0  0  0  0  0  0
  -24.7524  -23.7166   12.9320 N   0  3  0  0  0  0  0  0  0  0  0  0
  -32.8643  -29.9045   19.5370 O   0  0  0  0  0  0  0  0  0  0  0  0
  -23.7963  -17.5544   23.2517 O   0  0  0  0  0  0  0  0  0  0  0  0
  -21.9508  -24.8749   20.7425 O   0  0  0  0  0  0  0  0  0  0  0  0
  -20.7026  -24.4022   17.2192 O   0  0  0  0  0  0  0  0  0  0  0  0
  -24.9455  -22.9788   15.6403 O   0  0  0  0  0  0  0  0  0  0  0  0
  -29.8762  -22.6899   18.5057 O   0  0  0  0  0  0  0  0  0  0  0  0
  -25.1472  -10.6289   19.9646 O   0  0  0  0  0  0  0  0  0  0  0  0
  -28.2696  -26.7056   20.2676 O   0  0  0  0  0  0  0  0  0  1  0  0
  -21.2537   -8.1662   22.9945 F   0  0  0  0  0  0  0  0  0  0  0  0
  -23.1375   -9.1563   18.7664 F   0  0  0  0  0  0  0  0  0  0  0  0
  1  2  1  0  0  0  0
  1  5  2  0  0  0  0
  2  6  2  0  0  0  0
  3 10  2  0  0  0  0
  3 18  1  0  0  0  0
  4 11  1  0  0  0  0
  4 18  2  0  0  0  0
  5 20  1  0  0  0  0
  6 22  1  0  0  0  0
  7 12  2  0  0  0  0
  7 21  1  0  0  0  0
  8  9  2  0  0  0  0
  8 24  1  0  0  0  0
  9 26  1  0  0  0  0
 10 27  1  0  0  0  0
 11 27  2  0  0  0  0
 12 28  1  0  0  0  0
 13 14  2  0  0  0  0
 13 29  1  0  0  0  0
 14 30  1  0  0  0  0
 15 23  1  0  0  0  0
 15 28  2  0  0  0  0
 16 25  1  0  0  0  0
 16 26  2  0  0  0  0
 17 30  2  0  0  0  0
 17 31  1  0  0  0  0
 18 32  1  0  0  0  0
 19 32  1  0  0  0  0
 19 33  2  0  0  0  0
 19 37  1  0  0  0  0
 20 22  2  0  0  0  0
 20 42  1  0  0  0  0
 21 23  2  0  0  0  0
 21 43  1  0  0  0  0
 22 54  1  0  0  0  0
 23 44  1  0  0  0  0
 24 25  2  0  0  0  0
 24 57  1  0  0  0  0
 25 68  1  0  0  0  0
 26 73  1  0  0  0  0
 27 83  1  0  0  0  0
 28 84  1  0  0  0  0
 29 31  2  0  0  0  0
 29 83  1  0  0  0  0
 30 85  1  0  0  0  0
 31 86  1  0  0  0  0
 32 66  2  0  0  0  0
 33 67  1  0  0  0  0
 33 71  1  0  0  0  0
 34 36  2  0  0  0  0
 34 45  1  0  0  0  0
 34 68  1  0  0  0  0
 35 45  1  0  0  0  0
 35 46  1  0  0  0  0
 35 77  2  0  0  0  0
 36 84  1  0  0  0  0
 37 72  1  0  0  0  0
 37 78  2  0  0  0  0
 38 55  1  0  0  0  0
 38 74  1  0  0  0  0
 38 79  2  0  0  0  0
 39 63  1  0  0  0  0
 39 69  1  0  0  0  0
 39 80  2  0  0  0  0
 40 64  1  0  0  0  0
 40 75  1  0  0  0  0
 40 81  2  0  0  0  0
 41 70  1  0  0  0  0
 41 73  1  0  0  0  0
 41 82  2  0  0  0  0
 42 47  1  0  0  0  0
 43 55  1  0  0  0  0
 44 69  1  0  0  0  0
 46 51  1  0  0  0  0
 47 49  1  0  0  0  0
 48 50  1  0  0  0  0
 48 52  1  0  0  0  0
 49 54  1  0  0  0  0
 50 56  1  0  0  0  0
 51 68  1  0  0  0  0
 52 70  1  0  0  0  0
 53 56  1  0  0  0  0
 53 70  1  0  0  0  0
 54 74  1  0  0  0  0
 55 69  1  0  0  0  0
 56 67  1  0  0  0  0
 58 64  1  0  0  0  0
 59 65  1  0  0  0  0
 60 65  1  0  0  0  0
 61 65  1  0  0  0  0
 62 76  1  0  0  0  0
 63 65  1  0  0  0  0
 63 75  1  0  0  0  0
 64 76  1  0  0  0  0
 66 67  1  0  0  0  0
M  CHG  1  76   1
M  ISO  4  36 101  41 100  73 100  84 101
M  END
> <Batch ID>
0091

> <Smiles>
CNC(C)C(=O)NC(C(=O)N1Cc2cc([101O:1][101CH:1]=C3CC(=O)CCN3c3cc([100NH:0][100C:0](=O)N4CCCC(n5nc(-c6ccc(Oc7ccc(F)cc7F)cc6)c(C(N)=O)c5N)C4)ccc3C)ccc2CC1C(=O)NC1CCCc2ccccc21)C(C)(C)C

> <Shape>
0.237

> <Color>
0.075

> <Negative vol penalty>
0.000

$$$$

  -OEChem-04052300313D

 85 94  0     1  0  0  0  0  0999 V2000
  -29.7576  -37.0204   20.7215 C   0  0  0  0  0  0  0  0  0  0  0  0
  -29.8261  -35.6999   20.2892 C   0  0  0  0  0  0  0  0  0  0  0  0
  -24.1031   -9.5508   22.2008 C   0  0  0  0  0  0  0  0  0  0  0  0
  -24.6412  -11.1969   23.8855 C   0  0  0  0  0  0  0  0  0  0  0  0
  -29.1376  -37.3250   21.9326 C   0  0  0  0  0  0  0  0  0  0  0  0
  -29.2756  -34.6829   21.0684 C   0  0  0  0  0  0  0  0  0  0  0  0
  -26.5466  -29.5787   19.0670 C   0  0  0  0  0  0  0  0  0  0  0  0
  -30.3688  -20.1476   18.9580 C   0  0  0  0  0  0  0  0  0  0  0  0
  -30.1517  -18.7726   18.8691 C   0  0  0  0  0  0  0  0  0  0  0  0
  -23.7637   -8.6389   23.2002 C   0  0  0  0  0  0  0  0  0  0  0  0
  -24.3017  -10.2850   24.8849 C   0  0  0  0  0  0  0  0  0  0  0  0
  -27.0028  -28.2705   18.9113 C   0  0  0  0  0  0  0  0  0  0  0  0
  -21.1406   -8.0539   25.2520 C   0  0  0  0  0  0  0  0  0  0  0  0
  -19.9629   -7.3242   25.0909 C   0  0  0  0  0  0  0  0  0  0  0  0
  -26.0830  -27.6996   21.0671 C   0  0  0  0  0  0  0  0  0  0  0  0
  -27.9953  -20.5046   19.2334 C   0  0  0  0  0  0  0  0  0  0  0  0
  -21.2302   -5.2679   25.1398 C   0  0  0  0  0  0  0  0  0  0  0  0
  -24.5419  -10.8298   22.5434 C   0  0  0  0  0  0  0  0  0  0  0  0
  -24.0413  -12.6976   20.8796 C   0  0  0  0  0  0  0  0  0  0  0  0
  -28.5707  -36.3124   22.7224 C   0  0  0  0  0  0  0  0  0  0  0  0
  -25.8636  -29.9606   20.2307 C   0  0  0  0  0  0  0  0  0  0  0  0
  -28.6486  -34.9741   22.2919 C   0  0  0  0  0  0  0  0  0  0  0  0
  -25.6170  -29.0127   21.2340 C   0  0  0  0  0  0  0  0  0  0  0  0
  -29.2906  -21.0136   19.1402 C   0  0  0  0  0  0  0  0  0  0  0  0
  -28.8564  -18.2636   18.9624 C   0  0  0  0  0  0  0  0  0  0  0  0
  -27.7781  -19.1296   19.1445 C   0  0  0  0  0  0  0  0  0  0  0  0
  -23.8629   -9.0060   24.5422 C   0  0  0  0  0  0  0  0  0  0  0  0
  -26.7735  -27.3314   19.9127 C   0  0  0  0  0  0  0  0  0  0  0  0
  -22.3632   -7.3906   25.3570 C   0  0  0  0  0  0  0  0  0  0  0  0
  -20.0076   -5.9312   25.0348 C   0  0  0  0  0  0  0  0  0  0  0  0
  -22.4080   -5.9976   25.3009 C   0  0  0  0  0  0  0  0  0  0  0  0
  -24.8933  -11.7721   21.5115 C   0  0  0  0  0  0  0  0  0  0  0  0
  -24.8501  -13.3521   19.9829 C   0  0  0  0  0  0  0  0  0  0  0  0
  -29.1064  -24.6479   19.4521 C   0  0  0  0  0  0  0  0  0  0  0  0
  -30.5598  -24.4223   19.2811 C   0  0  0  0  0  0  0  0  0  0  0  0
  -28.5610  -25.8544   19.6062 C   0  0  0  0  0  0  0  0  0  1  0  0
  -22.6438  -12.9437   21.0848 C   0  0  0  0  0  0  0  0  0  0  0  0
  -26.3996  -32.0548   22.5611 C   0  0  0  0  0  0  0  0  0  0  0  0
  -23.4275  -31.1684   23.5116 C   0  0  0  0  0  0  0  0  0  0  0  0
  -20.9634  -28.8074   23.4923 C   0  0  0  0  0  0  0  0  0  0  0  0
  -29.6370  -15.8842   18.6879 C   0  0  0  0  0  0  0  0  0  0  0  0
  -27.9527  -36.6850   24.0467 C   0  0  0  0  0  0  0  0  0  0  0  0
  -25.3547  -31.3690   20.3717 C   0  0  0  0  0  0  0  0  0  0  0  0
  -24.8709  -29.3669   22.4935 C   0  0  0  0  0  0  0  0  0  0  0  0
  -28.4199  -23.3223   19.4184 C   0  0  0  0  0  0  0  0  0  0  0  0
  -30.8324  -22.9532   19.1341 C   0  0  0  0  0  0  0  0  0  0  0  0
  -27.0637  -35.5913   24.6332 C   0  0  0  0  0  0  0  0  0  0  0  0
  -29.5636  -12.3328   18.4447 C   0  0  0  0  0  0  0  0  0  0  0  0
  -27.7607  -34.2368   24.5532 C   0  0  0  0  0  0  0  0  0  0  0  0
  -28.2719  -11.9464   19.1689 C   0  0  0  0  0  0  0  0  0  0  0  0
  -30.2579  -13.5164   19.1160 C   0  0  0  0  0  0  0  0  0  0  0  0
  -28.1193  -14.3122   20.0446 C   0  0  0  0  0  0  0  0  0  0  0  0
  -28.0413  -33.8459   23.0972 C   0  0  1  0  0  0  0  0  0  0  0  0
  -25.1207  -31.7773   21.8228 C   0  0  1  0  0  0  0  0  0  0  0  0
  -27.3505  -13.1660   19.3671 C   0  0  2  0  0  0  0  0  0  0  0  0
  -18.6644  -28.3521   24.3894 C   0  0  0  0  0  0  0  0  0  0  0  0
  -24.6195  -30.5710   26.2561 C   0  0  0  0  0  0  0  0  0  0  0  0
  -22.5545  -29.2600   26.7904 C   0  0  0  0  0  0  0  0  0  0  0  0
  -22.3898  -31.7025   26.3109 C   0  0  0  0  0  0  0  0  0  0  0  0
  -19.8146  -28.6107   20.7719 C   0  0  0  0  0  0  0  0  0  0  0  0
  -22.8699  -30.0973   24.4175 C   0  0  1  0  0  0  0  0  0  0  0  0
  -19.4721  -28.9100   23.2279 C   0  0  2  0  0  0  0  0  0  0  0  0
  -23.1242  -30.4012   25.9210 C   0  0  0  0  0  0  0  0  0  0  0  0
  -26.1471  -11.8302   21.0550 N   0  0  0  0  0  0  0  0  0  0  0  0
  -26.0890  -12.8001   20.1265 N   0  0  0  0  0  0  0  0  0  0  0  0
  -29.5025  -22.3523   19.2273 N   0  0  3  0  0  0  0  0  0  0  0  0
  -24.3988  -30.7582   22.5874 N   0  0  0  0  0  0  0  0  0  0  0  0
  -29.3255  -14.6357   19.2667 N   0  0  0  0  0  0  0  0  0  0  0  0
  -26.4578  -18.6355   19.2420 N   0  0  0  0  0  0  0  0  0  0  0  0
  -24.6153  -14.3402   19.0936 N   0  0  0  0  0  0  0  0  0  0  0  0
  -21.9651  -12.1814   22.0453 N   0  0  0  0  0  0  0  0  0  0  0  0
  -28.6608  -16.8633   18.8689 N   0  0  0  0  0  0  0  0  0  0  0  0
  -26.8341  -33.3628   22.4619 N   0  0  0  0  0  0  0  0  0  0  0  0
  -21.4608  -29.9584   24.0660 N   0  0  0  0  0  0  0  0  0  0  0  0
  -19.1109  -28.1515   21.9970 N   0  3  0  0  0  0  0  0  0  0  0  0
  -31.4100  -25.2979   19.2615 O   0  0  0  0  0  0  0  0  0  0  0  0
  -22.0119  -13.8026   20.4240 O   0  0  0  0  0  0  0  0  0  0  0  0
  -26.9506  -31.1496   23.1765 O   0  0  0  0  0  0  0  0  0  0  0  0
  -23.0114  -32.3250   23.6152 O   0  0  0  0  0  0  0  0  0  0  0  0
  -21.6206  -27.8050   23.2208 O   0  0  0  0  0  0  0  0  0  0  0  0
  -30.6798  -16.0632   18.0533 O   0  0  0  0  0  0  0  0  0  0  0  0
  -23.5315   -8.1165   25.5177 O   0  0  0  0  0  0  0  0  0  0  0  0
  -27.2182  -26.0540   19.7635 O   0  0  0  0  0  0  0  0  0  1  0  0
  -18.8764   -5.2305   24.8816 F   0  0  0  0  0  0  0  0  0  0  0  0
  -23.5795   -5.3548   25.4023 F   0  0  0  0  0  0  0  0  0  0  0  0
  1  2  1  0  0  0  0
  1  5  2  0  0  0  0
  2  6  2  0  0  0  0
  3 10  2  0  0  0  0
  3 18  1  0  0  0  0
  4 11  1  0  0  0  0
  4 18  2  0  0  0  0
  5 20  1  0  0  0  0
  6 22  1  0  0  0  0
  7 12  2  0  0  0  0
  7 21  1  0  0  0  0
  8  9  2  0  0  0  0
  8 24  1  0  0  0  0
  9 25  1  0  0  0  0
 10 27  1  0  0  0  0
 11 27  2  0  0  0  0
 12 28  1  0  0  0  0
 13 14  2  0  0  0  0
 13 29  1  0  0  0  0
 14 30  1  0  0  0  0
 15 23  1  0  0  0  0
 15 28  2  0  0  0  0
 16 24  2  0  0  0  0
 16 26  1  0  0  0  0
 17 30  2  0  0  0  0
 17 31  1  0  0  0  0
 18 32  1  0  0  0  0
 19 32  1  0  0  0  0
 19 33  2  0  0  0  0
 19 37  1  0  0  0  0
 20 22  2  0  0  0  0
 20 42  1  0  0  0  0
 21 23  2  0  0  0  0
 21 43  1  0  0  0  0
 22 53  1  0  0  0  0
 23 44  1  0  0  0  0
 24 66  1  0  0  0  0
 25 26  2  0  0  0  0
 25 72  1  0  0  0  0
 26 69  1  0  0  0  0
 27 82  1  0  0  0  0
 28 83  1  0  0  0  0
 29 31  2  0  0  0  0
 29 82  1  0  0  0  0
 30 84  1  0  0  0  0
 31 85  1  0  0  0  0
 32 64  2  0  0  0  0
 33 65  1  0  0  0  0
 33 70  1  0  0  0  0
 34 35  1  0  0  0  0
 34 36  2  0  0  0  0
 34 45  1  0  0  0  0
 35 46  1  0  0  0  0
 35 76  2  0  0  0  0
 36 83  1  0  0  0  0
 37 71  1  0  0  0  0
 37 77  2  0  0  0  0
 38 54  1  0  0  0  0
 38 73  1  0  0  0  0
 38 78  2  0  0  0  0
 39 61  1  0  0  0  0
 39 67  1  0  0  0  0
 39 79  2  0  0  0  0
 40 62  1  0  0  0  0
 40 74  1  0  0  0  0
 40 80  2  0  0  0  0
 41 68  1  0  0  0  0
 41 72  1  0  0  0  0
 41 81  2  0  0  0  0
 42 47  1  0  0  0  0
 43 54  1  0  0  0  0
 44 67  1  0  0  0  0
 45 66  1  0  0  0  0
 46 66  1  0  0  0  0
 47 49  1  0  0  0  0
 48 50  1  0  0  0  0
 48 51  1  0  0  0  0
 49 53  1  0  0  0  0
 50 55  1  0  0  0  0
 51 68  1  0  0  0  0
 52 55  1  0  0  0  0
 52 68  1  0  0  0  0
 53 73  1  0  0  0  0
 54 67  1  0  0  0  0
 55 65  1  0  0  0  0
 56 62  1  0  0  0  0
 57 63  1  0  0  0  0
 58 63  1  0  0  0  0
 59 63  1  0  0  0  0
 60 75  1  0  0  0  0
 61 63  1  0  0  0  0
 61 74  1  0  0  0  0
 62 75  1  0  0  0  0
 64 65  1  0  0  0  0
M  CHG  1  75   1
M  ISO  4  36 101  41 100  72 100  83 101
M  END
> <Batch ID>
0091

> <Smiles>
CNC(C)C(=O)NC(C(=O)N1Cc2cc([101O:1][101CH:1]=C3CN(c4ccc([100NH:0][100C:0](=O)N5CCCC(n6nc(-c7ccc(Oc8ccc(F)cc8F)cc7)c(C(N)=O)c6N)C5)c(N)c4)CC3=O)ccc2CC1C(=O)NC1CCCc2ccccc21)C(C)(C)C

> <Shape>
0.322

> <Color>
0.127

> <Negative vol penalty>
0.000

$$$$

  -OEChem-04052300313D

 84 92  0     1  0  0  0  0  0999 V2000
  -31.3444  -33.7943   23.8386 C   0  0  0  0  0  0  0  0  0  0  0  0
  -31.0741  -33.0900   22.6698 C   0  0  0  0  0  0  0  0  0  0  0  0
  -24.7749   -8.6120   21.5759 C   0  0  0  0  0  0  0  0  0  0  0  0
  -23.2400  -10.0715   20.4136 C   0  0  0  0  0  0  0  0  0  0  0  0
  -30.6601  -33.4829   25.0128 C   0  0  0  0  0  0  0  0  0  0  0  0
  -30.1202  -32.0730   22.6747 C   0  0  0  0  0  0  0  0  0  0  0  0
  -25.2079  -29.0057   18.4583 C   0  0  0  0  0  0  0  0  0  0  0  0
  -26.6325  -19.7454   18.8764 C   0  0  0  0  0  0  0  0  0  0  0  0
  -27.2890  -18.5222   19.0121 C   0  0  0  0  0  0  0  0  0  0  0  0
  -23.7371   -8.1769   22.4000 C   0  0  0  0  0  0  0  0  0  0  0  0
  -22.2021   -9.6363   21.2376 C   0  0  0  0  0  0  0  0  0  0  0  0
  -24.8210  -27.7498   17.9928 C   0  0  0  0  0  0  0  0  0  0  0  0
  -21.4167   -6.4145   24.5736 C   0  0  0  0  0  0  0  0  0  0  0  0
  -21.3092   -5.0445   24.8126 C   0  0  0  0  0  0  0  0  0  0  0  0
  -23.6445  -27.3523   20.0608 C   0  0  0  0  0  0  0  0  0  0  0  0
  -21.0288   -4.6535   22.4449 C   0  0  0  0  0  0  0  0  0  0  0  0
  -24.5264   -9.5594   20.5827 C   0  0  0  0  0  0  0  0  0  0  0  0
  -25.9988   -9.4526   18.5023 C   0  0  0  0  0  0  0  0  0  0  0  0
  -29.6904  -32.4681   25.0299 C   0  0  0  0  0  0  0  0  0  0  0  0
  -24.8244  -29.4407   19.7351 C   0  0  0  0  0  0  0  0  0  0  0  0
  -29.4232  -31.7468   23.8506 C   0  0  0  0  0  0  0  0  0  0  0  0
  -24.0256  -28.6152   20.5392 C   0  0  0  0  0  0  0  0  0  0  0  0
  -25.4151  -19.8121   18.1987 C   0  0  0  0  0  0  0  0  0  0  0  0
  -26.7283  -17.3658   18.4700 C   0  0  0  0  0  0  0  0  0  0  0  0
  -24.8543  -18.6557   17.6566 C   0  0  0  0  0  0  0  0  0  0  0  0
  -22.4507   -8.6890   22.2309 C   0  0  0  0  0  0  0  0  0  0  0  0
  -24.0416  -26.9217   18.7952 C   0  0  0  0  0  0  0  0  0  0  0  0
  -21.3301   -6.9041   23.2703 C   0  0  0  0  0  0  0  0  0  0  0  0
  -21.1153   -4.1640   23.7482 C   0  0  0  0  0  0  0  0  0  0  0  0
  -21.1362   -6.0236   22.2060 C   0  0  0  0  0  0  0  0  0  0  0  0
  -25.5109  -17.4325   17.7923 C   0  0  0  0  0  0  0  0  0  0  0  0
  -25.5981  -10.0097   19.7314 C   0  0  0  0  0  0  0  0  0  0  0  0
  -27.0507  -10.2370   18.0964 C   0  0  0  0  0  0  0  0  0  0  0  0
  -24.2375  -23.3756   18.2202 C   0  0  0  0  0  0  0  0  0  0  0  0
  -24.4832  -24.6329   18.6026 C   0  0  0  0  0  0  0  0  0  1  0  0
  -25.4676   -8.3268   17.7910 C   0  0  0  0  0  0  0  0  0  0  0  0
  -25.2049  -22.2913   18.5589 C   0  0  0  0  0  0  0  0  0  0  0  0
  -26.3758  -30.2554   22.3871 C   0  0  0  0  0  0  0  0  0  0  0  0
  -23.4059  -31.0649   23.4103 C   0  0  0  0  0  0  0  0  0  0  0  0
  -20.0309  -30.6394   23.1360 C   0  0  0  0  0  0  0  0  0  0  0  0
  -28.6128  -15.8878   19.2513 C   0  0  0  0  0  0  0  0  0  0  0  0
  -29.0105  -32.1355   26.3344 C   0  0  0  0  0  0  0  0  0  0  0  0
  -25.2276  -30.8090   20.2120 C   0  0  0  0  0  0  0  0  0  0  0  0
  -23.5705  -29.0435   21.9096 C   0  0  0  0  0  0  0  0  0  0  0  0
  -27.7467  -31.2960   26.1659 C   0  0  0  0  0  0  0  0  0  0  0  0
  -30.5723  -12.9740   19.8404 C   0  0  0  0  0  0  0  0  0  0  0  0
  -27.9986  -30.1392   25.2040 C   0  0  0  0  0  0  0  0  0  0  0  0
  -29.5566  -11.8319   19.7614 C   0  0  0  0  0  0  0  0  0  0  0  0
  -29.9750  -14.2202   20.4916 C   0  0  0  0  0  0  0  0  0  0  0  0
  -27.7031  -13.5490   19.8155 C   0  0  0  0  0  0  0  0  0  0  0  0
  -28.3777  -30.6535   23.8100 C   0  0  1  0  0  0  0  0  0  0  0  0
  -25.2105  -30.9412   21.7317 C   0  0  1  0  0  0  0  0  0  0  0  0
  -28.2392  -12.2937   19.1082 C   0  0  2  0  0  0  0  0  0  0  0  0
  -17.8608  -31.4103   24.1328 C   0  0  0  0  0  0  0  0  0  0  0  0
  -23.8990  -29.2952   25.8465 C   0  0  0  0  0  0  0  0  0  0  0  0
  -21.4355  -29.3399   26.2907 C   0  0  0  0  0  0  0  0  0  0  0  0
  -22.7495  -31.4596   26.3449 C   0  0  0  0  0  0  0  0  0  0  0  0
  -19.1082  -31.7554   20.5549 C   0  0  0  0  0  0  0  0  0  0  0  0
  -22.2875  -30.3442   24.1235 C   0  0  1  0  0  0  0  0  0  0  0  0
  -18.8939  -31.6406   23.0408 C   0  0  2  0  0  0  0  0  0  0  0  0
  -22.6029  -30.1006   25.6264 C   0  0  0  0  0  0  0  0  0  0  0  0
  -26.3355  -11.0663   20.0835 N   0  0  0  0  0  0  0  0  0  0  0  0
  -27.2102  -11.1794   19.0694 N   0  0  0  0  0  0  0  0  0  0  0  0
  -23.9957  -30.3877   22.3336 N   0  0  0  0  0  0  0  0  0  0  0  0
  -28.7317  -14.6011   19.8179 N   0  0  0  0  0  0  0  0  0  0  0  0
  -23.6228  -18.7037   16.9654 N   0  0  0  0  0  0  0  0  0  0  0  0
  -27.8457  -10.2056   17.0058 N   0  0  0  0  0  0  0  0  0  0  0  0
  -24.3858   -7.6330   18.3501 N   0  0  0  0  0  0  0  0  0  0  0  0
  -24.7676  -21.0659   18.0741 N   0  0  0  0  0  0  0  0  0  0  0  0
  -27.3980  -16.1249   18.6089 N   0  0  0  0  0  0  0  0  0  0  0  0
  -27.2000  -31.1048   23.1003 N   0  0  0  0  0  0  0  0  0  0  0  0
  -21.0800  -31.1277   23.8858 N   0  0  0  0  0  0  0  0  0  0  0  0
  -18.2140  -31.5283   21.7194 N   0  3  0  0  0  0  0  0  0  0  0  0
  -25.9490   -7.9372   16.7001 O   0  0  0  0  0  0  0  0  0  0  0  0
  -26.2306  -22.5283   19.1861 O   0  0  0  0  0  0  0  0  0  0  0  0
  -26.5158  -29.0450   22.2567 O   0  0  0  0  0  0  0  0  0  0  0  0
  -23.7390  -32.1903   23.7900 O   0  0  0  0  0  0  0  0  0  0  0  0
  -19.9909  -29.5332   22.6019 O   0  0  0  0  0  0  0  0  0  0  0  0
  -29.5320  -16.7087   19.3066 O   0  0  0  0  0  0  0  0  0  0  0  0
  -21.4377   -8.2644   23.0347 O   0  0  0  0  0  0  0  0  0  0  0  0
  -23.6632  -25.6950   18.3435 O   0  0  0  0  0  0  0  0  0  1  0  0
  -21.0137   -2.8482   23.9777 F   0  0  0  0  0  0  0  0  0  0  0  0
  -21.0534   -6.4879   20.9517 F   0  0  0  0  0  0  0  0  0  0  0  0
  -24.9727  -16.3198   17.2697 F   0  0  0  0  0  0  0  0  0  0  0  0
  1  2  1  0  0  0  0
  1  5  2  0  0  0  0
  2  6  2  0  0  0  0
  3 10  2  0  0  0  0
  3 17  1  0  0  0  0
  4 11  1  0  0  0  0
  4 17  2  0  0  0  0
  5 19  1  0  0  0  0
  6 21  1  0  0  0  0
  7 12  2  0  0  0  0
  7 20  1  0  0  0  0
  8  9  2  0  0  0  0
  8 23  1  0  0  0  0
  9 24  1  0  0  0  0
 10 26  1  0  0  0  0
 11 26  2  0  0  0  0
 12 27  1  0  0  0  0
 13 14  2  0  0  0  0
 13 28  1  0  0  0  0
 14 29  1  0  0  0  0
 15 22  1  0  0  0  0
 15 27  2  0  0  0  0
 16 29  2  0  0  0  0
 16 30  1  0  0  0  0
 17 32  1  0  0  0  0
 18 32  1  0  0  0  0
 18 33  2  0  0  0  0
 18 36  1  0  0  0  0
 19 21  2  0  0  0  0
 19 42  1  0  0  0  0
 20 22  2  0  0  0  0
 20 43  1  0  0  0  0
 21 51  1  0  0  0  0
 22 44  1  0  0  0  0
 23 25  2  0  0  0  0
 23 69  1  0  0  0  0
 24 31  2  0  0  0  0
 24 70  1  0  0  0  0
 25 31  1  0  0  0  0
 25 66  1  0  0  0  0
 26 80  1  0  0  0  0
 27 81  1  0  0  0  0
 28 30  2  0  0  0  0
 28 80  1  0  0  0  0
 29 82  1  0  0  0  0
 30 83  1  0  0  0  0
 31 84  1  0  0  0  0
 32 62  2  0  0  0  0
 33 63  1  0  0  0  0
 33 67  1  0  0  0  0
 34 35  2  0  0  0  0
 34 37  1  0  0  0  0
 35 81  1  0  0  0  0
 36 68  1  0  0  0  0
 36 74  2  0  0  0  0
 37 69  1  0  0  0  0
 37 75  2  0  0  0  0
 38 52  1  0  0  0  0
 38 71  1  0  0  0  0
 38 76  2  0  0  0  0
 39 59  1  0  0  0  0
 39 64  1  0  0  0  0
 39 77  2  0  0  0  0
 40 60  1  0  0  0  0
 40 72  1  0  0  0  0
 40 78  2  0  0  0  0
 41 65  1  0  0  0  0
 41 70  1  0  0  0  0
 41 79  2  0  0  0  0
 42 45  1  0  0  0  0
 43 52  1  0  0  0  0
 44 64  1  0  0  0  0
 45 47  1  0  0  0  0
 46 48  1  0  0  0  0
 46 49  1  0  0  0  0
 47 51  1  0  0  0  0
 48 53  1  0  0  0  0
 49 65  1  0  0  0  0
 50 53  1  0  0  0  0
 50 65  1  0  0  0  0
 51 71  1  0  0  0  0
 52 64  1  0  0  0  0
 53 63  1  0  0  0  0
 54 60  1  0  0  0  0
 55 61  1  0  0  0  0
 56 61  1  0  0  0  0
 57 61  1  0  0  0  0
 58 73  1  0  0  0  0
 59 61  1  0  0  0  0
 59 72  1  0  0  0  0
 60 73  1  0  0  0  0
 62 63  1  0  0  0  0
M  CHG  1  73   1
M  ISO  4  35 101  41 100  70 100  81 101
M  END
> <Batch ID>
0091

> <Smiles>
CNC(C)C(=O)NC(C(=O)N1Cc2cc([101O:1][101CH:1]=CC(=O)Nc3ccc([100NH:0][100C:0](=O)N4CCCC(n5nc(-c6ccc(Oc7ccc(F)cc7F)cc6)c(C(N)=O)c5N)C4)c(F)c3N)ccc2CC1C(=O)NC1CCCc2ccccc21)C(C)(C)C

> <Shape>
0.238

> <Color>
0.091

> <Negative vol penalty>
0.000

$$$$

  -OEChem-04052300313D

 86 94  0     1  0  0  0  0  0999 V2000
  -26.7772  -37.0657   23.0847 C   0  0  0  0  0  0  0  0  0  0  0  0
  -27.4058  -35.8301   22.9687 C   0  0  0  0  0  0  0  0  0  0  0  0
  -23.6935   -9.9562   22.0505 C   0  0  0  0  0  0  0  0  0  0  0  0
  -22.7568  -12.1511   21.6737 C   0  0  0  0  0  0  0  0  0  0  0  0
  -25.4213  -37.1296   23.4032 C   0  0  0  0  0  0  0  0  0  0  0  0
  -26.6790  -34.6575   23.1721 C   0  0  0  0  0  0  0  0  0  0  0  0
  -27.4354  -29.3097   20.2850 C   0  0  0  0  0  0  0  0  0  0  0  0
  -28.8911  -20.2587   18.1832 C   0  0  0  0  0  0  0  0  0  0  0  0
  -28.9365  -19.0596   17.4721 C   0  0  0  0  0  0  0  0  0  0  0  0
  -22.7673   -9.7359   23.0699 C   0  0  0  0  0  0  0  0  0  0  0  0
  -21.8305  -11.9308   22.6931 C   0  0  0  0  0  0  0  0  0  0  0  0
  -28.1049  -28.1392   20.6390 C   0  0  0  0  0  0  0  0  0  0  0  0
  -19.5061   -8.8819   23.3305 C   0  0  0  0  0  0  0  0  0  0  0  0
  -18.8543   -7.6490   23.3588 C   0  0  0  0  0  0  0  0  0  0  0  0
  -26.0320  -27.2041   21.4438 C   0  0  0  0  0  0  0  0  0  0  0  0
  -28.9022  -19.0269   20.2615 C   0  0  0  0  0  0  0  0  0  0  0  0
  -19.7621   -7.2197   25.5562 C   0  0  0  0  0  0  0  0  0  0  0  0
  -23.6883  -11.1639   21.3524 C   0  0  0  0  0  0  0  0  0  0  0  0
  -24.4928  -11.0928   18.9326 C   0  0  0  0  0  0  0  0  0  0  0  0
  -24.6753  -35.9570   23.6011 C   0  0  0  0  0  0  0  0  0  0  0  0
  -26.0589  -29.4406   20.5181 C   0  0  0  0  0  0  0  0  0  0  0  0
  -25.3122  -34.7058   23.4948 C   0  0  0  0  0  0  0  0  0  0  0  0
  -25.3469  -28.3763   21.0895 C   0  0  0  0  0  0  0  0  0  0  0  0
  -28.8741  -20.2424   19.5779 C   0  0  0  0  0  0  0  0  0  0  0  0
  -28.9646  -17.8441   18.1558 C   0  0  0  0  0  0  0  0  0  0  0  0
  -28.9475  -17.8277   19.5505 C   0  0  0  0  0  0  0  0  0  0  0  0
  -21.8358  -10.7231   23.3912 C   0  0  0  0  0  0  0  0  0  0  0  0
  -27.4038  -27.0872   21.2211 C   0  0  0  0  0  0  0  0  0  0  0  0
  -20.2859   -9.2837   24.4150 C   0  0  0  0  0  0  0  0  0  0  0  0
  -18.9823   -6.8179   24.4717 C   0  0  0  0  0  0  0  0  0  0  0  0
  -20.4139   -8.4526   25.5279 C   0  0  0  0  0  0  0  0  0  0  0  0
  -24.6452  -11.3923   20.2997 C   0  0  0  0  0  0  0  0  0  0  0  0
  -25.6727  -11.4988   18.3586 C   0  0  0  0  0  0  0  0  0  0  0  0
  -28.8269  -15.5973   22.4571 C   0  0  0  0  0  0  0  0  0  0  0  0
  -28.3782  -16.4401   21.5242 C   0  0  0  0  0  0  0  0  0  0  0  0
  -28.1418  -24.9455   20.6389 C   0  0  0  0  0  0  0  0  0  1  0  0
  -23.3838  -10.5007   18.2433 C   0  0  0  0  0  0  0  0  0  0  0  0
  -28.7583  -23.7805   20.8723 C   0  0  0  0  0  0  0  0  0  0  0  0
  -28.7998  -22.7488   19.7851 C   0  0  0  0  0  0  0  0  0  0  0  0
  -24.2558  -31.3820   22.2742 C   0  0  0  0  0  0  0  0  0  0  0  0
  -21.8244  -29.8350   20.7852 C   0  0  0  0  0  0  0  0  0  0  0  0
  -20.7323  -27.0385   19.1623 C   0  0  0  0  0  0  0  0  0  0  0  0
  -29.7734  -15.5136   19.7862 C   0  0  0  0  0  0  0  0  0  0  0  0
  -23.2231  -36.0774   23.9901 C   0  0  0  0  0  0  0  0  0  0  0  0
  -25.3464  -30.6996   20.1060 C   0  0  0  0  0  0  0  0  0  0  0  0
  -23.8644  -28.4589   21.3421 C   0  0  0  0  0  0  0  0  0  0  0  0
  -22.4377  -34.7794   23.8215 C   0  0  0  0  0  0  0  0  0  0  0  0
  -30.3104  -12.0943   19.3298 C   0  0  0  0  0  0  0  0  0  0  0  0
  -23.2146  -33.6052   24.4085 C   0  0  0  0  0  0  0  0  0  0  0  0
  -28.9091  -11.4882   19.3994 C   0  0  0  0  0  0  0  0  0  0  0  0
  -30.4780  -13.2045   20.3608 C   0  0  0  0  0  0  0  0  0  0  0  0
  -28.0547  -13.7032   20.3113 C   0  0  0  0  0  0  0  0  0  0  0  0
  -24.5519  -33.4110   23.6836 C   0  0  1  0  0  0  0  0  0  0  0  0
  -24.0391  -30.9207   20.8607 C   0  0  1  0  0  0  0  0  0  0  0  0
  -27.8293  -12.5782   19.2812 C   0  0  2  0  0  0  0  0  0  0  0  0
  -18.6855  -26.0520   18.0971 C   0  0  0  0  0  0  0  0  0  0  0  0
  -20.6734  -29.2454   23.5488 C   0  0  0  0  0  0  0  0  0  0  0  0
  -19.2167  -27.5038   22.4939 C   0  0  0  0  0  0  0  0  0  0  0  0
  -18.9777  -29.8963   21.8297 C   0  0  0  0  0  0  0  0  0  0  0  0
  -22.0520  -26.8599   16.5193 C   0  0  0  0  0  0  0  0  0  0  0  0
  -21.0100  -28.5968   21.0725 C   0  0  1  0  0  0  0  0  0  0  0  0
  -19.9522  -26.8628   17.8719 C   0  0  2  0  0  0  0  0  0  0  0  0
  -19.9977  -28.8094   22.2334 C   0  0  0  0  0  0  0  0  0  0  0  0
  -25.8287  -11.9456   20.5775 N   0  0  0  0  0  0  0  0  0  0  0  0
  -26.4307  -11.9970   19.3771 N   0  0  0  0  0  0  0  0  0  0  0  0
  -23.2139  -29.7129   20.9276 N   0  0  0  0  0  0  0  0  0  0  0  0
  -29.4312  -14.2170   20.2189 N   0  0  0  0  0  0  0  0  0  0  0  0
  -29.0082  -16.6414   17.4153 N   0  0  0  0  0  0  0  0  0  0  0  0
  -26.1253  -11.4745   17.0870 N   0  0  0  0  0  0  0  0  0  0  0  0
  -22.2497  -10.1432   18.9852 N   0  0  0  0  0  0  0  0  0  0  0  0
  -28.8312  -21.4598   20.2993 N   0  0  0  0  0  0  0  0  0  0  0  0
  -24.3460  -32.7542   22.4106 N   0  0  0  0  0  0  0  0  0  0  0  0
  -20.3954  -28.2097   19.8073 N   0  0  0  0  0  0  0  0  0  0  0  0
  -28.9768  -16.5782   20.2824 N   0  0  0  0  0  0  0  0  0  0  0  0
  -20.7850  -26.1607   16.8548 N   0  3  0  0  0  0  0  0  0  0  0  0
  -23.4045  -10.2797   17.0087 O   0  0  0  0  0  0  0  0  0  0  0  0
  -28.8030  -23.0781   18.6038 O   0  0  0  0  0  0  0  0  0  0  0  0
  -24.3339  -30.5545   23.1746 O   0  0  0  0  0  0  0  0  0  0  0  0
  -21.2495  -30.8704   20.4400 O   0  0  0  0  0  0  0  0  0  0  0  0
  -21.5553  -26.2171   19.5603 O   0  0  0  0  0  0  0  0  0  0  0  0
  -30.7319  -15.7157   19.0294 O   0  0  0  0  0  0  0  0  0  0  0  0
  -29.3618  -23.4888   22.0787 O   0  0  0  0  0  0  0  0  0  0  0  0
  -20.9317  -10.5083   24.3857 O   0  0  0  0  0  0  0  0  0  0  0  0
  -28.0550  -25.9438   21.5682 O   0  0  0  0  0  0  0  0  0  1  0  0
  -18.3552   -5.6347   24.4994 F   0  0  0  0  0  0  0  0  0  0  0  0
  -21.1608   -8.8336   26.5733 F   0  0  0  0  0  0  0  0  0  0  0  0
  1  2  1  0  0  0  0
  1  5  2  0  0  0  0
  2  6  2  0  0  0  0
  3 10  2  0  0  0  0
  3 18  1  0  0  0  0
  4 11  1  0  0  0  0
  4 18  2  0  0  0  0
  5 20  1  0  0  0  0
  6 22  1  0  0  0  0
  7 12  2  0  0  0  0
  7 21  1  0  0  0  0
  8  9  2  0  0  0  0
  8 24  1  0  0  0  0
  9 25  1  0  0  0  0
 10 27  1  0  0  0  0
 11 27  2  0  0  0  0
 12 28  1  0  0  0  0
 13 14  2  0  0  0  0
 13 29  1  0  0  0  0
 14 30  1  0  0  0  0
 15 23  1  0  0  0  0
 15 28  2  0  0  0  0
 16 24  2  0  0  0  0
 16 26  1  0  0  0  0
 17 30  2  0  0  0  0
 17 31  1  0  0  0  0
 18 32  1  0  0  0  0
 19 32  1  0  0  0  0
 19 33  2  0  0  0  0
 19 37  1  0  0  0  0
 20 22  2  0  0  0  0
 20 44  1  0  0  0  0
 21 23  2  0  0  0  0
 21 45  1  0  0  0  0
 22 53  1  0  0  0  0
 23 46  1  0  0  0  0
 24 71  1  0  0  0  0
 25 26  2  0  0  0  0
 25 68  1  0  0  0  0
 26 74  1  0  0  0  0
 27 83  1  0  0  0  0
 28 84  1  0  0  0  0
 29 31  2  0  0  0  0
 29 83  1  0  0  0  0
 30 85  1  0  0  0  0
 31 86  1  0  0  0  0
 32 64  2  0  0  0  0
 33 65  1  0  0  0  0
 33 69  1  0  0  0  0
 34 35  2  0  0  0  0
 35 74  1  0  0  0  0
 36 38  2  0  0  0  0
 36 84  1  0  0  0  0
 37 70  1  0  0  0  0
 37 76  2  0  0  0  0
 38 39  1  0  0  0  0
 38 82  1  0  0  0  0
 39 71  1  0  0  0  0
 39 77  2  0  0  0  0
 40 54  1  0  0  0  0
 40 72  1  0  0  0  0
 40 78  2  0  0  0  0
 41 61  1  0  0  0  0
 41 66  1  0  0  0  0
 41 79  2  0  0  0  0
 42 62  1  0  0  0  0
 42 73  1  0  0  0  0
 42 80  2  0  0  0  0
 43 67  1  0  0  0  0
 43 74  1  0  0  0  0
 43 81  2  0  0  0  0
 44 47  1  0  0  0  0
 45 54  1  0  0  0  0
 46 66  1  0  0  0  0
 47 49  1  0  0  0  0
 48 50  1  0  0  0  0
 48 51  1  0  0  0  0
 49 53  1  0  0  0  0
 50 55  1  0  0  0  0
 51 67  1  0  0  0  0
 52 55  1  0  0  0  0
 52 67  1  0  0  0  0
 53 72  1  0  0  0  0
 54 66  1  0  0  0  0
 55 65  1  0  0  0  0
 56 62  1  0  0  0  0
 57 63  1  0  0  0  0
 58 63  1  0  0  0  0
 59 63  1  0  0  0  0
 60 75  1  0  0  0  0
 61 63  1  0  0  0  0
 61 73  1  0  0  0  0
 62 75  1  0  0  0  0
 64 65  1  0  0  0  0
M  CHG  1  75   1
M  ISO  4  36 101  43 100  74 100  84 101
M  END
> <Batch ID>
0091

> <Smiles>
C=C[100N:0](c1cc(NC(=O)C(=O)[101CH2:1][101O:1]c2ccc3c(c2)CN(C(=O)C(NC(=O)C(C)NC)C(C)(C)C)C(C(=O)NC2CCCc4ccccc42)C3)ccc1N)[100C:0](=O)N1CCCC(n2nc(-c3ccc(Oc4ccc(F)cc4F)cc3)c(C(N)=O)c2N)C1

> <Shape>
0.310

> <Color>
0.076

> <Negative vol penalty>
0.000

$$$$

  -OEChem-04052300313D

 83 91  0     1  0  0  0  0  0999 V2000
  -22.5941  -10.9857   21.6426 C   0  0  0  0  0  0  0  0  0  0  0  0
  -22.1736  -12.2588   22.0141 C   0  0  0  0  0  0  0  0  0  0  0  0
  -30.6817  -26.7222   20.3245 C   0  0  0  0  0  0  0  0  0  0  0  0
  -29.8411  -25.9419   22.4509 C   0  0  0  0  0  0  0  0  0  0  0  0
  -18.9153  -26.2607   22.6156 C   0  0  0  0  0  0  0  0  0  0  0  0
  -23.8801  -10.7972   21.1381 C   0  0  0  0  0  0  0  0  0  0  0  0
  -23.0394  -13.3439   21.8824 C   0  0  0  0  0  0  0  0  0  0  0  0
  -21.5341  -19.0990   20.4268 C   0  0  0  0  0  0  0  0  0  0  0  0
  -18.0801  -27.1680   23.2674 C   0  0  0  0  0  0  0  0  0  0  0  0
  -31.9886  -26.5103   20.7633 C   0  0  0  0  0  0  0  0  0  0  0  0
  -31.1481  -25.7299   22.8897 C   0  0  0  0  0  0  0  0  0  0  0  0
  -21.3291  -20.2395   21.2019 C   0  0  0  0  0  0  0  0  0  0  0  0
  -34.2386  -28.0813   22.7365 C   0  0  0  0  0  0  0  0  0  0  0  0
  -35.1769  -29.0817   22.4827 C   0  0  0  0  0  0  0  0  0  0  0  0
  -23.6052  -20.9229   20.7878 C   0  0  0  0  0  0  0  0  0  0  0  0
  -19.6534  -28.9440   22.8111 C   0  0  0  0  0  0  0  0  0  0  0  0
  -36.4977  -27.5174   21.1998 C   0  0  0  0  0  0  0  0  0  0  0  0
  -29.6079  -26.4380   21.1683 C   0  0  0  0  0  0  0  0  0  0  0  0
  -20.1196  -26.6950   22.0616 C   0  0  0  0  0  0  0  0  0  0  0  0
  -27.4246  -25.7385   20.0496 C   0  0  0  0  0  0  0  0  0  0  0  0
  -24.7587  -11.8821   20.9911 C   0  0  0  0  0  0  0  0  0  0  0  0
  -22.7816  -18.8559   19.8343 C   0  0  0  0  0  0  0  0  0  0  0  0
  -24.3388  -13.1694   21.3767 C   0  0  0  0  0  0  0  0  0  0  0  0
  -23.8227  -19.7798   20.0035 C   0  0  0  0  0  0  0  0  0  0  0  0
  -18.4491  -28.5097   23.3651 C   0  0  0  0  0  0  0  0  0  0  0  0
  -20.4886  -28.0366   22.1594 C   0  0  0  0  0  0  0  0  0  0  0  0
  -32.2219  -26.0141   22.0459 C   0  0  0  0  0  0  0  0  0  0  0  0
  -22.3655  -21.1502   21.3849 C   0  0  0  0  0  0  0  0  0  0  0  0
  -34.4299  -26.7989   22.2221 C   0  0  0  0  0  0  0  0  0  0  0  0
  -36.3064  -28.7998   21.7144 C   0  0  0  0  0  0  0  0  0  0  0  0
  -35.5594  -26.5170   21.4537 C   0  0  0  0  0  0  0  0  0  0  0  0
  -28.2576  -26.6572   20.7158 C   0  0  0  0  0  0  0  0  0  0  0  0
  -26.2540  -26.4257   19.8400 C   0  0  0  0  0  0  0  0  0  0  0  0
  -21.7181  -23.3938   21.5183 C   0  0  0  0  0  0  0  0  0  1  0  0
  -20.9818  -25.7073   21.3789 C   0  0  0  0  0  0  0  0  0  0  0  0
  -27.6856  -24.3849   19.6555 C   0  0  0  0  0  0  0  0  0  0  0  0
  -21.4898  -24.5442   22.1631 C   0  0  0  0  0  0  0  0  0  0  0  0
  -24.9786  -16.5727   20.0878 C   0  0  0  0  0  0  0  0  0  0  0  0
  -26.3735  -18.1839   17.6422 C   0  0  0  0  0  0  0  0  0  0  0  0
  -26.7528  -21.1252   15.9535 C   0  0  0  0  0  0  0  0  0  0  0  0
  -22.2025  -29.8034   21.6233 C   0  0  0  0  0  0  0  0  0  0  0  0
  -26.1556  -11.6216   20.4854 C   0  0  0  0  0  0  0  0  0  0  0  0
  -22.9787  -17.6344   18.9790 C   0  0  0  0  0  0  0  0  0  0  0  0
  -25.1748  -19.5754   19.3721 C   0  0  0  0  0  0  0  0  0  0  0  0
  -26.8823  -12.8831   20.0263 C   0  0  0  0  0  0  0  0  0  0  0  0
  -25.1731  -31.3389   20.4006 C   0  0  0  0  0  0  0  0  0  0  0  0
  -26.7168  -13.9983   21.0538 C   0  0  0  0  0  0  0  0  0  0  0  0
  -26.1719  -30.1822   20.3188 C   0  0  0  0  0  0  0  0  0  0  0  0
  -24.2522  -31.2083   21.6125 C   0  0  0  0  0  0  0  0  0  0  0  0
  -24.5550  -28.7637   21.6457 C   0  0  0  0  0  0  0  0  0  0  0  0
  -25.2404  -14.3755   21.2255 C   0  0  1  0  0  0  0  0  0  0  0  0
  -24.4431  -17.2279   18.8462 C   0  0  1  0  0  0  0  0  0  0  0  0
  -25.4615  -28.8171   20.4051 C   0  0  2  0  0  0  0  0  0  0  0  0
  -27.9888  -22.1415   14.0204 C   0  0  0  0  0  0  0  0  0  0  0  0
  -28.9169  -18.2849   19.3248 C   0  0  0  0  0  0  0  0  0  0  0  0
  -29.7703  -20.0789   17.8011 C   0  0  0  0  0  0  0  0  0  0  0  0
  -29.2891  -17.8035   16.8991 C   0  0  0  0  0  0  0  0  0  0  0  0
  -24.2372  -21.7739   14.5359 C   0  0  0  0  0  0  0  0  0  0  0  0
  -27.3663  -19.3162   17.5364 C   0  0  1  0  0  0  0  0  0  0  0  0
  -26.7126  -21.4477   14.4706 C   0  0  2  0  0  0  0  0  0  0  0  0
  -28.8109  -18.8740   17.9040 C   0  0  0  0  0  0  0  0  0  0  0  0
  -27.6665  -27.8381   20.9160 N   0  0  0  0  0  0  0  0  0  0  0  0
  -26.4495  -27.6661   20.3724 N   0  0  0  0  0  0  0  0  0  0  0  0
  -25.3200  -18.3627   18.5501 N   0  0  0  0  0  0  0  0  0  0  0  0
  -23.6107  -29.8918   21.6257 N   0  0  0  0  0  0  0  0  0  0  0  0
  -17.6055  -29.4262   24.0265 N   0  0  0  0  0  0  0  0  0  0  0  0
  -25.0868  -26.0840   19.2541 N   0  0  0  0  0  0  0  0  0  0  0  0
  -28.9405  -23.8339   19.9485 N   0  0  0  0  0  0  0  0  0  0  0  0
  -21.7067  -28.5002   21.6035 N   0  0  0  0  0  0  0  0  0  0  0  0
  -24.7987  -15.2031   20.1235 N   0  0  0  0  0  0  0  0  0  0  0  0
  -27.2309  -19.8530   16.1867 N   0  0  0  0  0  0  0  0  0  0  0  0
  -25.5594  -22.3411   14.1660 N   0  3  0  0  0  0  0  0  0  0  0  0
  -21.2343  -25.8614   20.1883 O   0  0  0  0  0  0  0  0  0  0  0  0
  -26.8370  -23.6901   19.0466 O   0  0  0  0  0  0  0  0  0  0  0  0
  -25.5165  -17.2588   20.9490 O   0  0  0  0  0  0  0  0  0  0  0  0
  -26.5230  -17.1809   16.9399 O   0  0  0  0  0  0  0  0  0  0  0  0
  -26.3993  -21.9233   16.8186 O   0  0  0  0  0  0  0  0  0  0  0  0
  -21.4891  -30.8098   21.6104 O   0  0  0  0  0  0  0  0  0  0  0  0
  -21.6730  -24.6844   23.5222 O   0  0  0  0  0  0  0  0  0  0  0  0
  -33.4970  -25.8070   22.4743 O   0  0  0  0  0  0  0  0  0  0  0  0
  -22.1682  -22.2640   22.1416 O   0  0  0  0  0  0  0  0  0  1  0  0
  -37.2066  -29.7609   21.4694 F   0  0  0  0  0  0  0  0  0  0  0  0
  -35.7479  -25.2872   20.9558 F   0  0  0  0  0  0  0  0  0  0  0  0
  1  2  1  0  0  0  0
  1  6  2  0  0  0  0
  2  7  2  0  0  0  0
  3 10  2  0  0  0  0
  3 18  1  0  0  0  0
  4 11  1  0  0  0  0
  4 18  2  0  0  0  0
  5  9  2  0  0  0  0
  5 19  1  0  0  0  0
  6 21  1  0  0  0  0
  7 23  1  0  0  0  0
  8 12  2  0  0  0  0
  8 22  1  0  0  0  0
  9 25  1  0  0  0  0
 10 27  1  0  0  0  0
 11 27  2  0  0  0  0
 12 28  1  0  0  0  0
 13 14  2  0  0  0  0
 13 29  1  0  0  0  0
 14 30  1  0  0  0  0
 15 24  1  0  0  0  0
 15 28  2  0  0  0  0
 16 25  2  0  0  0  0
 16 26  1  0  0  0  0
 17 30  2  0  0  0  0
 17 31  1  0  0  0  0
 18 32  1  0  0  0  0
 19 26  2  0  0  0  0
 19 35  1  0  0  0  0
 20 32  1  0  0  0  0
 20 33  2  0  0  0  0
 20 36  1  0  0  0  0
 21 23  2  0  0  0  0
 21 42  1  0  0  0  0
 22 24  2  0  0  0  0
 22 43  1  0  0  0  0
 23 51  1  0  0  0  0
 24 44  1  0  0  0  0
 25 66  1  0  0  0  0
 26 69  1  0  0  0  0
 27 80  1  0  0  0  0
 28 81  1  0  0  0  0
 29 31  2  0  0  0  0
 29 80  1  0  0  0  0
 30 82  1  0  0  0  0
 31 83  1  0  0  0  0
 32 62  2  0  0  0  0
 33 63  1  0  0  0  0
 33 67  1  0  0  0  0
 34 37  2  0  0  0  0
 34 81  1  0  0  0  0
 35 37  1  0  0  0  0
 35 73  2  0  0  0  0
 36 68  1  0  0  0  0
 36 74  2  0  0  0  0
 37 79  1  0  0  0  0
 38 52  1  0  0  0  0
 38 70  1  0  0  0  0
 38 75  2  0  0  0  0
 39 59  1  0  0  0  0
 39 64  1  0  0  0  0
 39 76  2  0  0  0  0
 40 60  1  0  0  0  0
 40 71  1  0  0  0  0
 40 77  2  0  0  0  0
 41 65  1  0  0  0  0
 41 69  1  0  0  0  0
 41 78  2  0  0  0  0
 42 45  1  0  0  0  0
 43 52  1  0  0  0  0
 44 64  1  0  0  0  0
 45 47  1  0  0  0  0
 46 48  1  0  0  0  0
 46 49  1  0  0  0  0
 47 51  1  0  0  0  0
 48 53  1  0  0  0  0
 49 65  1  0  0  0  0
 50 53  1  0  0  0  0
 50 65  1  0  0  0  0
 51 70  1  0  0  0  0
 52 64  1  0  0  0  0
 53 63  1  0  0  0  0
 54 60  1  0  0  0  0
 55 61  1  0  0  0  0
 56 61  1  0  0  0  0
 57 61  1  0  0  0  0
 58 72  1  0  0  0  0
 59 61  1  0  0  0  0
 59 71  1  0  0  0  0
 60 72  1  0  0  0  0
 62 63  1  0  0  0  0
M  CHG  1  72   1
M  ISO  4  34 101  41 100  69 100  81 101
M  END
> <Batch ID>
0091

> <Smiles>
CNC(C)C(=O)NC(C(=O)N1Cc2cc([101O:1][101CH2:1]C(=O)C(=O)c3ccc(N)cc3[100NH:0][100C:0](=O)N3CCCC(n4nc(-c5ccc(Oc6ccc(F)cc6F)cc5)c(C(N)=O)c4N)C3)ccc2CC1C(=O)NC1CCCc2ccccc21)C(C)(C)C

> <Shape>
0.224

> <Color>
0.068

> <Negative vol penalty>
0.000

$$$$

  -OEChem-04052300313D

 86 95  0     1  0  0  0  0  0999 V2000
  -29.8995  -31.1827   14.3757 C   0  0  0  0  0  0  0  0  0  0  0  0
  -30.0095  -30.2871   15.4345 C   0  0  0  0  0  0  0  0  0  0  0  0
  -23.4588  -16.1292   22.2093 C   0  0  0  0  0  0  0  0  0  0  0  0
  -22.9435  -15.9544   19.8554 C   0  0  0  0  0  0  0  0  0  0  0  0
  -29.0826  -32.3061   14.4964 C   0  0  0  0  0  0  0  0  0  0  0  0
  -29.3035  -30.5150   16.6152 C   0  0  0  0  0  0  0  0  0  0  0  0
  -27.0507  -26.3327   18.3697 C   0  0  0  0  0  0  0  0  0  0  0  0
  -29.4291  -17.9843   23.4362 C   0  0  0  0  0  0  0  0  0  0  0  0
  -30.6444  -18.0978   21.3512 C   0  0  0  0  0  0  0  0  0  0  0  0
  -29.7233  -16.6243   23.5337 C   0  0  0  0  0  0  0  0  0  0  0  0
  -30.9387  -16.7378   21.4487 C   0  0  0  0  0  0  0  0  0  0  0  0
  -22.6040  -17.2264   22.3150 C   0  0  0  0  0  0  0  0  0  0  0  0
  -22.0887  -17.0516   19.9610 C   0  0  0  0  0  0  0  0  0  0  0  0
  -27.8540  -25.4089   19.0369 C   0  0  0  0  0  0  0  0  0  0  0  0
  -20.8329  -20.2969   23.1265 C   0  0  0  0  0  0  0  0  0  0  0  0
  -21.2842  -21.4060   23.8418 C   0  0  0  0  0  0  0  0  0  0  0  0
  -27.0761  -26.2692   21.1521 C   0  0  0  0  0  0  0  0  0  0  0  0
  -23.1383  -21.6392   22.3105 C   0  0  0  0  0  0  0  0  0  0  0  0
  -23.6286  -15.4933   20.9795 C   0  0  0  0  0  0  0  0  0  0  0  0
  -24.1796  -13.0033   21.0429 C   0  0  0  0  0  0  0  0  0  0  0  0
  -28.3586  -32.5428   15.6756 C   0  0  0  0  0  0  0  0  0  0  0  0
  -26.2610  -27.2404   19.0900 C   0  0  0  0  0  0  0  0  0  0  0  0
  -28.4771  -31.6433   16.7523 C   0  0  0  0  0  0  0  0  0  0  0  0
  -26.2617  -27.2017   20.4917 C   0  0  0  0  0  0  0  0  0  0  0  0
  -29.8896  -18.7210   22.3450 C   0  0  0  0  0  0  0  0  0  0  0  0
  -30.4781  -16.0011   22.5400 C   0  0  0  0  0  0  0  0  0  0  0  0
  -21.9189  -17.6875   21.1909 C   0  0  0  0  0  0  0  0  0  0  0  0
  -27.8690  -25.3790   20.4283 C   0  0  0  0  0  0  0  0  0  0  0  0
  -21.5343  -19.8588   22.0032 C   0  0  0  0  0  0  0  0  0  0  0  0
  -22.4368  -22.0772   23.4338 C   0  0  0  0  0  0  0  0  0  0  0  0
  -22.6870  -20.5300   21.5952 C   0  0  0  0  0  0  0  0  0  0  0  0
  -24.5120  -14.3602   20.8696 C   0  0  0  0  0  0  0  0  0  0  0  0
  -25.3592  -12.3315   20.8337 C   0  0  0  0  0  0  0  0  0  0  0  0
  -29.1277  -22.2581   22.7599 C   0  0  0  0  0  0  0  0  0  0  0  0
  -29.1380  -22.1703   21.4315 C   0  0  0  0  0  0  0  0  0  0  0  0
  -29.4095  -20.9277   23.3175 C   0  0  0  0  0  0  0  0  0  0  0  0
  -29.4472  -20.7746   21.0647 C   0  0  0  0  0  0  0  0  0  0  0  0
  -22.9175  -12.4037   21.3641 C   0  0  0  0  0  0  0  0  0  0  0  0
  -26.1416  -30.4074   19.3350 C   0  0  0  0  0  0  0  0  0  0  0  0
  -23.5079  -29.7801   21.1218 C   0  0  0  0  0  0  0  0  0  0  0  0
  -21.7929  -27.5716   23.0783 C   0  0  0  0  0  0  0  0  0  0  0  0
  -30.9574  -13.7979   21.4876 C   0  0  0  0  0  0  0  0  0  0  0  0
  -27.5253  -33.7958   15.7767 C   0  0  0  0  0  0  0  0  0  0  0  0
  -25.3796  -28.2129   18.3553 C   0  0  0  0  0  0  0  0  0  0  0  0
  -25.4167  -28.1413   21.3113 C   0  0  0  0  0  0  0  0  0  0  0  0
  -26.5185  -33.7668   16.9238 C   0  0  0  0  0  0  0  0  0  0  0  0
  -29.4905  -12.6535   18.4574 C   0  0  0  0  0  0  0  0  0  0  0  0
  -27.1834  -33.2745   18.2053 C   0  0  0  0  0  0  0  0  0  0  0  0
  -28.0025  -12.8421   18.7505 C   0  0  0  0  0  0  0  0  0  0  0  0
  -30.3340  -13.7990   19.0181 C   0  0  0  0  0  0  0  0  0  0  0  0
  -28.6273  -14.2446   20.7539 C   0  0  0  0  0  0  0  0  0  0  0  0
  -27.7077  -31.8430   18.0400 C   0  0  1  0  0  0  0  0  0  0  0  0
  -25.0072  -29.4323   19.1929 C   0  0  1  0  0  0  0  0  0  0  0  0
  -27.7610  -13.0789   20.2518 C   0  0  1  0  0  0  0  0  0  0  0  0
  -19.6882  -27.3577   24.4281 C   0  0  0  0  0  0  0  0  0  0  0  0
  -24.7521  -31.4827   23.3270 C   0  0  0  0  0  0  0  0  0  0  0  0
  -23.1173  -30.4736   24.9325 C   0  0  0  0  0  0  0  0  0  0  0  0
  -22.2960  -31.8262   23.0041 C   0  0  0  0  0  0  0  0  0  0  0  0
  -31.1495  -14.0486   23.9524 C   0  0  0  0  0  0  0  0  0  0  0  0
  -20.8089  -25.3375   21.4051 C   0  0  0  0  0  0  0  0  0  0  0  0
  -28.9017  -23.2367   20.4250 C   0  0  0  0  0  0  0  0  0  1  0  0
  -23.2461  -29.5209   22.5858 C   0  0  1  0  0  0  0  0  0  0  0  0
  -20.3381  -27.1381   23.0708 C   0  0  2  0  0  0  0  0  0  0  0  0
  -23.3704  -30.8093   23.4472 C   0  0  0  0  0  0  0  0  0  0  0  0
  -25.8017  -14.5415   20.5733 N   0  0  0  0  0  0  0  0  0  0  0  0
  -26.2902  -13.2896   20.5588 N   0  0  0  0  0  0  0  0  0  0  0  0
  -29.5961  -20.0765   22.2474 N   0  0  0  0  0  0  0  0  0  0  0  0
  -24.5766  -29.0779   20.5469 N   0  0  0  0  0  0  0  0  0  0  0  0
  -30.0399  -14.0140   20.4420 N   0  0  0  0  0  0  0  0  0  0  0  0
  -25.6805  -11.0206   20.8600 N   0  0  0  0  0  0  0  0  0  0  0  0
  -21.8075  -13.2399   21.5458 N   0  0  0  0  0  0  0  0  0  0  0  0
  -26.6203  -30.8925   18.1330 N   0  0  0  0  0  0  0  0  0  0  0  0
  -21.9391  -28.8770   22.6590 N   0  0  0  0  0  0  0  0  0  0  0  0
  -30.7829  -14.5932   22.6406 N   0  0  0  0  0  0  0  0  0  0  0  0
  -20.2301  -25.6922   22.7265 N   0  3  0  0  0  0  0  0  0  0  0  0
  -29.4565  -20.6905   24.5137 O   0  0  0  0  0  0  0  0  0  0  0  0
  -29.5387  -20.3697   19.9168 O   0  0  0  0  0  0  0  0  0  0  0  0
  -22.7817  -11.1644   21.5026 O   0  0  0  0  0  0  0  0  0  0  0  0
  -26.5511  -30.6990   20.4525 O   0  0  0  0  0  0  0  0  0  0  0  0
  -22.7861  -30.5709   20.5092 O   0  0  0  0  0  0  0  0  0  0  0  0
  -22.7077  -26.8278   23.4253 O   0  0  0  0  0  0  0  0  0  0  0  0
  -31.8473  -12.9425   21.4079 O   0  0  0  0  0  0  0  0  0  0  0  0
  -21.0845  -18.7579   21.2937 O   0  0  0  0  0  0  0  0  0  0  0  0
  -28.6527  -24.4787   21.0820 O   0  0  0  0  0  0  0  0  0  1  0  0
  -22.8693  -23.1432   24.1199 F   0  0  0  0  0  0  0  0  0  0  0  0
  -23.3644  -20.1145   20.5161 F   0  0  0  0  0  0  0  0  0  0  0  0
  1  2  1  0  0  0  0
  1  5  2  0  0  0  0
  2  6  2  0  0  0  0
  3 12  2  0  0  0  0
  3 19  1  0  0  0  0
  4 13  1  0  0  0  0
  4 19  2  0  0  0  0
  5 21  1  0  0  0  0
  6 23  1  0  0  0  0
  7 14  2  0  0  0  0
  7 22  1  0  0  0  0
  8 10  2  0  0  0  0
  8 25  1  0  0  0  0
  9 11  1  0  0  0  0
  9 25  2  0  0  0  0
 10 26  1  0  0  0  0
 11 26  2  0  0  0  0
 12 27  1  0  0  0  0
 13 27  2  0  0  0  0
 14 28  1  0  0  0  0
 15 16  2  0  0  0  0
 15 29  1  0  0  0  0
 16 30  1  0  0  0  0
 17 24  1  0  0  0  0
 17 28  2  0  0  0  0
 18 30  2  0  0  0  0
 18 31  1  0  0  0  0
 19 32  1  0  0  0  0
 20 32  1  0  0  0  0
 20 33  2  0  0  0  0
 20 38  1  0  0  0  0
 21 23  2  0  0  0  0
 21 43  1  0  0  0  0
 22 24  2  0  0  0  0
 22 44  1  0  0  0  0
 23 52  1  0  0  0  0
 24 45  1  0  0  0  0
 25 67  1  0  0  0  0
 26 74  1  0  0  0  0
 27 83  1  0  0  0  0
 28 84  1  0  0  0  0
 29 31  2  0  0  0  0
 29 83  1  0  0  0  0
 30 85  1  0  0  0  0
 31 86  1  0  0  0  0
 32 65  2  0  0  0  0
 33 66  1  0  0  0  0
 33 70  1  0  0  0  0
 34 35  2  0  0  0  0
 34 36  1  0  0  0  0
 35 37  1  0  0  0  0
 35 61  1  0  0  0  0
 36 67  1  0  0  0  0
 36 76  2  0  0  0  0
 37 67  1  0  0  0  0
 37 77  2  0  0  0  0
 38 71  1  0  0  0  0
 38 78  2  0  0  0  0
 39 53  1  0  0  0  0
 39 72  1  0  0  0  0
 39 79  2  0  0  0  0
 40 62  1  0  0  0  0
 40 68  1  0  0  0  0
 40 80  2  0  0  0  0
 41 63  1  0  0  0  0
 41 73  1  0  0  0  0
 41 81  2  0  0  0  0
 42 69  1  0  0  0  0
 42 74  1  0  0  0  0
 42 82  2  0  0  0  0
 43 46  1  0  0  0  0
 44 53  1  0  0  0  0
 45 68  1  0  0  0  0
 46 48  1  0  0  0  0
 47 49  1  0  0  0  0
 47 50  1  0  0  0  0
 48 52  1  0  0  0  0
 49 54  1  0  0  0  0
 50 69  1  0  0  0  0
 51 54  1  0  0  0  0
 51 69  1  0  0  0  0
 52 72  1  0  0  0  0
 53 68  1  0  0  0  0
 54 66  1  0  0  0  0
 55 63  1  0  0  0  0
 56 64  1  0  0  0  0
 57 64  1  0  0  0  0
 58 64  1  0  0  0  0
 59 74  1  0  0  0  0
 60 75  1  0  0  0  0
 61 84  1  0  0  0  0
 62 64  1  0  0  0  0
 62 73  1  0  0  0  0
 63 75  1  0  0  0  0
 65 66  1  0  0  0  0
M  CHG  1  75   1
M  ISO  4  42 100  61 101  74 100  84 101
M  END
> <Batch ID>
0091

> <Smiles>
CNC(C)C(=O)NC(C(=O)N1Cc2cc([101O:1][101CH2:1]C3=CC(=O)N(c4ccc([100N:0](C)[100C:0](=O)N5CCCC(n6nc(-c7ccc(Oc8ccc(F)cc8F)cc7)c(C(N)=O)c6N)C5)cc4)C3=O)ccc2CC1C(=O)NC1CCCc2ccccc21)C(C)(C)C

> <Shape>
0.258

> <Color>
0.100

> <Negative vol penalty>
0.000

$$$$

  -OEChem-04052300313D

 80 88  0     1  0  0  0  0  0999 V2000
  -16.0960  -22.1247   12.0981 C   0  0  0  0  0  0  0  0  0  0  0  0
  -17.3382  -21.6249   12.4754 C   0  0  0  0  0  0  0  0  0  0  0  0
  -23.2888   -9.7946   19.9075 C   0  0  0  0  0  0  0  0  0  0  0  0
  -23.7148   -9.9372   22.2813 C   0  0  0  0  0  0  0  0  0  0  0  0
  -15.3462  -22.8789   12.9996 C   0  0  0  0  0  0  0  0  0  0  0  0
  -17.8320  -21.8801   13.7543 C   0  0  0  0  0  0  0  0  0  0  0  0
  -19.8275  -17.7623   15.9237 C   0  0  0  0  0  0  0  0  0  0  0  0
  -22.5556   -8.6253   20.1093 C   0  0  0  0  0  0  0  0  0  0  0  0
  -22.9815   -8.7679   22.4832 C   0  0  0  0  0  0  0  0  0  0  0  0
  -21.1050  -17.3826   15.5142 C   0  0  0  0  0  0  0  0  0  0  0  0
  -19.7287   -7.8702   22.6672 C   0  0  0  0  0  0  0  0  0  0  0  0
  -18.8150   -7.8539   23.7209 C   0  0  0  0  0  0  0  0  0  0  0  0
  -22.0376  -18.4186   17.4829 C   0  0  0  0  0  0  0  0  0  0  0  0
  -26.5867  -19.3185   15.3778 C   0  0  0  0  0  0  0  0  0  0  0  0
  -20.0027   -6.0035   24.7222 C   0  0  0  0  0  0  0  0  0  0  0  0
  -23.8685  -10.4505   20.9935 C   0  0  0  0  0  0  0  0  0  0  0  0
  -24.1402  -12.9791   20.7937 C   0  0  0  0  0  0  0  0  0  0  0  0
  -15.8267  -23.1353   14.2935 C   0  0  0  0  0  0  0  0  0  0  0  0
  -19.6463  -18.4837   17.1124 C   0  0  0  0  0  0  0  0  0  0  0  0
  -17.0885  -22.6396   14.6736 C   0  0  0  0  0  0  0  0  0  0  0  0
  -20.7566  -18.8041   17.9066 C   0  0  0  0  0  0  0  0  0  0  0  0
  -27.9329  -18.9331   15.6415 C   0  0  0  0  0  0  0  0  0  0  0  0
  -22.4019   -8.1120   21.3971 C   0  0  0  0  0  0  0  0  0  0  0  0
  -22.2105  -17.7132   16.2923 C   0  0  0  0  0  0  0  0  0  0  0  0
  -20.7795   -6.9531   22.6409 C   0  0  0  0  0  0  0  0  0  0  0  0
  -18.9520   -6.9205   24.7484 C   0  0  0  0  0  0  0  0  0  0  0  0
  -20.9165   -6.0198   23.6684 C   0  0  0  0  0  0  0  0  0  0  0  0
  -24.6266  -11.6581   20.7856 C   0  0  0  0  0  0  0  0  0  0  0  0
  -28.0071  -17.7101   16.2710 C   0  0  0  0  0  0  0  0  0  0  0  0
  -25.2474  -13.7542   20.5493 C   0  0  0  0  0  0  0  0  0  0  0  0
  -25.6833  -18.3750   15.8156 C   0  0  0  0  0  0  0  0  0  0  0  0
  -22.8067  -13.4624   21.0035 C   0  0  0  0  0  0  0  0  0  0  0  0
  -29.2027  -16.9504   16.7185 C   0  0  0  0  0  0  0  0  0  0  0  0
  -18.4960  -21.3563   17.8398 C   0  0  0  0  0  0  0  0  0  0  0  0
  -18.8936  -20.3146   20.8859 C   0  0  0  0  0  0  0  0  0  0  0  0
  -20.5018  -18.2156   23.0434 C   0  0  0  0  0  0  0  0  0  0  0  0
  -29.9253  -14.8374   17.7847 C   0  0  0  0  0  0  0  0  0  0  0  0
  -15.0012  -23.9956   15.2172 C   0  0  0  0  0  0  0  0  0  0  0  0
  -18.2592  -18.8627   17.5538 C   0  0  0  0  0  0  0  0  0  0  0  0
  -20.6137  -19.5598   19.2016 C   0  0  0  0  0  0  0  0  0  0  0  0
  -15.4300  -23.9047   16.6794 C   0  0  0  0  0  0  0  0  0  0  0  0
  -30.1652  -12.5450   20.4651 C   0  0  0  0  0  0  0  0  0  0  0  0
  -16.9462  -24.0204   16.7993 C   0  0  0  0  0  0  0  0  0  0  0  0
  -28.7055  -12.2224   20.7961 C   0  0  0  0  0  0  0  0  0  0  0  0
  -30.3842  -12.7041   18.9612 C   0  0  0  0  0  0  0  0  0  0  0  0
  -28.0265  -13.3267   18.6273 C   0  0  0  0  0  0  0  0  0  0  0  0
  -17.6471  -22.8741   16.0603 C   0  0  1  0  0  0  0  0  0  0  0  0
  -18.2414  -20.0418   18.5217 C   0  0  1  0  0  0  0  0  0  0  0  0
  -27.7402  -13.2263   20.1343 C   0  0  1  0  0  0  0  0  0  0  0  0
  -21.0388  -17.0672   25.2091 C   0  0  0  0  0  0  0  0  0  0  0  0
  -20.5159  -22.8457   21.4070 C   0  0  0  0  0  0  0  0  0  0  0  0
  -21.4016  -21.7665   23.4853 C   0  0  0  0  0  0  0  0  0  0  0  0
  -18.9570  -22.2068   23.2553 C   0  0  0  0  0  0  0  0  0  0  0  0
  -18.5159  -16.0804   22.5375 C   0  0  0  0  0  0  0  0  0  0  0  0
  -20.0173  -20.3595   21.8931 C   0  0  1  0  0  0  0  0  0  0  0  0
  -19.9803  -17.3100   24.1445 C   0  0  2  0  0  0  0  0  0  0  0  0
  -20.2262  -21.7821   22.4848 C   0  0  0  0  0  0  0  0  0  0  0  0
  -25.9405  -11.5938   20.5542 N   0  0  0  0  0  0  0  0  0  0  0  0
  -26.2891  -12.8842   20.4145 N   0  0  0  0  0  0  0  0  0  0  0  0
  -19.2376  -19.9136   19.5872 N   0  0  0  0  0  0  0  0  0  0  0  0
  -29.4384  -13.6779   18.4131 N   0  0  0  0  0  0  0  0  0  0  0  0
  -29.0070  -19.6877   15.3090 N   0  0  0  0  0  0  0  0  0  0  0  0
  -25.4219  -15.0883   20.4385 N   0  0  0  0  0  0  0  0  0  0  0  0
  -21.7878  -12.5300   21.2416 N   0  0  0  0  0  0  0  0  0  0  0  0
  -24.2881  -18.4467   15.7103 N   0  0  0  0  0  0  0  0  0  1  0  0
  -28.9425  -15.7251   17.3328 N   0  0  0  0  0  0  0  0  0  0  0  0
  -17.5883  -21.6579   16.8425 N   0  0  0  0  0  0  0  0  0  0  0  0
  -19.7144  -19.3369   22.8885 N   0  0  0  0  0  0  0  0  0  0  0  0
  -19.5698  -15.9929   23.5809 N   0  3  0  0  0  0  0  0  0  0  0  0
  -22.5241  -14.6840   20.9642 O   0  0  0  0  0  0  0  0  0  0  0  0
  -30.3202  -17.4080   16.4952 O   0  0  0  0  0  0  0  0  0  0  0  0
  -19.4448  -22.0466   18.1933 O   0  0  0  0  0  0  0  0  0  0  0  0
  -17.7514  -20.6171   21.2403 O   0  0  0  0  0  0  0  0  0  0  0  0
  -21.5093  -17.9563   22.3890 O   0  0  0  0  0  0  0  0  0  0  0  0
  -31.1308  -15.0801   17.6699 O   0  0  0  0  0  0  0  0  0  0  0  0
  -21.6863   -6.9712   21.5944 O   0  0  0  0  0  0  0  0  0  0  0  0
  -23.4586  -17.3444   15.8946 O   0  0  0  0  0  0  0  0  0  1  0  0
  -18.0753   -6.9059   25.7611 F   0  0  0  0  0  0  0  0  0  0  0  0
  -21.9245   -5.1371   23.6492 F   0  0  0  0  0  0  0  0  0  0  0  0
  -26.4583  -17.0316   16.5415 S   0  0  0  0  0  0  0  0  0  0  0  0
  1  2  1  0  0  0  0
  1  5  2  0  0  0  0
  2  6  2  0  0  0  0
  3  8  2  0  0  0  0
  3 16  1  0  0  0  0
  4  9  1  0  0  0  0
  4 16  2  0  0  0  0
  5 18  1  0  0  0  0
  6 20  1  0  0  0  0
  7 10  2  0  0  0  0
  7 19  1  0  0  0  0
  8 23  1  0  0  0  0
  9 23  2  0  0  0  0
 10 24  1  0  0  0  0
 11 12  2  0  0  0  0
 11 25  1  0  0  0  0
 12 26  1  0  0  0  0
 13 21  1  0  0  0  0
 13 24  2  0  0  0  0
 14 22  1  0  0  0  0
 14 31  2  0  0  0  0
 15 26  2  0  0  0  0
 15 27  1  0  0  0  0
 16 28  1  0  0  0  0
 17 28  1  0  0  0  0
 17 30  2  0  0  0  0
 17 32  1  0  0  0  0
 18 20  2  0  0  0  0
 18 38  1  0  0  0  0
 19 21  2  0  0  0  0
 19 39  1  0  0  0  0
 20 47  1  0  0  0  0
 21 40  1  0  0  0  0
 22 29  2  0  0  0  0
 22 62  1  0  0  0  0
 23 76  1  0  0  0  0
 24 77  1  0  0  0  0
 25 27  2  0  0  0  0
 25 76  1  0  0  0  0
 26 78  1  0  0  0  0
 27 79  1  0  0  0  0
 28 58  2  0  0  0  0
 29 33  1  0  0  0  0
 29 80  1  0  0  0  0
 30 59  1  0  0  0  0
 30 63  1  0  0  0  0
 31 65  1  0  0  0  0
 31 80  1  0  0  0  0
 32 64  1  0  0  0  0
 32 70  2  0  0  0  0
 33 66  1  0  0  0  0
 33 71  2  0  0  0  0
 34 48  1  0  0  0  0
 34 67  1  0  0  0  0
 34 72  2  0  0  0  0
 35 55  1  0  0  0  0
 35 60  1  0  0  0  0
 35 73  2  0  0  0  0
 36 56  1  0  0  0  0
 36 68  1  0  0  0  0
 36 74  2  0  0  0  0
 37 61  1  0  0  0  0
 37 66  1  0  0  0  0
 37 75  2  0  0  0  0
 38 41  1  0  0  0  0
 39 48  1  0  0  0  0
 40 60  1  0  0  0  0
 41 43  1  0  0  0  0
 42 44  1  0  0  0  0
 42 45  1  0  0  0  0
 43 47  1  0  0  0  0
 44 49  1  0  0  0  0
 45 61  1  0  0  0  0
 46 49  1  0  0  0  0
 46 61  1  0  0  0  0
 47 67  1  0  0  0  0
 48 60  1  0  0  0  0
 49 59  1  0  0  0  0
 50 56  1  0  0  0  0
 51 57  1  0  0  0  0
 52 57  1  0  0  0  0
 53 57  1  0  0  0  0
 54 69  1  0  0  0  0
 55 57  1  0  0  0  0
 55 68  1  0  0  0  0
 56 69  1  0  0  0  0
 58 59  1  0  0  0  0
 65 77  1  0  0  0  0
M  CHG  1  69   1
M  ISO  4  37 100  65 101  66 100  77 101
M  END
> <Batch ID>
0091

> <Smiles>
CNC(C)C(=O)NC(C(=O)N1Cc2cc([101O:1][101NH:1]c3cc(N)c(C(=O)[100NH:0][100C:0](=O)N4CCCC(n5nc(-c6ccc(Oc7ccc(F)cc7F)cc6)c(C(N)=O)c5N)C4)s3)ccc2CC1C(=O)NC1CCCc2ccccc21)C(C)(C)C

> <Shape>
0.133

> <Color>
0.170

> <Negative vol penalty>
0.000

$$$$

  -OEChem-04052300313D

 83 91  0     1  0  0  0  0  0999 V2000
  -28.2862  -33.5560   25.8947 C   0  0  0  0  0  0  0  0  0  0  0  0
  -28.3802  -32.3160   25.2710 C   0  0  0  0  0  0  0  0  0  0  0  0
  -33.1461  -23.4010   15.3252 C   0  0  0  0  0  0  0  0  0  0  0  0
  -26.0255  -12.6558   21.5407 C   0  0  0  0  0  0  0  0  0  0  0  0
  -25.8545  -12.2815   19.1600 C   0  0  0  0  0  0  0  0  0  0  0  0
  -32.5964  -22.1215   15.2465 C   0  0  0  0  0  0  0  0  0  0  0  0
  -27.0372  -34.0631   26.2508 C   0  0  0  0  0  0  0  0  0  0  0  0
  -27.2252  -31.5818   25.0041 C   0  0  0  0  0  0  0  0  0  0  0  0
  -27.2127  -29.6072   20.3409 C   0  0  0  0  0  0  0  0  0  0  0  0
  -32.5366  -24.3746   16.1166 C   0  0  0  0  0  0  0  0  0  0  0  0
  -24.6994  -12.2536   21.6993 C   0  0  0  0  0  0  0  0  0  0  0  0
  -24.5283  -11.8792   19.3186 C   0  0  0  0  0  0  0  0  0  0  0  0
  -27.9801  -28.4621   20.1322 C   0  0  0  0  0  0  0  0  0  0  0  0
  -22.9759   -9.3473   21.8254 C   0  0  0  0  0  0  0  0  0  0  0  0
  -22.6854   -8.4689   22.8692 C   0  0  0  0  0  0  0  0  0  0  0  0
  -30.8274  -22.7891   16.7506 C   0  0  0  0  0  0  0  0  0  0  0  0
  -25.9936  -27.1053   20.3119 C   0  0  0  0  0  0  0  0  0  0  0  0
  -21.1783  -10.0993   23.8219 C   0  0  0  0  0  0  0  0  0  0  0  0
  -26.6031  -12.6698   20.2711 C   0  0  0  0  0  0  0  0  0  0  0  0
  -31.4370  -21.8155   15.9592 C   0  0  0  0  0  0  0  0  0  0  0  0
  -29.1199  -12.2710   20.1521 C   0  0  0  0  0  0  0  0  0  0  0  0
  -25.8656  -33.3391   25.9794 C   0  0  0  0  0  0  0  0  0  0  0  0
  -25.8292  -29.5089   20.5478 C   0  0  0  0  0  0  0  0  0  0  0  0
  -25.9594  -32.0790   25.3581 C   0  0  0  0  0  0  0  0  0  0  0  0
  -25.2105  -28.2509   20.5204 C   0  0  0  0  0  0  0  0  0  0  0  0
  -31.3772  -24.0686   16.8293 C   0  0  0  0  0  0  0  0  0  0  0  0
  -23.9508  -11.8653   20.5882 C   0  0  0  0  0  0  0  0  0  0  0  0
  -27.3711  -27.2107   20.1206 C   0  0  0  0  0  0  0  0  0  0  0  0
  -22.3678  -10.6018   21.7799 C   0  0  0  0  0  0  0  0  0  0  0  0
  -21.7865   -8.8448   23.8674 C   0  0  0  0  0  0  0  0  0  0  0  0
  -21.4690  -10.9778   22.7781 C   0  0  0  0  0  0  0  0  0  0  0  0
  -27.9728  -13.0857   20.1066 C   0  0  0  0  0  0  0  0  0  0  0  0
  -30.1647  -13.1369   19.9400 C   0  0  0  0  0  0  0  0  0  0  0  0
  -30.8541  -20.4599   15.8769 C   0  0  0  0  0  0  0  0  0  0  0  0
  -29.2311  -10.8577   20.3668 C   0  0  0  0  0  0  0  0  0  0  0  0
  -23.8591  -30.2505   22.9295 C   0  0  0  0  0  0  0  0  0  0  0  0
  -21.5757  -29.4116   20.7837 C   0  0  0  0  0  0  0  0  0  0  0  0
  -29.6094  -24.9249   18.4026 C   0  0  0  0  0  0  0  0  0  0  0  0
  -20.7354  -27.6387   17.9913 C   0  0  0  0  0  0  0  0  0  0  0  0
  -30.1999  -18.4162   17.1306 C   0  0  0  0  0  0  0  0  0  0  0  0
  -24.5416  -33.9069   26.4256 C   0  0  0  0  0  0  0  0  0  0  0  0
  -25.0115  -30.7558   20.7448 C   0  0  0  0  0  0  0  0  0  0  0  0
  -23.7257  -28.0930   20.7173 C   0  0  0  0  0  0  0  0  0  0  0  0
  -23.3383  -33.2345   25.7696 C   0  0  0  0  0  0  0  0  0  0  0  0
  -31.4661  -17.6773   20.5377 C   0  0  0  0  0  0  0  0  0  0  0  0
  -23.4874  -31.7169   25.8093 C   0  0  0  0  0  0  0  0  0  0  0  0
  -30.7400  -16.3699   20.8346 C   0  0  0  0  0  0  0  0  0  0  0  0
  -30.6476  -18.6011   19.6367 C   0  0  0  0  0  0  0  0  0  0  0  0
  -29.4789  -16.6342   18.6666 C   0  0  0  0  0  0  0  0  0  0  0  0
  -24.7275  -31.2638   25.0295 C   0  0  1  0  0  0  0  0  0  0  0  0
  -23.6876  -30.4959   21.4571 C   0  0  1  0  0  0  0  0  0  0  0  0
  -30.3203  -15.6815   19.5280 C   0  0  2  0  0  0  0  0  0  0  0  0
  -18.7852  -27.1210   16.4993 C   0  0  0  0  0  0  0  0  0  0  0  0
  -20.4716  -27.5033   22.8931 C   0  0  0  0  0  0  0  0  0  0  0  0
  -19.1748  -26.3616   21.0812 C   0  0  0  0  0  0  0  0  0  0  0  0
  -18.7312  -28.7590   21.6091 C   0  0  0  0  0  0  0  0  0  0  0  0
  -22.0738  -28.8279   15.6347 C   0  0  0  0  0  0  0  0  0  0  0  0
  -29.2867  -26.2277   19.1105 C   0  0  0  0  0  0  0  0  0  1  0  0
  -20.8709  -28.1271   20.4198 C   0  0  1  0  0  0  0  0  0  0  0  0
  -19.9775  -28.0346   16.7370 C   0  0  2  0  0  0  0  0  0  0  0  0
  -19.8404  -27.6902   21.4990 C   0  0  0  0  0  0  0  0  0  0  0  0
  -28.2614  -14.3706   19.8833 N   0  0  0  0  0  0  0  0  0  0  0  0
  -29.6018  -14.3697   19.7867 N   0  0  0  0  0  0  0  0  0  0  0  0
  -22.9701  -29.3414   20.9125 N   0  0  0  0  0  0  0  0  0  0  0  0
  -30.1618  -17.9113   18.4337 N   0  0  0  0  0  0  0  0  0  0  0  0
  -31.5008  -12.9565   19.8716 N   0  0  0  0  0  0  0  0  0  0  0  0
  -28.0577  -10.1182   20.5681 N   0  0  0  0  0  0  0  0  0  0  0  0
  -30.7594  -25.0569   17.6319 N   0  0  0  0  0  0  0  0  0  0  0  0
  -30.7420  -19.7527   17.0119 N   0  0  0  0  0  0  0  0  0  0  0  0
  -24.4672  -31.2907   23.6061 N   0  0  0  0  0  0  0  0  0  0  0  0
  -20.2962  -28.3380   19.0955 N   0  0  0  0  0  0  0  0  0  0  0  0
  -30.4801  -20.0214   14.6751 N   0  3  0  0  0  0  0  0  0  0  0  0
  -20.8711  -27.9602   15.5466 N   0  3  0  0  0  0  0  0  0  0  0  0
  -30.3394  -10.2708   20.3960 O   0  0  0  0  0  0  0  0  0  0  0  0
  -23.4674  -29.1962   23.4160 O   0  0  0  0  0  0  0  0  0  0  0  0
  -20.9142  -30.4408   20.9407 O   0  0  0  0  0  0  0  0  0  0  0  0
  -28.9063  -23.9290   18.5378 O   0  0  0  0  0  0  0  0  0  0  0  0
  -21.6254  -26.7910   17.9922 O   0  0  0  0  0  0  0  0  0  0  0  0
  -29.7933  -17.8371   16.1290 O   0  0  0  0  0  0  0  0  0  0  0  0
  -22.6568  -11.4725   20.7426 O   0  0  0  0  0  0  0  0  0  0  0  0
  -28.1179  -26.0913   19.9179 O   0  0  0  0  0  0  0  0  0  1  0  0
  -21.5064   -8.0005   24.8688 F   0  0  0  0  0  0  0  0  0  0  0  0
  -20.8807  -12.1812   22.7391 F   0  0  0  0  0  0  0  0  0  0  0  0
  1  2  1  0  0  0  0
  1  7  2  0  0  0  0
  2  8  2  0  0  0  0
  3  6  1  0  0  0  0
  3 10  2  0  0  0  0
  4 11  2  0  0  0  0
  4 19  1  0  0  0  0
  5 12  1  0  0  0  0
  5 19  2  0  0  0  0
  6 20  2  0  0  0  0
  7 22  1  0  0  0  0
  8 24  1  0  0  0  0
  9 13  2  0  0  0  0
  9 23  1  0  0  0  0
 10 26  1  0  0  0  0
 11 27  1  0  0  0  0
 12 27  2  0  0  0  0
 13 28  1  0  0  0  0
 14 15  2  0  0  0  0
 14 29  1  0  0  0  0
 15 30  1  0  0  0  0
 16 20  1  0  0  0  0
 16 26  2  0  0  0  0
 17 25  1  0  0  0  0
 17 28  2  0  0  0  0
 18 30  2  0  0  0  0
 18 31  1  0  0  0  0
 19 32  1  0  0  0  0
 20 34  1  0  0  0  0
 21 32  1  0  0  0  0
 21 33  2  0  0  0  0
 21 35  1  0  0  0  0
 22 24  2  0  0  0  0
 22 41  1  0  0  0  0
 23 25  2  0  0  0  0
 23 42  1  0  0  0  0
 24 50  1  0  0  0  0
 25 43  1  0  0  0  0
 26 68  1  0  0  0  0
 27 80  1  0  0  0  0
 28 81  1  0  0  0  0
 29 31  2  0  0  0  0
 29 80  1  0  0  0  0
 30 82  1  0  0  0  0
 31 83  1  0  0  0  0
 32 62  2  0  0  0  0
 33 63  1  0  0  0  0
 33 66  1  0  0  0  0
 34 69  1  0  0  0  0
 34 72  2  0  0  0  0
 35 67  1  0  0  0  0
 35 74  2  0  0  0  0
 36 51  1  0  0  0  0
 36 70  1  0  0  0  0
 36 75  2  0  0  0  0
 37 59  1  0  0  0  0
 37 64  1  0  0  0  0
 37 76  2  0  0  0  0
 38 58  1  0  0  0  0
 38 68  1  0  0  0  0
 38 77  2  0  0  0  0
 39 60  1  0  0  0  0
 39 71  1  0  0  0  0
 39 78  2  0  0  0  0
 40 65  1  0  0  0  0
 40 69  1  0  0  0  0
 40 79  2  0  0  0  0
 41 44  1  0  0  0  0
 42 51  1  0  0  0  0
 43 64  1  0  0  0  0
 44 46  1  0  0  0  0
 45 47  1  0  0  0  0
 45 48  1  0  0  0  0
 46 50  1  0  0  0  0
 47 52  1  0  0  0  0
 48 65  1  0  0  0  0
 49 52  1  0  0  0  0
 49 65  1  0  0  0  0
 50 70  1  0  0  0  0
 51 64  1  0  0  0  0
 52 63  1  0  0  0  0
 53 60  1  0  0  0  0
 54 61  1  0  0  0  0
 55 61  1  0  0  0  0
 56 61  1  0  0  0  0
 57 73  1  0  0  0  0
 58 81  1  0  0  0  0
 59 61  1  0  0  0  0
 59 71  1  0  0  0  0
 60 73  1  0  0  0  0
 62 63  1  0  0  0  0
M  CHG  2  72   1  73   1
M  ISO  4  40 100  58 101  69 100  81 101
M  END
> <Batch ID>
0091

> <Smiles>
CNC(C)C(=O)NC(C(=O)N1Cc2cc([101O:1][101CH2:1]C(=O)Nc3cccc(C(=N)[100NH:0][100C:0](=O)N4CCCC(n5nc(-c6ccc(Oc7ccc(F)cc7F)cc6)c(C(N)=O)c5N)C4)c3)ccc2CC1C(=O)NC1CCCc2ccccc21)C(C)(C)C

> <Shape>
0.308

> <Color>
0.086

> <Negative vol penalty>
0.000

$$$$

  -OEChem-04052300313D

 88 97  0     1  0  0  0  0  0999 V2000
  -28.8958  -30.5515   27.3126 C   0  0  0  0  0  0  0  0  0  0  0  0
  -28.6181  -29.6609   26.2806 C   0  0  0  0  0  0  0  0  0  0  0  0
  -23.0124  -10.0274   20.7576 C   0  0  0  0  0  0  0  0  0  0  0  0
  -24.6120   -8.7733   22.0636 C   0  0  0  0  0  0  0  0  0  0  0  0
  -27.8921  -31.3883   27.7987 C   0  0  0  0  0  0  0  0  0  0  0  0
  -27.3361  -29.6057   25.7348 C   0  0  0  0  0  0  0  0  0  0  0  0
  -27.3850  -29.4418   20.6736 C   0  0  0  0  0  0  0  0  0  0  0  0
  -26.9238  -20.4636   18.2894 C   0  0  0  0  0  0  0  0  0  0  0  0
  -26.7357  -19.0907   18.4483 C   0  0  0  0  0  0  0  0  0  0  0  0
  -22.1789   -8.9102   20.7057 C   0  0  0  0  0  0  0  0  0  0  0  0
  -23.7784   -7.6561   22.0118 C   0  0  0  0  0  0  0  0  0  0  0  0
  -27.6830  -28.2164   20.0791 C   0  0  0  0  0  0  0  0  0  0  0  0
  -20.9820   -6.5628   23.5626 C   0  0  0  0  0  0  0  0  0  0  0  0
  -20.7782   -5.8526   24.7457 C   0  0  0  0  0  0  0  0  0  0  0  0
  -25.3313  -27.8353   19.7001 C   0  0  0  0  0  0  0  0  0  0  0  0
  -28.8687  -24.3060   16.9123 C   0  0  0  0  0  0  0  0  0  0  0  0
  -29.0775  -18.7164   17.9871 C   0  0  0  0  0  0  0  0  0  0  0  0
  -21.7032   -3.8723   23.7162 C   0  0  0  0  0  0  0  0  0  0  0  0
  -24.2290   -9.9589   21.4365 C   0  0  0  0  0  0  0  0  0  0  0  0
  -25.0918  -12.1283   22.4646 C   0  0  0  0  0  0  0  0  0  0  0  0
  -26.5997  -31.3503   27.2520 C   0  0  0  0  0  0  0  0  0  0  0  0
  -26.0549  -29.8689   20.7958 C   0  0  0  0  0  0  0  0  0  0  0  0
  -26.3139  -30.4419   26.2149 C   0  0  0  0  0  0  0  0  0  0  0  0
  -25.0193  -29.0677   20.2942 C   0  0  0  0  0  0  0  0  0  0  0  0
  -28.4323  -24.5195   18.2432 C   0  0  0  0  0  0  0  0  0  0  0  0
  -28.1889  -20.9630   17.9793 C   0  0  0  0  0  0  0  0  0  0  0  0
  -27.8125  -18.2171   18.2972 C   0  0  0  0  0  0  0  0  0  0  0  0
  -22.5618   -7.7246   21.3328 C   0  0  0  0  0  0  0  0  0  0  0  0
  -26.6559  -27.4117   19.5948 C   0  0  0  0  0  0  0  0  0  0  0  0
  -21.5463   -5.9277   22.4562 C   0  0  0  0  0  0  0  0  0  0  0  0
  -21.1389   -4.5074   24.8225 C   0  0  0  0  0  0  0  0  0  0  0  0
  -29.2657  -20.0893   17.8281 C   0  0  0  0  0  0  0  0  0  0  0  0
  -21.9069   -4.5824   22.5331 C   0  0  0  0  0  0  0  0  0  0  0  0
  -25.0908  -11.1125   21.4900 C   0  0  0  0  0  0  0  0  0  0  0  0
  -26.0892  -12.9847   22.0668 C   0  0  0  0  0  0  0  0  0  0  0  0
  -28.8224  -22.9497   16.6769 C   0  0  0  0  0  0  0  0  0  0  0  0
  -28.1328  -23.2870   18.7805 C   0  0  0  0  0  0  0  0  0  0  0  0
  -24.2652  -12.2839   23.6257 C   0  0  0  0  0  0  0  0  0  0  0  0
  -24.1331  -30.5510   23.2341 C   0  0  0  0  0  0  0  0  0  0  0  0
  -22.1131  -31.4855   20.8743 C   0  0  0  0  0  0  0  0  0  0  0  0
  -21.1613  -31.2335   17.6067 C   0  0  0  0  0  0  0  0  0  0  0  0
  -28.4065  -15.8606   17.7593 C   0  0  0  0  0  0  0  0  0  0  0  0
  -25.5353  -32.2409   27.8423 C   0  0  0  0  0  0  0  0  0  0  0  0
  -25.7520  -31.2055   21.4156 C   0  0  0  0  0  0  0  0  0  0  0  0
  -23.5762  -29.4897   20.3828 C   0  0  0  0  0  0  0  0  0  0  0  0
  -24.3007  -32.3843   26.9560 C   0  0  0  0  0  0  0  0  0  0  0  0
  -29.6708  -12.4846   18.5431 C   0  0  0  0  0  0  0  0  0  0  0  0
  -23.8521  -31.0204   26.4408 C   0  0  0  0  0  0  0  0  0  0  0  0
  -28.5555  -11.8949   19.4048 C   0  0  0  0  0  0  0  0  0  0  0  0
  -29.1348  -13.5029   17.5412 C   0  0  0  0  0  0  0  0  0  0  0  0
  -27.2200  -14.0067   19.0278 C   0  0  0  0  0  0  0  0  0  0  0  0
  -24.9420  -30.3701   25.5801 C   0  0  1  0  0  0  0  0  0  0  0  0
  -24.3267  -31.3070   21.9501 C   0  0  1  0  0  0  0  0  0  0  0  0
  -27.7340  -13.0088   20.0766 C   0  0  1  0  0  0  0  0  0  0  0  0
  -25.3741  -15.9549   19.0551 C   0  0  0  0  0  0  0  0  0  0  0  0
  -19.4524  -32.0903   15.9810 C   0  0  0  0  0  0  0  0  0  0  0  0
  -20.0177  -29.6437   22.1100 C   0  0  0  0  0  0  0  0  0  0  0  0
  -18.7207  -29.8013   19.9743 C   0  0  0  0  0  0  0  0  0  0  0  0
  -19.1375  -31.8517   21.3326 C   0  0  0  0  0  0  0  0  0  0  0  0
  -23.2392  -32.4467   15.8834 C   0  0  0  0  0  0  0  0  0  0  0  0
  -28.3202  -25.8461   18.9352 C   0  0  0  0  0  0  0  0  0  1  0  0
  -26.7548  -16.3307   19.5539 C   0  0  0  0  0  0  0  0  0  0  0  0
  -21.0477  -30.8065   20.0478 C   0  0  1  0  0  0  0  0  0  0  0  0
  -20.8416  -32.2916   16.5662 C   0  0  2  0  0  0  0  0  0  0  0  0
  -19.7578  -30.5167   20.8661 C   0  0  0  0  0  0  0  0  0  0  0  0
  -26.0141  -11.3043   20.5442 N   0  0  0  0  0  0  0  0  0  0  0  0
  -28.3740  -22.3402   17.8195 N   0  0  0  0  0  0  0  0  0  0  0  0
  -26.6047  -12.4507   20.9225 N   0  0  0  0  0  0  0  0  0  0  0  0
  -23.3306  -30.8022   21.0030 N   0  0  0  0  0  0  0  0  0  0  0  0
  -28.3200  -14.5246   18.1998 N   0  0  0  0  0  0  0  0  0  0  0  0
  -26.5669  -14.1349   22.5876 N   0  0  0  0  0  0  0  0  0  0  0  0
  -23.2894  -11.3121   23.8862 N   0  0  0  0  0  0  0  0  0  0  0  0
  -24.9633  -30.9617   24.2595 N   0  0  0  0  0  0  0  0  0  0  0  0
  -20.8362  -31.6537   18.8790 N   0  0  0  0  0  0  0  0  0  0  0  0
  -27.6174  -16.7961   18.4630 N   0  0  0  0  0  0  0  0  0  0  0  0
  -21.8321  -32.2403   15.4539 N   0  3  0  0  0  0  0  0  0  0  0  0
  -24.3772  -13.2645   24.3999 O   0  0  0  0  0  0  0  0  0  0  0  0
  -23.2917  -29.6619   23.2907 O   0  0  0  0  0  0  0  0  0  0  0  0
  -21.8763  -32.5849   21.3810 O   0  0  0  0  0  0  0  0  0  0  0  0
  -21.6472  -30.1418   17.3190 O   0  0  0  0  0  0  0  0  0  0  0  0
  -29.1523  -16.1945   16.8309 O   0  0  0  0  0  0  0  0  0  0  0  0
  -29.1305  -22.2539   15.5889 O   0  0  0  0  0  0  0  0  0  0  0  0
  -27.6899  -22.9545   19.9878 O   0  0  0  0  0  0  0  0  0  0  0  0
  -21.7486   -6.6343   21.2826 O   0  0  0  0  0  0  0  0  0  0  0  0
  -26.9439  -26.2149   19.0147 O   0  0  0  0  0  0  0  0  0  1  0  0
  -20.9446   -3.8260   25.9592 F   0  0  0  0  0  0  0  0  0  0  0  0
  -30.4868  -20.5552   17.5278 F   0  0  0  0  0  0  0  0  0  0  0  0
  -22.4506   -3.9672   21.4739 F   0  0  0  0  0  0  0  0  0  0  0  0
  1  2  1  0  0  0  0
  1  5  2  0  0  0  0
  2  6  2  0  0  0  0
  3 10  2  0  0  0  0
  3 19  1  0  0  0  0
  4 11  1  0  0  0  0
  4 19  2  0  0  0  0
  5 21  1  0  0  0  0
  6 23  1  0  0  0  0
  7 12  2  0  0  0  0
  7 22  1  0  0  0  0
  8  9  2  0  0  0  0
  8 26  1  0  0  0  0
  9 27  1  0  0  0  0
 10 28  1  0  0  0  0
 11 28  2  0  0  0  0
 12 29  1  0  0  0  0
 13 14  2  0  0  0  0
 13 30  1  0  0  0  0
 14 31  1  0  0  0  0
 15 24  1  0  0  0  0
 15 29  2  0  0  0  0
 16 25  1  0  0  0  0
 16 36  2  0  0  0  0
 17 27  2  0  0  0  0
 17 32  1  0  0  0  0
 18 31  2  0  0  0  0
 18 33  1  0  0  0  0
 19 34  1  0  0  0  0
 20 34  1  0  0  0  0
 20 35  2  0  0  0  0
 20 38  1  0  0  0  0
 21 23  2  0  0  0  0
 21 43  1  0  0  0  0
 22 24  2  0  0  0  0
 22 44  1  0  0  0  0
 23 52  1  0  0  0  0
 24 45  1  0  0  0  0
 25 37  2  0  0  0  0
 25 61  1  0  0  0  0
 26 32  2  0  0  0  0
 26 67  1  0  0  0  0
 27 75  1  0  0  0  0
 28 84  1  0  0  0  0
 29 85  1  0  0  0  0
 30 33  2  0  0  0  0
 30 84  1  0  0  0  0
 31 86  1  0  0  0  0
 32 87  1  0  0  0  0
 33 88  1  0  0  0  0
 34 66  2  0  0  0  0
 35 68  1  0  0  0  0
 35 71  1  0  0  0  0
 36 67  1  0  0  0  0
 36 82  1  0  0  0  0
 37 67  1  0  0  0  0
 37 83  1  0  0  0  0
 38 72  1  0  0  0  0
 38 77  2  0  0  0  0
 39 53  1  0  0  0  0
 39 73  1  0  0  0  0
 39 78  2  0  0  0  0
 40 63  1  0  0  0  0
 40 69  1  0  0  0  0
 40 79  2  0  0  0  0
 41 64  1  0  0  0  0
 41 74  1  0  0  0  0
 41 80  2  0  0  0  0
 42 70  1  0  0  0  0
 42 75  1  0  0  0  0
 42 81  2  0  0  0  0
 43 46  1  0  0  0  0
 44 53  1  0  0  0  0
 45 69  1  0  0  0  0
 46 48  1  0  0  0  0
 47 49  1  0  0  0  0
 47 50  1  0  0  0  0
 48 52  1  0  0  0  0
 49 54  1  0  0  0  0
 50 70  1  0  0  0  0
 51 54  1  0  0  0  0
 51 70  1  0  0  0  0
 52 73  1  0  0  0  0
 53 69  1  0  0  0  0
 54 68  1  0  0  0  0
 55 62  1  0  0  0  0
 56 64  1  0  0  0  0
 57 65  1  0  0  0  0
 58 65  1  0  0  0  0
 59 65  1  0  0  0  0
 60 76  1  0  0  0  0
 61 85  1  0  0  0  0
 62 75  1  0  0  0  0
 63 65  1  0  0  0  0
 63 74  1  0  0  0  0
 64 76  1  0  0  0  0
 66 68  1  0  0  0  0
M  CHG  1  76   1
M  ISO  4  42 100  61 101  75 100  85 101
M  END
> <Batch ID>
0091

> <Smiles>
CC[100N:0](c1ccc(N2C(=O)CC([101CH2:1][101O:1]c3ccc4c(c3)CN(C(=O)C(NC(=O)C(C)NC)C(C)(C)C)C(C(=O)NC3CCCc5ccccc53)C4)C2=O)c(F)c1)[100C:0](=O)N1CCCC(n2nc(-c3ccc(Oc4ccc(F)cc4F)cc3)c(C(N)=O)c2N)C1

> <Shape>
0.301

> <Color>
0.123

> <Negative vol penalty>
0.000

$$$$

  -OEChem-04052300313D

 86 95  0     1  0  0  0  0  0999 V2000
  -28.1845  -36.6484   17.5545 C   0  0  0  0  0  0  0  0  0  0  0  0
  -28.2289  -35.2699   17.3721 C   0  0  0  0  0  0  0  0  0  0  0  0
  -23.9737   -9.7609   22.2868 C   0  0  0  0  0  0  0  0  0  0  0  0
  -24.4800  -11.4260   23.9625 C   0  0  0  0  0  0  0  0  0  0  0  0
  -28.0688  -37.1770   18.8394 C   0  0  0  0  0  0  0  0  0  0  0  0
  -28.1587  -34.4193   18.4748 C   0  0  0  0  0  0  0  0  0  0  0  0
  -25.4760  -28.9192   18.7164 C   0  0  0  0  0  0  0  0  0  0  0  0
  -23.5333   -8.8910   23.2842 C   0  0  0  0  0  0  0  0  0  0  0  0
  -24.0395  -10.5561   24.9600 C   0  0  0  0  0  0  0  0  0  0  0  0
  -25.9818  -27.6237   18.6180 C   0  0  0  0  0  0  0  0  0  0  0  0
  -20.7658   -8.4732   25.1813 C   0  0  0  0  0  0  0  0  0  0  0  0
  -19.5689   -7.7908   24.9641 C   0  0  0  0  0  0  0  0  0  0  0  0
  -26.0733  -27.4831   21.0244 C   0  0  0  0  0  0  0  0  0  0  0  0
  -29.8004  -20.9144   19.2874 C   0  0  0  0  0  0  0  0  0  0  0  0
  -30.6123  -18.6447   19.1248 C   0  0  0  0  0  0  0  0  0  0  0  0
  -20.7382   -5.6839   25.1405 C   0  0  0  0  0  0  0  0  0  0  0  0
  -24.4471  -11.0284   22.6259 C   0  0  0  0  0  0  0  0  0  0  0  0
  -24.1332  -12.8716   20.8905 C   0  0  0  0  0  0  0  0  0  0  0  0
  -27.9874  -36.3322   19.9576 C   0  0  0  0  0  0  0  0  0  0  0  0
  -25.2750  -29.5114   19.9715 C   0  0  0  0  0  0  0  0  0  0  0  0
  -28.0431  -34.9371   19.7760 C   0  0  0  0  0  0  0  0  0  0  0  0
  -25.5624  -28.7853   21.1361 C   0  0  0  0  0  0  0  0  0  0  0  0
  -28.4878  -20.4432   19.3099 C   0  0  0  0  0  0  0  0  0  0  0  0
  -30.8627  -20.0151   19.1948 C   0  0  0  0  0  0  0  0  0  0  0  0
  -29.2996  -18.1735   19.1474 C   0  0  0  0  0  0  0  0  0  0  0  0
  -23.5662   -9.2886   24.6208 C   0  0  0  0  0  0  0  0  0  0  0  0
  -26.2833  -26.9065   19.7720 C   0  0  0  0  0  0  0  0  0  0  0  0
  -21.9489   -7.7611   25.3780 C   0  0  0  0  0  0  0  0  0  0  0  0
  -19.5550   -6.3961   24.9437 C   0  0  0  0  0  0  0  0  0  0  0  0
  -21.9351   -6.3664   25.3577 C   0  0  0  0  0  0  0  0  0  0  0  0
  -28.2374  -19.0728   19.2399 C   0  0  0  0  0  0  0  0  0  0  0  0
  -24.9027  -11.9273   21.5961 C   0  0  0  0  0  0  0  0  0  0  0  0
  -25.0238  -13.4670   20.0310 C   0  0  0  0  0  0  0  0  0  0  0  0
  -26.2612  -23.3270   19.5652 C   0  0  0  0  0  0  0  0  0  0  0  0
  -25.3058  -22.1962   19.5380 C   0  0  0  0  0  0  0  0  0  0  0  0
  -25.8892  -24.6040   19.6543 C   0  0  0  0  0  0  0  0  0  1  0  0
  -22.7380  -13.1828   21.0021 C   0  0  0  0  0  0  0  0  0  0  0  0
  -26.4476  -32.0622   21.4620 C   0  0  0  0  0  0  0  0  0  0  0  0
  -24.2286  -31.2915   23.6989 C   0  0  0  0  0  0  0  0  0  0  0  0
  -22.2569  -28.8948   25.1185 C   0  0  0  0  0  0  0  0  0  0  0  0
  -29.9891  -15.7564   18.9783 C   0  0  0  0  0  0  0  0  0  0  0  0
  -27.9106  -36.9510   21.3308 C   0  0  0  0  0  0  0  0  0  0  0  0
  -24.7035  -30.8998   20.0610 C   0  0  0  0  0  0  0  0  0  0  0  0
  -25.3455  -29.3682   22.5078 C   0  0  0  0  0  0  0  0  0  0  0  0
  -27.6449  -22.7728   19.4773 C   0  0  0  0  0  0  0  0  0  0  0  0
  -26.0555  -20.8996   19.4333 C   0  0  0  0  0  0  0  0  0  0  0  0
  -27.4647  -35.9736   22.4153 C   0  0  0  0  0  0  0  0  0  0  0  0
  -29.7728  -12.2062   18.8148 C   0  0  0  0  0  0  0  0  0  0  0  0
  -28.2251  -34.6569   22.2927 C   0  0  0  0  0  0  0  0  0  0  0  0
  -28.4232  -11.8949   19.4658 C   0  0  0  0  0  0  0  0  0  0  0  0
  -30.4765  -13.3762   19.5001 C   0  0  0  0  0  0  0  0  0  0  0  0
  -28.3225  -14.2872   20.2743 C   0  0  0  0  0  0  0  0  0  0  0  0
  -27.9447  -33.9812   20.9450 C   0  0  1  0  0  0  0  0  0  0  0  0
  -25.0224  -31.5932   21.3820 C   0  0  1  0  0  0  0  0  0  0  0  0
  -27.5466  -13.1577   19.5772 C   0  0  2  0  0  0  0  0  0  0  0  0
  -20.5781  -28.5574   26.9529 C   0  0  0  0  0  0  0  0  0  0  0  0
  -26.4784  -31.3204   25.7599 C   0  0  0  0  0  0  0  0  0  0  0  0
  -24.9677  -30.0790   27.3236 C   0  0  0  0  0  0  0  0  0  0  0  0
  -24.3404  -32.3609   26.5348 C   0  0  0  0  0  0  0  0  0  0  0  0
  -20.1490  -28.0962   23.2007 C   0  0  0  0  0  0  0  0  0  0  0  0
  -24.2088  -30.4140   24.9272 C   0  0  1  0  0  0  0  0  0  0  0  0
  -20.7833  -28.8886   25.4829 C   0  0  2  0  0  0  0  0  0  0  0  0
  -25.0049  -31.0330   26.1107 C   0  0  0  0  0  0  0  0  0  0  0  0
  -26.1836  -11.9196   21.2175 N   0  0  0  0  0  0  0  0  0  0  0  0
  -26.2258  -12.8663   20.2647 N   0  0  0  0  0  0  0  0  0  0  0  0
  -27.4554  -21.3212   19.4002 N   0  0  3  0  0  0  0  0  0  0  0  0
  -24.7907  -30.7315   22.5430 N   0  0  0  0  0  0  0  0  0  0  0  0
  -29.5873  -14.5381   19.5658 N   0  0  0  0  0  0  0  0  0  0  0  0
  -32.1901  -20.4916   19.1709 N   0  0  0  0  0  0  0  0  0  0  0  0
  -24.8882  -14.4405   19.1056 N   0  0  0  0  0  0  0  0  0  0  0  0
  -21.9684  -12.4759   21.9360 N   0  0  0  0  0  0  0  0  0  0  0  0
  -29.0480  -16.7810   19.0748 N   0  0  0  0  0  0  0  0  0  0  0  0
  -26.6498  -33.3350   20.9634 N   0  0  0  0  0  0  0  0  0  0  0  0
  -22.8034  -30.1565   25.2222 N   0  0  0  0  0  0  0  0  0  0  0  0
  -20.0521  -27.8783   24.6670 N   0  3  0  0  0  0  0  0  0  0  0  0
  -24.0908  -22.3003   19.5931 O   0  0  0  0  0  0  0  0  0  0  0  0
  -22.1867  -14.0503   20.2831 O   0  0  0  0  0  0  0  0  0  0  0  0
  -27.3004  -31.3246   21.9419 O   0  0  0  0  0  0  0  0  0  0  0  0
  -23.7561  -32.4292   23.7609 O   0  0  0  0  0  0  0  0  0  0  0  0
  -22.8635  -27.8810   24.7796 O   0  0  0  0  0  0  0  0  0  0  0  0
  -31.0757  -15.8738   18.4062 O   0  0  0  0  0  0  0  0  0  0  0  0
  -23.1363   -8.4401   25.5943 O   0  0  0  0  0  0  0  0  0  0  0  0
  -26.7777  -25.6421   19.6788 O   0  0  0  0  0  0  0  0  0  1  0  0
  -18.4053   -5.7408   24.7367 F   0  0  0  0  0  0  0  0  0  0  0  0
  -23.0684   -5.6768   25.5472 F   0  0  0  0  0  0  0  0  0  0  0  0
  -26.9743  -18.6203   19.2615 F   0  0  0  0  0  0  0  0  0  0  0  0
  1  2  1  0  0  0  0
  1  5  2  0  0  0  0
  2  6  2  0  0  0  0
  3  8  2  0  0  0  0
  3 17  1  0  0  0  0
  4  9  1  0  0  0  0
  4 17  2  0  0  0  0
  5 19  1  0  0  0  0
  6 21  1  0  0  0  0
  7 10  2  0  0  0  0
  7 20  1  0  0  0  0
  8 26  1  0  0  0  0
  9 26  2  0  0  0  0
 10 27  1  0  0  0  0
 11 12  2  0  0  0  0
 11 28  1  0  0  0  0
 12 29  1  0  0  0  0
 13 22  1  0  0  0  0
 13 27  2  0  0  0  0
 14 23  1  0  0  0  0
 14 24  2  0  0  0  0
 15 24  1  0  0  0  0
 15 25  2  0  0  0  0
 16 29  2  0  0  0  0
 16 30  1  0  0  0  0
 17 32  1  0  0  0  0
 18 32  1  0  0  0  0
 18 33  2  0  0  0  0
 18 37  1  0  0  0  0
 19 21  2  0  0  0  0
 19 42  1  0  0  0  0
 20 22  2  0  0  0  0
 20 43  1  0  0  0  0
 21 53  1  0  0  0  0
 22 44  1  0  0  0  0
 23 31  2  0  0  0  0
 23 66  1  0  0  0  0
 24 69  1  0  0  0  0
 25 31  1  0  0  0  0
 25 72  1  0  0  0  0
 26 82  1  0  0  0  0
 27 83  1  0  0  0  0
 28 30  2  0  0  0  0
 28 82  1  0  0  0  0
 29 84  1  0  0  0  0
 30 85  1  0  0  0  0
 31 86  1  0  0  0  0
 32 64  2  0  0  0  0
 33 65  1  0  0  0  0
 33 70  1  0  0  0  0
 34 35  1  0  0  0  0
 34 36  2  0  0  0  0
 34 45  1  0  0  0  0
 35 46  1  0  0  0  0
 35 76  2  0  0  0  0
 36 83  1  0  0  0  0
 37 71  1  0  0  0  0
 37 77  2  0  0  0  0
 38 54  1  0  0  0  0
 38 73  1  0  0  0  0
 38 78  2  0  0  0  0
 39 61  1  0  0  0  0
 39 67  1  0  0  0  0
 39 79  2  0  0  0  0
 40 62  1  0  0  0  0
 40 74  1  0  0  0  0
 40 80  2  0  0  0  0
 41 68  1  0  0  0  0
 41 72  1  0  0  0  0
 41 81  2  0  0  0  0
 42 47  1  0  0  0  0
 43 54  1  0  0  0  0
 44 67  1  0  0  0  0
 45 66  1  0  0  0  0
 46 66  1  0  0  0  0
 47 49  1  0  0  0  0
 48 50  1  0  0  0  0
 48 51  1  0  0  0  0
 49 53  1  0  0  0  0
 50 55  1  0  0  0  0
 51 68  1  0  0  0  0
 52 55  1  0  0  0  0
 52 68  1  0  0  0  0
 53 73  1  0  0  0  0
 54 67  1  0  0  0  0
 55 65  1  0  0  0  0
 56 62  1  0  0  0  0
 57 63  1  0  0  0  0
 58 63  1  0  0  0  0
 59 63  1  0  0  0  0
 60 75  1  0  0  0  0
 61 63  1  0  0  0  0
 61 74  1  0  0  0  0
 62 75  1  0  0  0  0
 64 65  1  0  0  0  0
M  CHG  1  75   1
M  ISO  4  36 101  41 100  72 100  83 101
M  END
> <Batch ID>
0091

> <Smiles>
CNC(C)C(=O)NC(C(=O)N1Cc2cc([101O:1][101CH:1]=C3CN(c4cc(N)cc([100NH:0][100C:0](=O)N5CCCC(n6nc(-c7ccc(Oc8ccc(F)cc8F)cc7)c(C(N)=O)c6N)C5)c4F)CC3=O)ccc2CC1C(=O)NC1CCCc2ccccc21)C(C)(C)C

> <Shape>
0.264

> <Color>
0.131

> <Negative vol penalty>
0.000

$$$$

  -OEChem-04052300313D

 87 96  0     1  0  0  0  0  0999 V2000
  -29.9481  -35.8013   22.2780 C   0  0  0  0  0  0  0  0  0  0  0  0
  -29.9662  -34.7550   21.3614 C   0  0  0  0  0  0  0  0  0  0  0  0
  -23.0243   -9.9232   20.0392 C   0  0  0  0  0  0  0  0  0  0  0  0
  -23.7168  -10.0953   22.3474 C   0  0  0  0  0  0  0  0  0  0  0  0
  -29.2580  -17.0052   19.6493 C   0  0  0  0  0  0  0  0  0  0  0  0
  -29.4668  -35.5874   23.5689 C   0  0  0  0  0  0  0  0  0  0  0  0
  -29.5039  -33.4938   21.7355 C   0  0  0  0  0  0  0  0  0  0  0  0
  -26.1795  -27.7439   19.0516 C   0  0  0  0  0  0  0  0  0  0  0  0
  -28.5706  -18.0809   19.0874 C   0  0  0  0  0  0  0  0  0  0  0  0
  -22.2685   -8.7929   20.3502 C   0  0  0  0  0  0  0  0  0  0  0  0
  -22.9609   -8.9650   22.6584 C   0  0  0  0  0  0  0  0  0  0  0  0
  -26.3248  -26.3602   18.9611 C   0  0  0  0  0  0  0  0  0  0  0  0
  -23.2538   -5.6106   22.3526 C   0  0  0  0  0  0  0  0  0  0  0  0
  -23.8436   -4.6389   23.1610 C   0  0  0  0  0  0  0  0  0  0  0  0
  -25.4422  -26.1276   21.1940 C   0  0  0  0  0  0  0  0  0  0  0  0
  -25.7977  -21.2794   18.1787 C   0  0  0  0  0  0  0  0  0  0  0  0
  -28.0568  -18.9077   21.2986 C   0  0  0  0  0  0  0  0  0  0  0  0
  -22.0937   -4.9399   24.7995 C   0  0  0  0  0  0  0  0  0  0  0  0
  -23.7485  -10.5744   21.0378 C   0  0  0  0  0  0  0  0  0  0  0  0
  -29.3448  -16.8806   21.0359 C   0  0  0  0  0  0  0  0  0  0  0  0
  -24.1046  -13.0834   20.7448 C   0  0  0  0  0  0  0  0  0  0  0  0
  -28.9893  -34.3254   23.9561 C   0  0  0  0  0  0  0  0  0  0  0  0
  -25.6737  -28.3315   20.2200 C   0  0  0  0  0  0  0  0  0  0  0  0
  -29.0169  -33.2624   23.0332 C   0  0  0  0  0  0  0  0  0  0  0  0
  -25.2890  -27.5187   21.2959 C   0  0  0  0  0  0  0  0  0  0  0  0
  -26.6809  -22.1826   18.8201 C   0  0  0  0  0  0  0  0  0  0  0  0
  -27.9701  -19.0322   19.9120 C   0  0  0  0  0  0  0  0  0  0  0  0
  -22.2368   -8.3138   21.6598 C   0  0  0  0  0  0  0  0  0  0  0  0
  -25.9588  -25.5521   20.0335 C   0  0  0  0  0  0  0  0  0  0  0  0
  -22.0840   -6.2471   22.7677 C   0  0  0  0  0  0  0  0  0  0  0  0
  -23.2636   -4.3035   24.3844 C   0  0  0  0  0  0  0  0  0  0  0  0
  -28.7442  -17.8319   21.8606 C   0  0  0  0  0  0  0  0  0  0  0  0
  -21.5040   -5.9116   23.9911 C   0  0  0  0  0  0  0  0  0  0  0  0
  -24.5299  -11.7417   20.7170 C   0  0  0  0  0  0  0  0  0  0  0  0
  -27.5873  -21.4326   19.5365 C   0  0  0  0  0  0  0  0  0  0  0  0
  -25.2101  -13.8021   20.3605 C   0  0  0  0  0  0  0  0  0  0  0  0
  -26.1912  -20.0050   18.5229 C   0  0  0  0  0  0  0  0  0  0  0  0
  -30.0625  -15.7581   21.6189 C   0  0  0  0  0  0  0  0  0  0  0  0
  -22.8246  -13.6310   21.0875 C   0  0  0  0  0  0  0  0  0  0  0  0
  -30.7108  -14.7326   20.7696 C   0  0  0  0  0  0  0  0  0  0  0  0
  -26.8071  -30.3752   22.3747 C   0  0  0  0  0  0  0  0  0  0  0  0
  -23.7800  -30.2304   23.5315 C   0  0  0  0  0  0  0  0  0  0  0  0
  -20.8597  -28.4842   23.7953 C   0  0  0  0  0  0  0  0  0  0  0  0
  -28.5226  -34.1304   25.3769 C   0  0  0  0  0  0  0  0  0  0  0  0
  -25.4982  -29.8237   20.2918 C   0  0  0  0  0  0  0  0  0  0  0  0
  -24.7220  -28.0987   22.5649 C   0  0  0  0  0  0  0  0  0  0  0  0
  -27.7024  -32.8589   25.5796 C   0  0  0  0  0  0  0  0  0  0  0  0
  -29.6055  -12.2967   18.3818 C   0  0  0  0  0  0  0  0  0  0  0  0
  -28.3841  -31.6712   24.9076 C   0  0  0  0  0  0  0  0  0  0  0  0
  -28.1635  -12.0173   18.8041 C   0  0  0  0  0  0  0  0  0  0  0  0
  -30.4950  -12.5820   19.5875 C   0  0  0  0  0  0  0  0  0  0  0  0
  -28.5516  -13.4185   20.8806 C   0  0  0  0  0  0  0  0  0  0  0  0
  -28.5009  -31.8863   23.3938 C   0  0  1  0  0  0  0  0  0  0  0  0
  -25.4538  -30.3519   21.7223 C   0  0  1  0  0  0  0  0  0  0  0  0
  -27.6170  -13.1530   19.6874 C   0  0  2  0  0  0  0  0  0  0  0  0
  -28.7186  -21.8741   20.3830 C   0  0  0  0  0  0  0  0  0  0  0  0
  -18.5794  -28.6050   24.8360 C   0  0  0  0  0  0  0  0  0  0  0  0
  -24.9846  -29.5304   26.2462 C   0  0  0  0  0  0  0  0  0  0  0  0
  -22.7200  -28.7465   26.9709 C   0  0  0  0  0  0  0  0  0  0  0  0
  -23.0677  -31.1341   26.3376 C   0  0  0  0  0  0  0  0  0  0  0  0
  -19.5236  -28.4030   21.1558 C   0  0  0  0  0  0  0  0  0  0  0  0
  -26.6301  -23.6795   18.7301 C   0  0  0  0  0  0  0  0  0  1  0  0
  -23.0592  -29.3621   24.5343 C   0  0  1  0  0  0  0  0  0  0  0  0
  -19.4140  -28.9040   23.6003 C   0  0  2  0  0  0  0  0  0  0  0  0
  -23.4703  -29.6822   25.9992 C   0  0  0  0  0  0  0  0  0  0  0  0
  -25.8061  -11.6130   20.3443 N   0  0  0  0  0  0  0  0  0  0  0  0
  -30.1868  -15.5775   22.9061 N   0  0  0  0  0  0  0  0  0  0  0  0
  -27.2797  -20.1104   19.3488 N   0  0  0  0  0  0  0  0  0  0  0  0
  -26.1921  -12.8830   20.1343 N   0  0  0  0  0  0  0  0  0  0  0  0
  -29.9293  -13.6392   20.4233 N   0  0  0  0  0  0  0  0  0  0  0  0
  -24.5755  -29.5635   22.5890 N   0  0  0  0  0  0  0  0  0  0  0  0
  -25.4282  -15.1243   20.1972 N   0  0  0  0  0  0  0  0  0  0  0  0
  -21.7993  -12.7510   21.4599 N   0  0  0  0  0  0  0  0  0  0  0  0
  -27.2299  -31.6366   22.7482 N   0  0  0  0  0  0  0  0  0  0  0  0
  -21.6345  -29.5237   24.2646 N   0  0  0  0  0  0  0  0  0  0  0  0
  -18.8160  -28.1802   22.4429 N   0  3  0  0  0  0  0  0  0  0  0  0
  -22.5920  -14.8631   21.0484 O   0  0  0  0  0  0  0  0  0  0  0  0
  -31.8736  -14.9604   20.4626 O   0  0  0  0  0  0  0  0  0  0  0  0
  -27.4215  -29.3263   22.5291 O   0  0  0  0  0  0  0  0  0  0  0  0
  -23.6368  -31.4547   23.5782 O   0  0  0  0  0  0  0  0  0  0  0  0
  -21.2608  -27.3468   23.5587 O   0  0  0  0  0  0  0  0  0  0  0  0
  -25.6866  -18.8259   18.1796 O   0  0  0  0  0  0  0  0  0  0  0  0
  -21.4992   -7.2110   21.9636 O   0  0  0  0  0  0  0  0  0  0  0  0
  -26.1002  -24.2013   19.9480 O   0  0  0  0  0  0  0  0  0  1  0  0
  -23.8292   -3.3692   25.1598 F   0  0  0  0  0  0  0  0  0  0  0  0
  -28.8218  -17.7219   23.1944 F   0  0  0  0  0  0  0  0  0  0  0  0
  -20.3795   -6.5187   24.3946 F   0  0  0  0  0  0  0  0  0  0  0  0
  1  2  1  0  0  0  0
  1  6  2  0  0  0  0
  2  7  2  0  0  0  0
  3 10  2  0  0  0  0
  3 19  1  0  0  0  0
  4 11  1  0  0  0  0
  4 19  2  0  0  0  0
  5  9  2  0  0  0  0
  5 20  1  0  0  0  0
  6 22  1  0  0  0  0
  7 24  1  0  0  0  0
  8 12  2  0  0  0  0
  8 23  1  0  0  0  0
  9 27  1  0  0  0  0
 10 28  1  0  0  0  0
 11 28  2  0  0  0  0
 12 29  1  0  0  0  0
 13 14  2  0  0  0  0
 13 30  1  0  0  0  0
 14 31  1  0  0  0  0
 15 25  1  0  0  0  0
 15 29  2  0  0  0  0
 16 26  1  0  0  0  0
 16 37  2  0  0  0  0
 17 27  2  0  0  0  0
 17 32  1  0  0  0  0
 18 31  2  0  0  0  0
 18 33  1  0  0  0  0
 19 34  1  0  0  0  0
 20 32  2  0  0  0  0
 20 38  1  0  0  0  0
 21 34  1  0  0  0  0
 21 36  2  0  0  0  0
 21 39  1  0  0  0  0
 22 24  2  0  0  0  0
 22 44  1  0  0  0  0
 23 25  2  0  0  0  0
 23 45  1  0  0  0  0
 24 53  1  0  0  0  0
 25 46  1  0  0  0  0
 26 35  2  0  0  0  0
 26 62  1  0  0  0  0
 27 68  1  0  0  0  0
 28 83  1  0  0  0  0
 29 84  1  0  0  0  0
 30 33  2  0  0  0  0
 30 83  1  0  0  0  0
 31 85  1  0  0  0  0
 32 86  1  0  0  0  0
 33 87  1  0  0  0  0
 34 66  2  0  0  0  0
 35 56  1  0  0  0  0
 35 68  1  0  0  0  0
 36 69  1  0  0  0  0
 36 72  1  0  0  0  0
 37 68  1  0  0  0  0
 37 82  1  0  0  0  0
 38 40  1  0  0  0  0
 38 67  2  0  0  0  0
 39 73  1  0  0  0  0
 39 77  2  0  0  0  0
 40 70  1  0  0  0  0
 40 78  2  0  0  0  0
 41 54  1  0  0  0  0
 41 74  1  0  0  0  0
 41 79  2  0  0  0  0
 42 63  1  0  0  0  0
 42 71  1  0  0  0  0
 42 80  2  0  0  0  0
 43 64  1  0  0  0  0
 43 75  1  0  0  0  0
 43 81  2  0  0  0  0
 44 47  1  0  0  0  0
 45 54  1  0  0  0  0
 46 71  1  0  0  0  0
 47 49  1  0  0  0  0
 48 50  1  0  0  0  0
 48 51  1  0  0  0  0
 49 53  1  0  0  0  0
 50 55  1  0  0  0  0
 51 70  1  0  0  0  0
 52 55  1  0  0  0  0
 52 70  1  0  0  0  0
 53 74  1  0  0  0  0
 54 71  1  0  0  0  0
 55 69  1  0  0  0  0
 57 64  1  0  0  0  0
 58 65  1  0  0  0  0
 59 65  1  0  0  0  0
 60 65  1  0  0  0  0
 61 76  1  0  0  0  0
 62 84  1  0  0  0  0
 63 65  1  0  0  0  0
 63 75  1  0  0  0  0
 64 76  1  0  0  0  0
 66 69  1  0  0  0  0
M  CHG  1  76   1
M  ISO  4  38 100  40 100  62 101  84 101
M  END
> <Batch ID>
0091

> <Smiles>
CNC(C)C(=O)NC(C(=O)N1Cc2cc([101O:1][101CH2:1]C3=C(C)N(c4ccc([100C:0](=N)[100C:0](=O)N5CCCC(n6nc(-c7ccc(Oc8ccc(F)cc8F)cc7)c(C(N)=O)c6N)C5)c(F)c4)C(=O)C3)ccc2CC1C(=O)NC1CCCc2ccccc21)C(C)(C)C

> <Shape>
0.362

> <Color>
0.207

> <Negative vol penalty>
0.000

$$$$

  -OEChem-04052300313D

 85 94  0     1  0  0  0  0  0999 V2000
  -21.7553  -12.5812   19.1339 C   0  0  0  0  0  0  0  0  0  0  0  0
  -21.6771  -13.8389   19.7233 C   0  0  0  0  0  0  0  0  0  0  0  0
  -27.8848  -25.3223   16.7064 C   0  0  0  0  0  0  0  0  0  0  0  0
  -26.3353  -26.8525   15.6601 C   0  0  0  0  0  0  0  0  0  0  0  0
  -22.9416  -11.8521   19.2044 C   0  0  0  0  0  0  0  0  0  0  0  0
  -22.7850  -14.3678   20.3846 C   0  0  0  0  0  0  0  0  0  0  0  0
  -23.6094  -19.2255   19.2147 C   0  0  0  0  0  0  0  0  0  0  0  0
  -28.5074  -25.1115   15.4762 C   0  0  0  0  0  0  0  0  0  0  0  0
  -26.9580  -26.6418   14.4298 C   0  0  0  0  0  0  0  0  0  0  0  0
  -22.7967  -20.1757   19.8314 C   0  0  0  0  0  0  0  0  0  0  0  0
  -27.9341  -23.3171   12.6698 C   0  0  0  0  0  0  0  0  0  0  0  0
  -28.2373  -22.0028   12.3144 C   0  0  0  0  0  0  0  0  0  0  0  0
  -20.2467  -26.9243   22.5730 C   0  0  0  0  0  0  0  0  0  0  0  0
  -24.5551  -20.6428   21.4153 C   0  0  0  0  0  0  0  0  0  0  0  0
  -30.5804  -22.5778   12.1869 C   0  0  0  0  0  0  0  0  0  0  0  0
  -26.7987  -26.1927   16.7984 C   0  0  0  0  0  0  0  0  0  0  0  0
  -19.7911  -28.1886   23.0466 C   0  0  0  0  0  0  0  0  0  0  0  0
  -25.5280  -25.4459   18.8805 C   0  0  0  0  0  0  0  0  0  0  0  0
  -24.0676  -12.3764   19.8585 C   0  0  0  0  0  0  0  0  0  0  0  0
  -24.8992  -18.9686   19.7012 C   0  0  0  0  0  0  0  0  0  0  0  0
  -23.9871  -13.6445   20.4651 C   0  0  0  0  0  0  0  0  0  0  0  0
  -25.3832  -19.6907   20.8014 C   0  0  0  0  0  0  0  0  0  0  0  0
  -28.0441  -25.7713   14.3379 C   0  0  0  0  0  0  0  0  0  0  0  0
  -23.2684  -20.8825   20.9337 C   0  0  0  0  0  0  0  0  0  0  0  0
  -28.9541  -24.2618   12.7837 C   0  0  0  0  0  0  0  0  0  0  0  0
  -29.5604  -21.6332   12.0730 C   0  0  0  0  0  0  0  0  0  0  0  0
  -30.2772  -23.8921   12.5422 C   0  0  0  0  0  0  0  0  0  0  0  0
  -26.1547  -26.4104   18.0688 C   0  0  0  0  0  0  0  0  0  0  0  0
  -25.0781  -26.1530   19.9687 C   0  0  0  0  0  0  0  0  0  0  0  0
  -19.2365  -25.9883   22.5430 C   0  0  0  0  0  0  0  0  0  0  0  0
  -18.4497  -28.1707   23.3603 C   0  0  0  0  0  0  0  0  0  0  0  0
  -20.2444  -22.6295   21.5066 C   0  0  0  0  0  0  0  0  0  0  0  0
  -21.1238  -21.6221   21.5031 C   0  0  0  0  0  0  0  0  0  1  0  0
  -20.6463  -29.3946   23.1916 C   0  0  0  0  0  0  0  0  0  0  0  0
  -25.3671  -24.0369   18.6698 C   0  0  0  0  0  0  0  0  0  0  0  0
  -26.3724  -16.4295   20.9204 C   0  0  0  0  0  0  0  0  0  0  0  0
  -28.9714  -18.3668   20.8024 C   0  0  0  0  0  0  0  0  0  0  0  0
  -30.2164  -21.5437   20.7389 C   0  0  0  0  0  0  0  0  0  0  0  0
  -22.6047  -30.5641   22.2322 C   0  0  0  0  0  0  0  0  0  0  0  0
  -25.3134  -11.5311   19.9496 C   0  0  0  0  0  0  0  0  0  0  0  0
  -25.7733  -17.9595   19.0083 C   0  0  0  0  0  0  0  0  0  0  0  0
  -26.7679  -19.4668   21.3499 C   0  0  0  0  0  0  0  0  0  0  0  0
  -18.7570  -22.4734   21.4694 C   0  0  0  0  0  0  0  0  0  0  0  0
  -20.5965  -24.0778   21.6678 C   0  0  0  0  0  0  0  0  0  0  0  0
  -26.5581  -12.3214   20.3452 C   0  0  0  0  0  0  0  0  0  0  0  0
  -26.0322  -30.9056   21.4369 C   0  0  0  0  0  0  0  0  0  0  0  0
  -26.2561  -13.2359   21.5282 C   0  0  0  0  0  0  0  0  0  0  0  0
  -26.3235  -29.6832   20.5622 C   0  0  0  0  0  0  0  0  0  0  0  0
  -18.2679  -23.6944   22.2432 C   0  0  0  0  0  0  0  0  0  0  0  0
  -24.6440  -31.4820   21.1623 C   0  0  0  0  0  0  0  0  0  0  0  0
  -23.8341  -29.2987   20.3654 C   0  0  0  0  0  0  0  0  0  0  0  0
  -25.1751  -14.2627   21.1699 C   0  0  1  0  0  0  0  0  0  0  0  0
  -26.8805  -17.4127   19.9041 C   0  0  1  0  0  0  0  0  0  0  0  0
  -25.1924  -28.6394   20.6541 C   0  0  1  0  0  0  0  0  0  0  0  0
  -31.9267  -23.3712   20.5580 C   0  0  0  0  0  0  0  0  0  0  0  0
  -29.4025  -17.7599   23.7615 C   0  0  0  0  0  0  0  0  0  0  0  0
  -30.9414  -19.7317   23.8702 C   0  0  0  0  0  0  0  0  0  0  0  0
  -31.4932  -17.8013   22.3897 C   0  0  0  0  0  0  0  0  0  0  0  0
  -29.9666  -21.6445   17.7917 C   0  0  0  0  0  0  0  0  0  0  0  0
  -29.6090  -19.3589   21.7449 C   0  0  1  0  0  0  0  0  0  0  0  0
  -31.2619  -22.1984   19.8542 C   0  0  2  0  0  0  0  0  0  0  0  0
  -30.3347  -18.6660   22.9327 C   0  0  0  0  0  0  0  0  0  0  0  0
  -26.1089  -27.6367   18.5962 N   0  0  0  0  0  0  0  0  0  0  0  0
  -25.4479  -27.4476   19.7510 N   0  0  0  0  0  0  0  0  0  0  0  0
  -19.3476  -24.6730   22.1367 N   0  0  3  0  0  0  0  0  0  0  0  0
  -27.5821  -18.4652   20.6419 N   0  0  0  0  0  0  0  0  0  0  0  0
  -23.6293  -30.4331   21.2786 N   0  0  0  0  0  0  0  0  0  0  0  0
  -24.4061  -25.7874   21.0810 N   0  0  0  0  0  0  0  0  0  0  0  0
  -17.7049  -29.2021   23.8354 N   0  0  0  0  0  0  0  0  0  0  0  0
  -24.2238  -23.5887   17.9944 N   0  0  0  0  0  0  0  0  0  0  0  0
  -21.7102  -29.4898   22.2941 N   0  0  0  0  0  0  0  0  0  0  0  0
  -25.7375  -15.3313   20.3723 N   0  0  0  0  0  0  0  0  0  0  0  0
  -30.4735  -20.2021   20.9264 N   0  0  0  0  0  0  0  0  0  0  0  0
  -30.6372  -22.6977   18.5967 N   0  3  0  0  0  0  0  0  0  0  0  0
  -20.3568  -30.2347   24.0391 O   0  0  0  0  0  0  0  0  0  0  0  0
  -26.2041  -23.1989   19.0830 O   0  0  0  0  0  0  0  0  0  0  0  0
  -26.5449  -16.6500   22.1134 O   0  0  0  0  0  0  0  0  0  0  0  0
  -29.6810  -17.5398   20.2244 O   0  0  0  0  0  0  0  0  0  0  0  0
  -29.2686  -22.1616   21.2190 O   0  0  0  0  0  0  0  0  0  0  0  0
  -22.5159  -31.5356   22.9895 O   0  0  0  0  0  0  0  0  0  0  0  0
  -28.6516  -25.5661   13.1373 O   0  0  0  0  0  0  0  0  0  0  0  0
  -22.4770  -21.8100   21.5379 O   0  0  0  0  0  0  0  0  0  1  0  0
  -29.8515  -20.3706   11.7333 F   0  0  0  0  0  0  0  0  0  0  0  0
  -31.2615  -24.7950   12.6512 F   0  0  0  0  0  0  0  0  0  0  0  0
  -17.7458  -26.6343   23.0841 S   0  0  0  0  0  0  0  0  0  0  0  0
  1  2  1  0  0  0  0
  1  5  2  0  0  0  0
  2  6  2  0  0  0  0
  3  8  2  0  0  0  0
  3 16  1  0  0  0  0
  4  9  1  0  0  0  0
  4 16  2  0  0  0  0
  5 19  1  0  0  0  0
  6 21  1  0  0  0  0
  7 10  2  0  0  0  0
  7 20  1  0  0  0  0
  8 23  1  0  0  0  0
  9 23  2  0  0  0  0
 10 24  1  0  0  0  0
 11 12  2  0  0  0  0
 11 25  1  0  0  0  0
 12 26  1  0  0  0  0
 13 17  1  0  0  0  0
 13 30  2  0  0  0  0
 14 22  1  0  0  0  0
 14 24  2  0  0  0  0
 15 26  2  0  0  0  0
 15 27  1  0  0  0  0
 16 28  1  0  0  0  0
 17 31  2  0  0  0  0
 17 34  1  0  0  0  0
 18 28  1  0  0  0  0
 18 29  2  0  0  0  0
 18 35  1  0  0  0  0
 19 21  2  0  0  0  0
 19 40  1  0  0  0  0
 20 22  2  0  0  0  0
 20 41  1  0  0  0  0
 21 52  1  0  0  0  0
 22 42  1  0  0  0  0
 23 81  1  0  0  0  0
 24 82  1  0  0  0  0
 25 27  2  0  0  0  0
 25 81  1  0  0  0  0
 26 83  1  0  0  0  0
 27 84  1  0  0  0  0
 28 63  2  0  0  0  0
 29 64  1  0  0  0  0
 29 68  1  0  0  0  0
 30 65  1  0  0  0  0
 30 85  1  0  0  0  0
 31 69  1  0  0  0  0
 31 85  1  0  0  0  0
 32 33  2  0  0  0  0
 32 43  1  0  0  0  0
 32 44  1  0  0  0  0
 33 82  1  0  0  0  0
 34 71  1  0  0  0  0
 34 75  2  0  0  0  0
 35 70  1  0  0  0  0
 35 76  2  0  0  0  0
 36 53  1  0  0  0  0
 36 72  1  0  0  0  0
 36 77  2  0  0  0  0
 37 60  1  0  0  0  0
 37 66  1  0  0  0  0
 37 78  2  0  0  0  0
 38 61  1  0  0  0  0
 38 73  1  0  0  0  0
 38 79  2  0  0  0  0
 39 67  1  0  0  0  0
 39 71  1  0  0  0  0
 39 80  2  0  0  0  0
 40 45  1  0  0  0  0
 41 53  1  0  0  0  0
 42 66  1  0  0  0  0
 43 49  1  0  0  0  0
 44 65  1  0  0  0  0
 45 47  1  0  0  0  0
 46 48  1  0  0  0  0
 46 50  1  0  0  0  0
 47 52  1  0  0  0  0
 48 54  1  0  0  0  0
 49 65  1  0  0  0  0
 50 67  1  0  0  0  0
 51 54  1  0  0  0  0
 51 67  1  0  0  0  0
 52 72  1  0  0  0  0
 53 66  1  0  0  0  0
 54 64  1  0  0  0  0
 55 61  1  0  0  0  0
 56 62  1  0  0  0  0
 57 62  1  0  0  0  0
 58 62  1  0  0  0  0
 59 74  1  0  0  0  0
 60 62  1  0  0  0  0
 60 73  1  0  0  0  0
 61 74  1  0  0  0  0
 63 64  1  0  0  0  0
M  CHG  1  74   1
M  ISO  4  33 101  39 100  71 100  82 101
M  END
> <Batch ID>
0091

> <Smiles>
CNC(C)C(=O)NC(C(=O)N1Cc2cc([101O:1][101CH:1]=C3CCN(c4cc(C(=O)[100NH:0][100C:0](=O)N5CCCC(n6nc(-c7ccc(Oc8ccc(F)cc8F)cc7)c(C(N)=O)c6N)C5)c(N)s4)C3)ccc2CC1C(=O)NC1CCCc2ccccc21)C(C)(C)C

> <Shape>
0.214

> <Color>
0.096

> <Negative vol penalty>
0.000

$$$$

  -OEChem-04052300313D

 83 91  0     1  0  0  0  0  0999 V2000
  -16.8354  -25.9425   22.5319 C   0  0  0  0  0  0  0  0  0  0  0  0
  -18.1370  -25.4539   22.5839 C   0  0  0  0  0  0  0  0  0  0  0  0
  -23.1670  -10.3082   20.8596 C   0  0  0  0  0  0  0  0  0  0  0  0
  -24.4673   -8.8672   22.2984 C   0  0  0  0  0  0  0  0  0  0  0  0
  -28.4022  -20.0369   20.3381 C   0  0  0  0  0  0  0  0  0  0  0  0
  -16.6008  -27.2560   22.1276 C   0  0  0  0  0  0  0  0  0  0  0  0
  -19.2046  -26.2783   22.2307 C   0  0  0  0  0  0  0  0  0  0  0  0
  -23.0683  -25.9566   25.4885 C   0  0  0  0  0  0  0  0  0  0  0  0
  -27.4981  -20.8550   21.0155 C   0  0  0  0  0  0  0  0  0  0  0  0
  -22.2278   -9.2911   20.6896 C   0  0  0  0  0  0  0  0  0  0  0  0
  -23.5280   -7.8500   22.1284 C   0  0  0  0  0  0  0  0  0  0  0  0
  -23.9013  -24.8438   25.3804 C   0  0  0  0  0  0  0  0  0  0  0  0
  -20.4756   -7.0527   23.3399 C   0  0  0  0  0  0  0  0  0  0  0  0
  -20.0669   -6.3538   24.4757 C   0  0  0  0  0  0  0  0  0  0  0  0
  -25.5120  -26.1741   24.1742 C   0  0  0  0  0  0  0  0  0  0  0  0
  -26.7237  -18.9495   22.2830 C   0  0  0  0  0  0  0  0  0  0  0  0
  -20.8789   -4.2970   23.5021 C   0  0  0  0  0  0  0  0  0  0  0  0
  -24.2868  -10.0962   21.6639 C   0  0  0  0  0  0  0  0  0  0  0  0
  -28.4671  -18.6751   20.6331 C   0  0  0  0  0  0  0  0  0  0  0  0
  -25.2618  -12.1427   22.8339 C   0  0  0  0  0  0  0  0  0  0  0  0
  -17.6669  -28.1000   21.7784 C   0  0  0  0  0  0  0  0  0  0  0  0
  -23.4468  -27.1859   24.9297 C   0  0  0  0  0  0  0  0  0  0  0  0
  -18.9839  -27.6040   21.8200 C   0  0  0  0  0  0  0  0  0  0  0  0
  -24.6832  -27.3016   24.2787 C   0  0  0  0  0  0  0  0  0  0  0  0
  -26.6588  -20.3113   21.9880 C   0  0  0  0  0  0  0  0  0  0  0  0
  -22.4083   -8.0620   21.3241 C   0  0  0  0  0  0  0  0  0  0  0  0
  -25.1220  -24.9517   24.7207 C   0  0  0  0  0  0  0  0  0  0  0  0
  -21.0859   -6.3738   22.2852 C   0  0  0  0  0  0  0  0  0  0  0  0
  -20.2685   -4.9759   24.5568 C   0  0  0  0  0  0  0  0  0  0  0  0
  -27.6278  -18.1314   21.6056 C   0  0  0  0  0  0  0  0  0  0  0  0
  -21.2876   -4.9960   22.3663 C   0  0  0  0  0  0  0  0  0  0  0  0
  -25.2577  -11.1464   21.8395 C   0  0  0  0  0  0  0  0  0  0  0  0
  -26.3841  -12.8885   22.5681 C   0  0  0  0  0  0  0  0  0  0  0  0
  -26.1881  -21.6795   23.7578 C   0  0  0  0  0  0  0  0  0  0  0  0
  -29.4303  -17.8063   19.9091 C   0  0  0  0  0  0  0  0  0  0  0  0
  -24.3342  -12.3734   23.9026 C   0  0  0  0  0  0  0  0  0  0  0  0
  -22.2598  -29.0848   22.6738 C   0  0  0  0  0  0  0  0  0  0  0  0
  -24.6301  -31.0736   23.6479 C   0  0  0  0  0  0  0  0  0  0  0  0
  -27.6728  -31.4370   25.1500 C   0  0  0  0  0  0  0  0  0  0  0  0
  -29.7768  -15.5087   19.0578 C   0  0  0  0  0  0  0  0  0  0  0  0
  -17.3602  -29.4978   21.3023 C   0  0  0  0  0  0  0  0  0  0  0  0
  -22.5489  -28.3835   25.0781 C   0  0  0  0  0  0  0  0  0  0  0  0
  -25.1450  -28.6039   23.6793 C   0  0  0  0  0  0  0  0  0  0  0  0
  -18.5752  -30.4220   21.3038 C   0  0  0  0  0  0  0  0  0  0  0  0
  -30.2460  -12.0224   19.4075 C   0  0  0  0  0  0  0  0  0  0  0  0
  -19.7766  -29.7255   20.6726 C   0  0  0  0  0  0  0  0  0  0  0  0
  -28.9945  -11.5633   20.1606 C   0  0  0  0  0  0  0  0  0  0  0  0
  -29.9282  -13.1240   18.3974 C   0  0  0  0  0  0  0  0  0  0  0  0
  -27.9513  -13.8159   19.6900 C   0  0  0  0  0  0  0  0  0  0  0  0
  -20.1703  -28.4752   21.4683 C   0  0  1  0  0  0  0  0  0  0  0  0
  -22.8046  -29.4562   24.0240 C   0  0  1  0  0  0  0  0  0  0  0  0
  -28.2306  -12.7568   20.7686 C   0  0  1  0  0  0  0  0  0  0  0  0
  -29.3698  -33.1799   25.7664 C   0  0  0  0  0  0  0  0  0  0  0  0
  -25.5304  -31.2233   20.7364 C   0  0  0  0  0  0  0  0  0  0  0  0
  -27.7121  -32.1590   21.5319 C   0  0  0  0  0  0  0  0  0  0  0  0
  -25.5928  -33.4029   21.9610 C   0  0  0  0  0  0  0  0  0  0  0  0
  -27.4215  -30.8277   28.0352 C   0  0  0  0  0  0  0  0  0  0  0  0
  -25.3097  -22.5859   24.5671 C   0  0  0  0  0  0  0  0  0  1  0  0
  -26.0731  -31.2876   23.2597 C   0  0  1  0  0  0  0  0  0  0  0  0
  -28.1561  -32.3889   26.2292 C   0  0  2  0  0  0  0  0  0  0  0  0
  -26.2178  -31.9930   21.8818 C   0  0  0  0  0  0  0  0  0  0  0  0
  -26.2949  -11.2473   21.0041 N   0  0  0  0  0  0  0  0  0  0  0  0
  -25.7481  -21.1354   22.6706 N   0  0  0  0  0  0  0  0  0  0  0  0
  -26.9613  -12.3161   21.4730 N   0  0  0  0  0  0  0  0  0  0  0  0
  -24.2291  -29.7446   23.8450 N   0  0  0  0  0  0  0  0  0  0  0  0
  -29.2139  -14.2205   19.0536 N   0  0  0  0  0  0  0  0  0  0  0  0
  -26.9236  -13.9717   23.1665 N   0  0  0  0  0  0  0  0  0  0  0  0
  -23.2359  -11.5124   24.0315 N   0  0  0  0  0  0  0  0  0  0  0  0
  -29.0383  -16.4772   19.7468 N   0  0  0  0  0  0  0  0  0  0  0  0
  -20.8990  -28.8450   22.6628 N   0  0  0  0  0  0  0  0  0  0  0  0
  -26.6914  -32.0079   24.3676 N   0  0  0  0  0  0  0  0  0  0  0  0
  -28.5287  -31.6326   27.4581 N   0  3  0  0  0  0  0  0  0  0  0  0
  -30.4672  -18.2977   19.4719 O   0  0  0  0  0  0  0  0  0  0  0  0
  -24.4661  -13.3251   24.7090 O   0  0  0  0  0  0  0  0  0  0  0  0
  -23.0177  -29.0218   21.7129 O   0  0  0  0  0  0  0  0  0  0  0  0
  -23.8878  -32.0501   23.7786 O   0  0  0  0  0  0  0  0  0  0  0  0
  -28.1237  -30.3020   25.0123 O   0  0  0  0  0  0  0  0  0  0  0  0
  -30.8617  -15.7665   18.5269 O   0  0  0  0  0  0  0  0  0  0  0  0
  -21.4919   -7.0693   21.1586 O   0  0  0  0  0  0  0  0  0  0  0  0
  -25.9367  -23.8670   24.6133 O   0  0  0  0  0  0  0  0  0  1  0  0
  -19.8773   -4.3051   25.6482 F   0  0  0  0  0  0  0  0  0  0  0  0
  -27.6813  -16.8239   21.8964 F   0  0  0  0  0  0  0  0  0  0  0  0
  -21.8744   -4.3386   21.3568 F   0  0  0  0  0  0  0  0  0  0  0  0
  1  2  1  0  0  0  0
  1  6  2  0  0  0  0
  2  7  2  0  0  0  0
  3 10  2  0  0  0  0
  3 18  1  0  0  0  0
  4 11  1  0  0  0  0
  4 18  2  0  0  0  0
  5  9  2  0  0  0  0
  5 19  1  0  0  0  0
  6 21  1  0  0  0  0
  7 23  1  0  0  0  0
  8 12  2  0  0  0  0
  8 22  1  0  0  0  0
  9 25  1  0  0  0  0
 10 26  1  0  0  0  0
 11 26  2  0  0  0  0
 12 27  1  0  0  0  0
 13 14  2  0  0  0  0
 13 28  1  0  0  0  0
 14 29  1  0  0  0  0
 15 24  1  0  0  0  0
 15 27  2  0  0  0  0
 16 25  2  0  0  0  0
 16 30  1  0  0  0  0
 17 29  2  0  0  0  0
 17 31  1  0  0  0  0
 18 32  1  0  0  0  0
 19 30  2  0  0  0  0
 19 35  1  0  0  0  0
 20 32  1  0  0  0  0
 20 33  2  0  0  0  0
 20 36  1  0  0  0  0
 21 23  2  0  0  0  0
 21 41  1  0  0  0  0
 22 24  2  0  0  0  0
 22 42  1  0  0  0  0
 23 50  1  0  0  0  0
 24 43  1  0  0  0  0
 25 63  1  0  0  0  0
 26 79  1  0  0  0  0
 27 80  1  0  0  0  0
 28 31  2  0  0  0  0
 28 79  1  0  0  0  0
 29 81  1  0  0  0  0
 30 82  1  0  0  0  0
 31 83  1  0  0  0  0
 32 62  2  0  0  0  0
 33 64  1  0  0  0  0
 33 67  1  0  0  0  0
 34 58  1  0  0  0  0
 34 63  2  0  0  0  0
 35 69  1  0  0  0  0
 35 73  2  0  0  0  0
 36 68  1  0  0  0  0
 36 74  2  0  0  0  0
 37 51  1  0  0  0  0
 37 70  1  0  0  0  0
 37 75  2  0  0  0  0
 38 59  1  0  0  0  0
 38 65  1  0  0  0  0
 38 76  2  0  0  0  0
 39 60  1  0  0  0  0
 39 71  1  0  0  0  0
 39 77  2  0  0  0  0
 40 66  1  0  0  0  0
 40 69  1  0  0  0  0
 40 78  2  0  0  0  0
 41 44  1  0  0  0  0
 42 51  1  0  0  0  0
 43 65  1  0  0  0  0
 44 46  1  0  0  0  0
 45 47  1  0  0  0  0
 45 48  1  0  0  0  0
 46 50  1  0  0  0  0
 47 52  1  0  0  0  0
 48 66  1  0  0  0  0
 49 52  1  0  0  0  0
 49 66  1  0  0  0  0
 50 70  1  0  0  0  0
 51 65  1  0  0  0  0
 52 64  1  0  0  0  0
 53 60  1  0  0  0  0
 54 61  1  0  0  0  0
 55 61  1  0  0  0  0
 56 61  1  0  0  0  0
 57 72  1  0  0  0  0
 58 80  1  0  0  0  0
 59 61  1  0  0  0  0
 59 71  1  0  0  0  0
 60 72  1  0  0  0  0
 62 64  1  0  0  0  0
M  CHG  1  72   1
M  ISO  4  40 100  58 101  69 100  80 101
M  END
> <Batch ID>
0091

> <Smiles>
CNC(C)C(=O)NC(C(=O)N1Cc2cc([101O:1][101CH:1]=CNc3ccc(C(=O)[100NH:0][100C:0](=O)N4CCCC(n5nc(-c6ccc(Oc7ccc(F)cc7F)cc6)c(C(N)=O)c5N)C4)c(F)c3)ccc2CC1C(=O)NC1CCCc2ccccc21)C(C)(C)C

> <Shape>
0.293

> <Color>
0.116

> <Negative vol penalty>
0.000

$$$$

  -OEChem-04052300313D

 86 95  0     1  0  0  0  0  0999 V2000
  -26.7907  -37.4605   24.2181 C   0  0  0  0  0  0  0  0  0  0  0  0
  -27.3953  -36.6735   23.2431 C   0  0  0  0  0  0  0  0  0  0  0  0
  -23.5169   -9.4086   20.2995 C   0  0  0  0  0  0  0  0  0  0  0  0
  -23.1761  -11.0960   21.9946 C   0  0  0  0  0  0  0  0  0  0  0  0
  -26.0928  -36.8585   25.2642 C   0  0  0  0  0  0  0  0  0  0  0  0
  -27.3031  -35.2840   23.3142 C   0  0  0  0  0  0  0  0  0  0  0  0
  -26.9153  -29.4925   19.1161 C   0  0  0  0  0  0  0  0  0  0  0  0
  -30.9428  -19.7453   20.5589 C   0  0  0  0  0  0  0  0  0  0  0  0
  -30.7518  -18.3737   20.3929 C   0  0  0  0  0  0  0  0  0  0  0  0
  -22.6803   -8.5380   20.9979 C   0  0  0  0  0  0  0  0  0  0  0  0
  -22.3395  -10.2255   22.6930 C   0  0  0  0  0  0  0  0  0  0  0  0
  -27.5347  -28.2584   18.9235 C   0  0  0  0  0  0  0  0  0  0  0  0
  -19.3571   -8.0814   21.4228 C   0  0  0  0  0  0  0  0  0  0  0  0
  -18.4022   -7.3743   20.6923 C   0  0  0  0  0  0  0  0  0  0  0  0
  -26.2360  -27.3311   20.7326 C   0  0  0  0  0  0  0  0  0  0  0  0
  -28.7779  -20.1663   19.5725 C   0  0  0  0  0  0  0  0  0  0  0  0
  -19.3893   -5.2919   21.4177 C   0  0  0  0  0  0  0  0  0  0  0  0
  -23.7648  -10.6876   20.7978 C   0  0  0  0  0  0  0  0  0  0  0  0
  -24.2560  -12.5110   19.0827 C   0  0  0  0  0  0  0  0  0  0  0  0
  -25.9837  -35.4611   25.3429 C   0  0  0  0  0  0  0  0  0  0  0  0
  -25.9579  -29.6583   20.1271 C   0  0  0  0  0  0  0  0  0  0  0  0
  -26.6041  -34.6627   24.3631 C   0  0  0  0  0  0  0  0  0  0  0  0
  -25.6041  -28.5677   20.9342 C   0  0  0  0  0  0  0  0  0  0  0  0
  -29.9559  -20.6417   20.1487 C   0  0  0  0  0  0  0  0  0  0  0  0
  -29.5738  -17.8982   19.8167 C   0  0  0  0  0  0  0  0  0  0  0  0
  -28.5868  -18.7945   19.4065 C   0  0  0  0  0  0  0  0  0  0  0  0
  -22.0916   -8.9464   22.1946 C   0  0  0  0  0  0  0  0  0  0  0  0
  -27.1972  -27.1782   19.7337 C   0  0  0  0  0  0  0  0  0  0  0  0
  -20.3282   -7.3938   22.1508 C   0  0  0  0  0  0  0  0  0  0  0  0
  -18.4183   -5.9795   20.6897 C   0  0  0  0  0  0  0  0  0  0  0  0
  -20.3442   -5.9990   22.1483 C   0  0  0  0  0  0  0  0  0  0  0  0
  -24.6294  -11.5872   20.0771 C   0  0  0  0  0  0  0  0  0  0  0  0
  -25.4332  -13.1169   18.7174 C   0  0  0  0  0  0  0  0  0  0  0  0
  -29.0680  -22.9176   20.5250 C   0  0  0  0  0  0  0  0  0  0  0  0
  -29.1533  -24.2568   20.5304 C   0  0  0  0  0  0  0  0  0  0  0  0
  -31.4609  -22.6060   20.2382 C   0  0  0  0  0  0  0  0  0  0  0  0
  -22.9607  -12.7960   18.5379 C   0  0  0  0  0  0  0  0  0  0  0  0
  -25.7416  -31.4582   22.7381 C   0  0  0  0  0  0  0  0  0  0  0  0
  -22.7491  -30.2138   22.8754 C   0  0  0  0  0  0  0  0  0  0  0  0
  -20.6217  -27.6840   22.0264 C   0  0  0  0  0  0  0  0  0  0  0  0
  -30.2970  -15.4937   20.0202 C   0  0  0  0  0  0  0  0  0  0  0  0
  -25.2590  -34.8546   26.5183 C   0  0  0  0  0  0  0  0  0  0  0  0
  -25.2795  -30.9890   20.3045 C   0  0  0  0  0  0  0  0  0  0  0  0
  -24.5676  -28.6882   22.0204 C   0  0  0  0  0  0  0  0  0  0  0  0
  -30.4748  -24.9333   20.3451 C   0  0  0  0  0  0  0  0  0  0  0  0
  -31.6047  -24.0181   20.7773 C   0  0  0  0  0  0  0  0  0  0  0  0
  -24.8905  -33.3872   26.3153 C   0  0  0  0  0  0  0  0  0  0  0  0
  -30.2283  -11.9388   19.8316 C   0  0  0  0  0  0  0  0  0  0  0  0
  -26.0802  -32.6096   25.7617 C   0  0  0  0  0  0  0  0  0  0  0  0
  -28.7348  -11.6064   19.7968 C   0  0  0  0  0  0  0  0  0  0  0  0
  -30.5236  -13.1275   20.7446 C   0  0  0  0  0  0  0  0  0  0  0  0
  -28.2421  -14.0025   20.4317 C   0  0  0  0  0  0  0  0  0  0  0  0
  -26.5053  -33.1529   24.3921 C   0  0  1  0  0  0  0  0  0  0  0  0
  -24.6922  -31.1790   21.6996 C   0  0  1  0  0  0  0  0  0  0  0  0
  -27.8874  -12.8529   19.4745 C   0  0  2  0  0  0  0  0  0  0  0  0
  -18.2465  -26.9271   22.3149 C   0  0  0  0  0  0  0  0  0  0  0  0
  -23.3733  -29.3533   25.7355 C   0  0  0  0  0  0  0  0  0  0  0  0
  -21.3977  -27.8189   25.6310 C   0  0  0  0  0  0  0  0  0  0  0  0
  -21.0751  -30.2820   25.4035 C   0  0  0  0  0  0  0  0  0  0  0  0
  -20.1210  -27.7604   19.1105 C   0  0  0  0  0  0  0  0  0  0  0  0
  -27.9543  -25.1398   20.6968 C   0  0  0  0  0  0  0  0  0  1  0  0
  -22.1283  -28.9892   23.5031 C   0  0  1  0  0  0  0  0  0  0  0  0
  -19.2216  -27.6994   21.4399 C   0  0  2  0  0  0  0  0  0  0  0  0
  -22.0146  -29.1088   25.0491 C   0  0  0  0  0  0  0  0  0  0  0  0
  -25.9413  -11.6013   20.3275 N   0  0  0  0  0  0  0  0  0  0  0  0
  -26.4025  -12.5413   19.4851 N   0  0  0  0  0  0  0  0  0  0  0  0
  -30.1547  -22.0674   20.3215 N   0  0  0  0  0  0  0  0  0  0  0  0
  -23.9371  -30.0114   22.1588 N   0  0  0  0  0  0  0  0  0  0  0  0
  -29.6874  -14.2724   20.3775 N   0  0  0  0  0  0  0  0  0  0  0  0
  -27.3859  -18.3346   18.8208 N   0  0  0  0  0  0  0  0  0  0  0  0
  -25.7234  -14.0804   17.8175 N   0  0  0  0  0  0  0  0  0  0  0  0
  -21.8584  -12.0815   19.0265 N   0  0  0  0  0  0  0  0  0  0  0  0
  -29.4025  -16.5006   19.6589 N   0  0  0  0  0  0  0  0  0  0  0  0
  -25.6047  -32.6842   23.3608 N   0  0  0  0  0  0  0  0  0  0  0  0
  -20.8533  -28.7844   22.8243 N   0  0  0  0  0  0  0  0  0  0  0  0
  -19.2221  -27.0856   20.0819 N   0  3  0  0  0  0  0  0  0  0  0  0
  -32.4623  -22.0229   19.8188 O   0  0  0  0  0  0  0  0  0  0  0  0
  -22.7883  -13.6471   17.6327 O   0  0  0  0  0  0  0  0  0  0  0  0
  -26.6102  -30.6226   22.9592 O   0  0  0  0  0  0  0  0  0  0  0  0
  -22.1964  -31.3083   23.0097 O   0  0  0  0  0  0  0  0  0  0  0  0
  -21.4278  -26.7837   21.8023 O   0  0  0  0  0  0  0  0  0  0  0  0
  -31.5233  -15.6276   20.0076 O   0  0  0  0  0  0  0  0  0  0  0  0
  -21.2750   -8.0973   22.8763 O   0  0  0  0  0  0  0  0  0  0  0  0
  -27.8007  -25.9727   19.5483 O   0  0  0  0  0  0  0  0  0  1  0  0
  -17.5004   -5.3006   19.9893 F   0  0  0  0  0  0  0  0  0  0  0  0
  -21.2739   -5.3329   22.8467 F   0  0  0  0  0  0  0  0  0  0  0  0
  1  2  1  0  0  0  0
  1  5  2  0  0  0  0
  2  6  2  0  0  0  0
  3 10  2  0  0  0  0
  3 18  1  0  0  0  0
  4 11  1  0  0  0  0
  4 18  2  0  0  0  0
  5 20  1  0  0  0  0
  6 22  1  0  0  0  0
  7 12  2  0  0  0  0
  7 21  1  0  0  0  0
  8  9  2  0  0  0  0
  8 24  1  0  0  0  0
  9 25  1  0  0  0  0
 10 27  1  0  0  0  0
 11 27  2  0  0  0  0
 12 28  1  0  0  0  0
 13 14  2  0  0  0  0
 13 29  1  0  0  0  0
 14 30  1  0  0  0  0
 15 23  1  0  0  0  0
 15 28  2  0  0  0  0
 16 24  2  0  0  0  0
 16 26  1  0  0  0  0
 17 30  2  0  0  0  0
 17 31  1  0  0  0  0
 18 32  1  0  0  0  0
 19 32  1  0  0  0  0
 19 33  2  0  0  0  0
 19 37  1  0  0  0  0
 20 22  2  0  0  0  0
 20 42  1  0  0  0  0
 21 23  2  0  0  0  0
 21 43  1  0  0  0  0
 22 53  1  0  0  0  0
 23 44  1  0  0  0  0
 24 67  1  0  0  0  0
 25 26  2  0  0  0  0
 25 73  1  0  0  0  0
 26 70  1  0  0  0  0
 27 83  1  0  0  0  0
 28 84  1  0  0  0  0
 29 31  2  0  0  0  0
 29 83  1  0  0  0  0
 30 85  1  0  0  0  0
 31 86  1  0  0  0  0
 32 65  2  0  0  0  0
 33 66  1  0  0  0  0
 33 71  1  0  0  0  0
 34 35  2  0  0  0  0
 34 67  1  0  0  0  0
 35 45  1  0  0  0  0
 35 61  1  0  0  0  0
 36 46  1  0  0  0  0
 36 67  1  0  0  0  0
 36 77  2  0  0  0  0
 37 72  1  0  0  0  0
 37 78  2  0  0  0  0
 38 54  1  0  0  0  0
 38 74  1  0  0  0  0
 38 79  2  0  0  0  0
 39 62  1  0  0  0  0
 39 68  1  0  0  0  0
 39 80  2  0  0  0  0
 40 63  1  0  0  0  0
 40 75  1  0  0  0  0
 40 81  2  0  0  0  0
 41 69  1  0  0  0  0
 41 73  1  0  0  0  0
 41 82  2  0  0  0  0
 42 47  1  0  0  0  0
 43 54  1  0  0  0  0
 44 68  1  0  0  0  0
 45 46  1  0  0  0  0
 47 49  1  0  0  0  0
 48 50  1  0  0  0  0
 48 51  1  0  0  0  0
 49 53  1  0  0  0  0
 50 55  1  0  0  0  0
 51 69  1  0  0  0  0
 52 55  1  0  0  0  0
 52 69  1  0  0  0  0
 53 74  1  0  0  0  0
 54 68  1  0  0  0  0
 55 66  1  0  0  0  0
 56 63  1  0  0  0  0
 57 64  1  0  0  0  0
 58 64  1  0  0  0  0
 59 64  1  0  0  0  0
 60 76  1  0  0  0  0
 61 84  1  0  0  0  0
 62 64  1  0  0  0  0
 62 75  1  0  0  0  0
 63 76  1  0  0  0  0
 65 66  1  0  0  0  0
M  CHG  1  76   1
M  ISO  4  41 100  61 101  73 100  84 101
M  END
> <Batch ID>
0091

> <Smiles>
CNC(C)C(=O)NC(C(=O)N1Cc2cc([101O:1][101CH2:1]C3=CN(c4ccc([100NH:0][100C:0](=O)N5CCCC(n6nc(-c7ccc(Oc8ccc(F)cc8F)cc7)c(C(N)=O)c6N)C5)c(N)c4)C(=O)CC3)ccc2CC1C(=O)NC1CCCc2ccccc21)C(C)(C)C

> <Shape>
0.356

> <Color>
0.102

> <Negative vol penalty>
0.000

$$$$

  -OEChem-04052300313D

 90 99  0     1  0  0  0  0  0999 V2000
  -24.2363  -33.4371   14.2650 C   0  0  0  0  0  0  0  0  0  0  0  0
  -24.7269  -32.2398   14.7760 C   0  0  0  0  0  0  0  0  0  0  0  0
  -23.0178  -14.5387   18.3152 C   0  0  0  0  0  0  0  0  0  0  0  0
  -23.8915  -16.1078   19.9312 C   0  0  0  0  0  0  0  0  0  0  0  0
  -24.2870  -34.5964   15.0378 C   0  0  0  0  0  0  0  0  0  0  0  0
  -25.2696  -32.2014   16.0599 C   0  0  0  0  0  0  0  0  0  0  0  0
  -23.6627  -28.2094   18.7296 C   0  0  0  0  0  0  0  0  0  0  0  0
  -28.2053  -19.8501   18.6604 C   0  0  0  0  0  0  0  0  0  0  0  0
  -28.4502  -18.5117   18.9673 C   0  0  0  0  0  0  0  0  0  0  0  0
  -22.2368  -15.5498   17.7556 C   0  0  0  0  0  0  0  0  0  0  0  0
  -23.1106  -17.1191   19.3715 C   0  0  0  0  0  0  0  0  0  0  0  0
  -24.2533  -26.9776   18.4510 C   0  0  0  0  0  0  0  0  0  0  0  0
  -19.3332  -17.1312   18.4576 C   0  0  0  0  0  0  0  0  0  0  0  0
  -18.0033  -16.8330   18.1612 C   0  0  0  0  0  0  0  0  0  0  0  0
  -25.6759  -27.2295   20.3828 C   0  0  0  0  0  0  0  0  0  0  0  0
  -30.7882  -18.8190   18.4418 C   0  0  0  0  0  0  0  0  0  0  0  0
  -18.4093  -17.3362   15.8333 C   0  0  0  0  0  0  0  0  0  0  0  0
  -23.8451  -14.8177   19.4031 C   0  0  0  0  0  0  0  0  0  0  0  0
  -24.2000  -12.5702   20.5567 C   0  0  0  0  0  0  0  0  0  0  0  0
  -24.8218  -34.5701   16.3355 C   0  0  0  0  0  0  0  0  0  0  0  0
  -24.0826  -28.9668   19.8326 C   0  0  0  0  0  0  0  0  0  0  0  0
  -25.3288  -33.3617   16.8504 C   0  0  0  0  0  0  0  0  0  0  0  0
  -25.0873  -28.4694   20.6747 C   0  0  0  0  0  0  0  0  0  0  0  0
  -29.2518  -20.6730   18.2441 C   0  0  0  0  0  0  0  0  0  0  0  0
  -29.7416  -17.9961   18.8580 C   0  0  0  0  0  0  0  0  0  0  0  0
  -30.5433  -20.1574   18.1348 C   0  0  0  0  0  0  0  0  0  0  0  0
  -22.2832  -16.8400   18.2837 C   0  0  0  0  0  0  0  0  0  0  0  0
  -25.2620  -26.4888   19.2759 C   0  0  0  0  0  0  0  0  0  0  0  0
  -20.2012  -17.5320   17.4419 C   0  0  0  0  0  0  0  0  0  0  0  0
  -17.5413  -16.9355   16.8491 C   0  0  0  0  0  0  0  0  0  0  0  0
  -19.7392  -17.6345   16.1297 C   0  0  0  0  0  0  0  0  0  0  0  0
  -24.6516  -13.7734   19.9821 C   0  0  0  0  0  0  0  0  0  0  0  0
  -25.3470  -11.9286   20.9558 C   0  0  0  0  0  0  0  0  0  0  0  0
  -27.8792  -24.1290   18.4871 C   0  0  0  0  0  0  0  0  0  0  0  0
  -28.4367  -22.9588   18.8786 C   0  0  0  0  0  0  0  0  0  0  0  0
  -29.1954  -22.4559   16.5889 C   0  0  0  0  0  0  0  0  0  0  0  0
  -22.8633  -12.0766   20.7153 C   0  0  0  0  0  0  0  0  0  0  0  0
  -25.4021  -31.8334   20.2137 C   0  0  0  0  0  0  0  0  0  0  0  0
  -24.9592  -31.1883   23.3617 C   0  0  0  0  0  0  0  0  0  0  0  0
  -31.2744  -16.0471   19.0822 C   0  0  0  0  0  0  0  0  0  0  0  0
  -25.3373  -28.3407   25.5448 C   0  0  0  0  0  0  0  0  0  0  0  0
  -28.9802  -15.9083   19.8628 C   0  0  0  0  0  0  0  0  0  0  0  0
  -24.8984  -35.8588   17.1153 C   0  0  0  0  0  0  0  0  0  0  0  0
  -23.4169  -30.2813   20.1349 C   0  0  0  0  0  0  0  0  0  0  0  0
  -25.5600  -29.2344   21.8830 C   0  0  0  0  0  0  0  0  0  0  0  0
  -27.8777  -24.5256   17.0383 C   0  0  0  0  0  0  0  0  0  0  0  0
  -29.0841  -23.9409   16.3382 C   0  0  0  0  0  0  0  0  0  0  0  0
  -25.1470  -35.6540   18.6074 C   0  0  0  0  0  0  0  0  0  0  0  0
  -28.8340  -12.4889   18.4752 C   0  0  0  0  0  0  0  0  0  0  0  0
  -26.2702  -34.6456   18.8280 C   0  0  0  0  0  0  0  0  0  0  0  0
  -28.4823  -11.6663   19.7090 C   0  0  0  0  0  0  0  0  0  0  0  0
  -29.7033  -13.6922   18.8250 C   0  0  0  0  0  0  0  0  0  0  0  0
  -28.6961  -13.7803   21.1028 C   0  0  0  0  0  0  0  0  0  0  0  0
  -25.9024  -33.2745   18.2481 C   0  0  1  0  0  0  0  0  0  0  0  0
  -24.2792  -31.2051   20.9896 C   0  0  1  0  0  0  0  0  0  0  0  0
  -27.8629  -12.5150   20.8298 C   0  0  1  0  0  0  0  0  0  0  0  0
  -28.5678  -22.6208   20.3476 C   0  0  0  0  0  0  0  0  0  0  0  0
  -31.7302  -15.1925   20.2451 C   0  0  0  0  0  0  0  0  0  0  0  0
  -24.1674  -27.7612   27.6879 C   0  0  0  0  0  0  0  0  0  0  0  0
  -27.3384  -32.5582   24.6930 C   0  0  0  0  0  0  0  0  0  0  0  0
  -27.2662  -30.7991   26.4731 C   0  0  0  0  0  0  0  0  0  0  0  0
  -25.3194  -32.3251   26.1503 C   0  0  0  0  0  0  0  0  0  0  0  0
  -24.4831  -25.7062   24.5014 C   0  0  0  0  0  0  0  0  0  0  0  0
  -27.2028  -25.1196   19.3966 C   0  0  0  0  0  0  0  0  0  1  0  0
  -25.7753  -30.5188   24.4410 C   0  0  1  0  0  0  0  0  0  0  0  0
  -24.2234  -27.5325   26.1854 C   0  0  2  0  0  0  0  0  0  0  0  0
  -26.4276  -31.5431   25.4119 C   0  0  0  0  0  0  0  0  0  0  0  0
  -25.9817  -13.8917   20.0117 N   0  0  0  0  0  0  0  0  0  0  0  0
  -26.3757  -12.7545   20.6099 N   0  0  0  0  0  0  0  0  0  0  0  0
  -28.9731  -22.0557   17.9299 N   0  0  0  0  0  0  0  0  0  0  0  0
  -24.8827  -30.5174   22.1329 N   0  0  0  0  0  0  0  0  0  0  0  0
  -29.1170  -14.5039   19.8994 N   0  0  0  0  0  0  0  0  0  0  0  0
  -31.6179  -20.9729   17.7138 N   0  0  0  0  0  0  0  0  0  0  0  0
  -25.5658  -10.7442   21.5656 N   0  0  0  0  0  0  0  0  0  0  0  0
  -22.1668  -12.3989   21.8881 N   0  0  0  0  0  0  0  0  0  0  0  0
  -24.9866  -32.5822   19.1292 N   0  0  0  0  0  0  0  0  0  0  0  0
  -24.8861  -29.5620   25.0908 N   0  0  0  0  0  0  0  0  0  0  0  0
  -29.9949  -16.6117   19.1762 N   0  0  0  0  0  0  0  0  0  0  0  0
  -24.4313  -26.0775   25.9389 N   0  3  0  0  0  0  0  0  0  0  0  0
  -29.5016  -21.7112   15.6550 O   0  0  0  0  0  0  0  0  0  0  0  0
  -22.3090  -11.3569   19.8502 O   0  0  0  0  0  0  0  0  0  0  0  0
  -26.5597  -31.6535   20.5732 O   0  0  0  0  0  0  0  0  0  0  0  0
  -24.4039  -32.2632   23.6024 O   0  0  0  0  0  0  0  0  0  0  0  0
  -32.0408  -16.2478   18.1358 O   0  0  0  0  0  0  0  0  0  0  0  0
  -26.4929  -27.9312   25.4592 O   0  0  0  0  0  0  0  0  0  0  0  0
  -28.0665  -16.5028   20.4479 O   0  0  0  0  0  0  0  0  0  0  0  0
  -21.5215  -17.8270   17.7376 O   0  0  0  0  0  0  0  0  0  0  0  0
  -25.8406  -25.2871   19.0058 O   0  0  0  0  0  0  0  0  0  1  0  0
  -16.2645  -16.6475   16.5643 F   0  0  0  0  0  0  0  0  0  0  0  0
  -20.5687  -18.0179   15.1495 F   0  0  0  0  0  0  0  0  0  0  0  0
  1  2  1  0  0  0  0
  1  5  2  0  0  0  0
  2  6  2  0  0  0  0
  3 10  2  0  0  0  0
  3 18  1  0  0  0  0
  4 11  1  0  0  0  0
  4 18  2  0  0  0  0
  5 20  1  0  0  0  0
  6 22  1  0  0  0  0
  7 12  2  0  0  0  0
  7 21  1  0  0  0  0
  8  9  2  0  0  0  0
  8 24  1  0  0  0  0
  9 25  1  0  0  0  0
 10 27  1  0  0  0  0
 11 27  2  0  0  0  0
 12 28  1  0  0  0  0
 13 14  2  0  0  0  0
 13 29  1  0  0  0  0
 14 30  1  0  0  0  0
 15 23  1  0  0  0  0
 15 28  2  0  0  0  0
 16 25  2  0  0  0  0
 16 26  1  0  0  0  0
 17 30  2  0  0  0  0
 17 31  1  0  0  0  0
 18 32  1  0  0  0  0
 19 32  1  0  0  0  0
 19 33  2  0  0  0  0
 19 37  1  0  0  0  0
 20 22  2  0  0  0  0
 20 43  1  0  0  0  0
 21 23  2  0  0  0  0
 21 44  1  0  0  0  0
 22 54  1  0  0  0  0
 23 45  1  0  0  0  0
 24 26  2  0  0  0  0
 24 70  1  0  0  0  0
 25 78  1  0  0  0  0
 26 73  1  0  0  0  0
 27 87  1  0  0  0  0
 28 88  1  0  0  0  0
 29 31  2  0  0  0  0
 29 87  1  0  0  0  0
 30 89  1  0  0  0  0
 31 90  1  0  0  0  0
 32 68  2  0  0  0  0
 33 69  1  0  0  0  0
 33 74  1  0  0  0  0
 34 35  2  0  0  0  0
 34 46  1  0  0  0  0
 34 64  1  0  0  0  0
 35 57  1  0  0  0  0
 35 70  1  0  0  0  0
 36 47  1  0  0  0  0
 36 70  1  0  0  0  0
 36 80  2  0  0  0  0
 37 75  1  0  0  0  0
 37 81  2  0  0  0  0
 38 55  1  0  0  0  0
 38 76  1  0  0  0  0
 38 82  2  0  0  0  0
 39 65  1  0  0  0  0
 39 71  1  0  0  0  0
 39 83  2  0  0  0  0
 40 58  1  0  0  0  0
 40 78  1  0  0  0  0
 40 84  2  0  0  0  0
 41 66  1  0  0  0  0
 41 77  1  0  0  0  0
 41 85  2  0  0  0  0
 42 72  1  0  0  0  0
 42 78  1  0  0  0  0
 42 86  2  0  0  0  0
 43 48  1  0  0  0  0
 44 55  1  0  0  0  0
 45 71  1  0  0  0  0
 46 47  1  0  0  0  0
 48 50  1  0  0  0  0
 49 51  1  0  0  0  0
 49 52  1  0  0  0  0
 50 54  1  0  0  0  0
 51 56  1  0  0  0  0
 52 72  1  0  0  0  0
 53 56  1  0  0  0  0
 53 72  1  0  0  0  0
 54 76  1  0  0  0  0
 55 71  1  0  0  0  0
 56 69  1  0  0  0  0
 59 66  1  0  0  0  0
 60 67  1  0  0  0  0
 61 67  1  0  0  0  0
 62 67  1  0  0  0  0
 63 79  1  0  0  0  0
 64 88  1  0  0  0  0
 65 67  1  0  0  0  0
 65 77  1  0  0  0  0
 66 79  1  0  0  0  0
 68 69  1  0  0  0  0
M  CHG  1  79   1
M  ISO  4  42 100  64 101  78 100  88 101
M  END
> <Batch ID>
0091

> <Smiles>
CNC(C)C(=O)NC(C(=O)N1Cc2cc([101O:1][101CH2:1]C3=C(C)N(c4ccc([100N:0](C(C)=O)[100C:0](=O)N5CCCC(n6nc(-c7ccc(Oc8ccc(F)cc8F)cc7)c(C(N)=O)c6N)C5)cc4N)C(=O)CC3)ccc2CC1C(=O)NC1CCCc2ccccc21)C(C)(C)C

> <Shape>
0.247

> <Color>
0.093

> <Negative vol penalty>
0.000

$$$$

  -OEChem-04052300313D

 87 96  0     1  0  0  0  0  0999 V2000
  -30.1594  -16.8372   22.0919 C   0  0  0  0  0  0  0  0  0  0  0  0
  -30.0763  -16.7938   20.8955 C   0  0  0  0  0  0  0  0  0  0  0  0
  -26.0970  -37.9772   20.2973 C   0  0  0  0  0  0  0  0  0  0  0  0
  -26.7278  -36.9047   19.6749 C   0  0  0  0  0  0  0  0  0  0  0  0
  -29.8364  -19.3276   16.8261 C   0  0  0  0  0  0  0  0  0  0  0  0
  -24.4933  -11.7293   24.4507 C   0  0  0  0  0  0  0  0  0  0  0  0
  -25.2569  -14.0184   24.5680 C   0  0  0  0  0  0  0  0  0  0  0  0
  -25.4948  -37.8031   21.5426 C   0  0  0  0  0  0  0  0  0  0  0  0
  -26.7576  -35.6577   20.2981 C   0  0  0  0  0  0  0  0  0  0  0  0
  -26.7017  -28.6565   18.7827 C   0  0  0  0  0  0  0  0  0  0  0  0
  -29.9064  -20.5046   17.5713 C   0  0  0  0  0  0  0  0  0  0  0  0
  -29.8608  -18.0911   17.4712 C   0  0  0  0  0  0  0  0  0  0  0  0
  -24.2617  -11.7360   25.8261 C   0  0  0  0  0  0  0  0  0  0  0  0
  -25.0253  -14.0252   25.9435 C   0  0  0  0  0  0  0  0  0  0  0  0
  -27.4163  -27.4903   19.0529 C   0  0  0  0  0  0  0  0  0  0  0  0
  -21.8953  -12.8895   27.9481 C   0  0  0  0  0  0  0  0  0  0  0  0
  -20.6950  -12.3463   28.4060 C   0  0  0  0  0  0  0  0  0  0  0  0
  -26.2739  -27.2874   21.1678 C   0  0  0  0  0  0  0  0  0  0  0  0
  -30.0254  -19.2086   19.6068 C   0  0  0  0  0  0  0  0  0  0  0  0
  -21.9252  -10.7244   29.7071 C   0  0  0  0  0  0  0  0  0  0  0  0
  -24.9909  -12.8705   23.8216 C   0  0  0  0  0  0  0  0  0  0  0  0
  -24.2876  -12.6391   21.3804 C   0  0  0  0  0  0  0  0  0  0  0  0
  -25.5089  -36.5509   22.1770 C   0  0  0  0  0  0  0  0  0  0  0  0
  -25.7741  -29.1537   19.7094 C   0  0  0  0  0  0  0  0  0  0  0  0
  -26.1562  -35.4670   21.5537 C   0  0  0  0  0  0  0  0  0  0  0  0
  -25.5469  -28.4588   20.9059 C   0  0  0  0  0  0  0  0  0  0  0  0
  -30.0009  -20.4451   18.9617 C   0  0  0  0  0  0  0  0  0  0  0  0
  -29.9553  -18.0316   18.8615 C   0  0  0  0  0  0  0  0  0  0  0  0
  -24.5276  -12.8839   26.5725 C   0  0  0  0  0  0  0  0  0  0  0  0
  -27.2045  -26.8071   20.2468 C   0  0  0  0  0  0  0  0  0  0  0  0
  -23.1107  -12.3500   28.3696 C   0  0  0  0  0  0  0  0  0  0  0  0
  -20.7099  -11.2638   29.2855 C   0  0  0  0  0  0  0  0  0  0  0  0
  -23.1256  -11.2675   29.2491 C   0  0  0  0  0  0  0  0  0  0  0  0
  -25.2309  -12.8640   22.4009 C   0  0  0  0  0  0  0  0  0  0  0  0
  -25.0105  -12.7378   20.2167 C   0  0  0  0  0  0  0  0  0  0  0  0
  -29.4825  -22.8353   19.3235 C   0  0  0  0  0  0  0  0  0  0  0  0
  -29.5361  -23.9951   19.9982 C   0  0  0  0  0  0  0  0  0  0  0  0
  -31.2077  -22.9080   21.4875 C   0  0  0  0  0  0  0  0  0  0  0  0
  -22.8834  -12.3655   21.4759 C   0  0  0  0  0  0  0  0  0  0  0  0
  -25.5076  -31.8326   21.3994 C   0  0  0  0  0  0  0  0  0  0  0  0
  -22.6403  -30.5630   22.2295 C   0  0  0  0  0  0  0  0  0  0  0  0
  -20.7052  -27.7773   22.6063 C   0  0  0  0  0  0  0  0  0  0  0  0
  -30.0570  -15.5492   18.7630 C   0  0  0  0  0  0  0  0  0  0  0  0
  -24.8855  -36.4228   23.5444 C   0  0  0  0  0  0  0  0  0  0  0  0
  -24.9919  -30.3985   19.3912 C   0  0  0  0  0  0  0  0  0  0  0  0
  -24.5476  -28.9398   21.9249 C   0  0  0  0  0  0  0  0  0  0  0  0
  -30.3051  -24.1092   21.2807 C   0  0  0  0  0  0  0  0  0  0  0  0
  -30.7013  -21.5493   21.0466 C   0  0  0  0  0  0  0  0  0  0  0  0
  -24.6361  -34.9774   23.9671 C   0  0  0  0  0  0  0  0  0  0  0  0
  -29.4022  -12.1075   18.4589 C   0  0  0  0  0  0  0  0  0  0  0  0
  -25.8653  -34.1191   23.6855 C   0  0  0  0  0  0  0  0  0  0  0  0
  -28.1823  -11.8762   19.3482 C   0  0  0  0  0  0  0  0  0  0  0  0
  -30.3573  -13.1088   19.0964 C   0  0  0  0  0  0  0  0  0  0  0  0
  -28.4923  -14.2227   20.2873 C   0  0  0  0  0  0  0  0  0  0  0  0
  -26.1881  -34.0927   22.1866 C   0  0  1  0  0  0  0  0  0  0  0  0
  -24.4459  -31.0950   20.6337 C   0  0  1  0  0  0  0  0  0  0  0  0
  -27.4948  -13.2081   19.6916 C   0  0  2  0  0  0  0  0  0  0  0  0
  -18.4167  -27.0526   23.3378 C   0  0  0  0  0  0  0  0  0  0  0  0
  -23.4479  -30.9634   25.1445 C   0  0  0  0  0  0  0  0  0  0  0  0
  -21.6082  -29.3955   25.7969 C   0  0  0  0  0  0  0  0  0  0  0  0
  -21.0674  -31.5349   24.6336 C   0  0  0  0  0  0  0  0  0  0  0  0
  -20.0854  -26.6458   19.9428 C   0  0  0  0  0  0  0  0  0  0  0  0
  -28.8332  -25.2315   19.5253 C   0  0  0  0  0  0  0  0  0  1  0  0
  -22.1517  -29.6570   23.3337 C   0  0  1  0  0  0  0  0  0  0  0  0
  -19.2870  -27.4683   22.1619 C   0  0  2  0  0  0  0  0  0  0  0  0
  -22.0891  -30.3794   24.7090 C   0  0  0  0  0  0  0  0  0  0  0  0
  -26.4594  -13.0885   21.9271 N   0  0  0  0  0  0  0  0  0  0  0  0
  -26.2930  -13.0051   20.5961 N   0  0  0  0  0  0  0  0  0  0  0  0
  -30.0717  -21.6452   19.7213 N   0  0  0  0  0  0  0  0  0  0  0  0
  -23.8121  -30.1650   21.5706 N   0  0  0  0  0  0  0  0  0  0  0  0
  -29.6761  -14.3626   19.4240 N   0  0  0  0  0  0  0  0  0  0  0  0
  -24.6679  -12.6212   18.9162 N   0  0  0  0  0  0  0  0  0  0  0  0
  -21.9906  -13.4459   21.4746 N   0  0  0  0  0  0  0  0  0  0  0  0
  -25.2910  -33.1942   21.4922 N   0  0  0  0  0  0  0  0  0  0  0  0
  -20.8731  -29.1175   22.8834 N   0  0  0  0  0  0  0  0  0  0  0  0
  -29.9820  -16.7441   19.5325 N   0  0  0  0  0  0  0  0  0  0  0  0
  -19.2865  -26.3626   21.1628 N   0  3  0  0  0  0  0  0  0  0  0  0
  -32.2702  -23.0176   22.1021 O   0  0  0  0  0  0  0  0  0  0  0  0
  -22.4347  -11.1984   21.5763 O   0  0  0  0  0  0  0  0  0  0  0  0
  -26.4526  -31.2122   21.8724 O   0  0  0  0  0  0  0  0  0  0  0  0
  -22.0017  -31.5826   21.9567 O   0  0  0  0  0  0  0  0  0  0  0  0
  -21.5760  -26.9152   22.7020 O   0  0  0  0  0  0  0  0  0  0  0  0
  -30.5003  -15.5253   17.6083 O   0  0  0  0  0  0  0  0  0  0  0  0
  -24.3015  -12.8909   27.9147 O   0  0  0  0  0  0  0  0  0  0  0  0
  -27.9012  -25.6689   20.5134 O   0  0  0  0  0  0  0  0  0  1  0  0
  -19.5571  -10.7433   29.7264 F   0  0  0  0  0  0  0  0  0  0  0  0
  -24.2901  -10.7458   29.6585 F   0  0  0  0  0  0  0  0  0  0  0  0
  1  2  3  0  0  0  0
  2 76  1  0  0  0  0
  3  4  1  0  0  0  0
  3  8  2  0  0  0  0
  4  9  2  0  0  0  0
  5 11  1  0  0  0  0
  5 12  2  0  0  0  0
  6 13  2  0  0  0  0
  6 21  1  0  0  0  0
  7 14  1  0  0  0  0
  7 21  2  0  0  0  0
  8 23  1  0  0  0  0
  9 25  1  0  0  0  0
 10 15  2  0  0  0  0
 10 24  1  0  0  0  0
 11 27  2  0  0  0  0
 12 28  1  0  0  0  0
 13 29  1  0  0  0  0
 14 29  2  0  0  0  0
 15 30  1  0  0  0  0
 16 17  2  0  0  0  0
 16 31  1  0  0  0  0
 17 32  1  0  0  0  0
 18 26  1  0  0  0  0
 18 30  2  0  0  0  0
 19 27  1  0  0  0  0
 19 28  2  0  0  0  0
 20 32  2  0  0  0  0
 20 33  1  0  0  0  0
 21 34  1  0  0  0  0
 22 34  1  0  0  0  0
 22 35  2  0  0  0  0
 22 39  1  0  0  0  0
 23 25  2  0  0  0  0
 23 44  1  0  0  0  0
 24 26  2  0  0  0  0
 24 45  1  0  0  0  0
 25 55  1  0  0  0  0
 26 46  1  0  0  0  0
 27 69  1  0  0  0  0
 28 76  1  0  0  0  0
 29 84  1  0  0  0  0
 30 85  1  0  0  0  0
 31 33  2  0  0  0  0
 31 84  1  0  0  0  0
 32 86  1  0  0  0  0
 33 87  1  0  0  0  0
 34 67  2  0  0  0  0
 35 68  1  0  0  0  0
 35 72  1  0  0  0  0
 36 37  2  0  0  0  0
 36 69  1  0  0  0  0
 37 47  1  0  0  0  0
 37 63  1  0  0  0  0
 38 47  1  0  0  0  0
 38 48  1  0  0  0  0
 38 78  2  0  0  0  0
 39 73  1  0  0  0  0
 39 79  2  0  0  0  0
 40 56  1  0  0  0  0
 40 74  1  0  0  0  0
 40 80  2  0  0  0  0
 41 64  1  0  0  0  0
 41 70  1  0  0  0  0
 41 81  2  0  0  0  0
 42 65  1  0  0  0  0
 42 75  1  0  0  0  0
 42 82  2  0  0  0  0
 43 71  1  0  0  0  0
 43 76  1  0  0  0  0
 43 83  2  0  0  0  0
 44 49  1  0  0  0  0
 45 56  1  0  0  0  0
 46 70  1  0  0  0  0
 48 69  1  0  0  0  0
 49 51  1  0  0  0  0
 50 52  1  0  0  0  0
 50 53  1  0  0  0  0
 51 55  1  0  0  0  0
 52 57  1  0  0  0  0
 53 71  1  0  0  0  0
 54 57  1  0  0  0  0
 54 71  1  0  0  0  0
 55 74  1  0  0  0  0
 56 70  1  0  0  0  0
 57 68  1  0  0  0  0
 58 65  1  0  0  0  0
 59 66  1  0  0  0  0
 60 66  1  0  0  0  0
 61 66  1  0  0  0  0
 62 77  1  0  0  0  0
 63 85  1  0  0  0  0
 64 66  1  0  0  0  0
 64 75  1  0  0  0  0
 65 77  1  0  0  0  0
 67 68  1  0  0  0  0
M  CHG  1  77   1
M  ISO  4  43 100  63 101  76 100  85 101
M  END
> <Batch ID>
0091

> <Smiles>
C#C[100N:0](c1cccc(N2C=C([101CH2:1][101O:1]c3ccc4c(c3)CN(C(=O)C(NC(=O)C(C)NC)C(C)(C)C)C(C(=O)NC3CCCc5ccccc53)C4)CC(=O)C2)c1)[100C:0](=O)N1CCCC(n2nc(-c3ccc(Oc4ccc(F)cc4F)cc3)c(C(N)=O)c2N)C1

> <Shape>
0.294

> <Color>
0.083

> <Negative vol penalty>
0.000

$$$$

  -OEChem-04052300313D

 85 93  0     1  0  0  0  0  0999 V2000
  -28.2448  -33.5741   25.8812 C   0  0  0  0  0  0  0  0  0  0  0  0
  -28.3488  -32.3366   25.2541 C   0  0  0  0  0  0  0  0  0  0  0  0
  -26.0444  -12.7902   21.6460 C   0  0  0  0  0  0  0  0  0  0  0  0
  -25.8432  -12.3969   19.2708 C   0  0  0  0  0  0  0  0  0  0  0  0
  -26.9924  -34.0660   26.2466 C   0  0  0  0  0  0  0  0  0  0  0  0
  -27.2005  -31.5898   24.9930 C   0  0  0  0  0  0  0  0  0  0  0  0
  -27.1800  -29.6255   20.3255 C   0  0  0  0  0  0  0  0  0  0  0  0
  -24.7187  -12.3947   21.8239 C   0  0  0  0  0  0  0  0  0  0  0  0
  -24.5174  -12.0013   19.4486 C   0  0  0  0  0  0  0  0  0  0  0  0
  -27.9591  -28.4897   20.1092 C   0  0  0  0  0  0  0  0  0  0  0  0
  -21.1890  -10.5437   19.3246 C   0  0  0  0  0  0  0  0  0  0  0  0
  -20.7604   -9.3932   18.6627 C   0  0  0  0  0  0  0  0  0  0  0  0
  -32.5760  -22.1761   15.1945 C   0  0  0  0  0  0  0  0  0  0  0  0
  -30.8283  -22.8648   16.7137 C   0  0  0  0  0  0  0  0  0  0  0  0
  -25.9895  -27.1100   20.2988 C   0  0  0  0  0  0  0  0  0  0  0  0
  -22.4289   -8.0972   19.8346 C   0  0  0  0  0  0  0  0  0  0  0  0
  -26.6067  -12.7913   20.3695 C   0  0  0  0  0  0  0  0  0  0  0  0
  -31.4242  -21.8815   15.9239 C   0  0  0  0  0  0  0  0  0  0  0  0
  -29.1203  -12.3814   20.2234 C   0  0  0  0  0  0  0  0  0  0  0  0
  -25.8274  -33.3292   25.9811 C   0  0  0  0  0  0  0  0  0  0  0  0
  -25.7992  -29.5110   20.5412 C   0  0  0  0  0  0  0  0  0  0  0  0
  -25.9315  -32.0718   25.3564 C   0  0  0  0  0  0  0  0  0  0  0  0
  -25.1947  -28.2460   20.5150 C   0  0  0  0  0  0  0  0  0  0  0  0
  -33.1322  -23.4539   15.2549 C   0  0  0  0  0  0  0  0  0  0  0  0
  -31.3844  -24.1427   16.7741 C   0  0  0  0  0  0  0  0  0  0  0  0
  -32.5363  -24.4372   16.0447 C   0  0  0  0  0  0  0  0  0  0  0  0
  -23.9552  -12.0002   20.7252 C   0  0  0  0  0  0  0  0  0  0  0  0
  -27.3643  -27.2315   20.0987 C   0  0  0  0  0  0  0  0  0  0  0  0
  -22.2377  -10.4710   20.2415 C   0  0  0  0  0  0  0  0  0  0  0  0
  -21.3803   -8.1700   18.9177 C   0  0  0  0  0  0  0  0  0  0  0  0
  -22.8576   -9.2478   20.4965 C   0  0  0  0  0  0  0  0  0  0  0  0
  -27.9759  -13.2003   20.1850 C   0  0  0  0  0  0  0  0  0  0  0  0
  -30.1658  -13.2413   19.9916 C   0  0  0  0  0  0  0  0  0  0  0  0
  -30.8349  -20.5277   15.8599 C   0  0  0  0  0  0  0  0  0  0  0  0
  -29.2285  -10.9695   20.4485 C   0  0  0  0  0  0  0  0  0  0  0  0
  -23.8364  -30.2247   22.9374 C   0  0  0  0  0  0  0  0  0  0  0  0
  -21.5486  -29.3645   20.8046 C   0  0  0  0  0  0  0  0  0  0  0  0
  -29.6173  -24.9753   18.3609 C   0  0  0  0  0  0  0  0  0  0  0  0
  -20.7104  -27.5883   18.0137 C   0  0  0  0  0  0  0  0  0  0  0  0
  -30.1879  -18.4970   17.1383 C   0  0  0  0  0  0  0  0  0  0  0  0
  -24.4999  -33.8809   26.4373 C   0  0  0  0  0  0  0  0  0  0  0  0
  -24.9685  -30.7480   20.7464 C   0  0  0  0  0  0  0  0  0  0  0  0
  -23.7131  -28.0707   20.7212 C   0  0  0  0  0  0  0  0  0  0  0  0
  -23.3001  -33.1963   25.7876 C   0  0  0  0  0  0  0  0  0  0  0  0
  -31.4923  -17.7812   20.5359 C   0  0  0  0  0  0  0  0  0  0  0  0
  -23.4667  -31.6804   25.8229 C   0  0  0  0  0  0  0  0  0  0  0  0
  -30.7646  -16.4792   20.8523 C   0  0  0  0  0  0  0  0  0  0  0  0
  -30.6666  -18.7008   19.6373 C   0  0  0  0  0  0  0  0  0  0  0  0
  -29.4784  -16.7307   18.6976 C   0  0  0  0  0  0  0  0  0  0  0  0
  -24.7069  -31.2433   25.0340 C   0  0  1  0  0  0  0  0  0  0  0  0
  -23.6524  -30.4714   21.4667 C   0  0  1  0  0  0  0  0  0  0  0  0
  -30.3265  -15.7817   19.5567 C   0  0  2  0  0  0  0  0  0  0  0  0
  -18.7565  -27.0516   16.5333 C   0  0  0  0  0  0  0  0  0  0  0  0
  -20.4803  -27.4390   22.9168 C   0  0  0  0  0  0  0  0  0  0  0  0
  -19.1848  -26.2866   21.1108 C   0  0  0  0  0  0  0  0  0  0  0  0
  -18.7173  -28.6776   21.6471 C   0  0  0  0  0  0  0  0  0  0  0  0
  -22.0197  -28.7979   15.6512 C   0  0  0  0  0  0  0  0  0  0  0  0
  -29.2843  -26.2727   19.0739 C   0  0  0  0  0  0  0  0  0  1  0  0
  -20.8562  -28.0729   20.4423 C   0  0  1  0  0  0  0  0  0  0  0  0
  -19.9398  -27.9782   16.7652 C   0  0  2  0  0  0  0  0  0  0  0  0
  -19.8379  -27.6218   21.5273 C   0  0  0  0  0  0  0  0  0  0  0  0
  -28.2669  -14.4821   19.9476 N   0  0  0  0  0  0  0  0  0  0  0  0
  -29.6060  -14.4751   19.8349 N   0  0  0  0  0  0  0  0  0  0  0  0
  -22.9445  -29.3100   20.9242 N   0  0  0  0  0  0  0  0  0  0  0  0
  -30.1636  -18.0031   18.4459 N   0  0  0  0  0  0  0  0  0  0  0  0
  -34.2990  -23.7289   14.5068 N   0  0  0  0  0  0  0  0  0  0  0  0
  -33.1013  -25.7339   16.1060 N   0  0  0  0  0  0  0  0  0  0  0  0
  -31.5003  -13.0549   19.9086 N   0  0  0  0  0  0  0  0  0  0  0  0
  -28.0547  -10.2364   20.6701 N   0  0  0  0  0  0  0  0  0  0  0  0
  -30.7607  -25.1220   17.5830 N   0  0  0  0  0  0  0  0  0  0  0  0
  -30.7338  -19.8303   17.0020 N   0  0  0  0  0  0  0  0  0  0  0  0
  -24.4369  -31.2703   23.6124 N   0  0  0  0  0  0  0  0  0  0  0  0
  -20.2704  -28.2800   19.1223 N   0  0  0  0  0  0  0  0  0  0  0  0
  -30.4447  -20.0808   14.6664 N   0  3  0  0  0  0  0  0  0  0  0  0
  -20.8264  -27.9167   15.5690 N   0  3  0  0  0  0  0  0  0  0  0  0
  -30.3347  -10.3784   20.4692 O   0  0  0  0  0  0  0  0  0  0  0  0
  -23.4599  -29.1650   23.4240 O   0  0  0  0  0  0  0  0  0  0  0  0
  -20.8765  -30.3858   20.9683 O   0  0  0  0  0  0  0  0  0  0  0  0
  -28.9265  -23.9710   18.4984 O   0  0  0  0  0  0  0  0  0  0  0  0
  -21.6100  -26.7508   18.0068 O   0  0  0  0  0  0  0  0  0  0  0  0
  -29.7669  -17.9113   16.1465 O   0  0  0  0  0  0  0  0  0  0  0  0
  -22.6616  -11.6140   20.8984 O   0  0  0  0  0  0  0  0  0  0  0  0
  -28.1226  -26.1212   19.8885 O   0  0  0  0  0  0  0  0  0  1  0  0
  -20.9675   -7.0649   18.2831 F   0  0  0  0  0  0  0  0  0  0  0  0
  -23.8648   -9.1715   21.3772 F   0  0  0  0  0  0  0  0  0  0  0  0
  1  2  1  0  0  0  0
  1  5  2  0  0  0  0
  2  6  2  0  0  0  0
  3  8  2  0  0  0  0
  3 17  1  0  0  0  0
  4  9  1  0  0  0  0
  4 17  2  0  0  0  0
  5 20  1  0  0  0  0
  6 22  1  0  0  0  0
  7 10  2  0  0  0  0
  7 21  1  0  0  0  0
  8 27  1  0  0  0  0
  9 27  2  0  0  0  0
 10 28  1  0  0  0  0
 11 12  2  0  0  0  0
 11 29  1  0  0  0  0
 12 30  1  0  0  0  0
 13 18  1  0  0  0  0
 13 24  2  0  0  0  0
 14 18  2  0  0  0  0
 14 25  1  0  0  0  0
 15 23  1  0  0  0  0
 15 28  2  0  0  0  0
 16 30  2  0  0  0  0
 16 31  1  0  0  0  0
 17 32  1  0  0  0  0
 18 34  1  0  0  0  0
 19 32  1  0  0  0  0
 19 33  2  0  0  0  0
 19 35  1  0  0  0  0
 20 22  2  0  0  0  0
 20 41  1  0  0  0  0
 21 23  2  0  0  0  0
 21 42  1  0  0  0  0
 22 50  1  0  0  0  0
 23 43  1  0  0  0  0
 24 26  1  0  0  0  0
 24 66  1  0  0  0  0
 25 26  2  0  0  0  0
 25 70  1  0  0  0  0
 26 67  1  0  0  0  0
 27 82  1  0  0  0  0
 28 83  1  0  0  0  0
 29 31  2  0  0  0  0
 29 82  1  0  0  0  0
 30 84  1  0  0  0  0
 31 85  1  0  0  0  0
 32 62  2  0  0  0  0
 33 63  1  0  0  0  0
 33 68  1  0  0  0  0
 34 71  1  0  0  0  0
 34 74  2  0  0  0  0
 35 69  1  0  0  0  0
 35 76  2  0  0  0  0
 36 51  1  0  0  0  0
 36 72  1  0  0  0  0
 36 77  2  0  0  0  0
 37 59  1  0  0  0  0
 37 64  1  0  0  0  0
 37 78  2  0  0  0  0
 38 58  1  0  0  0  0
 38 70  1  0  0  0  0
 38 79  2  0  0  0  0
 39 60  1  0  0  0  0
 39 73  1  0  0  0  0
 39 80  2  0  0  0  0
 40 65  1  0  0  0  0
 40 71  1  0  0  0  0
 40 81  2  0  0  0  0
 41 44  1  0  0  0  0
 42 51  1  0  0  0  0
 43 64  1  0  0  0  0
 44 46  1  0  0  0  0
 45 47  1  0  0  0  0
 45 48  1  0  0  0  0
 46 50  1  0  0  0  0
 47 52  1  0  0  0  0
 48 65  1  0  0  0  0
 49 52  1  0  0  0  0
 49 65  1  0  0  0  0
 50 72  1  0  0  0  0
 51 64  1  0  0  0  0
 52 63  1  0  0  0  0
 53 60  1  0  0  0  0
 54 61  1  0  0  0  0
 55 61  1  0  0  0  0
 56 61  1  0  0  0  0
 57 75  1  0  0  0  0
 58 83  1  0  0  0  0
 59 61  1  0  0  0  0
 59 73  1  0  0  0  0
 60 75  1  0  0  0  0
 62 63  1  0  0  0  0
M  CHG  2  74   1  75   1
M  ISO  4  40 100  58 101  71 100  83 101
M  END
> <Batch ID>
0091

> <Smiles>
CNC(C)C(=O)NC(C(=O)N1Cc2cc([101O:1][101CH2:1]C(=O)Nc3cc(C(=N)[100NH:0][100C:0](=O)N4CCCC(n5nc(-c6ccc(Oc7ccc(F)cc7F)cc6)c(C(N)=O)c5N)C4)cc(N)c3N)ccc2CC1C(=O)NC1CCCc2ccccc21)C(C)(C)C

> <Shape>
0.312

> <Color>
0.080

> <Negative vol penalty>
0.000

$$$$

  -OEChem-04052300313D

 85 94  0     1  0  0  0  0  0999 V2000
  -30.1821  -36.1391   23.6128 C   0  0  0  0  0  0  0  0  0  0  0  0
  -30.2431  -35.2004   22.5878 C   0  0  0  0  0  0  0  0  0  0  0  0
  -24.7912   -8.6765   21.5909 C   0  0  0  0  0  0  0  0  0  0  0  0
  -23.2221  -10.0753   20.4000 C   0  0  0  0  0  0  0  0  0  0  0  0
  -29.5273  -35.8276   24.8036 C   0  0  0  0  0  0  0  0  0  0  0  0
  -29.6502  -33.9493   22.7534 C   0  0  0  0  0  0  0  0  0  0  0  0
  -26.2993  -28.8232   19.0371 C   0  0  0  0  0  0  0  0  0  0  0  0
  -23.7620   -8.2255   22.4173 C   0  0  0  0  0  0  0  0  0  0  0  0
  -22.1929   -9.6243   21.2264 C   0  0  0  0  0  0  0  0  0  0  0  0
  -26.3579  -27.4503   18.8019 C   0  0  0  0  0  0  0  0  0  0  0  0
  -21.2212   -6.0014   22.2436 C   0  0  0  0  0  0  0  0  0  0  0  0
  -21.1484   -4.6322   22.5000 C   0  0  0  0  0  0  0  0  0  0  0  0
  -25.1852  -27.0517   20.8720 C   0  0  0  0  0  0  0  0  0  0  0  0
  -25.1352  -19.8345   18.0412 C   0  0  0  0  0  0  0  0  0  0  0  0
  -27.0416  -18.6134   18.8845 C   0  0  0  0  0  0  0  0  0  0  0  0
  -25.3023  -17.4524   17.6745 C   0  0  0  0  0  0  0  0  0  0  0  0
  -21.4070   -5.0610   24.8635 C   0  0  0  0  0  0  0  0  0  0  0  0
  -24.5213   -9.6014   20.5822 C   0  0  0  0  0  0  0  0  0  0  0  0
  -26.0056   -9.5035   18.5098 C   0  0  0  0  0  0  0  0  0  0  0  0
  -28.9176  -34.5755   24.9803 C   0  0  0  0  0  0  0  0  0  0  0  0
  -25.6918  -29.3211   20.1988 C   0  0  0  0  0  0  0  0  0  0  0  0
  -28.9877  -33.6203   23.9483 C   0  0  0  0  0  0  0  0  0  0  0  0
  -25.1180  -28.4316   21.1183 C   0  0  0  0  0  0  0  0  0  0  0  0
  -26.3504  -19.8145   18.7256 C   0  0  0  0  0  0  0  0  0  0  0  0
  -24.6111  -18.6535   17.5157 C   0  0  0  0  0  0  0  0  0  0  0  0
  -26.5176  -17.4323   18.3589 C   0  0  0  0  0  0  0  0  0  0  0  0
  -22.4629   -8.6994   22.2351 C   0  0  0  0  0  0  0  0  0  0  0  0
  -25.8034  -26.5642   19.7208 C   0  0  0  0  0  0  0  0  0  0  0  0
  -21.3870   -6.9004   23.2972 C   0  0  0  0  0  0  0  0  0  0  0  0
  -21.2413   -4.1620   23.8099 C   0  0  0  0  0  0  0  0  0  0  0  0
  -21.4798   -6.4302   24.6072 C   0  0  0  0  0  0  0  0  0  0  0  0
  -25.5841  -10.0680   19.7286 C   0  0  0  0  0  0  0  0  0  0  0  0
  -27.0373  -10.3102   18.0963 C   0  0  0  0  0  0  0  0  0  0  0  0
  -27.0989  -23.2220   19.8064 C   0  0  0  0  0  0  0  0  0  0  0  0
  -28.2659  -22.4683   20.3188 C   0  0  0  0  0  0  0  0  0  0  0  0
  -26.9402  -24.5353   19.9702 C   0  0  0  0  0  0  0  0  0  1  0  0
  -25.5087   -8.3527   17.8137 C   0  0  0  0  0  0  0  0  0  0  0  0
  -26.6829  -31.0170   22.6979 C   0  0  0  0  0  0  0  0  0  0  0  0
  -23.5309  -31.0018   23.4643 C   0  0  0  0  0  0  0  0  0  0  0  0
  -20.4859  -29.4883   23.1739 C   0  0  0  0  0  0  0  0  0  0  0  0
  -28.4384  -16.0188   19.1706 C   0  0  0  0  0  0  0  0  0  0  0  0
  -28.2620  -34.2675   26.3032 C   0  0  0  0  0  0  0  0  0  0  0  0
  -25.6132  -30.8061   20.4247 C   0  0  0  0  0  0  0  0  0  0  0  0
  -24.4365  -28.9161   22.3710 C   0  0  0  0  0  0  0  0  0  0  0  0
  -26.1913  -22.2624   19.1100 C   0  0  0  0  0  0  0  0  0  0  0  0
  -28.1301  -21.0164   19.9615 C   0  0  0  0  0  0  0  0  0  0  0  0
  -27.3360  -33.0548   26.2563 C   0  0  0  0  0  0  0  0  0  0  0  0
  -30.4745  -13.1694   19.8125 C   0  0  0  0  0  0  0  0  0  0  0  0
  -28.0127  -31.8940   25.5342 C   0  0  0  0  0  0  0  0  0  0  0  0
  -29.4909  -11.9987   19.7469 C   0  0  0  0  0  0  0  0  0  0  0  0
  -29.8403  -14.4084   20.4419 C   0  0  0  0  0  0  0  0  0  0  0  0
  -27.5907  -13.6648   19.7670 C   0  0  0  0  0  0  0  0  0  0  0  0
  -28.3352  -32.2613   24.0807 C   0  0  1  0  0  0  0  0  0  0  0  0
  -25.4248  -31.1781   21.8922 C   0  0  1  0  0  0  0  0  0  0  0  0
  -28.1643  -12.4140   19.0812 C   0  0  2  0  0  0  0  0  0  0  0  0
  -18.1062  -29.6863   23.9452 C   0  0  0  0  0  0  0  0  0  0  0  0
  -24.3298  -29.9133   26.2005 C   0  0  0  0  0  0  0  0  0  0  0  0
  -21.9424  -29.2480   26.5554 C   0  0  0  0  0  0  0  0  0  0  0  0
  -22.5335  -31.6526   26.2535 C   0  0  0  0  0  0  0  0  0  0  0  0
  -19.4928  -29.8060   20.4041 C   0  0  0  0  0  0  0  0  0  0  0  0
  -22.6299  -30.0935   24.2656 C   0  0  1  0  0  0  0  0  0  0  0  0
  -19.1095  -30.0465   22.8606 C   0  0  2  0  0  0  0  0  0  0  0  0
  -22.8734  -30.2173   25.7962 C   0  0  0  0  0  0  0  0  0  0  0  0
  -26.2906  -11.1498   20.0674 N   0  0  0  0  0  0  0  0  0  0  0  0
  -27.1664  -11.2713   19.0553 N   0  0  0  0  0  0  0  0  0  0  0  0
  -26.8606  -20.9644   19.2375 N   0  0  3  0  0  0  0  0  0  0  0  0
  -24.3909  -30.3767   22.5502 N   0  0  0  0  0  0  0  0  0  0  0  0
  -28.5900  -14.7447   19.7574 N   0  0  0  0  0  0  0  0  0  0  0  0
  -23.3821  -18.6737   16.8239 N   0  0  0  0  0  0  0  0  0  0  0  0
  -27.8378  -10.2841   17.0095 N   0  0  0  0  0  0  0  0  0  0  0  0
  -24.4438   -7.6381   18.3790 N   0  0  0  0  0  0  0  0  0  0  0  0
  -27.2205  -16.2126   18.5196 N   0  0  0  0  0  0  0  0  0  0  0  0
  -27.1420  -32.1905   23.2648 N   0  0  0  0  0  0  0  0  0  0  0  0
  -21.2657  -30.4022   23.8506 N   0  0  0  0  0  0  0  0  0  0  0  0
  -18.6139  -29.5051   21.5635 N   0  3  0  0  0  0  0  0  0  0  0  0
  -29.1994  -22.9529   20.9382 O   0  0  0  0  0  0  0  0  0  0  0  0
  -26.0055   -7.9599   16.7309 O   0  0  0  0  0  0  0  0  0  0  0  0
  -27.1979  -29.9097   22.7990 O   0  0  0  0  0  0  0  0  0  0  0  0
  -23.4688  -32.2215   23.6377 O   0  0  0  0  0  0  0  0  0  0  0  0
  -20.8333  -28.3537   22.8539 O   0  0  0  0  0  0  0  0  0  0  0  0
  -29.3345  -16.8655   19.2170 O   0  0  0  0  0  0  0  0  0  0  0  0
  -21.4583   -8.2594   23.0411 O   0  0  0  0  0  0  0  0  0  0  0  0
  -25.8597  -25.2235   19.4940 O   0  0  0  0  0  0  0  0  0  1  0  0
  -21.1698   -2.8473   24.0561 F   0  0  0  0  0  0  0  0  0  0  0  0
  -21.6379   -7.2891   25.6236 F   0  0  0  0  0  0  0  0  0  0  0  0
  1  2  1  0  0  0  0
  1  5  2  0  0  0  0
  2  6  2  0  0  0  0
  3  8  2  0  0  0  0
  3 18  1  0  0  0  0
  4  9  1  0  0  0  0
  4 18  2  0  0  0  0
  5 20  1  0  0  0  0
  6 22  1  0  0  0  0
  7 10  2  0  0  0  0
  7 21  1  0  0  0  0
  8 27  1  0  0  0  0
  9 27  2  0  0  0  0
 10 28  1  0  0  0  0
 11 12  2  0  0  0  0
 11 29  1  0  0  0  0
 12 30  1  0  0  0  0
 13 23  1  0  0  0  0
 13 28  2  0  0  0  0
 14 24  1  0  0  0  0
 14 25  2  0  0  0  0
 15 24  2  0  0  0  0
 15 26  1  0  0  0  0
 16 25  1  0  0  0  0
 16 26  2  0  0  0  0
 17 30  2  0  0  0  0
 17 31  1  0  0  0  0
 18 32  1  0  0  0  0
 19 32  1  0  0  0  0
 19 33  2  0  0  0  0
 19 37  1  0  0  0  0
 20 22  2  0  0  0  0
 20 42  1  0  0  0  0
 21 23  2  0  0  0  0
 21 43  1  0  0  0  0
 22 53  1  0  0  0  0
 23 44  1  0  0  0  0
 24 66  1  0  0  0  0
 25 69  1  0  0  0  0
 26 72  1  0  0  0  0
 27 82  1  0  0  0  0
 28 83  1  0  0  0  0
 29 31  2  0  0  0  0
 29 82  1  0  0  0  0
 30 84  1  0  0  0  0
 31 85  1  0  0  0  0
 32 64  2  0  0  0  0
 33 65  1  0  0  0  0
 33 70  1  0  0  0  0
 34 35  1  0  0  0  0
 34 36  2  0  0  0  0
 34 45  1  0  0  0  0
 35 46  1  0  0  0  0
 35 76  2  0  0  0  0
 36 83  1  0  0  0  0
 37 71  1  0  0  0  0
 37 77  2  0  0  0  0
 38 54  1  0  0  0  0
 38 73  1  0  0  0  0
 38 78  2  0  0  0  0
 39 61  1  0  0  0  0
 39 67  1  0  0  0  0
 39 79  2  0  0  0  0
 40 62  1  0  0  0  0
 40 74  1  0  0  0  0
 40 80  2  0  0  0  0
 41 68  1  0  0  0  0
 41 72  1  0  0  0  0
 41 81  2  0  0  0  0
 42 47  1  0  0  0  0
 43 54  1  0  0  0  0
 44 67  1  0  0  0  0
 45 66  1  0  0  0  0
 46 66  1  0  0  0  0
 47 49  1  0  0  0  0
 48 50  1  0  0  0  0
 48 51  1  0  0  0  0
 49 53  1  0  0  0  0
 50 55  1  0  0  0  0
 51 68  1  0  0  0  0
 52 55  1  0  0  0  0
 52 68  1  0  0  0  0
 53 73  1  0  0  0  0
 54 67  1  0  0  0  0
 55 65  1  0  0  0  0
 56 62  1  0  0  0  0
 57 63  1  0  0  0  0
 58 63  1  0  0  0  0
 59 63  1  0  0  0  0
 60 75  1  0  0  0  0
 61 63  1  0  0  0  0
 61 74  1  0  0  0  0
 62 75  1  0  0  0  0
 64 65  1  0  0  0  0
M  CHG  1  75   1
M  ISO  4  36 101  41 100  72 100  83 101
M  END
> <Batch ID>
0091

> <Smiles>
CNC(C)C(=O)NC(C(=O)N1Cc2cc([101O:1][101CH:1]=C3CN(c4cc(N)cc([100NH:0][100C:0](=O)N5CCCC(n6nc(-c7ccc(Oc8ccc(F)cc8F)cc7)c(C(N)=O)c6N)C5)c4)CC3=O)ccc2CC1C(=O)NC1CCCc2ccccc21)C(C)(C)C

> <Shape>
0.284

> <Color>
0.103

> <Negative vol penalty>
0.000

$$$$

  -OEChem-04052300313D

 83 91  0     1  0  0  0  0  0999 V2000
  -28.2862  -33.5560   25.8947 C   0  0  0  0  0  0  0  0  0  0  0  0
  -28.3802  -32.3160   25.2710 C   0  0  0  0  0  0  0  0  0  0  0  0
  -33.1461  -23.4010   15.3252 C   0  0  0  0  0  0  0  0  0  0  0  0
  -26.0255  -12.6558   21.5407 C   0  0  0  0  0  0  0  0  0  0  0  0
  -25.8545  -12.2815   19.1600 C   0  0  0  0  0  0  0  0  0  0  0  0
  -32.5964  -22.1215   15.2465 C   0  0  0  0  0  0  0  0  0  0  0  0
  -27.0372  -34.0631   26.2508 C   0  0  0  0  0  0  0  0  0  0  0  0
  -27.2252  -31.5818   25.0041 C   0  0  0  0  0  0  0  0  0  0  0  0
  -27.2127  -29.6072   20.3409 C   0  0  0  0  0  0  0  0  0  0  0  0
  -32.5366  -24.3746   16.1166 C   0  0  0  0  0  0  0  0  0  0  0  0
  -24.6994  -12.2536   21.6993 C   0  0  0  0  0  0  0  0  0  0  0  0
  -24.5283  -11.8792   19.3186 C   0  0  0  0  0  0  0  0  0  0  0  0
  -27.9801  -28.4621   20.1322 C   0  0  0  0  0  0  0  0  0  0  0  0
  -22.9759   -9.3473   21.8254 C   0  0  0  0  0  0  0  0  0  0  0  0
  -22.6854   -8.4689   22.8692 C   0  0  0  0  0  0  0  0  0  0  0  0
  -30.8274  -22.7891   16.7506 C   0  0  0  0  0  0  0  0  0  0  0  0
  -25.9936  -27.1053   20.3119 C   0  0  0  0  0  0  0  0  0  0  0  0
  -21.1783  -10.0993   23.8219 C   0  0  0  0  0  0  0  0  0  0  0  0
  -26.6031  -12.6698   20.2711 C   0  0  0  0  0  0  0  0  0  0  0  0
  -31.4370  -21.8155   15.9592 C   0  0  0  0  0  0  0  0  0  0  0  0
  -29.1199  -12.2710   20.1521 C   0  0  0  0  0  0  0  0  0  0  0  0
  -25.8656  -33.3391   25.9794 C   0  0  0  0  0  0  0  0  0  0  0  0
  -25.8292  -29.5089   20.5478 C   0  0  0  0  0  0  0  0  0  0  0  0
  -25.9594  -32.0790   25.3581 C   0  0  0  0  0  0  0  0  0  0  0  0
  -25.2105  -28.2509   20.5204 C   0  0  0  0  0  0  0  0  0  0  0  0
  -31.3772  -24.0686   16.8293 C   0  0  0  0  0  0  0  0  0  0  0  0
  -23.9508  -11.8653   20.5882 C   0  0  0  0  0  0  0  0  0  0  0  0
  -27.3711  -27.2107   20.1206 C   0  0  0  0  0  0  0  0  0  0  0  0
  -22.3678  -10.6018   21.7799 C   0  0  0  0  0  0  0  0  0  0  0  0
  -21.7865   -8.8448   23.8674 C   0  0  0  0  0  0  0  0  0  0  0  0
  -21.4690  -10.9778   22.7781 C   0  0  0  0  0  0  0  0  0  0  0  0
  -27.9728  -13.0857   20.1066 C   0  0  0  0  0  0  0  0  0  0  0  0
  -30.1647  -13.1369   19.9400 C   0  0  0  0  0  0  0  0  0  0  0  0
  -30.8541  -20.4599   15.8769 C   0  0  0  0  0  0  0  0  0  0  0  0
  -29.2311  -10.8577   20.3668 C   0  0  0  0  0  0  0  0  0  0  0  0
  -23.8591  -30.2505   22.9295 C   0  0  0  0  0  0  0  0  0  0  0  0
  -21.5757  -29.4116   20.7837 C   0  0  0  0  0  0  0  0  0  0  0  0
  -29.6094  -24.9249   18.4026 C   0  0  0  0  0  0  0  0  0  0  0  0
  -20.7354  -27.6387   17.9913 C   0  0  0  0  0  0  0  0  0  0  0  0
  -30.1999  -18.4162   17.1306 C   0  0  0  0  0  0  0  0  0  0  0  0
  -24.5416  -33.9069   26.4256 C   0  0  0  0  0  0  0  0  0  0  0  0
  -25.0115  -30.7558   20.7448 C   0  0  0  0  0  0  0  0  0  0  0  0
  -23.7257  -28.0930   20.7173 C   0  0  0  0  0  0  0  0  0  0  0  0
  -23.3383  -33.2345   25.7696 C   0  0  0  0  0  0  0  0  0  0  0  0
  -31.4661  -17.6773   20.5377 C   0  0  0  0  0  0  0  0  0  0  0  0
  -23.4874  -31.7169   25.8093 C   0  0  0  0  0  0  0  0  0  0  0  0
  -30.7400  -16.3699   20.8346 C   0  0  0  0  0  0  0  0  0  0  0  0
  -30.6476  -18.6011   19.6367 C   0  0  0  0  0  0  0  0  0  0  0  0
  -29.4789  -16.6342   18.6666 C   0  0  0  0  0  0  0  0  0  0  0  0
  -24.7275  -31.2638   25.0295 C   0  0  1  0  0  0  0  0  0  0  0  0
  -23.6876  -30.4959   21.4571 C   0  0  1  0  0  0  0  0  0  0  0  0
  -30.3203  -15.6815   19.5280 C   0  0  2  0  0  0  0  0  0  0  0  0
  -18.7852  -27.1210   16.4993 C   0  0  0  0  0  0  0  0  0  0  0  0
  -20.4716  -27.5033   22.8931 C   0  0  0  0  0  0  0  0  0  0  0  0
  -19.1748  -26.3616   21.0812 C   0  0  0  0  0  0  0  0  0  0  0  0
  -18.7312  -28.7590   21.6091 C   0  0  0  0  0  0  0  0  0  0  0  0
  -22.0738  -28.8279   15.6347 C   0  0  0  0  0  0  0  0  0  0  0  0
  -29.2867  -26.2277   19.1105 C   0  0  0  0  0  0  0  0  0  1  0  0
  -20.8709  -28.1271   20.4198 C   0  0  1  0  0  0  0  0  0  0  0  0
  -19.9775  -28.0346   16.7370 C   0  0  2  0  0  0  0  0  0  0  0  0
  -19.8404  -27.6902   21.4990 C   0  0  0  0  0  0  0  0  0  0  0  0
  -28.2614  -14.3706   19.8833 N   0  0  0  0  0  0  0  0  0  0  0  0
  -29.6018  -14.3697   19.7867 N   0  0  0  0  0  0  0  0  0  0  0  0
  -22.9701  -29.3414   20.9125 N   0  0  0  0  0  0  0  0  0  0  0  0
  -30.1618  -17.9113   18.4337 N   0  0  0  0  0  0  0  0  0  0  0  0
  -31.5008  -12.9565   19.8716 N   0  0  0  0  0  0  0  0  0  0  0  0
  -28.0577  -10.1182   20.5681 N   0  0  0  0  0  0  0  0  0  0  0  0
  -30.7594  -25.0569   17.6319 N   0  0  0  0  0  0  0  0  0  0  0  0
  -30.7420  -19.7527   17.0119 N   0  0  0  0  0  0  0  0  0  0  0  0
  -24.4672  -31.2907   23.6061 N   0  0  0  0  0  0  0  0  0  0  0  0
  -20.2962  -28.3380   19.0955 N   0  0  0  0  0  0  0  0  0  0  0  0
  -30.4801  -20.0214   14.6751 N   0  3  0  0  0  0  0  0  0  0  0  0
  -20.8711  -27.9602   15.5466 N   0  3  0  0  0  0  0  0  0  0  0  0
  -30.3394  -10.2708   20.3960 O   0  0  0  0  0  0  0  0  0  0  0  0
  -23.4674  -29.1962   23.4160 O   0  0  0  0  0  0  0  0  0  0  0  0
  -20.9142  -30.4408   20.9407 O   0  0  0  0  0  0  0  0  0  0  0  0
  -28.9063  -23.9290   18.5378 O   0  0  0  0  0  0  0  0  0  0  0  0
  -21.6254  -26.7910   17.9922 O   0  0  0  0  0  0  0  0  0  0  0  0
  -29.7933  -17.8371   16.1290 O   0  0  0  0  0  0  0  0  0  0  0  0
  -22.6568  -11.4725   20.7426 O   0  0  0  0  0  0  0  0  0  0  0  0
  -28.1179  -26.0913   19.9179 O   0  0  0  0  0  0  0  0  0  1  0  0
  -21.5064   -8.0005   24.8688 F   0  0  0  0  0  0  0  0  0  0  0  0
  -20.8807  -12.1812   22.7391 F   0  0  0  0  0  0  0  0  0  0  0  0
  1  2  1  0  0  0  0
  1  7  2  0  0  0  0
  2  8  2  0  0  0  0
  3  6  1  0  0  0  0
  3 10  2  0  0  0  0
  4 11  2  0  0  0  0
  4 19  1  0  0  0  0
  5 12  1  0  0  0  0
  5 19  2  0  0  0  0
  6 20  2  0  0  0  0
  7 22  1  0  0  0  0
  8 24  1  0  0  0  0
  9 13  2  0  0  0  0
  9 23  1  0  0  0  0
 10 26  1  0  0  0  0
 11 27  1  0  0  0  0
 12 27  2  0  0  0  0
 13 28  1  0  0  0  0
 14 15  2  0  0  0  0
 14 29  1  0  0  0  0
 15 30  1  0  0  0  0
 16 20  1  0  0  0  0
 16 26  2  0  0  0  0
 17 25  1  0  0  0  0
 17 28  2  0  0  0  0
 18 30  2  0  0  0  0
 18 31  1  0  0  0  0
 19 32  1  0  0  0  0
 20 34  1  0  0  0  0
 21 32  1  0  0  0  0
 21 33  2  0  0  0  0
 21 35  1  0  0  0  0
 22 24  2  0  0  0  0
 22 41  1  0  0  0  0
 23 25  2  0  0  0  0
 23 42  1  0  0  0  0
 24 50  1  0  0  0  0
 25 43  1  0  0  0  0
 26 68  1  0  0  0  0
 27 80  1  0  0  0  0
 28 81  1  0  0  0  0
 29 31  2  0  0  0  0
 29 80  1  0  0  0  0
 30 82  1  0  0  0  0
 31 83  1  0  0  0  0
 32 62  2  0  0  0  0
 33 63  1  0  0  0  0
 33 66  1  0  0  0  0
 34 69  1  0  0  0  0
 34 72  2  0  0  0  0
 35 67  1  0  0  0  0
 35 74  2  0  0  0  0
 36 51  1  0  0  0  0
 36 70  1  0  0  0  0
 36 75  2  0  0  0  0
 37 59  1  0  0  0  0
 37 64  1  0  0  0  0
 37 76  2  0  0  0  0
 38 58  1  0  0  0  0
 38 68  1  0  0  0  0
 38 77  2  0  0  0  0
 39 60  1  0  0  0  0
 39 71  1  0  0  0  0
 39 78  2  0  0  0  0
 40 65  1  0  0  0  0
 40 69  1  0  0  0  0
 40 79  2  0  0  0  0
 41 44  1  0  0  0  0
 42 51  1  0  0  0  0
 43 64  1  0  0  0  0
 44 46  1  0  0  0  0
 45 47  1  0  0  0  0
 45 48  1  0  0  0  0
 46 50  1  0  0  0  0
 47 52  1  0  0  0  0
 48 65  1  0  0  0  0
 49 52  1  0  0  0  0
 49 65  1  0  0  0  0
 50 70  1  0  0  0  0
 51 64  1  0  0  0  0
 52 63  1  0  0  0  0
 53 60  1  0  0  0  0
 54 61  1  0  0  0  0
 55 61  1  0  0  0  0
 56 61  1  0  0  0  0
 57 73  1  0  0  0  0
 58 81  1  0  0  0  0
 59 61  1  0  0  0  0
 59 71  1  0  0  0  0
 60 73  1  0  0  0  0
 62 63  1  0  0  0  0
M  CHG  2  72   1  73   1
M  ISO  4  40 100  58 101  69 100  81 101
M  END
> <Batch ID>
0091

> <Smiles>
CNC(C)C(=O)NC(C(=O)N1Cc2cc([101O:1][101CH2:1]C(=O)Nc3cccc(C(=N)[100NH:0][100C:0](=O)N4CCCC(n5nc(-c6ccc(Oc7ccc(F)cc7F)cc6)c(C(N)=O)c5N)C4)c3)ccc2CC1C(=O)NC1CCCc2ccccc21)C(C)(C)C

> <Shape>
0.308

> <Color>
0.086

> <Negative vol penalty>
0.000

$$$$

  -OEChem-04052300313D

 87 96  0     1  0  0  0  0  0999 V2000
  -28.4457  -34.6451   16.2489 C   0  0  0  0  0  0  0  0  0  0  0  0
  -28.4317  -33.3020   16.6113 C   0  0  0  0  0  0  0  0  0  0  0  0
  -23.2641  -10.0565   20.0480 C   0  0  0  0  0  0  0  0  0  0  0  0
  -24.8185   -8.5789   21.1605 C   0  0  0  0  0  0  0  0  0  0  0  0
  -28.2512  -35.6293   17.2171 C   0  0  0  0  0  0  0  0  0  0  0  0
  -28.2242  -32.9423   17.9424 C   0  0  0  0  0  0  0  0  0  0  0  0
  -24.9371  -29.1214   18.4327 C   0  0  0  0  0  0  0  0  0  0  0  0
  -22.2165   -9.1906   20.3616 C   0  0  0  0  0  0  0  0  0  0  0  0
  -23.7709   -7.7130   21.4741 C   0  0  0  0  0  0  0  0  0  0  0  0
  -25.4096  -27.8370   18.1669 C   0  0  0  0  0  0  0  0  0  0  0  0
  -21.2821   -7.5399   23.7537 C   0  0  0  0  0  0  0  0  0  0  0  0
  -21.2286   -7.0334   25.0522 C   0  0  0  0  0  0  0  0  0  0  0  0
  -25.6531  -27.4430   20.5343 C   0  0  0  0  0  0  0  0  0  0  0  0
  -28.5528  -19.5827   18.4587 C   0  0  0  0  0  0  0  0  0  0  0  0
  -29.3932  -18.9372   21.0394 C   0  0  0  0  0  0  0  0  0  0  0  0
  -21.3992   -4.7858   24.1825 C   0  0  0  0  0  0  0  0  0  0  0  0
  -24.5651   -9.7507   20.4475 C   0  0  0  0  0  0  0  0  0  0  0  0
  -26.0698  -11.0381   18.8393 C   0  0  0  0  0  0  0  0  0  0  0  0
  -28.0316  -35.2811   18.5592 C   0  0  0  0  0  0  0  0  0  0  0  0
  -24.8292  -29.5809   19.7532 C   0  0  0  0  0  0  0  0  0  0  0  0
  -28.0279  -33.9228   18.9298 C   0  0  0  0  0  0  0  0  0  0  0  0
  -25.1765  -28.7328   20.8144 C   0  0  0  0  0  0  0  0  0  0  0  0
  -28.9344  -20.5933   19.3411 C   0  0  0  0  0  0  0  0  0  0  0  0
  -28.5912  -18.2493   18.8666 C   0  0  0  0  0  0  0  0  0  0  0  0
  -29.0114  -17.9266   20.1569 C   0  0  0  0  0  0  0  0  0  0  0  0
  -22.4699   -8.0189   21.0747 C   0  0  0  0  0  0  0  0  0  0  0  0
  -25.7704  -26.9985   19.2176 C   0  0  0  0  0  0  0  0  0  0  0  0
  -21.3940   -6.6694   22.6695 C   0  0  0  0  0  0  0  0  0  0  0  0
  -21.2871   -5.6564   25.2666 C   0  0  0  0  0  0  0  0  0  0  0  0
  -29.3546  -20.2705   20.6314 C   0  0  0  0  0  0  0  0  0  0  0  0
  -21.4526   -5.2923   22.8840 C   0  0  0  0  0  0  0  0  0  0  0  0
  -25.6478  -10.6444   20.1234 C   0  0  0  0  0  0  0  0  0  0  0  0
  -27.1243  -11.8874   19.0698 C   0  0  0  0  0  0  0  0  0  0  0  0
  -28.1187  -22.9180   19.5467 C   0  0  0  0  0  0  0  0  0  0  0  0
  -28.0599  -24.2134   19.1985 C   0  0  0  0  0  0  0  0  0  0  0  0
  -29.9681  -23.7598   17.6664 C   0  0  0  0  0  0  0  0  0  0  0  0
  -25.5547  -10.6690   17.5532 C   0  0  0  0  0  0  0  0  0  0  0  0
  -26.1461  -31.9454   21.4201 C   0  0  0  0  0  0  0  0  0  0  0  0
  -24.0609  -30.9729   23.7066 C   0  0  0  0  0  0  0  0  0  0  0  0
  -22.8621  -27.8306   25.0126 C   0  0  0  0  0  0  0  0  0  0  0  0
  -29.4594  -16.1117   21.8457 C   0  0  0  0  0  0  0  0  0  0  0  0
  -27.8733  -36.3818   19.5781 C   0  0  0  0  0  0  0  0  0  0  0  0
  -24.2925  -30.9597   20.0243 C   0  0  0  0  0  0  0  0  0  0  0  0
  -25.0601  -29.1710   22.2506 C   0  0  0  0  0  0  0  0  0  0  0  0
  -28.8961  -24.7516   18.0758 C   0  0  0  0  0  0  0  0  0  0  0  0
  -29.6232  -22.2843   17.6912 C   0  0  0  0  0  0  0  0  0  0  0  0
  -27.2868  -35.9045   20.9042 C   0  0  0  0  0  0  0  0  0  0  0  0
  -29.6867  -12.8792   23.3210 C   0  0  0  0  0  0  0  0  0  0  0  0
  -27.9836  -34.6293   21.3679 C   0  0  0  0  0  0  0  0  0  0  0  0
  -28.6909  -12.0420   22.5149 C   0  0  0  0  0  0  0  0  0  0  0  0
  -29.1867  -14.3072   23.5322 C   0  0  0  0  0  0  0  0  0  0  0  0
  -27.7987  -14.1781   21.5010 C   0  0  0  0  0  0  0  0  0  0  0  0
  -27.7812  -33.4921   20.3594 C   0  0  1  0  0  0  0  0  0  0  0  0
  -24.7096  -31.5061   21.3862 C   0  0  1  0  0  0  0  0  0  0  0  0
  -28.2879  -12.7506   21.2069 C   0  0  2  0  0  0  0  0  0  0  0  0
  -20.6884  -27.2482   26.1233 C   0  0  0  0  0  0  0  0  0  0  0  0
  -25.5777  -31.5026   26.3006 C   0  0  0  0  0  0  0  0  0  0  0  0
  -24.3562  -29.5732   27.3272 C   0  0  0  0  0  0  0  0  0  0  0  0
  -23.0869  -31.5623   26.5178 C   0  0  0  0  0  0  0  0  0  0  0  0
  -22.3119  -25.6712   23.0649 C   0  0  0  0  0  0  0  0  0  0  0  0
  -27.1604  -25.1908   19.8928 C   0  0  0  0  0  0  0  0  0  1  0  0
  -24.1027  -29.9716   24.8356 C   0  0  1  0  0  0  0  0  0  0  0  0
  -21.4779  -27.2366   24.8236 C   0  0  2  0  0  0  0  0  0  0  0  0
  -24.2963  -30.6488   26.2217 C   0  0  0  0  0  0  0  0  0  0  0  0
  -26.3750  -11.1981   21.0974 N   0  0  0  0  0  0  0  0  0  0  0  0
  -27.2646  -11.9483   20.4251 N   0  0  0  0  0  0  0  0  0  0  0  0
  -28.8936  -21.9520   18.9237 N   0  0  0  0  0  0  0  0  0  0  0  0
  -24.5361  -30.5302   22.4641 N   0  0  0  0  0  0  0  0  0  0  0  0
  -28.8277  -14.9165   22.2498 N   0  0  0  0  0  0  0  0  0  0  0  0
  -28.1996  -17.2412   17.9571 N   0  0  0  0  0  0  0  0  0  0  0  0
  -27.9360  -12.5806   18.2434 N   0  0  0  0  0  0  0  0  0  0  0  0
  -26.0920   -9.5419   16.9166 N   0  0  0  0  0  0  0  0  0  0  0  0
  -29.0612  -16.5796   20.5939 N   0  0  0  0  0  0  0  0  0  0  0  0
  -26.4569  -32.9249   20.4962 N   0  0  0  0  0  0  0  0  0  0  0  0
  -22.8833  -29.1785   24.7231 N   0  0  0  0  0  0  0  0  0  0  0  0
  -21.5793  -25.8280   24.3477 N   0  3  0  0  0  0  0  0  0  0  0  0
  -31.0469  -24.1495   17.2155 O   0  0  0  0  0  0  0  0  0  0  0  0
  -24.6562  -11.3290   16.9781 O   0  0  0  0  0  0  0  0  0  0  0  0
  -26.9153  -31.4347   22.2259 O   0  0  0  0  0  0  0  0  0  0  0  0
  -23.6161  -32.1040   23.9177 O   0  0  0  0  0  0  0  0  0  0  0  0
  -23.8270  -27.1660   25.3839 O   0  0  0  0  0  0  0  0  0  0  0  0
  -30.3121  -16.6638   22.5457 O   0  0  0  0  0  0  0  0  0  0  0  0
  -21.4478   -7.1738   21.3810 O   0  0  0  0  0  0  0  0  0  0  0  0
  -26.2325  -25.7446   18.9608 O   0  0  0  0  0  0  0  0  0  1  0  0
  -21.2373   -5.1702   26.5138 F   0  0  0  0  0  0  0  0  0  0  0  0
  -29.7259  -21.2337   21.4869 F   0  0  0  0  0  0  0  0  0  0  0  0
  -21.5614   -4.4511   21.8465 F   0  0  0  0  0  0  0  0  0  0  0  0
  1  2  1  0  0  0  0
  1  5  2  0  0  0  0
  2  6  2  0  0  0  0
  3  8  2  0  0  0  0
  3 17  1  0  0  0  0
  4  9  1  0  0  0  0
  4 17  2  0  0  0  0
  5 19  1  0  0  0  0
  6 21  1  0  0  0  0
  7 10  2  0  0  0  0
  7 20  1  0  0  0  0
  8 26  1  0  0  0  0
  9 26  2  0  0  0  0
 10 27  1  0  0  0  0
 11 12  2  0  0  0  0
 11 28  1  0  0  0  0
 12 29  1  0  0  0  0
 13 22  1  0  0  0  0
 13 27  2  0  0  0  0
 14 23  1  0  0  0  0
 14 24  2  0  0  0  0
 15 25  2  0  0  0  0
 15 30  1  0  0  0  0
 16 29  2  0  0  0  0
 16 31  1  0  0  0  0
 17 32  1  0  0  0  0
 18 32  1  0  0  0  0
 18 33  2  0  0  0  0
 18 37  1  0  0  0  0
 19 21  2  0  0  0  0
 19 42  1  0  0  0  0
 20 22  2  0  0  0  0
 20 43  1  0  0  0  0
 21 53  1  0  0  0  0
 22 44  1  0  0  0  0
 23 30  2  0  0  0  0
 23 67  1  0  0  0  0
 24 25  1  0  0  0  0
 24 70  1  0  0  0  0
 25 73  1  0  0  0  0
 26 83  1  0  0  0  0
 27 84  1  0  0  0  0
 28 31  2  0  0  0  0
 28 83  1  0  0  0  0
 29 85  1  0  0  0  0
 30 86  1  0  0  0  0
 31 87  1  0  0  0  0
 32 65  2  0  0  0  0
 33 66  1  0  0  0  0
 33 71  1  0  0  0  0
 34 35  2  0  0  0  0
 34 67  1  0  0  0  0
 35 45  1  0  0  0  0
 35 61  1  0  0  0  0
 36 45  1  0  0  0  0
 36 46  1  0  0  0  0
 36 77  2  0  0  0  0
 37 72  1  0  0  0  0
 37 78  2  0  0  0  0
 38 54  1  0  0  0  0
 38 74  1  0  0  0  0
 38 79  2  0  0  0  0
 39 62  1  0  0  0  0
 39 68  1  0  0  0  0
 39 80  2  0  0  0  0
 40 63  1  0  0  0  0
 40 75  1  0  0  0  0
 40 81  2  0  0  0  0
 41 69  1  0  0  0  0
 41 73  1  0  0  0  0
 41 82  2  0  0  0  0
 42 47  1  0  0  0  0
 43 54  1  0  0  0  0
 44 68  1  0  0  0  0
 46 67  1  0  0  0  0
 47 49  1  0  0  0  0
 48 50  1  0  0  0  0
 48 51  1  0  0  0  0
 49 53  1  0  0  0  0
 50 55  1  0  0  0  0
 51 69  1  0  0  0  0
 52 55  1  0  0  0  0
 52 69  1  0  0  0  0
 53 74  1  0  0  0  0
 54 68  1  0  0  0  0
 55 66  1  0  0  0  0
 56 63  1  0  0  0  0
 57 64  1  0  0  0  0
 58 64  1  0  0  0  0
 59 64  1  0  0  0  0
 60 76  1  0  0  0  0
 61 84  1  0  0  0  0
 62 64  1  0  0  0  0
 62 75  1  0  0  0  0
 63 76  1  0  0  0  0
 65 66  1  0  0  0  0
M  CHG  1  76   1
M  ISO  4  41 100  61 101  73 100  84 101
M  END
> <Batch ID>
0091

> <Smiles>
CNC(C)C(=O)NC(C(=O)N1Cc2cc([101O:1][101CH2:1]C3=CN(c4cc(N)c([100NH:0][100C:0](=O)N5CCCC(n6nc(-c7ccc(Oc8ccc(F)cc8F)cc7)c(C(N)=O)c6N)C5)cc4F)CC(=O)C3)ccc2CC1C(=O)NC1CCCc2ccccc21)C(C)(C)C

> <Shape>
0.302

> <Color>
0.089

> <Negative vol penalty>
0.000

$$$$

  -OEChem-04052300313D

 87 95  0     1  0  0  0  0  0999 V2000
  -18.0862  -28.9479   22.9694 C   0  0  0  0  0  0  0  0  0  0  0  0
  -17.7972  -27.6442   22.5792 C   0  0  0  0  0  0  0  0  0  0  0  0
  -24.7219  -11.3398   19.6697 C   0  0  0  0  0  0  0  0  0  0  0  0
  -27.5969  -25.7883   18.5008 C   0  0  0  0  0  0  0  0  0  0  0  0
  -29.3920  -25.7836   20.1177 C   0  0  0  0  0  0  0  0  0  0  0  0
  -26.0728  -11.4875   19.9839 C   0  0  0  0  0  0  0  0  0  0  0  0
  -19.4101  -29.3827   23.0170 C   0  0  0  0  0  0  0  0  0  0  0  0
  -18.8318  -26.7749   22.2353 C   0  0  0  0  0  0  0  0  0  0  0  0
  -20.6200  -19.8432   22.5003 C   0  0  0  0  0  0  0  0  0  0  0  0
  -23.8057  -12.3198   20.0519 C   0  0  0  0  0  0  0  0  0  0  0  0
  -27.0783  -26.9465   19.0799 C   0  0  0  0  0  0  0  0  0  0  0  0
  -28.8735  -26.9419   20.6968 C   0  0  0  0  0  0  0  0  0  0  0  0
  -21.0701  -18.8146   21.6737 C   0  0  0  0  0  0  0  0  0  0  0  0
  -28.8646  -30.2589   20.0503 C   0  0  0  0  0  0  0  0  0  0  0  0
  -29.7598  -31.2814   20.3642 C   0  0  0  0  0  0  0  0  0  0  0  0
  -25.5915  -13.5950   21.0627 C   0  0  0  0  0  0  0  0  0  0  0  0
  -23.3240  -19.6518   21.8694 C   0  0  0  0  0  0  0  0  0  0  0  0
  -29.1236  -31.1245   22.6896 C   0  0  0  0  0  0  0  0  0  0  0  0
  -28.7537  -25.2068   19.0198 C   0  0  0  0  0  0  0  0  0  0  0  0
  -26.5076  -12.6151   20.6804 C   0  0  0  0  0  0  0  0  0  0  0  0
  -30.2302  -23.9290   17.3782 C   0  0  0  0  0  0  0  0  0  0  0  0
  -20.4621  -28.5154   22.6829 C   0  0  0  0  0  0  0  0  0  0  0  0
  -21.5184  -20.7917   23.0097 C   0  0  0  0  0  0  0  0  0  0  0  0
  -20.1709  -27.1990   22.2772 C   0  0  0  0  0  0  0  0  0  0  0  0
  -22.8831  -20.6899   22.7043 C   0  0  0  0  0  0  0  0  0  0  0  0
  -24.2405  -13.4474   20.7484 C   0  0  0  0  0  0  0  0  0  0  0  0
  -27.7166  -27.5233   20.1778 C   0  0  0  0  0  0  0  0  0  0  0  0
  -22.4218  -18.7205   21.3558 C   0  0  0  0  0  0  0  0  0  0  0  0
  -28.0988  -29.6692   21.0561 C   0  0  0  0  0  0  0  0  0  0  0  0
  -29.8893  -31.7142   21.6838 C   0  0  0  0  0  0  0  0  0  0  0  0
  -28.2283  -30.1020   22.3757 C   0  0  0  0  0  0  0  0  0  0  0  0
  -29.2896  -24.0101   18.4224 C   0  0  0  0  0  0  0  0  0  0  0  0
  -30.4070  -22.5815   17.1792 C   0  0  0  0  0  0  0  0  0  0  0  0
  -23.1216  -15.3849   20.2798 C   0  0  0  0  0  0  0  0  0  0  0  0
  -27.9276  -12.7701   21.0112 C   0  0  0  0  0  0  0  0  0  0  0  0
  -30.8855  -24.9779   16.6529 C   0  0  0  0  0  0  0  0  0  0  0  0
  -30.2267  -15.6644   21.5491 C   0  0  0  0  0  0  0  0  0  0  0  0
  -29.8949  -14.2654   21.4393 C   0  0  0  0  0  0  0  0  0  0  0  0
  -21.8528  -23.9405   22.7313 C   0  0  0  0  0  0  0  0  0  0  0  0
  -24.1698  -23.4993   24.9583 C   0  0  0  0  0  0  0  0  0  0  0  0
  -26.4119  -21.3869   26.4272 C   0  0  0  0  0  0  0  0  0  0  0  0
  -29.7718  -17.9601   20.7599 C   0  0  0  0  0  0  0  0  0  0  0  0
  -21.8741  -29.0450   22.7040 C   0  0  0  0  0  0  0  0  0  0  0  0
  -21.0209  -21.8796   23.9216 C   0  0  0  0  0  0  0  0  0  0  0  0
  -23.8914  -21.6711   23.2420 C   0  0  0  0  0  0  0  0  0  0  0  0
  -22.9362  -27.9487   22.6846 C   0  0  0  0  0  0  0  0  0  0  0  0
  -28.1056  -18.4023   17.5988 C   0  0  0  0  0  0  0  0  0  0  0  0
  -22.6062  -26.9045   21.6227 C   0  0  0  0  0  0  0  0  0  0  0  0
  -28.3220  -19.8970   17.3518 C   0  0  0  0  0  0  0  0  0  0  0  0
  -27.8497  -18.1187   19.0760 C   0  0  0  0  0  0  0  0  0  0  0  0
  -29.1253  -20.1138   19.7498 C   0  0  0  0  0  0  0  0  0  0  0  0
  -21.2673  -26.2188   21.9206 C   0  0  1  0  0  0  0  0  0  0  0  0
  -21.9471  -23.0910   23.9672 C   0  0  1  0  0  0  0  0  0  0  0  0
  -29.4117  -20.4682   18.2791 C   0  0  2  0  0  0  0  0  0  0  0  0
  -28.1936  -21.3236   28.1932 C   0  0  0  0  0  0  0  0  0  0  0  0
  -26.0771  -24.9678   23.0834 C   0  0  0  0  0  0  0  0  0  0  0  0
  -27.9853  -24.0555   24.4229 C   0  0  0  0  0  0  0  0  0  0  0  0
  -26.3197  -25.5691   25.4988 C   0  0  0  0  0  0  0  0  0  0  0  0
  -24.9531  -19.3402   27.9897 C   0  0  0  0  0  0  0  0  0  0  0  0
  -22.1523  -16.4897   20.5767 C   0  0  0  0  0  0  0  0  0  1  0  0
  -25.6492  -23.2017   24.9174 C   0  0  1  0  0  0  0  0  0  0  0  0
  -26.7209  -21.1017   27.8858 C   0  0  2  0  0  0  0  0  0  0  0  0
  -26.4888  -24.4310   24.4688 C   0  0  0  0  0  0  0  0  0  0  0  0
  -28.8962  -22.8097   18.8565 N   0  0  0  0  0  0  0  0  0  0  0  0
  -23.3218  -14.4295   21.1320 N   0  0  0  0  0  0  0  0  0  0  0  0
  -29.5930  -21.9616   18.0810 N   0  0  0  0  0  0  0  0  0  0  0  0
  -23.3550  -22.7206   24.1243 N   0  0  0  0  0  0  0  0  0  0  0  0
  -28.9362  -18.6680   19.8953 N   0  0  0  0  0  0  0  0  0  0  0  0
  -31.1777  -21.8784   16.3226 N   0  0  0  0  0  0  0  0  0  0  0  0
  -30.5885  -26.3066   16.9854 N   0  0  0  0  0  0  0  0  0  0  0  0
  -28.5150  -13.9664   21.1214 N   0  0  0  0  0  0  0  0  0  0  0  0
  -29.5325  -16.5342   20.8104 N   0  0  0  0  0  0  0  0  0  0  0  0
  -21.4263  -25.2333   22.9684 N   0  0  0  0  0  0  0  0  0  0  0  0
  -25.9991  -22.6888   26.2376 N   0  0  0  0  0  0  0  0  0  0  0  0
  -28.6160  -11.6497   21.2203 N   0  3  0  0  0  0  0  0  0  0  0  0
  -31.2229  -15.9288   22.3862 N   0  3  0  0  0  0  0  0  0  0  0  0
  -26.3780  -19.6908   28.2216 N   0  3  0  0  0  0  0  0  0  0  0  0
  -31.6978  -24.7438   15.7261 O   0  0  0  0  0  0  0  0  0  0  0  0
  -30.7150  -13.3826   21.6532 O   0  0  0  0  0  0  0  0  0  0  0  0
  -22.1468  -23.4591   21.6434 O   0  0  0  0  0  0  0  0  0  0  0  0
  -23.7516  -24.3850   25.7081 O   0  0  0  0  0  0  0  0  0  0  0  0
  -26.5290  -20.5406   25.5437 O   0  0  0  0  0  0  0  0  0  0  0  0
  -30.6743  -18.4443   21.4347 O   0  0  0  0  0  0  0  0  0  0  0  0
  -27.2110  -28.6536   20.7429 O   0  0  0  0  0  0  0  0  0  0  0  0
  -22.8681  -17.7080   20.5408 O   0  0  0  0  0  0  0  0  0  1  0  0
  -30.7502  -32.6951   21.9853 F   0  0  0  0  0  0  0  0  0  0  0  0
  -27.4962  -29.5385   23.3464 F   0  0  0  0  0  0  0  0  0  0  0  0
  1  2  1  0  0  0  0
  1  7  2  0  0  0  0
  2  8  2  0  0  0  0
  3  6  1  0  0  0  0
  3 10  2  0  0  0  0
  4 11  2  0  0  0  0
  4 19  1  0  0  0  0
  5 12  1  0  0  0  0
  5 19  2  0  0  0  0
  6 20  2  0  0  0  0
  7 22  1  0  0  0  0
  8 24  1  0  0  0  0
  9 13  2  0  0  0  0
  9 23  1  0  0  0  0
 10 26  1  0  0  0  0
 11 27  1  0  0  0  0
 12 27  2  0  0  0  0
 13 28  1  0  0  0  0
 14 15  2  0  0  0  0
 14 29  1  0  0  0  0
 15 30  1  0  0  0  0
 16 20  1  0  0  0  0
 16 26  2  0  0  0  0
 17 25  1  0  0  0  0
 17 28  2  0  0  0  0
 18 30  2  0  0  0  0
 18 31  1  0  0  0  0
 19 32  1  0  0  0  0
 20 35  1  0  0  0  0
 21 32  1  0  0  0  0
 21 33  2  0  0  0  0
 21 36  1  0  0  0  0
 22 24  2  0  0  0  0
 22 43  1  0  0  0  0
 23 25  2  0  0  0  0
 23 44  1  0  0  0  0
 24 52  1  0  0  0  0
 25 45  1  0  0  0  0
 26 65  1  0  0  0  0
 27 84  1  0  0  0  0
 28 85  1  0  0  0  0
 29 31  2  0  0  0  0
 29 84  1  0  0  0  0
 30 86  1  0  0  0  0
 31 87  1  0  0  0  0
 32 64  2  0  0  0  0
 33 66  1  0  0  0  0
 33 69  1  0  0  0  0
 34 60  1  0  0  0  0
 34 65  2  0  0  0  0
 35 71  1  0  0  0  0
 35 75  2  0  0  0  0
 36 70  1  0  0  0  0
 36 78  2  0  0  0  0
 37 38  1  0  0  0  0
 37 72  1  0  0  0  0
 37 76  2  0  0  0  0
 38 71  1  0  0  0  0
 38 79  2  0  0  0  0
 39 53  1  0  0  0  0
 39 73  1  0  0  0  0
 39 80  2  0  0  0  0
 40 61  1  0  0  0  0
 40 67  1  0  0  0  0
 40 81  2  0  0  0  0
 41 62  1  0  0  0  0
 41 74  1  0  0  0  0
 41 82  2  0  0  0  0
 42 68  1  0  0  0  0
 42 72  1  0  0  0  0
 42 83  2  0  0  0  0
 43 46  1  0  0  0  0
 44 53  1  0  0  0  0
 45 67  1  0  0  0  0
 46 48  1  0  0  0  0
 47 49  1  0  0  0  0
 47 50  1  0  0  0  0
 48 52  1  0  0  0  0
 49 54  1  0  0  0  0
 50 68  1  0  0  0  0
 51 54  1  0  0  0  0
 51 68  1  0  0  0  0
 52 73  1  0  0  0  0
 53 67  1  0  0  0  0
 54 66  1  0  0  0  0
 55 62  1  0  0  0  0
 56 63  1  0  0  0  0
 57 63  1  0  0  0  0
 58 63  1  0  0  0  0
 59 77  1  0  0  0  0
 60 85  1  0  0  0  0
 61 63  1  0  0  0  0
 61 74  1  0  0  0  0
 62 77  1  0  0  0  0
 64 66  1  0  0  0  0
M  CHG  3  75   1  76   1  77   1
M  ISO  4  42 100  60 101  72 100  85 101
M  END
> <Batch ID>
0091

> <Smiles>
CNC(C)C(=O)NC(C(=O)N1Cc2cc([101O:1][101CH:1]=CNc3cccc(C(N)=NC(=O)C(=N)[100NH:0][100C:0](=O)N4CCCC(n5nc(-c6ccc(Oc7ccc(F)cc7F)cc6)c(C(N)=O)c5N)C4)c3)ccc2CC1C(=O)NC1CCCc2ccccc21)C(C)(C)C

> <Shape>
0.245

> <Color>
0.054

> <Negative vol penalty>
0.000

$$$$

  -OEChem-04052300313D

 86 95  0     1  0  0  0  0  0999 V2000
  -16.6450  -29.5163   23.3270 C   0  0  0  0  0  0  0  0  0  0  0  0
  -17.1202  -28.4985   22.5063 C   0  0  0  0  0  0  0  0  0  0  0  0
  -23.4861   -9.9752   22.2095 C   0  0  0  0  0  0  0  0  0  0  0  0
  -23.4485   -9.7423   19.8050 C   0  0  0  0  0  0  0  0  0  0  0  0
  -17.5360  -30.4273   23.8928 C   0  0  0  0  0  0  0  0  0  0  0  0
  -18.4867  -28.3917   22.2500 C   0  0  0  0  0  0  0  0  0  0  0  0
  -23.3298  -22.3653   23.3696 C   0  0  0  0  0  0  0  0  0  0  0  0
  -22.7469   -8.7991   22.3350 C   0  0  0  0  0  0  0  0  0  0  0  0
  -22.7093   -8.5661   19.9306 C   0  0  0  0  0  0  0  0  0  0  0  0
  -24.3144  -21.4233   23.6684 C   0  0  0  0  0  0  0  0  0  0  0  0
  -19.5198   -7.8415   22.0296 C   0  0  0  0  0  0  0  0  0  0  0  0
  -18.4489   -7.8422   22.9233 C   0  0  0  0  0  0  0  0  0  0  0  0
  -25.9623  -23.1847   23.8408 C   0  0  0  0  0  0  0  0  0  0  0  0
  -32.0309  -18.8276   23.3944 C   0  0  0  0  0  0  0  0  0  0  0  0
  -30.2099  -17.2468   23.2474 C   0  0  0  0  0  0  0  0  0  0  0  0
  -32.0860  -17.0724   21.7351 C   0  0  0  0  0  0  0  0  0  0  0  0
  -19.4875   -6.0516   24.1692 C   0  0  0  0  0  0  0  0  0  0  0  0
  -23.8369  -10.4469   20.9445 C   0  0  0  0  0  0  0  0  0  0  0  0
  -24.2350  -12.9470   21.2585 C   0  0  0  0  0  0  0  0  0  0  0  0
  -18.9151  -30.3259   23.6511 C   0  0  0  0  0  0  0  0  0  0  0  0
  -23.6549  -23.7237   23.3205 C   0  0  0  0  0  0  0  0  0  0  0  0
  -19.3969  -29.3031   22.8120 C   0  0  0  0  0  0  0  0  0  0  0  0
  -24.9777  -24.1340   23.5544 C   0  0  0  0  0  0  0  0  0  0  0  0
  -30.7986  -18.3588   23.8494 C   0  0  0  0  0  0  0  0  0  0  0  0
  -32.6746  -18.1844   22.3371 C   0  0  0  0  0  0  0  0  0  0  0  0
  -30.8536  -16.6035   22.1902 C   0  0  0  0  0  0  0  0  0  0  0  0
  -22.3584   -8.0945   21.1956 C   0  0  0  0  0  0  0  0  0  0  0  0
  -25.6275  -21.8320   23.9031 C   0  0  0  0  0  0  0  0  0  0  0  0
  -20.5745   -6.9457   22.2055 C   0  0  0  0  0  0  0  0  0  0  0  0
  -18.4328   -6.9473   23.9932 C   0  0  0  0  0  0  0  0  0  0  0  0
  -20.5583   -6.0508   23.2753 C   0  0  0  0  0  0  0  0  0  0  0  0
  -24.6001  -11.6620   20.8141 C   0  0  0  0  0  0  0  0  0  0  0  0
  -25.2910  -13.7478   20.8981 C   0  0  0  0  0  0  0  0  0  0  0  0
  -28.1861  -20.1629   25.7919 C   0  0  0  0  0  0  0  0  0  0  0  0
  -28.8305  -20.3671   27.1172 C   0  0  0  0  0  0  0  0  0  0  0  0
  -27.2311  -21.0139   25.3971 C   0  0  0  0  0  0  0  0  0  1  0  0
  -23.0475  -13.3780   21.9366 C   0  0  0  0  0  0  0  0  0  0  0  0
  -22.4615  -27.2391   22.7784 C   0  0  0  0  0  0  0  0  0  0  0  0
  -24.4356  -27.3201   25.1250 C   0  0  0  0  0  0  0  0  0  0  0  0
  -26.3357  -26.9145   27.9290 C   0  0  0  0  0  0  0  0  0  0  0  0
  -30.7606  -14.7194   20.5205 C   0  0  0  0  0  0  0  0  0  0  0  0
  -19.8347  -31.3624   24.2467 C   0  0  0  0  0  0  0  0  0  0  0  0
  -22.6396  -24.7676   22.9420 C   0  0  0  0  0  0  0  0  0  0  0  0
  -25.2885  -25.6026   23.4568 C   0  0  0  0  0  0  0  0  0  0  0  0
  -28.6879  -19.0019   24.9842 C   0  0  0  0  0  0  0  0  0  0  0  0
  -30.2003  -19.7560   27.2733 C   0  0  0  0  0  0  0  0  0  0  0  0
  -21.3056  -30.9548   24.2273 C   0  0  0  0  0  0  0  0  0  0  0  0
  -29.2694  -12.8077   17.9131 C   0  0  0  0  0  0  0  0  0  0  0  0
  -21.6872  -30.3976   22.8595 C   0  0  0  0  0  0  0  0  0  0  0  0
  -27.8917  -12.4449   18.4719 C   0  0  0  0  0  0  0  0  0  0  0  0
  -30.9402  -19.6902   25.9395 C   0  0  0  0  0  0  0  0  0  0  0  0
  -30.3427  -12.7988   19.0001 C   0  0  0  0  0  0  0  0  0  0  0  0
  -28.6590  -13.2530   20.7403 C   0  0  0  0  0  0  0  0  0  0  0  0
  -20.8747  -29.1394   22.5302 C   0  0  1  0  0  0  0  0  0  0  0  0
  -22.8423  -26.1025   23.6810 C   0  0  1  0  0  0  0  0  0  0  0  0
  -27.5334  -13.3121   19.6947 C   0  0  2  0  0  0  0  0  0  0  0  0
  -27.3626  -28.2101   29.8170 C   0  0  0  0  0  0  0  0  0  0  0  0
  -26.6027  -28.3442   23.2386 C   0  0  0  0  0  0  0  0  0  0  0  0
  -28.0401  -28.7813   25.2414 C   0  0  0  0  0  0  0  0  0  0  0  0
  -25.8718  -29.9861   24.9776 C   0  0  0  0  0  0  0  0  0  0  0  0
  -24.7875  -25.4126   29.9555 C   0  0  0  0  0  0  0  0  0  0  0  0
  -25.8600  -27.5290   25.5731 C   0  0  1  0  0  0  0  0  0  0  0  0
  -26.1533  -27.4146   29.3507 C   0  0  2  0  0  0  0  0  0  0  0  0
  -26.5833  -28.6342   24.7527 C   0  0  0  0  0  0  0  0  0  0  0  0
  -25.7946  -11.6431   20.2168 N   0  0  0  0  0  0  0  0  0  0  0  0
  -26.1893  -12.9260   20.2833 N   0  0  0  0  0  0  0  0  0  0  0  0
  -30.1537  -19.0031   24.9081 N   0  0  3  0  0  0  0  0  0  0  0  0
  -24.2243  -26.3855   24.1041 N   0  0  0  0  0  0  0  0  0  0  0  0
  -29.9365  -13.6449   20.1244 N   0  0  0  0  0  0  0  0  0  0  0  0
  -33.9206  -18.6587   21.8768 N   0  0  0  0  0  0  0  0  0  0  0  0
  -25.5295  -15.0679   21.0501 N   0  0  0  0  0  0  0  0  0  0  0  0
  -22.0628  -12.4251   22.2306 N   0  0  0  0  0  0  0  0  0  0  0  0
  -30.2558  -15.4733   21.5795 N   0  0  0  0  0  0  0  0  0  0  0  0
  -21.4027  -27.9959   23.2429 N   0  0  0  0  0  0  0  0  0  0  0  0
  -25.8027  -27.7905   27.0072 N   0  0  0  0  0  0  0  0  0  0  0  0
  -25.9576  -26.2677   30.2821 N   0  3  0  0  0  0  0  0  0  0  0  0
  -28.2722  -20.9552   28.0388 O   0  0  0  0  0  0  0  0  0  0  0  0
  -22.8579  -14.5759   22.2572 O   0  0  0  0  0  0  0  0  0  0  0  0
  -23.0828  -27.4183   21.7375 O   0  0  0  0  0  0  0  0  0  0  0  0
  -23.5335  -27.9707   25.6600 O   0  0  0  0  0  0  0  0  0  0  0  0
  -26.8983  -25.8548   27.6627 O   0  0  0  0  0  0  0  0  0  0  0  0
  -31.8220  -14.9701   19.9438 O   0  0  0  0  0  0  0  0  0  0  0  0
  -21.6373   -6.9467   21.3177 O   0  0  0  0  0  0  0  0  0  0  0  0
  -26.5828  -20.9075   24.1987 O   0  0  0  0  0  0  0  0  0  1  0  0
  -17.4051   -6.9492   24.8523 F   0  0  0  0  0  0  0  0  0  0  0  0
  -21.5693   -5.1887   23.4502 F   0  0  0  0  0  0  0  0  0  0  0  0
  1  2  1  0  0  0  0
  1  5  2  0  0  0  0
  2  6  2  0  0  0  0
  3  8  2  0  0  0  0
  3 18  1  0  0  0  0
  4  9  1  0  0  0  0
  4 18  2  0  0  0  0
  5 20  1  0  0  0  0
  6 22  1  0  0  0  0
  7 10  2  0  0  0  0
  7 21  1  0  0  0  0
  8 27  1  0  0  0  0
  9 27  2  0  0  0  0
 10 28  1  0  0  0  0
 11 12  2  0  0  0  0
 11 29  1  0  0  0  0
 12 30  1  0  0  0  0
 13 23  1  0  0  0  0
 13 28  2  0  0  0  0
 14 24  1  0  0  0  0
 14 25  2  0  0  0  0
 15 24  2  0  0  0  0
 15 26  1  0  0  0  0
 16 25  1  0  0  0  0
 16 26  2  0  0  0  0
 17 30  2  0  0  0  0
 17 31  1  0  0  0  0
 18 32  1  0  0  0  0
 19 32  1  0  0  0  0
 19 33  2  0  0  0  0
 19 37  1  0  0  0  0
 20 22  2  0  0  0  0
 20 42  1  0  0  0  0
 21 23  2  0  0  0  0
 21 43  1  0  0  0  0
 22 54  1  0  0  0  0
 23 44  1  0  0  0  0
 24 67  1  0  0  0  0
 25 70  1  0  0  0  0
 26 73  1  0  0  0  0
 27 83  1  0  0  0  0
 28 84  1  0  0  0  0
 29 31  2  0  0  0  0
 29 83  1  0  0  0  0
 30 85  1  0  0  0  0
 31 86  1  0  0  0  0
 32 65  2  0  0  0  0
 33 66  1  0  0  0  0
 33 71  1  0  0  0  0
 34 35  1  0  0  0  0
 34 36  2  0  0  0  0
 34 45  1  0  0  0  0
 35 46  1  0  0  0  0
 35 77  2  0  0  0  0
 36 84  1  0  0  0  0
 37 72  1  0  0  0  0
 37 78  2  0  0  0  0
 38 55  1  0  0  0  0
 38 74  1  0  0  0  0
 38 79  2  0  0  0  0
 39 62  1  0  0  0  0
 39 68  1  0  0  0  0
 39 80  2  0  0  0  0
 40 63  1  0  0  0  0
 40 75  1  0  0  0  0
 40 81  2  0  0  0  0
 41 69  1  0  0  0  0
 41 73  1  0  0  0  0
 41 82  2  0  0  0  0
 42 47  1  0  0  0  0
 43 55  1  0  0  0  0
 44 68  1  0  0  0  0
 45 67  1  0  0  0  0
 46 51  1  0  0  0  0
 47 49  1  0  0  0  0
 48 50  1  0  0  0  0
 48 52  1  0  0  0  0
 49 54  1  0  0  0  0
 50 56  1  0  0  0  0
 51 67  1  0  0  0  0
 52 69  1  0  0  0  0
 53 56  1  0  0  0  0
 53 69  1  0  0  0  0
 54 74  1  0  0  0  0
 55 68  1  0  0  0  0
 56 66  1  0  0  0  0
 57 63  1  0  0  0  0
 58 64  1  0  0  0  0
 59 64  1  0  0  0  0
 60 64  1  0  0  0  0
 61 76  1  0  0  0  0
 62 64  1  0  0  0  0
 62 75  1  0  0  0  0
 63 76  1  0  0  0  0
 65 66  1  0  0  0  0
M  CHG  1  76   1
M  ISO  4  36 101  41 100  73 100  84 101
M  END
> <Batch ID>
0091

> <Smiles>
CNC(C)C(=O)NC(C(=O)N1Cc2cc([101O:1][101CH:1]=C3CN(c4cc(N)cc([100NH:0][100C:0](=O)N5CCCC(n6nc(-c7ccc(Oc8ccc(F)cc8F)cc7)c(C(N)=O)c6N)C5)c4)CCC3=O)ccc2CC1C(=O)NC1CCCc2ccccc21)C(C)(C)C

> <Shape>
0.234

> <Color>
0.176

> <Negative vol penalty>
0.000

$$$$

  -OEChem-04052300313D

 86 95  0     1  0  0  0  0  0999 V2000
  -22.8545  -11.4508   19.9614 C   0  0  0  0  0  0  0  0  0  0  0  0
  -22.3288  -12.7276   19.7921 C   0  0  0  0  0  0  0  0  0  0  0  0
  -30.2993  -28.6167   19.8558 C   0  0  0  0  0  0  0  0  0  0  0  0
  -29.6930  -27.1961   21.7136 C   0  0  0  0  0  0  0  0  0  0  0  0
  -24.0789  -11.2822   20.6067 C   0  0  0  0  0  0  0  0  0  0  0  0
  -23.0268  -13.8366   20.2689 C   0  0  0  0  0  0  0  0  0  0  0  0
  -23.2615  -19.4072   17.7353 C   0  0  0  0  0  0  0  0  0  0  0  0
  -18.1986  -28.1022   23.7735 C   0  0  0  0  0  0  0  0  0  0  0  0
  -19.3125  -28.8019   23.3096 C   0  0  0  0  0  0  0  0  0  0  0  0
  -31.6486  -28.4449   20.1647 C   0  0  0  0  0  0  0  0  0  0  0  0
  -31.0424  -27.0242   22.0225 C   0  0  0  0  0  0  0  0  0  0  0  0
  -22.5726  -20.5893   18.0033 C   0  0  0  0  0  0  0  0  0  0  0  0
  -34.0254  -26.0821   19.7162 C   0  0  0  0  0  0  0  0  0  0  0  0
  -34.9023  -25.8155   18.6648 C   0  0  0  0  0  0  0  0  0  0  0  0
  -24.4056  -21.3380   19.3813 C   0  0  0  0  0  0  0  0  0  0  0  0
  -18.8236  -26.2055   22.4138 C   0  0  0  0  0  0  0  0  0  0  0  0
  -36.1439  -27.8198   19.1920 C   0  0  0  0  0  0  0  0  0  0  0  0
  -21.4803  -25.1208   21.2683 C   0  0  0  0  0  0  0  0  0  0  0  0
  -21.0729  -26.7434   19.7797 C   0  0  0  0  0  0  0  0  0  0  0  0
  -29.3215  -27.9924   20.6303 C   0  0  0  0  0  0  0  0  0  0  0  0
  -27.1445  -27.3779   19.4510 C   0  0  0  0  0  0  0  0  0  0  0  0
  -24.7969  -12.3904   21.0831 C   0  0  0  0  0  0  0  0  0  0  0  0
  -24.5250  -19.1765   18.2980 C   0  0  0  0  0  0  0  0  0  0  0  0
  -24.2613  -13.6826   20.9224 C   0  0  0  0  0  0  0  0  0  0  0  0
  -25.1095  -20.1533   19.1169 C   0  0  0  0  0  0  0  0  0  0  0  0
  -17.9542  -26.8040   23.3257 C   0  0  0  0  0  0  0  0  0  0  0  0
  -22.2135  -24.8353   20.1377 C   0  0  0  0  0  0  0  0  0  0  0  0
  -19.9375  -26.9052   21.9498 C   0  0  0  0  0  0  0  0  0  0  0  0
  -20.1820  -28.2034   22.3977 C   0  0  0  0  0  0  0  0  0  0  0  0
  -32.0202  -27.6486   21.2480 C   0  0  0  0  0  0  0  0  0  0  0  0
  -23.1434  -21.5537   18.8288 C   0  0  0  0  0  0  0  0  0  0  0  0
  -34.2077  -27.2176   20.5056 C   0  0  0  0  0  0  0  0  0  0  0  0
  -21.9556  -25.8617   19.1959 C   0  0  0  0  0  0  0  0  0  0  0  0
  -35.9615  -26.6843   18.4027 C   0  0  0  0  0  0  0  0  0  0  0  0
  -35.2670  -28.0864   20.2435 C   0  0  0  0  0  0  0  0  0  0  0  0
  -27.9275  -28.1700   20.3120 C   0  0  0  0  0  0  0  0  0  0  0  0
  -25.8997  -27.9571   19.4888 C   0  0  0  0  0  0  0  0  0  0  0  0
  -27.5097  -26.2218   18.6856 C   0  0  0  0  0  0  0  0  0  0  0  0
  -25.7332  -17.0118   20.2875 C   0  0  0  0  0  0  0  0  0  0  0  0
  -28.5280  -18.5061   19.5960 C   0  0  0  0  0  0  0  0  0  0  0  0
  -30.1161  -21.3359   18.5389 C   0  0  0  0  0  0  0  0  0  0  0  0
  -21.6702  -30.2339   22.3049 C   0  0  0  0  0  0  0  0  0  0  0  0
  -26.0937  -12.1547   21.8161 C   0  0  0  0  0  0  0  0  0  0  0  0
  -25.2667  -17.9078   17.9776 C   0  0  0  0  0  0  0  0  0  0  0  0
  -26.4723  -19.9628   19.7293 C   0  0  0  0  0  0  0  0  0  0  0  0
  -26.9492  -13.4108   21.9596 C   0  0  0  0  0  0  0  0  0  0  0  0
  -24.3799  -32.3746   21.4377 C   0  0  0  0  0  0  0  0  0  0  0  0
  -26.0968  -14.5870   22.4253 C   0  0  0  0  0  0  0  0  0  0  0  0
  -25.4800  -31.4064   20.9967 C   0  0  0  0  0  0  0  0  0  0  0  0
  -23.5646  -31.8144   22.6019 C   0  0  0  0  0  0  0  0  0  0  0  0
  -24.1097  -29.5045   21.9413 C   0  0  0  0  0  0  0  0  0  0  0  0
  -25.0004  -14.9123   21.4037 C   0  0  1  0  0  0  0  0  0  0  0  0
  -26.3253  -17.5555   19.0181 C   0  0  1  0  0  0  0  0  0  0  0  0
  -24.9163  -29.9971   20.7287 C   0  0  2  0  0  0  0  0  0  0  0  0
  -32.4072  -22.2665   18.1123 C   0  0  0  0  0  0  0  0  0  0  0  0
  -28.9524  -18.8319   22.5999 C   0  0  0  0  0  0  0  0  0  0  0  0
  -30.7025  -20.5499   22.0959 C   0  0  0  0  0  0  0  0  0  0  0  0
  -31.0049  -18.1987   21.3190 C   0  0  0  0  0  0  0  0  0  0  0  0
  -29.5296  -21.7770   15.6718 C   0  0  0  0  0  0  0  0  0  0  0  0
  -16.7631  -26.0567   23.8228 C   0  0  0  0  0  0  0  0  0  0  0  0
  -23.1169  -23.6527   19.9465 C   0  0  0  0  0  0  0  0  0  1  0  0
  -29.2917  -19.6694   20.1813 C   0  0  1  0  0  0  0  0  0  0  0  0
  -31.2086  -21.5523   17.5074 C   0  0  2  0  0  0  0  0  0  0  0  0
  -29.9614  -19.3155   21.5392 C   0  0  0  0  0  0  0  0  0  0  0  0
  -27.2380  -29.1758   20.8568 N   0  0  0  0  0  0  0  0  0  0  0  0
  -20.7911  -26.2831   21.0394 N   0  0  0  0  0  0  0  0  0  0  0  0
  -26.0086  -29.0198   20.3368 N   0  0  0  0  0  0  0  0  0  0  0  0
  -27.1550  -18.7029   19.3912 N   0  0  0  0  0  0  0  0  0  0  0  0
  -23.0593  -30.4794   22.2744 N   0  0  0  0  0  0  0  0  0  0  0  0
  -24.7335  -27.6561   18.8790 N   0  0  0  0  0  0  0  0  0  0  0  0
  -28.8306  -25.7597   18.7624 N   0  0  0  0  0  0  0  0  0  0  0  0
  -21.3057  -28.9373   21.9435 N   0  0  0  0  0  0  0  0  0  0  0  0
  -25.5541  -15.6416   20.2831 N   0  0  0  0  0  0  0  0  0  0  0  0
  -30.2267  -20.1045   19.1494 N   0  0  0  0  0  0  0  0  0  0  0  0
  -17.0343  -25.2639   25.0538 N   0  3  0  0  0  0  0  0  0  0  0  0
  -30.6956  -22.3725   16.3738 N   0  3  0  0  0  0  0  0  0  0  0  0
  -26.6931  -25.6264   17.9426 O   0  0  0  0  0  0  0  0  0  0  0  0
  -25.4604  -17.7784   21.2038 O   0  0  0  0  0  0  0  0  0  0  0  0
  -29.1289  -17.4639   19.3236 O   0  0  0  0  0  0  0  0  0  0  0  0
  -29.2532  -22.1768   18.7817 O   0  0  0  0  0  0  0  0  0  0  0  0
  -20.8615  -31.1171   22.6016 O   0  0  0  0  0  0  0  0  0  0  0  0
  -22.4543  -25.9946   17.9586 O   0  0  0  0  0  0  0  0  0  0  0  0
  -33.3367  -27.4805   21.5496 O   0  0  0  0  0  0  0  0  0  0  0  0
  -22.4729  -22.7081   19.0925 O   0  0  0  0  0  0  0  0  0  1  0  0
  -36.8044  -26.4273   17.3939 F   0  0  0  0  0  0  0  0  0  0  0  0
  -35.4479  -29.1783   20.9991 F   0  0  0  0  0  0  0  0  0  0  0  0
  1  2  1  0  0  0  0
  1  5  2  0  0  0  0
  2  6  2  0  0  0  0
  3 10  2  0  0  0  0
  3 20  1  0  0  0  0
  4 11  1  0  0  0  0
  4 20  2  0  0  0  0
  5 22  1  0  0  0  0
  6 24  1  0  0  0  0
  7 12  2  0  0  0  0
  7 23  1  0  0  0  0
  8  9  2  0  0  0  0
  8 26  1  0  0  0  0
  9 29  1  0  0  0  0
 10 30  1  0  0  0  0
 11 30  2  0  0  0  0
 12 31  1  0  0  0  0
 13 14  2  0  0  0  0
 13 32  1  0  0  0  0
 14 34  1  0  0  0  0
 15 25  1  0  0  0  0
 15 31  2  0  0  0  0
 16 26  2  0  0  0  0
 16 28  1  0  0  0  0
 17 34  2  0  0  0  0
 17 35  1  0  0  0  0
 18 27  2  0  0  0  0
 18 66  1  0  0  0  0
 19 33  2  0  0  0  0
 19 66  1  0  0  0  0
 20 36  1  0  0  0  0
 21 36  1  0  0  0  0
 21 37  2  0  0  0  0
 21 38  1  0  0  0  0
 22 24  2  0  0  0  0
 22 43  1  0  0  0  0
 23 25  2  0  0  0  0
 23 44  1  0  0  0  0
 24 52  1  0  0  0  0
 25 45  1  0  0  0  0
 26 60  1  0  0  0  0
 27 33  1  0  0  0  0
 27 61  1  0  0  0  0
 28 29  2  0  0  0  0
 28 66  1  0  0  0  0
 29 72  1  0  0  0  0
 30 83  1  0  0  0  0
 31 84  1  0  0  0  0
 32 35  2  0  0  0  0
 32 83  1  0  0  0  0
 33 82  1  0  0  0  0
 34 85  1  0  0  0  0
 35 86  1  0  0  0  0
 36 65  2  0  0  0  0
 37 67  1  0  0  0  0
 37 70  1  0  0  0  0
 38 71  1  0  0  0  0
 38 77  2  0  0  0  0
 39 53  1  0  0  0  0
 39 73  1  0  0  0  0
 39 78  2  0  0  0  0
 40 62  1  0  0  0  0
 40 68  1  0  0  0  0
 40 79  2  0  0  0  0
 41 63  1  0  0  0  0
 41 74  1  0  0  0  0
 41 80  2  0  0  0  0
 42 69  1  0  0  0  0
 42 72  1  0  0  0  0
 42 81  2  0  0  0  0
 43 46  1  0  0  0  0
 44 53  1  0  0  0  0
 45 68  1  0  0  0  0
 46 48  1  0  0  0  0
 47 49  1  0  0  0  0
 47 50  1  0  0  0  0
 48 52  1  0  0  0  0
 49 54  1  0  0  0  0
 50 69  1  0  0  0  0
 51 54  1  0  0  0  0
 51 69  1  0  0  0  0
 52 73  1  0  0  0  0
 53 68  1  0  0  0  0
 54 67  1  0  0  0  0
 55 63  1  0  0  0  0
 56 64  1  0  0  0  0
 57 64  1  0  0  0  0
 58 64  1  0  0  0  0
 59 76  1  0  0  0  0
 60 75  1  0  0  0  0
 61 84  1  0  0  0  0
 62 64  1  0  0  0  0
 62 74  1  0  0  0  0
 63 76  1  0  0  0  0
 65 67  1  0  0  0  0
M  CHG  2  75   1  76   1
M  ISO  4  42 100  61 101  72 100  84 101
M  END
> <Batch ID>
0091

> <Smiles>
CNC(C)C(=O)NC(C(=O)N1Cc2cc([101O:1][101CH2:1]C3=CN(c4cc(CN)ccc4[100NH:0][100C:0](=O)N4CCCC(n5nc(-c6ccc(Oc7ccc(F)cc7F)cc6)c(C(N)=O)c5N)C4)CC3=O)ccc2CC1C(=O)NC1CCCc2ccccc21)C(C)(C)C

> <Shape>
0.246

> <Color>
0.072

> <Negative vol penalty>
0.000

$$$$

  -OEChem-04052300313D

 84 92  0     1  0  0  0  0  0999 V2000
  -28.4102  -38.0831   16.0935 C   0  0  0  0  0  0  0  0  0  0  0  0
  -28.7332  -36.7301   16.0724 C   0  0  0  0  0  0  0  0  0  0  0  0
  -24.1681   -9.2903   22.5367 C   0  0  0  0  0  0  0  0  0  0  0  0
  -24.2678   -9.0958   20.1306 C   0  0  0  0  0  0  0  0  0  0  0  0
  -29.3231  -20.5759   18.8563 C   0  0  0  0  0  0  0  0  0  0  0  0
  -27.9824  -38.6782   17.2796 C   0  0  0  0  0  0  0  0  0  0  0  0
  -28.6297  -35.9716   17.2379 C   0  0  0  0  0  0  0  0  0  0  0  0
  -26.9826  -30.0887   17.6672 C   0  0  0  0  0  0  0  0  0  0  0  0
  -29.1663  -21.9600   18.7845 C   0  0  0  0  0  0  0  0  0  0  0  0
  -23.0753   -8.4238   22.5615 C   0  0  0  0  0  0  0  0  0  0  0  0
  -23.1751   -8.2292   20.1554 C   0  0  0  0  0  0  0  0  0  0  0  0
  -27.7232  -28.9138   17.7903 C   0  0  0  0  0  0  0  0  0  0  0  0
  -22.5327   -5.0926   22.3585 C   0  0  0  0  0  0  0  0  0  0  0  0
  -22.5313   -4.0782   23.3158 C   0  0  0  0  0  0  0  0  0  0  0  0
  -29.0486  -20.4204   16.4610 C   0  0  0  0  0  0  0  0  0  0  0  0
  -27.4246  -28.9835   20.1831 C   0  0  0  0  0  0  0  0  0  0  0  0
  -20.4852   -4.9614   24.2488 C   0  0  0  0  0  0  0  0  0  0  0  0
  -24.7643   -9.6263   21.3213 C   0  0  0  0  0  0  0  0  0  0  0  0
  -29.2643  -19.8061   17.6946 C   0  0  0  0  0  0  0  0  0  0  0  0
  -27.2548  -10.1758   21.3792 C   0  0  0  0  0  0  0  0  0  0  0  0
  -27.8644  -37.9243   18.4579 C   0  0  0  0  0  0  0  0  0  0  0  0
  -26.4659  -30.7267   18.8040 C   0  0  0  0  0  0  0  0  0  0  0  0
  -28.2012  -36.5574   18.4412 C   0  0  0  0  0  0  0  0  0  0  0  0
  -26.6757  -30.1649   20.0715 C   0  0  0  0  0  0  0  0  0  0  0  0
  -28.9506  -22.5744   17.5509 C   0  0  0  0  0  0  0  0  0  0  0  0
  -28.8917  -21.8046   16.3891 C   0  0  0  0  0  0  0  0  0  0  0  0
  -22.5788   -7.8933   21.3709 C   0  0  0  0  0  0  0  0  0  0  0  0
  -27.9467  -28.3626   19.0486 C   0  0  0  0  0  0  0  0  0  0  0  0
  -21.5103   -6.0415   22.3463 C   0  0  0  0  0  0  0  0  0  0  0  0
  -21.5076   -4.0125   24.2610 C   0  0  0  0  0  0  0  0  0  0  0  0
  -20.4866   -5.9758   23.2914 C   0  0  0  0  0  0  0  0  0  0  0  0
  -25.8928  -10.5218   21.2950 C   0  0  0  0  0  0  0  0  0  0  0  0
  -27.9190  -11.3759   21.3088 C   0  0  0  0  0  0  0  0  0  0  0  0
  -29.4304  -18.3396   17.7716 C   0  0  0  0  0  0  0  0  0  0  0  0
  -27.8650   -8.8849   21.5093 C   0  0  0  0  0  0  0  0  0  0  0  0
  -26.8858  -33.5671   20.1677 C   0  0  0  0  0  0  0  0  0  0  0  0
  -24.4922  -32.5545   22.1088 C   0  0  0  0  0  0  0  0  0  0  0  0
  -28.8281  -24.8728   18.5689 C   0  0  0  0  0  0  0  0  0  0  0  0
  -22.7718  -29.9369   23.4635 C   0  0  0  0  0  0  0  0  0  0  0  0
  -28.5558  -16.2110   18.7102 C   0  0  0  0  0  0  0  0  0  0  0  0
  -27.4430  -38.6221   19.7269 C   0  0  0  0  0  0  0  0  0  0  0  0
  -25.6464  -31.9788   18.6520 C   0  0  0  0  0  0  0  0  0  0  0  0
  -26.1253  -30.7999   21.3214 C   0  0  0  0  0  0  0  0  0  0  0  0
  -27.0016  -37.6645   20.8307 C   0  0  0  0  0  0  0  0  0  0  0  0
  -26.2397  -16.1124   21.6057 C   0  0  0  0  0  0  0  0  0  0  0  0
  -27.9967  -36.5170   20.9715 C   0  0  0  0  0  0  0  0  0  0  0  0
  -26.0018  -14.6115   21.7296 C   0  0  0  0  0  0  0  0  0  0  0  0
  -26.4804  -16.5416   20.1590 C   0  0  0  0  0  0  0  0  0  0  0  0
  -27.3417  -14.2737   19.6199 C   0  0  0  0  0  0  0  0  0  0  0  0
  -28.0780  -35.6956   19.6791 C   0  0  1  0  0  0  0  0  0  0  0  0
  -25.6038  -32.8229   19.9221 C   0  0  1  0  0  0  0  0  0  0  0  0
  -27.1522  -13.8310   21.0779 C   0  0  2  0  0  0  0  0  0  0  0  0
  -20.8922  -29.4223   25.0446 C   0  0  0  0  0  0  0  0  0  0  0  0
  -26.3128  -33.1858   24.4747 C   0  0  0  0  0  0  0  0  0  0  0  0
  -24.8056  -31.7992   25.9149 C   0  0  0  0  0  0  0  0  0  0  0  0
  -23.9214  -33.8446   24.7936 C   0  0  0  0  0  0  0  0  0  0  0  0
  -21.2031  -28.5924   21.3444 C   0  0  0  0  0  0  0  0  0  0  0  0
  -28.6162  -26.2947   18.0835 C   0  0  0  0  0  0  0  0  0  1  0  0
  -24.4208  -31.7895   23.4083 C   0  0  1  0  0  0  0  0  0  0  0  0
  -21.2832  -29.6707   23.5960 C   0  0  2  0  0  0  0  0  0  0  0  0
  -24.8773  -32.6436   24.6247 C   0  0  0  0  0  0  0  0  0  0  0  0
  -25.7016  -11.8387   21.1801 N   0  0  0  0  0  0  0  0  0  0  0  0
  -26.9522  -12.3307   21.1917 N   0  0  0  0  0  0  0  0  0  0  0  0
  -25.3359  -32.0265   21.1213 N   0  0  0  0  0  0  0  0  0  0  0  0
  -27.5131  -15.7260   19.5052 N   0  0  0  0  0  0  0  0  0  0  0  0
  -28.6732  -22.4064   15.1294 N   0  0  0  0  0  0  0  0  0  0  0  0
  -29.2299  -11.6971   21.3365 N   0  0  0  0  0  0  0  0  0  0  0  0
  -27.0356   -7.7565   21.5669 N   0  0  0  0  0  0  0  0  0  0  0  0
  -28.7939  -23.9800   17.5032 N   0  0  0  0  0  0  0  0  0  0  0  0
  -28.5552  -17.6449   18.5150 N   0  0  0  0  0  0  0  0  0  0  0  0
  -26.9374  -34.8116   19.5695 N   0  0  0  0  0  0  0  0  0  0  0  0
  -23.0556  -31.2854   23.5107 N   0  0  0  0  0  0  0  0  0  0  0  0
  -30.4461  -17.7978   17.0999 N   0  3  0  0  0  0  0  0  0  0  0  0
  -20.8972  -28.4757   22.7935 N   0  3  0  0  0  0  0  0  0  0  0  0
  -29.1082   -8.7377   21.5891 O   0  0  0  0  0  0  0  0  0  0  0  0
  -27.7626  -33.0510   20.8507 O   0  0  0  0  0  0  0  0  0  0  0  0
  -23.8186  -33.5789   21.9723 O   0  0  0  0  0  0  0  0  0  0  0  0
  -29.0001  -24.6182   19.7564 O   0  0  0  0  0  0  0  0  0  0  0  0
  -23.6003  -29.0383   23.3349 O   0  0  0  0  0  0  0  0  0  0  0  0
  -29.4159  -15.5267   18.1662 O   0  0  0  0  0  0  0  0  0  0  0  0
  -21.5127   -7.0475   21.3947 O   0  0  0  0  0  0  0  0  0  0  0  0
  -28.6698  -27.2164   19.1716 O   0  0  0  0  0  0  0  0  0  1  0  0
  -21.5056   -3.0374   25.1793 F   0  0  0  0  0  0  0  0  0  0  0  0
  -19.5011   -6.8839   23.2840 F   0  0  0  0  0  0  0  0  0  0  0  0
  1  2  1  0  0  0  0
  1  6  2  0  0  0  0
  2  7  2  0  0  0  0
  3 10  2  0  0  0  0
  3 18  1  0  0  0  0
  4 11  1  0  0  0  0
  4 18  2  0  0  0  0
  5  9  2  0  0  0  0
  5 19  1  0  0  0  0
  6 21  1  0  0  0  0
  7 23  1  0  0  0  0
  8 12  2  0  0  0  0
  8 22  1  0  0  0  0
  9 25  1  0  0  0  0
 10 27  1  0  0  0  0
 11 27  2  0  0  0  0
 12 28  1  0  0  0  0
 13 14  2  0  0  0  0
 13 29  1  0  0  0  0
 14 30  1  0  0  0  0
 15 19  2  0  0  0  0
 15 26  1  0  0  0  0
 16 24  1  0  0  0  0
 16 28  2  0  0  0  0
 17 30  2  0  0  0  0
 17 31  1  0  0  0  0
 18 32  1  0  0  0  0
 19 34  1  0  0  0  0
 20 32  1  0  0  0  0
 20 33  2  0  0  0  0
 20 35  1  0  0  0  0
 21 23  2  0  0  0  0
 21 41  1  0  0  0  0
 22 24  2  0  0  0  0
 22 42  1  0  0  0  0
 23 50  1  0  0  0  0
 24 43  1  0  0  0  0
 25 26  2  0  0  0  0
 25 69  1  0  0  0  0
 26 66  1  0  0  0  0
 27 81  1  0  0  0  0
 28 82  1  0  0  0  0
 29 31  2  0  0  0  0
 29 81  1  0  0  0  0
 30 83  1  0  0  0  0
 31 84  1  0  0  0  0
 32 62  2  0  0  0  0
 33 63  1  0  0  0  0
 33 67  1  0  0  0  0
 34 70  1  0  0  0  0
 34 73  2  0  0  0  0
 35 68  1  0  0  0  0
 35 75  2  0  0  0  0
 36 51  1  0  0  0  0
 36 71  1  0  0  0  0
 36 76  2  0  0  0  0
 37 59  1  0  0  0  0
 37 64  1  0  0  0  0
 37 77  2  0  0  0  0
 38 58  1  0  0  0  0
 38 69  1  0  0  0  0
 38 78  2  0  0  0  0
 39 60  1  0  0  0  0
 39 72  1  0  0  0  0
 39 79  2  0  0  0  0
 40 65  1  0  0  0  0
 40 70  1  0  0  0  0
 40 80  2  0  0  0  0
 41 44  1  0  0  0  0
 42 51  1  0  0  0  0
 43 64  1  0  0  0  0
 44 46  1  0  0  0  0
 45 47  1  0  0  0  0
 45 48  1  0  0  0  0
 46 50  1  0  0  0  0
 47 52  1  0  0  0  0
 48 65  1  0  0  0  0
 49 52  1  0  0  0  0
 49 65  1  0  0  0  0
 50 71  1  0  0  0  0
 51 64  1  0  0  0  0
 52 63  1  0  0  0  0
 53 60  1  0  0  0  0
 54 61  1  0  0  0  0
 55 61  1  0  0  0  0
 56 61  1  0  0  0  0
 57 74  1  0  0  0  0
 58 82  1  0  0  0  0
 59 61  1  0  0  0  0
 59 72  1  0  0  0  0
 60 74  1  0  0  0  0
 62 63  1  0  0  0  0
M  CHG  2  73   1  74   1
M  ISO  4  40 100  58 101  70 100  82 101
M  END
> <Batch ID>
0091

> <Smiles>
CNC(C)C(=O)NC(C(=O)N1Cc2cc([101O:1][101CH2:1]C(=O)Nc3ccc(C(=N)[100NH:0][100C:0](=O)N4CCCC(n5nc(-c6ccc(Oc7ccc(F)cc7F)cc6)c(C(N)=O)c5N)C4)cc3N)ccc2CC1C(=O)NC1CCCc2ccccc21)C(C)(C)C

> <Shape>
0.239

> <Color>
0.088

> <Negative vol penalty>
0.000

$$$$
