
  -OEChem-04052300343D

 88 97  0     1  0  0  0  0  0999 V2000
  -27.3091  -33.2824   15.1909 C   0  0  0  0  0  0  0  0  0  0  0  0
  -26.4614  -32.4231   15.8826 C   0  0  0  0  0  0  0  0  0  0  0  0
  -16.8008  -24.0449   19.9423 C   0  0  0  0  0  0  0  0  0  0  0  0
  -24.4912  -15.0453   21.1900 C   0  0  0  0  0  0  0  0  0  0  0  0
  -23.0361  -13.7590   19.7528 C   0  0  0  0  0  0  0  0  0  0  0  0
  -28.4845  -32.7925   14.6232 C   0  0  0  0  0  0  0  0  0  0  0  0
  -26.7880  -31.0731   16.0059 C   0  0  0  0  0  0  0  0  0  0  0  0
  -26.0774  -29.3239   20.7049 C   0  0  0  0  0  0  0  0  0  0  0  0
  -17.2398  -25.1502   20.6710 C   0  0  0  0  0  0  0  0  0  0  0  0
  -17.7245  -23.1245   19.4468 C   0  0  0  0  0  0  0  0  0  0  0  0
  -25.4364  -14.0203   21.1504 C   0  0  0  0  0  0  0  0  0  0  0  0
  -23.9814  -12.7341   19.7132 C   0  0  0  0  0  0  0  0  0  0  0  0
  -24.7677  -29.0343   21.0852 C   0  0  0  0  0  0  0  0  0  0  0  0
  -27.8008  -12.8937   19.0119 C   0  0  0  0  0  0  0  0  0  0  0  0
  -29.1343  -13.2491   18.8093 C   0  0  0  0  0  0  0  0  0  0  0  0
  -25.1718  -26.6924   20.6716 C   0  0  0  0  0  0  0  0  0  0  0  0
  -19.5262  -24.4150   20.4087 C   0  0  0  0  0  0  0  0  0  0  0  0
  -29.7222  -12.2519   20.9299 C   0  0  0  0  0  0  0  0  0  0  0  0
  -23.2910  -14.9146   20.4913 C   0  0  0  0  0  0  0  0  0  0  0  0
  -21.6652  -16.4872   21.6709 C   0  0  0  0  0  0  0  0  0  0  0  0
  -28.8306  -31.4377   14.7479 C   0  0  0  0  0  0  0  0  0  0  0  0
  -26.9423  -28.2994   20.2940 C   0  0  0  0  0  0  0  0  0  0  0  0
  -27.9685  -30.5644   15.4382 C   0  0  0  0  0  0  0  0  0  0  0  0
  -26.4928  -26.9713   20.2890 C   0  0  0  0  0  0  0  0  0  0  0  0
  -18.6025  -25.3353   20.9042 C   0  0  0  0  0  0  0  0  0  0  0  0
  -19.0872  -23.3096   19.6800 C   0  0  0  0  0  0  0  0  0  0  0  0
  -25.1816  -12.8648   20.4120 C   0  0  0  0  0  0  0  0  0  0  0  0
  -24.3139  -27.7188   21.0659 C   0  0  0  0  0  0  0  0  0  0  0  0
  -27.4280  -12.2174   20.1735 C   0  0  0  0  0  0  0  0  0  0  0  0
  -30.0950  -12.9283   19.7683 C   0  0  0  0  0  0  0  0  0  0  0  0
  -28.3887  -11.8965   21.1325 C   0  0  0  0  0  0  0  0  0  0  0  0
  -22.3139  -15.9728   20.5323 C   0  0  0  0  0  0  0  0  0  0  0  0
  -20.8400  -17.4699   21.1813 C   0  0  0  0  0  0  0  0  0  0  0  0
  -20.3190  -28.2347   23.3894 C   0  0  0  0  0  0  0  0  0  0  0  0
  -20.8314  -28.0410   22.1668 C   0  0  0  0  0  0  0  0  0  0  0  0
  -18.9566  -27.7607   23.7068 C   0  0  0  0  0  0  0  0  0  0  0  0
  -21.4039  -22.2073   21.1261 C   0  0  0  0  0  0  0  0  0  0  0  0
  -21.2484  -22.1018   19.8045 C   0  0  0  0  0  0  0  0  0  0  0  0
  -21.7969  -16.1104   23.0480 C   0  0  0  0  0  0  0  0  0  0  0  0
  -28.4944  -27.6180   17.6050 C   0  0  0  0  0  0  0  0  0  0  0  0
  -29.8029  -25.2658   19.4154 C   0  0  0  0  0  0  0  0  0  0  0  0
  -29.5423  -23.2157   22.1313 C   0  0  0  0  0  0  0  0  0  0  0  0
  -19.8180  -21.7781   17.8875 C   0  0  0  0  0  0  0  0  0  0  0  0
  -30.0880  -30.9449   14.0767 C   0  0  0  0  0  0  0  0  0  0  0  0
  -28.3603  -28.6252   19.9123 C   0  0  0  0  0  0  0  0  0  0  0  0
  -27.3879  -25.8327   19.8755 C   0  0  0  0  0  0  0  0  0  0  0  0
  -18.1683  -27.0029   22.6678 C   0  0  0  0  0  0  0  0  0  0  0  0
  -30.5476  -29.5766   14.5736 C   0  0  0  0  0  0  0  0  0  0  0  0
  -19.5169  -18.6137   16.4439 C   0  0  0  0  0  0  0  0  0  0  0  0
  -29.3712  -28.6074   14.6328 C   0  0  0  0  0  0  0  0  0  0  0  0
  -20.1680  -17.6795   17.4634 C   0  0  0  0  0  0  0  0  0  0  0  0
  -20.2984  -19.9164   16.3184 C   0  0  0  0  0  0  0  0  0  0  0  0
  -21.1221  -19.7203   18.6436 C   0  0  0  0  0  0  0  0  0  0  0  0
  -28.3006  -29.0985   15.6147 C   0  0  1  0  0  0  0  0  0  0  0  0
  -20.0923  -27.3110   21.0646 C   0  0  2  0  0  0  0  0  0  0  0  0
  -28.9975  -27.5646   19.0198 C   0  0  1  0  0  0  0  0  0  0  0  0
  -20.3647  -18.3882   18.8151 C   0  0  2  0  0  0  0  0  0  0  0  0
  -19.4803  -28.2924   20.0590 C   0  0  0  0  0  0  0  0  0  0  0  0
  -30.7508  -21.3727   23.3313 C   0  0  0  0  0  0  0  0  0  0  0  0
  -28.9278  -23.2917   17.2597 C   0  0  0  0  0  0  0  0  0  0  0  0
  -29.2884  -21.4408   18.9065 C   0  0  0  0  0  0  0  0  0  0  0  0
  -31.2071  -22.8690   18.1982 C   0  0  0  0  0  0  0  0  0  0  0  0
  -29.7841  -24.8259   24.6026 C   0  0  0  0  0  0  0  0  0  0  0  0
  -22.2142  -28.5306   21.8329 C   0  0  0  0  0  0  0  0  0  1  0  0
  -29.4431  -23.8340   19.7308 C   0  0  1  0  0  0  0  0  0  0  0  0
  -30.5285  -22.8739   23.2336 C   0  0  2  0  0  0  0  0  0  0  0  0
  -29.6989  -22.8803   18.5298 C   0  0  0  0  0  0  0  0  0  0  0  0
  -21.9334  -16.5785   19.4043 N   0  0  0  0  0  0  0  0  0  0  0  0
  -21.0366  -17.4836   19.8317 N   0  0  0  0  0  0  0  0  0  0  0  0
  -19.0435  -26.4462   21.6373 N   0  0  2  0  0  0  0  0  0  0  0  0
  -28.7638  -26.2029   19.5050 N   0  0  0  0  0  0  0  0  0  0  0  0
  -20.4681  -20.5562   17.6235 N   0  0  0  0  0  0  0  0  0  0  0  0
  -19.9725  -18.3149   21.7778 N   0  0  0  0  0  0  0  0  0  0  0  0
  -20.9562  -15.1075   23.5496 N   0  0  0  0  0  0  0  0  0  0  0  0
  -28.7050  -28.8314   16.9784 N   0  0  0  0  0  0  0  0  0  0  0  0
  -30.1815  -23.4843   20.9394 N   0  0  0  0  0  0  0  0  0  0  0  0
  -20.0460  -22.3543   19.1643 N   0  0  0  0  0  0  0  0  0  0  0  0
  -30.0244  -23.3609   24.5488 N   0  3  0  0  0  0  0  0  0  0  0  0
  -18.4694  -28.0249   24.8061 O   0  0  0  0  0  0  0  0  0  0  0  0
  -22.6239  -16.6588   23.8153 O   0  0  0  0  0  0  0  0  0  0  0  0
  -27.9563  -26.6308   17.1175 O   0  0  0  0  0  0  0  0  0  0  0  0
  -30.9647  -25.5437   19.1080 O   0  0  0  0  0  0  0  0  0  0  0  0
  -28.3264  -23.2383   22.3087 O   0  0  0  0  0  0  0  0  0  0  0  0
  -19.1022  -22.3309   17.0423 O   0  0  0  0  0  0  0  0  0  0  0  0
  -26.1038  -11.8645   20.3729 O   0  0  0  0  0  0  0  0  0  0  0  0
  -23.0358  -27.4334   21.4360 O   0  0  0  0  0  0  0  0  0  1  0  0
  -31.3758  -13.2683   19.5729 F   0  0  0  0  0  0  0  0  0  0  0  0
  -28.0368  -11.2459   22.2500 F   0  0  0  0  0  0  0  0  0  0  0  0
  1  2  1  0  0  0  0
  1  6  2  0  0  0  0
  2  7  2  0  0  0  0
  3  9  1  0  0  0  0
  3 10  2  0  0  0  0
  4 11  2  0  0  0  0
  4 19  1  0  0  0  0
  5 12  1  0  0  0  0
  5 19  2  0  0  0  0
  6 21  1  0  0  0  0
  7 23  1  0  0  0  0
  8 13  2  0  0  0  0
  8 22  1  0  0  0  0
  9 25  2  0  0  0  0
 10 26  1  0  0  0  0
 11 27  1  0  0  0  0
 12 27  2  0  0  0  0
 13 28  1  0  0  0  0
 14 15  2  0  0  0  0
 14 29  1  0  0  0  0
 15 30  1  0  0  0  0
 16 24  1  0  0  0  0
 16 28  2  0  0  0  0
 17 25  1  0  0  0  0
 17 26  2  0  0  0  0
 18 30  2  0  0  0  0
 18 31  1  0  0  0  0
 19 32  1  0  0  0  0
 20 32  1  0  0  0  0
 20 33  2  0  0  0  0
 20 39  1  0  0  0  0
 21 23  2  0  0  0  0
 21 44  1  0  0  0  0
 22 24  2  0  0  0  0
 22 45  1  0  0  0  0
 23 54  1  0  0  0  0
 24 46  1  0  0  0  0
 25 70  1  0  0  0  0
 26 77  1  0  0  0  0
 27 85  1  0  0  0  0
 28 86  1  0  0  0  0
 29 31  2  0  0  0  0
 29 85  1  0  0  0  0
 30 87  1  0  0  0  0
 31 88  1  0  0  0  0
 32 68  2  0  0  0  0
 33 69  1  0  0  0  0
 33 73  1  0  0  0  0
 34 35  2  0  0  0  0
 34 36  1  0  0  0  0
 35 55  1  0  0  0  0
 35 64  1  0  0  0  0
 36 47  1  0  0  0  0
 36 79  2  0  0  0  0
 37 38  2  0  0  0  0
 38 77  1  0  0  0  0
 39 74  1  0  0  0  0
 39 80  2  0  0  0  0
 40 56  1  0  0  0  0
 40 75  1  0  0  0  0
 40 81  2  0  0  0  0
 41 65  1  0  0  0  0
 41 71  1  0  0  0  0
 41 82  2  0  0  0  0
 42 66  1  0  0  0  0
 42 76  1  0  0  0  0
 42 83  2  0  0  0  0
 43 72  1  0  0  0  0
 43 77  1  0  0  0  0
 43 84  2  0  0  0  0
 44 48  1  0  0  0  0
 45 56  1  0  0  0  0
 46 71  1  0  0  0  0
 47 70  1  0  0  0  0
 48 50  1  0  0  0  0
 49 51  1  0  0  0  0
 49 52  1  0  0  0  0
 50 54  1  0  0  0  0
 51 57  1  0  0  0  0
 52 72  1  0  0  0  0
 53 57  1  0  0  0  0
 53 72  1  0  0  0  0
 54 75  1  0  0  0  0
 55 58  1  0  0  0  0
 55 70  1  0  0  0  0
 56 71  1  0  0  0  0
 57 69  1  0  0  0  0
 59 66  1  0  0  0  0
 60 67  1  0  0  0  0
 61 67  1  0  0  0  0
 62 67  1  0  0  0  0
 63 78  1  0  0  0  0
 64 86  1  0  0  0  0
 65 67  1  0  0  0  0
 65 76  1  0  0  0  0
 66 78  1  0  0  0  0
 68 69  1  0  0  0  0
M  CHG  1  78   1
M  ISO  4  43 100  64 101  77 100  86 101
M  END
> <Batch ID>
0092

> <Smiles>
C=C[100N:0](c1cccc(N2CC(=O)CC([101CH2:1][101O:1]c3ccc4c(c3)CN(C(=O)C(NC(=O)C(C)NC)C(C)(C)C)C(C(=O)NC3CCCc5ccccc53)C4)=C2C)c1)[100C:0](=O)N1CCCC(n2nc(-c3ccc(Oc4ccc(F)cc4F)cc3)c(C(N)=O)c2N)C1

> <Shape>
0.206

> <Color>
0.080

> <Negative vol penalty>
0.000

$$$$

  -OEChem-04052300343D

 88 97  0     1  0  0  0  0  0999 V2000
  -30.1154  -32.6347   25.7831 C   0  0  0  0  0  0  0  0  0  0  0  0
  -29.7908  -31.4858   25.0690 C   0  0  0  0  0  0  0  0  0  0  0  0
  -24.1346   -9.3754   21.4635 C   0  0  0  0  0  0  0  0  0  0  0  0
  -24.6996  -10.5157   23.5172 C   0  0  0  0  0  0  0  0  0  0  0  0
  -29.1053  -33.4090   26.3524 C   0  0  0  0  0  0  0  0  0  0  0  0
  -28.4558  -31.1099   24.9246 C   0  0  0  0  0  0  0  0  0  0  0  0
  -27.3331  -29.7090   20.1894 C   0  0  0  0  0  0  0  0  0  0  0  0
  -29.9843  -20.1222   18.4183 C   0  0  0  0  0  0  0  0  0  0  0  0
  -30.1294  -18.8186   18.8928 C   0  0  0  0  0  0  0  0  0  0  0  0
  -23.7240   -8.2611   22.1951 C   0  0  0  0  0  0  0  0  0  0  0  0
  -24.2889   -9.4013   24.2488 C   0  0  0  0  0  0  0  0  0  0  0  0
  -27.7281  -28.4322   19.7925 C   0  0  0  0  0  0  0  0  0  0  0  0
  -21.0178   -7.3186   23.9899 C   0  0  0  0  0  0  0  0  0  0  0  0
  -19.8125   -6.7155   23.6307 C   0  0  0  0  0  0  0  0  0  0  0  0
  -25.4850  -27.6281   20.1682 C   0  0  0  0  0  0  0  0  0  0  0  0
  -28.9095  -24.0783   17.2681 C   0  0  0  0  0  0  0  0  0  0  0  0
  -28.5798  -20.6546   20.3107 C   0  0  0  0  0  0  0  0  0  0  0  0
  -20.9806   -4.6491   23.1806 C   0  0  0  0  0  0  0  0  0  0  0  0
  -24.6224  -10.5027   22.1245 C   0  0  0  0  0  0  0  0  0  0  0  0
  -24.2582  -12.7518   20.9770 C   0  0  0  0  0  0  0  0  0  0  0  0
  -27.7567  -33.0476   26.2068 C   0  0  0  0  0  0  0  0  0  0  0  0
  -26.0115  -29.9530   20.5898 C   0  0  0  0  0  0  0  0  0  0  0  0
  -27.4268  -31.8793   25.4936 C   0  0  0  0  0  0  0  0  0  0  0  0
  -25.0751  -28.9095   20.5673 C   0  0  0  0  0  0  0  0  0  0  0  0
  -28.7675  -24.5476   18.5972 C   0  0  0  0  0  0  0  0  0  0  0  0
  -29.2095  -21.0402   19.1273 C   0  0  0  0  0  0  0  0  0  0  0  0
  -29.4997  -18.4329   20.0762 C   0  0  0  0  0  0  0  0  0  0  0  0
  -23.8011   -8.2740   23.5877 C   0  0  0  0  0  0  0  0  0  0  0  0
  -26.8047  -27.3909   19.7847 C   0  0  0  0  0  0  0  0  0  0  0  0
  -22.2046   -6.5870   23.9443 C   0  0  0  0  0  0  0  0  0  0  0  0
  -19.7939   -5.3807   23.2261 C   0  0  0  0  0  0  0  0  0  0  0  0
  -28.7249  -19.3509   20.7852 C   0  0  0  0  0  0  0  0  0  0  0  0
  -22.1860   -5.2522   23.5398 C   0  0  0  0  0  0  0  0  0  0  0  0
  -25.0472  -11.6539   21.3693 C   0  0  0  0  0  0  0  0  0  0  0  0
  -25.1224  -13.5669   20.2877 C   0  0  0  0  0  0  0  0  0  0  0  0
  -29.0903  -22.7142   17.3306 C   0  0  0  0  0  0  0  0  0  0  0  0
  -28.8660  -23.4560   19.4316 C   0  0  0  0  0  0  0  0  0  0  0  0
  -29.7485  -15.5360   22.3895 C   0  0  0  0  0  0  0  0  0  0  0  0
  -29.6114  -16.7770   21.9176 C   0  0  0  0  0  0  0  0  0  0  0  0
  -22.8683  -13.0116   21.2146 C   0  0  0  0  0  0  0  0  0  0  0  0
  -24.6260  -30.9267   23.2797 C   0  0  0  0  0  0  0  0  0  0  0  0
  -21.9547  -30.9418   21.4396 C   0  0  0  0  0  0  0  0  0  0  0  0
  -20.3268  -29.7530   18.6858 C   0  0  0  0  0  0  0  0  0  0  0  0
  -30.0064  -16.0553   19.6485 C   0  0  0  0  0  0  0  0  0  0  0  0
  -26.7025  -33.8902   26.8802 C   0  0  0  0  0  0  0  0  0  0  0  0
  -25.5948  -31.3418   20.9895 C   0  0  0  0  0  0  0  0  0  0  0  0
  -23.6393  -29.1237   20.9685 C   0  0  0  0  0  0  0  0  0  0  0  0
  -25.2905  -33.6271   26.3632 C   0  0  0  0  0  0  0  0  0  0  0  0
  -29.8063  -12.7331   18.5945 C   0  0  0  0  0  0  0  0  0  0  0  0
  -25.0245  -32.1276   26.2766 C   0  0  0  0  0  0  0  0  0  0  0  0
  -28.4902  -12.2352   19.1912 C   0  0  0  0  0  0  0  0  0  0  0  0
  -30.5461  -13.6340   19.5767 C   0  0  0  0  0  0  0  0  0  0  0  0
  -28.4219  -14.3216   20.6439 C   0  0  0  0  0  0  0  0  0  0  0  0
  -25.9888  -31.4521   25.2941 C   0  0  1  0  0  0  0  0  0  0  0  0
  -24.3482  -31.3619   21.8687 C   0  0  1  0  0  0  0  0  0  0  0  0
  -27.6286  -13.4104   19.6859 C   0  0  2  0  0  0  0  0  0  0  0  0
  -18.1413  -29.9208   17.4640 C   0  0  0  0  0  0  0  0  0  0  0  0
  -20.6407  -29.1755   23.5523 C   0  0  0  0  0  0  0  0  0  0  0  0
  -18.8696  -28.6081   21.8762 C   0  0  0  0  0  0  0  0  0  0  0  0
  -19.1639  -30.9688   22.6265 C   0  0  0  0  0  0  0  0  0  0  0  0
  -21.6383  -30.7942   16.2455 C   0  0  0  0  0  0  0  0  0  0  0  0
  -28.5513  -25.9728   19.0137 C   0  0  0  0  0  0  0  0  0  1  0  0
  -20.8876  -29.9308   21.0958 C   0  0  1  0  0  0  0  0  0  0  0  0
  -19.5572  -30.4623   17.5862 C   0  0  2  0  0  0  0  0  0  0  0  0
  -19.9179  -29.6660   22.2820 C   0  0  0  0  0  0  0  0  0  0  0  0
  -26.3152  -11.7588   20.9628 N   0  0  0  0  0  0  0  0  0  0  0  0
  -29.0623  -22.3470   18.6507 N   0  0  0  0  0  0  0  0  0  0  0  0
  -26.3295  -12.9323   20.3079 N   0  0  0  0  0  0  0  0  0  0  0  0
  -23.2821  -30.4979   21.3575 N   0  0  0  0  0  0  0  0  0  0  0  0
  -29.6929  -14.7346   20.0265 N   0  0  0  0  0  0  0  0  0  0  0  0
  -24.9599  -14.7574   19.6722 N   0  0  0  0  0  0  0  0  0  0  0  0
  -22.1271  -12.0694   21.9407 N   0  0  0  0  0  0  0  0  0  0  0  0
  -25.5727  -31.6955   23.9295 N   0  0  0  0  0  0  0  0  0  0  0  0
  -20.2338  -30.4222   19.8877 N   0  0  0  0  0  0  0  0  0  0  0  0
  -29.6512  -17.0783   20.5658 N   0  0  0  0  0  0  0  0  0  0  0  0
  -20.2434  -30.2837   16.2755 N   0  3  0  0  0  0  0  0  0  0  0  0
  -22.2966  -14.0406   20.7813 O   0  0  0  0  0  0  0  0  0  0  0  0
  -24.0249  -29.9655   23.7450 O   0  0  0  0  0  0  0  0  0  0  0  0
  -21.6229  -32.0853   21.7620 O   0  0  0  0  0  0  0  0  0  0  0  0
  -20.9455  -28.7077   18.4981 O   0  0  0  0  0  0  0  0  0  0  0  0
  -30.5806  -16.3084   18.5815 O   0  0  0  0  0  0  0  0  0  0  0  0
  -29.2679  -21.8241   16.3616 O   0  0  0  0  0  0  0  0  0  0  0  0
  -28.8015  -23.3708   20.7555 O   0  0  0  0  0  0  0  0  0  0  0  0
  -23.4003   -7.1869   24.3020 O   0  0  0  0  0  0  0  0  0  0  0  0
  -27.1877  -26.1435   19.3984 O   0  0  0  0  0  0  0  0  0  1  0  0
  -18.6361   -4.8013   22.8827 F   0  0  0  0  0  0  0  0  0  0  0  0
  -28.1139  -18.9907   21.9228 F   0  0  0  0  0  0  0  0  0  0  0  0
  -23.3227   -4.5439   23.4952 F   0  0  0  0  0  0  0  0  0  0  0  0
  1  2  1  0  0  0  0
  1  5  2  0  0  0  0
  2  6  2  0  0  0  0
  3 10  2  0  0  0  0
  3 19  1  0  0  0  0
  4 11  1  0  0  0  0
  4 19  2  0  0  0  0
  5 21  1  0  0  0  0
  6 23  1  0  0  0  0
  7 12  2  0  0  0  0
  7 22  1  0  0  0  0
  8  9  2  0  0  0  0
  8 26  1  0  0  0  0
  9 27  1  0  0  0  0
 10 28  1  0  0  0  0
 11 28  2  0  0  0  0
 12 29  1  0  0  0  0
 13 14  2  0  0  0  0
 13 30  1  0  0  0  0
 14 31  1  0  0  0  0
 15 24  1  0  0  0  0
 15 29  2  0  0  0  0
 16 25  1  0  0  0  0
 16 36  2  0  0  0  0
 17 26  2  0  0  0  0
 17 32  1  0  0  0  0
 18 31  2  0  0  0  0
 18 33  1  0  0  0  0
 19 34  1  0  0  0  0
 20 34  1  0  0  0  0
 20 35  2  0  0  0  0
 20 40  1  0  0  0  0
 21 23  2  0  0  0  0
 21 45  1  0  0  0  0
 22 24  2  0  0  0  0
 22 46  1  0  0  0  0
 23 54  1  0  0  0  0
 24 47  1  0  0  0  0
 25 37  2  0  0  0  0
 25 62  1  0  0  0  0
 26 67  1  0  0  0  0
 27 32  2  0  0  0  0
 27 75  1  0  0  0  0
 28 84  1  0  0  0  0
 29 85  1  0  0  0  0
 30 33  2  0  0  0  0
 30 84  1  0  0  0  0
 31 86  1  0  0  0  0
 32 87  1  0  0  0  0
 33 88  1  0  0  0  0
 34 66  2  0  0  0  0
 35 68  1  0  0  0  0
 35 71  1  0  0  0  0
 36 67  1  0  0  0  0
 36 82  1  0  0  0  0
 37 67  1  0  0  0  0
 37 83  1  0  0  0  0
 38 39  2  0  0  0  0
 39 75  1  0  0  0  0
 40 72  1  0  0  0  0
 40 77  2  0  0  0  0
 41 55  1  0  0  0  0
 41 73  1  0  0  0  0
 41 78  2  0  0  0  0
 42 63  1  0  0  0  0
 42 69  1  0  0  0  0
 42 79  2  0  0  0  0
 43 64  1  0  0  0  0
 43 74  1  0  0  0  0
 43 80  2  0  0  0  0
 44 70  1  0  0  0  0
 44 75  1  0  0  0  0
 44 81  2  0  0  0  0
 45 48  1  0  0  0  0
 46 55  1  0  0  0  0
 47 69  1  0  0  0  0
 48 50  1  0  0  0  0
 49 51  1  0  0  0  0
 49 52  1  0  0  0  0
 50 54  1  0  0  0  0
 51 56  1  0  0  0  0
 52 70  1  0  0  0  0
 53 56  1  0  0  0  0
 53 70  1  0  0  0  0
 54 73  1  0  0  0  0
 55 69  1  0  0  0  0
 56 68  1  0  0  0  0
 57 64  1  0  0  0  0
 58 65  1  0  0  0  0
 59 65  1  0  0  0  0
 60 65  1  0  0  0  0
 61 76  1  0  0  0  0
 62 85  1  0  0  0  0
 63 65  1  0  0  0  0
 63 74  1  0  0  0  0
 64 76  1  0  0  0  0
 66 68  1  0  0  0  0
M  CHG  1  76   1
M  ISO  4  44 100  62 101  75 100  85 101
M  END
> <Batch ID>
0092

> <Smiles>
C=C[100N:0](c1ccc(N2C(=O)CC([101CH2:1][101O:1]c3ccc4c(c3)CN(C(=O)C(NC(=O)C(C)NC)C(C)(C)C)C(C(=O)NC3CCCc5ccccc53)C4)C2=O)cc1F)[100C:0](=O)N1CCCC(n2nc(-c3ccc(Oc4ccc(F)cc4F)cc3)c(C(N)=O)c2N)C1

> <Shape>
0.391

> <Color>
0.133

> <Negative vol penalty>
0.000

$$$$

  -OEChem-04052300343D

 82 90  0     1  0  0  0  0  0999 V2000
  -23.2476  -33.5929   22.8458 C   0  0  0  0  0  0  0  0  0  0  0  0
  -24.0050  -32.4626   22.5559 C   0  0  0  0  0  0  0  0  0  0  0  0
  -27.3379  -16.5993   15.4895 C   0  0  0  0  0  0  0  0  0  0  0  0
  -23.0348  -10.0269   19.9750 C   0  0  0  0  0  0  0  0  0  0  0  0
  -23.6571   -9.9641   22.3087 C   0  0  0  0  0  0  0  0  0  0  0  0
  -28.2399  -15.6080   15.8760 C   0  0  0  0  0  0  0  0  0  0  0  0
  -21.9526  -33.4542   23.3434 C   0  0  0  0  0  0  0  0  0  0  0  0
  -23.4681  -31.1926   22.7645 C   0  0  0  0  0  0  0  0  0  0  0  0
  -24.4832  -26.1702   19.4104 C   0  0  0  0  0  0  0  0  0  0  0  0
  -27.0695  -17.6692   16.3432 C   0  0  0  0  0  0  0  0  0  0  0  0
  -22.2300   -8.9027   20.1593 C   0  0  0  0  0  0  0  0  0  0  0  0
  -22.8522   -8.8399   22.4930 C   0  0  0  0  0  0  0  0  0  0  0  0
  -25.3383  -25.0829   19.5846 C   0  0  0  0  0  0  0  0  0  0  0  0
  -21.2442   -5.7394   23.4985 C   0  0  0  0  0  0  0  0  0  0  0  0
  -21.7711   -4.6785   24.2349 C   0  0  0  0  0  0  0  0  0  0  0  0
  -23.5336  -23.8311   20.5822 C   0  0  0  0  0  0  0  0  0  0  0  0
  -23.5641   -4.4556   22.6310 C   0  0  0  0  0  0  0  0  0  0  0  0
  -23.7485  -10.5576   21.0497 C   0  0  0  0  0  0  0  0  0  0  0  0
  -28.8736  -15.6868   17.1161 C   0  0  0  0  0  0  0  0  0  0  0  0
  -24.2019  -13.0674   20.9973 C   0  0  0  0  0  0  0  0  0  0  0  0
  -21.3961  -32.1819   23.5491 C   0  0  0  0  0  0  0  0  0  0  0  0
  -23.1474  -26.0998   19.8313 C   0  0  0  0  0  0  0  0  0  0  0  0
  -22.1649  -31.0367   23.2666 C   0  0  0  0  0  0  0  0  0  0  0  0
  -22.6629  -24.9179   20.4098 C   0  0  0  0  0  0  0  0  0  0  0  0
  -27.7033  -17.7480   17.5833 C   0  0  0  0  0  0  0  0  0  0  0  0
  -22.1387   -8.3092   21.4183 C   0  0  0  0  0  0  0  0  0  0  0  0
  -24.8643  -23.9141   20.1732 C   0  0  0  0  0  0  0  0  0  0  0  0
  -21.8771   -6.1584   22.3282 C   0  0  0  0  0  0  0  0  0  0  0  0
  -22.9311   -4.0366   23.8012 C   0  0  0  0  0  0  0  0  0  0  0  0
  -23.0371   -5.5165   21.8945 C   0  0  0  0  0  0  0  0  0  0  0  0
  -28.6053  -16.7568   17.9697 C   0  0  0  0  0  0  0  0  0  0  0  0
  -24.5805  -11.7185   20.8598 C   0  0  0  0  0  0  0  0  0  0  0  0
  -25.3439  -13.7753   20.7127 C   0  0  0  0  0  0  0  0  0  0  0  0
  -26.5528  -20.8395   19.3734 C   0  0  0  0  0  0  0  0  0  0  0  0
  -25.7785  -21.9289   19.3402 C   0  0  0  0  0  0  0  0  0  1  0  0
  -29.8225  -14.6405   17.5183 C   0  0  0  0  0  0  0  0  0  0  0  0
  -22.9314  -13.6302   21.3507 C   0  0  0  0  0  0  0  0  0  0  0  0
  -26.5635  -19.8976   18.2163 C   0  0  0  0  0  0  0  0  0  0  0  0
  -21.3771  -27.6755   21.9495 C   0  0  0  0  0  0  0  0  0  0  0  0
  -18.9765  -25.9006   20.6809 C   0  0  0  0  0  0  0  0  0  0  0  0
  -18.0306  -23.0791   19.0103 C   0  0  0  0  0  0  0  0  0  0  0  0
  -20.0092  -32.0821   24.1333 C   0  0  0  0  0  0  0  0  0  0  0  0
  -22.2308  -27.2720   19.6119 C   0  0  0  0  0  0  0  0  0  0  0  0
  -21.2320  -24.7843   20.8604 C   0  0  0  0  0  0  0  0  0  0  0  0
  -19.3785  -30.7012   23.9725 C   0  0  0  0  0  0  0  0  0  0  0  0
  -30.1293  -12.2412   20.1433 C   0  0  0  0  0  0  0  0  0  0  0  0
  -20.3722  -29.6117   24.3627 C   0  0  0  0  0  0  0  0  0  0  0  0
  -28.6810  -11.9851   20.5643 C   0  0  0  0  0  0  0  0  0  0  0  0
  -30.2455  -12.4788   18.6398 C   0  0  0  0  0  0  0  0  0  0  0  0
  -27.9148  -13.2925   18.5384 C   0  0  0  0  0  0  0  0  0  0  0  0
  -21.6085  -29.6422   23.4560 C   0  0  1  0  0  0  0  0  0  0  0  0
  -21.0247  -27.2704   20.5462 C   0  0  1  0  0  0  0  0  0  0  0  0
  -27.7468  -13.0985   20.0544 C   0  0  1  0  0  0  0  0  0  0  0  0
  -15.9962  -21.8866   18.1522 C   0  0  0  0  0  0  0  0  0  0  0  0
  -18.3078  -25.0039   23.5196 C   0  0  0  0  0  0  0  0  0  0  0  0
  -16.9499  -23.1438   22.5376 C   0  0  0  0  0  0  0  0  0  0  0  0
  -16.3195  -25.5158   22.0917 C   0  0  0  0  0  0  0  0  0  0  0  0
  -18.9791  -23.2320   16.2110 C   0  0  0  0  0  0  0  0  0  0  0  0
  -18.3736  -24.5491   20.9790 C   0  0  1  0  0  0  0  0  0  0  0  0
  -17.1061  -22.8731   17.8240 C   0  0  2  0  0  0  0  0  0  0  0  0
  -17.5152  -24.5560   22.2754 C   0  0  0  0  0  0  0  0  0  0  0  0
  -25.8628  -11.5755   20.5145 N   0  0  0  0  0  0  0  0  0  0  0  0
  -26.2999  -12.8437   20.4326 N   0  0  0  0  0  0  0  0  0  0  0  0
  -29.3271  -13.5325   18.2100 N   0  0  0  0  0  0  0  0  0  0  0  0
  -20.3764  -25.9601   20.6300 N   0  0  0  0  0  0  0  0  0  0  0  0
  -25.6137  -15.0976   20.6771 N   0  0  0  0  0  0  0  0  0  0  0  0
  -21.8642  -12.7598   21.6111 N   0  0  0  0  0  0  0  0  0  0  0  0
  -27.4284  -18.8362   18.4476 N   0  0  0  0  0  0  0  0  0  0  0  0
  -21.3111  -29.0372   22.1754 N   0  0  0  0  0  0  0  0  0  0  0  0
  -17.6419  -24.1551   19.7799 N   0  0  0  0  0  0  0  0  0  0  0  0
  -17.8702  -22.3495   16.6566 N   0  3  0  0  0  0  0  0  0  0  0  0
  -31.0005  -14.8313   17.2200 O   0  0  0  0  0  0  0  0  0  0  0  0
  -22.7437  -14.8687   21.4172 O   0  0  0  0  0  0  0  0  0  0  0  0
  -25.8718  -20.1009   17.2254 O   0  0  0  0  0  0  0  0  0  0  0  0
  -21.6846  -26.8162   22.7673 O   0  0  0  0  0  0  0  0  0  0  0  0
  -18.2326  -26.8665   20.4928 O   0  0  0  0  0  0  0  0  0  0  0  0
  -18.9985  -22.3554   19.2341 O   0  0  0  0  0  0  0  0  0  0  0  0
  -21.3532   -7.2123   21.5986 O   0  0  0  0  0  0  0  0  0  0  0  0
  -25.6971  -22.8516   20.3451 O   0  0  0  0  0  0  0  0  0  1  0  0
  -23.4378   -3.0188   24.5094 F   0  0  0  0  0  0  0  0  0  0  0  0
  -23.6503   -5.9154   20.7717 F   0  0  0  0  0  0  0  0  0  0  0  0
  -29.2144  -16.8323   19.1630 F   0  0  0  0  0  0  0  0  0  0  0  0
  1  2  1  0  0  0  0
  1  7  2  0  0  0  0
  2  8  2  0  0  0  0
  3  6  1  0  0  0  0
  3 10  2  0  0  0  0
  4 11  2  0  0  0  0
  4 18  1  0  0  0  0
  5 12  1  0  0  0  0
  5 18  2  0  0  0  0
  6 19  2  0  0  0  0
  7 21  1  0  0  0  0
  8 23  1  0  0  0  0
  9 13  2  0  0  0  0
  9 22  1  0  0  0  0
 10 25  1  0  0  0  0
 11 26  1  0  0  0  0
 12 26  2  0  0  0  0
 13 27  1  0  0  0  0
 14 15  2  0  0  0  0
 14 28  1  0  0  0  0
 15 29  1  0  0  0  0
 16 24  1  0  0  0  0
 16 27  2  0  0  0  0
 17 29  2  0  0  0  0
 17 30  1  0  0  0  0
 18 32  1  0  0  0  0
 19 31  1  0  0  0  0
 19 36  1  0  0  0  0
 20 32  1  0  0  0  0
 20 33  2  0  0  0  0
 20 37  1  0  0  0  0
 21 23  2  0  0  0  0
 21 42  1  0  0  0  0
 22 24  2  0  0  0  0
 22 43  1  0  0  0  0
 23 51  1  0  0  0  0
 24 44  1  0  0  0  0
 25 31  2  0  0  0  0
 25 68  1  0  0  0  0
 26 78  1  0  0  0  0
 27 79  1  0  0  0  0
 28 30  2  0  0  0  0
 28 78  1  0  0  0  0
 29 80  1  0  0  0  0
 30 81  1  0  0  0  0
 31 82  1  0  0  0  0
 32 62  2  0  0  0  0
 33 63  1  0  0  0  0
 33 66  1  0  0  0  0
 34 35  2  0  0  0  0
 34 38  1  0  0  0  0
 35 79  1  0  0  0  0
 36 64  1  0  0  0  0
 36 72  2  0  0  0  0
 37 67  1  0  0  0  0
 37 73  2  0  0  0  0
 38 68  1  0  0  0  0
 38 74  2  0  0  0  0
 39 52  1  0  0  0  0
 39 69  1  0  0  0  0
 39 75  2  0  0  0  0
 40 59  1  0  0  0  0
 40 65  1  0  0  0  0
 40 76  2  0  0  0  0
 41 60  1  0  0  0  0
 41 70  1  0  0  0  0
 41 77  2  0  0  0  0
 42 45  1  0  0  0  0
 43 52  1  0  0  0  0
 44 65  1  0  0  0  0
 45 47  1  0  0  0  0
 46 48  1  0  0  0  0
 46 49  1  0  0  0  0
 47 51  1  0  0  0  0
 48 53  1  0  0  0  0
 49 64  1  0  0  0  0
 50 53  1  0  0  0  0
 50 64  1  0  0  0  0
 51 69  1  0  0  0  0
 52 65  1  0  0  0  0
 53 63  1  0  0  0  0
 54 60  1  0  0  0  0
 55 61  1  0  0  0  0
 56 61  1  0  0  0  0
 57 61  1  0  0  0  0
 58 71  1  0  0  0  0
 59 61  1  0  0  0  0
 59 70  1  0  0  0  0
 60 71  1  0  0  0  0
 62 63  1  0  0  0  0
M  CHG  1  71   1
M  ISO  4  19 100  35 101  36 100  79 101
M  END
> <Batch ID>
0092

> <Smiles>
CNC(C)C(=O)NC(C(=O)N1Cc2cc([101O:1][101CH:1]=CC(=O)Nc3ccc[100c:0]([100C:0](=O)N4CCCC(n5nc(-c6ccc(Oc7ccc(F)cc7F)cc6)c(C(N)=O)c5N)C4)c3F)ccc2CC1C(=O)NC1CCCc2ccccc21)C(C)(C)C

> <Shape>
0.241

> <Color>
0.194

> <Negative vol penalty>
0.000

$$$$

  -OEChem-04052300343D

 87 95  0     1  0  0  0  0  0999 V2000
  -18.7742  -24.3069   23.6982 C   0  0  0  0  0  0  0  0  0  0  0  0
  -20.0779  -24.3301   23.2133 C   0  0  0  0  0  0  0  0  0  0  0  0
  -23.5126   -9.8435   22.3459 C   0  0  0  0  0  0  0  0  0  0  0  0
  -24.2908   -9.2012   20.1507 C   0  0  0  0  0  0  0  0  0  0  0  0
  -18.0047  -25.4695   23.6817 C   0  0  0  0  0  0  0  0  0  0  0  0
  -20.6126  -25.5157   22.7105 C   0  0  0  0  0  0  0  0  0  0  0  0
  -25.3204  -26.3791   24.3646 C   0  0  0  0  0  0  0  0  0  0  0  0
  -22.6164   -8.7748   22.3410 C   0  0  0  0  0  0  0  0  0  0  0  0
  -23.3946   -8.1323   20.1458 C   0  0  0  0  0  0  0  0  0  0  0  0
  -26.3506  -25.6644   23.7549 C   0  0  0  0  0  0  0  0  0  0  0  0
  -22.7191   -5.4354   22.8615 C   0  0  0  0  0  0  0  0  0  0  0  0
  -22.6301   -4.6588   24.0167 C   0  0  0  0  0  0  0  0  0  0  0  0
  -23.3321  -21.9861   20.6402 C   0  0  0  0  0  0  0  0  0  0  0  0
  -25.7241  -21.9898   20.3014 C   0  0  0  0  0  0  0  0  0  0  0  0
  -26.8719  -27.5876   22.3952 C   0  0  0  0  0  0  0  0  0  0  0  0
  -20.2893   -5.2231   24.2157 C   0  0  0  0  0  0  0  0  0  0  0  0
  -24.3498  -10.0568   21.2507 C   0  0  0  0  0  0  0  0  0  0  0  0
  -24.5626  -21.3327   20.7072 C   0  0  0  0  0  0  0  0  0  0  0  0
  -26.6019  -11.1565   21.7263 C   0  0  0  0  0  0  0  0  0  0  0  0
  -18.5335  -26.6722   23.1873 C   0  0  0  0  0  0  0  0  0  0  0  0
  -25.0508  -27.7021   23.9858 C   0  0  0  0  0  0  0  0  0  0  0  0
  -19.8490  -26.6952   22.6860 C   0  0  0  0  0  0  0  0  0  0  0  0
  -25.8394  -28.3177   23.0034 C   0  0  0  0  0  0  0  0  0  0  0  0
  -23.2630  -23.2966   20.1673 C   0  0  0  0  0  0  0  0  0  0  0  0
  -24.4246  -23.9537   19.7615 C   0  0  0  0  0  0  0  0  0  0  0  0
  -22.5574   -7.9191   21.2410 C   0  0  0  0  0  0  0  0  0  0  0  0
  -27.1247  -26.2677   22.7680 C   0  0  0  0  0  0  0  0  0  0  0  0
  -21.5933   -6.1059   22.3834 C   0  0  0  0  0  0  0  0  0  0  0  0
  -25.6552  -23.3003   19.8285 C   0  0  0  0  0  0  0  0  0  0  0  0
  -21.4152   -4.5526   24.6938 C   0  0  0  0  0  0  0  0  0  0  0  0
  -20.3784   -5.9997   23.0605 C   0  0  0  0  0  0  0  0  0  0  0  0
  -25.2754  -11.1610   21.2549 C   0  0  0  0  0  0  0  0  0  0  0  0
  -27.0480  -12.4372   21.5087 C   0  0  0  0  0  0  0  0  0  0  0  0
  -23.9802  -18.9357   20.6071 C   0  0  0  0  0  0  0  0  0  0  0  0
  -24.6359  -19.9655   21.1979 C   0  0  0  0  0  0  0  0  0  0  0  0
  -27.3629  -10.0900   22.3086 C   0  0  0  0  0  0  0  0  0  0  0  0
  -24.0474  -17.5440   21.0964 C   0  0  0  0  0  0  0  0  0  0  0  0
  -25.4553  -19.5826   22.4155 C   0  0  0  0  0  0  0  0  0  0  0  0
  -22.5606  -29.2052   22.7039 C   0  0  0  0  0  0  0  0  0  0  0  0
  -24.3725  -31.8421   23.2388 C   0  0  0  0  0  0  0  0  0  0  0  0
  -27.4793  -33.1790   23.6936 C   0  0  0  0  0  0  0  0  0  0  0  0
  -17.6475  -27.8921   23.1462 C   0  0  0  0  0  0  0  0  0  0  0  0
  -23.9532  -28.4681   24.6720 C   0  0  0  0  0  0  0  0  0  0  0  0
  -25.6038  -29.7424   22.5752 C   0  0  0  0  0  0  0  0  0  0  0  0
  -18.4151  -29.1958   22.9424 C   0  0  0  0  0  0  0  0  0  0  0  0
  -26.4139  -16.1977   18.6431 C   0  0  0  0  0  0  0  0  0  0  0  0
  -19.4347  -29.0447   21.8179 C   0  0  0  0  0  0  0  0  0  0  0  0
  -26.4681  -14.7309   19.0616 C   0  0  0  0  0  0  0  0  0  0  0  0
  -25.0277  -16.8031   18.8590 C   0  0  0  0  0  0  0  0  0  0  0  0
  -24.5713  -15.1742   20.6697 C   0  0  0  0  0  0  0  0  0  0  0  0
  -20.4728  -27.9678   22.1554 C   0  0  1  0  0  0  0  0  0  0  0  0
  -23.4358  -29.6409   23.8449 C   0  0  1  0  0  0  0  0  0  0  0  0
  -25.9693  -14.5579   20.5050 C   0  0  1  0  0  0  0  0  0  0  0  0
  -28.6458  -35.3689   24.0696 C   0  0  0  0  0  0  0  0  0  0  0  0
  -23.9913  -32.5478   20.2949 C   0  0  0  0  0  0  0  0  0  0  0  0
  -25.9000  -34.1544   20.5049 C   0  0  0  0  0  0  0  0  0  0  0  0
  -23.8342  -34.4904   21.8622 C   0  0  0  0  0  0  0  0  0  0  0  0
  -28.5580  -32.2891   26.3019 C   0  0  0  0  0  0  0  0  0  0  0  0
  -28.9942  -24.6931   20.0965 C   0  0  0  0  0  0  0  0  0  0  0  0
  -28.4415  -25.9110   20.8200 C   0  0  0  0  0  0  0  0  0  1  0  0
  -28.0067  -23.5368   20.0929 C   0  0  0  0  0  0  0  0  0  0  0  0
  -25.4108  -32.6036   22.4508 C   0  0  1  0  0  0  0  0  0  0  0  0
  -28.0158  -34.1516   24.7284 C   0  0  2  0  0  0  0  0  0  0  0  0
  -24.7875  -33.4216   21.2847 C   0  0  0  0  0  0  0  0  0  0  0  0
  -24.9030  -12.3503   20.7744 N   0  0  0  0  0  0  0  0  0  0  0  0
  -26.0021  -13.1051   20.9426 N   0  0  0  0  0  0  0  0  0  0  0  0
  -24.5478  -16.5737   20.2300 N   0  0  0  0  0  0  0  0  0  0  0  0
  -24.5149  -30.4476   23.2712 N   0  0  0  0  0  0  0  0  0  0  0  0
  -22.0057  -23.9389   20.1073 N   0  0  0  0  0  0  0  0  0  0  0  0
  -24.3627  -25.2829   19.2810 N   0  0  0  0  0  0  0  0  0  0  0  0
  -28.2288  -13.0460   21.7483 N   0  0  0  0  0  0  0  0  0  0  0  0
  -26.7516   -8.8378   22.4592 N   0  0  0  0  0  0  0  0  0  0  0  0
  -25.0810  -20.2173   23.5782 N   0  0  0  0  0  0  0  0  0  0  0  0
  -21.4487  -28.4824   23.0921 N   0  0  0  0  0  0  0  0  0  0  0  0
  -26.1479  -33.4090   23.4185 N   0  0  0  0  0  0  0  0  0  0  0  0
  -29.0473  -33.4893   25.5759 N   0  3  0  0  0  0  0  0  0  0  0  0
  -28.5445  -10.2473   22.6994 O   0  0  0  0  0  0  0  0  0  0  0  0
  -23.6512  -17.3245   22.2425 O   0  0  0  0  0  0  0  0  0  0  0  0
  -26.3797  -18.7730   22.3769 O   0  0  0  0  0  0  0  0  0  0  0  0
  -22.8703  -29.5039   21.5565 O   0  0  0  0  0  0  0  0  0  0  0  0
  -23.4724  -32.4622   23.8107 O   0  0  0  0  0  0  0  0  0  0  0  0
  -28.1730  -32.3053   23.1780 O   0  0  0  0  0  0  0  0  0  0  0  0
  -21.6831   -6.8760   21.2359 O   0  0  0  0  0  0  0  0  0  0  0  0
  -28.1304  -25.5721   22.1708 O   0  0  0  0  0  0  0  0  0  1  0  0
  -26.8088  -23.9275   19.4356 O   0  0  0  0  0  0  0  0  0  0  0  0
  -21.3295   -3.8055   25.8023 F   0  0  0  0  0  0  0  0  0  0  0  0
  -19.2931   -6.6406   22.6053 F   0  0  0  0  0  0  0  0  0  0  0  0
  1  2  1  0  0  0  0
  1  5  2  0  0  0  0
  2  6  2  0  0  0  0
  3  8  2  0  0  0  0
  3 17  1  0  0  0  0
  4  9  1  0  0  0  0
  4 17  2  0  0  0  0
  5 20  1  0  0  0  0
  6 22  1  0  0  0  0
  7 10  2  0  0  0  0
  7 21  1  0  0  0  0
  8 26  1  0  0  0  0
  9 26  2  0  0  0  0
 10 27  1  0  0  0  0
 11 12  2  0  0  0  0
 11 28  1  0  0  0  0
 12 30  1  0  0  0  0
 13 18  1  0  0  0  0
 13 24  2  0  0  0  0
 14 18  2  0  0  0  0
 14 29  1  0  0  0  0
 15 23  1  0  0  0  0
 15 27  2  0  0  0  0
 16 30  2  0  0  0  0
 16 31  1  0  0  0  0
 17 32  1  0  0  0  0
 18 35  1  0  0  0  0
 19 32  1  0  0  0  0
 19 33  2  0  0  0  0
 19 36  1  0  0  0  0
 20 22  2  0  0  0  0
 20 42  1  0  0  0  0
 21 23  2  0  0  0  0
 21 43  1  0  0  0  0
 22 51  1  0  0  0  0
 23 44  1  0  0  0  0
 24 25  1  0  0  0  0
 24 69  1  0  0  0  0
 25 29  2  0  0  0  0
 25 70  1  0  0  0  0
 26 83  1  0  0  0  0
 27 84  1  0  0  0  0
 28 31  2  0  0  0  0
 28 83  1  0  0  0  0
 29 85  1  0  0  0  0
 30 86  1  0  0  0  0
 31 87  1  0  0  0  0
 32 65  2  0  0  0  0
 33 66  1  0  0  0  0
 33 71  1  0  0  0  0
 34 35  2  0  0  0  0
 34 37  1  0  0  0  0
 35 38  1  0  0  0  0
 36 72  1  0  0  0  0
 36 77  2  0  0  0  0
 37 67  1  0  0  0  0
 37 78  2  0  0  0  0
 38 73  1  0  0  0  0
 38 79  2  0  0  0  0
 39 52  1  0  0  0  0
 39 74  1  0  0  0  0
 39 80  2  0  0  0  0
 40 62  1  0  0  0  0
 40 68  1  0  0  0  0
 40 81  2  0  0  0  0
 41 63  1  0  0  0  0
 41 75  1  0  0  0  0
 41 82  2  0  0  0  0
 42 45  1  0  0  0  0
 43 52  1  0  0  0  0
 44 68  1  0  0  0  0
 45 47  1  0  0  0  0
 46 48  1  0  0  0  0
 46 49  1  0  0  0  0
 47 51  1  0  0  0  0
 48 53  1  0  0  0  0
 49 67  1  0  0  0  0
 50 53  1  0  0  0  0
 50 67  1  0  0  0  0
 51 74  1  0  0  0  0
 52 68  1  0  0  0  0
 53 66  1  0  0  0  0
 54 63  1  0  0  0  0
 55 64  1  0  0  0  0
 56 64  1  0  0  0  0
 57 64  1  0  0  0  0
 58 76  1  0  0  0  0
 59 60  1  0  0  0  0
 59 61  1  0  0  0  0
 60 84  1  0  0  0  0
 61 85  1  0  0  0  0
 62 64  1  0  0  0  0
 62 75  1  0  0  0  0
 63 76  1  0  0  0  0
 65 66  1  0  0  0  0
M  CHG  1  76   1
M  ISO  4  34 100  37 100  60 101  84 101
M  END
> <Batch ID>
0092

> <Smiles>
CNC(C)C(=O)NC(C(=O)N1Cc2cc([101O:1][101CH2:1]CCOc3cc(C(=[100CH:0][100C:0](=O)N4CCCC(n5nc(-c6ccc(Oc7ccc(F)cc7F)cc6)c(C(N)=O)c5N)C4)C(N)=O)cc(N)c3N)ccc2CC1C(=O)NC1CCCc2ccccc21)C(C)(C)C

> <Shape>
0.236

> <Color>
0.104

> <Negative vol penalty>
0.000

$$$$

  -OEChem-04052300343D

 86 95  0     1  0  0  0  0  0999 V2000
  -19.7363  -28.2225   23.4703 C   0  0  0  0  0  0  0  0  0  0  0  0
  -19.4163  -26.9322   23.8804 C   0  0  0  0  0  0  0  0  0  0  0  0
  -30.1438  -12.8427   20.3937 C   0  0  0  0  0  0  0  0  0  0  0  0
  -31.4866  -21.9354   19.3811 C   0  0  0  0  0  0  0  0  0  0  0  0
  -29.1376  -22.3182   19.7965 C   0  0  0  0  0  0  0  0  0  0  0  0
  -19.8637  -28.5096   22.1119 C   0  0  0  0  0  0  0  0  0  0  0  0
  -19.2224  -25.9284   22.9321 C   0  0  0  0  0  0  0  0  0  0  0  0
  -22.7458  -18.9952   22.1961 C   0  0  0  0  0  0  0  0  0  0  0  0
  -28.8205  -12.7551   20.8257 C   0  0  0  0  0  0  0  0  0  0  0  0
  -30.4238  -13.1146   19.0545 C   0  0  0  0  0  0  0  0  0  0  0  0
  -31.7015  -23.3125   19.3266 C   0  0  0  0  0  0  0  0  0  0  0  0
  -29.3524  -23.6953   19.7420 C   0  0  0  0  0  0  0  0  0  0  0  0
  -23.4079  -17.8114   21.8695 C   0  0  0  0  0  0  0  0  0  0  0  0
  -31.2564  -25.8162   17.1000 C   0  0  0  0  0  0  0  0  0  0  0  0
  -32.0510  -26.3069   16.0640 C   0  0  0  0  0  0  0  0  0  0  0  0
  -22.8181  -18.1107   19.5435 C   0  0  0  0  0  0  0  0  0  0  0  0
  -28.0570  -13.2111   18.5793 C   0  0  0  0  0  0  0  0  0  0  0  0
  -33.5992  -27.2148   17.6814 C   0  0  0  0  0  0  0  0  0  0  0  0
  -30.2047  -21.4382   19.6160 C   0  0  0  0  0  0  0  0  0  0  0  0
  -30.5672  -19.0981   20.5647 C   0  0  0  0  0  0  0  0  0  0  0  0
  -19.6807  -27.5066   21.1469 C   0  0  0  0  0  0  0  0  0  0  0  0
  -22.1298  -19.7500   21.1941 C   0  0  0  0  0  0  0  0  0  0  0  0
  -19.3461  -26.2026   21.5595 C   0  0  0  0  0  0  0  0  0  0  0  0
  -22.1641  -19.3037   19.8628 C   0  0  0  0  0  0  0  0  0  0  0  0
  -27.7770  -12.9392   19.9185 C   0  0  0  0  0  0  0  0  0  0  0  0
  -29.3804  -13.2987   18.1473 C   0  0  0  0  0  0  0  0  0  0  0  0
  -30.6344  -24.1925   19.5071 C   0  0  0  0  0  0  0  0  0  0  0  0
  -23.4437  -17.3702   20.5465 C   0  0  0  0  0  0  0  0  0  0  0  0
  -31.6332  -26.0248   18.4268 C   0  0  0  0  0  0  0  0  0  0  0  0
  -33.2224  -27.0062   16.3546 C   0  0  0  0  0  0  0  0  0  0  0  0
  -32.8046  -26.7241   18.7174 C   0  0  0  0  0  0  0  0  0  0  0  0
  -29.9821  -20.0157   19.6718 C   0  0  0  0  0  0  0  0  0  0  0  0
  -30.0333  -17.8839   20.2082 C   0  0  0  0  0  0  0  0  0  0  0  0
  -24.2358  -13.8673   20.5901 C   0  0  0  0  0  0  0  0  0  0  0  0
  -23.6968  -12.6660   21.2829 C   0  0  0  0  0  0  0  0  0  0  0  0
  -23.6705  -15.0583   20.8227 C   0  0  0  0  0  0  0  0  0  1  0  0
  -31.5092  -19.3231   21.6220 C   0  0  0  0  0  0  0  0  0  0  0  0
  -20.1681  -22.8237   20.3106 C   0  0  0  0  0  0  0  0  0  0  0  0
  -22.2554  -22.4319   18.0970 C   0  0  0  0  0  0  0  0  0  0  0  0
  -24.7336  -21.8951   15.5325 C   0  0  0  0  0  0  0  0  0  0  0  0
  -28.8275  -14.3467   15.9366 C   0  0  0  0  0  0  0  0  0  0  0  0
  -19.7824  -27.8755   19.6881 C   0  0  0  0  0  0  0  0  0  0  0  0
  -21.3528  -20.9994   21.5087 C   0  0  0  0  0  0  0  0  0  0  0  0
  -21.4580  -20.1303   18.8231 C   0  0  0  0  0  0  0  0  0  0  0  0
  -25.4078  -13.6368   19.6816 C   0  0  0  0  0  0  0  0  0  0  0  0
  -24.6543  -11.5083   21.4130 C   0  0  0  0  0  0  0  0  0  0  0  0
  -19.9293  -26.6697   18.7637 C   0  0  0  0  0  0  0  0  0  0  0  0
  -26.2265  -16.7009   17.1137 C   0  0  0  0  0  0  0  0  0  0  0  0
  -18.9199  -25.5874   19.1334 C   0  0  0  0  0  0  0  0  0  0  0  0
  -27.0354  -17.7421   17.8852 C   0  0  0  0  0  0  0  0  0  0  0  0
  -26.1032  -11.9843   21.4829 C   0  0  0  0  0  0  0  0  0  0  0  0
  -27.0455  -16.0616   15.9964 C   0  0  0  0  0  0  0  0  0  0  0  0
  -29.1420  -16.5055   17.2411 C   0  0  0  0  0  0  0  0  0  0  0  0
  -19.1525  -25.0811   20.5621 C   0  0  1  0  0  0  0  0  0  0  0  0
  -21.4625  -22.0713   20.4095 C   0  0  1  0  0  0  0  0  0  0  0  0
  -28.3518  -17.1352   18.3980 C   0  0  1  0  0  0  0  0  0  0  0  0
  -25.6352  -23.4523   13.7834 C   0  0  0  0  0  0  0  0  0  0  0  0
  -20.1038  -21.2087   16.3142 C   0  0  0  0  0  0  0  0  0  0  0  0
  -21.7320  -21.2903   14.4141 C   0  0  0  0  0  0  0  0  0  0  0  0
  -20.9967  -23.4041   15.5158 C   0  0  0  0  0  0  0  0  0  0  0  0
  -30.7451  -12.8235   16.1219 C   0  0  0  0  0  0  0  0  0  0  0  0
  -27.5247  -21.4523   16.4112 C   0  0  0  0  0  0  0  0  0  0  0  0
  -22.5681  -21.8489   16.7421 C   0  0  1  0  0  0  0  0  0  0  0  0
  -25.8661  -22.8318   15.1524 C   0  0  2  0  0  0  0  0  0  0  0  0
  -21.3566  -21.9242   15.7705 C   0  0  0  0  0  0  0  0  0  0  0  0
  -29.1409  -19.4342   18.8126 N   0  0  0  0  0  0  0  0  0  0  0  0
  -29.1937  -18.1381   19.1639 N   0  0  0  0  0  0  0  0  0  0  0  0
  -26.4517  -12.8521   20.3516 N   0  0  3  0  0  0  0  0  0  0  0  0
  -21.7218  -21.5593   19.0532 N   0  0  0  0  0  0  0  0  0  0  0  0
  -28.3223  -15.5418   16.4885 N   0  0  0  0  0  0  0  0  0  0  0  0
  -30.2047  -16.6343   20.6893 N   0  0  0  0  0  0  0  0  0  0  0  0
  -31.0193  -19.6044   22.9046 N   0  0  0  0  0  0  0  0  0  0  0  0
  -20.2768  -24.1707   20.5989 N   0  0  0  0  0  0  0  0  0  0  0  0
  -23.7604  -22.5413   16.2652 N   0  0  0  0  0  0  0  0  0  0  0  0
  -29.6704  -13.5786   16.7623 N   0  0  0  0  0  0  0  0  0  0  0  0
  -27.1605  -22.0938   15.1218 N   0  3  0  0  0  0  0  0  0  0  0  0
  -22.5388  -12.6003   21.6850 O   0  0  0  0  0  0  0  0  0  0  0  0
  -32.7486  -19.2924   21.4313 O   0  0  0  0  0  0  0  0  0  0  0  0
  -19.1453  -22.2273   19.9945 O   0  0  0  0  0  0  0  0  0  0  0  0
  -22.4720  -23.6294   18.3029 O   0  0  0  0  0  0  0  0  0  0  0  0
  -24.7124  -20.7098   15.2084 O   0  0  0  0  0  0  0  0  0  0  0  0
  -28.5898  -14.0133   14.7691 O   0  0  0  0  0  0  0  0  0  0  0  0
  -30.8437  -25.5363   19.4542 O   0  0  0  0  0  0  0  0  0  0  0  0
  -24.0956  -16.2161   20.2340 O   0  0  0  0  0  0  0  0  0  1  0  0
  -33.9862  -27.4760   15.3596 F   0  0  0  0  0  0  0  0  0  0  0  0
  -33.1723  -26.9266   19.9901 F   0  0  0  0  0  0  0  0  0  0  0  0
  1  2  1  0  0  0  0
  1  6  2  0  0  0  0
  2  7  2  0  0  0  0
  3  9  2  0  0  0  0
  3 10  1  0  0  0  0
  4 11  2  0  0  0  0
  4 19  1  0  0  0  0
  5 12  1  0  0  0  0
  5 19  2  0  0  0  0
  6 21  1  0  0  0  0
  7 23  1  0  0  0  0
  8 13  2  0  0  0  0
  8 22  1  0  0  0  0
  9 25  1  0  0  0  0
 10 26  2  0  0  0  0
 11 27  1  0  0  0  0
 12 27  2  0  0  0  0
 13 28  1  0  0  0  0
 14 15  2  0  0  0  0
 14 29  1  0  0  0  0
 15 30  1  0  0  0  0
 16 24  1  0  0  0  0
 16 28  2  0  0  0  0
 17 25  2  0  0  0  0
 17 26  1  0  0  0  0
 18 30  2  0  0  0  0
 18 31  1  0  0  0  0
 19 32  1  0  0  0  0
 20 32  1  0  0  0  0
 20 33  2  0  0  0  0
 20 37  1  0  0  0  0
 21 23  2  0  0  0  0
 21 42  1  0  0  0  0
 22 24  2  0  0  0  0
 22 43  1  0  0  0  0
 23 54  1  0  0  0  0
 24 44  1  0  0  0  0
 25 68  1  0  0  0  0
 26 75  1  0  0  0  0
 27 83  1  0  0  0  0
 28 84  1  0  0  0  0
 29 31  2  0  0  0  0
 29 83  1  0  0  0  0
 30 85  1  0  0  0  0
 31 86  1  0  0  0  0
 32 66  2  0  0  0  0
 33 67  1  0  0  0  0
 33 71  1  0  0  0  0
 34 35  1  0  0  0  0
 34 36  2  0  0  0  0
 34 45  1  0  0  0  0
 35 46  1  0  0  0  0
 35 77  2  0  0  0  0
 36 84  1  0  0  0  0
 37 72  1  0  0  0  0
 37 78  2  0  0  0  0
 38 55  1  0  0  0  0
 38 73  1  0  0  0  0
 38 79  2  0  0  0  0
 39 63  1  0  0  0  0
 39 69  1  0  0  0  0
 39 80  2  0  0  0  0
 40 64  1  0  0  0  0
 40 74  1  0  0  0  0
 40 81  2  0  0  0  0
 41 70  1  0  0  0  0
 41 75  1  0  0  0  0
 41 82  2  0  0  0  0
 42 47  1  0  0  0  0
 43 55  1  0  0  0  0
 44 69  1  0  0  0  0
 45 68  1  0  0  0  0
 46 51  1  0  0  0  0
 47 49  1  0  0  0  0
 48 50  1  0  0  0  0
 48 52  1  0  0  0  0
 49 54  1  0  0  0  0
 50 56  1  0  0  0  0
 51 68  1  0  0  0  0
 52 70  1  0  0  0  0
 53 56  1  0  0  0  0
 53 70  1  0  0  0  0
 54 73  1  0  0  0  0
 55 69  1  0  0  0  0
 56 67  1  0  0  0  0
 57 64  1  0  0  0  0
 58 65  1  0  0  0  0
 59 65  1  0  0  0  0
 60 65  1  0  0  0  0
 61 75  1  0  0  0  0
 62 76  1  0  0  0  0
 63 65  1  0  0  0  0
 63 74  1  0  0  0  0
 64 76  1  0  0  0  0
 66 67  1  0  0  0  0
M  CHG  1  76   1
M  ISO  4  36 101  41 100  75 100  84 101
M  END
> <Batch ID>
0092

> <Smiles>
CNC(C)C(=O)NC(C(=O)N1Cc2cc([101O:1][101CH:1]=C3CN(c4cccc([100N:0](C)[100C:0](=O)N5CCCC(n6nc(-c7ccc(Oc8ccc(F)cc8F)cc7)c(C(N)=O)c6N)C5)c4)CCC3=O)ccc2CC1C(=O)NC1CCCc2ccccc21)C(C)(C)C

> <Shape>
0.197

> <Color>
0.078

> <Negative vol penalty>
0.000

$$$$

  -OEChem-04052300343D

 84 92  0     1  0  0  0  0  0999 V2000
  -29.0593  -34.8006   25.5280 C   0  0  0  0  0  0  0  0  0  0  0  0
  -29.3589  -33.7982   24.6109 C   0  0  0  0  0  0  0  0  0  0  0  0
  -24.0328  -10.0094   22.5681 C   0  0  0  0  0  0  0  0  0  0  0  0
  -24.4015  -11.7239   24.2299 C   0  0  0  0  0  0  0  0  0  0  0  0
  -28.0280  -34.6165   26.4481 C   0  0  0  0  0  0  0  0  0  0  0  0
  -28.6281  -32.6107   24.6142 C   0  0  0  0  0  0  0  0  0  0  0  0
  -27.1174  -29.2042   19.7543 C   0  0  0  0  0  0  0  0  0  0  0  0
  -29.8622  -18.5353   22.0431 C   0  0  0  0  0  0  0  0  0  0  0  0
  -29.5489  -19.7681   21.4707 C   0  0  0  0  0  0  0  0  0  0  0  0
  -23.5953   -9.1373   23.5649 C   0  0  0  0  0  0  0  0  0  0  0  0
  -23.9640  -10.8518   25.2267 C   0  0  0  0  0  0  0  0  0  0  0  0
  -27.6778  -28.0512   19.2063 C   0  0  0  0  0  0  0  0  0  0  0  0
  -20.7811   -8.6260   25.3682 C   0  0  0  0  0  0  0  0  0  0  0  0
  -19.6249   -7.8862   25.1205 C   0  0  0  0  0  0  0  0  0  0  0  0
  -26.0812  -26.7073   20.4162 C   0  0  0  0  0  0  0  0  0  0  0  0
  -31.8542  -18.4094   20.6818 C   0  0  0  0  0  0  0  0  0  0  0  0
  -20.8803   -5.8380   25.3781 C   0  0  0  0  0  0  0  0  0  0  0  0
  -24.4359  -11.3027   22.9006 C   0  0  0  0  0  0  0  0  0  0  0  0
  -24.1039  -13.1002   21.1211 C   0  0  0  0  0  0  0  0  0  0  0  0
  -27.2779  -33.4299   26.4563 C   0  0  0  0  0  0  0  0  0  0  0  0
  -26.0399  -29.1166   20.6474 C   0  0  0  0  0  0  0  0  0  0  0  0
  -27.5868  -32.4100   25.5362 C   0  0  0  0  0  0  0  0  0  0  0  0
  -25.5073  -27.8609   20.9722 C   0  0  0  0  0  0  0  0  0  0  0  0
  -31.0149  -17.8560   21.6487 C   0  0  0  0  0  0  0  0  0  0  0  0
  -30.3882  -20.3215   20.5038 C   0  0  0  0  0  0  0  0  0  0  0  0
  -31.5409  -19.6422   20.1094 C   0  0  0  0  0  0  0  0  0  0  0  0
  -23.5609   -9.5585   24.8942 C   0  0  0  0  0  0  0  0  0  0  0  0
  -27.1616  -26.8023   19.5395 C   0  0  0  0  0  0  0  0  0  0  0  0
  -21.9870   -7.9719   25.6207 C   0  0  0  0  0  0  0  0  0  0  0  0
  -19.6744   -6.4922   25.1255 C   0  0  0  0  0  0  0  0  0  0  0  0
  -22.0365   -6.5779   25.6256 C   0  0  0  0  0  0  0  0  0  0  0  0
  -24.8884  -12.2039   21.8714 C   0  0  0  0  0  0  0  0  0  0  0  0
  -24.9980  -13.7210   20.2835 C   0  0  0  0  0  0  0  0  0  0  0  0
  -22.6930  -13.3494   21.1764 C   0  0  0  0  0  0  0  0  0  0  0  0
  -25.5736  -29.9246   23.6861 C   0  0  0  0  0  0  0  0  0  0  0  0
  -28.8367  -23.5931   19.5178 C   0  0  0  0  0  0  0  0  0  0  0  0
  -22.5185  -29.0424   23.0457 C   0  0  0  0  0  0  0  0  0  0  0  0
  -20.3747  -27.2049   21.1288 C   0  0  0  0  0  0  0  0  0  0  0  0
  -30.8908  -14.7238   20.6312 C   0  0  0  0  0  0  0  0  0  0  0  0
  -26.2037  -33.2575   27.5008 C   0  0  0  0  0  0  0  0  0  0  0  0
  -25.4295  -30.3713   21.2090 C   0  0  0  0  0  0  0  0  0  0  0  0
  -24.3382  -27.7139   21.9104 C   0  0  0  0  0  0  0  0  0  0  0  0
  -25.2317  -32.1213   27.1931 C   0  0  0  0  0  0  0  0  0  0  0  0
  -29.1634  -12.9879   18.0467 C   0  0  0  0  0  0  0  0  0  0  0  0
  -25.9919  -30.8680   26.7710 C   0  0  0  0  0  0  0  0  0  0  0  0
  -27.8011  -12.6710   18.6662 C   0  0  0  0  0  0  0  0  0  0  0  0
  -30.2874  -12.8924   19.0761 C   0  0  0  0  0  0  0  0  0  0  0  0
  -28.7195  -13.3813   20.9136 C   0  0  0  0  0  0  0  0  0  0  0  0
  -26.8005  -31.1177   25.4922 C   0  0  1  0  0  0  0  0  0  0  0  0
  -24.6651  -30.1343   22.5079 C   0  0  1  0  0  0  0  0  0  0  0  0
  -27.5474  -13.5192   19.9269 C   0  0  2  0  0  0  0  0  0  0  0  0
  -17.9392  -26.6586   20.8691 C   0  0  0  0  0  0  0  0  0  0  0  0
  -22.6781  -27.1911   25.4658 C   0  0  0  0  0  0  0  0  0  0  0  0
  -20.6431  -26.0105   24.6095 C   0  0  0  0  0  0  0  0  0  0  0  0
  -20.5133  -28.4219   25.2349 C   0  0  0  0  0  0  0  0  0  0  0  0
  -20.2949  -28.3303   18.3928 C   0  0  0  0  0  0  0  0  0  0  0  0
  -31.3500  -16.5381   22.2611 C   0  0  0  0  0  0  0  0  0  0  0  0
  -28.8858  -22.3042   20.3106 C   0  0  0  0  0  0  0  0  0  0  0  0
  -27.6442  -24.4877   19.7952 C   0  0  0  0  0  0  0  0  0  1  0  0
  -21.7388  -27.7523   23.1273 C   0  0  1  0  0  0  0  0  0  0  0  0
  -19.0749  -27.5729   20.4364 C   0  0  2  0  0  0  0  0  0  0  0  0
  -21.4166  -27.3463   24.5932 C   0  0  0  0  0  0  0  0  0  0  0  0
  -26.1815  -12.2481   21.5396 N   0  0  0  0  0  0  0  0  0  0  0  0
  -26.2163  -13.1796   20.5715 N   0  0  0  0  0  0  0  0  0  0  0  0
  -23.7801  -28.9698   22.4384 N   0  0  0  0  0  0  0  0  0  0  0  0
  -29.9859  -13.7209   20.2459 N   0  0  0  0  0  0  0  0  0  0  0  0
  -32.4052  -20.1854   19.1328 N   0  0  0  0  0  0  0  0  0  0  0  0
  -24.8531  -14.6715   19.3360 N   0  0  0  0  0  0  0  0  0  0  0  0
  -21.9219  -12.6240   22.0948 N   0  0  0  0  0  0  0  0  0  0  0  0
  -30.0582  -21.5496   19.9485 N   0  0  0  0  0  0  0  0  0  0  0  0
  -25.9342  -31.0910   24.3332 N   0  0  0  0  0  0  0  0  0  0  0  0
  -20.5615  -27.9329   22.2848 N   0  0  0  0  0  0  0  0  0  0  0  0
  -30.5256  -15.4673   21.7467 N   0  0  0  0  0  0  0  0  0  0  0  0
  -19.2272  -27.4656   18.9578 N   0  3  0  0  0  0  0  0  0  0  0  0
  -22.1302  -14.1786   20.4220 O   0  0  0  0  0  0  0  0  0  0  0  0
  -25.9206  -28.7884   23.9867 O   0  0  0  0  0  0  0  0  0  0  0  0
  -29.7014  -23.9043   18.6997 O   0  0  0  0  0  0  0  0  0  0  0  0
  -22.0232  -30.0779   23.4975 O   0  0  0  0  0  0  0  0  0  0  0  0
  -21.1454  -26.3539   20.6901 O   0  0  0  0  0  0  0  0  0  0  0  0
  -31.9435  -14.9440   20.0227 O   0  0  0  0  0  0  0  0  0  0  0  0
  -23.1339   -8.7078   25.8671 O   0  0  0  0  0  0  0  0  0  0  0  0
  -27.7071  -25.6753   19.0065 O   0  0  0  0  0  0  0  0  0  1  0  0
  -18.5637   -5.7819   24.8892 F   0  0  0  0  0  0  0  0  0  0  0  0
  -23.1918   -5.9439   25.8688 F   0  0  0  0  0  0  0  0  0  0  0  0
  1  2  1  0  0  0  0
  1  5  2  0  0  0  0
  2  6  2  0  0  0  0
  3 10  2  0  0  0  0
  3 18  1  0  0  0  0
  4 11  1  0  0  0  0
  4 18  2  0  0  0  0
  5 20  1  0  0  0  0
  6 22  1  0  0  0  0
  7 12  2  0  0  0  0
  7 21  1  0  0  0  0
  8  9  2  0  0  0  0
  8 24  1  0  0  0  0
  9 25  1  0  0  0  0
 10 27  1  0  0  0  0
 11 27  2  0  0  0  0
 12 28  1  0  0  0  0
 13 14  2  0  0  0  0
 13 29  1  0  0  0  0
 14 30  1  0  0  0  0
 15 23  1  0  0  0  0
 15 28  2  0  0  0  0
 16 24  2  0  0  0  0
 16 26  1  0  0  0  0
 17 30  2  0  0  0  0
 17 31  1  0  0  0  0
 18 32  1  0  0  0  0
 19 32  1  0  0  0  0
 19 33  2  0  0  0  0
 19 34  1  0  0  0  0
 20 22  2  0  0  0  0
 20 40  1  0  0  0  0
 21 23  2  0  0  0  0
 21 41  1  0  0  0  0
 22 49  1  0  0  0  0
 23 42  1  0  0  0  0
 24 57  1  0  0  0  0
 25 26  2  0  0  0  0
 25 70  1  0  0  0  0
 26 67  1  0  0  0  0
 27 81  1  0  0  0  0
 28 82  1  0  0  0  0
 29 31  2  0  0  0  0
 29 81  1  0  0  0  0
 30 83  1  0  0  0  0
 31 84  1  0  0  0  0
 32 63  2  0  0  0  0
 33 64  1  0  0  0  0
 33 68  1  0  0  0  0
 34 69  1  0  0  0  0
 34 75  2  0  0  0  0
 35 50  1  0  0  0  0
 35 71  1  0  0  0  0
 35 76  2  0  0  0  0
 36 58  1  0  0  0  0
 36 59  1  0  0  0  0
 36 77  2  0  0  0  0
 37 60  1  0  0  0  0
 37 65  1  0  0  0  0
 37 78  2  0  0  0  0
 38 61  1  0  0  0  0
 38 72  1  0  0  0  0
 38 79  2  0  0  0  0
 39 66  1  0  0  0  0
 39 73  1  0  0  0  0
 39 80  2  0  0  0  0
 40 43  1  0  0  0  0
 41 50  1  0  0  0  0
 42 65  1  0  0  0  0
 43 45  1  0  0  0  0
 44 46  1  0  0  0  0
 44 47  1  0  0  0  0
 45 49  1  0  0  0  0
 46 51  1  0  0  0  0
 47 66  1  0  0  0  0
 48 51  1  0  0  0  0
 48 66  1  0  0  0  0
 49 71  1  0  0  0  0
 50 65  1  0  0  0  0
 51 64  1  0  0  0  0
 52 61  1  0  0  0  0
 53 62  1  0  0  0  0
 54 62  1  0  0  0  0
 55 62  1  0  0  0  0
 56 74  1  0  0  0  0
 57 73  1  0  0  0  0
 58 70  1  0  0  0  0
 59 82  1  0  0  0  0
 60 62  1  0  0  0  0
 60 72  1  0  0  0  0
 61 74  1  0  0  0  0
 63 64  1  0  0  0  0
M  CHG  1  74   1
M  ISO  4  39 100  59 101  73 100  82 101
M  END
> <Batch ID>
0092

> <Smiles>
CNC(C)C(=O)NC(C(=O)N1Cc2cc([101O:1][101CH2:1]C(=O)CNc3ccc(C[100NH:0][100C:0](=O)N4CCCC(n5nc(-c6ccc(Oc7ccc(F)cc7F)cc6)c(C(N)=O)c5N)C4)cc3N)ccc2CC1C(=O)NC1CCCc2ccccc21)C(C)(C)C

> <Shape>
0.332

> <Color>
0.119

> <Negative vol penalty>
0.000

$$$$

  -OEChem-04052300343D

 83 91  0     1  0  0  0  0  0999 V2000
  -16.8354  -25.9425   22.5319 C   0  0  0  0  0  0  0  0  0  0  0  0
  -18.1370  -25.4539   22.5839 C   0  0  0  0  0  0  0  0  0  0  0  0
  -23.1670  -10.3082   20.8596 C   0  0  0  0  0  0  0  0  0  0  0  0
  -24.4673   -8.8672   22.2984 C   0  0  0  0  0  0  0  0  0  0  0  0
  -28.4022  -20.0369   20.3381 C   0  0  0  0  0  0  0  0  0  0  0  0
  -16.6008  -27.2560   22.1276 C   0  0  0  0  0  0  0  0  0  0  0  0
  -19.2046  -26.2783   22.2307 C   0  0  0  0  0  0  0  0  0  0  0  0
  -23.0683  -25.9566   25.4885 C   0  0  0  0  0  0  0  0  0  0  0  0
  -27.4981  -20.8550   21.0155 C   0  0  0  0  0  0  0  0  0  0  0  0
  -22.2278   -9.2911   20.6896 C   0  0  0  0  0  0  0  0  0  0  0  0
  -23.5280   -7.8500   22.1284 C   0  0  0  0  0  0  0  0  0  0  0  0
  -23.9013  -24.8438   25.3804 C   0  0  0  0  0  0  0  0  0  0  0  0
  -20.4756   -7.0527   23.3399 C   0  0  0  0  0  0  0  0  0  0  0  0
  -20.0669   -6.3538   24.4757 C   0  0  0  0  0  0  0  0  0  0  0  0
  -25.5120  -26.1741   24.1742 C   0  0  0  0  0  0  0  0  0  0  0  0
  -26.7237  -18.9495   22.2830 C   0  0  0  0  0  0  0  0  0  0  0  0
  -20.8789   -4.2970   23.5021 C   0  0  0  0  0  0  0  0  0  0  0  0
  -24.2868  -10.0962   21.6639 C   0  0  0  0  0  0  0  0  0  0  0  0
  -28.4671  -18.6751   20.6331 C   0  0  0  0  0  0  0  0  0  0  0  0
  -25.2618  -12.1427   22.8339 C   0  0  0  0  0  0  0  0  0  0  0  0
  -17.6669  -28.1000   21.7784 C   0  0  0  0  0  0  0  0  0  0  0  0
  -23.4468  -27.1859   24.9297 C   0  0  0  0  0  0  0  0  0  0  0  0
  -18.9839  -27.6040   21.8200 C   0  0  0  0  0  0  0  0  0  0  0  0
  -24.6832  -27.3016   24.2787 C   0  0  0  0  0  0  0  0  0  0  0  0
  -26.6588  -20.3113   21.9880 C   0  0  0  0  0  0  0  0  0  0  0  0
  -22.4083   -8.0620   21.3241 C   0  0  0  0  0  0  0  0  0  0  0  0
  -25.1220  -24.9517   24.7207 C   0  0  0  0  0  0  0  0  0  0  0  0
  -21.0859   -6.3738   22.2852 C   0  0  0  0  0  0  0  0  0  0  0  0
  -20.2685   -4.9759   24.5568 C   0  0  0  0  0  0  0  0  0  0  0  0
  -27.6278  -18.1314   21.6056 C   0  0  0  0  0  0  0  0  0  0  0  0
  -21.2876   -4.9960   22.3663 C   0  0  0  0  0  0  0  0  0  0  0  0
  -25.2577  -11.1464   21.8395 C   0  0  0  0  0  0  0  0  0  0  0  0
  -26.3841  -12.8885   22.5681 C   0  0  0  0  0  0  0  0  0  0  0  0
  -26.1881  -21.6795   23.7578 C   0  0  0  0  0  0  0  0  0  0  0  0
  -29.4303  -17.8063   19.9091 C   0  0  0  0  0  0  0  0  0  0  0  0
  -24.3342  -12.3734   23.9026 C   0  0  0  0  0  0  0  0  0  0  0  0
  -22.2598  -29.0848   22.6738 C   0  0  0  0  0  0  0  0  0  0  0  0
  -24.6301  -31.0736   23.6479 C   0  0  0  0  0  0  0  0  0  0  0  0
  -27.6728  -31.4370   25.1500 C   0  0  0  0  0  0  0  0  0  0  0  0
  -29.7768  -15.5087   19.0578 C   0  0  0  0  0  0  0  0  0  0  0  0
  -17.3602  -29.4978   21.3023 C   0  0  0  0  0  0  0  0  0  0  0  0
  -22.5489  -28.3835   25.0781 C   0  0  0  0  0  0  0  0  0  0  0  0
  -25.1450  -28.6039   23.6793 C   0  0  0  0  0  0  0  0  0  0  0  0
  -18.5752  -30.4220   21.3038 C   0  0  0  0  0  0  0  0  0  0  0  0
  -30.2460  -12.0224   19.4075 C   0  0  0  0  0  0  0  0  0  0  0  0
  -19.7766  -29.7255   20.6726 C   0  0  0  0  0  0  0  0  0  0  0  0
  -28.9945  -11.5633   20.1606 C   0  0  0  0  0  0  0  0  0  0  0  0
  -29.9282  -13.1240   18.3974 C   0  0  0  0  0  0  0  0  0  0  0  0
  -27.9513  -13.8159   19.6900 C   0  0  0  0  0  0  0  0  0  0  0  0
  -20.1703  -28.4752   21.4683 C   0  0  1  0  0  0  0  0  0  0  0  0
  -22.8046  -29.4562   24.0240 C   0  0  1  0  0  0  0  0  0  0  0  0
  -28.2306  -12.7568   20.7686 C   0  0  1  0  0  0  0  0  0  0  0  0
  -29.3698  -33.1799   25.7664 C   0  0  0  0  0  0  0  0  0  0  0  0
  -25.5304  -31.2233   20.7364 C   0  0  0  0  0  0  0  0  0  0  0  0
  -27.7121  -32.1590   21.5319 C   0  0  0  0  0  0  0  0  0  0  0  0
  -25.5928  -33.4029   21.9610 C   0  0  0  0  0  0  0  0  0  0  0  0
  -27.4215  -30.8277   28.0352 C   0  0  0  0  0  0  0  0  0  0  0  0
  -25.3097  -22.5859   24.5671 C   0  0  0  0  0  0  0  0  0  1  0  0
  -26.0731  -31.2876   23.2597 C   0  0  1  0  0  0  0  0  0  0  0  0
  -28.1561  -32.3889   26.2292 C   0  0  2  0  0  0  0  0  0  0  0  0
  -26.2178  -31.9930   21.8818 C   0  0  0  0  0  0  0  0  0  0  0  0
  -26.2949  -11.2473   21.0041 N   0  0  0  0  0  0  0  0  0  0  0  0
  -25.7481  -21.1354   22.6706 N   0  0  0  0  0  0  0  0  0  0  0  0
  -26.9613  -12.3161   21.4730 N   0  0  0  0  0  0  0  0  0  0  0  0
  -24.2291  -29.7446   23.8450 N   0  0  0  0  0  0  0  0  0  0  0  0
  -29.2139  -14.2205   19.0536 N   0  0  0  0  0  0  0  0  0  0  0  0
  -26.9236  -13.9717   23.1665 N   0  0  0  0  0  0  0  0  0  0  0  0
  -23.2359  -11.5124   24.0315 N   0  0  0  0  0  0  0  0  0  0  0  0
  -29.0383  -16.4772   19.7468 N   0  0  0  0  0  0  0  0  0  0  0  0
  -20.8990  -28.8450   22.6628 N   0  0  0  0  0  0  0  0  0  0  0  0
  -26.6914  -32.0079   24.3676 N   0  0  0  0  0  0  0  0  0  0  0  0
  -28.5287  -31.6326   27.4581 N   0  3  0  0  0  0  0  0  0  0  0  0
  -30.4672  -18.2977   19.4719 O   0  0  0  0  0  0  0  0  0  0  0  0
  -24.4661  -13.3251   24.7090 O   0  0  0  0  0  0  0  0  0  0  0  0
  -23.0177  -29.0218   21.7129 O   0  0  0  0  0  0  0  0  0  0  0  0
  -23.8878  -32.0501   23.7786 O   0  0  0  0  0  0  0  0  0  0  0  0
  -28.1237  -30.3020   25.0123 O   0  0  0  0  0  0  0  0  0  0  0  0
  -30.8617  -15.7665   18.5269 O   0  0  0  0  0  0  0  0  0  0  0  0
  -21.4919   -7.0693   21.1586 O   0  0  0  0  0  0  0  0  0  0  0  0
  -25.9367  -23.8670   24.6133 O   0  0  0  0  0  0  0  0  0  1  0  0
  -19.8773   -4.3051   25.6482 F   0  0  0  0  0  0  0  0  0  0  0  0
  -27.6813  -16.8239   21.8964 F   0  0  0  0  0  0  0  0  0  0  0  0
  -21.8744   -4.3386   21.3568 F   0  0  0  0  0  0  0  0  0  0  0  0
  1  2  1  0  0  0  0
  1  6  2  0  0  0  0
  2  7  2  0  0  0  0
  3 10  2  0  0  0  0
  3 18  1  0  0  0  0
  4 11  1  0  0  0  0
  4 18  2  0  0  0  0
  5  9  2  0  0  0  0
  5 19  1  0  0  0  0
  6 21  1  0  0  0  0
  7 23  1  0  0  0  0
  8 12  2  0  0  0  0
  8 22  1  0  0  0  0
  9 25  1  0  0  0  0
 10 26  1  0  0  0  0
 11 26  2  0  0  0  0
 12 27  1  0  0  0  0
 13 14  2  0  0  0  0
 13 28  1  0  0  0  0
 14 29  1  0  0  0  0
 15 24  1  0  0  0  0
 15 27  2  0  0  0  0
 16 25  2  0  0  0  0
 16 30  1  0  0  0  0
 17 29  2  0  0  0  0
 17 31  1  0  0  0  0
 18 32  1  0  0  0  0
 19 30  2  0  0  0  0
 19 35  1  0  0  0  0
 20 32  1  0  0  0  0
 20 33  2  0  0  0  0
 20 36  1  0  0  0  0
 21 23  2  0  0  0  0
 21 41  1  0  0  0  0
 22 24  2  0  0  0  0
 22 42  1  0  0  0  0
 23 50  1  0  0  0  0
 24 43  1  0  0  0  0
 25 63  1  0  0  0  0
 26 79  1  0  0  0  0
 27 80  1  0  0  0  0
 28 31  2  0  0  0  0
 28 79  1  0  0  0  0
 29 81  1  0  0  0  0
 30 82  1  0  0  0  0
 31 83  1  0  0  0  0
 32 62  2  0  0  0  0
 33 64  1  0  0  0  0
 33 67  1  0  0  0  0
 34 58  1  0  0  0  0
 34 63  2  0  0  0  0
 35 69  1  0  0  0  0
 35 73  2  0  0  0  0
 36 68  1  0  0  0  0
 36 74  2  0  0  0  0
 37 51  1  0  0  0  0
 37 70  1  0  0  0  0
 37 75  2  0  0  0  0
 38 59  1  0  0  0  0
 38 65  1  0  0  0  0
 38 76  2  0  0  0  0
 39 60  1  0  0  0  0
 39 71  1  0  0  0  0
 39 77  2  0  0  0  0
 40 66  1  0  0  0  0
 40 69  1  0  0  0  0
 40 78  2  0  0  0  0
 41 44  1  0  0  0  0
 42 51  1  0  0  0  0
 43 65  1  0  0  0  0
 44 46  1  0  0  0  0
 45 47  1  0  0  0  0
 45 48  1  0  0  0  0
 46 50  1  0  0  0  0
 47 52  1  0  0  0  0
 48 66  1  0  0  0  0
 49 52  1  0  0  0  0
 49 66  1  0  0  0  0
 50 70  1  0  0  0  0
 51 65  1  0  0  0  0
 52 64  1  0  0  0  0
 53 60  1  0  0  0  0
 54 61  1  0  0  0  0
 55 61  1  0  0  0  0
 56 61  1  0  0  0  0
 57 72  1  0  0  0  0
 58 80  1  0  0  0  0
 59 61  1  0  0  0  0
 59 71  1  0  0  0  0
 60 72  1  0  0  0  0
 62 64  1  0  0  0  0
M  CHG  1  72   1
M  ISO  4  40 100  58 101  69 100  80 101
M  END
> <Batch ID>
0092

> <Smiles>
CNC(C)C(=O)NC(C(=O)N1Cc2cc([101O:1][101CH:1]=CNc3ccc(C(=O)[100NH:0][100C:0](=O)N4CCCC(n5nc(-c6ccc(Oc7ccc(F)cc7F)cc6)c(C(N)=O)c5N)C4)c(F)c3)ccc2CC1C(=O)NC1CCCc2ccccc21)C(C)(C)C

> <Shape>
0.293

> <Color>
0.116

> <Negative vol penalty>
0.000

$$$$

  -OEChem-04052300343D

 83 91  0     1  0  0  0  0  0999 V2000
  -28.6512  -36.7740   20.6843 C   0  0  0  0  0  0  0  0  0  0  0  0
  -28.8939  -35.4071   20.7745 C   0  0  0  0  0  0  0  0  0  0  0  0
  -23.4956   -9.6271   22.5568 C   0  0  0  0  0  0  0  0  0  0  0  0
  -23.3556   -9.7017   20.1460 C   0  0  0  0  0  0  0  0  0  0  0  0
  -27.5513  -37.3300   21.3363 C   0  0  0  0  0  0  0  0  0  0  0  0
  -28.0375  -34.5956   21.5178 C   0  0  0  0  0  0  0  0  0  0  0  0
  -26.8443  -30.3064   19.1045 C   0  0  0  0  0  0  0  0  0  0  0  0
  -22.6813   -8.4947   22.5691 C   0  0  0  0  0  0  0  0  0  0  0  0
  -22.5413   -8.5692   20.1583 C   0  0  0  0  0  0  0  0  0  0  0  0
  -27.7975  -29.2889   19.1055 C   0  0  0  0  0  0  0  0  0  0  0  0
  -23.0169   -5.1790   21.9981 C   0  0  0  0  0  0  0  0  0  0  0  0
  -23.3975   -4.1158   22.8169 C   0  0  0  0  0  0  0  0  0  0  0  0
  -26.6061  -28.1827   20.8876 C   0  0  0  0  0  0  0  0  0  0  0  0
  -21.3171   -4.3058   24.0306 C   0  0  0  0  0  0  0  0  0  0  0  0
  -23.8327  -10.2307   21.3453 C   0  0  0  0  0  0  0  0  0  0  0  0
  -26.0783  -11.4373   21.2513 C   0  0  0  0  0  0  0  0  0  0  0  0
  -26.6755  -36.5234   22.0800 C   0  0  0  0  0  0  0  0  0  0  0  0
  -25.7690  -30.2751   20.0040 C   0  0  0  0  0  0  0  0  0  0  0  0
  -26.9256  -35.1416   22.1814 C   0  0  0  0  0  0  0  0  0  0  0  0
  -25.6392  -29.1996   20.8943 C   0  0  0  0  0  0  0  0  0  0  0  0
  -22.2042   -7.9657   21.3699 C   0  0  0  0  0  0  0  0  0  0  0  0
  -27.6801  -28.2284   19.9990 C   0  0  0  0  0  0  0  0  0  0  0  0
  -21.7865   -5.8057   22.1957 C   0  0  0  0  0  0  0  0  0  0  0  0
  -22.5476   -3.6791   23.8331 C   0  0  0  0  0  0  0  0  0  0  0  0
  -20.9366   -5.3690   23.2119 C   0  0  0  0  0  0  0  0  0  0  0  0
  -24.6734  -11.4008   21.3320 C   0  0  0  0  0  0  0  0  0  0  0  0
  -26.3889  -12.7750   21.2738 C   0  0  0  0  0  0  0  0  0  0  0  0
  -27.3790  -19.9823   19.0596 C   0  0  0  0  0  0  0  0  0  0  0  0
  -26.0690  -20.2077   19.2339 C   0  0  0  0  0  0  0  0  0  0  0  0
  -25.5969  -21.6167   19.2879 C   0  0  0  0  0  0  0  0  0  0  0  0
  -27.9354  -22.1717   18.9704 C   0  0  0  0  0  0  0  0  0  0  0  0
  -27.0186  -10.3584   21.1638 C   0  0  0  0  0  0  0  0  0  0  0  0
  -24.7675  -32.1482   22.3688 C   0  0  0  0  0  0  0  0  0  0  0  0
  -22.2384  -30.1170   22.3848 C   0  0  0  0  0  0  0  0  0  0  0  0
  -28.4267  -24.5473   18.8884 C   0  0  0  0  0  0  0  0  0  0  0  0
  -21.0020  -27.0239   21.6428 C   0  0  0  0  0  0  0  0  0  0  0  0
  -25.4781  -17.8523   19.3288 C   0  0  0  0  0  0  0  0  0  0  0  0
  -25.5267  -37.1771   22.8063 C   0  0  0  0  0  0  0  0  0  0  0  0
  -24.7346  -31.3667   19.9721 C   0  0  0  0  0  0  0  0  0  0  0  0
  -24.4923  -29.1088   21.8663 C   0  0  0  0  0  0  0  0  0  0  0  0
  -24.4558  -36.1907   23.2650 C   0  0  0  0  0  0  0  0  0  0  0  0
  -23.5509  -16.8095   22.3049 C   0  0  0  0  0  0  0  0  0  0  0  0
  -25.0973  -34.9800   23.9355 C   0  0  0  0  0  0  0  0  0  0  0  0
  -23.7501  -15.2973   22.2679 C   0  0  0  0  0  0  0  0  0  0  0  0
  -23.4934  -17.4152   20.9031 C   0  0  0  0  0  0  0  0  0  0  0  0
  -24.8705  -15.5533   20.0199 C   0  0  0  0  0  0  0  0  0  0  0  0
  -26.0055  -34.2246   22.9577 C   0  0  1  0  0  0  0  0  0  0  0  0
  -23.9618  -31.4959   21.2811 C   0  0  1  0  0  0  0  0  0  0  0  0
  -24.9795  -14.9337   21.4217 C   0  0  2  0  0  0  0  0  0  0  0  0
  -18.9105  -25.6470   21.8074 C   0  0  0  0  0  0  0  0  0  0  0  0
  -22.7435  -29.7106   25.3663 C   0  0  0  0  0  0  0  0  0  0  0  0
  -21.2925  -27.6729   25.2633 C   0  0  0  0  0  0  0  0  0  0  0  0
  -20.3322  -29.9137   24.7349 C   0  0  0  0  0  0  0  0  0  0  0  0
  -20.8371  -26.7123   18.7043 C   0  0  0  0  0  0  0  0  0  0  0  0
  -29.6257  -25.4680   18.7223 C   0  0  0  0  0  0  0  0  0  0  0  0
  -29.2521  -26.9417   18.7625 C   0  0  0  0  0  0  0  0  0  1  0  0
  -21.9113  -28.8226   23.0893 C   0  0  1  0  0  0  0  0  0  0  0  0
  -19.7286  -26.5902   20.9393 C   0  0  2  0  0  0  0  0  0  0  0  0
  -21.5927  -29.0323   24.5966 C   0  0  0  0  0  0  0  0  0  0  0  0
  -24.1290  -12.6186   21.4007 N   0  0  0  0  0  0  0  0  0  0  0  0
  -28.3491  -20.9448   18.9231 N   0  0  0  0  0  0  0  0  0  0  0  0
  -25.1975  -13.4328   21.3634 N   0  0  0  0  0  0  0  0  0  0  0  0
  -26.6162  -22.5410   19.1448 N   0  0  0  0  0  0  0  0  0  0  0  0
  -23.5102  -30.2036   21.8008 N   0  0  0  0  0  0  0  0  0  0  0  0
  -24.6470  -17.0033   20.0870 N   0  0  0  0  0  0  0  0  0  0  0  0
  -27.5622  -13.4410   21.2255 N   0  0  0  0  0  0  0  0  0  0  0  0
  -26.5294   -9.0451   21.1523 N   0  0  0  0  0  0  0  0  0  0  0  0
  -25.1498  -19.2049   19.3639 N   0  0  0  0  0  0  0  0  0  0  0  0
  -28.8057  -23.2061   18.8467 N   0  0  0  0  0  0  0  0  0  0  0  0
  -25.2144  -33.4173   22.0539 N   0  0  0  0  0  0  0  0  0  0  0  0
  -20.8285  -28.2068   22.3298 N   0  0  0  0  0  0  0  0  0  0  0  0
  -20.0538  -25.8918   19.6636 N   0  3  0  0  0  0  0  0  0  0  0  0
  -24.4151  -21.9058   19.4447 O   0  0  0  0  0  0  0  0  0  0  0  0
  -28.2569  -10.5528   21.1143 O   0  0  0  0  0  0  0  0  0  0  0  0
  -24.9676  -31.5453   23.4168 O   0  0  0  0  0  0  0  0  0  0  0  0
  -21.3940  -31.0154   22.3475 O   0  0  0  0  0  0  0  0  0  0  0  0
  -27.2781  -24.9544   19.0397 O   0  0  0  0  0  0  0  0  0  0  0  0
  -22.0451  -26.3759   21.5914 O   0  0  0  0  0  0  0  0  0  0  0  0
  -26.4317  -17.4268   18.6669 O   0  0  0  0  0  0  0  0  0  0  0  0
  -21.4098   -6.8606   21.3815 O   0  0  0  0  0  0  0  0  0  0  0  0
  -28.6094  -27.2343   20.0025 O   0  0  0  0  0  0  0  0  0  1  0  0
  -22.9125   -2.6571   24.6182 F   0  0  0  0  0  0  0  0  0  0  0  0
  -19.7528   -5.9664   23.4057 F   0  0  0  0  0  0  0  0  0  0  0  0
  1  2  1  0  0  0  0
  1  5  2  0  0  0  0
  2  6  2  0  0  0  0
  3  8  2  0  0  0  0
  3 15  1  0  0  0  0
  4  9  1  0  0  0  0
  4 15  2  0  0  0  0
  5 17  1  0  0  0  0
  6 19  1  0  0  0  0
  7 10  2  0  0  0  0
  7 18  1  0  0  0  0
  8 21  1  0  0  0  0
  9 21  2  0  0  0  0
 10 22  1  0  0  0  0
 11 12  2  0  0  0  0
 11 23  1  0  0  0  0
 12 24  1  0  0  0  0
 13 20  1  0  0  0  0
 13 22  2  0  0  0  0
 14 24  2  0  0  0  0
 14 25  1  0  0  0  0
 15 26  1  0  0  0  0
 16 26  1  0  0  0  0
 16 27  2  0  0  0  0
 16 32  1  0  0  0  0
 17 19  2  0  0  0  0
 17 38  1  0  0  0  0
 18 20  2  0  0  0  0
 18 39  1  0  0  0  0
 19 47  1  0  0  0  0
 20 40  1  0  0  0  0
 21 80  1  0  0  0  0
 22 81  1  0  0  0  0
 23 25  2  0  0  0  0
 23 80  1  0  0  0  0
 24 82  1  0  0  0  0
 25 83  1  0  0  0  0
 26 60  2  0  0  0  0
 27 62  1  0  0  0  0
 27 66  1  0  0  0  0
 28 29  2  0  0  0  0
 28 61  1  0  0  0  0
 29 30  1  0  0  0  0
 29 68  1  0  0  0  0
 30 63  1  0  0  0  0
 30 73  2  0  0  0  0
 31 61  2  0  0  0  0
 31 63  1  0  0  0  0
 31 69  1  0  0  0  0
 32 67  1  0  0  0  0
 32 74  2  0  0  0  0
 33 48  1  0  0  0  0
 33 70  1  0  0  0  0
 33 75  2  0  0  0  0
 34 57  1  0  0  0  0
 34 64  1  0  0  0  0
 34 76  2  0  0  0  0
 35 55  1  0  0  0  0
 35 69  1  0  0  0  0
 35 77  2  0  0  0  0
 36 58  1  0  0  0  0
 36 71  1  0  0  0  0
 36 78  2  0  0  0  0
 37 65  1  0  0  0  0
 37 68  1  0  0  0  0
 37 79  2  0  0  0  0
 38 41  1  0  0  0  0
 39 48  1  0  0  0  0
 40 64  1  0  0  0  0
 41 43  1  0  0  0  0
 42 44  1  0  0  0  0
 42 45  1  0  0  0  0
 43 47  1  0  0  0  0
 44 49  1  0  0  0  0
 45 65  1  0  0  0  0
 46 49  1  0  0  0  0
 46 65  1  0  0  0  0
 47 70  1  0  0  0  0
 48 64  1  0  0  0  0
 49 62  1  0  0  0  0
 50 58  1  0  0  0  0
 51 59  1  0  0  0  0
 52 59  1  0  0  0  0
 53 59  1  0  0  0  0
 54 72  1  0  0  0  0
 55 56  1  0  0  0  0
 56 81  1  0  0  0  0
 57 59  1  0  0  0  0
 57 71  1  0  0  0  0
 58 72  1  0  0  0  0
 60 62  1  0  0  0  0
M  CHG  1  72   1
M  ISO  4  37 100  56 101  68 100  81 101
M  END
> <Batch ID>
0092

> <Smiles>
CNC(C)C(=O)NC(C(=O)N1Cc2cc([101O:1][101CH2:1]CC(=O)Nc3ncc([100NH:0][100C:0](=O)N4CCCC(n5nc(-c6ccc(Oc7ccc(F)cc7F)cc6)c(C(N)=O)c5N)C4)c(=O)[nH]3)ccc2CC1C(=O)NC1CCCc2ccccc21)C(C)(C)C

> <Shape>
0.300

> <Color>
0.097

> <Negative vol penalty>
0.000

$$$$

  -OEChem-04052300343D

 84 93  0     1  0  0  0  0  0999 V2000
  -27.5043  -33.7066   27.2015 C   0  0  0  0  0  0  0  0  0  0  0  0
  -27.8880  -32.6623   26.3662 C   0  0  0  0  0  0  0  0  0  0  0  0
  -24.1098   -9.1798   22.5887 C   0  0  0  0  0  0  0  0  0  0  0  0
  -23.5394  -10.0777   20.4195 C   0  0  0  0  0  0  0  0  0  0  0  0
  -26.1556  -33.9030   27.4956 C   0  0  0  0  0  0  0  0  0  0  0  0
  -26.9232  -31.8131   25.8254 C   0  0  0  0  0  0  0  0  0  0  0  0
  -27.0291  -29.1636   20.3050 C   0  0  0  0  0  0  0  0  0  0  0  0
  -23.1607   -8.1715   22.4209 C   0  0  0  0  0  0  0  0  0  0  0  0
  -22.5903   -9.0693   20.2517 C   0  0  0  0  0  0  0  0  0  0  0  0
  -27.3964  -27.8861   19.8846 C   0  0  0  0  0  0  0  0  0  0  0  0
  -22.9155   -5.2312   20.7694 C   0  0  0  0  0  0  0  0  0  0  0  0
  -23.2872   -3.9290   21.1036 C   0  0  0  0  0  0  0  0  0  0  0  0
  -25.0850  -27.2007   19.9682 C   0  0  0  0  0  0  0  0  0  0  0  0
  -28.6161  -23.5986   17.2699 C   0  0  0  0  0  0  0  0  0  0  0  0
  -27.8579  -19.8658   20.0030 C   0  0  0  0  0  0  0  0  0  0  0  0
  -21.5142   -3.8437   22.7427 C   0  0  0  0  0  0  0  0  0  0  0  0
  -29.0537  -18.0725   19.1332 C   0  0  0  0  0  0  0  0  0  0  0  0
  -24.2991  -10.1329   21.5880 C   0  0  0  0  0  0  0  0  0  0  0  0
  -26.6359  -11.1365   21.3879 C   0  0  0  0  0  0  0  0  0  0  0  0
  -25.1730  -33.0617   26.9503 C   0  0  0  0  0  0  0  0  0  0  0  0
  -25.6861  -29.4668   20.5711 C   0  0  0  0  0  0  0  0  0  0  0  0
  -25.5602  -31.9977   26.1135 C   0  0  0  0  0  0  0  0  0  0  0  0
  -24.7030  -28.4836   20.3894 C   0  0  0  0  0  0  0  0  0  0  0  0
  -28.3514  -24.0083   18.6000 C   0  0  0  0  0  0  0  0  0  0  0  0
  -28.1562  -18.4757   20.0973 C   0  0  0  0  0  0  0  0  0  0  0  0
  -22.4010   -8.1162   21.2525 C   0  0  0  0  0  0  0  0  0  0  0  0
  -26.4246  -26.9036   19.7190 C   0  0  0  0  0  0  0  0  0  0  0  0
  -21.8432   -5.8397   21.4218 C   0  0  0  0  0  0  0  0  0  0  0  0
  -22.5865   -3.2352   22.0902 C   0  0  0  0  0  0  0  0  0  0  0  0
  -21.1426   -5.1459   22.4084 C   0  0  0  0  0  0  0  0  0  0  0  0
  -25.2790  -11.1751   21.7609 C   0  0  0  0  0  0  0  0  0  0  0  0
  -28.2956  -22.8723   19.3769 C   0  0  0  0  0  0  0  0  0  0  0  0
  -27.1303  -12.3615   21.7640 C   0  0  0  0  0  0  0  0  0  0  0  0
  -28.7138  -22.2246   17.2744 C   0  0  0  0  0  0  0  0  0  0  0  0
  -28.5391  -20.4721   18.9704 C   0  0  0  0  0  0  0  0  0  0  0  0
  -27.3826  -10.0873   20.7577 C   0  0  0  0  0  0  0  0  0  0  0  0
  -24.0621  -30.3910   23.1425 C   0  0  0  0  0  0  0  0  0  0  0  0
  -21.6191  -30.6549   21.0248 C   0  0  0  0  0  0  0  0  0  0  0  0
  -20.2489  -29.6999   18.0486 C   0  0  0  0  0  0  0  0  0  0  0  0
  -26.6966  -17.9042   22.0695 C   0  0  0  0  0  0  0  0  0  0  0  0
  -23.7318  -33.2845   27.3348 C   0  0  0  0  0  0  0  0  0  0  0  0
  -25.3031  -30.8572   20.9981 C   0  0  0  0  0  0  0  0  0  0  0  0
  -23.2449  -28.7639   20.6422 C   0  0  0  0  0  0  0  0  0  0  0  0
  -22.7400  -32.5690   26.4212 C   0  0  0  0  0  0  0  0  0  0  0  0
  -25.0784  -16.0085   24.6121 C   0  0  0  0  0  0  0  0  0  0  0  0
  -23.1766  -31.1266   26.1850 C   0  0  0  0  0  0  0  0  0  0  0  0
  -25.0980  -14.5788   24.0663 C   0  0  0  0  0  0  0  0  0  0  0  0
  -24.8616  -17.0361   23.5027 C   0  0  0  0  0  0  0  0  0  0  0  0
  -25.8097  -15.5024   21.8241 C   0  0  0  0  0  0  0  0  0  0  0  0
  -24.5411  -31.0704   25.4876 C   0  0  1  0  0  0  0  0  0  0  0  0
  -23.9685  -30.9096   21.7353 C   0  0  1  0  0  0  0  0  0  0  0  0
  -26.0902  -14.4361   22.8955 C   0  0  2  0  0  0  0  0  0  0  0  0
  -28.0486  -22.7341   20.8301 C   0  0  0  0  0  0  0  0  0  0  0  0
  -18.2268  -30.0572   16.6061 C   0  0  0  0  0  0  0  0  0  0  0  0
  -19.9823  -28.8707   22.8815 C   0  0  0  0  0  0  0  0  0  0  0  0
  -18.3825  -28.4920   20.9933 C   0  0  0  0  0  0  0  0  0  0  0  0
  -18.7182  -30.7919   21.8990 C   0  0  0  0  0  0  0  0  0  0  0  0
  -21.8806  -30.7771   15.8269 C   0  0  0  0  0  0  0  0  0  0  0  0
  -28.1672  -25.4221   19.0674 C   0  0  0  0  0  0  0  0  0  1  0  0
  -20.5442  -29.7274   20.5116 C   0  0  1  0  0  0  0  0  0  0  0  0
  -19.6472  -30.5063   16.9119 C   0  0  2  0  0  0  0  0  0  0  0  0
  -19.4344  -29.4643   21.5684 C   0  0  0  0  0  0  0  0  0  0  0  0
  -24.9334  -12.3328   22.3304 N   0  0  0  0  0  0  0  0  0  0  0  0
  -28.5170  -21.7940   18.5605 N   0  0  0  0  0  0  0  0  0  0  0  0
  -26.0804  -13.0330   22.3182 N   0  0  0  0  0  0  0  0  0  0  0  0
  -22.9214  -30.1367   21.0642 N   0  0  0  0  0  0  0  0  0  0  0  0
  -25.8401  -16.8426   22.4304 N   0  0  0  0  0  0  0  0  0  0  0  0
  -28.3563  -12.9189   21.6716 N   0  0  0  0  0  0  0  0  0  0  0  0
  -26.7199   -8.8941   20.4390 N   0  0  0  0  0  0  0  0  0  0  0  0
  -27.6069  -17.5929   21.0599 N   0  0  0  0  0  0  0  0  0  0  0  0
  -24.3990  -31.3530   24.0754 N   0  0  0  0  0  0  0  0  0  0  0  0
  -20.0578  -30.3148   19.2679 N   0  0  0  0  0  0  0  0  0  0  0  0
  -20.4657  -30.3503   15.6763 N   0  3  0  0  0  0  0  0  0  0  0  0
  -28.6053  -10.1981   20.5003 O   0  0  0  0  0  0  0  0  0  0  0  0
  -23.8432  -29.2060   23.3655 O   0  0  0  0  0  0  0  0  0  0  0  0
  -21.3157  -31.7993   21.3709 O   0  0  0  0  0  0  0  0  0  0  0  0
  -20.8271  -28.6297   17.8730 O   0  0  0  0  0  0  0  0  0  0  0  0
  -26.6460  -18.9997   22.6345 O   0  0  0  0  0  0  0  0  0  0  0  0
  -28.9504  -21.3756   16.2815 O   0  0  0  0  0  0  0  0  0  0  0  0
  -21.4749   -7.1323   21.0883 O   0  0  0  0  0  0  0  0  0  0  0  0
  -26.7804  -25.6555   19.3094 O   0  0  0  0  0  0  0  0  0  1  0  0
  -22.9426   -1.9842   22.4100 F   0  0  0  0  0  0  0  0  0  0  0  0
  -20.1108   -5.7248   23.0379 F   0  0  0  0  0  0  0  0  0  0  0  0
  -29.5330  -19.3671   18.1200 S   0  0  0  0  0  0  0  0  0  0  0  0
  1  2  1  0  0  0  0
  1  5  2  0  0  0  0
  2  6  2  0  0  0  0
  3  8  2  0  0  0  0
  3 18  1  0  0  0  0
  4  9  1  0  0  0  0
  4 18  2  0  0  0  0
  5 20  1  0  0  0  0
  6 22  1  0  0  0  0
  7 10  2  0  0  0  0
  7 21  1  0  0  0  0
  8 26  1  0  0  0  0
  9 26  2  0  0  0  0
 10 27  1  0  0  0  0
 11 12  2  0  0  0  0
 11 28  1  0  0  0  0
 12 29  1  0  0  0  0
 13 23  1  0  0  0  0
 13 27  2  0  0  0  0
 14 24  1  0  0  0  0
 14 34  2  0  0  0  0
 15 25  1  0  0  0  0
 15 35  2  0  0  0  0
 16 29  2  0  0  0  0
 16 30  1  0  0  0  0
 17 25  2  0  0  0  0
 17 84  1  0  0  0  0
 18 31  1  0  0  0  0
 19 31  1  0  0  0  0
 19 33  2  0  0  0  0
 19 36  1  0  0  0  0
 20 22  2  0  0  0  0
 20 41  1  0  0  0  0
 21 23  2  0  0  0  0
 21 42  1  0  0  0  0
 22 50  1  0  0  0  0
 23 43  1  0  0  0  0
 24 32  2  0  0  0  0
 24 59  1  0  0  0  0
 25 70  1  0  0  0  0
 26 80  1  0  0  0  0
 27 81  1  0  0  0  0
 28 30  2  0  0  0  0
 28 80  1  0  0  0  0
 29 82  1  0  0  0  0
 30 83  1  0  0  0  0
 31 63  2  0  0  0  0
 32 53  1  0  0  0  0
 32 64  1  0  0  0  0
 33 65  1  0  0  0  0
 33 68  1  0  0  0  0
 34 64  1  0  0  0  0
 34 79  1  0  0  0  0
 35 64  1  0  0  0  0
 35 84  1  0  0  0  0
 36 69  1  0  0  0  0
 36 74  2  0  0  0  0
 37 51  1  0  0  0  0
 37 71  1  0  0  0  0
 37 75  2  0  0  0  0
 38 60  1  0  0  0  0
 38 66  1  0  0  0  0
 38 76  2  0  0  0  0
 39 61  1  0  0  0  0
 39 72  1  0  0  0  0
 39 77  2  0  0  0  0
 40 67  1  0  0  0  0
 40 70  1  0  0  0  0
 40 78  2  0  0  0  0
 41 44  1  0  0  0  0
 42 51  1  0  0  0  0
 43 66  1  0  0  0  0
 44 46  1  0  0  0  0
 45 47  1  0  0  0  0
 45 48  1  0  0  0  0
 46 50  1  0  0  0  0
 47 52  1  0  0  0  0
 48 67  1  0  0  0  0
 49 52  1  0  0  0  0
 49 67  1  0  0  0  0
 50 71  1  0  0  0  0
 51 66  1  0  0  0  0
 52 65  1  0  0  0  0
 54 61  1  0  0  0  0
 55 62  1  0  0  0  0
 56 62  1  0  0  0  0
 57 62  1  0  0  0  0
 58 73  1  0  0  0  0
 59 81  1  0  0  0  0
 60 62  1  0  0  0  0
 60 72  1  0  0  0  0
 61 73  1  0  0  0  0
 63 65  1  0  0  0  0
M  CHG  1  73   1
M  ISO  4  40 100  59 101  70 100  81 101
M  END
> <Batch ID>
0092

> <Smiles>
CNC(C)C(=O)NC(C(=O)N1Cc2cc([101O:1][101CH2:1]C3=C(C)N(c4cc([100NH:0][100C:0](=O)N5CCCC(n6nc(-c7ccc(Oc8ccc(F)cc8F)cc7)c(C(N)=O)c6N)C5)cs4)C(=O)C3)ccc2CC1C(=O)NC1CCCc2ccccc21)C(C)(C)C

> <Shape>
0.274

> <Color>
0.081

> <Negative vol penalty>
0.000

$$$$

  -OEChem-04052300343D

 89 98  0     1  0  0  0  0  0999 V2000
  -22.6466  -30.4310   14.7772 C   0  0  0  0  0  0  0  0  0  0  0  0
  -22.6586  -29.0772   15.0971 C   0  0  0  0  0  0  0  0  0  0  0  0
  -28.2976  -13.6161   20.2211 C   0  0  0  0  0  0  0  0  0  0  0  0
  -28.9832  -11.7586   18.8366 C   0  0  0  0  0  0  0  0  0  0  0  0
  -23.3066  -31.3457   15.5969 C   0  0  0  0  0  0  0  0  0  0  0  0
  -23.3315  -28.6370   16.2364 C   0  0  0  0  0  0  0  0  0  0  0  0
  -21.7152  -24.0113   19.9100 C   0  0  0  0  0  0  0  0  0  0  0  0
  -21.5078  -14.8395   20.1064 C   0  0  0  0  0  0  0  0  0  0  0  0
  -20.7223  -13.7079   20.3255 C   0  0  0  0  0  0  0  0  0  0  0  0
  -29.6342  -13.9638   20.4165 C   0  0  0  0  0  0  0  0  0  0  0  0
  -30.3198  -12.1064   19.0319 C   0  0  0  0  0  0  0  0  0  0  0  0
  -22.1372  -22.6848   19.9891 C   0  0  0  0  0  0  0  0  0  0  0  0
  -32.0695  -15.5607   18.6982 C   0  0  0  0  0  0  0  0  0  0  0  0
  -32.4125  -16.9077   18.5822 C   0  0  0  0  0  0  0  0  0  0  0  0
  -23.6889  -23.2890   21.7345 C   0  0  0  0  0  0  0  0  0  0  0  0
  -21.9581  -13.2416   22.3484 C   0  0  0  0  0  0  0  0  0  0  0  0
  -33.1968  -16.9047   20.8674 C   0  0  0  0  0  0  0  0  0  0  0  0
  -27.9721  -12.5135   19.4312 C   0  0  0  0  0  0  0  0  0  0  0  0
  -25.7372  -12.6019   18.2045 C   0  0  0  0  0  0  0  0  0  0  0  0
  -23.9798  -30.9177   16.7520 C   0  0  0  0  0  0  0  0  0  0  0  0
  -22.2856  -24.9902   20.7364 C   0  0  0  0  0  0  0  0  0  0  0  0
  -24.0022  -29.5466   17.0715 C   0  0  0  0  0  0  0  0  0  0  0  0
  -23.2706  -24.6266   21.6657 C   0  0  0  0  0  0  0  0  0  0  0  0
  -22.5186  -15.1721   21.0083 C   0  0  0  0  0  0  0  0  0  0  0  0
  -20.9474  -12.9090   21.4465 C   0  0  0  0  0  0  0  0  0  0  0  0
  -22.7437  -14.3732   22.1293 C   0  0  0  0  0  0  0  0  0  0  0  0
  -30.6453  -13.2090   19.8219 C   0  0  0  0  0  0  0  0  0  0  0  0
  -23.1262  -22.3240   20.8995 C   0  0  0  0  0  0  0  0  0  0  0  0
  -32.2900  -14.8857   19.8988 C   0  0  0  0  0  0  0  0  0  0  0  0
  -32.9762  -17.5797   19.6668 C   0  0  0  0  0  0  0  0  0  0  0  0
  -32.8537  -15.5577   20.9834 C   0  0  0  0  0  0  0  0  0  0  0  0
  -26.5916  -12.1534   19.2295 C   0  0  0  0  0  0  0  0  0  0  0  0
  -24.5418  -11.9733   18.4543 C   0  0  0  0  0  0  0  0  0  0  0  0
  -25.5053  -17.3105   20.2040 C   0  0  0  0  0  0  0  0  0  0  0  0
  -23.5312  -18.7110   20.2939 C   0  0  0  0  0  0  0  0  0  0  0  0
  -24.9882  -18.5418   20.0648 C   0  0  0  0  0  0  0  0  0  0  0  0
  -22.7705  -17.6461   20.6689 C   0  0  0  0  0  0  0  0  0  0  0  0
  -24.6900  -16.1220   20.5367 C   0  0  0  0  0  0  0  0  0  0  0  0
  -26.0005  -13.5057   17.1231 C   0  0  0  0  0  0  0  0  0  0  0  0
  -23.9581  -27.6474   20.2407 C   0  0  0  0  0  0  0  0  0  0  0  0
  -23.6237  -27.9918   23.4488 C   0  0  0  0  0  0  0  0  0  0  0  0
  -23.0892  -26.5191   26.4807 C   0  0  0  0  0  0  0  0  0  0  0  0
  -20.6461  -10.6084   22.3474 C   0  0  0  0  0  0  0  0  0  0  0  0
  -24.7188  -31.9377   17.5814 C   0  0  0  0  0  0  0  0  0  0  0  0
  -21.8004  -26.4117   20.6573 C   0  0  0  0  0  0  0  0  0  0  0  0
  -23.9003  -25.6359   22.5895 C   0  0  0  0  0  0  0  0  0  0  0  0
  -25.0923  -31.4355   18.9738 C   0  0  0  0  0  0  0  0  0  0  0  0
  -23.3727   -8.2282   21.6327 C   0  0  0  0  0  0  0  0  0  0  0  0
  -25.7018  -30.0396   18.8920 C   0  0  0  0  0  0  0  0  0  0  0  0
  -24.4057   -9.0983   20.9185 C   0  0  0  0  0  0  0  0  0  0  0  0
  -22.5398   -9.0355   22.6240 C   0  0  0  0  0  0  0  0  0  0  0  0
  -22.9111  -11.0985   21.3063 C   0  0  0  0  0  0  0  0  0  0  0  0
  -24.7003  -29.0334   18.3123 C   0  0  1  0  0  0  0  0  0  0  0  0
  -22.8148  -27.4197   21.1887 C   0  0  1  0  0  0  0  0  0  0  0  0
  -23.7372  -10.3226   20.2695 C   0  0  1  0  0  0  0  0  0  0  0  0
  -21.3340  -17.8392   21.1186 C   0  0  0  0  0  0  0  0  0  0  0  0
  -22.9073  -27.0539   28.9257 C   0  0  0  0  0  0  0  0  0  0  0  0
  -26.6563  -28.2892   23.6069 C   0  0  0  0  0  0  0  0  0  0  0  0
  -26.4996  -27.8660   26.0695 C   0  0  0  0  0  0  0  0  0  0  0  0
  -25.3763  -29.8585   25.0742 C   0  0  0  0  0  0  0  0  0  0  0  0
  -18.6932  -11.8255   21.4124 C   0  0  0  0  0  0  0  0  0  0  0  0
  -20.3054  -25.5228   26.6101 C   0  0  0  0  0  0  0  0  0  0  0  0
  -22.9187  -20.0944   20.0984 C   0  0  0  0  0  0  0  0  0  1  0  0
  -24.4149  -27.5574   24.6589 C   0  0  1  0  0  0  0  0  0  0  0  0
  -22.1497  -26.8711   27.6198 C   0  0  2  0  0  0  0  0  0  0  0  0
  -25.7265  -28.3739   24.8338 C   0  0  0  0  0  0  0  0  0  0  0  0
  -25.9901  -11.3056   20.0681 N   0  0  0  0  0  0  0  0  0  0  0  0
  -24.7448  -11.2164   19.5706 N   0  0  0  0  0  0  0  0  0  0  0  0
  -23.3198  -16.3472   20.7592 N   0  0  0  0  0  0  0  0  0  0  0  0
  -23.3967  -27.0141   22.4698 N   0  0  0  0  0  0  0  0  0  0  0  0
  -21.9530  -10.2181   21.9925 N   0  0  0  0  0  0  0  0  0  0  0  0
  -23.7631  -14.6909   23.0550 N   0  0  0  0  0  0  0  0  0  0  0  0
  -23.3472  -11.9999   17.8260 N   0  0  0  0  0  0  0  0  0  0  0  0
  -27.2826  -14.0613   17.0138 N   0  0  0  0  0  0  0  0  0  0  0  0
  -23.7313  -28.6491   19.3162 N   0  0  0  0  0  0  0  0  0  0  0  0
  -23.5029  -27.6413   25.7945 N   0  0  0  0  0  0  0  0  0  0  0  0
  -20.1337  -11.7380   21.6735 N   0  0  0  0  0  0  0  0  0  0  0  0
  -21.1390  -25.7925   27.8099 N   0  3  0  0  0  0  0  0  0  0  0  0
  -25.5932  -19.6131   19.7846 O   0  5  0  0  0  0  0  0  0  0  0  0
  -25.2626  -15.0312   20.5531 O   0  0  0  0  0  0  0  0  0  0  0  0
  -25.1201  -13.8243   16.2882 O   0  0  0  0  0  0  0  0  0  0  0  0
  -24.9714  -26.9658   20.3414 O   0  0  0  0  0  0  0  0  0  0  0  0
  -23.2158  -29.1538   23.3782 O   0  0  0  0  0  0  0  0  0  0  0  0
  -23.4257  -25.3645   26.2273 O   0  0  0  0  0  0  0  0  0  0  0  0
  -19.9802   -9.9792   23.1783 O   0  0  0  0  0  0  0  0  0  0  0  0
  -31.9497  -13.5481   20.0121 O   0  0  0  0  0  0  0  0  0  0  0  0
  -23.5404  -21.0302   20.9783 O   0  0  0  0  0  0  0  0  0  1  0  0
  -33.3069  -18.8728   19.5548 F   0  0  0  0  0  0  0  0  0  0  0  0
  -33.0691  -14.9142   22.1389 F   0  0  0  0  0  0  0  0  0  0  0  0
  1  2  1  0  0  0  0
  1  5  2  0  0  0  0
  2  6  2  0  0  0  0
  3 10  2  0  0  0  0
  3 18  1  0  0  0  0
  4 11  1  0  0  0  0
  4 18  2  0  0  0  0
  5 20  1  0  0  0  0
  6 22  1  0  0  0  0
  7 12  2  0  0  0  0
  7 21  1  0  0  0  0
  8  9  2  0  0  0  0
  8 24  1  0  0  0  0
  9 25  1  0  0  0  0
 10 27  1  0  0  0  0
 11 27  2  0  0  0  0
 12 28  1  0  0  0  0
 13 14  2  0  0  0  0
 13 29  1  0  0  0  0
 14 30  1  0  0  0  0
 15 23  1  0  0  0  0
 15 28  2  0  0  0  0
 16 25  2  0  0  0  0
 16 26  1  0  0  0  0
 17 30  2  0  0  0  0
 17 31  1  0  0  0  0
 18 32  1  0  0  0  0
 19 32  1  0  0  0  0
 19 33  2  0  0  0  0
 19 39  1  0  0  0  0
 20 22  2  0  0  0  0
 20 44  1  0  0  0  0
 21 23  2  0  0  0  0
 21 45  1  0  0  0  0
 22 53  1  0  0  0  0
 23 46  1  0  0  0  0
 24 26  2  0  0  0  0
 24 69  1  0  0  0  0
 25 77  1  0  0  0  0
 26 72  1  0  0  0  0
 27 86  1  0  0  0  0
 28 87  1  0  0  0  0
 29 31  2  0  0  0  0
 29 86  1  0  0  0  0
 30 88  1  0  0  0  0
 31 89  1  0  0  0  0
 32 67  2  0  0  0  0
 33 68  1  0  0  0  0
 33 73  1  0  0  0  0
 34 36  2  0  0  0  0
 34 38  1  0  0  0  0
 35 36  1  0  0  0  0
 35 37  2  0  0  0  0
 35 63  1  0  0  0  0
 36 79  1  0  0  0  0
 37 56  1  0  0  0  0
 37 69  1  0  0  0  0
 38 69  1  0  0  0  0
 38 80  2  0  0  0  0
 39 74  1  0  0  0  0
 39 81  2  0  0  0  0
 40 54  1  0  0  0  0
 40 75  1  0  0  0  0
 40 82  2  0  0  0  0
 41 64  1  0  0  0  0
 41 70  1  0  0  0  0
 41 83  2  0  0  0  0
 42 65  1  0  0  0  0
 42 76  1  0  0  0  0
 42 84  2  0  0  0  0
 43 71  1  0  0  0  0
 43 77  1  0  0  0  0
 43 85  2  0  0  0  0
 44 47  1  0  0  0  0
 45 54  1  0  0  0  0
 46 70  1  0  0  0  0
 47 49  1  0  0  0  0
 48 50  1  0  0  0  0
 48 51  1  0  0  0  0
 49 53  1  0  0  0  0
 50 55  1  0  0  0  0
 51 71  1  0  0  0  0
 52 55  1  0  0  0  0
 52 71  1  0  0  0  0
 53 75  1  0  0  0  0
 54 70  1  0  0  0  0
 55 68  1  0  0  0  0
 57 65  1  0  0  0  0
 58 66  1  0  0  0  0
 59 66  1  0  0  0  0
 60 66  1  0  0  0  0
 61 77  1  0  0  0  0
 62 78  1  0  0  0  0
 63 87  1  0  0  0  0
 64 66  1  0  0  0  0
 64 76  1  0  0  0  0
 65 78  1  0  0  0  0
 67 68  1  0  0  0  0
M  CHG  2  78   1  79  -1
M  ISO  4  43 100  63 101  77 100  87 101
M  END
> <Batch ID>
0092

> <Smiles>
CNC(C)C(=O)NC(C(=O)N1Cc2cc([101O:1][101CH2:1]C3=C(C)N(c4ccc([100N:0](C)[100C:0](=O)N5CCCC(n6nc(-c7ccc(Oc8ccc(F)cc8F)cc7)c(C(N)=O)c6N)C5)cc4N)C(=O)CC3=O)ccc2CC1C(=O)NC1CCCc2ccccc21)C(C)(C)C

> <Shape>
0.150

> <Color>
0.083

> <Negative vol penalty>
0.000

$$$$

  -OEChem-04052300343D

 89 98  0     1  0  0  0  0  0999 V2000
  -23.5807  -35.3629   14.9365 C   0  0  0  0  0  0  0  0  0  0  0  0
  -24.1481  -34.1044   15.1092 C   0  0  0  0  0  0  0  0  0  0  0  0
  -24.6837   -8.8172   21.9410 C   0  0  0  0  0  0  0  0  0  0  0  0
  -23.2563   -9.7361   20.2219 C   0  0  0  0  0  0  0  0  0  0  0  0
  -30.5759  -19.9045   18.8011 C   0  0  0  0  0  0  0  0  0  0  0  0
  -23.6851  -36.3179   15.9469 C   0  0  0  0  0  0  0  0  0  0  0  0
  -24.8211  -33.8006   16.2921 C   0  0  0  0  0  0  0  0  0  0  0  0
  -25.0061  -28.3792   19.1345 C   0  0  0  0  0  0  0  0  0  0  0  0
  -30.9673  -21.1763   19.2192 C   0  0  0  0  0  0  0  0  0  0  0  0
  -23.5877   -8.1594   22.4994 C   0  0  0  0  0  0  0  0  0  0  0  0
  -22.1603   -9.0782   20.7803 C   0  0  0  0  0  0  0  0  0  0  0  0
  -25.9534  -27.3562   19.1426 C   0  0  0  0  0  0  0  0  0  0  0  0
  -21.7768   -5.3713   21.8831 C   0  0  0  0  0  0  0  0  0  0  0  0
  -21.9429   -4.0380   22.2577 C   0  0  0  0  0  0  0  0  0  0  0  0
  -28.9073  -20.8919   17.3595 C   0  0  0  0  0  0  0  0  0  0  0  0
  -26.8924  -28.2502   21.1769 C   0  0  0  0  0  0  0  0  0  0  0  0
  -21.3987   -4.6117   24.5407 C   0  0  0  0  0  0  0  0  0  0  0  0
  -24.5179   -9.6056   20.8023 C   0  0  0  0  0  0  0  0  0  0  0  0
  -29.5459  -19.7623   17.8712 C   0  0  0  0  0  0  0  0  0  0  0  0
  -26.5233   -9.7945   19.2369 C   0  0  0  0  0  0  0  0  0  0  0  0
  -24.3515  -36.0225   17.1467 C   0  0  0  0  0  0  0  0  0  0  0  0
  -25.0017  -29.3532   20.1432 C   0  0  0  0  0  0  0  0  0  0  0  0
  -24.9357  -34.7531   17.3189 C   0  0  0  0  0  0  0  0  0  0  0  0
  -25.9424  -29.2830   21.1807 C   0  0  0  0  0  0  0  0  0  0  0  0
  -30.3287  -22.3059   18.7075 C   0  0  0  0  0  0  0  0  0  0  0  0
  -29.2987  -22.1637   17.7777 C   0  0  0  0  0  0  0  0  0  0  0  0
  -22.3261   -8.2899   21.9190 C   0  0  0  0  0  0  0  0  0  0  0  0
  -26.8985  -27.2932   20.1624 C   0  0  0  0  0  0  0  0  0  0  0  0
  -21.4218   -6.3248   22.8372 C   0  0  0  0  0  0  0  0  0  0  0  0
  -21.7539   -3.6582   23.5865 C   0  0  0  0  0  0  0  0  0  0  0  0
  -21.2327   -5.9450   24.1660 C   0  0  0  0  0  0  0  0  0  0  0  0
  -25.6495  -10.2858   20.2253 C   0  0  0  0  0  0  0  0  0  0  0  0
  -27.4213  -10.8140   19.0350 C   0  0  0  0  0  0  0  0  0  0  0  0
  -31.1998  -26.3229   19.5039 C   0  0  0  0  0  0  0  0  0  0  0  0
  -30.1612  -25.7478   20.1248 C   0  0  0  0  0  0  0  0  0  0  0  0
  -32.2527  -25.4883   18.8905 C   0  0  0  0  0  0  0  0  0  0  0  0
  -29.1324  -18.4149   17.4265 C   0  0  0  0  0  0  0  0  0  0  0  0
  -26.5232   -8.5297   18.5616 C   0  0  0  0  0  0  0  0  0  0  0  0
  -25.3899  -32.5072   20.2176 C   0  0  0  0  0  0  0  0  0  0  0  0
  -24.6022  -32.1391   23.3428 C   0  0  0  0  0  0  0  0  0  0  0  0
  -24.4467  -30.0932   26.0698 C   0  0  0  0  0  0  0  0  0  0  0  0
  -28.2343  -16.2014   18.1127 C   0  0  0  0  0  0  0  0  0  0  0  0
  -24.4794  -37.1030   18.1911 C   0  0  0  0  0  0  0  0  0  0  0  0
  -23.9565  -30.4348   20.1346 C   0  0  0  0  0  0  0  0  0  0  0  0
  -25.9676  -30.2926   22.2980 C   0  0  0  0  0  0  0  0  0  0  0  0
  -32.1220  -23.9858   18.9119 C   0  0  0  0  0  0  0  0  0  0  0  0
  -24.8853  -36.5768   19.5653 C   0  0  0  0  0  0  0  0  0  0  0  0
  -28.2735  -15.0396   21.6350 C   0  0  0  0  0  0  0  0  0  0  0  0
  -26.0474  -35.5967   19.4399 C   0  0  0  0  0  0  0  0  0  0  0  0
  -27.5895  -13.6841   21.4958 C   0  0  0  0  0  0  0  0  0  0  0  0
  -27.7572  -16.0546   20.6159 C   0  0  0  0  0  0  0  0  0  0  0  0
  -27.1550  -14.2067   19.0671 C   0  0  0  0  0  0  0  0  0  0  0  0
  -25.6523  -34.3775   18.5978 C   0  0  1  0  0  0  0  0  0  0  0  0
  -29.9734  -24.2472   20.2087 C   0  0  2  0  0  0  0  0  0  0  0  0
  -24.3674  -31.6691   20.9316 C   0  0  1  0  0  0  0  0  0  0  0  0
  -27.7088  -13.1692   20.0543 C   0  0  2  0  0  0  0  0  0  0  0  0
  -30.3930  -23.7089   21.5809 C   0  0  0  0  0  0  0  0  0  0  0  0
  -23.7928  -30.0864   28.4926 C   0  0  0  0  0  0  0  0  0  0  0  0
  -27.1660  -33.6410   24.0365 C   0  0  0  0  0  0  0  0  0  0  0  0
  -26.9505  -32.7856   26.3796 C   0  0  0  0  0  0  0  0  0  0  0  0
  -25.1827  -34.2651   25.4263 C   0  0  0  0  0  0  0  0  0  0  0  0
  -22.3797  -28.0222   25.6258 C   0  0  0  0  0  0  0  0  0  0  0  0
  -29.0905  -26.5914   20.7613 C   0  0  0  0  0  0  0  0  0  1  0  0
  -25.3709  -31.8779   24.6154 C   0  0  1  0  0  0  0  0  0  0  0  0
  -23.3332  -29.8261   27.0665 C   0  0  2  0  0  0  0  0  0  0  0  0
  -26.1685  -33.1243   25.0925 C   0  0  0  0  0  0  0  0  0  0  0  0
  -25.9641  -11.5212   20.6237 N   0  0  0  0  0  0  0  0  0  0  0  0
  -27.0457  -11.8148   19.8820 N   0  0  0  0  0  0  0  0  0  0  0  0
  -30.7376  -23.5751   19.1410 N   0  0  2  0  0  0  0  0  0  0  0  0
  -24.9291  -31.3346   22.2419 N   0  0  0  0  0  0  0  0  0  0  0  0
  -27.7785  -15.5223   19.2465 N   0  0  0  0  0  0  0  0  0  0  0  0
  -28.6381  -23.2947   17.2473 N   0  0  0  0  0  0  0  0  0  0  0  0
  -28.4878  -10.9429   18.2174 N   0  0  0  0  0  0  0  0  0  0  0  0
  -25.5295   -7.5974   18.8894 N   0  0  0  0  0  0  0  0  0  0  0  0
  -28.6818  -17.5562   18.3543 N   0  0  0  0  0  0  0  0  0  0  0  0
  -24.8480  -33.4627   19.3792 N   0  0  0  0  0  0  0  0  0  0  0  0
  -24.3995  -31.3831   25.5849 N   0  0  0  0  0  0  0  0  0  0  0  0
  -29.2388  -18.1344   16.1279 N   0  3  0  0  0  0  0  0  0  0  0  0
  -22.8804  -28.4095   26.9698 N   0  3  0  0  0  0  0  0  0  0  0  0
  -33.2427  -26.0331   18.4020 O   0  0  0  0  0  0  0  0  0  0  0  0
  -27.3888   -8.2288   17.7050 O   0  0  0  0  0  0  0  0  0  0  0  0
  -26.5822  -32.3031   20.4140 O   0  0  0  0  0  0  0  0  0  0  0  0
  -23.7383  -33.0195   23.3280 O   0  0  0  0  0  0  0  0  0  0  0  0
  -25.2777  -29.2438   25.7559 O   0  0  0  0  0  0  0  0  0  0  0  0
  -28.2504  -15.7535   16.9712 O   0  0  0  0  0  0  0  0  0  0  0  0
  -21.2565   -7.6480   22.4635 O   0  0  0  0  0  0  0  0  0  0  0  0
  -27.8246  -26.2962   20.1724 O   0  0  0  0  0  0  0  0  0  1  0  0
  -21.9119   -2.3776   23.9459 F   0  0  0  0  0  0  0  0  0  0  0  0
  -20.8903   -6.8564   25.0869 F   0  0  0  0  0  0  0  0  0  0  0  0
  1  2  1  0  0  0  0
  1  6  2  0  0  0  0
  2  7  2  0  0  0  0
  3 10  2  0  0  0  0
  3 18  1  0  0  0  0
  4 11  1  0  0  0  0
  4 18  2  0  0  0  0
  5  9  2  0  0  0  0
  5 19  1  0  0  0  0
  6 21  1  0  0  0  0
  7 23  1  0  0  0  0
  8 12  2  0  0  0  0
  8 22  1  0  0  0  0
  9 25  1  0  0  0  0
 10 27  1  0  0  0  0
 11 27  2  0  0  0  0
 12 28  1  0  0  0  0
 13 14  2  0  0  0  0
 13 29  1  0  0  0  0
 14 30  1  0  0  0  0
 15 19  2  0  0  0  0
 15 26  1  0  0  0  0
 16 24  1  0  0  0  0
 16 28  2  0  0  0  0
 17 30  2  0  0  0  0
 17 31  1  0  0  0  0
 18 32  1  0  0  0  0
 19 37  1  0  0  0  0
 20 32  1  0  0  0  0
 20 33  2  0  0  0  0
 20 38  1  0  0  0  0
 21 23  2  0  0  0  0
 21 43  1  0  0  0  0
 22 24  2  0  0  0  0
 22 44  1  0  0  0  0
 23 53  1  0  0  0  0
 24 45  1  0  0  0  0
 25 26  2  0  0  0  0
 25 69  1  0  0  0  0
 26 72  1  0  0  0  0
 27 86  1  0  0  0  0
 28 87  1  0  0  0  0
 29 31  2  0  0  0  0
 29 86  1  0  0  0  0
 30 88  1  0  0  0  0
 31 89  1  0  0  0  0
 32 67  2  0  0  0  0
 33 68  1  0  0  0  0
 33 73  1  0  0  0  0
 34 35  2  0  0  0  0
 34 36  1  0  0  0  0
 35 54  1  0  0  0  0
 35 63  1  0  0  0  0
 36 46  1  0  0  0  0
 36 80  2  0  0  0  0
 37 75  1  0  0  0  0
 37 78  2  0  0  0  0
 38 74  1  0  0  0  0
 38 81  2  0  0  0  0
 39 55  1  0  0  0  0
 39 76  1  0  0  0  0
 39 82  2  0  0  0  0
 40 64  1  0  0  0  0
 40 70  1  0  0  0  0
 40 83  2  0  0  0  0
 41 65  1  0  0  0  0
 41 77  1  0  0  0  0
 41 84  2  0  0  0  0
 42 71  1  0  0  0  0
 42 75  1  0  0  0  0
 42 85  2  0  0  0  0
 43 47  1  0  0  0  0
 44 55  1  0  0  0  0
 45 70  1  0  0  0  0
 46 69  1  0  0  0  0
 47 49  1  0  0  0  0
 48 50  1  0  0  0  0
 48 51  1  0  0  0  0
 49 53  1  0  0  0  0
 50 56  1  0  0  0  0
 51 71  1  0  0  0  0
 52 56  1  0  0  0  0
 52 71  1  0  0  0  0
 53 76  1  0  0  0  0
 54 57  1  0  0  0  0
 54 69  1  0  0  0  0
 55 70  1  0  0  0  0
 56 68  1  0  0  0  0
 58 65  1  0  0  0  0
 59 66  1  0  0  0  0
 60 66  1  0  0  0  0
 61 66  1  0  0  0  0
 62 79  1  0  0  0  0
 63 87  1  0  0  0  0
 64 66  1  0  0  0  0
 64 77  1  0  0  0  0
 65 79  1  0  0  0  0
 67 68  1  0  0  0  0
M  CHG  2  78   1  79   1
M  ISO  4  42 100  63 101  75 100  87 101
M  END
> <Batch ID>
0092

> <Smiles>
CNC(C)C(=O)NC(C(=O)N1Cc2cc([101O:1][101CH2:1]C3=C(C)N(c4ccc(C(=N)[100NH:0][100C:0](=O)N5CCCC(n6nc(-c7ccc(Oc8ccc(F)cc8F)cc7)c(C(N)=O)c6N)C5)cc4N)CC(=O)C3)ccc2CC1C(=O)NC1CCCc2ccccc21)C(C)(C)C

> <Shape>
0.297

> <Color>
0.106

> <Negative vol penalty>
0.000

$$$$

  -OEChem-04052300343D

 85 93  0     1  0  0  0  0  0999 V2000
  -24.4137  -37.8917   22.6148 C   0  0  0  0  0  0  0  0  0  0  0  0
  -25.1929  -37.1131   21.7650 C   0  0  0  0  0  0  0  0  0  0  0  0
  -22.4593   -7.2177   18.6557 C   0  0  0  0  0  0  0  0  0  0  0  0
  -24.6126   -6.6607   19.5991 C   0  0  0  0  0  0  0  0  0  0  0  0
  -29.3376  -17.9103   19.4838 C   0  0  0  0  0  0  0  0  0  0  0  0
  -23.8895  -37.3371   23.7817 C   0  0  0  0  0  0  0  0  0  0  0  0
  -25.4493  -35.7797   22.0823 C   0  0  0  0  0  0  0  0  0  0  0  0
  -26.5054  -29.4075   18.9846 C   0  0  0  0  0  0  0  0  0  0  0  0
  -29.4654  -19.2756   19.2286 C   0  0  0  0  0  0  0  0  0  0  0  0
  -22.5807   -6.1603   17.7542 C   0  0  0  0  0  0  0  0  0  0  0  0
  -24.7340   -5.6033   18.6976 C   0  0  0  0  0  0  0  0  0  0  0  0
  -27.4119  -28.3482   18.9819 C   0  0  0  0  0  0  0  0  0  0  0  0
  -23.5558   -2.4514   18.3846 C   0  0  0  0  0  0  0  0  0  0  0  0
  -24.0012   -1.2264   18.8811 C   0  0  0  0  0  0  0  0  0  0  0  0
  -26.3884  -27.4752   20.9843 C   0  0  0  0  0  0  0  0  0  0  0  0
  -27.8417  -19.7499   20.9537 C   0  0  0  0  0  0  0  0  0  0  0  0
  -25.8948   -1.3076   17.3828 C   0  0  0  0  0  0  0  0  0  0  0  0
  -23.4753   -7.4680   19.5781 C   0  0  0  0  0  0  0  0  0  0  0  0
  -28.4618  -17.4647   20.4738 C   0  0  0  0  0  0  0  0  0  0  0  0
  -22.7776   -8.5209   21.7945 C   0  0  0  0  0  0  0  0  0  0  0  0
  -24.1316  -35.9935   24.1085 C   0  0  0  0  0  0  0  0  0  0  0  0
  -25.5390  -29.5147   19.9950 C   0  0  0  0  0  0  0  0  0  0  0  0
  -24.9290  -35.2070   23.2554 C   0  0  0  0  0  0  0  0  0  0  0  0
  -25.4692  -28.5354   20.9961 C   0  0  0  0  0  0  0  0  0  0  0  0
  -28.7174  -20.1954   19.9636 C   0  0  0  0  0  0  0  0  0  0  0  0
  -23.7180   -5.3531   17.7751 C   0  0  0  0  0  0  0  0  0  0  0  0
  -27.3553  -27.3834   19.9835 C   0  0  0  0  0  0  0  0  0  0  0  0
  -24.2798   -3.1045   17.3871 C   0  0  0  0  0  0  0  0  0  0  0  0
  -25.1707   -0.6545   18.3802 C   0  0  0  0  0  0  0  0  0  0  0  0
  -25.4493   -2.5326   16.8862 C   0  0  0  0  0  0  0  0  0  0  0  0
  -27.7139  -18.3845   21.2088 C   0  0  0  0  0  0  0  0  0  0  0  0
  -23.3507   -8.5604   20.5093 C   0  0  0  0  0  0  0  0  0  0  0  0
  -22.9038   -9.8045   22.2664 C   0  0  0  0  0  0  0  0  0  0  0  0
  -28.3525  -16.0110   20.7164 C   0  0  0  0  0  0  0  0  0  0  0  0
  -22.1843   -7.4220   22.4988 C   0  0  0  0  0  0  0  0  0  0  0  0
  -24.8872  -31.6493   22.2582 C   0  0  0  0  0  0  0  0  0  0  0  0
  -28.4969  -23.9409   19.8907 C   0  0  0  0  0  0  0  0  0  0  0  0
  -22.2986  -29.7578   22.7515 C   0  0  0  0  0  0  0  0  0  0  0  0
  -20.8654  -26.6744   22.4589 C   0  0  0  0  0  0  0  0  0  0  0  0
  -26.8505  -14.0311   20.7417 C   0  0  0  0  0  0  0  0  0  0  0  0
  -23.5830  -35.4515   25.4046 C   0  0  0  0  0  0  0  0  0  0  0  0
  -24.5513  -30.6488   19.9686 C   0  0  0  0  0  0  0  0  0  0  0  0
  -24.4376  -28.5937   22.0919 C   0  0  0  0  0  0  0  0  0  0  0  0
  -23.5905  -33.9268   25.4790 C   0  0  0  0  0  0  0  0  0  0  0  0
  -23.1546  -14.3342   20.8222 C   0  0  0  0  0  0  0  0  0  0  0  0
  -24.9352  -33.3763   25.0145 C   0  0  0  0  0  0  0  0  0  0  0  0
  -22.7471  -12.8654   20.7864 C   0  0  0  0  0  0  0  0  0  0  0  0
  -24.4548  -14.5917   20.0618 C   0  0  0  0  0  0  0  0  0  0  0  0
  -25.1734  -12.2496   20.4795 C   0  0  0  0  0  0  0  0  0  0  0  0
  -25.2089  -33.7498   23.5526 C   0  0  1  0  0  0  0  0  0  0  0  0
  -23.9381  -30.9389   21.3350 C   0  0  1  0  0  0  0  0  0  0  0  0
  -23.8959  -11.9783   21.2870 C   0  0  2  0  0  0  0  0  0  0  0  0
  -18.7538  -25.4255   22.9867 C   0  0  0  0  0  0  0  0  0  0  0  0
  -23.1231  -29.6084   25.6854 C   0  0  0  0  0  0  0  0  0  0  0  0
  -21.5910  -27.6452   25.9438 C   0  0  0  0  0  0  0  0  0  0  0  0
  -20.6655  -29.8717   25.3046 C   0  0  0  0  0  0  0  0  0  0  0  0
  -20.3554  -26.0969   19.6014 C   0  0  0  0  0  0  0  0  0  0  0  0
  -28.1144  -22.5738   20.4169 C   0  0  0  0  0  0  0  0  0  0  0  0
  -27.7946  -25.1146   20.5452 C   0  0  0  0  0  0  0  0  0  1  0  0
  -22.0031  -28.5532   23.6122 C   0  0  1  0  0  0  0  0  0  0  0  0
  -19.5043  -26.2409   21.9453 C   0  0  2  0  0  0  0  0  0  0  0  0
  -21.8665  -28.9193   25.1171 C   0  0  0  0  0  0  0  0  0  0  0  0
  -23.8069   -9.7733   20.1853 N   0  0  0  0  0  0  0  0  0  0  0  0
  -23.5205  -10.5077   21.2737 N   0  0  0  0  0  0  0  0  0  0  0  0
  -23.4981  -29.7253   22.0263 N   0  0  0  0  0  0  0  0  0  0  0  0
  -25.5260  -13.6735   20.4723 N   0  0  0  0  0  0  0  0  0  0  0  0
  -22.5463  -10.3892   23.4295 N   0  0  0  0  0  0  0  0  0  0  0  0
  -22.1365   -6.1715   21.8676 N   0  0  0  0  0  0  0  0  0  0  0  0
  -28.8449  -21.5535   19.7094 N   0  0  0  0  0  0  0  0  0  0  0  0
  -27.1522  -15.4336   20.5519 N   0  0  0  0  0  0  0  0  0  0  0  0
  -24.4510  -32.8966   22.6626 N   0  0  0  0  0  0  0  0  0  0  0  0
  -20.8177  -27.9238   23.0403 N   0  0  0  0  0  0  0  0  0  0  0  0
  -29.4558  -15.3634   21.0901 N   0  3  0  0  0  0  0  0  0  0  0  0
  -19.6546  -25.4104   20.7170 N   0  3  0  0  0  0  0  0  0  0  0  0
  -21.6957   -7.5491   23.6471 O   0  0  0  0  0  0  0  0  0  0  0  0
  -25.9369  -31.1055   22.5809 O   0  0  0  0  0  0  0  0  0  0  0  0
  -29.3215  -24.1009   18.9916 O   0  0  0  0  0  0  0  0  0  0  0  0
  -21.4913  -30.6898   22.7182 O   0  0  0  0  0  0  0  0  0  0  0  0
  -21.8697  -25.9731   22.3581 O   0  0  0  0  0  0  0  0  0  0  0  0
  -27.7417  -13.2614   21.0841 O   0  0  0  0  0  0  0  0  0  0  0  0
  -23.8368   -4.3210   16.8957 O   0  0  0  0  0  0  0  0  0  0  0  0
  -28.2393  -26.3488   19.9836 O   0  0  0  0  0  0  0  0  0  1  0  0
  -25.5991    0.5212   18.8582 F   0  0  0  0  0  0  0  0  0  0  0  0
  -26.1498   -3.1559   15.9288 F   0  0  0  0  0  0  0  0  0  0  0  0
  -26.6201  -17.8708   22.4418 Cl  0  0  0  0  0  0  0  0  0  0  0  0
  1  2  1  0  0  0  0
  1  6  2  0  0  0  0
  2  7  2  0  0  0  0
  3 10  2  0  0  0  0
  3 18  1  0  0  0  0
  4 11  1  0  0  0  0
  4 18  2  0  0  0  0
  5  9  2  0  0  0  0
  5 19  1  0  0  0  0
  6 21  1  0  0  0  0
  7 23  1  0  0  0  0
  8 12  2  0  0  0  0
  8 22  1  0  0  0  0
  9 25  1  0  0  0  0
 10 26  1  0  0  0  0
 11 26  2  0  0  0  0
 12 27  1  0  0  0  0
 13 14  2  0  0  0  0
 13 28  1  0  0  0  0
 14 29  1  0  0  0  0
 15 24  1  0  0  0  0
 15 27  2  0  0  0  0
 16 25  2  0  0  0  0
 16 31  1  0  0  0  0
 17 29  2  0  0  0  0
 17 30  1  0  0  0  0
 18 32  1  0  0  0  0
 19 31  2  0  0  0  0
 19 34  1  0  0  0  0
 20 32  1  0  0  0  0
 20 33  2  0  0  0  0
 20 35  1  0  0  0  0
 21 23  2  0  0  0  0
 21 41  1  0  0  0  0
 22 24  2  0  0  0  0
 22 42  1  0  0  0  0
 23 50  1  0  0  0  0
 24 43  1  0  0  0  0
 25 69  1  0  0  0  0
 26 81  1  0  0  0  0
 27 82  1  0  0  0  0
 28 30  2  0  0  0  0
 28 81  1  0  0  0  0
 29 83  1  0  0  0  0
 30 84  1  0  0  0  0
 31 85  1  0  0  0  0
 32 63  2  0  0  0  0
 33 64  1  0  0  0  0
 33 67  1  0  0  0  0
 34 70  1  0  0  0  0
 34 73  2  0  0  0  0
 35 68  1  0  0  0  0
 35 75  2  0  0  0  0
 36 51  1  0  0  0  0
 36 71  1  0  0  0  0
 36 76  2  0  0  0  0
 37 58  1  0  0  0  0
 37 59  1  0  0  0  0
 37 77  2  0  0  0  0
 38 60  1  0  0  0  0
 38 65  1  0  0  0  0
 38 78  2  0  0  0  0
 39 61  1  0  0  0  0
 39 72  1  0  0  0  0
 39 79  2  0  0  0  0
 40 66  1  0  0  0  0
 40 70  1  0  0  0  0
 40 80  2  0  0  0  0
 41 44  1  0  0  0  0
 42 51  1  0  0  0  0
 43 65  1  0  0  0  0
 44 46  1  0  0  0  0
 45 47  1  0  0  0  0
 45 48  1  0  0  0  0
 46 50  1  0  0  0  0
 47 52  1  0  0  0  0
 48 66  1  0  0  0  0
 49 52  1  0  0  0  0
 49 66  1  0  0  0  0
 50 71  1  0  0  0  0
 51 65  1  0  0  0  0
 52 64  1  0  0  0  0
 53 61  1  0  0  0  0
 54 62  1  0  0  0  0
 55 62  1  0  0  0  0
 56 62  1  0  0  0  0
 57 74  1  0  0  0  0
 58 69  1  0  0  0  0
 59 82  1  0  0  0  0
 60 62  1  0  0  0  0
 60 72  1  0  0  0  0
 61 74  1  0  0  0  0
 63 64  1  0  0  0  0
M  CHG  2  73   1  74   1
M  ISO  4  40 100  59 101  70 100  82 101
M  END
> <Batch ID>
0092

> <Smiles>
CNC(C)C(=O)NC(C(=O)N1Cc2cc([101O:1][101CH2:1]C(=O)CNc3ccc(C(=N)[100NH:0][100C:0](=O)N4CCCC(n5nc(-c6ccc(Oc7ccc(F)cc7F)cc6)c(C(N)=O)c5N)C4)c(Cl)c3)ccc2CC1C(=O)NC1CCCc2ccccc21)C(C)(C)C

> <Shape>
0.323

> <Color>
0.075

> <Negative vol penalty>
0.000

$$$$

  -OEChem-04052300343D

 85 94  0     1  0  0  0  0  0999 V2000
  -20.4359  -33.3217   15.5597 C   0  0  0  0  0  0  0  0  0  0  0  0
  -21.3450  -32.2707   15.6247 C   0  0  0  0  0  0  0  0  0  0  0  0
  -23.0247  -11.0807   21.3709 C   0  0  0  0  0  0  0  0  0  0  0  0
  -24.5779   -9.2611   21.0335 C   0  0  0  0  0  0  0  0  0  0  0  0
  -20.5563  -34.4011   16.4340 C   0  0  0  0  0  0  0  0  0  0  0  0
  -22.3757  -32.2989   16.5635 C   0  0  0  0  0  0  0  0  0  0  0  0
  -24.7908  -27.5129   19.5244 C   0  0  0  0  0  0  0  0  0  0  0  0
  -21.9629  -10.2329   21.0554 C   0  0  0  0  0  0  0  0  0  0  0  0
  -23.5161   -8.4133   20.7181 C   0  0  0  0  0  0  0  0  0  0  0  0
  -25.9414  -26.7570   19.3042 C   0  0  0  0  0  0  0  0  0  0  0  0
  -20.1632   -7.8171   22.5910 C   0  0  0  0  0  0  0  0  0  0  0  0
  -19.0346   -7.8595   23.4095 C   0  0  0  0  0  0  0  0  0  0  0  0
  -27.1323  -28.1153   20.9031 C   0  0  0  0  0  0  0  0  0  0  0  0
  -28.7545  -21.5039   23.2609 C   0  0  0  0  0  0  0  0  0  0  0  0
  -29.0603  -20.0897   21.3262 C   0  0  0  0  0  0  0  0  0  0  0  0
  -28.5918  -19.1035   23.4814 C   0  0  0  0  0  0  0  0  0  0  0  0
  -17.6823   -8.4973   21.5117 C   0  0  0  0  0  0  0  0  0  0  0  0
  -24.3322  -10.5948   21.3599 C   0  0  0  0  0  0  0  0  0  0  0  0
  -25.9811  -11.7047   22.9588 C   0  0  0  0  0  0  0  0  0  0  0  0
  -21.5832  -34.4380   17.3903 C   0  0  0  0  0  0  0  0  0  0  0  0
  -24.8052  -28.5843   20.4290 C   0  0  0  0  0  0  0  0  0  0  0  0
  -22.5107  -33.3805   17.4505 C   0  0  0  0  0  0  0  0  0  0  0  0
  -25.9798  -28.8815   21.1348 C   0  0  0  0  0  0  0  0  0  0  0  0
  -29.0126  -21.3612   21.8976 C   0  0  0  0  0  0  0  0  0  0  0  0
  -28.5441  -20.3750   24.0528 C   0  0  0  0  0  0  0  0  0  0  0  0
  -28.8498  -18.9608   22.1180 C   0  0  0  0  0  0  0  0  0  0  0  0
  -22.2086   -8.8992   20.7290 C   0  0  0  0  0  0  0  0  0  0  0  0
  -27.1132  -27.0600   19.9914 C   0  0  0  0  0  0  0  0  0  0  0  0
  -20.0515   -8.1149   21.2328 C   0  0  0  0  0  0  0  0  0  0  0  0
  -17.7941   -8.1996   22.8698 C   0  0  0  0  0  0  0  0  0  0  0  0
  -18.8110   -8.4550   20.6932 C   0  0  0  0  0  0  0  0  0  0  0  0
  -25.4294  -11.4702   21.6851 C   0  0  0  0  0  0  0  0  0  0  0  0
  -26.9915  -12.6077   22.7345 C   0  0  0  0  0  0  0  0  0  0  0  0
  -29.2254  -23.7989   21.4154 C   0  0  0  0  0  0  0  0  0  0  0  0
  -25.6132  -11.1554   24.2311 C   0  0  0  0  0  0  0  0  0  0  0  0
  -24.3372  -31.7199   20.1999 C   0  0  0  0  0  0  0  0  0  0  0  0
  -24.5769  -31.5983   23.4326 C   0  0  0  0  0  0  0  0  0  0  0  0
  -25.7396  -29.9610   26.1920 C   0  0  0  0  0  0  0  0  0  0  0  0
  -28.5323  -17.4334   20.1786 C   0  0  0  0  0  0  0  0  0  0  0  0
  -21.7011  -35.6483   18.2826 C   0  0  0  0  0  0  0  0  0  0  0  0
  -23.5483  -29.3730   20.6751 C   0  0  0  0  0  0  0  0  0  0  0  0
  -26.0421  -30.0088   22.1318 C   0  0  0  0  0  0  0  0  0  0  0  0
  -22.5982  -35.4245   19.4973 C   0  0  0  0  0  0  0  0  0  0  0  0
  -29.0871  -14.2292   18.4364 C   0  0  0  0  0  0  0  0  0  0  0  0
  -23.8984  -34.7432   19.0823 C   0  0  0  0  0  0  0  0  0  0  0  0
  -28.1762  -13.2663   19.1962 C   0  0  0  0  0  0  0  0  0  0  0  0
  -28.5449  -15.6553   18.4538 C   0  0  0  0  0  0  0  0  0  0  0  0
  -29.2223  -22.6326   19.6668 C   0  0  0  0  0  0  0  0  0  0  0  0
  -27.3630  -15.2149   20.5844 C   0  0  0  0  0  0  0  0  0  0  0  0
  -23.6276  -33.3630   18.4715 C   0  0  1  0  0  0  0  0  0  0  0  0
  -29.2513  -24.1624   19.9145 C   0  0  1  0  0  0  0  0  0  0  0  0
  -23.8172  -30.7655   21.2374 C   0  0  1  0  0  0  0  0  0  0  0  0
  -27.9044  -13.7778   20.6216 C   0  0  1  0  0  0  0  0  0  0  0  0
  -25.8107  -30.1242   28.6951 C   0  0  0  0  0  0  0  0  0  0  0  0
  -26.7312  -33.7494   23.2288 C   0  0  0  0  0  0  0  0  0  0  0  0
  -27.4124  -33.1908   25.5723 C   0  0  0  0  0  0  0  0  0  0  0  0
  -25.1200  -34.0620   25.1158 C   0  0  0  0  0  0  0  0  0  0  0  0
  -29.5623  -16.5677   22.2664 C   0  0  0  0  0  0  0  0  0  0  0  0
  -24.2657  -27.4151   26.5157 C   0  0  0  0  0  0  0  0  0  0  0  0
  -28.0596  -24.9559   19.4146 C   0  0  0  0  0  0  0  0  0  1  0  0
  -25.7094  -31.7024   24.4253 C   0  0  1  0  0  0  0  0  0  0  0  0
  -25.0609  -29.5718   27.4929 C   0  0  2  0  0  0  0  0  0  0  0  0
  -26.2429  -33.1561   24.5654 C   0  0  0  0  0  0  0  0  0  0  0  0
  -26.0387  -12.1680   20.7229 N   0  0  0  0  0  0  0  0  0  0  0  0
  -26.9837  -12.8499   21.3923 N   0  0  0  0  0  0  0  0  0  0  0  0
  -29.2191  -22.4746   21.1155 N   0  0  0  0  0  0  0  0  0  0  0  0
  -24.7888  -30.7547   22.3329 N   0  0  0  0  0  0  0  0  0  0  0  0
  -28.2521  -16.1004   19.8168 N   0  0  0  0  0  0  0  0  0  0  0  0
  -28.2831  -20.5186   25.4314 N   0  0  0  0  0  0  0  0  0  0  0  0
  -27.8769  -13.2101   23.5563 N   0  0  0  0  0  0  0  0  0  0  0  0
  -24.5522  -10.2412   24.2825 N   0  0  0  0  0  0  0  0  0  0  0  0
  -23.3482  -32.3961   19.5114 N   0  0  0  0  0  0  0  0  0  0  0  0
  -25.2152  -31.1247   25.6705 N   0  0  0  0  0  0  0  0  0  0  0  0
  -28.8976  -17.6449   21.5257 N   0  0  0  0  0  0  0  0  0  0  0  0
  -24.9966  -28.0884   27.6200 N   0  3  0  0  0  0  0  0  0  0  0  0
  -29.1842  -24.4092   22.4594 O   0  0  0  0  0  0  0  0  0  0  0  0
  -26.1971  -11.4786   25.2932 O   0  0  0  0  0  0  0  0  0  0  0  0
  -25.5463  -31.8355   20.0372 O   0  0  0  0  0  0  0  0  0  0  0  0
  -23.5396  -32.2361   23.6294 O   0  0  0  0  0  0  0  0  0  0  0  0
  -26.6470  -29.3009   25.6907 O   0  0  0  0  0  0  0  0  0  0  0  0
  -28.4885  -18.3558   19.3557 O   0  0  0  0  0  0  0  0  0  0  0  0
  -21.1728   -8.0716   20.4214 O   0  0  0  0  0  0  0  0  0  0  0  0
  -28.2379  -26.3243   19.7779 O   0  0  0  0  0  0  0  0  0  1  0  0
  -16.7101   -8.2388   23.6556 F   0  0  0  0  0  0  0  0  0  0  0  0
  -18.6972   -8.7409   19.3889 F   0  0  0  0  0  0  0  0  0  0  0  0
  1  2  1  0  0  0  0
  1  5  2  0  0  0  0
  2  6  2  0  0  0  0
  3  8  2  0  0  0  0
  3 18  1  0  0  0  0
  4  9  1  0  0  0  0
  4 18  2  0  0  0  0
  5 20  1  0  0  0  0
  6 22  1  0  0  0  0
  7 10  2  0  0  0  0
  7 21  1  0  0  0  0
  8 27  1  0  0  0  0
  9 27  2  0  0  0  0
 10 28  1  0  0  0  0
 11 12  2  0  0  0  0
 11 29  1  0  0  0  0
 12 30  1  0  0  0  0
 13 23  1  0  0  0  0
 13 28  2  0  0  0  0
 14 24  1  0  0  0  0
 14 25  2  0  0  0  0
 15 24  2  0  0  0  0
 15 26  1  0  0  0  0
 16 25  1  0  0  0  0
 16 26  2  0  0  0  0
 17 30  2  0  0  0  0
 17 31  1  0  0  0  0
 18 32  1  0  0  0  0
 19 32  1  0  0  0  0
 19 33  2  0  0  0  0
 19 35  1  0  0  0  0
 20 22  2  0  0  0  0
 20 40  1  0  0  0  0
 21 23  2  0  0  0  0
 21 41  1  0  0  0  0
 22 50  1  0  0  0  0
 23 42  1  0  0  0  0
 24 66  1  0  0  0  0
 25 69  1  0  0  0  0
 26 74  1  0  0  0  0
 27 82  1  0  0  0  0
 28 83  1  0  0  0  0
 29 31  2  0  0  0  0
 29 82  1  0  0  0  0
 30 84  1  0  0  0  0
 31 85  1  0  0  0  0
 32 64  2  0  0  0  0
 33 65  1  0  0  0  0
 33 70  1  0  0  0  0
 34 51  1  0  0  0  0
 34 66  1  0  0  0  0
 34 76  2  0  0  0  0
 35 71  1  0  0  0  0
 35 77  2  0  0  0  0
 36 52  1  0  0  0  0
 36 72  1  0  0  0  0
 36 78  2  0  0  0  0
 37 61  1  0  0  0  0
 37 67  1  0  0  0  0
 37 79  2  0  0  0  0
 38 62  1  0  0  0  0
 38 73  1  0  0  0  0
 38 80  2  0  0  0  0
 39 68  1  0  0  0  0
 39 74  1  0  0  0  0
 39 81  2  0  0  0  0
 40 43  1  0  0  0  0
 41 52  1  0  0  0  0
 42 67  1  0  0  0  0
 43 45  1  0  0  0  0
 44 46  1  0  0  0  0
 44 47  1  0  0  0  0
 45 50  1  0  0  0  0
 46 53  1  0  0  0  0
 47 68  1  0  0  0  0
 48 51  1  0  0  0  0
 48 66  1  0  0  0  0
 49 53  1  0  0  0  0
 49 68  1  0  0  0  0
 50 72  1  0  0  0  0
 51 60  1  0  0  0  0
 52 67  1  0  0  0  0
 53 65  1  0  0  0  0
 54 62  1  0  0  0  0
 55 63  1  0  0  0  0
 56 63  1  0  0  0  0
 57 63  1  0  0  0  0
 58 74  1  0  0  0  0
 59 75  1  0  0  0  0
 60 83  1  0  0  0  0
 61 63  1  0  0  0  0
 61 73  1  0  0  0  0
 62 75  1  0  0  0  0
 64 65  1  0  0  0  0
M  CHG  1  75   1
M  ISO  4  39 100  60 101  74 100  83 101
M  END
> <Batch ID>
0092

> <Smiles>
CNC(C)C(=O)NC(C(=O)N1Cc2cc([101O:1][101CH2:1]C3CN(c4cc(N)cc([100N:0](C)[100C:0](=O)N5CCCC(n6nc(-c7ccc(Oc8ccc(F)cc8F)cc7)c(C(N)=O)c6N)C5)c4)C3=O)ccc2CC1C(=O)NC1CCCc2ccccc21)C(C)(C)C

> <Shape>
0.264

> <Color>
0.096

> <Negative vol penalty>
0.000

$$$$

  -OEChem-04052300343D

 87 96  0     1  0  0  0  0  0999 V2000
  -29.5994  -31.5940   26.0596 C   0  0  0  0  0  0  0  0  0  0  0  0
  -29.2812  -30.4704   25.3035 C   0  0  0  0  0  0  0  0  0  0  0  0
  -23.8017   -9.3729   21.2272 C   0  0  0  0  0  0  0  0  0  0  0  0
  -22.9087  -11.5964   21.5363 C   0  0  0  0  0  0  0  0  0  0  0  0
  -28.5833  -32.4096   26.5558 C   0  0  0  0  0  0  0  0  0  0  0  0
  -27.9464  -30.1612   25.0441 C   0  0  0  0  0  0  0  0  0  0  0  0
  -27.1550  -28.8706   20.2116 C   0  0  0  0  0  0  0  0  0  0  0  0
  -22.9160   -8.8837   22.1873 C   0  0  0  0  0  0  0  0  0  0  0  0
  -22.0229  -11.1072   22.4964 C   0  0  0  0  0  0  0  0  0  0  0  0
  -27.5207  -27.5808   19.8290 C   0  0  0  0  0  0  0  0  0  0  0  0
  -19.6476   -8.0342   22.3582 C   0  0  0  0  0  0  0  0  0  0  0  0
  -18.9648   -6.8530   22.0681 C   0  0  0  0  0  0  0  0  0  0  0  0
  -25.2187  -26.8820   20.0065 C   0  0  0  0  0  0  0  0  0  0  0  0
  -28.7001  -23.2040   17.3434 C   0  0  0  0  0  0  0  0  0  0  0  0
  -27.9597  -19.7655   20.2966 C   0  0  0  0  0  0  0  0  0  0  0  0
  -29.4884  -19.1884   18.5172 C   0  0  0  0  0  0  0  0  0  0  0  0
  -19.9572   -5.8037   24.0050 C   0  0  0  0  0  0  0  0  0  0  0  0
  -23.7981  -10.7293   20.9017 C   0  0  0  0  0  0  0  0  0  0  0  0
  -24.4923  -11.3395   18.5241 C   0  0  0  0  0  0  0  0  0  0  0  0
  -27.2358  -32.1156   26.2942 C   0  0  0  0  0  0  0  0  0  0  0  0
  -25.8178  -29.1736   20.5056 C   0  0  0  0  0  0  0  0  0  0  0  0
  -26.9113  -30.9729   25.5384 C   0  0  0  0  0  0  0  0  0  0  0  0
  -24.8382  -28.1770   20.3902 C   0  0  0  0  0  0  0  0  0  0  0  0
  -28.4708  -23.6644   18.6634 C   0  0  0  0  0  0  0  0  0  0  0  0
  -28.7010  -20.1339   19.1740 C   0  0  0  0  0  0  0  0  0  0  0  0
  -28.0059  -18.4515   20.7626 C   0  0  0  0  0  0  0  0  0  0  0  0
  -28.7934  -17.5060   20.1057 C   0  0  0  0  0  0  0  0  0  0  0  0
  -22.0266   -9.7508   22.8219 C   0  0  0  0  0  0  0  0  0  0  0  0
  -26.5529  -26.5855   19.7291 C   0  0  0  0  0  0  0  0  0  0  0  0
  -20.4854   -8.1002   23.4715 C   0  0  0  0  0  0  0  0  0  0  0  0
  -19.1196   -5.7378   22.8915 C   0  0  0  0  0  0  0  0  0  0  0  0
  -29.5347  -17.8744   18.9830 C   0  0  0  0  0  0  0  0  0  0  0  0
  -20.6401   -6.9850   24.2950 C   0  0  0  0  0  0  0  0  0  0  0  0
  -24.7132  -11.2353   19.9105 C   0  0  0  0  0  0  0  0  0  0  0  0
  -25.6561  -11.8764   18.0303 C   0  0  0  0  0  0  0  0  0  0  0  0
  -28.8103  -21.8321   17.3995 C   0  0  0  0  0  0  0  0  0  0  0  0
  -28.4480  -22.5598   19.4861 C   0  0  0  0  0  0  0  0  0  0  0  0
  -23.3383  -10.9829   17.7516 C   0  0  0  0  0  0  0  0  0  0  0  0
  -24.2618  -30.1824   23.0873 C   0  0  0  0  0  0  0  0  0  0  0  0
  -21.7558  -30.3478   21.0342 C   0  0  0  0  0  0  0  0  0  0  0  0
  -20.3074  -29.2708   18.1378 C   0  0  0  0  0  0  0  0  0  0  0  0
  -29.9281  -15.2831   20.4489 C   0  0  0  0  0  0  0  0  0  0  0  0
  -26.1706  -33.0005   26.8915 C   0  0  0  0  0  0  0  0  0  0  0  0
  -25.4356  -30.5764   20.8912 C   0  0  0  0  0  0  0  0  0  0  0  0
  -23.3858  -28.4558   20.6752 C   0  0  0  0  0  0  0  0  0  0  0  0
  -24.7954  -32.8120   26.2562 C   0  0  0  0  0  0  0  0  0  0  0  0
  -30.3556  -12.0932   18.9261 C   0  0  0  0  0  0  0  0  0  0  0  0
  -24.4668  -31.3282   26.1249 C   0  0  0  0  0  0  0  0  0  0  0  0
  -28.9363  -11.5232   18.8740 C   0  0  0  0  0  0  0  0  0  0  0  0
  -30.5954  -12.9025   20.1994 C   0  0  0  0  0  0  0  0  0  0  0  0
  -28.1892  -13.3885   20.4069 C   0  0  0  0  0  0  0  0  0  0  0  0
  -25.4762  -30.6181   25.2147 C   0  0  1  0  0  0  0  0  0  0  0  0
  -24.1227  -30.6467   21.6650 C   0  0  1  0  0  0  0  0  0  0  0  0
  -27.8795  -12.6197   19.1120 C   0  0  2  0  0  0  0  0  0  0  0  0
  -18.2411  -29.5582   16.7432 C   0  0  0  0  0  0  0  0  0  0  0  0
  -20.1892  -28.6231   23.0042 C   0  0  0  0  0  0  0  0  0  0  0  0
  -18.5382  -28.1613   21.1796 C   0  0  0  0  0  0  0  0  0  0  0  0
  -18.8806  -30.4963   21.9879 C   0  0  0  0  0  0  0  0  0  0  0  0
  -21.8643  -30.2752   15.8299 C   0  0  0  0  0  0  0  0  0  0  0  0
  -28.2884  -25.0935   19.0826 C   0  0  0  0  0  0  0  0  0  1  0  0
  -20.6743  -29.3937   20.5882 C   0  0  1  0  0  0  0  0  0  0  0  0
  -19.6659  -30.0291   16.9898 C   0  0  2  0  0  0  0  0  0  0  0  0
  -19.5982  -29.1626   21.6864 C   0  0  0  0  0  0  0  0  0  0  0  0
  -25.9224  -11.6709   20.2741 N   0  0  0  0  0  0  0  0  0  0  0  0
  -28.6557  -21.4517   18.7070 N   0  0  0  0  0  0  0  0  0  0  0  0
  -26.4717  -12.0539   19.1090 N   0  0  0  0  0  0  0  0  0  0  0  0
  -23.0630  -29.8413   21.0546 N   0  0  0  0  0  0  0  0  0  0  0  0
  -29.5584  -13.9246   20.3566 N   0  0  0  0  0  0  0  0  0  0  0  0
  -27.2471  -18.1004   21.9018 N   0  0  0  0  0  0  0  0  0  0  0  0
  -26.0512  -12.2092   16.7831 N   0  0  0  0  0  0  0  0  0  0  0  0
  -22.2290  -10.4440   18.4175 N   0  0  0  0  0  0  0  0  0  0  0  0
  -28.8550  -16.1663   20.5631 N   0  0  0  0  0  0  0  0  0  0  0  0
  -25.1866  -30.8970   23.8245 N   0  0  0  0  0  0  0  0  0  0  0  0
  -20.1468  -29.9299   19.3382 N   0  0  0  0  0  0  0  0  0  0  0  0
  -20.4492  -29.8325   15.7373 N   0  3  0  0  0  0  0  0  0  0  0  0
  -23.2983  -11.1223   16.5056 O   0  0  0  0  0  0  0  0  0  0  0  0
  -23.5793  -29.2462   23.4867 O   0  0  0  0  0  0  0  0  0  0  0  0
  -21.4529  -31.5023   21.3458 O   0  0  0  0  0  0  0  0  0  0  0  0
  -20.8893  -28.1990   17.9855 O   0  0  0  0  0  0  0  0  0  0  0  0
  -31.1083  -15.6392   20.4008 O   0  0  0  0  0  0  0  0  0  0  0  0
  -29.0254  -20.9457   16.4348 O   0  0  0  0  0  0  0  0  0  0  0  0
  -28.2700  -22.4627   20.7988 O   0  0  0  0  0  0  0  0  0  0  0  0
  -21.1620   -9.2738   23.7586 O   0  0  0  0  0  0  0  0  0  0  0  0
  -26.9072  -25.3256   19.3565 O   0  0  0  0  0  0  0  0  0  1  0  0
  -18.4626   -4.6040   22.6138 F   0  0  0  0  0  0  0  0  0  0  0  0
  -30.2955  -16.9747   18.3431 F   0  0  0  0  0  0  0  0  0  0  0  0
  -21.4426   -7.0427   25.3667 F   0  0  0  0  0  0  0  0  0  0  0  0
  1  2  1  0  0  0  0
  1  5  2  0  0  0  0
  2  6  2  0  0  0  0
  3  8  2  0  0  0  0
  3 18  1  0  0  0  0
  4  9  1  0  0  0  0
  4 18  2  0  0  0  0
  5 20  1  0  0  0  0
  6 22  1  0  0  0  0
  7 10  2  0  0  0  0
  7 21  1  0  0  0  0
  8 28  1  0  0  0  0
  9 28  2  0  0  0  0
 10 29  1  0  0  0  0
 11 12  2  0  0  0  0
 11 30  1  0  0  0  0
 12 31  1  0  0  0  0
 13 23  1  0  0  0  0
 13 29  2  0  0  0  0
 14 24  1  0  0  0  0
 14 36  2  0  0  0  0
 15 25  1  0  0  0  0
 15 26  2  0  0  0  0
 16 25  2  0  0  0  0
 16 32  1  0  0  0  0
 17 31  2  0  0  0  0
 17 33  1  0  0  0  0
 18 34  1  0  0  0  0
 19 34  1  0  0  0  0
 19 35  2  0  0  0  0
 19 38  1  0  0  0  0
 20 22  2  0  0  0  0
 20 43  1  0  0  0  0
 21 23  2  0  0  0  0
 21 44  1  0  0  0  0
 22 52  1  0  0  0  0
 23 45  1  0  0  0  0
 24 37  2  0  0  0  0
 24 60  1  0  0  0  0
 25 65  1  0  0  0  0
 26 27  1  0  0  0  0
 26 69  1  0  0  0  0
 27 32  2  0  0  0  0
 27 72  1  0  0  0  0
 28 83  1  0  0  0  0
 29 84  1  0  0  0  0
 30 33  2  0  0  0  0
 30 83  1  0  0  0  0
 31 85  1  0  0  0  0
 32 86  1  0  0  0  0
 33 87  1  0  0  0  0
 34 64  2  0  0  0  0
 35 66  1  0  0  0  0
 35 70  1  0  0  0  0
 36 65  1  0  0  0  0
 36 81  1  0  0  0  0
 37 65  1  0  0  0  0
 37 82  1  0  0  0  0
 38 71  1  0  0  0  0
 38 76  2  0  0  0  0
 39 53  1  0  0  0  0
 39 73  1  0  0  0  0
 39 77  2  0  0  0  0
 40 61  1  0  0  0  0
 40 67  1  0  0  0  0
 40 78  2  0  0  0  0
 41 62  1  0  0  0  0
 41 74  1  0  0  0  0
 41 79  2  0  0  0  0
 42 68  1  0  0  0  0
 42 72  1  0  0  0  0
 42 80  2  0  0  0  0
 43 46  1  0  0  0  0
 44 53  1  0  0  0  0
 45 67  1  0  0  0  0
 46 48  1  0  0  0  0
 47 49  1  0  0  0  0
 47 50  1  0  0  0  0
 48 52  1  0  0  0  0
 49 54  1  0  0  0  0
 50 68  1  0  0  0  0
 51 54  1  0  0  0  0
 51 68  1  0  0  0  0
 52 73  1  0  0  0  0
 53 67  1  0  0  0  0
 54 66  1  0  0  0  0
 55 62  1  0  0  0  0
 56 63  1  0  0  0  0
 57 63  1  0  0  0  0
 58 63  1  0  0  0  0
 59 75  1  0  0  0  0
 60 84  1  0  0  0  0
 61 63  1  0  0  0  0
 61 74  1  0  0  0  0
 62 75  1  0  0  0  0
 64 66  1  0  0  0  0
M  CHG  1  75   1
M  ISO  4  42 100  60 101  72 100  84 101
M  END
> <Batch ID>
0092

> <Smiles>
CNC(C)C(=O)NC(C(=O)N1Cc2cc([101O:1][101CH2:1]C3CC(=O)N(c4cc(N)c([100NH:0][100C:0](=O)N5CCCC(n6nc(-c7ccc(Oc8ccc(F)cc8F)cc7)c(C(N)=O)c6N)C5)c(F)c4)C3=O)ccc2CC1C(=O)NC1CCCc2ccccc21)C(C)(C)C

> <Shape>
0.329

> <Color>
0.082

> <Negative vol penalty>
0.000

$$$$

  -OEChem-04052300343D

 86 94  0     1  0  0  0  0  0999 V2000
  -32.0859  -13.4000   21.3553 C   0  0  0  0  0  0  0  0  0  0  0  0
  -31.5001  -14.6161   21.6919 C   0  0  0  0  0  0  0  0  0  0  0  0
  -27.2358  -24.2160   23.1840 C   0  0  0  0  0  0  0  0  0  0  0  0
  -29.2367  -25.3501   22.4440 C   0  0  0  0  0  0  0  0  0  0  0  0
  -31.3929  -12.4909   20.5571 C   0  0  0  0  0  0  0  0  0  0  0  0
  -30.2212  -14.9243   21.2294 C   0  0  0  0  0  0  0  0  0  0  0  0
  -24.2924  -18.4583   23.1466 C   0  0  0  0  0  0  0  0  0  0  0  0
  -18.8437  -25.4982   23.7692 C   0  0  0  0  0  0  0  0  0  0  0  0
  -18.5876  -26.7827   24.2488 C   0  0  0  0  0  0  0  0  0  0  0  0
  -27.8169  -22.9870   22.8717 C   0  0  0  0  0  0  0  0  0  0  0  0
  -29.8178  -24.1211   22.1317 C   0  0  0  0  0  0  0  0  0  0  0  0
  -23.4144  -19.4291   22.6665 C   0  0  0  0  0  0  0  0  0  0  0  0
  -28.6386  -19.5714   21.9327 C   0  0  0  0  0  0  0  0  0  0  0  0
  -27.8591  -18.6391   21.2480 C   0  0  0  0  0  0  0  0  0  0  0  0
  -19.9880  -26.4390   21.8607 C   0  0  0  0  0  0  0  0  0  0  0  0
  -22.2802  -17.7483   21.3596 C   0  0  0  0  0  0  0  0  0  0  0  0
  -27.6036  -20.1963   19.4185 C   0  0  0  0  0  0  0  0  0  0  0  0
  -27.9457  -25.3976   22.9701 C   0  0  0  0  0  0  0  0  0  0  0  0
  -19.7318  -27.7236   22.3403 C   0  0  0  0  0  0  0  0  0  0  0  0
  -27.4123  -27.3521   24.5202 C   0  0  0  0  0  0  0  0  0  0  0  0
  -30.1011  -12.7840   20.0925 C   0  0  0  0  0  0  0  0  0  0  0  0
  -24.1775  -17.1250   22.7277 C   0  0  0  0  0  0  0  0  0  0  0  0
  -29.5108  -14.0188   20.4230 C   0  0  0  0  0  0  0  0  0  0  0  0
  -23.1564  -16.7621   21.8379 C   0  0  0  0  0  0  0  0  0  0  0  0
  -19.5441  -25.3264   22.5752 C   0  0  0  0  0  0  0  0  0  0  0  0
  -19.0315  -27.8954   23.5344 C   0  0  0  0  0  0  0  0  0  0  0  0
  -29.1078  -22.9395   22.3456 C   0  0  0  0  0  0  0  0  0  0  0  0
  -22.4099  -19.0747   21.7706 C   0  0  0  0  0  0  0  0  0  0  0  0
  -28.9005  -20.8162   21.3603 C   0  0  0  0  0  0  0  0  0  0  0  0
  -27.3417  -18.9515   19.9909 C   0  0  0  0  0  0  0  0  0  0  0  0
  -28.3831  -21.1286   20.1033 C   0  0  0  0  0  0  0  0  0  0  0  0
  -27.3458  -26.6675   23.2920 C   0  0  0  0  0  0  0  0  0  0  0  0
  -26.6864  -28.4997   24.3134 C   0  0  0  0  0  0  0  0  0  0  0  0
  -20.2191  -28.8876   21.5564 C   0  0  0  0  0  0  0  0  0  0  0  0
  -28.0713  -26.9838   25.7391 C   0  0  0  0  0  0  0  0  0  0  0  0
  -19.8817  -21.6449   21.8738 C   0  0  0  0  0  0  0  0  0  0  0  0
  -19.4335  -22.8323   22.6757 C   0  0  0  0  0  0  0  0  0  0  0  0
  -26.0534  -15.0988   21.1532 C   0  0  0  0  0  0  0  0  0  0  0  0
  -23.7069  -12.9774   21.8713 C   0  0  0  0  0  0  0  0  0  0  0  0
  -20.4332  -12.4391   22.6710 C   0  0  0  0  0  0  0  0  0  0  0  0
  -22.2560  -29.9354   20.6199 C   0  0  0  0  0  0  0  0  0  0  0  0
  -29.4100  -11.7898   19.1932 C   0  0  0  0  0  0  0  0  0  0  0  0
  -25.1157  -16.0849   23.2756 C   0  0  0  0  0  0  0  0  0  0  0  0
  -22.9778  -15.3407   21.3729 C   0  0  0  0  0  0  0  0  0  0  0  0
  -27.9097  -12.0346   19.0540 C   0  0  0  0  0  0  0  0  0  0  0  0
  -25.3972  -31.5419   20.8405 C   0  0  0  0  0  0  0  0  0  0  0  0
  -27.6317  -13.5116   18.7928 C   0  0  0  0  0  0  0  0  0  0  0  0
  -26.2588  -30.5448   21.6202 C   0  0  0  0  0  0  0  0  0  0  0  0
  -24.4432  -30.8361   19.8779 C   0  0  0  0  0  0  0  0  0  0  0  0
  -24.4690  -28.7984   21.2583 C   0  0  0  0  0  0  0  0  0  0  0  0
  -28.1154  -14.3790   19.9612 C   0  0  1  0  0  0  0  0  0  0  0  0
  -25.2276  -14.8520   22.3840 C   0  0  1  0  0  0  0  0  0  0  0  0
  -25.3970  -29.4568   22.2919 C   0  0  1  0  0  0  0  0  0  0  0  0
  -18.8023  -10.5957   23.1605 C   0  0  0  0  0  0  0  0  0  0  0  0
  -23.5727  -12.3097   18.8971 C   0  0  0  0  0  0  0  0  0  0  0  0
  -21.3564  -11.2217   19.3126 C   0  0  0  0  0  0  0  0  0  0  0  0
  -23.4076  -10.3319   20.4187 C   0  0  0  0  0  0  0  0  0  0  0  0
  -19.9061  -13.4711   25.3943 C   0  0  0  0  0  0  0  0  0  0  0  0
  -21.2658  -21.1231   22.1592 C   0  0  0  0  0  0  0  0  0  1  0  0
  -22.4305  -12.5281   21.2022 C   0  0  1  0  0  0  0  0  0  0  0  0
  -19.7865  -11.5926   23.7525 C   0  0  2  0  0  0  0  0  0  0  0  0
  -22.6961  -11.6251   19.9647 C   0  0  0  0  0  0  0  0  0  0  0  0
  -26.6338  -27.3251   22.3730 N   0  0  0  0  0  0  0  0  0  0  0  0
  -26.2461  -28.4349   23.0242 N   0  0  0  0  0  0  0  0  0  0  0  0
  -23.9241  -14.3612   21.9321 N   0  0  0  0  0  0  0  0  0  0  0  0
  -23.6575  -29.8288   20.5930 N   0  0  0  0  0  0  0  0  0  0  0  0
  -18.7610  -29.1877   24.0371 N   0  0  0  0  0  0  0  0  0  0  0  0
  -26.3881  -29.5476   25.1104 N   0  0  0  0  0  0  0  0  0  0  0  0
  -28.7727  -25.7710   25.7793 N   0  0  0  0  0  0  0  0  0  0  0  0
  -19.8035  -24.0235   22.0896 N   0  0  0  0  0  0  0  0  0  0  0  0
  -21.5996  -28.9490   21.3645 N   0  0  0  0  0  0  0  0  0  0  0  0
  -27.1820  -14.3064   21.0648 N   0  0  0  0  0  0  0  0  0  0  0  0
  -21.6254  -11.8957   22.2416 N   0  0  0  0  0  0  0  0  0  0  0  0
  -19.0541  -12.4584   24.7194 N   0  3  0  0  0  0  0  0  0  0  0  0
  -19.4041  -29.6850   21.1006 O   0  0  0  0  0  0  0  0  0  0  0  0
  -28.0255  -27.7009   26.7673 O   0  0  0  0  0  0  0  0  0  0  0  0
  -19.1075  -21.2012   21.0394 O   0  0  0  0  0  0  0  0  0  0  0  0
  -18.8443  -22.5971   23.7176 O   0  0  0  0  0  0  0  0  0  0  0  0
  -25.6926  -15.9445   20.3431 O   0  0  0  0  0  0  0  0  0  0  0  0
  -24.4794  -12.1319   22.3297 O   0  0  0  0  0  0  0  0  0  0  0  0
  -19.9291  -13.4766   22.2467 O   0  0  0  0  0  0  0  0  0  0  0  0
  -21.6438  -30.8511   20.0613 O   0  0  0  0  0  0  0  0  0  0  0  0
  -29.6752  -21.7404   22.0410 O   0  0  0  0  0  0  0  0  0  0  0  0
  -21.5520  -20.0204   21.2999 O   0  0  0  0  0  0  0  0  0  1  0  0
  -26.5944  -18.0555   19.3329 F   0  0  0  0  0  0  0  0  0  0  0  0
  -28.6323  -22.3224   19.5478 F   0  0  0  0  0  0  0  0  0  0  0  0
  1  2  1  0  0  0  0
  1  5  2  0  0  0  0
  2  6  2  0  0  0  0
  3 10  2  0  0  0  0
  3 18  1  0  0  0  0
  4 11  1  0  0  0  0
  4 18  2  0  0  0  0
  5 21  1  0  0  0  0
  6 23  1  0  0  0  0
  7 12  2  0  0  0  0
  7 22  1  0  0  0  0
  8  9  2  0  0  0  0
  8 25  1  0  0  0  0
  9 26  1  0  0  0  0
 10 27  1  0  0  0  0
 11 27  2  0  0  0  0
 12 28  1  0  0  0  0
 13 14  2  0  0  0  0
 13 29  1  0  0  0  0
 14 30  1  0  0  0  0
 15 19  1  0  0  0  0
 15 25  2  0  0  0  0
 16 24  1  0  0  0  0
 16 28  2  0  0  0  0
 17 30  2  0  0  0  0
 17 31  1  0  0  0  0
 18 32  1  0  0  0  0
 19 26  2  0  0  0  0
 19 34  1  0  0  0  0
 20 32  1  0  0  0  0
 20 33  2  0  0  0  0
 20 35  1  0  0  0  0
 21 23  2  0  0  0  0
 21 42  1  0  0  0  0
 22 24  2  0  0  0  0
 22 43  1  0  0  0  0
 23 51  1  0  0  0  0
 24 44  1  0  0  0  0
 25 70  1  0  0  0  0
 26 67  1  0  0  0  0
 27 83  1  0  0  0  0
 28 84  1  0  0  0  0
 29 31  2  0  0  0  0
 29 83  1  0  0  0  0
 30 85  1  0  0  0  0
 31 86  1  0  0  0  0
 32 63  2  0  0  0  0
 33 64  1  0  0  0  0
 33 68  1  0  0  0  0
 34 71  1  0  0  0  0
 34 75  2  0  0  0  0
 35 69  1  0  0  0  0
 35 76  2  0  0  0  0
 36 37  1  0  0  0  0
 36 59  1  0  0  0  0
 36 77  2  0  0  0  0
 37 70  1  0  0  0  0
 37 78  2  0  0  0  0
 38 52  1  0  0  0  0
 38 72  1  0  0  0  0
 38 79  2  0  0  0  0
 39 60  1  0  0  0  0
 39 65  1  0  0  0  0
 39 80  2  0  0  0  0
 40 61  1  0  0  0  0
 40 73  1  0  0  0  0
 40 81  2  0  0  0  0
 41 66  1  0  0  0  0
 41 71  1  0  0  0  0
 41 82  2  0  0  0  0
 42 45  1  0  0  0  0
 43 52  1  0  0  0  0
 44 65  1  0  0  0  0
 45 47  1  0  0  0  0
 46 48  1  0  0  0  0
 46 49  1  0  0  0  0
 47 51  1  0  0  0  0
 48 53  1  0  0  0  0
 49 66  1  0  0  0  0
 50 53  1  0  0  0  0
 50 66  1  0  0  0  0
 51 72  1  0  0  0  0
 52 65  1  0  0  0  0
 53 64  1  0  0  0  0
 54 61  1  0  0  0  0
 55 62  1  0  0  0  0
 56 62  1  0  0  0  0
 57 62  1  0  0  0  0
 58 74  1  0  0  0  0
 59 84  1  0  0  0  0
 60 62  1  0  0  0  0
 60 73  1  0  0  0  0
 61 74  1  0  0  0  0
 63 64  1  0  0  0  0
M  CHG  1  74   1
M  ISO  4  41 100  59 101  71 100  84 101
M  END
> <Batch ID>
0092

> <Smiles>
CNC(C)C(=O)NC(C(=O)N1Cc2cc([101O:1][101CH2:1]C(=O)C(=O)Nc3ccc(N)c(C(=O)[100NH:0][100C:0](=O)N4CCCC(n5nc(-c6ccc(Oc7ccc(F)cc7F)cc6)c(C(N)=O)c5N)C4)c3)ccc2CC1C(=O)NC1CCCc2ccccc21)C(C)(C)C

> <Shape>
0.237

> <Color>
0.057

> <Negative vol penalty>
0.000

$$$$

  -OEChem-04052300343D

 88 97  0     1  0  0  0  0  0999 V2000
  -14.9647  -20.3551   24.4501 C   0  0  0  0  0  0  0  0  0  0  0  0
  -16.3475  -20.4672   24.3466 C   0  0  0  0  0  0  0  0  0  0  0  0
  -23.0897   -9.7734   19.9270 C   0  0  0  0  0  0  0  0  0  0  0  0
  -23.8404   -9.7964   22.2233 C   0  0  0  0  0  0  0  0  0  0  0  0
  -14.1412  -21.2642   23.7875 C   0  0  0  0  0  0  0  0  0  0  0  0
  -16.9076  -21.4880   23.5794 C   0  0  0  0  0  0  0  0  0  0  0  0
  -20.7698  -23.7807   25.9187 C   0  0  0  0  0  0  0  0  0  0  0  0
  -22.3429   -8.6234   20.1826 C   0  0  0  0  0  0  0  0  0  0  0  0
  -23.0936   -8.6463   22.4790 C   0  0  0  0  0  0  0  0  0  0  0  0
  -21.9967  -23.1186   25.9203 C   0  0  0  0  0  0  0  0  0  0  0  0
  -21.0988   -5.9225   23.8280 C   0  0  0  0  0  0  0  0  0  0  0  0
  -20.3378   -5.8889   24.9964 C   0  0  0  0  0  0  0  0  0  0  0  0
  -22.7479  -24.5188   24.1053 C   0  0  0  0  0  0  0  0  0  0  0  0
  -28.5519  -19.6247   22.9499 C   0  0  0  0  0  0  0  0  0  0  0  0
  -26.8313  -21.4704   26.7047 C   0  0  0  0  0  0  0  0  0  0  0  0
  -28.9193  -18.1671   24.8413 C   0  0  0  0  0  0  0  0  0  0  0  0
  -19.0993   -7.8227   24.2454 C   0  0  0  0  0  0  0  0  0  0  0  0
  -23.8385  -10.3599   20.9474 C   0  0  0  0  0  0  0  0  0  0  0  0
  -24.1849  -12.8836   20.8098 C   0  0  0  0  0  0  0  0  0  0  0  0
  -14.6916  -22.3025   23.0196 C   0  0  0  0  0  0  0  0  0  0  0  0
  -20.5184  -24.8113   25.0015 C   0  0  0  0  0  0  0  0  0  0  0  0
  -16.0907  -22.4111   22.9048 C   0  0  0  0  0  0  0  0  0  0  0  0
  -21.5179  -25.1942   24.0957 C   0  0  0  0  0  0  0  0  0  0  0  0
  -29.3655  -18.8093   22.1633 C   0  0  0  0  0  0  0  0  0  0  0  0
  -25.7436  -21.2339   25.8282 C   0  0  0  0  0  0  0  0  0  0  0  0
  -29.9560  -17.6726   22.7157 C   0  0  0  0  0  0  0  0  0  0  0  0
  -28.3289  -19.3037   24.2889 C   0  0  0  0  0  0  0  0  0  0  0  0
  -29.7329  -17.3516   24.0547 C   0  0  0  0  0  0  0  0  0  0  0  0
  -22.3448   -8.0599   21.4586 C   0  0  0  0  0  0  0  0  0  0  0  0
  -22.9850  -23.4857   25.0116 C   0  0  0  0  0  0  0  0  0  0  0  0
  -20.8602   -6.9062   22.8682 C   0  0  0  0  0  0  0  0  0  0  0  0
  -19.3380   -6.8390   25.2051 C   0  0  0  0  0  0  0  0  0  0  0  0
  -19.8604   -7.8563   23.0769 C   0  0  0  0  0  0  0  0  0  0  0  0
  -24.6105  -11.5476   20.6838 C   0  0  0  0  0  0  0  0  0  0  0  0
  -26.1932  -20.3964   24.8314 C   0  0  0  0  0  0  0  0  0  0  0  0
  -25.2797  -13.6285   20.4454 C   0  0  0  0  0  0  0  0  0  0  0  0
  -27.9125  -20.7704   26.2166 C   0  0  0  0  0  0  0  0  0  0  0  0
  -22.9136  -13.4045   21.2198 C   0  0  0  0  0  0  0  0  0  0  0  0
  -18.4327  -25.2572   22.6446 C   0  0  0  0  0  0  0  0  0  0  0  0
  -19.7512  -28.2198   22.5620 C   0  0  0  0  0  0  0  0  0  0  0  0
  -22.4324  -30.2178   23.2447 C   0  0  0  0  0  0  0  0  0  0  0  0
  -30.7643  -14.6402   20.6482 C   0  0  0  0  0  0  0  0  0  0  0  0
  -13.7606  -23.2328   22.2831 C   0  0  0  0  0  0  0  0  0  0  0  0
  -19.1993  -25.5336   25.0304 C   0  0  0  0  0  0  0  0  0  0  0  0
  -21.3053  -26.3077   23.1041 C   0  0  0  0  0  0  0  0  0  0  0  0
  -14.4374  -24.5109   21.7946 C   0  0  0  0  0  0  0  0  0  0  0  0
  -29.6324  -12.2397   18.2748 C   0  0  0  0  0  0  0  0  0  0  0  0
  -15.7663  -24.1868   21.1194 C   0  0  0  0  0  0  0  0  0  0  0  0
  -28.1928  -11.9515   18.7041 C   0  0  0  0  0  0  0  0  0  0  0  0
  -30.5451  -12.4680   19.4777 C   0  0  0  0  0  0  0  0  0  0  0  0
  -28.6390  -13.2125   20.8511 C   0  0  0  0  0  0  0  0  0  0  0  0
  -16.7362  -23.5198   22.1021 C   0  0  1  0  0  0  0  0  0  0  0  0
  -18.8666  -26.2230   23.7108 C   0  0  1  0  0  0  0  0  0  0  0  0
  -27.6693  -13.0307   19.6709 C   0  0  2  0  0  0  0  0  0  0  0  0
  -29.5875  -19.1749   20.7323 C   0  0  0  0  0  0  0  0  0  0  0  0
  -25.4680  -19.8397   23.6671 C   0  0  0  0  0  0  0  0  0  0  0  0
  -23.2287  -32.5878   23.0288 C   0  0  0  0  0  0  0  0  0  0  0  0
  -20.2489  -27.7788   19.5841 C   0  0  0  0  0  0  0  0  0  0  0  0
  -21.8497  -29.7031   19.6378 C   0  0  0  0  0  0  0  0  0  0  0  0
  -19.4424  -30.0702   20.1789 C   0  0  0  0  0  0  0  0  0  0  0  0
  -22.7153  -30.5122   26.1759 C   0  0  0  0  0  0  0  0  0  0  0  0
  -30.8287  -16.7998   21.8692 C   0  0  0  0  0  0  0  0  0  0  0  0
  -24.3599  -21.7972   25.9680 C   0  0  0  0  0  0  0  0  0  1  0  0
  -20.9136  -28.8528   21.8360 C   0  0  1  0  0  0  0  0  0  0  0  0
  -22.5324  -31.5727   23.9219 C   0  0  2  0  0  0  0  0  0  0  0  0
  -20.6173  -29.0789   20.3265 C   0  0  0  0  0  0  0  0  0  0  0  0
  -25.8769  -11.4466   20.2714 N   0  0  0  0  0  0  0  0  0  0  0  0
  -27.5131  -20.1215   25.0775 N   0  0  0  0  0  0  0  0  0  0  0  0
  -26.2564  -12.7286   20.1350 N   0  0  0  0  0  0  0  0  0  0  0  0
  -19.9967  -26.9793   23.1675 N   0  0  0  0  0  0  0  0  0  0  0  0
  -29.9927  -13.5040   20.3537 N   0  0  0  0  0  0  0  0  0  0  0  0
  -30.3218  -16.2051   24.6324 N   0  0  0  0  0  0  0  0  0  0  0  0
  -25.4926  -14.9591   20.3632 N   0  0  0  0  0  0  0  0  0  0  0  0
  -21.8988  -12.4995   21.5597 N   0  0  0  0  0  0  0  0  0  0  0  0
  -17.3222  -24.5076   22.9827 N   0  0  0  0  0  0  0  0  0  0  0  0
  -21.2389  -30.0709   22.5700 N   0  0  0  0  0  0  0  0  0  0  0  0
  -30.1633  -15.5762   21.4809 N   0  0  0  0  0  0  0  0  0  0  0  0
  -23.3010  -31.4606   25.1938 N   0  3  0  0  0  0  0  0  0  0  0  0
  -22.6791  -14.6359   21.2669 O   0  0  0  0  0  0  0  0  0  0  0  0
  -19.0582  -25.1977   21.5925 O   0  0  0  0  0  0  0  0  0  0  0  0
  -18.6674  -28.8078   22.5969 O   0  0  0  0  0  0  0  0  0  0  0  0
  -23.3254  -29.3755   23.3048 O   0  0  0  0  0  0  0  0  0  0  0  0
  -31.9024  -14.8104   20.1979 O   0  0  0  0  0  0  0  0  0  0  0  0
  -29.1531  -20.6703   26.6787 O   0  0  0  0  0  0  0  0  0  0  0  0
  -21.6161   -6.9378   21.7084 O   0  0  0  0  0  0  0  0  0  0  0  0
  -24.1832  -22.8406   25.0106 O   0  0  0  0  0  0  0  0  0  1  0  0
  -18.6062   -6.8056   26.3265 F   0  0  0  0  0  0  0  0  0  0  0  0
  -19.6257   -8.8030   22.1580 F   0  0  0  0  0  0  0  0  0  0  0  0
  1  2  1  0  0  0  0
  1  5  2  0  0  0  0
  2  6  2  0  0  0  0
  3  8  2  0  0  0  0
  3 18  1  0  0  0  0
  4  9  1  0  0  0  0
  4 18  2  0  0  0  0
  5 20  1  0  0  0  0
  6 22  1  0  0  0  0
  7 10  2  0  0  0  0
  7 21  1  0  0  0  0
  8 29  1  0  0  0  0
  9 29  2  0  0  0  0
 10 30  1  0  0  0  0
 11 12  2  0  0  0  0
 11 31  1  0  0  0  0
 12 32  1  0  0  0  0
 13 23  1  0  0  0  0
 13 30  2  0  0  0  0
 14 24  2  0  0  0  0
 14 27  1  0  0  0  0
 15 25  1  0  0  0  0
 15 37  2  0  0  0  0
 16 27  2  0  0  0  0
 16 28  1  0  0  0  0
 17 32  2  0  0  0  0
 17 33  1  0  0  0  0
 18 34  1  0  0  0  0
 19 34  1  0  0  0  0
 19 36  2  0  0  0  0
 19 38  1  0  0  0  0
 20 22  2  0  0  0  0
 20 43  1  0  0  0  0
 21 23  2  0  0  0  0
 21 44  1  0  0  0  0
 22 52  1  0  0  0  0
 23 45  1  0  0  0  0
 24 26  1  0  0  0  0
 24 55  1  0  0  0  0
 25 35  2  0  0  0  0
 25 63  1  0  0  0  0
 26 28  2  0  0  0  0
 26 62  1  0  0  0  0
 27 68  1  0  0  0  0
 28 72  1  0  0  0  0
 29 85  1  0  0  0  0
 30 86  1  0  0  0  0
 31 33  2  0  0  0  0
 31 85  1  0  0  0  0
 32 87  1  0  0  0  0
 33 88  1  0  0  0  0
 34 67  2  0  0  0  0
 35 56  1  0  0  0  0
 35 68  1  0  0  0  0
 36 69  1  0  0  0  0
 36 73  1  0  0  0  0
 37 68  1  0  0  0  0
 37 84  1  0  0  0  0
 38 74  1  0  0  0  0
 38 79  2  0  0  0  0
 39 53  1  0  0  0  0
 39 75  1  0  0  0  0
 39 80  2  0  0  0  0
 40 64  1  0  0  0  0
 40 70  1  0  0  0  0
 40 81  2  0  0  0  0
 41 65  1  0  0  0  0
 41 76  1  0  0  0  0
 41 82  2  0  0  0  0
 42 71  1  0  0  0  0
 42 77  1  0  0  0  0
 42 83  2  0  0  0  0
 43 46  1  0  0  0  0
 44 53  1  0  0  0  0
 45 70  1  0  0  0  0
 46 48  1  0  0  0  0
 47 49  1  0  0  0  0
 47 50  1  0  0  0  0
 48 52  1  0  0  0  0
 49 54  1  0  0  0  0
 50 71  1  0  0  0  0
 51 54  1  0  0  0  0
 51 71  1  0  0  0  0
 52 75  1  0  0  0  0
 53 70  1  0  0  0  0
 54 69  1  0  0  0  0
 57 65  1  0  0  0  0
 58 66  1  0  0  0  0
 59 66  1  0  0  0  0
 60 66  1  0  0  0  0
 61 78  1  0  0  0  0
 62 77  1  0  0  0  0
 63 86  1  0  0  0  0
 64 66  1  0  0  0  0
 64 76  1  0  0  0  0
 65 78  1  0  0  0  0
 67 69  1  0  0  0  0
M  CHG  1  78   1
M  ISO  4  42 100  63 101  77 100  86 101
M  END
> <Batch ID>
0092

> <Smiles>
CNC(C)C(=O)NC(C(=O)N1Cc2cc([101O:1][101CH2:1]C3=C(C)N(c4cc(C)c(C[100NH:0][100C:0](=O)N5CCCC(n6nc(-c7ccc(Oc8ccc(F)cc8F)cc7)c(C(N)=O)c6N)C5)c(N)c4)C(=O)C3)ccc2CC1C(=O)NC1CCCc2ccccc21)C(C)(C)C

> <Shape>
0.246

> <Color>
0.209

> <Negative vol penalty>
0.000

$$$$

  -OEChem-04052300343D

 84 92  0     1  0  0  0  0  0999 V2000
  -24.6709  -37.1973   18.7994 C   0  0  0  0  0  0  0  0  0  0  0  0
  -25.3806  -36.0335   18.5212 C   0  0  0  0  0  0  0  0  0  0  0  0
  -23.8285   -8.9561   19.9868 C   0  0  0  0  0  0  0  0  0  0  0  0
  -23.1828  -10.7346   21.4891 C   0  0  0  0  0  0  0  0  0  0  0  0
  -24.1792  -37.4222   20.0846 C   0  0  0  0  0  0  0  0  0  0  0  0
  -25.6000  -35.0944   19.5284 C   0  0  0  0  0  0  0  0  0  0  0  0
  -25.8242  -29.0066   18.9003 C   0  0  0  0  0  0  0  0  0  0  0  0
  -30.4756  -19.8151   20.2272 C   0  0  0  0  0  0  0  0  0  0  0  0
  -30.4110  -18.4231   20.1651 C   0  0  0  0  0  0  0  0  0  0  0  0
  -22.9717   -8.0810   20.6544 C   0  0  0  0  0  0  0  0  0  0  0  0
  -22.3259   -9.8595   22.1567 C   0  0  0  0  0  0  0  0  0  0  0  0
  -26.8891  -28.1139   18.7871 C   0  0  0  0  0  0  0  0  0  0  0  0
  -19.6571   -7.4178   20.7353 C   0  0  0  0  0  0  0  0  0  0  0  0
  -18.8424   -6.5916   19.9611 C   0  0  0  0  0  0  0  0  0  0  0  0
  -26.7718  -27.6828   21.1577 C   0  0  0  0  0  0  0  0  0  0  0  0
  -28.4193  -19.9667   18.9679 C   0  0  0  0  0  0  0  0  0  0  0  0
  -19.8661   -4.6451   20.9612 C   0  0  0  0  0  0  0  0  0  0  0  0
  -23.9341  -10.2828   20.4042 C   0  0  0  0  0  0  0  0  0  0  0  0
  -24.5091  -12.0058   18.6130 C   0  0  0  0  0  0  0  0  0  0  0  0
  -24.3844  -36.4809   21.1056 C   0  0  0  0  0  0  0  0  0  0  0  0
  -25.2312  -29.2528   20.1470 C   0  0  0  0  0  0  0  0  0  0  0  0
  -25.1118  -35.3076   20.8288 C   0  0  0  0  0  0  0  0  0  0  0  0
  -25.6978  -28.5772   21.2836 C   0  0  0  0  0  0  0  0  0  0  0  0
  -29.4797  -20.5869   19.6286 C   0  0  0  0  0  0  0  0  0  0  0  0
  -29.3506  -17.8029   19.5044 C   0  0  0  0  0  0  0  0  0  0  0  0
  -22.2203   -8.5327   21.7393 C   0  0  0  0  0  0  0  0  0  0  0  0
  -27.3650  -27.4541   19.9164 C   0  0  0  0  0  0  0  0  0  0  0  0
  -20.5764   -6.8576   21.6224 C   0  0  0  0  0  0  0  0  0  0  0  0
  -18.9469   -5.2053   20.0741 C   0  0  0  0  0  0  0  0  0  0  0  0
  -28.3547  -18.5747   18.9058 C   0  0  0  0  0  0  0  0  0  0  0  0
  -20.6809   -5.4713   21.7353 C   0  0  0  0  0  0  0  0  0  0  0  0
  -24.8195  -11.1871   19.7154 C   0  0  0  0  0  0  0  0  0  0  0  0
  -25.6807  -12.6668   18.3355 C   0  0  0  0  0  0  0  0  0  0  0  0
  -28.1204  -25.2696   19.5583 C   0  0  0  0  0  0  0  0  0  1  0  0
  -23.2723  -12.1556   17.9034 C   0  0  0  0  0  0  0  0  0  0  0  0
  -29.0635  -24.3280   19.4334 C   0  0  0  0  0  0  0  0  0  0  0  0
  -28.6476  -22.9141   19.1573 C   0  0  0  0  0  0  0  0  0  0  0  0
  -24.8891  -31.8110   22.0023 C   0  0  0  0  0  0  0  0  0  0  0  0
  -23.0670  -29.7978   23.7770 C   0  0  0  0  0  0  0  0  0  0  0  0
  -22.3186  -26.5883   24.6634 C   0  0  0  0  0  0  0  0  0  0  0  0
  -30.1952  -15.4785   19.9839 C   0  0  0  0  0  0  0  0  0  0  0  0
  -23.8746  -36.7899   22.4910 C   0  0  0  0  0  0  0  0  0  0  0  0
  -24.0659  -30.1985   20.2479 C   0  0  0  0  0  0  0  0  0  0  0  0
  -25.0826  -28.7910   22.6416 C   0  0  0  0  0  0  0  0  0  0  0  0
  -23.8273  -35.5709   23.4086 C   0  0  0  0  0  0  0  0  0  0  0  0
  -30.3744  -11.9237   20.0789 C   0  0  0  0  0  0  0  0  0  0  0  0
  -25.1275  -34.7792   23.3120 C   0  0  0  0  0  0  0  0  0  0  0  0
  -28.9196  -11.4826   19.9021 C   0  0  0  0  0  0  0  0  0  0  0  0
  -30.4834  -13.1946   20.9197 C   0  0  0  0  0  0  0  0  0  0  0  0
  -28.2044  -13.8769   20.2796 C   0  0  0  0  0  0  0  0  0  0  0  0
  -25.3489  -34.2536   21.8885 C   0  0  1  0  0  0  0  0  0  0  0  0
  -23.8727  -30.7610   21.6527 C   0  0  1  0  0  0  0  0  0  0  0  0
  -28.0394  -12.6374   19.3852 C   0  0  2  0  0  0  0  0  0  0  0  0
  -20.8086  -25.2604   26.1647 C   0  0  0  0  0  0  0  0  0  0  0  0
  -24.7954  -30.5496   26.1765 C   0  0  0  0  0  0  0  0  0  0  0  0
  -23.8889  -28.5439   27.3697 C   0  0  0  0  0  0  0  0  0  0  0  0
  -22.3491  -30.3762   26.6664 C   0  0  0  0  0  0  0  0  0  0  0  0
  -21.0621  -25.2045   22.3688 C   0  0  0  0  0  0  0  0  0  0  0  0
  -23.3294  -28.8400   24.9140 C   0  0  1  0  0  0  0  0  0  0  0  0
  -20.9927  -25.8582   24.7785 C   0  0  2  0  0  0  0  0  0  0  0  0
  -23.6038  -29.5746   26.2565 C   0  0  0  0  0  0  0  0  0  0  0  0
  -26.0888  -11.3145   20.1110 N   0  0  0  0  0  0  0  0  0  0  0  0
  -26.5864  -12.2209   19.2526 N   0  0  0  0  0  0  0  0  0  0  0  0
  -23.9498  -29.7301   22.6899 N   0  0  0  0  0  0  0  0  0  0  0  0
  -29.6260  -14.2459   20.3679 N   0  0  0  0  0  0  0  0  0  0  0  0
  -26.0142  -13.5800   17.3989 N   0  0  0  0  0  0  0  0  0  0  0  0
  -22.1672  -11.4011   18.3203 N   0  0  0  0  0  0  0  0  0  0  0  0
  -29.5455  -21.9998   19.6910 N   0  0  0  0  0  0  0  0  0  0  0  0
  -29.2880  -16.3887   19.4425 N   0  0  0  0  0  0  0  0  0  0  0  0
  -24.5195  -33.0932   21.6435 N   0  0  0  0  0  0  0  0  0  0  0  0
  -22.1895  -27.9303   24.9527 N   0  0  0  0  0  0  0  0  0  0  0  0
  -20.9196  -24.7562   23.7780 N   0  3  0  0  0  0  0  0  0  0  0  0
  -23.1552  -12.9231   16.9182 O   0  0  0  0  0  0  0  0  0  0  0  0
  -27.6235  -22.6700   18.5285 O   0  0  0  0  0  0  0  0  0  0  0  0
  -25.9307  -31.4824   22.5579 O   0  0  0  0  0  0  0  0  0  0  0  0
  -22.1097  -30.5725   23.8477 O   0  0  0  0  0  0  0  0  0  0  0  0
  -23.3650  -26.0238   24.3520 O   0  0  0  0  0  0  0  0  0  0  0  0
  -31.4034  -15.6995   20.0996 O   0  0  0  0  0  0  0  0  0  0  0  0
  -30.4103  -24.6067   19.5476 O   0  0  0  0  0  0  0  0  0  0  0  0
  -21.3839   -7.6792   22.3908 O   0  0  0  0  0  0  0  0  0  0  0  0
  -28.4047  -26.5827   19.8088 O   0  0  0  0  0  0  0  0  0  1  0  0
  -18.1634   -4.4120   19.3317 F   0  0  0  0  0  0  0  0  0  0  0  0
  -27.3316  -17.9895   18.2667 F   0  0  0  0  0  0  0  0  0  0  0  0
  -21.5613   -4.9273   22.5866 F   0  0  0  0  0  0  0  0  0  0  0  0
  1  2  1  0  0  0  0
  1  5  2  0  0  0  0
  2  6  2  0  0  0  0
  3 10  2  0  0  0  0
  3 18  1  0  0  0  0
  4 11  1  0  0  0  0
  4 18  2  0  0  0  0
  5 20  1  0  0  0  0
  6 22  1  0  0  0  0
  7 12  2  0  0  0  0
  7 21  1  0  0  0  0
  8  9  2  0  0  0  0
  8 24  1  0  0  0  0
  9 25  1  0  0  0  0
 10 26  1  0  0  0  0
 11 26  2  0  0  0  0
 12 27  1  0  0  0  0
 13 14  2  0  0  0  0
 13 28  1  0  0  0  0
 14 29  1  0  0  0  0
 15 23  1  0  0  0  0
 15 27  2  0  0  0  0
 16 24  2  0  0  0  0
 16 30  1  0  0  0  0
 17 29  2  0  0  0  0
 17 31  1  0  0  0  0
 18 32  1  0  0  0  0
 19 32  1  0  0  0  0
 19 33  2  0  0  0  0
 19 35  1  0  0  0  0
 20 22  2  0  0  0  0
 20 42  1  0  0  0  0
 21 23  2  0  0  0  0
 21 43  1  0  0  0  0
 22 51  1  0  0  0  0
 23 44  1  0  0  0  0
 24 68  1  0  0  0  0
 25 30  2  0  0  0  0
 25 69  1  0  0  0  0
 26 80  1  0  0  0  0
 27 81  1  0  0  0  0
 28 31  2  0  0  0  0
 28 80  1  0  0  0  0
 29 82  1  0  0  0  0
 30 83  1  0  0  0  0
 31 84  1  0  0  0  0
 32 62  2  0  0  0  0
 33 63  1  0  0  0  0
 33 66  1  0  0  0  0
 34 36  2  0  0  0  0
 34 81  1  0  0  0  0
 35 67  1  0  0  0  0
 35 73  2  0  0  0  0
 36 37  1  0  0  0  0
 36 79  1  0  0  0  0
 37 68  1  0  0  0  0
 37 74  2  0  0  0  0
 38 52  1  0  0  0  0
 38 70  1  0  0  0  0
 38 75  2  0  0  0  0
 39 59  1  0  0  0  0
 39 64  1  0  0  0  0
 39 76  2  0  0  0  0
 40 60  1  0  0  0  0
 40 71  1  0  0  0  0
 40 77  2  0  0  0  0
 41 65  1  0  0  0  0
 41 69  1  0  0  0  0
 41 78  2  0  0  0  0
 42 45  1  0  0  0  0
 43 52  1  0  0  0  0
 44 64  1  0  0  0  0
 45 47  1  0  0  0  0
 46 48  1  0  0  0  0
 46 49  1  0  0  0  0
 47 51  1  0  0  0  0
 48 53  1  0  0  0  0
 49 65  1  0  0  0  0
 50 53  1  0  0  0  0
 50 65  1  0  0  0  0
 51 70  1  0  0  0  0
 52 64  1  0  0  0  0
 53 63  1  0  0  0  0
 54 60  1  0  0  0  0
 55 61  1  0  0  0  0
 56 61  1  0  0  0  0
 57 61  1  0  0  0  0
 58 72  1  0  0  0  0
 59 61  1  0  0  0  0
 59 71  1  0  0  0  0
 60 72  1  0  0  0  0
 62 63  1  0  0  0  0
M  CHG  1  72   1
M  ISO  4  34 101  41 100  69 100  81 101
M  END
> <Batch ID>
0092

> <Smiles>
CNC(C)C(=O)NC(C(=O)N1Cc2cc([101O:1][101CH2:1]C(=O)C(=O)Nc3ccc([100NH:0][100C:0](=O)N4CCCC(n5nc(-c6ccc(Oc7ccc(F)cc7F)cc6)c(C(N)=O)c5N)C4)c(F)c3)ccc2CC1C(=O)NC1CCCc2ccccc21)C(C)(C)C

> <Shape>
0.275

> <Color>
0.106

> <Negative vol penalty>
0.000

$$$$

  -OEChem-04052300343D

 86 94  0     1  0  0  0  0  0999 V2000
  -21.0663  -30.3369   22.0513 C   0  0  0  0  0  0  0  0  0  0  0  0
  -21.0015  -29.4776   20.9591 C   0  0  0  0  0  0  0  0  0  0  0  0
  -22.0401  -18.5577   18.9341 C   0  0  0  0  0  0  0  0  0  0  0  0
  -23.4896  -17.4402   17.3570 C   0  0  0  0  0  0  0  0  0  0  0  0
  -22.2753  -30.9441   22.3883 C   0  0  0  0  0  0  0  0  0  0  0  0
  -22.1455  -29.2260   20.2025 C   0  0  0  0  0  0  0  0  0  0  0  0
  -24.6725  -22.5261   19.4172 C   0  0  0  0  0  0  0  0  0  0  0  0
  -21.3701  -19.1773   17.8793 C   0  0  0  0  0  0  0  0  0  0  0  0
  -22.8196  -18.0598   16.3021 C   0  0  0  0  0  0  0  0  0  0  0  0
  -25.0973  -21.2502   19.0460 C   0  0  0  0  0  0  0  0  0  0  0  0
  -19.9222  -17.6517   14.6112 C   0  0  0  0  0  0  0  0  0  0  0  0
  -19.5760  -16.8639   13.5134 C   0  0  0  0  0  0  0  0  0  0  0  0
  -26.9298  -22.2126   17.7954 C   0  0  0  0  0  0  0  0  0  0  0  0
  -20.9108  -18.2769   12.0786 C   0  0  0  0  0  0  0  0  0  0  0  0
  -23.0999  -17.6891   18.6730 C   0  0  0  0  0  0  0  0  0  0  0  0
  -23.4837  -15.8105   20.3556 C   0  0  0  0  0  0  0  0  0  0  0  0
  -23.4368  -30.6923   21.6412 C   0  0  0  0  0  0  0  0  0  0  0  0
  -25.3845  -23.6507   18.9910 C   0  0  0  0  0  0  0  0  0  0  0  0
  -23.3708  -29.8315   20.5290 C   0  0  0  0  0  0  0  0  0  0  0  0
  -26.5162  -23.4925   18.1742 C   0  0  0  0  0  0  0  0  0  0  0  0
  -21.7598  -18.9284   16.5633 C   0  0  0  0  0  0  0  0  0  0  0  0
  -26.2230  -21.0939   18.2369 C   0  0  0  0  0  0  0  0  0  0  0  0
  -20.7627  -18.7521   14.4427 C   0  0  0  0  0  0  0  0  0  0  0  0
  -20.0703  -17.1765   12.2471 C   0  0  0  0  0  0  0  0  0  0  0  0
  -21.2570  -19.0647   13.1764 C   0  0  0  0  0  0  0  0  0  0  0  0
  -23.7928  -17.0491   19.7622 C   0  0  0  0  0  0  0  0  0  0  0  0
  -24.4319  -15.6537   21.3368 C   0  0  0  0  0  0  0  0  0  0  0  0
  -30.8677  -17.8335   18.2694 C   0  0  0  0  0  0  0  0  0  0  0  0
  -30.7639  -18.1927   19.5561 C   0  0  0  0  0  0  0  0  0  0  0  0
  -30.3727  -16.6314   17.6106 C   0  0  0  0  0  0  0  0  0  0  0  0
  -30.3868  -15.4176   18.1979 C   0  0  0  0  0  0  0  0  0  0  0  0
  -30.8713  -15.3227   19.5891 C   0  0  0  0  0  0  0  0  0  0  0  0
  -30.1376  -16.0842   20.6444 C   0  0  0  0  0  0  0  0  0  0  0  0
  -22.4335  -14.8844   20.0472 C   0  0  0  0  0  0  0  0  0  0  0  0
  -25.7031  -27.3888   19.0302 C   0  0  0  0  0  0  0  0  0  0  0  0
  -28.1195  -18.2889   16.7666 C   0  0  0  0  0  0  0  0  0  0  0  0
  -28.5412  -26.2500   19.2733 C   0  0  0  0  0  0  0  0  0  0  0  0
  -31.4501  -24.6003   19.9470 C   0  0  0  0  0  0  0  0  0  0  0  0
  -29.9725  -18.1843   21.8011 C   0  0  0  0  0  0  0  0  0  0  0  0
  -24.7101  -31.4087   22.0154 C   0  0  0  0  0  0  0  0  0  0  0  0
  -24.9276  -25.0470   19.3157 C   0  0  0  0  0  0  0  0  0  0  0  0
  -27.2309  -24.7324   17.7110 C   0  0  0  0  0  0  0  0  0  0  0  0
  -25.9601  -30.7971   21.3880 C   0  0  0  0  0  0  0  0  0  0  0  0
  -27.2489  -18.1477   24.2792 C   0  0  0  0  0  0  0  0  0  0  0  0
  -25.7330  -30.5218   19.9049 C   0  0  0  0  0  0  0  0  0  0  0  0
  -26.0180  -17.8251   23.4346 C   0  0  0  0  0  0  0  0  0  0  0  0
  -28.2986  -18.9117   23.4782 C   0  0  0  0  0  0  0  0  0  0  0  0
  -27.4799  -17.8892   21.3719 C   0  0  0  0  0  0  0  0  0  0  0  0
  -24.5956  -29.5142   19.6987 C   0  0  1  0  0  0  0  0  0  0  0  0
  -26.0934  -26.0289   19.5302 C   0  0  1  0  0  0  0  0  0  0  0  0
  -26.4196  -17.0897   22.1452 C   0  0  2  0  0  0  0  0  0  0  0  0
  -28.9786  -17.9629   14.4378 C   0  0  0  0  0  0  0  0  0  0  0  0
  -33.8868  -25.0048   20.3902 C   0  0  0  0  0  0  0  0  0  0  0  0
  -28.9882  -26.7878   16.3043 C   0  0  0  0  0  0  0  0  0  0  0  0
  -31.4076  -26.2398   16.6419 C   0  0  0  0  0  0  0  0  0  0  0  0
  -30.3907  -28.1775   17.8393 C   0  0  0  0  0  0  0  0  0  0  0  0
  -31.2836  -23.3743   22.6355 C   0  0  0  0  0  0  0  0  0  0  0  0
  -27.7853  -19.7404   17.0579 C   0  0  0  0  0  0  0  0  0  1  0  0
  -29.3520  -18.0396   15.9086 C   0  0  2  0  0  0  0  0  0  0  0  0
  -29.7998  -25.8269   18.5590 C   0  0  1  0  0  0  0  0  0  0  0  0
  -32.5105  -24.8211   21.0106 C   0  0  2  0  0  0  0  0  0  0  0  0
  -30.1264  -26.7392   17.3431 C   0  0  0  0  0  0  0  0  0  0  0  0
  -24.8542  -17.6375   20.3201 N   0  0  0  0  0  0  0  0  0  0  0  0
  -25.2203  -16.7649   21.2743 N   0  0  0  0  0  0  0  0  0  0  0  0
  -30.2064  -17.4777   20.6057 N   0  0  0  0  0  0  0  0  0  0  0  0
  -27.3390  -25.6938   18.8195 N   0  0  0  0  0  0  0  0  0  0  0  0
  -28.6287  -18.2260   22.2281 N   0  0  0  0  0  0  0  0  0  0  0  0
  -24.6598  -14.6752   22.2385 N   0  0  0  0  0  0  0  0  0  0  0  0
  -30.0343  -14.2279   17.6306 N   0  0  0  0  0  0  0  0  0  0  0  0
  -21.5469  -15.2011   19.0090 N   0  0  0  0  0  0  0  0  0  0  0  0
  -29.9603  -16.8080   16.3115 N   0  0  0  0  0  0  0  0  0  0  0  0
  -25.0566  -28.1693   19.9695 N   0  0  0  0  0  0  0  0  0  0  0  0
  -30.8489  -25.7832   19.5720 N   0  0  0  0  0  0  0  0  0  0  0  0
  -32.5647  -23.6556   21.9378 N   0  3  0  0  0  0  0  0  0  0  0  0
  -31.7731  -14.5776   19.9428 O   0  0  0  0  0  0  0  0  0  0  0  0
  -29.5880  -15.3885   21.4927 O   0  0  0  0  0  0  0  0  0  0  0  0
  -22.2758  -13.8155   20.6846 O   0  0  0  0  0  0  0  0  0  0  0  0
  -25.9698  -27.7082   17.8776 O   0  0  0  0  0  0  0  0  0  0  0  0
  -27.4213  -17.3700   17.1959 O   0  0  0  0  0  0  0  0  0  0  0  0
  -28.6182  -27.0559   20.2049 O   0  0  0  0  0  0  0  0  0  0  0  0
  -31.1845  -23.4901   19.4916 O   0  0  0  0  0  0  0  0  0  0  0  0
  -30.8956  -18.7044   22.4381 O   0  0  0  0  0  0  0  0  0  0  0  0
  -21.1061  -19.5327   15.5337 O   0  0  0  0  0  0  0  0  0  0  0  0
  -26.6391  -19.8326   17.8784 O   0  0  0  0  0  0  0  0  0  1  0  0
  -19.7390  -16.4190   11.1932 F   0  0  0  0  0  0  0  0  0  0  0  0
  -22.0658  -20.1199   13.0085 F   0  0  0  0  0  0  0  0  0  0  0  0
  1  2  1  0  0  0  0
  1  5  2  0  0  0  0
  2  6  2  0  0  0  0
  3  8  2  0  0  0  0
  3 15  1  0  0  0  0
  4  9  1  0  0  0  0
  4 15  2  0  0  0  0
  5 17  1  0  0  0  0
  6 19  1  0  0  0  0
  7 10  2  0  0  0  0
  7 18  1  0  0  0  0
  8 21  1  0  0  0  0
  9 21  2  0  0  0  0
 10 22  1  0  0  0  0
 11 12  2  0  0  0  0
 11 23  1  0  0  0  0
 12 24  1  0  0  0  0
 13 20  1  0  0  0  0
 13 22  2  0  0  0  0
 14 24  2  0  0  0  0
 14 25  1  0  0  0  0
 15 26  1  0  0  0  0
 16 26  1  0  0  0  0
 16 27  2  0  0  0  0
 16 34  1  0  0  0  0
 17 19  2  0  0  0  0
 17 40  1  0  0  0  0
 18 20  2  0  0  0  0
 18 41  1  0  0  0  0
 19 49  1  0  0  0  0
 20 42  1  0  0  0  0
 21 83  1  0  0  0  0
 22 84  1  0  0  0  0
 23 25  2  0  0  0  0
 23 83  1  0  0  0  0
 24 85  1  0  0  0  0
 25 86  1  0  0  0  0
 26 63  2  0  0  0  0
 27 64  1  0  0  0  0
 27 68  1  0  0  0  0
 28 29  2  0  0  0  0
 28 30  1  0  0  0  0
 29 65  1  0  0  0  0
 30 31  2  0  0  0  0
 30 71  1  0  0  0  0
 31 32  1  0  0  0  0
 31 69  1  0  0  0  0
 32 33  1  0  0  0  0
 32 75  2  0  0  0  0
 33 65  1  0  0  0  0
 33 76  2  0  0  0  0
 34 70  1  0  0  0  0
 34 77  2  0  0  0  0
 35 50  1  0  0  0  0
 35 72  1  0  0  0  0
 35 78  2  0  0  0  0
 36 58  1  0  0  0  0
 36 59  1  0  0  0  0
 36 79  2  0  0  0  0
 37 60  1  0  0  0  0
 37 66  1  0  0  0  0
 37 80  2  0  0  0  0
 38 61  1  0  0  0  0
 38 73  1  0  0  0  0
 38 81  2  0  0  0  0
 39 65  1  0  0  0  0
 39 67  1  0  0  0  0
 39 82  2  0  0  0  0
 40 43  1  0  0  0  0
 41 50  1  0  0  0  0
 42 66  1  0  0  0  0
 43 45  1  0  0  0  0
 44 46  1  0  0  0  0
 44 47  1  0  0  0  0
 45 49  1  0  0  0  0
 46 51  1  0  0  0  0
 47 67  1  0  0  0  0
 48 51  1  0  0  0  0
 48 67  1  0  0  0  0
 49 72  1  0  0  0  0
 50 66  1  0  0  0  0
 51 64  1  0  0  0  0
 52 59  1  0  0  0  0
 53 61  1  0  0  0  0
 54 62  1  0  0  0  0
 55 62  1  0  0  0  0
 56 62  1  0  0  0  0
 57 74  1  0  0  0  0
 58 84  1  0  0  0  0
 59 71  1  0  0  0  0
 60 62  1  0  0  0  0
 60 73  1  0  0  0  0
 61 74  1  0  0  0  0
 63 64  1  0  0  0  0
M  CHG  1  74   1
M  ISO  4  39 100  58 101  65 100  84 101
M  END
> <Batch ID>
0092

> <Smiles>
CNC(C)C(=O)NC(C(=O)N1Cc2cc([101O:1][101CH2:1]C(=O)C(C)Nc3cc[100n:0]([100C:0](=O)N4CCCC(n5nc(-c6ccc(Oc7ccc(F)cc7F)cc6)c(C(N)=O)c5N)C4)c(=O)c(=O)c3N)ccc2CC1C(=O)NC1CCCc2ccccc21)C(C)(C)C

> <Shape>
0.170

> <Color>
0.059

> <Negative vol penalty>
0.000

$$$$

  -OEChem-04052300343D

 88 97  0     1  0  0  0  0  0999 V2000
  -28.8010  -11.2107   21.8463 C   0  0  0  0  0  0  0  0  0  0  0  0
  -29.0666  -12.4765   21.3340 C   0  0  0  0  0  0  0  0  0  0  0  0
  -20.4606  -27.2125   23.2439 C   0  0  0  0  0  0  0  0  0  0  0  0
  -19.6904  -29.1146   21.9688 C   0  0  0  0  0  0  0  0  0  0  0  0
  -29.4695  -27.0947   23.1145 C   0  0  0  0  0  0  0  0  0  0  0  0
  -27.5294  -10.6561   21.7067 C   0  0  0  0  0  0  0  0  0  0  0  0
  -28.0610  -13.1881   20.6807 C   0  0  0  0  0  0  0  0  0  0  0  0
  -27.8680  -18.0406   22.1166 C   0  0  0  0  0  0  0  0  0  0  0  0
  -29.7542  -25.9701   22.3400 C   0  0  0  0  0  0  0  0  0  0  0  0
  -19.1394  -26.8152   23.4494 C   0  0  0  0  0  0  0  0  0  0  0  0
  -18.3692  -28.7173   22.1742 C   0  0  0  0  0  0  0  0  0  0  0  0
  -28.8202  -18.9031   21.5751 C   0  0  0  0  0  0  0  0  0  0  0  0
  -15.9822  -25.1009   24.0047 C   0  0  0  0  0  0  0  0  0  0  0  0
  -15.6767  -23.7509   23.8321 C   0  0  0  0  0  0  0  0  0  0  0  0
  -27.1896  -19.6939   19.9829 C   0  0  0  0  0  0  0  0  0  0  0  0
  -31.7331  -27.0605   21.4842 C   0  0  0  0  0  0  0  0  0  0  0  0
  -16.4084  -23.8792   21.5331 C   0  0  0  0  0  0  0  0  0  0  0  0
  -20.7361  -28.3622   22.5036 C   0  0  0  0  0  0  0  0  0  0  0  0
  -30.3165  -28.2023   23.0737 C   0  0  0  0  0  0  0  0  0  0  0  0
  -22.9448  -28.4024   21.2278 C   0  0  0  0  0  0  0  0  0  0  0  0
  -26.5050  -11.3653   21.0598 C   0  0  0  0  0  0  0  0  0  0  0  0
  -26.5704  -17.9903   21.5872 C   0  0  0  0  0  0  0  0  0  0  0  0
  -26.7749  -12.6420   20.5310 C   0  0  0  0  0  0  0  0  0  0  0  0
  -26.2221  -18.8317   20.5211 C   0  0  0  0  0  0  0  0  0  0  0  0
  -30.8861  -25.9530   21.5250 C   0  0  0  0  0  0  0  0  0  0  0  0
  -18.0937  -27.5675   22.9145 C   0  0  0  0  0  0  0  0  0  0  0  0
  -28.4819  -19.7279   20.5063 C   0  0  0  0  0  0  0  0  0  0  0  0
  -16.5008  -25.8400   22.9414 C   0  0  0  0  0  0  0  0  0  0  0  0
  -15.8898  -23.1400   22.5964 C   0  0  0  0  0  0  0  0  0  0  0  0
  -31.4483  -28.1852   22.2586 C   0  0  0  0  0  0  0  0  0  0  0  0
  -16.7139  -25.2292   21.7057 C   0  0  0  0  0  0  0  0  0  0  0  0
  -22.1006  -28.7735   22.2915 C   0  0  0  0  0  0  0  0  0  0  0  0
  -24.1265  -29.0537   21.4840 C   0  0  0  0  0  0  0  0  0  0  0  0
  -30.7977  -23.5121   21.1447 C   0  0  0  0  0  0  0  0  0  0  0  0
  -30.8895  -22.4083   20.3872 C   0  0  0  0  0  0  0  0  0  0  0  0
  -31.8276  -24.9412   19.4704 C   0  0  0  0  0  0  0  0  0  0  0  0
  -30.0076  -29.3989   23.8981 C   0  0  0  0  0  0  0  0  0  0  0  0
  -22.6839  -27.5456   20.1082 C   0  0  0  0  0  0  0  0  0  0  0  0
  -24.8040  -15.7485   20.1880 C   0  0  0  0  0  0  0  0  0  0  0  0
  -22.4892  -18.0143   20.3623 C   0  0  0  0  0  0  0  0  0  0  0  0
  -21.6850  -21.3234   20.5854 C   0  0  0  0  0  0  0  0  0  0  0  0
  -28.1529  -30.6723   24.9287 C   0  0  0  0  0  0  0  0  0  0  0  0
  -25.1595  -10.7051   20.8914 C   0  0  0  0  0  0  0  0  0  0  0  0
  -25.5472  -17.0736   22.1999 C   0  0  0  0  0  0  0  0  0  0  0  0
  -24.8369  -18.8305   19.9297 C   0  0  0  0  0  0  0  0  0  0  0  0
  -31.4618  -22.4815   19.0067 C   0  0  0  0  0  0  0  0  0  0  0  0
  -32.4038  -23.6644   18.8846 C   0  0  0  0  0  0  0  0  0  0  0  0
  -24.0459  -11.6792   20.5155 C   0  0  0  0  0  0  0  0  0  0  0  0
  -25.2359  -32.6679   24.8546 C   0  0  0  0  0  0  0  0  0  0  0  0
  -24.5044  -12.6078   19.3955 C   0  0  0  0  0  0  0  0  0  0  0  0
  -24.2290  -31.8073   24.0866 C   0  0  0  0  0  0  0  0  0  0  0  0
  -26.1240  -31.8237   25.7675 C   0  0  0  0  0  0  0  0  0  0  0  0
  -25.7932  -29.8403   24.3481 C   0  0  0  0  0  0  0  0  0  0  0  0
  -25.7034  -13.4553   19.8377 C   0  0  1  0  0  0  0  0  0  0  0  0
  -24.4036  -16.7343   21.2489 C   0  0  1  0  0  0  0  0  0  0  0  0
  -24.9225  -30.6360   23.3622 C   0  0  1  0  0  0  0  0  0  0  0  0
  -20.2337  -23.3552   20.8358 C   0  0  0  0  0  0  0  0  0  0  0  0
  -22.0689  -17.6371   17.3638 C   0  0  0  0  0  0  0  0  0  0  0  0
  -20.8155  -19.8042   17.3375 C   0  0  0  0  0  0  0  0  0  0  0  0
  -19.9629  -17.8886   18.6889 C   0  0  0  0  0  0  0  0  0  0  0  0
  -21.8576  -21.2256   23.5383 C   0  0  0  0  0  0  0  0  0  0  0  0
  -30.4159  -21.0668   20.8571 C   0  0  0  0  0  0  0  0  0  1  0  0
  -22.0206  -19.1351   19.4660 C   0  0  1  0  0  0  0  0  0  0  0  0
  -20.7118  -22.0652   21.4838 C   0  0  2  0  0  0  0  0  0  0  0  0
  -21.2437  -18.6151   18.2237 C   0  0  0  0  0  0  0  0  0  0  0  0
  -22.6957  -29.5966   23.1590 N   0  0  0  0  0  0  0  0  0  0  0  0
  -23.9263  -29.7480   22.6407 N   0  0  0  0  0  0  0  0  0  0  0  0
  -31.1819  -24.7840   20.7201 N   0  0  0  0  0  0  0  0  0  0  0  0
  -23.8736  -17.9122   20.5592 N   0  0  0  0  0  0  0  0  0  0  0  0
  -26.7509  -30.7432   25.0042 N   0  0  0  0  0  0  0  0  0  0  0  0
  -25.3070  -29.0945   20.8304 N   0  0  0  0  0  0  0  0  0  0  0  0
  -21.4165  -26.9575   19.9979 N   0  0  0  0  0  0  0  0  0  0  0  0
  -28.6533  -29.6296   24.1411 N   0  0  0  0  0  0  0  0  0  0  0  0
  -25.2674  -14.5450   20.6843 N   0  0  0  0  0  0  0  0  0  0  0  0
  -21.2542  -20.0422   20.3135 N   0  0  0  0  0  0  0  0  0  0  0  0
  -21.3604  -22.4037   22.7822 N   0  3  0  0  0  0  0  0  0  0  0  0
  -31.9915  -26.0022   18.8652 O   0  0  0  0  0  0  0  0  0  0  0  0
  -30.9321  -30.0755   24.3401 O   0  0  0  0  0  0  0  0  0  0  0  0
  -23.5544  -27.2955   19.2402 O   0  0  0  0  0  0  0  0  0  0  0  0
  -24.6988  -16.0565   19.0065 O   0  0  0  0  0  0  0  0  0  0  0  0
  -21.6570  -17.2616   20.8747 O   0  0  0  0  0  0  0  0  0  0  0  0
  -22.7218  -21.8312   20.1638 O   0  0  0  0  0  0  0  0  0  0  0  0
  -28.8948  -31.4893   25.4832 O   0  0  0  0  0  0  0  0  0  0  0  0
  -16.8044  -27.1800   23.1146 O   0  0  0  0  0  0  0  0  0  0  0  0
  -29.4096  -20.5703   19.9755 O   0  0  0  0  0  0  0  0  0  1  0  0
  -15.5978  -21.8432   22.4313 F   0  0  0  0  0  0  0  0  0  0  0  0
  -32.2692  -29.2442   22.2113 F   0  0  0  0  0  0  0  0  0  0  0  0
  -17.2130  -25.9338   20.6809 F   0  0  0  0  0  0  0  0  0  0  0  0
  1  2  1  0  0  0  0
  1  6  2  0  0  0  0
  2  7  2  0  0  0  0
  3 10  2  0  0  0  0
  3 18  1  0  0  0  0
  4 11  1  0  0  0  0
  4 18  2  0  0  0  0
  5  9  2  0  0  0  0
  5 19  1  0  0  0  0
  6 21  1  0  0  0  0
  7 23  1  0  0  0  0
  8 12  2  0  0  0  0
  8 22  1  0  0  0  0
  9 25  1  0  0  0  0
 10 26  1  0  0  0  0
 11 26  2  0  0  0  0
 12 27  1  0  0  0  0
 13 14  2  0  0  0  0
 13 28  1  0  0  0  0
 14 29  1  0  0  0  0
 15 24  1  0  0  0  0
 15 27  2  0  0  0  0
 16 25  2  0  0  0  0
 16 30  1  0  0  0  0
 17 29  2  0  0  0  0
 17 31  1  0  0  0  0
 18 32  1  0  0  0  0
 19 30  2  0  0  0  0
 19 37  1  0  0  0  0
 20 32  1  0  0  0  0
 20 33  2  0  0  0  0
 20 38  1  0  0  0  0
 21 23  2  0  0  0  0
 21 43  1  0  0  0  0
 22 24  2  0  0  0  0
 22 44  1  0  0  0  0
 23 54  1  0  0  0  0
 24 45  1  0  0  0  0
 25 68  1  0  0  0  0
 26 84  1  0  0  0  0
 27 85  1  0  0  0  0
 28 31  2  0  0  0  0
 28 84  1  0  0  0  0
 29 86  1  0  0  0  0
 30 87  1  0  0  0  0
 31 88  1  0  0  0  0
 32 66  2  0  0  0  0
 33 67  1  0  0  0  0
 33 71  1  0  0  0  0
 34 35  2  0  0  0  0
 34 68  1  0  0  0  0
 35 46  1  0  0  0  0
 35 62  1  0  0  0  0
 36 47  1  0  0  0  0
 36 68  1  0  0  0  0
 36 77  2  0  0  0  0
 37 73  1  0  0  0  0
 37 78  2  0  0  0  0
 38 72  1  0  0  0  0
 38 79  2  0  0  0  0
 39 55  1  0  0  0  0
 39 74  1  0  0  0  0
 39 80  2  0  0  0  0
 40 63  1  0  0  0  0
 40 69  1  0  0  0  0
 40 81  2  0  0  0  0
 41 64  1  0  0  0  0
 41 75  1  0  0  0  0
 41 82  2  0  0  0  0
 42 70  1  0  0  0  0
 42 73  1  0  0  0  0
 42 83  2  0  0  0  0
 43 48  1  0  0  0  0
 44 55  1  0  0  0  0
 45 69  1  0  0  0  0
 46 47  1  0  0  0  0
 48 50  1  0  0  0  0
 49 51  1  0  0  0  0
 49 52  1  0  0  0  0
 50 54  1  0  0  0  0
 51 56  1  0  0  0  0
 52 70  1  0  0  0  0
 53 56  1  0  0  0  0
 53 70  1  0  0  0  0
 54 74  1  0  0  0  0
 55 69  1  0  0  0  0
 56 67  1  0  0  0  0
 57 64  1  0  0  0  0
 58 65  1  0  0  0  0
 59 65  1  0  0  0  0
 60 65  1  0  0  0  0
 61 76  1  0  0  0  0
 62 85  1  0  0  0  0
 63 65  1  0  0  0  0
 63 75  1  0  0  0  0
 64 76  1  0  0  0  0
 66 67  1  0  0  0  0
M  CHG  1  76   1
M  ISO  4  42 100  62 101  73 100  85 101
M  END
> <Batch ID>
0092

> <Smiles>
CNC(C)C(=O)NC(C(=O)N1Cc2cc([101O:1][101CH2:1]C3=CN(c4ccc(C(=O)[100NH:0][100C:0](=O)N5CCCC(n6nc(-c7ccc(Oc8ccc(F)cc8F)cc7)c(C(N)=O)c6N)C5)c(F)c4)C(=O)CC3)ccc2CC1C(=O)NC1CCCc2ccccc21)C(C)(C)C

> <Shape>
0.233

> <Color>
0.067

> <Negative vol penalty>
0.000

$$$$

  -OEChem-04052300343D

 86 95  0     1  0  0  0  0  0999 V2000
  -16.5633  -29.4958   24.0742 C   0  0  0  0  0  0  0  0  0  0  0  0
  -16.9582  -28.6760   23.0218 C   0  0  0  0  0  0  0  0  0  0  0  0
  -27.1889  -12.9975   20.3367 C   0  0  0  0  0  0  0  0  0  0  0  0
  -27.5165  -13.6055   22.6519 C   0  0  0  0  0  0  0  0  0  0  0  0
  -17.3960  -30.5289   24.5019 C   0  0  0  0  0  0  0  0  0  0  0  0
  -18.1857  -28.8897   22.3957 C   0  0  0  0  0  0  0  0  0  0  0  0
  -23.4968  -25.3340   19.1608 C   0  0  0  0  0  0  0  0  0  0  0  0
  -30.5685  -22.7453   17.0111 C   0  0  0  0  0  0  0  0  0  0  0  0
  -31.0560  -21.8256   17.9395 C   0  0  0  0  0  0  0  0  0  0  0  0
  -25.8748  -12.6257   20.6203 C   0  0  0  0  0  0  0  0  0  0  0  0
  -26.2023  -13.2337   22.9355 C   0  0  0  0  0  0  0  0  0  0  0  0
  -24.2307  -25.3387   17.9755 C   0  0  0  0  0  0  0  0  0  0  0  0
  -24.2763   -9.9890   22.0048 C   0  0  0  0  0  0  0  0  0  0  0  0
  -23.8162   -8.7832   21.4756 C   0  0  0  0  0  0  0  0  0  0  0  0
  -25.6220  -27.1042   18.8511 C   0  0  0  0  0  0  0  0  0  0  0  0
  -30.2719  -20.0096   16.5524 C   0  0  0  0  0  0  0  0  0  0  0  0
  -22.0849   -9.9693   20.2786 C   0  0  0  0  0  0  0  0  0  0  0  0
  -28.0098  -13.4874   21.3525 C   0  0  0  0  0  0  0  0  0  0  0  0
  -30.3904  -13.0522   20.5458 C   0  0  0  0  0  0  0  0  0  0  0  0
  -18.6386  -30.7494   23.8871 C   0  0  0  0  0  0  0  0  0  0  0  0
  -23.8136  -26.2232   20.1977 C   0  0  0  0  0  0  0  0  0  0  0  0
  -19.0352  -29.9277   22.8147 C   0  0  0  0  0  0  0  0  0  0  0  0
  -24.8922  -27.1069   20.0496 C   0  0  0  0  0  0  0  0  0  0  0  0
  -29.9326  -22.2972   15.8533 C   0  0  0  0  0  0  0  0  0  0  0  0
  -29.7843  -20.9293   15.6239 C   0  0  0  0  0  0  0  0  0  0  0  0
  -30.9078  -20.4578   17.7102 C   0  0  0  0  0  0  0  0  0  0  0  0
  -25.3815  -12.7438   21.9196 C   0  0  0  0  0  0  0  0  0  0  0  0
  -25.2917  -26.2259   17.8193 C   0  0  0  0  0  0  0  0  0  0  0  0
  -23.6407  -11.1849   21.6710 C   0  0  0  0  0  0  0  0  0  0  0  0
  -22.7205   -8.7734   20.6124 C   0  0  0  0  0  0  0  0  0  0  0  0
  -22.5450  -11.1751   20.8078 C   0  0  0  0  0  0  0  0  0  0  0  0
  -29.3675  -13.8711   21.0604 C   0  0  0  0  0  0  0  0  0  0  0  0
  -31.4800  -13.8829   20.4501 C   0  0  0  0  0  0  0  0  0  0  0  0
  -27.7071  -24.6722   16.0037 C   0  0  0  0  0  0  0  0  0  0  0  0
  -30.3585  -11.6645   20.1864 C   0  0  0  0  0  0  0  0  0  0  0  0
  -22.2832  -28.5879   21.6709 C   0  0  0  0  0  0  0  0  0  0  0  0
  -24.9032  -28.5702   23.5833 C   0  0  0  0  0  0  0  0  0  0  0  0
  -28.4722  -28.2561   23.1576 C   0  0  0  0  0  0  0  0  0  0  0  0
  -32.0619  -19.7996   19.8505 C   0  0  0  0  0  0  0  0  0  0  0  0
  -19.4837  -31.9084   24.3531 C   0  0  0  0  0  0  0  0  0  0  0  0
  -23.0290  -26.1871   21.4805 C   0  0  0  0  0  0  0  0  0  0  0  0
  -25.2857  -28.0678   21.1406 C   0  0  0  0  0  0  0  0  0  0  0  0
  -20.9340  -31.8328   23.8826 C   0  0  0  0  0  0  0  0  0  0  0  0
  -29.6472  -26.8496   16.2899 C   0  0  0  0  0  0  0  0  0  0  0  0
  -33.4046  -17.7813   22.4584 C   0  0  0  0  0  0  0  0  0  0  0  0
  -20.9963  -31.4855   22.3986 C   0  0  0  0  0  0  0  0  0  0  0  0
  -28.1656  -27.1610   16.2577 C   0  0  0  0  0  0  0  0  0  0  0  0
  -32.6190  -16.4728   22.3451 C   0  0  0  0  0  0  0  0  0  0  0  0
  -29.9403  -25.6673   15.3836 C   0  0  0  0  0  0  0  0  0  0  0  0
  -32.5295  -18.9962   22.1551 C   0  0  0  0  0  0  0  0  0  0  0  0
  -31.0238  -17.6305   20.7633 C   0  0  0  0  0  0  0  0  0  0  0  0
  -20.3703  -30.1124   22.1265 C   0  0  1  0  0  0  0  0  0  0  0  0
  -27.3965  -25.9561   16.7627 C   0  0  1  0  0  0  0  0  0  1  0  0
  -23.1150  -27.4895   22.2704 C   0  0  1  0  0  0  0  0  0  0  0  0
  -31.8793  -16.3745   20.9965 C   0  0  2  0  0  0  0  0  0  0  0  0
  -29.1089  -20.4263   14.3905 C   0  0  0  0  0  0  0  0  0  0  0  0
  -30.2343  -27.4072   24.7297 C   0  0  0  0  0  0  0  0  0  0  0  0
  -25.2261  -31.5068   24.3463 C   0  0  0  0  0  0  0  0  0  0  0  0
  -27.6954  -31.1232   24.5002 C   0  0  0  0  0  0  0  0  0  0  0  0
  -26.1463  -29.8879   26.0158 C   0  0  0  0  0  0  0  0  0  0  0  0
  -29.4356  -26.2676   21.1886 C   0  0  0  0  0  0  0  0  0  0  0  0
  -29.4154  -23.3061   14.8690 C   0  0  0  0  0  0  0  0  0  0  0  0
  -26.2433  -29.2652   23.5673 C   0  0  1  0  0  0  0  0  0  0  0  0
  -29.3335  -27.0698   23.5518 C   0  0  2  0  0  0  0  0  0  0  0  0
  -26.3137  -30.4400   24.5833 C   0  0  0  0  0  0  0  0  0  0  0  0
  -29.7712  -15.1258   21.2766 N   0  0  0  0  0  0  0  0  0  0  0  0
  -31.0599  -15.1015   20.8961 N   0  0  0  0  0  0  0  0  0  0  0  0
  -29.0105  -24.5449   15.5200 N   0  0  0  0  0  0  0  0  0  0  0  0
  -24.4841  -27.9986   22.3736 N   0  0  0  0  0  0  0  0  0  0  0  0
  -31.8639  -18.8345   20.8606 N   0  0  0  0  0  0  0  0  0  0  0  0
  -32.7468  -13.6827   20.0289 N   0  0  0  0  0  0  0  0  0  0  0  0
  -29.1577  -10.9600   20.3478 N   0  0  0  0  0  0  0  0  0  0  0  0
  -31.4047  -19.5231   18.6521 N   0  0  0  0  0  0  0  0  0  0  0  0
  -21.2850  -29.0562   22.5038 N   0  0  0  0  0  0  0  0  0  0  0  0
  -27.2444  -28.2265   23.7845 N   0  0  0  0  0  0  0  0  0  0  0  0
  -30.1923  -26.6505   22.4083 N   0  3  0  0  0  0  0  0  0  0  0  0
  -26.8467  -23.7937   15.9041 O   0  0  0  0  0  0  0  0  0  0  0  0
  -31.3695  -11.0630   19.7509 O   0  0  0  0  0  0  0  0  0  0  0  0
  -22.5298  -28.9823   20.5371 O   0  0  0  0  0  0  0  0  0  0  0  0
  -24.2556  -28.5295   24.6324 O   0  0  0  0  0  0  0  0  0  0  0  0
  -28.8520  -29.1242   22.3748 O   0  0  0  0  0  0  0  0  0  0  0  0
  -32.7848  -20.7838   20.0261 O   0  0  0  0  0  0  0  0  0  0  0  0
  -24.0991  -12.3812   22.1966 O   0  0  0  0  0  0  0  0  0  0  0  0
  -26.0093  -26.2331   16.6631 O   0  0  0  0  0  0  0  0  0  1  0  0
  -22.2797   -7.6156   20.1031 F   0  0  0  0  0  0  0  0  0  0  0  0
  -21.9310  -12.3209   20.4825 F   0  0  0  0  0  0  0  0  0  0  0  0
  1  2  1  0  0  0  0
  1  5  2  0  0  0  0
  2  6  2  0  0  0  0
  3 10  2  0  0  0  0
  3 18  1  0  0  0  0
  4 11  1  0  0  0  0
  4 18  2  0  0  0  0
  5 20  1  0  0  0  0
  6 22  1  0  0  0  0
  7 12  2  0  0  0  0
  7 21  1  0  0  0  0
  8  9  2  0  0  0  0
  8 24  1  0  0  0  0
  9 26  1  0  0  0  0
 10 27  1  0  0  0  0
 11 27  2  0  0  0  0
 12 28  1  0  0  0  0
 13 14  2  0  0  0  0
 13 29  1  0  0  0  0
 14 30  1  0  0  0  0
 15 23  1  0  0  0  0
 15 28  2  0  0  0  0
 16 25  1  0  0  0  0
 16 26  2  0  0  0  0
 17 30  2  0  0  0  0
 17 31  1  0  0  0  0
 18 32  1  0  0  0  0
 19 32  1  0  0  0  0
 19 33  2  0  0  0  0
 19 35  1  0  0  0  0
 20 22  2  0  0  0  0
 20 40  1  0  0  0  0
 21 23  2  0  0  0  0
 21 41  1  0  0  0  0
 22 52  1  0  0  0  0
 23 42  1  0  0  0  0
 24 25  2  0  0  0  0
 24 62  1  0  0  0  0
 25 56  1  0  0  0  0
 26 73  1  0  0  0  0
 27 83  1  0  0  0  0
 28 84  1  0  0  0  0
 29 31  2  0  0  0  0
 29 83  1  0  0  0  0
 30 85  1  0  0  0  0
 31 86  1  0  0  0  0
 32 66  2  0  0  0  0
 33 67  1  0  0  0  0
 33 71  1  0  0  0  0
 34 53  1  0  0  0  0
 34 68  1  0  0  0  0
 34 77  2  0  0  0  0
 35 72  1  0  0  0  0
 35 78  2  0  0  0  0
 36 54  1  0  0  0  0
 36 74  1  0  0  0  0
 36 79  2  0  0  0  0
 37 63  1  0  0  0  0
 37 69  1  0  0  0  0
 37 80  2  0  0  0  0
 38 64  1  0  0  0  0
 38 75  1  0  0  0  0
 38 81  2  0  0  0  0
 39 70  1  0  0  0  0
 39 73  1  0  0  0  0
 39 82  2  0  0  0  0
 40 43  1  0  0  0  0
 41 54  1  0  0  0  0
 42 69  1  0  0  0  0
 43 46  1  0  0  0  0
 44 47  1  0  0  0  0
 44 49  1  0  0  0  0
 45 48  1  0  0  0  0
 45 50  1  0  0  0  0
 46 52  1  0  0  0  0
 47 53  1  0  0  0  0
 48 55  1  0  0  0  0
 49 68  1  0  0  0  0
 50 70  1  0  0  0  0
 51 55  1  0  0  0  0
 51 70  1  0  0  0  0
 52 74  1  0  0  0  0
 53 84  1  0  0  0  0
 54 69  1  0  0  0  0
 55 67  1  0  0  0  0
 57 64  1  0  0  0  0
 58 65  1  0  0  0  0
 59 65  1  0  0  0  0
 60 65  1  0  0  0  0
 61 76  1  0  0  0  0
 62 68  1  0  0  0  0
 63 65  1  0  0  0  0
 63 75  1  0  0  0  0
 64 76  1  0  0  0  0
 66 67  1  0  0  0  0
M  CHG  1  76   1
M  ISO  4  39 100  53 101  73 100  84 101
M  END
> <Batch ID>
0092

> <Smiles>
CNC(C)C(=O)NC(C(=O)N1Cc2cc([101O:1][101CH:1]3CCCN(Cc4ccc([100NH:0][100C:0](=O)N5CCCC(n6nc(-c7ccc(Oc8ccc(F)cc8F)cc7)c(C(N)=O)c6N)C5)cc4C)C3=O)ccc2CC1C(=O)NC1CCCc2ccccc21)C(C)(C)C

> <Shape>
0.250

> <Color>
0.058

> <Negative vol penalty>
0.000

$$$$

  -OEChem-04052300343D

 88 97  0     1  0  0  0  0  0999 V2000
  -32.7109  -27.7245   16.8902 C   0  0  0  0  0  0  0  0  0  0  0  0
  -32.0224  -26.5670   16.5414 C   0  0  0  0  0  0  0  0  0  0  0  0
  -23.1614   -9.8577   19.9089 C   0  0  0  0  0  0  0  0  0  0  0  0
  -23.8253   -9.8993   22.2315 C   0  0  0  0  0  0  0  0  0  0  0  0
  -32.2323  -28.5359   17.9180 C   0  0  0  0  0  0  0  0  0  0  0  0
  -30.8554  -26.2197   17.2211 C   0  0  0  0  0  0  0  0  0  0  0  0
  -25.9182  -23.4519   14.8826 C   0  0  0  0  0  0  0  0  0  0  0  0
  -22.4317   -8.6913   20.1384 C   0  0  0  0  0  0  0  0  0  0  0  0
  -23.0956   -8.7329   22.4610 C   0  0  0  0  0  0  0  0  0  0  0  0
  -25.4966  -22.1230   14.8891 C   0  0  0  0  0  0  0  0  0  0  0  0
  -19.4429   -7.8450   21.4739 C   0  0  0  0  0  0  0  0  0  0  0  0
  -18.1585   -7.7675   20.9356 C   0  0  0  0  0  0  0  0  0  0  0  0
  -24.1073  -22.5795   16.8076 C   0  0  0  0  0  0  0  0  0  0  0  0
  -27.6483  -15.8657   17.0738 C   0  0  0  0  0  0  0  0  0  0  0  0
  -18.8124   -5.8258   19.6551 C   0  0  0  0  0  0  0  0  0  0  0  0
  -26.1178  -14.2700   16.1975 C   0  0  0  0  0  0  0  0  0  0  0  0
  -23.8583  -10.4617   20.9555 C   0  0  0  0  0  0  0  0  0  0  0  0
  -24.1528  -12.9923   20.8269 C   0  0  0  0  0  0  0  0  0  0  0  0
  -31.0536  -28.2035   18.6042 C   0  0  0  0  0  0  0  0  0  0  0  0
  -25.4451  -24.3535   15.8468 C   0  0  0  0  0  0  0  0  0  0  0  0
  -30.3613  -27.0268   18.2600 C   0  0  0  0  0  0  0  0  0  0  0  0
  -24.5224  -23.9199   16.8096 C   0  0  0  0  0  0  0  0  0  0  0  0
  -26.3439  -15.5294   16.7292 C   0  0  0  0  0  0  0  0  0  0  0  0
  -28.6722  -14.9454   16.8789 C   0  0  0  0  0  0  0  0  0  0  0  0
  -22.3988   -8.1289   21.4144 C   0  0  0  0  0  0  0  0  0  0  0  0
  -24.5932  -21.6859   15.8535 C   0  0  0  0  0  0  0  0  0  0  0  0
  -20.4121   -6.9130   21.1028 C   0  0  0  0  0  0  0  0  0  0  0  0
  -17.8432   -6.7579   20.0262 C   0  0  0  0  0  0  0  0  0  0  0  0
  -20.0968   -5.9034   20.1934 C   0  0  0  0  0  0  0  0  0  0  0  0
  -24.6127  -11.6662   20.7190 C   0  0  0  0  0  0  0  0  0  0  0  0
  -28.3418  -13.7122   16.3407 C   0  0  0  0  0  0  0  0  0  0  0  0
  -25.2434  -13.7615   20.5023 C   0  0  0  0  0  0  0  0  0  0  0  0
  -23.2260  -17.3427   17.2891 C   0  0  0  0  0  0  0  0  0  0  0  0
  -24.0718  -18.3605   17.1111 C   0  0  0  0  0  0  0  0  0  0  0  0
  -23.9906  -16.0823   17.1746 C   0  0  0  0  0  0  0  0  0  0  0  0
  -25.4169  -17.8025   16.8548 C   0  0  0  0  0  0  0  0  0  0  0  0
  -22.8557  -13.4849   21.1884 C   0  0  0  0  0  0  0  0  0  0  0  0
  -26.7891  -26.0891   18.1457 C   0  0  0  0  0  0  0  0  0  0  0  0
  -23.7946  -27.2995   18.4458 C   0  0  0  0  0  0  0  0  0  0  0  0
  -20.4401  -26.8807   17.9785 C   0  0  0  0  0  0  0  0  0  0  0  0
  -30.1726  -12.2672   17.2098 C   0  0  0  0  0  0  0  0  0  0  0  0
  -30.6010  -29.0868   19.7398 C   0  0  0  0  0  0  0  0  0  0  0  0
  -25.8890  -25.7901   15.8098 C   0  0  0  0  0  0  0  0  0  0  0  0
  -23.9689  -24.8531   17.8542 C   0  0  0  0  0  0  0  0  0  0  0  0
  -29.1533  -28.8453   20.1595 C   0  0  0  0  0  0  0  0  0  0  0  0
  -30.0208  -13.7325   20.5921 C   0  0  0  0  0  0  0  0  0  0  0  0
  -28.8791  -27.3510   20.2955 C   0  0  0  0  0  0  0  0  0  0  0  0
  -28.5924  -13.4198   21.0349 C   0  0  0  0  0  0  0  0  0  0  0  0
  -30.5558  -12.6838   19.6215 C   0  0  0  0  0  0  0  0  0  0  0  0
  -28.2556  -12.1554   18.8731 C   0  0  0  0  0  0  0  0  0  0  0  0
  -29.0783  -26.6294   18.9572 C   0  0  1  0  0  0  0  0  0  0  0  0
  -25.7375  -26.4971   17.1531 C   0  0  1  0  0  0  0  0  0  0  0  0
  -27.6729  -13.2171   19.8182 C   0  0  1  0  0  0  0  0  0  0  0  0
  -21.7684  -17.3375   17.5658 C   0  0  0  0  0  0  0  0  0  0  0  0
  -18.2400  -28.0265   18.3583 C   0  0  0  0  0  0  0  0  0  0  0  0
  -23.9408  -26.5921   21.4103 C   0  0  0  0  0  0  0  0  0  0  0  0
  -21.4545  -26.8622   21.5259 C   0  0  0  0  0  0  0  0  0  0  0  0
  -22.8917  -28.8081   20.9171 C   0  0  0  0  0  0  0  0  0  0  0  0
  -29.4848  -12.0782   14.8306 C   0  0  0  0  0  0  0  0  0  0  0  0
  -19.8384  -26.9391   15.0813 C   0  0  0  0  0  0  0  0  0  0  0  0
  -23.8346  -19.8265   17.1275 C   0  0  0  0  0  0  0  0  0  1  0  0
  -22.5698  -26.9352   19.2496 C   0  0  1  0  0  0  0  0  0  0  0  0
  -19.3841  -27.7947   17.3835 C   0  0  2  0  0  0  0  0  0  0  0  0
  -22.7259  -27.2811   20.7573 C   0  0  0  0  0  0  0  0  0  0  0  0
  -27.0866  -13.3495   15.9936 N   0  0  0  0  0  0  0  0  0  0  0  0
  -25.8955  -11.5935   20.3541 N   0  0  0  0  0  0  0  0  0  0  0  0
  -26.2509  -12.8836   20.2299 N   0  0  0  0  0  0  0  0  0  0  0  0
  -25.2995  -16.4291   16.9110 N   0  0  0  0  0  0  0  0  0  0  0  0
  -24.4382  -26.2465   17.7803 N   0  0  0  0  0  0  0  0  0  0  0  0
  -29.6410  -12.4775   18.4980 N   0  0  0  0  0  0  0  0  0  0  0  0
  -29.9936  -15.2841   17.2265 N   0  0  0  0  0  0  0  0  0  0  0  0
  -25.4292  -15.0965   20.4260 N   0  0  0  0  0  0  0  0  0  0  0  0
  -21.8496  -12.5575   21.4918 N   0  0  0  0  0  0  0  0  0  0  0  0
  -27.9411  -26.8502   18.0898 N   0  0  0  0  0  0  0  0  0  0  0  0
  -21.4432  -27.5951   18.5986 N   0  0  0  0  0  0  0  0  0  0  0  0
  -29.3934  -12.7446   16.1338 N   0  0  0  0  0  0  0  0  0  0  0  0
  -18.8259  -27.1986   16.1369 N   0  3  0  0  0  0  0  0  0  0  0  0
  -23.5023  -14.9700   17.2978 O   0  0  0  0  0  0  0  0  0  0  0  0
  -26.4107  -18.4788   16.6413 O   0  0  0  0  0  0  0  0  0  0  0  0
  -22.5920  -14.7107   21.2248 O   0  0  0  0  0  0  0  0  0  0  0  0
  -26.5710  -25.1539   18.9069 O   0  0  0  0  0  0  0  0  0  0  0  0
  -24.1625  -28.4762   18.4039 O   0  0  0  0  0  0  0  0  0  0  0  0
  -20.3791  -25.6554   17.9040 O   0  0  0  0  0  0  0  0  0  0  0  0
  -31.2698  -11.7230   17.0377 O   0  0  0  0  0  0  0  0  0  0  0  0
  -21.6866   -6.9909   21.6387 O   0  0  0  0  0  0  0  0  0  0  0  0
  -24.1806  -20.3892   15.8626 O   0  0  0  0  0  0  0  0  0  1  0  0
  -16.6093   -6.6826   19.5105 F   0  0  0  0  0  0  0  0  0  0  0  0
  -21.0234   -5.0045   19.8340 F   0  0  0  0  0  0  0  0  0  0  0  0
  1  2  1  0  0  0  0
  1  5  2  0  0  0  0
  2  6  2  0  0  0  0
  3  8  2  0  0  0  0
  3 17  1  0  0  0  0
  4  9  1  0  0  0  0
  4 17  2  0  0  0  0
  5 19  1  0  0  0  0
  6 21  1  0  0  0  0
  7 10  2  0  0  0  0
  7 20  1  0  0  0  0
  8 25  1  0  0  0  0
  9 25  2  0  0  0  0
 10 26  1  0  0  0  0
 11 12  2  0  0  0  0
 11 27  1  0  0  0  0
 12 28  1  0  0  0  0
 13 22  1  0  0  0  0
 13 26  2  0  0  0  0
 14 23  2  0  0  0  0
 14 24  1  0  0  0  0
 15 28  2  0  0  0  0
 15 29  1  0  0  0  0
 16 23  1  0  0  0  0
 16 65  2  0  0  0  0
 17 30  1  0  0  0  0
 18 30  1  0  0  0  0
 18 32  2  0  0  0  0
 18 37  1  0  0  0  0
 19 21  2  0  0  0  0
 19 42  1  0  0  0  0
 20 22  2  0  0  0  0
 20 43  1  0  0  0  0
 21 51  1  0  0  0  0
 22 44  1  0  0  0  0
 23 68  1  0  0  0  0
 24 31  2  0  0  0  0
 24 71  1  0  0  0  0
 25 85  1  0  0  0  0
 26 86  1  0  0  0  0
 27 29  2  0  0  0  0
 27 85  1  0  0  0  0
 28 87  1  0  0  0  0
 29 88  1  0  0  0  0
 30 66  2  0  0  0  0
 31 65  1  0  0  0  0
 31 76  1  0  0  0  0
 32 67  1  0  0  0  0
 32 72  1  0  0  0  0
 33 34  2  0  0  0  0
 33 35  1  0  0  0  0
 33 54  1  0  0  0  0
 34 36  1  0  0  0  0
 34 61  1  0  0  0  0
 35 68  1  0  0  0  0
 35 78  2  0  0  0  0
 36 68  1  0  0  0  0
 36 79  2  0  0  0  0
 37 73  1  0  0  0  0
 37 80  2  0  0  0  0
 38 52  1  0  0  0  0
 38 74  1  0  0  0  0
 38 81  2  0  0  0  0
 39 62  1  0  0  0  0
 39 69  1  0  0  0  0
 39 82  2  0  0  0  0
 40 63  1  0  0  0  0
 40 75  1  0  0  0  0
 40 83  2  0  0  0  0
 41 70  1  0  0  0  0
 41 76  1  0  0  0  0
 41 84  2  0  0  0  0
 42 45  1  0  0  0  0
 43 52  1  0  0  0  0
 44 69  1  0  0  0  0
 45 47  1  0  0  0  0
 46 48  1  0  0  0  0
 46 49  1  0  0  0  0
 47 51  1  0  0  0  0
 48 53  1  0  0  0  0
 49 70  1  0  0  0  0
 50 53  1  0  0  0  0
 50 70  1  0  0  0  0
 51 74  1  0  0  0  0
 52 69  1  0  0  0  0
 53 67  1  0  0  0  0
 55 63  1  0  0  0  0
 56 64  1  0  0  0  0
 57 64  1  0  0  0  0
 58 64  1  0  0  0  0
 59 76  1  0  0  0  0
 60 77  1  0  0  0  0
 61 86  1  0  0  0  0
 62 64  1  0  0  0  0
 62 75  1  0  0  0  0
 63 77  1  0  0  0  0
 66 67  1  0  0  0  0
M  CHG  1  77   1
M  ISO  4  41 100  61 101  76 100  86 101
M  END
> <Batch ID>
0092

> <Smiles>
CNC(C)C(=O)NC(C(=O)N1Cc2cc([101O:1][101CH2:1]C3=C(C)C(=O)N(c4cnc([100N:0](C)[100C:0](=O)N5CCCC(n6nc(-c7ccc(Oc8ccc(F)cc8F)cc7)c(C(N)=O)c6N)C5)c(N)c4)C3=O)ccc2CC1C(=O)NC1CCCc2ccccc21)C(C)(C)C

> <Shape>
0.182

> <Color>
0.161

> <Negative vol penalty>
0.000

$$$$

  -OEChem-04052300343D

 86 95  0     1  0  0  0  0  0999 V2000
  -27.7316  -37.4822   22.0981 C   0  0  0  0  0  0  0  0  0  0  0  0
  -28.0466  -36.3114   21.4159 C   0  0  0  0  0  0  0  0  0  0  0  0
  -22.0261  -11.6092   18.7190 C   0  0  0  0  0  0  0  0  0  0  0  0
  -23.4025  -11.6572   16.7340 C   0  0  0  0  0  0  0  0  0  0  0  0
  -30.8036  -19.2817   20.2328 C   0  0  0  0  0  0  0  0  0  0  0  0
  -29.4117  -18.2232   18.5657 C   0  0  0  0  0  0  0  0  0  0  0  0
  -27.1000  -37.4159   23.3394 C   0  0  0  0  0  0  0  0  0  0  0  0
  -27.7311  -35.0736   21.9750 C   0  0  0  0  0  0  0  0  0  0  0  0
  -26.0051  -30.0155   18.9845 C   0  0  0  0  0  0  0  0  0  0  0  0
  -30.1646  -20.4983   19.9938 C   0  0  0  0  0  0  0  0  0  0  0  0
  -28.7727  -19.4398   18.3267 C   0  0  0  0  0  0  0  0  0  0  0  0
  -21.0543  -10.8857   18.0278 C   0  0  0  0  0  0  0  0  0  0  0  0
  -22.4308  -10.9336   16.0427 C   0  0  0  0  0  0  0  0  0  0  0  0
  -26.7057  -28.8802   18.5796 C   0  0  0  0  0  0  0  0  0  0  0  0
  -18.5967  -11.5184   15.7953 C   0  0  0  0  0  0  0  0  0  0  0  0
  -17.2672  -11.9126   15.9453 C   0  0  0  0  0  0  0  0  0  0  0  0
  -25.9813  -27.7299   20.5723 C   0  0  0  0  0  0  0  0  0  0  0  0
  -16.7209   -9.7328   16.8325 C   0  0  0  0  0  0  0  0  0  0  0  0
  -23.2001  -11.9950   18.0721 C   0  0  0  0  0  0  0  0  0  0  0  0
  -30.4272  -18.1441   19.5187 C   0  0  0  0  0  0  0  0  0  0  0  0
  -24.0530  -14.0037   19.3933 C   0  0  0  0  0  0  0  0  0  0  0  0
  -26.7679  -36.1769   23.9096 C   0  0  0  0  0  0  0  0  0  0  0  0
  -25.2951  -30.0202   20.1937 C   0  0  0  0  0  0  0  0  0  0  0  0
  -27.0957  -34.9906   23.2256 C   0  0  0  0  0  0  0  0  0  0  0  0
  -25.2704  -28.8657   20.9891 C   0  0  0  0  0  0  0  0  0  0  0  0
  -29.1491  -20.5774   19.0408 C   0  0  0  0  0  0  0  0  0  0  0  0
  -21.2567  -10.5479   16.6896 C   0  0  0  0  0  0  0  0  0  0  0  0
  -26.6962  -27.7381   19.3749 C   0  0  0  0  0  0  0  0  0  0  0  0
  -18.9883  -10.2313   16.1638 C   0  0  0  0  0  0  0  0  0  0  0  0
  -16.3293  -11.0198   16.4640 C   0  0  0  0  0  0  0  0  0  0  0  0
  -18.0505   -9.3385   16.6824 C   0  0  0  0  0  0  0  0  0  0  0  0
  -24.2041  -12.7430   18.7855 C   0  0  0  0  0  0  0  0  0  0  0  0
  -25.2867  -14.2749   19.9327 C   0  0  0  0  0  0  0  0  0  0  0  0
  -27.2443  -24.3225   18.4058 C   0  0  0  0  0  0  0  0  0  0  0  0
  -26.6755  -25.4732   18.7915 C   0  0  0  0  0  0  0  0  0  1  0  0
  -31.1078  -16.8484   19.7733 C   0  0  0  0  0  0  0  0  0  0  0  0
  -22.9005  -14.8537   19.4641 C   0  0  0  0  0  0  0  0  0  0  0  0
  -25.4763  -31.6859   22.8949 C   0  0  0  0  0  0  0  0  0  0  0  0
  -22.7673  -30.0574   23.6239 C   0  0  0  0  0  0  0  0  0  0  0  0
  -20.8183  -27.3020   23.1177 C   0  0  0  0  0  0  0  0  0  0  0  0
  -30.8178  -14.3948   19.6336 C   0  0  0  0  0  0  0  0  0  0  0  0
  -26.1282  -36.1544   25.2752 C   0  0  0  0  0  0  0  0  0  0  0  0
  -24.5226  -31.2440   20.6033 C   0  0  0  0  0  0  0  0  0  0  0  0
  -24.5069  -28.8125   22.2863 C   0  0  0  0  0  0  0  0  0  0  0  0
  -26.4645  -23.0555   18.1978 C   0  0  0  0  0  0  0  0  0  0  0  0
  -28.7208  -24.1807   18.1667 C   0  0  0  0  0  0  0  0  0  0  0  0
  -25.4905  -34.8128   25.6270 C   0  0  0  0  0  0  0  0  0  0  0  0
  -29.3477  -11.3079   20.5316 C   0  0  0  0  0  0  0  0  0  0  0  0
  -26.4384  -33.6663   25.2896 C   0  0  0  0  0  0  0  0  0  0  0  0
  -27.8632  -11.5095   20.2157 C   0  0  0  0  0  0  0  0  0  0  0  0
  -27.0572  -21.9054   19.0157 C   0  0  0  0  0  0  0  0  0  0  0  0
  -29.2968  -23.0275   18.9906 C   0  0  0  0  0  0  0  0  0  0  0  0
  -30.2451  -11.9867   19.4977 C   0  0  0  0  0  0  0  0  0  0  0  0
  -28.4747  -13.6032   18.9404 C   0  0  0  0  0  0  0  0  0  0  0  0
  -26.7473  -33.6296   23.7880 C   0  0  1  0  0  0  0  0  0  0  0  0
  -24.2559  -31.3078   22.1041 C   0  0  1  0  0  0  0  0  0  0  0  0
  -27.5297  -12.9980   19.9910 C   0  0  1  0  0  0  0  0  0  0  0  0
  -18.6822  -26.2321   23.8856 C   0  0  0  0  0  0  0  0  0  0  0  0
  -24.1348  -29.1883   26.2094 C   0  0  0  0  0  0  0  0  0  0  0  0
  -22.3861  -27.4136   26.4558 C   0  0  0  0  0  0  0  0  0  0  0  0
  -21.7283  -29.8198   26.4634 C   0  0  0  0  0  0  0  0  0  0  0  0
  -19.6505  -27.4123   20.4005 C   0  0  0  0  0  0  0  0  0  0  0  0
  -22.4592  -28.7415   24.2966 C   0  0  1  0  0  0  0  0  0  0  0  0
  -19.3289  -27.1546   22.8640 C   0  0  2  0  0  0  0  0  0  0  0  0
  -22.6932  -28.7921   25.8329 C   0  0  0  0  0  0  0  0  0  0  0  0
  -25.4366  -12.2476   18.9251 N   0  0  0  0  0  0  0  0  0  0  0  0
  -26.0712  -13.2020   19.6268 N   0  0  0  0  0  0  0  0  0  0  0  0
  -28.5075  -21.7990   18.8008 N   0  0  0  0  0  0  0  0  0  0  0  0
  -23.7725  -30.0365   22.6467 N   0  0  0  0  0  0  0  0  0  0  0  0
  -29.8714  -13.3945   19.3509 N   0  0  0  0  0  0  0  0  0  0  0  0
  -25.7661  -15.3240   20.6340 N   0  0  0  0  0  0  0  0  0  0  0  0
  -22.7023  -15.7969   18.4466 N   0  0  0  0  0  0  0  0  0  0  0  0
  -30.3509  -15.7076   19.5045 N   0  0  0  0  0  0  0  0  0  0  0  0
  -25.6408  -33.0481   23.0585 N   0  0  0  0  0  0  0  0  0  0  0  0
  -21.0955  -28.3953   23.9109 N   0  0  0  0  0  0  0  0  0  0  0  0
  -19.0881  -26.5930   21.5048 N   0  3  0  0  0  0  0  0  0  0  0  0
  -32.2747  -16.8508   20.1556 O   0  0  0  0  0  0  0  0  0  0  0  0
  -22.0797  -14.7901   20.4106 O   0  0  0  0  0  0  0  0  0  0  0  0
  -26.2132  -30.8069   23.3260 O   0  0  0  0  0  0  0  0  0  0  0  0
  -22.1343  -31.0652   23.9484 O   0  0  0  0  0  0  0  0  0  0  0  0
  -21.6521  -26.5230   22.6612 O   0  0  0  0  0  0  0  0  0  0  0  0
  -31.9679  -14.1417   20.0058 O   0  0  0  0  0  0  0  0  0  0  0  0
  -20.3088   -9.8416   16.0149 O   0  0  0  0  0  0  0  0  0  0  0  0
  -27.3797  -26.6288   18.9823 O   0  0  0  0  0  0  0  0  0  1  0  0
  -15.0529  -11.3991   16.6095 F   0  0  0  0  0  0  0  0  0  0  0  0
  -18.4210   -8.1011   17.0393 F   0  0  0  0  0  0  0  0  0  0  0  0
  1  2  1  0  0  0  0
  1  7  2  0  0  0  0
  2  8  2  0  0  0  0
  3 12  2  0  0  0  0
  3 19  1  0  0  0  0
  4 13  1  0  0  0  0
  4 19  2  0  0  0  0
  5 10  2  0  0  0  0
  5 20  1  0  0  0  0
  6 11  1  0  0  0  0
  6 20  2  0  0  0  0
  7 22  1  0  0  0  0
  8 24  1  0  0  0  0
  9 14  2  0  0  0  0
  9 23  1  0  0  0  0
 10 26  1  0  0  0  0
 11 26  2  0  0  0  0
 12 27  1  0  0  0  0
 13 27  2  0  0  0  0
 14 28  1  0  0  0  0
 15 16  2  0  0  0  0
 15 29  1  0  0  0  0
 16 30  1  0  0  0  0
 17 25  1  0  0  0  0
 17 28  2  0  0  0  0
 18 30  2  0  0  0  0
 18 31  1  0  0  0  0
 19 32  1  0  0  0  0
 20 36  1  0  0  0  0
 21 32  1  0  0  0  0
 21 33  2  0  0  0  0
 21 37  1  0  0  0  0
 22 24  2  0  0  0  0
 22 42  1  0  0  0  0
 23 25  2  0  0  0  0
 23 43  1  0  0  0  0
 24 55  1  0  0  0  0
 25 44  1  0  0  0  0
 26 68  1  0  0  0  0
 27 83  1  0  0  0  0
 28 84  1  0  0  0  0
 29 31  2  0  0  0  0
 29 83  1  0  0  0  0
 30 85  1  0  0  0  0
 31 86  1  0  0  0  0
 32 66  2  0  0  0  0
 33 67  1  0  0  0  0
 33 71  1  0  0  0  0
 34 35  2  0  0  0  0
 34 45  1  0  0  0  0
 34 46  1  0  0  0  0
 35 84  1  0  0  0  0
 36 73  1  0  0  0  0
 36 77  2  0  0  0  0
 37 72  1  0  0  0  0
 37 78  2  0  0  0  0
 38 56  1  0  0  0  0
 38 74  1  0  0  0  0
 38 79  2  0  0  0  0
 39 63  1  0  0  0  0
 39 69  1  0  0  0  0
 39 80  2  0  0  0  0
 40 64  1  0  0  0  0
 40 75  1  0  0  0  0
 40 81  2  0  0  0  0
 41 70  1  0  0  0  0
 41 73  1  0  0  0  0
 41 82  2  0  0  0  0
 42 47  1  0  0  0  0
 43 56  1  0  0  0  0
 44 69  1  0  0  0  0
 45 51  1  0  0  0  0
 46 52  1  0  0  0  0
 47 49  1  0  0  0  0
 48 50  1  0  0  0  0
 48 53  1  0  0  0  0
 49 55  1  0  0  0  0
 50 57  1  0  0  0  0
 51 68  1  0  0  0  0
 52 68  1  0  0  0  0
 53 70  1  0  0  0  0
 54 57  1  0  0  0  0
 54 70  1  0  0  0  0
 55 74  1  0  0  0  0
 56 69  1  0  0  0  0
 57 67  1  0  0  0  0
 58 64  1  0  0  0  0
 59 65  1  0  0  0  0
 60 65  1  0  0  0  0
 61 65  1  0  0  0  0
 62 76  1  0  0  0  0
 63 65  1  0  0  0  0
 63 75  1  0  0  0  0
 64 76  1  0  0  0  0
 66 67  1  0  0  0  0
M  CHG  1  76   1
M  ISO  4  35 101  41 100  73 100  84 101
M  END
> <Batch ID>
0092

> <Smiles>
CNC(C)C(=O)NC(C(=O)N1Cc2cc([101O:1][101CH:1]=C3CCN(c4ccc(C(=O)[100NH:0][100C:0](=O)N5CCCC(n6nc(-c7ccc(Oc8ccc(F)cc8F)cc7)c(C(N)=O)c6N)C5)cc4)CC3)ccc2CC1C(=O)NC1CCCc2ccccc21)C(C)(C)C

> <Shape>
0.280

> <Color>
0.118

> <Negative vol penalty>
0.000

$$$$

  -OEChem-04052300343D

 81 89  0     1  0  0  0  0  0999 V2000
  -28.3015  -36.4994   20.8788 C   0  0  0  0  0  0  0  0  0  0  0  0
  -28.6726  -35.1767   20.6589 C   0  0  0  0  0  0  0  0  0  0  0  0
  -24.2849   -9.7302   22.1591 C   0  0  0  0  0  0  0  0  0  0  0  0
  -23.9915   -9.3758   19.7873 C   0  0  0  0  0  0  0  0  0  0  0  0
  -27.2885  -36.7958   21.7898 C   0  0  0  0  0  0  0  0  0  0  0  0
  -28.0315  -34.1497   21.3508 C   0  0  0  0  0  0  0  0  0  0  0  0
  -26.7669  -28.5333   19.2620 C   0  0  0  0  0  0  0  0  0  0  0  0
  -23.1964   -8.8975   22.4183 C   0  0  0  0  0  0  0  0  0  0  0  0
  -22.9029   -8.5430   20.0465 C   0  0  0  0  0  0  0  0  0  0  0  0
  -27.4098  -27.3066   19.4212 C   0  0  0  0  0  0  0  0  0  0  0  0
  -22.5732   -5.5762   22.5353 C   0  0  0  0  0  0  0  0  0  0  0  0
  -22.7098   -4.6271   23.5483 C   0  0  0  0  0  0  0  0  0  0  0  0
  -25.9192  -26.7683   21.2399 C   0  0  0  0  0  0  0  0  0  0  0  0
  -20.8560   -5.6253   24.7334 C   0  0  0  0  0  0  0  0  0  0  0  0
  -24.6824   -9.9694   20.8436 C   0  0  0  0  0  0  0  0  0  0  0  0
  -27.1583  -10.4530   20.4642 C   0  0  0  0  0  0  0  0  0  0  0  0
  -26.6281  -35.7712   22.4861 C   0  0  0  0  0  0  0  0  0  0  0  0
  -25.7005  -28.8920   20.0990 C   0  0  0  0  0  0  0  0  0  0  0  0
  -27.0097  -34.4328   22.2730 C   0  0  0  0  0  0  0  0  0  0  0  0
  -25.2628  -27.9991   21.0875 C   0  0  0  0  0  0  0  0  0  0  0  0
  -22.5054   -8.3038   21.3620 C   0  0  0  0  0  0  0  0  0  0  0  0
  -26.9879  -26.4250   20.4122 C   0  0  0  0  0  0  0  0  0  0  0  0
  -21.5781   -6.5499   22.6214 C   0  0  0  0  0  0  0  0  0  0  0  0
  -21.8512   -4.6516   24.6473 C   0  0  0  0  0  0  0  0  0  0  0  0
  -20.7195   -6.5744   23.7204 C   0  0  0  0  0  0  0  0  0  0  0  0
  -25.8065  -10.8300   20.5753 C   0  0  0  0  0  0  0  0  0  0  0  0
  -27.8221  -11.6273   20.2057 C   0  0  0  0  0  0  0  0  0  0  0  0
  -28.8410  -18.3581   21.2375 C   0  0  0  0  0  0  0  0  0  0  0  0
  -29.8303  -18.9259   20.5386 C   0  0  0  0  0  0  0  0  0  0  0  0
  -27.9210  -20.5744   21.6484 C   0  0  0  0  0  0  0  0  0  0  0  0
  -27.7601   -9.1572   20.5838 C   0  0  0  0  0  0  0  0  0  0  0  0
  -28.7119  -16.9024   21.4498 C   0  0  0  0  0  0  0  0  0  0  0  0
  -25.1819  -31.2224   22.1977 C   0  0  0  0  0  0  0  0  0  0  0  0
  -22.1990  -29.9508   22.2845 C   0  0  0  0  0  0  0  0  0  0  0  0
  -20.1931  -27.2326   21.8003 C   0  0  0  0  0  0  0  0  0  0  0  0
  -25.5716  -36.1438   23.4958 C   0  0  0  0  0  0  0  0  0  0  0  0
  -25.0002  -30.2078   19.8969 C   0  0  0  0  0  0  0  0  0  0  0  0
  -24.1096  -28.3280   21.9989 C   0  0  0  0  0  0  0  0  0  0  0  0
  -30.0016  -20.3949   20.2983 C   0  0  0  0  0  0  0  0  0  0  0  0
  -24.6856  -34.9720   23.9110 C   0  0  0  0  0  0  0  0  0  0  0  0
  -26.0908  -16.2038   18.9853 C   0  0  0  0  0  0  0  0  0  0  0  0
  -25.5355  -33.7441   24.2220 C   0  0  0  0  0  0  0  0  0  0  0  0
  -25.8654  -14.7112   19.2114 C   0  0  0  0  0  0  0  0  0  0  0  0
  -26.4422  -16.9318   20.2819 C   0  0  0  0  0  0  0  0  0  0  0  0
  -27.3773  -14.8423   21.2306 C   0  0  0  0  0  0  0  0  0  0  0  0
  -26.3209  -33.2893   22.9859 C   0  0  1  0  0  0  0  0  0  0  0  0
  -24.2580  -30.6868   21.1407 C   0  0  1  0  0  0  0  0  0  0  0  0
  -27.0686  -14.0820   19.9314 C   0  0  1  0  0  0  0  0  0  0  0  0
  -17.8041  -26.4884   21.9910 C   0  0  0  0  0  0  0  0  0  0  0  0
  -22.4998  -29.7700   25.3154 C   0  0  0  0  0  0  0  0  0  0  0  0
  -20.5559  -28.1925   25.3444 C   0  0  0  0  0  0  0  0  0  0  0  0
  -20.2496  -30.5317   24.5340 C   0  0  0  0  0  0  0  0  0  0  0  0
  -20.0249  -26.6407   18.9054 C   0  0  0  0  0  0  0  0  0  0  0  0
  -28.1740  -23.1200   19.5689 C   0  0  0  0  0  0  0  0  0  0  0  0
  -28.9860  -22.6583   20.7690 C   0  0  0  0  0  0  0  0  0  0  0  0
  -28.1853  -24.6342   19.4047 C   0  0  0  0  0  0  0  0  0  1  0  0
  -21.5169  -28.8793   23.1003 C   0  0  1  0  0  0  0  0  0  0  0  0
  -18.8682  -27.0746   21.0762 C   0  0  2  0  0  0  0  0  0  0  0  0
  -21.2285  -29.3377   24.5578 C   0  0  0  0  0  0  0  0  0  0  0  0
  -25.6209  -12.1413   20.4018 N   0  0  0  0  0  0  0  0  0  0  0  0
  -26.8649  -12.5985   20.1791 N   0  0  0  0  0  0  0  0  0  0  0  0
  -28.9430  -21.2113   20.9222 N   0  0  0  0  0  0  0  0  0  0  0  0
  -27.5577  -16.2769   20.9816 N   0  0  0  0  0  0  0  0  0  0  0  0
  -23.4614  -29.6292   21.7659 N   0  0  0  0  0  0  0  0  0  0  0  0
  -27.8947  -19.1849   21.7865 N   0  3  0  0  0  0  0  0  0  0  0  0
  -29.1254  -11.9136   20.0009 N   0  0  0  0  0  0  0  0  0  0  0  0
  -26.9062  -21.3194   22.2501 N   0  0  0  0  0  0  0  0  0  0  0  0
  -26.9324   -8.0582   20.8512 N   0  0  0  0  0  0  0  0  0  0  0  0
  -25.4566  -32.5710   22.0741 N   0  0  0  0  0  0  0  0  0  0  0  0
  -20.3278  -28.4899   22.3501 N   0  0  0  0  0  0  0  0  0  0  0  0
  -19.0251  -26.1733   19.8998 N   0  3  0  0  0  0  0  0  0  0  0  0
  -28.9973   -8.9816   20.4736 O   0  0  0  0  0  0  0  0  0  0  0  0
  -29.6331  -16.3290   22.0340 O   0  0  0  0  0  0  0  0  0  0  0  0
  -25.6125  -30.4682   23.0623 O   0  0  0  0  0  0  0  0  0  0  0  0
  -21.6296  -31.0306   22.1076 O   0  0  0  0  0  0  0  0  0  0  0  0
  -21.0236  -26.3297   21.8742 O   0  0  0  0  0  0  0  0  0  0  0  0
  -30.8135  -18.1360   19.9625 O   0  0  0  0  0  0  0  0  0  0  0  0
  -21.4432   -7.4910   21.6145 O   0  0  0  0  0  0  0  0  0  0  0  0
  -27.6142  -25.2272   20.5702 O   0  0  0  0  0  0  0  0  0  1  0  0
  -21.9815   -3.7392   25.6193 F   0  0  0  0  0  0  0  0  0  0  0  0
  -19.7608   -7.5067   23.8081 F   0  0  0  0  0  0  0  0  0  0  0  0
  1  2  1  0  0  0  0
  1  5  2  0  0  0  0
  2  6  2  0  0  0  0
  3  8  2  0  0  0  0
  3 15  1  0  0  0  0
  4  9  1  0  0  0  0
  4 15  2  0  0  0  0
  5 17  1  0  0  0  0
  6 19  1  0  0  0  0
  7 10  2  0  0  0  0
  7 18  1  0  0  0  0
  8 21  1  0  0  0  0
  9 21  2  0  0  0  0
 10 22  1  0  0  0  0
 11 12  2  0  0  0  0
 11 23  1  0  0  0  0
 12 24  1  0  0  0  0
 13 20  1  0  0  0  0
 13 22  2  0  0  0  0
 14 24  2  0  0  0  0
 14 25  1  0  0  0  0
 15 26  1  0  0  0  0
 16 26  1  0  0  0  0
 16 27  2  0  0  0  0
 16 31  1  0  0  0  0
 17 19  2  0  0  0  0
 17 36  1  0  0  0  0
 18 20  2  0  0  0  0
 18 37  1  0  0  0  0
 19 46  1  0  0  0  0
 20 38  1  0  0  0  0
 21 78  1  0  0  0  0
 22 79  1  0  0  0  0
 23 25  2  0  0  0  0
 23 78  1  0  0  0  0
 24 80  1  0  0  0  0
 25 81  1  0  0  0  0
 26 60  2  0  0  0  0
 27 61  1  0  0  0  0
 27 66  1  0  0  0  0
 28 29  2  0  0  0  0
 28 32  1  0  0  0  0
 28 65  1  0  0  0  0
 29 39  1  0  0  0  0
 29 77  1  0  0  0  0
 30 62  1  0  0  0  0
 30 65  2  0  0  0  0
 30 67  1  0  0  0  0
 31 68  1  0  0  0  0
 31 72  2  0  0  0  0
 32 63  1  0  0  0  0
 32 73  2  0  0  0  0
 33 47  1  0  0  0  0
 33 69  1  0  0  0  0
 33 74  2  0  0  0  0
 34 57  1  0  0  0  0
 34 64  1  0  0  0  0
 34 75  2  0  0  0  0
 35 58  1  0  0  0  0
 35 70  1  0  0  0  0
 35 76  2  0  0  0  0
 36 40  1  0  0  0  0
 37 47  1  0  0  0  0
 38 64  1  0  0  0  0
 39 62  1  0  0  0  0
 40 42  1  0  0  0  0
 41 43  1  0  0  0  0
 41 44  1  0  0  0  0
 42 46  1  0  0  0  0
 43 48  1  0  0  0  0
 44 63  1  0  0  0  0
 45 48  1  0  0  0  0
 45 63  1  0  0  0  0
 46 69  1  0  0  0  0
 47 64  1  0  0  0  0
 48 61  1  0  0  0  0
 49 58  1  0  0  0  0
 50 59  1  0  0  0  0
 51 59  1  0  0  0  0
 52 59  1  0  0  0  0
 53 71  1  0  0  0  0
 54 55  1  0  0  0  0
 54 56  1  0  0  0  0
 55 62  1  0  0  0  0
 56 79  1  0  0  0  0
 57 59  1  0  0  0  0
 57 70  1  0  0  0  0
 58 71  1  0  0  0  0
 60 61  1  0  0  0  0
M  CHG  2  65   1  71   1
M  ISO  4  28 100  32 100  56 101  79 101
M  END
> <Batch ID>
0092

> <Smiles>
CNC(C)C(=O)NC(C(=O)N1Cc2cc([101O:1][101CH2:1]CCN3CC(=O)[100CH:0]([100C:0](=O)N4CCCC(n5nc(-c6ccc(Oc7ccc(F)cc7F)cc6)c(C(N)=O)c5N)C4)N=C3N)ccc2CC1C(=O)NC1CCCc2ccccc21)C(C)(C)C

> <Shape>
0.350

> <Color>
0.084

> <Negative vol penalty>
0.000

$$$$

  -OEChem-04052300343D

 83 91  0     1  0  0  0  0  0999 V2000
  -27.1918  -24.0012   17.3803 C   0  0  0  0  0  0  0  0  0  0  0  0
  -26.0239  -24.4363   17.9985 C   0  0  0  0  0  0  0  0  0  0  0  0
  -25.1511  -14.8514   19.2683 C   0  0  0  0  0  0  0  0  0  0  0  0
  -27.3945  -14.8385   20.1648 C   0  0  0  0  0  0  0  0  0  0  0  0
  -22.4236  -25.0869   22.4020 C   0  0  0  0  0  0  0  0  0  0  0  0
  -28.4323  -24.3439   17.9166 C   0  0  0  0  0  0  0  0  0  0  0  0
  -26.0959  -25.2136   19.1539 C   0  0  0  0  0  0  0  0  0  0  0  0
  -22.9209  -29.1573   19.0433 C   0  0  0  0  0  0  0  0  0  0  0  0
  -23.5264  -24.2468   22.5552 C   0  0  0  0  0  0  0  0  0  0  0  0
  -25.0116  -13.5032   19.5978 C   0  0  0  0  0  0  0  0  0  0  0  0
  -27.2550  -13.4903   20.4944 C   0  0  0  0  0  0  0  0  0  0  0  0
  -21.5766  -28.9001   19.3088 C   0  0  0  0  0  0  0  0  0  0  0  0
  -25.9782  -10.5190   18.3392 C   0  0  0  0  0  0  0  0  0  0  0  0
  -25.4154   -9.6737   17.3830 C   0  0  0  0  0  0  0  0  0  0  0  0
  -20.9913  -23.1590   22.1394 C   0  0  0  0  0  0  0  0  0  0  0  0
  -21.8802  -29.6810   21.5709 C   0  0  0  0  0  0  0  0  0  0  0  0
  -23.6322   -9.1247   18.9179 C   0  0  0  0  0  0  0  0  0  0  0  0
  -26.3426  -15.5190   19.5517 C   0  0  0  0  0  0  0  0  0  0  0  0
  -21.1560  -24.5431   22.1942 C   0  0  0  0  0  0  0  0  0  0  0  0
  -26.3995  -17.4866   17.9291 C   0  0  0  0  0  0  0  0  0  0  0  0
  -28.5196  -25.1339   19.0737 C   0  0  0  0  0  0  0  0  0  0  0  0
  -23.7589  -29.6689   20.0445 C   0  0  0  0  0  0  0  0  0  0  0  0
  -27.3387  -25.5661   19.7069 C   0  0  0  0  0  0  0  0  0  0  0  0
  -23.2341  -29.9462   21.3149 C   0  0  0  0  0  0  0  0  0  0  0  0
  -23.3618  -22.8627   22.5004 C   0  0  0  0  0  0  0  0  0  0  0  0
  -26.0635  -12.8227   20.2109 C   0  0  0  0  0  0  0  0  0  0  0  0
  -21.0567  -29.1592   20.5735 C   0  0  0  0  0  0  0  0  0  0  0  0
  -25.3681  -10.6671   19.5848 C   0  0  0  0  0  0  0  0  0  0  0  0
  -24.2424   -8.9766   17.6723 C   0  0  0  0  0  0  0  0  0  0  0  0
  -22.0942  -22.3188   22.2925 C   0  0  0  0  0  0  0  0  0  0  0  0
  -24.1951   -9.9699   19.8741 C   0  0  0  0  0  0  0  0  0  0  0  0
  -26.4875  -16.9115   19.2110 C   0  0  0  0  0  0  0  0  0  0  0  0
  -26.6086  -18.8277   18.1394 C   0  0  0  0  0  0  0  0  0  0  0  0
  -19.9870  -25.4338   22.0317 C   0  0  0  0  0  0  0  0  0  0  0  0
  -26.1508  -16.8643   16.6616 C   0  0  0  0  0  0  0  0  0  0  0  0
  -26.3750  -28.6352   21.5248 C   0  0  0  0  0  0  0  0  0  0  0  0
  -26.3254  -31.5969   22.8469 C   0  0  0  0  0  0  0  0  0  0  0  0
  -24.5073  -34.3499   23.7199 C   0  0  0  0  0  0  0  0  0  0  0  0
  -25.8090  -22.3917   22.8684 C   0  0  0  0  0  0  0  0  0  0  0  0
  -19.3342  -27.7086   21.3019 C   0  0  0  0  0  0  0  0  0  1  0  0
  -29.8825  -25.4392   19.6430 C   0  0  0  0  0  0  0  0  0  0  0  0
  -25.2005  -29.9660   19.7344 C   0  0  0  0  0  0  0  0  0  0  0  0
  -24.0870  -30.5147   22.4184 C   0  0  0  0  0  0  0  0  0  0  0  0
  -29.8771  -26.5795   20.6579 C   0  0  0  0  0  0  0  0  0  0  0  0
  -28.8522  -21.8486   21.1017 C   0  0  0  0  0  0  0  0  0  0  0  0
  -28.7364  -26.4015   21.6548 C   0  0  0  0  0  0  0  0  0  0  0  0
  -28.5810  -20.5766   20.2951 C   0  0  0  0  0  0  0  0  0  0  0  0
  -28.1905  -21.7993   22.4778 C   0  0  0  0  0  0  0  0  0  0  0  0
  -26.4825  -20.2242   21.6586 C   0  0  0  0  0  0  0  0  0  0  0  0
  -27.3760  -26.4316   20.9477 C   0  0  1  0  0  0  0  0  0  0  0  0
  -26.0836  -30.0040   20.9779 C   0  0  1  0  0  0  0  0  0  0  0  0
  -27.0747  -20.2545   20.2401 C   0  0  2  0  0  0  0  0  0  0  0  0
  -24.7357  -36.5943   24.8190 C   0  0  0  0  0  0  0  0  0  0  0  0
  -26.4559  -30.2433   25.5784 C   0  0  0  0  0  0  0  0  0  0  0  0
  -25.7318  -32.4075   26.6080 C   0  0  0  0  0  0  0  0  0  0  0  0
  -27.8856  -32.2831   25.3556 C   0  0  0  0  0  0  0  0  0  0  0  0
  -23.6360  -35.7668   21.2719 C   0  0  0  0  0  0  0  0  0  0  0  0
  -25.7040  -32.2069   24.0801 C   0  0  1  0  0  0  0  0  0  0  0  0
  -24.7563  -35.8317   23.5034 C   0  0  2  0  0  0  0  0  0  0  0  0
  -26.4284  -31.7727   25.3855 C   0  0  0  0  0  0  0  0  0  0  0  0
  -26.7335  -17.8133   20.1650 N   0  0  0  0  0  0  0  0  0  0  0  0
  -26.8020  -18.9688   19.4821 N   0  0  0  0  0  0  0  0  0  0  0  0
  -25.4917  -30.7822   22.0679 N   0  0  0  0  0  0  0  0  0  0  0  0
  -26.7642  -21.4938   22.3468 N   0  0  0  0  0  0  0  0  0  0  0  0
  -26.6442  -19.8883   17.3049 N   0  0  0  0  0  0  0  0  0  0  0  0
  -24.8240  -16.7387   16.2278 N   0  0  0  0  0  0  0  0  0  0  0  0
  -24.4842  -22.0120   22.6558 N   0  0  0  0  0  0  0  0  0  0  0  0
  -20.2465  -26.7528   21.5071 N   0  0  0  0  0  0  0  0  0  0  0  0
  -27.0029  -27.7927   20.6273 N   0  0  0  0  0  0  0  0  0  0  0  0
  -25.6864  -33.6487   23.8578 N   0  0  0  0  0  0  0  0  0  0  0  0
  -18.0346  -27.6052   21.5464 N   0  3  0  0  0  0  0  0  0  0  0  0
  -23.7115  -36.4074   22.6101 N   0  3  0  0  0  0  0  0  0  0  0  0
  -18.8569  -25.0842   22.3394 O   0  0  0  0  0  0  0  0  0  0  0  0
  -27.0766  -16.4177   15.9427 O   0  0  0  0  0  0  0  0  0  0  0  0
  -26.0554  -28.3640   22.6763 O   0  0  0  0  0  0  0  0  0  0  0  0
  -27.5051  -31.8403   22.5807 O   0  0  0  0  0  0  0  0  0  0  0  0
  -23.3794  -33.8638   23.7660 O   0  0  0  0  0  0  0  0  0  0  0  0
  -26.1415  -23.4353   23.4363 O   0  0  0  0  0  0  0  0  0  0  0  0
  -25.9277  -11.5072   20.5328 O   0  0  0  0  0  0  0  0  0  0  0  0
  -19.7451  -28.9085   20.8355 O   0  0  0  0  0  0  0  0  0  1  0  0
  -23.7012   -8.1661   16.7534 F   0  0  0  0  0  0  0  0  0  0  0  0
  -21.9238  -20.9900   22.2375 F   0  0  0  0  0  0  0  0  0  0  0  0
  -23.6037  -10.1091   21.0686 F   0  0  0  0  0  0  0  0  0  0  0  0
  1  2  1  0  0  0  0
  1  6  2  0  0  0  0
  2  7  2  0  0  0  0
  3 10  2  0  0  0  0
  3 18  1  0  0  0  0
  4 11  1  0  0  0  0
  4 18  2  0  0  0  0
  5  9  2  0  0  0  0
  5 19  1  0  0  0  0
  6 21  1  0  0  0  0
  7 23  1  0  0  0  0
  8 12  2  0  0  0  0
  8 22  1  0  0  0  0
  9 25  1  0  0  0  0
 10 26  1  0  0  0  0
 11 26  2  0  0  0  0
 12 27  1  0  0  0  0
 13 14  2  0  0  0  0
 13 28  1  0  0  0  0
 14 29  1  0  0  0  0
 15 19  2  0  0  0  0
 15 30  1  0  0  0  0
 16 24  1  0  0  0  0
 16 27  2  0  0  0  0
 17 29  2  0  0  0  0
 17 31  1  0  0  0  0
 18 32  1  0  0  0  0
 19 34  1  0  0  0  0
 20 32  1  0  0  0  0
 20 33  2  0  0  0  0
 20 35  1  0  0  0  0
 21 23  2  0  0  0  0
 21 41  1  0  0  0  0
 22 24  2  0  0  0  0
 22 42  1  0  0  0  0
 23 50  1  0  0  0  0
 24 43  1  0  0  0  0
 25 30  2  0  0  0  0
 25 67  1  0  0  0  0
 26 79  1  0  0  0  0
 27 80  1  0  0  0  0
 28 31  2  0  0  0  0
 28 79  1  0  0  0  0
 29 81  1  0  0  0  0
 30 82  1  0  0  0  0
 31 83  1  0  0  0  0
 32 61  2  0  0  0  0
 33 62  1  0  0  0  0
 33 65  1  0  0  0  0
 34 68  1  0  0  0  0
 34 73  2  0  0  0  0
 35 66  1  0  0  0  0
 35 74  2  0  0  0  0
 36 51  1  0  0  0  0
 36 69  1  0  0  0  0
 36 75  2  0  0  0  0
 37 58  1  0  0  0  0
 37 63  1  0  0  0  0
 37 76  2  0  0  0  0
 38 59  1  0  0  0  0
 38 70  1  0  0  0  0
 38 77  2  0  0  0  0
 39 64  1  0  0  0  0
 39 67  1  0  0  0  0
 39 78  2  0  0  0  0
 40 68  1  0  0  0  0
 40 71  2  0  0  0  0
 40 80  1  0  0  0  0
 41 44  1  0  0  0  0
 42 51  1  0  0  0  0
 43 63  1  0  0  0  0
 44 46  1  0  0  0  0
 45 47  1  0  0  0  0
 45 48  1  0  0  0  0
 46 50  1  0  0  0  0
 47 52  1  0  0  0  0
 48 64  1  0  0  0  0
 49 52  1  0  0  0  0
 49 64  1  0  0  0  0
 50 69  1  0  0  0  0
 51 63  1  0  0  0  0
 52 62  1  0  0  0  0
 53 59  1  0  0  0  0
 54 60  1  0  0  0  0
 55 60  1  0  0  0  0
 56 60  1  0  0  0  0
 57 72  1  0  0  0  0
 58 60  1  0  0  0  0
 58 70  1  0  0  0  0
 59 72  1  0  0  0  0
 61 62  1  0  0  0  0
M  CHG  2  71   1  72   1
M  ISO  4  39 100  40 101  67 100  80 101
M  END
> <Batch ID>
0092

> <Smiles>
CNC(C)C(=O)NC(C(=O)N1Cc2cc([101O:1][101C:1](N)=NC(=O)c3ccc([100NH:0][100C:0](=O)N4CCCC(n5nc(-c6ccc(Oc7ccc(F)cc7F)cc6)c(C(N)=O)c5N)C4)c(F)c3)ccc2CC1C(=O)NC1CCCc2ccccc21)C(C)(C)C

> <Shape>
0.275

> <Color>
0.070

> <Negative vol penalty>
0.000

$$$$

  -OEChem-04052300343D

 86 94  0     1  0  0  0  0  0999 V2000
  -29.8448  -35.2791   18.7488 C   0  0  0  0  0  0  0  0  0  0  0  0
  -29.8882  -33.9018   18.9403 C   0  0  0  0  0  0  0  0  0  0  0  0
  -23.6787  -17.8065   20.7804 C   0  0  0  0  0  0  0  0  0  0  0  0
  -23.6158  -17.0590   18.4838 C   0  0  0  0  0  0  0  0  0  0  0  0
  -29.1863  -36.0897   19.6724 C   0  0  0  0  0  0  0  0  0  0  0  0
  -29.2738  -33.3344   20.0561 C   0  0  0  0  0  0  0  0  0  0  0  0
  -26.5855  -29.2009   18.9021 C   0  0  0  0  0  0  0  0  0  0  0  0
  -29.3145  -19.2029   19.3069 C   0  0  0  0  0  0  0  0  0  0  0  0
  -29.4208  -20.5904   19.2110 C   0  0  0  0  0  0  0  0  0  0  0  0
  -23.1933  -19.0538   20.3877 C   0  0  0  0  0  0  0  0  0  0  0  0
  -23.1304  -18.3063   18.0911 C   0  0  0  0  0  0  0  0  0  0  0  0
  -27.2934  -28.0171   18.6990 C   0  0  0  0  0  0  0  0  0  0  0  0
  -24.4155  -21.8675   18.9686 C   0  0  0  0  0  0  0  0  0  0  0  0
  -25.0324  -22.9993   19.5016 C   0  0  0  0  0  0  0  0  0  0  0  0
  -26.7335  -27.3057   20.9349 C   0  0  0  0  0  0  0  0  0  0  0  0
  -31.6063  -19.0795   20.0617 C   0  0  0  0  0  0  0  0  0  0  0  0
  -22.9306  -23.6863   20.4752 C   0  0  0  0  0  0  0  0  0  0  0  0
  -23.8900  -16.8091   19.8285 C   0  0  0  0  0  0  0  0  0  0  0  0
  -23.6365  -14.3971   20.6196 C   0  0  0  0  0  0  0  0  0  0  0  0
  -28.5553  -35.5311   20.7951 C   0  0  0  0  0  0  0  0  0  0  0  0
  -25.9543  -29.4512   20.1291 C   0  0  0  0  0  0  0  0  0  0  0  0
  -28.6073  -34.1385   20.9963 C   0  0  0  0  0  0  0  0  0  0  0  0
  -26.0160  -28.4923   21.1502 C   0  0  0  0  0  0  0  0  0  0  0  0
  -30.4073  -18.4474   19.7323 C   0  0  0  0  0  0  0  0  0  0  0  0
  -30.6198  -21.2224   19.5403 C   0  0  0  0  0  0  0  0  0  0  0  0
  -31.7126  -20.4670   19.9657 C   0  0  0  0  0  0  0  0  0  0  0  0
  -22.9192  -19.3037   19.0431 C   0  0  0  0  0  0  0  0  0  0  0  0
  -27.3700  -27.0706   19.7165 C   0  0  0  0  0  0  0  0  0  0  0  0
  -23.0561  -21.6452   19.1888 C   0  0  0  0  0  0  0  0  0  0  0  0
  -24.2900  -23.9087   20.2550 C   0  0  0  0  0  0  0  0  0  0  0  0
  -22.3138  -22.5545   19.9421 C   0  0  0  0  0  0  0  0  0  0  0  0
  -24.3919  -15.5206   20.2334 C   0  0  0  0  0  0  0  0  0  0  0  0
  -24.5740  -13.4351   20.9062 C   0  0  0  0  0  0  0  0  0  0  0  0
  -22.2146  -14.2374   20.7110 C   0  0  0  0  0  0  0  0  0  0  0  0
  -26.2561  -31.6567   22.3981 C   0  0  0  0  0  0  0  0  0  0  0  0
  -23.6506  -30.1761   23.6398 C   0  0  0  0  0  0  0  0  0  0  0  0
  -31.3972  -16.1649   19.6418 C   0  0  0  0  0  0  0  0  0  0  0  0
  -29.7053  -23.5129   19.0292 C   0  0  0  0  0  0  0  0  0  0  0  0
  -21.7591  -27.3443   23.8629 C   0  0  0  0  0  0  0  0  0  0  0  0
  -29.1179  -16.4912   20.4098 C   0  0  0  0  0  0  0  0  0  0  0  0
  -27.8962  -36.4524   21.7908 C   0  0  0  0  0  0  0  0  0  0  0  0
  -25.1721  -30.7212   20.3230 C   0  0  0  0  0  0  0  0  0  0  0  0
  -25.3389  -28.7039   22.4788 C   0  0  0  0  0  0  0  0  0  0  0  0
  -26.9493  -35.7356   22.7499 C   0  0  0  0  0  0  0  0  0  0  0  0
  -28.1660  -13.4683   18.5138 C   0  0  0  0  0  0  0  0  0  0  0  0
  -27.6048  -34.4748   23.3045 C   0  0  0  0  0  0  0  0  0  0  0  0
  -27.5818  -12.5841   19.6091 C   0  0  0  0  0  0  0  0  0  0  0  0
  -29.2969  -14.3474   19.0378 C   0  0  0  0  0  0  0  0  0  0  0  0
  -28.2732  -14.3412   21.3098 C   0  0  0  0  0  0  0  0  0  0  0  0
  -27.9316  -33.4832   22.1813 C   0  0  1  0  0  0  0  0  0  0  0  0
  -25.0000  -31.0986   21.7911 C   0  0  1  0  0  0  0  0  0  0  0  0
  -27.1594  -13.3822   20.8520 C   0  0  1  0  0  0  0  0  0  0  0  0
  -32.2769  -16.4470   18.4431 C   0  0  0  0  0  0  0  0  0  0  0  0
  -19.7104  -26.4272   24.9849 C   0  0  0  0  0  0  0  0  0  0  0  0
  -25.2065  -29.9003   26.2500 C   0  0  0  0  0  0  0  0  0  0  0  0
  -23.5327  -28.1900   26.9859 C   0  0  0  0  0  0  0  0  0  0  0  0
  -22.8029  -30.5314   26.5300 C   0  0  0  0  0  0  0  0  0  0  0  0
  -20.4175  -26.8540   21.2709 C   0  0  0  0  0  0  0  0  0  0  0  0
  -30.2167  -24.9487   19.0603 C   0  0  0  0  0  0  0  0  0  0  0  0
  -29.1713  -25.9649   18.6262 C   0  0  0  0  0  0  0  0  0  1  0  0
  -23.4268  -29.0287   24.5950 C   0  0  1  0  0  0  0  0  0  0  0  0
  -20.2618  -27.1215   23.7494 C   0  0  2  0  0  0  0  0  0  0  0  0
  -23.7567  -29.4092   26.0660 C   0  0  0  0  0  0  0  0  0  0  0  0
  -25.7078  -15.2947   20.2704 N   0  0  0  0  0  0  0  0  0  0  0  0
  -25.7867  -14.0182   20.6833 N   0  0  0  0  0  0  0  0  0  0  0  0
  -24.5916  -29.9643   22.6222 N   0  0  0  0  0  0  0  0  0  0  0  0
  -28.8986  -15.1087   20.2288 N   0  0  0  0  0  0  0  0  0  0  0  0
  -32.9364  -21.0868   20.3046 N   0  0  0  0  0  0  0  0  0  0  0  0
  -24.4712  -12.1558   21.3247 N   0  0  0  0  0  0  0  0  0  0  0  0
  -21.3973  -15.3266   20.3796 N   0  0  0  0  0  0  0  0  0  0  0  0
  -30.7034  -22.6313   19.4353 N   0  0  0  0  0  0  0  0  0  0  0  0
  -26.7363  -32.7845   21.7602 N   0  0  0  0  0  0  0  0  0  0  0  0
  -22.0526  -28.5858   24.3861 N   0  0  0  0  0  0  0  0  0  0  0  0
  -30.2969  -17.0122   19.8317 N   0  0  0  0  0  0  0  0  0  0  0  0
  -19.9521  -26.2795   22.5595 N   0  3  0  0  0  0  0  0  0  0  0  0
  -21.6851  -13.1658   21.0915 O   0  0  0  0  0  0  0  0  0  0  0  0
  -26.7520  -31.1057   23.3739 O   0  0  0  0  0  0  0  0  0  0  0  0
  -23.0089  -31.2192   23.7868 O   0  0  0  0  0  0  0  0  0  0  0  0
  -31.6469  -15.1981   20.3673 O   0  0  0  0  0  0  0  0  0  0  0  0
  -28.5617  -23.2346   18.6840 O   0  0  0  0  0  0  0  0  0  0  0  0
  -22.5857  -26.4998   23.5250 O   0  0  0  0  0  0  0  0  0  0  0  0
  -28.3638  -17.2011   21.0867 O   0  0  0  0  0  0  0  0  0  0  0  0
  -22.4453  -20.5207   18.6595 O   0  0  0  0  0  0  0  0  0  0  0  0
  -28.0608  -25.9146   19.5211 O   0  0  0  0  0  0  0  0  0  1  0  0
  -24.8828  -24.9946   20.7681 F   0  0  0  0  0  0  0  0  0  0  0  0
  -21.0078  -22.3457   20.1580 F   0  0  0  0  0  0  0  0  0  0  0  0
  1  2  1  0  0  0  0
  1  5  2  0  0  0  0
  2  6  2  0  0  0  0
  3 10  2  0  0  0  0
  3 18  1  0  0  0  0
  4 11  1  0  0  0  0
  4 18  2  0  0  0  0
  5 20  1  0  0  0  0
  6 22  1  0  0  0  0
  7 12  2  0  0  0  0
  7 21  1  0  0  0  0
  8  9  2  0  0  0  0
  8 24  1  0  0  0  0
  9 25  1  0  0  0  0
 10 27  1  0  0  0  0
 11 27  2  0  0  0  0
 12 28  1  0  0  0  0
 13 14  2  0  0  0  0
 13 29  1  0  0  0  0
 14 30  1  0  0  0  0
 15 23  1  0  0  0  0
 15 28  2  0  0  0  0
 16 24  2  0  0  0  0
 16 26  1  0  0  0  0
 17 30  2  0  0  0  0
 17 31  1  0  0  0  0
 18 32  1  0  0  0  0
 19 32  1  0  0  0  0
 19 33  2  0  0  0  0
 19 34  1  0  0  0  0
 20 22  2  0  0  0  0
 20 41  1  0  0  0  0
 21 23  2  0  0  0  0
 21 42  1  0  0  0  0
 22 50  1  0  0  0  0
 23 43  1  0  0  0  0
 24 74  1  0  0  0  0
 25 26  2  0  0  0  0
 25 71  1  0  0  0  0
 26 68  1  0  0  0  0
 27 83  1  0  0  0  0
 28 84  1  0  0  0  0
 29 31  2  0  0  0  0
 29 83  1  0  0  0  0
 30 85  1  0  0  0  0
 31 86  1  0  0  0  0
 32 64  2  0  0  0  0
 33 65  1  0  0  0  0
 33 69  1  0  0  0  0
 34 70  1  0  0  0  0
 34 76  2  0  0  0  0
 35 51  1  0  0  0  0
 35 72  1  0  0  0  0
 35 77  2  0  0  0  0
 36 61  1  0  0  0  0
 36 66  1  0  0  0  0
 36 78  2  0  0  0  0
 37 53  1  0  0  0  0
 37 74  1  0  0  0  0
 37 79  2  0  0  0  0
 38 59  1  0  0  0  0
 38 71  1  0  0  0  0
 38 80  2  0  0  0  0
 39 62  1  0  0  0  0
 39 73  1  0  0  0  0
 39 81  2  0  0  0  0
 40 67  1  0  0  0  0
 40 74  1  0  0  0  0
 40 82  2  0  0  0  0
 41 44  1  0  0  0  0
 42 51  1  0  0  0  0
 43 66  1  0  0  0  0
 44 46  1  0  0  0  0
 45 47  1  0  0  0  0
 45 48  1  0  0  0  0
 46 50  1  0  0  0  0
 47 52  1  0  0  0  0
 48 67  1  0  0  0  0
 49 52  1  0  0  0  0
 49 67  1  0  0  0  0
 50 72  1  0  0  0  0
 51 66  1  0  0  0  0
 52 65  1  0  0  0  0
 54 62  1  0  0  0  0
 55 63  1  0  0  0  0
 56 63  1  0  0  0  0
 57 63  1  0  0  0  0
 58 75  1  0  0  0  0
 59 60  1  0  0  0  0
 60 84  1  0  0  0  0
 61 63  1  0  0  0  0
 61 73  1  0  0  0  0
 62 75  1  0  0  0  0
 64 65  1  0  0  0  0
M  CHG  1  75   1
M  ISO  4  40 100  60 101  74 100  84 101
M  END
> <Batch ID>
0092

> <Smiles>
CNC(C)C(=O)NC(C(=O)N1Cc2cc([101O:1][101CH2:1]CC(=O)Nc3ccc([100N:0](C(C)=O)[100C:0](=O)N4CCCC(n5nc(-c6ccc(Oc7ccc(F)cc7F)cc6)c(C(N)=O)c5N)C4)cc3N)ccc2CC1C(=O)NC1CCCc2ccccc21)C(C)(C)C

> <Shape>
0.249

> <Color>
0.084

> <Negative vol penalty>
0.000

$$$$

  -OEChem-04052300343D

 89 98  0     1  0  0  0  0  0999 V2000
  -21.7402  -12.0773   21.6728 C   0  0  0  0  0  0  0  0  0  0  0  0
  -21.9784  -13.3000   22.2921 C   0  0  0  0  0  0  0  0  0  0  0  0
  -29.9226  -28.4131   21.2810 C   0  0  0  0  0  0  0  0  0  0  0  0
  -28.0180  -26.9306   21.1717 C   0  0  0  0  0  0  0  0  0  0  0  0
  -19.1299  -26.9932   23.3999 C   0  0  0  0  0  0  0  0  0  0  0  0
  -22.7482  -11.4662   20.9282 C   0  0  0  0  0  0  0  0  0  0  0  0
  -23.2252  -13.9119   22.1681 C   0  0  0  0  0  0  0  0  0  0  0  0
  -22.8684  -18.8647   21.1743 C   0  0  0  0  0  0  0  0  0  0  0  0
  -19.1959  -25.7257   23.9784 C   0  0  0  0  0  0  0  0  0  0  0  0
  -30.6919  -27.4755   20.5920 C   0  0  0  0  0  0  0  0  0  0  0  0
  -28.7873  -25.9931   20.4826 C   0  0  0  0  0  0  0  0  0  0  0  0
  -22.5686  -19.7085   22.2429 C   0  0  0  0  0  0  0  0  0  0  0  0
  -31.1011  -26.4554   17.3944 C   0  0  0  0  0  0  0  0  0  0  0  0
  -31.9073  -26.9171   16.3540 C   0  0  0  0  0  0  0  0  0  0  0  0
  -24.9020  -20.2909   22.4299 C   0  0  0  0  0  0  0  0  0  0  0  0
  -21.4789  -26.1491   24.6460 C   0  0  0  0  0  0  0  0  0  0  0  0
  -33.8642  -26.0861   17.5016 C   0  0  0  0  0  0  0  0  0  0  0  0
  -28.5856  -28.1406   21.5709 C   0  0  0  0  0  0  0  0  0  0  0  0
  -20.2385  -27.8387   23.4444 C   0  0  0  0  0  0  0  0  0  0  0  0
  -28.0287  -29.6208   23.5725 C   0  0  0  0  0  0  0  0  0  0  0  0
  -24.0050  -12.0756   20.7870 C   0  0  0  0  0  0  0  0  0  0  0  0
  -24.1910  -18.7190   20.7318 C   0  0  0  0  0  0  0  0  0  0  0  0
  -24.2514  -13.3078   21.4221 C   0  0  0  0  0  0  0  0  0  0  0  0
  -25.2157  -19.4466   21.3539 C   0  0  0  0  0  0  0  0  0  0  0  0
  -20.3703  -25.3036   24.6014 C   0  0  0  0  0  0  0  0  0  0  0  0
  -30.1242  -26.2655   20.1928 C   0  0  0  0  0  0  0  0  0  0  0  0
  -23.5858  -20.4196   22.8727 C   0  0  0  0  0  0  0  0  0  0  0  0
  -31.6764  -25.8091   18.4884 C   0  0  0  0  0  0  0  0  0  0  0  0
  -21.4130  -27.4167   24.0675 C   0  0  0  0  0  0  0  0  0  0  0  0
  -33.2888  -26.7324   16.4076 C   0  0  0  0  0  0  0  0  0  0  0  0
  -33.0579  -25.6244   18.5421 C   0  0  0  0  0  0  0  0  0  0  0  0
  -27.7906  -29.1085   22.2831 C   0  0  0  0  0  0  0  0  0  0  0  0
  -26.9958  -30.4999   23.7889 C   0  0  0  0  0  0  0  0  0  0  0  0
  -21.4913  -21.8419   25.3489 C   0  0  0  0  0  0  0  0  0  0  0  0
  -20.3561  -21.3595   26.1849 C   0  0  0  0  0  0  0  0  0  0  0  0
  -22.2308  -20.9248   24.7110 C   0  0  0  0  0  0  0  0  0  1  0  0
  -20.1464  -29.1849   22.8230 C   0  0  0  0  0  0  0  0  0  0  0  0
  -29.0889  -29.3284   24.4924 C   0  0  0  0  0  0  0  0  0  0  0  0
  -26.2400  -16.2961   20.5454 C   0  0  0  0  0  0  0  0  0  0  0  0
  -28.0835  -18.4823   19.0143 C   0  0  0  0  0  0  0  0  0  0  0  0
  -29.6197  -21.2673   17.7771 C   0  0  0  0  0  0  0  0  0  0  0  0
  -21.4635  -30.9256   21.6573 C   0  0  0  0  0  0  0  0  0  0  0  0
  -25.0786  -11.3541   20.0115 C   0  0  0  0  0  0  0  0  0  0  0  0
  -24.4942  -17.8253   19.5606 C   0  0  0  0  0  0  0  0  0  0  0  0
  -26.6491  -19.3409   20.9039 C   0  0  0  0  0  0  0  0  0  0  0  0
  -21.7171  -23.3219   25.2378 C   0  0  0  0  0  0  0  0  0  0  0  0
  -19.1245  -22.2331   26.2107 C   0  0  0  0  0  0  0  0  0  0  0  0
  -26.2515  -12.2485   19.6186 C   0  0  0  0  0  0  0  0  0  0  0  0
  -23.9846  -33.3937   21.4358 C   0  0  0  0  0  0  0  0  0  0  0  0
  -26.7053  -13.0874   20.8091 C   0  0  0  0  0  0  0  0  0  0  0  0
  -25.2697  -32.6274   21.7607 C   0  0  0  0  0  0  0  0  0  0  0  0
  -19.4715  -23.7149   26.2417 C   0  0  0  0  0  0  0  0  0  0  0  0
  -23.0148  -32.5506   20.6092 C   0  0  0  0  0  0  0  0  0  0  0  0
  -23.9856  -30.4681   21.4917 C   0  0  0  0  0  0  0  0  0  0  0  0
  -25.5829  -14.0148   21.2903 C   0  0  1  0  0  0  0  0  0  0  0  0
  -25.9464  -17.3592   19.5249 C   0  0  1  0  0  0  0  0  0  0  0  0
  -24.9649  -31.2496   22.3823 C   0  0  1  0  0  0  0  0  0  0  0  0
  -31.7833  -22.0390   16.7667 C   0  0  0  0  0  0  0  0  0  0  0  0
  -29.3907  -18.4185   21.7705 C   0  0  0  0  0  0  0  0  0  0  0  0
  -31.1100  -20.0251   20.9155 C   0  0  0  0  0  0  0  0  0  0  0  0
  -30.8981  -17.7630   19.8857 C   0  0  0  0  0  0  0  0  0  0  0  0
  -28.2878  -22.0880   15.2649 C   0  0  0  0  0  0  0  0  0  0  0  0
  -23.6630  -27.7138   24.7780 C   0  0  0  0  0  0  0  0  0  0  0  0
  -29.1143  -19.4989   19.4420 C   0  0  1  0  0  0  0  0  0  0  0  0
  -30.3861  -21.5066   16.4888 C   0  0  2  0  0  0  0  0  0  0  0  0
  -30.1006  -18.9328   20.5023 C   0  0  0  0  0  0  0  0  0  0  0  0
  -26.6924  -29.6194   21.7200 N   0  0  0  0  0  0  0  0  0  0  0  0
  -26.2313  -30.4619   22.6600 N   0  0  0  0  0  0  0  0  0  0  0  0
  -20.4360  -24.0329   25.1823 N   0  0  1  0  0  0  0  0  0  0  0  0
  -26.8958  -18.4492   19.7586 N   0  0  0  0  0  0  0  0  0  0  0  0
  -22.7710  -31.2672   21.2701 N   0  0  0  0  0  0  0  0  0  0  0  0
  -26.6760  -31.2940   24.8327 N   0  0  0  0  0  0  0  0  0  0  0  0
  -28.9101  -28.2817   25.4071 N   0  0  0  0  0  0  0  0  0  0  0  0
  -21.3416  -29.6987   22.3191 N   0  0  0  0  0  0  0  0  0  0  0  0
  -25.4636  -15.1606   20.4142 N   0  0  0  0  0  0  0  0  0  0  0  0
  -29.7566  -19.9684   18.2190 N   0  0  0  0  0  0  0  0  0  0  0  0
  -29.6680  -22.4945   15.6348 N   0  3  0  0  0  0  0  0  0  0  0  0
  -20.3880  -20.2750   26.7617 O   0  0  0  0  0  0  0  0  0  0  0  0
  -19.0520  -29.7375   22.7528 O   0  0  0  0  0  0  0  0  0  0  0  0
  -30.1565  -29.9867   24.5138 O   0  0  0  0  0  0  0  0  0  0  0  0
  -27.1078  -16.4910   21.3884 O   0  0  0  0  0  0  0  0  0  0  0  0
  -28.3204  -17.7495   18.0506 O   0  0  0  0  0  0  0  0  0  0  0  0
  -28.9681  -22.1459   18.3376 O   0  0  0  0  0  0  0  0  0  0  0  0
  -20.4938  -31.6658   21.4648 O   0  0  0  0  0  0  0  0  0  0  0  0
  -30.8745  -25.3506   19.5202 O   0  0  0  0  0  0  0  0  0  0  0  0
  -23.2960  -21.2434   23.9163 O   0  0  0  0  0  0  0  0  0  1  0  0
  -22.5066  -28.2283   24.1213 O   0  0  0  0  0  0  0  0  0  0  0  0
  -34.0627  -27.1745   15.4077 F   0  0  0  0  0  0  0  0  0  0  0  0
  -33.6163  -25.0032   19.5900 F   0  0  0  0  0  0  0  0  0  0  0  0
  1  2  1  0  0  0  0
  1  6  2  0  0  0  0
  2  7  2  0  0  0  0
  3 10  2  0  0  0  0
  3 18  1  0  0  0  0
  4 11  1  0  0  0  0
  4 18  2  0  0  0  0
  5  9  2  0  0  0  0
  5 19  1  0  0  0  0
  6 21  1  0  0  0  0
  7 23  1  0  0  0  0
  8 12  2  0  0  0  0
  8 22  1  0  0  0  0
  9 25  1  0  0  0  0
 10 26  1  0  0  0  0
 11 26  2  0  0  0  0
 12 27  1  0  0  0  0
 13 14  2  0  0  0  0
 13 28  1  0  0  0  0
 14 30  1  0  0  0  0
 15 24  1  0  0  0  0
 15 27  2  0  0  0  0
 16 25  2  0  0  0  0
 16 29  1  0  0  0  0
 17 30  2  0  0  0  0
 17 31  1  0  0  0  0
 18 32  1  0  0  0  0
 19 29  2  0  0  0  0
 19 37  1  0  0  0  0
 20 32  1  0  0  0  0
 20 33  2  0  0  0  0
 20 38  1  0  0  0  0
 21 23  2  0  0  0  0
 21 43  1  0  0  0  0
 22 24  2  0  0  0  0
 22 44  1  0  0  0  0
 23 55  1  0  0  0  0
 24 45  1  0  0  0  0
 25 69  1  0  0  0  0
 26 85  1  0  0  0  0
 27 86  1  0  0  0  0
 28 31  2  0  0  0  0
 28 85  1  0  0  0  0
 29 87  1  0  0  0  0
 30 88  1  0  0  0  0
 31 89  1  0  0  0  0
 32 67  2  0  0  0  0
 33 68  1  0  0  0  0
 33 72  1  0  0  0  0
 34 35  1  0  0  0  0
 34 36  2  0  0  0  0
 34 46  1  0  0  0  0
 35 47  1  0  0  0  0
 35 78  2  0  0  0  0
 36 86  1  0  0  0  0
 37 74  1  0  0  0  0
 37 79  2  0  0  0  0
 38 73  1  0  0  0  0
 38 80  2  0  0  0  0
 39 56  1  0  0  0  0
 39 75  1  0  0  0  0
 39 81  2  0  0  0  0
 40 64  1  0  0  0  0
 40 70  1  0  0  0  0
 40 82  2  0  0  0  0
 41 65  1  0  0  0  0
 41 76  1  0  0  0  0
 41 83  2  0  0  0  0
 42 71  1  0  0  0  0
 42 74  1  0  0  0  0
 42 84  2  0  0  0  0
 43 48  1  0  0  0  0
 44 56  1  0  0  0  0
 45 70  1  0  0  0  0
 46 69  1  0  0  0  0
 47 52  1  0  0  0  0
 48 50  1  0  0  0  0
 49 51  1  0  0  0  0
 49 53  1  0  0  0  0
 50 55  1  0  0  0  0
 51 57  1  0  0  0  0
 52 69  1  0  0  0  0
 53 71  1  0  0  0  0
 54 57  1  0  0  0  0
 54 71  1  0  0  0  0
 55 75  1  0  0  0  0
 56 70  1  0  0  0  0
 57 68  1  0  0  0  0
 58 65  1  0  0  0  0
 59 66  1  0  0  0  0
 60 66  1  0  0  0  0
 61 66  1  0  0  0  0
 62 77  1  0  0  0  0
 63 87  1  0  0  0  0
 64 66  1  0  0  0  0
 64 76  1  0  0  0  0
 65 77  1  0  0  0  0
 67 68  1  0  0  0  0
M  CHG  1  77   1
M  ISO  4  36 101  42 100  74 100  86 101
M  END
> <Batch ID>
0092

> <Smiles>
CNC(C)C(=O)NC(C(=O)N1Cc2cc([101O:1][101CH:1]=C3CN(c4ccc(C(=O)[100NH:0][100C:0](=O)N5CCCC(n6nc(-c7ccc(Oc8ccc(F)cc8F)cc7)c(C(N)=O)c6N)C5)c(OC)c4)CCC3=O)ccc2CC1C(=O)NC1CCCc2ccccc21)C(C)(C)C

> <Shape>
0.246

> <Color>
0.082

> <Negative vol penalty>
0.000

$$$$

  -OEChem-04052300343D

 86 94  0     1  0  0  0  0  0999 V2000
  -29.4353  -31.8666   22.8528 C   0  0  0  0  0  0  0  0  0  0  0  0
  -29.0026  -30.7372   22.1653 C   0  0  0  0  0  0  0  0  0  0  0  0
  -23.0991  -10.9046   18.0392 C   0  0  0  0  0  0  0  0  0  0  0  0
  -22.7316  -10.2353   20.3313 C   0  0  0  0  0  0  0  0  0  0  0  0
  -30.0377  -19.4855   19.2623 C   0  0  0  0  0  0  0  0  0  0  0  0
  -28.6817  -32.3668   23.9138 C   0  0  0  0  0  0  0  0  0  0  0  0
  -27.8165  -30.1066   22.5393 C   0  0  0  0  0  0  0  0  0  0  0  0
  -24.9244  -28.8927   18.5634 C   0  0  0  0  0  0  0  0  0  0  0  0
  -29.2236  -20.5363   18.8396 C   0  0  0  0  0  0  0  0  0  0  0  0
  -22.1903   -9.9370   17.6109 C   0  0  0  0  0  0  0  0  0  0  0  0
  -21.8227   -9.2677   19.9031 C   0  0  0  0  0  0  0  0  0  0  0  0
  -25.2873  -27.7615   17.8338 C   0  0  0  0  0  0  0  0  0  0  0  0
  -18.8328   -9.5756   17.4393 C   0  0  0  0  0  0  0  0  0  0  0  0
  -17.8929   -9.9490   16.4787 C   0  0  0  0  0  0  0  0  0  0  0  0
  -28.6921  -17.9321   17.9923 C   0  0  0  0  0  0  0  0  0  0  0  0
  -23.5959  -26.4837   18.9850 C   0  0  0  0  0  0  0  0  0  0  0  0
  -18.7533   -8.2603   14.9803 C   0  0  0  0  0  0  0  0  0  0  0  0
  -23.3697  -11.0538   19.3994 C   0  0  0  0  0  0  0  0  0  0  0  0
  -29.7720  -18.1834   18.8386 C   0  0  0  0  0  0  0  0  0  0  0  0
  -24.0292  -13.3885   20.1878 C   0  0  0  0  0  0  0  0  0  0  0  0
  -27.4808  -31.7476   24.2948 C   0  0  0  0  0  0  0  0  0  0  0  0
  -23.9001  -28.8252   19.5187 C   0  0  0  0  0  0  0  0  0  0  0  0
  -27.0468  -30.5981   23.6073 C   0  0  0  0  0  0  0  0  0  0  0  0
  -23.2201  -27.6161   19.7236 C   0  0  0  0  0  0  0  0  0  0  0  0
  -28.1437  -20.2850   17.9933 C   0  0  0  0  0  0  0  0  0  0  0  0
  -21.5521   -9.1186   18.5428 C   0  0  0  0  0  0  0  0  0  0  0  0
  -24.6250  -26.5560   18.0466 C   0  0  0  0  0  0  0  0  0  0  0  0
  -19.7330   -8.5445   17.1703 C   0  0  0  0  0  0  0  0  0  0  0  0
  -17.8531   -9.2914   15.2492 C   0  0  0  0  0  0  0  0  0  0  0  0
  -27.8779  -18.9829   17.5696 C   0  0  0  0  0  0  0  0  0  0  0  0
  -19.6932   -7.8869   15.9409 C   0  0  0  0  0  0  0  0  0  0  0  0
  -24.3088  -12.0527   19.8424 C   0  0  0  0  0  0  0  0  0  0  0  0
  -25.2485  -13.9151   20.5379 C   0  0  0  0  0  0  0  0  0  0  0  0
  -25.9473  -24.6366   17.8517 C   0  0  0  0  0  0  0  0  0  1  0  0
  -30.6389  -17.0643   19.2890 C   0  0  0  0  0  0  0  0  0  0  0  0
  -22.7791  -14.0906   20.1919 C   0  0  0  0  0  0  0  0  0  0  0  0
  -26.3712  -23.5247   17.2387 C   0  0  0  0  0  0  0  0  0  0  0  0
  -27.4405  -22.6985   17.8885 C   0  0  0  0  0  0  0  0  0  0  0  0
  -23.7309  -29.2703   22.6615 C   0  0  0  0  0  0  0  0  0  0  0  0
  -20.5508  -28.8825   22.1525 C   0  0  0  0  0  0  0  0  0  0  0  0
  -18.0646  -27.6104   20.1910 C   0  0  0  0  0  0  0  0  0  0  0  0
  -30.6778  -14.6225   19.6888 C   0  0  0  0  0  0  0  0  0  0  0  0
  -26.7245  -32.2969   25.4784 C   0  0  0  0  0  0  0  0  0  0  0  0
  -23.5025  -30.0609   20.2784 C   0  0  0  0  0  0  0  0  0  0  0  0
  -22.0998  -27.4959   20.7231 C   0  0  0  0  0  0  0  0  0  0  0  0
  -25.2874  -31.7907   25.5712 C   0  0  0  0  0  0  0  0  0  0  0  0
  -29.7081  -11.6530   21.3437 C   0  0  0  0  0  0  0  0  0  0  0  0
  -25.2387  -30.2806   25.3611 C   0  0  0  0  0  0  0  0  0  0  0  0
  -28.1917  -11.6033   21.1375 C   0  0  0  0  0  0  0  0  0  0  0  0
  -30.4311  -12.1920   20.1101 C   0  0  0  0  0  0  0  0  0  0  0  0
  -28.4225  -13.4266   19.4036 C   0  0  0  0  0  0  0  0  0  0  0  0
  -25.7528  -29.9007   23.9672 C   0  0  1  0  0  0  0  0  0  0  0  0
  -22.7913  -29.7517   21.5922 C   0  0  1  0  0  0  0  0  0  0  0  0
  -27.6435  -12.9569   20.6428 C   0  0  1  0  0  0  0  0  0  0  0  0
  -15.5660  -27.4217   20.0529 C   0  0  0  0  0  0  0  0  0  0  0  0
  -20.5979  -26.7175   24.3020 C   0  0  0  0  0  0  0  0  0  0  0  0
  -18.3727  -25.9343   23.4635 C   0  0  0  0  0  0  0  0  0  0  0  0
  -18.6131  -28.2362   24.3943 C   0  0  0  0  0  0  0  0  0  0  0  0
  -17.9778  -29.0944   17.6318 C   0  0  0  0  0  0  0  0  0  0  0  0
  -19.6073  -27.7042   22.1315 C   0  0  1  0  0  0  0  0  0  0  0  0
  -16.7889  -28.2322   19.6522 C   0  0  2  0  0  0  0  0  0  0  0  0
  -19.3201  -27.1495   23.5553 C   0  0  0  0  0  0  0  0  0  0  0  0
  -25.6041  -11.7495   19.9620 N   0  0  0  0  0  0  0  0  0  0  0  0
  -26.1493  -12.9022   20.3865 N   0  0  0  0  0  0  0  0  0  0  0  0
  -21.7521  -28.7306   21.4457 N   0  0  0  0  0  0  0  0  0  0  0  0
  -29.8595  -13.4796   19.7118 N   0  0  0  0  0  0  0  0  0  0  0  0
  -25.6273  -15.1410   20.9573 N   0  0  0  0  0  0  0  0  0  0  0  0
  -21.6233  -13.3993   19.8039 N   0  0  0  0  0  0  0  0  0  0  0  0
  -27.3190  -21.3537   17.5666 N   0  0  0  0  0  0  0  0  0  0  0  0
  -30.0282  -15.8108   19.3364 N   0  0  0  0  0  0  0  0  0  0  0  0
  -24.7408  -30.1628   22.9664 N   0  0  0  0  0  0  0  0  0  0  0  0
  -18.4181  -28.1462   21.4113 N   0  0  0  0  0  0  0  0  0  0  0  0
  -16.8368  -28.3061   18.1645 N   0  3  0  0  0  0  0  0  0  0  0  0
  -31.8181  -17.2883   19.5483 O   0  0  0  0  0  0  0  0  0  0  0  0
  -22.6922  -15.2999   20.5138 O   0  0  0  0  0  0  0  0  0  0  0  0
  -28.2887  -23.2173   18.6062 O   0  0  0  0  0  0  0  0  0  0  0  0
  -23.5518  -28.1712   23.1730 O   0  0  0  0  0  0  0  0  0  0  0  0
  -20.2304  -29.9028   22.7672 O   0  0  0  0  0  0  0  0  0  0  0  0
  -18.6834  -26.7342   19.5912 O   0  0  0  0  0  0  0  0  0  0  0  0
  -31.8745  -14.5948   19.9928 O   0  0  0  0  0  0  0  0  0  0  0  0
  -25.8607  -23.1045   16.0273 O   0  0  0  0  0  0  0  0  0  0  0  0
  -20.6651   -8.1744   18.1253 O   0  0  0  0  0  0  0  0  0  0  0  0
  -24.9777  -25.4502   17.3362 O   0  0  0  0  0  0  0  0  0  1  0  0
  -16.9494   -9.6491   14.3275 F   0  0  0  0  0  0  0  0  0  0  0  0
  -26.8423  -18.7292   16.7565 F   0  0  0  0  0  0  0  0  0  0  0  0
  -20.5547   -6.8949   15.6772 F   0  0  0  0  0  0  0  0  0  0  0  0
  1  2  1  0  0  0  0
  1  6  2  0  0  0  0
  2  7  2  0  0  0  0
  3 10  2  0  0  0  0
  3 18  1  0  0  0  0
  4 11  1  0  0  0  0
  4 18  2  0  0  0  0
  5  9  2  0  0  0  0
  5 19  1  0  0  0  0
  6 21  1  0  0  0  0
  7 23  1  0  0  0  0
  8 12  2  0  0  0  0
  8 22  1  0  0  0  0
  9 25  1  0  0  0  0
 10 26  1  0  0  0  0
 11 26  2  0  0  0  0
 12 27  1  0  0  0  0
 13 14  2  0  0  0  0
 13 28  1  0  0  0  0
 14 29  1  0  0  0  0
 15 19  2  0  0  0  0
 15 30  1  0  0  0  0
 16 24  1  0  0  0  0
 16 27  2  0  0  0  0
 17 29  2  0  0  0  0
 17 31  1  0  0  0  0
 18 32  1  0  0  0  0
 19 35  1  0  0  0  0
 20 32  1  0  0  0  0
 20 33  2  0  0  0  0
 20 36  1  0  0  0  0
 21 23  2  0  0  0  0
 21 43  1  0  0  0  0
 22 24  2  0  0  0  0
 22 44  1  0  0  0  0
 23 52  1  0  0  0  0
 24 45  1  0  0  0  0
 25 30  2  0  0  0  0
 25 69  1  0  0  0  0
 26 82  1  0  0  0  0
 27 83  1  0  0  0  0
 28 31  2  0  0  0  0
 28 82  1  0  0  0  0
 29 84  1  0  0  0  0
 30 85  1  0  0  0  0
 31 86  1  0  0  0  0
 32 63  2  0  0  0  0
 33 64  1  0  0  0  0
 33 67  1  0  0  0  0
 34 37  2  0  0  0  0
 34 83  1  0  0  0  0
 35 70  1  0  0  0  0
 35 74  2  0  0  0  0
 36 68  1  0  0  0  0
 36 75  2  0  0  0  0
 37 38  1  0  0  0  0
 37 81  1  0  0  0  0
 38 69  1  0  0  0  0
 38 76  2  0  0  0  0
 39 53  1  0  0  0  0
 39 71  1  0  0  0  0
 39 77  2  0  0  0  0
 40 60  1  0  0  0  0
 40 65  1  0  0  0  0
 40 78  2  0  0  0  0
 41 61  1  0  0  0  0
 41 72  1  0  0  0  0
 41 79  2  0  0  0  0
 42 66  1  0  0  0  0
 42 70  1  0  0  0  0
 42 80  2  0  0  0  0
 43 46  1  0  0  0  0
 44 53  1  0  0  0  0
 45 65  1  0  0  0  0
 46 48  1  0  0  0  0
 47 49  1  0  0  0  0
 47 50  1  0  0  0  0
 48 52  1  0  0  0  0
 49 54  1  0  0  0  0
 50 66  1  0  0  0  0
 51 54  1  0  0  0  0
 51 66  1  0  0  0  0
 52 71  1  0  0  0  0
 53 65  1  0  0  0  0
 54 64  1  0  0  0  0
 55 61  1  0  0  0  0
 56 62  1  0  0  0  0
 57 62  1  0  0  0  0
 58 62  1  0  0  0  0
 59 73  1  0  0  0  0
 60 62  1  0  0  0  0
 60 72  1  0  0  0  0
 61 73  1  0  0  0  0
 63 64  1  0  0  0  0
M  CHG  1  73   1
M  ISO  4  34 101  42 100  70 100  83 101
M  END
> <Batch ID>
0092

> <Smiles>
CNC(C)C(=O)NC(C(=O)N1Cc2cc([101O:1][101CH2:1]C(=O)C(=O)Nc3ccc(C(=O)[100NH:0][100C:0](=O)N4CCCC(n5nc(-c6ccc(Oc7ccc(F)cc7F)cc6)c(C(N)=O)c5N)C4)cc3F)ccc2CC1C(=O)NC1CCCc2ccccc21)C(C)(C)C

> <Shape>
0.270

> <Color>
0.117

> <Negative vol penalty>
0.000

$$$$

  -OEChem-04052300343D

 86 95  0     1  0  0  0  0  0999 V2000
  -15.7944  -25.9108   21.6614 C   0  0  0  0  0  0  0  0  0  0  0  0
  -16.9977  -25.4106   21.1742 C   0  0  0  0  0  0  0  0  0  0  0  0
  -22.5985  -10.3942   20.2543 C   0  0  0  0  0  0  0  0  0  0  0  0
  -24.2672   -9.5596   21.7892 C   0  0  0  0  0  0  0  0  0  0  0  0
  -29.9656  -17.2765   20.0856 C   0  0  0  0  0  0  0  0  0  0  0  0
  -15.7914  -27.0323   22.4897 C   0  0  0  0  0  0  0  0  0  0  0  0
  -18.1986  -26.0324   21.5141 C   0  0  0  0  0  0  0  0  0  0  0  0
  -21.8004  -22.7199   22.8177 C   0  0  0  0  0  0  0  0  0  0  0  0
  -29.2952  -18.4399   19.7081 C   0  0  0  0  0  0  0  0  0  0  0  0
  -21.8268   -9.2530   20.4726 C   0  0  0  0  0  0  0  0  0  0  0  0
  -23.4955   -8.4183   22.0076 C   0  0  0  0  0  0  0  0  0  0  0  0
  -22.4501  -22.0463   21.7844 C   0  0  0  0  0  0  0  0  0  0  0  0
  -20.7664   -7.5660   23.8095 C   0  0  0  0  0  0  0  0  0  0  0  0
  -20.6046   -7.1373   25.1268 C   0  0  0  0  0  0  0  0  0  0  0  0
  -24.3081  -23.5742   21.9645 C   0  0  0  0  0  0  0  0  0  0  0  0
  -27.9675  -18.3288   21.7235 C   0  0  0  0  0  0  0  0  0  0  0  0
  -21.6334   -5.0245   24.5657 C   0  0  0  0  0  0  0  0  0  0  0  0
  -23.8187  -10.5475   20.9126 C   0  0  0  0  0  0  0  0  0  0  0  0
  -29.6369  -16.6391   21.2820 C   0  0  0  0  0  0  0  0  0  0  0  0
  -24.2475  -13.0622   20.9321 C   0  0  0  0  0  0  0  0  0  0  0  0
  -16.9936  -27.6624   22.8478 C   0  0  0  0  0  0  0  0  0  0  0  0
  -22.3959  -23.8343   23.4259 C   0  0  0  0  0  0  0  0  0  0  0  0
  -18.2115  -27.1642   22.3469 C   0  0  0  0  0  0  0  0  0  0  0  0
  -23.6650  -24.2587   23.0072 C   0  0  0  0  0  0  0  0  0  0  0  0
  -28.2962  -18.9661   20.5270 C   0  0  0  0  0  0  0  0  0  0  0  0
  -28.6378  -17.1653   22.1009 C   0  0  0  0  0  0  0  0  0  0  0  0
  -22.2753   -8.2650   21.3493 C   0  0  0  0  0  0  0  0  0  0  0  0
  -23.7029  -22.4752   21.3557 C   0  0  0  0  0  0  0  0  0  0  0  0
  -21.3617   -6.7240   22.8701 C   0  0  0  0  0  0  0  0  0  0  0  0
  -21.0380   -5.8666   25.5050 C   0  0  0  0  0  0  0  0  0  0  0  0
  -21.7952   -5.4533   23.2482 C   0  0  0  0  0  0  0  0  0  0  0  0
  -24.6166  -11.7259   20.6871 C   0  0  0  0  0  0  0  0  0  0  0  0
  -25.3455  -13.7963   20.5555 C   0  0  0  0  0  0  0  0  0  0  0  0
  -26.2653  -20.3915   20.5241 C   0  0  0  0  0  0  0  0  0  0  0  0
  -30.3563  -15.4253   21.6480 C   0  0  0  0  0  0  0  0  0  0  0  0
  -23.0217  -13.5924   21.4537 C   0  0  0  0  0  0  0  0  0  0  0  0
  -30.8934  -14.5093   20.6156 C   0  0  0  0  0  0  0  0  0  0  0  0
  -21.6361  -26.9077   23.7105 C   0  0  0  0  0  0  0  0  0  0  0  0
  -24.2426  -26.9719   25.6403 C   0  0  0  0  0  0  0  0  0  0  0  0
  -27.2285  -25.5751   26.5238 C   0  0  0  0  0  0  0  0  0  0  0  0
  -16.9364  -28.9002   23.7075 C   0  0  0  0  0  0  0  0  0  0  0  0
  -21.6938  -24.5338   24.5574 C   0  0  0  0  0  0  0  0  0  0  0  0
  -24.3563  -25.4372   23.6410 C   0  0  0  0  0  0  0  0  0  0  0  0
  -18.2813  -29.2764   24.3240 C   0  0  0  0  0  0  0  0  0  0  0  0
  -27.7635  -22.4764   19.1101 C   0  0  0  0  0  0  0  0  0  0  0  0
  -29.5047  -12.4575   18.0237 C   0  0  0  0  0  0  0  0  0  0  0  0
  -19.3857  -29.2157   23.2735 C   0  0  0  0  0  0  0  0  0  0  0  0
  -26.2522  -22.5003   19.1107 C   0  0  0  0  0  0  0  0  0  0  0  0
  -28.0917  -12.1625   18.5259 C   0  0  0  0  0  0  0  0  0  0  0  0
  -28.2565  -21.0385   19.1372 C   0  0  0  0  0  0  0  0  0  0  0  0
  -30.4991  -12.5492   19.1765 C   0  0  0  0  0  0  0  0  0  0  0  0
  -28.7006  -13.2526   20.7318 C   0  0  0  0  0  0  0  0  0  0  0  0
  -19.5368  -27.7962   22.7133 C   0  0  1  0  0  0  0  0  0  0  0  0
  -25.7570  -21.8211   20.3692 C   0  0  1  0  0  0  0  0  0  1  0  0
  -22.1673  -25.9701   24.7576 C   0  0  1  0  0  0  0  0  0  0  0  0
  -27.6630  -13.1801   19.5979 C   0  0  2  0  0  0  0  0  0  0  0  0
  -29.1492  -25.8720   28.1113 C   0  0  0  0  0  0  0  0  0  0  0  0
  -25.2946  -29.2719   23.9335 C   0  0  0  0  0  0  0  0  0  0  0  0
  -27.5564  -28.8898   24.9368 C   0  0  0  0  0  0  0  0  0  0  0  0
  -25.6436  -29.5541   26.3938 C   0  0  0  0  0  0  0  0  0  0  0  0
  -26.7447  -22.9416   27.7845 C   0  0  0  0  0  0  0  0  0  0  0  0
  -25.7184  -27.2154   25.4360 C   0  0  1  0  0  0  0  0  0  0  0  0
  -27.8044  -25.2014   27.8778 C   0  0  2  0  0  0  0  0  0  0  0  0
  -26.0396  -28.7117   25.1616 C   0  0  0  0  0  0  0  0  0  0  0  0
  -25.8524  -11.6147   20.1928 N   0  0  0  0  0  0  0  0  0  0  0  0
  -30.5742  -15.0703   22.8836 N   0  0  0  0  0  0  0  0  0  0  0  0
  -26.2694  -12.8904   20.1242 N   0  0  0  0  0  0  0  0  0  0  0  0
  -27.6010  -20.1734   20.1346 N   0  0  0  0  0  0  0  0  0  0  0  0
  -30.0445  -13.4961   20.1927 N   0  0  0  0  0  0  0  0  0  0  0  0
  -23.6264  -26.0920   24.7392 N   0  0  0  0  0  0  0  0  0  0  0  0
  -28.2888  -16.5342   23.3157 N   0  0  0  0  0  0  0  0  0  0  0  0
  -25.6012  -15.1218   20.5544 N   0  0  0  0  0  0  0  0  0  0  0  0
  -22.9002  -13.7539   22.8406 N   0  0  0  0  0  0  0  0  0  0  0  0
  -20.2566  -26.9580   23.6480 N   0  0  0  0  0  0  0  0  0  0  0  0
  -26.3891  -26.6657   26.6092 N   0  0  0  0  0  0  0  0  0  0  0  0
  -27.9923  -23.7260   27.9714 N   0  3  0  0  0  0  0  0  0  0  0  0
  -25.5185  -19.5381   21.0099 O   0  0  0  0  0  0  0  0  0  0  0  0
  -22.0565  -13.8981   20.7131 O   0  0  0  0  0  0  0  0  0  0  0  0
  -32.0356  -14.7452   20.2441 O   0  0  0  0  0  0  0  0  0  0  0  0
  -22.4198  -27.5398   23.0120 O   0  0  0  0  0  0  0  0  0  0  0  0
  -23.6596  -27.5357   26.5697 O   0  0  0  0  0  0  0  0  0  0  0  0
  -27.4993  -24.9632   25.4929 O   0  0  0  0  0  0  0  0  0  0  0  0
  -21.5224   -7.1514   21.5627 O   0  0  0  0  0  0  0  0  0  0  0  0
  -24.3389  -21.8198   20.3468 O   0  0  0  0  0  0  0  0  0  1  0  0
  -20.8839   -5.4556   26.7705 F   0  0  0  0  0  0  0  0  0  0  0  0
  -22.3688   -4.6403   22.3506 F   0  0  0  0  0  0  0  0  0  0  0  0
  1  2  1  0  0  0  0
  1  6  2  0  0  0  0
  2  7  2  0  0  0  0
  3 10  2  0  0  0  0
  3 18  1  0  0  0  0
  4 11  1  0  0  0  0
  4 18  2  0  0  0  0
  5  9  2  0  0  0  0
  5 19  1  0  0  0  0
  6 21  1  0  0  0  0
  7 23  1  0  0  0  0
  8 12  2  0  0  0  0
  8 22  1  0  0  0  0
  9 25  1  0  0  0  0
 10 27  1  0  0  0  0
 11 27  2  0  0  0  0
 12 28  1  0  0  0  0
 13 14  2  0  0  0  0
 13 29  1  0  0  0  0
 14 30  1  0  0  0  0
 15 24  1  0  0  0  0
 15 28  2  0  0  0  0
 16 25  2  0  0  0  0
 16 26  1  0  0  0  0
 17 30  2  0  0  0  0
 17 31  1  0  0  0  0
 18 32  1  0  0  0  0
 19 26  2  0  0  0  0
 19 35  1  0  0  0  0
 20 32  1  0  0  0  0
 20 33  2  0  0  0  0
 20 36  1  0  0  0  0
 21 23  2  0  0  0  0
 21 41  1  0  0  0  0
 22 24  2  0  0  0  0
 22 42  1  0  0  0  0
 23 53  1  0  0  0  0
 24 43  1  0  0  0  0
 25 68  1  0  0  0  0
 26 71  1  0  0  0  0
 27 83  1  0  0  0  0
 28 84  1  0  0  0  0
 29 31  2  0  0  0  0
 29 83  1  0  0  0  0
 30 85  1  0  0  0  0
 31 86  1  0  0  0  0
 32 65  2  0  0  0  0
 33 67  1  0  0  0  0
 33 72  1  0  0  0  0
 34 54  1  0  0  0  0
 34 68  1  0  0  0  0
 34 77  2  0  0  0  0
 35 37  1  0  0  0  0
 35 66  2  0  0  0  0
 36 73  1  0  0  0  0
 36 78  2  0  0  0  0
 37 69  1  0  0  0  0
 37 79  2  0  0  0  0
 38 55  1  0  0  0  0
 38 74  1  0  0  0  0
 38 80  2  0  0  0  0
 39 62  1  0  0  0  0
 39 70  1  0  0  0  0
 39 81  2  0  0  0  0
 40 63  1  0  0  0  0
 40 75  1  0  0  0  0
 40 82  2  0  0  0  0
 41 44  1  0  0  0  0
 42 55  1  0  0  0  0
 43 70  1  0  0  0  0
 44 47  1  0  0  0  0
 45 48  1  0  0  0  0
 45 50  1  0  0  0  0
 46 49  1  0  0  0  0
 46 51  1  0  0  0  0
 47 53  1  0  0  0  0
 48 54  1  0  0  0  0
 49 56  1  0  0  0  0
 50 68  1  0  0  0  0
 51 69  1  0  0  0  0
 52 56  1  0  0  0  0
 52 69  1  0  0  0  0
 53 74  1  0  0  0  0
 54 84  1  0  0  0  0
 55 70  1  0  0  0  0
 56 67  1  0  0  0  0
 57 63  1  0  0  0  0
 58 64  1  0  0  0  0
 59 64  1  0  0  0  0
 60 64  1  0  0  0  0
 61 76  1  0  0  0  0
 62 64  1  0  0  0  0
 62 75  1  0  0  0  0
 63 76  1  0  0  0  0
 65 67  1  0  0  0  0
M  CHG  1  76   1
M  ISO  4  35 100  37 100  54 101  84 101
M  END
> <Batch ID>
0092

> <Smiles>
CNC(C)C(=O)NC(C(=O)N1Cc2cc([101O:1][101CH:1]3CCCN(c4ccc([100C:0](=N)[100C:0](=O)N5CCCC(n6nc(-c7ccc(Oc8ccc(F)cc8F)cc7)c(C(N)=O)c6N)C5)c(N)c4)C3=O)ccc2CC1C(=O)NC1CCCc2ccccc21)C(C)(C)C

> <Shape>
0.306

> <Color>
0.173

> <Negative vol penalty>
0.000

$$$$

  -OEChem-04052300343D

 90 99  0     1  0  0  0  0  0999 V2000
  -18.9614  -32.0277   24.8692 C   0  0  0  0  0  0  0  0  0  0  0  0
  -19.7566  -31.0515   25.4608 C   0  0  0  0  0  0  0  0  0  0  0  0
  -26.1640  -19.9190   28.1679 C   0  0  0  0  0  0  0  0  0  0  0  0
  -25.2604   -9.4619   20.4187 C   0  0  0  0  0  0  0  0  0  0  0  0
  -24.4319   -9.9041   22.6446 C   0  0  0  0  0  0  0  0  0  0  0  0
  -18.6283  -31.9298   23.5189 C   0  0  0  0  0  0  0  0  0  0  0  0
  -20.2183  -29.9761   24.7027 C   0  0  0  0  0  0  0  0  0  0  0  0
  -25.5986  -27.1076   25.2769 C   0  0  0  0  0  0  0  0  0  0  0  0
  -27.9576  -20.5953   21.7897 C   0  0  0  0  0  0  0  0  0  0  0  0
  -25.0778   -8.0941   20.6224 C   0  0  0  0  0  0  0  0  0  0  0  0
  -24.2492   -8.5364   22.8484 C   0  0  0  0  0  0  0  0  0  0  0  0
  -25.9673  -25.9246   25.9159 C   0  0  0  0  0  0  0  0  0  0  0  0
  -21.9906   -6.1723   21.9936 C   0  0  0  0  0  0  0  0  0  0  0  0
  -20.7929   -5.7599   22.5776 C   0  0  0  0  0  0  0  0  0  0  0  0
  -28.4801  -19.9978   20.6428 C   0  0  0  0  0  0  0  0  0  0  0  0
  -26.7005  -20.8248   27.2078 C   0  0  0  0  0  0  0  0  0  0  0  0
  -25.7646  -24.7390   23.8248 C   0  0  0  0  0  0  0  0  0  0  0  0
  -26.2492  -19.3875   19.9443 C   0  0  0  0  0  0  0  0  0  0  0  0
  -22.0245   -4.7751   24.4081 C   0  0  0  0  0  0  0  0  0  0  0  0
  -24.7942  -19.8118   28.0692 C   0  0  0  0  0  0  0  0  0  0  0  0
  -24.9376  -10.3669   21.4298 C   0  0  0  0  0  0  0  0  0  0  0  0
  -24.1945  -12.6931   20.6920 C   0  0  0  0  0  0  0  0  0  0  0  0
  -19.0942  -30.8578   22.7414 C   0  0  0  0  0  0  0  0  0  0  0  0
  -25.2990  -27.1131   23.9070 C   0  0  0  0  0  0  0  0  0  0  0  0
  -19.8900  -29.8631   23.3410 C   0  0  0  0  0  0  0  0  0  0  0  0
  -25.3948  -25.9239   23.1703 C   0  0  0  0  0  0  0  0  0  0  0  0
  -26.5808  -20.5889   22.0140 C   0  0  0  0  0  0  0  0  0  0  0  0
  -25.7267  -19.9850   21.0913 C   0  0  0  0  0  0  0  0  0  0  0  0
  -24.5721   -7.6314   21.8372 C   0  0  0  0  0  0  0  0  0  0  0  0
  -26.0476  -24.7395   25.1905 C   0  0  0  0  0  0  0  0  0  0  0  0
  -23.2053   -5.8860   22.6169 C   0  0  0  0  0  0  0  0  0  0  0  0
  -20.8098   -5.0613   23.7848 C   0  0  0  0  0  0  0  0  0  0  0  0
  -23.2222   -5.1875   23.8241 C   0  0  0  0  0  0  0  0  0  0  0  0
  -27.6260  -19.3940   19.7200 C   0  0  0  0  0  0  0  0  0  0  0  0
  -25.1266  -11.7798   21.2202 C   0  0  0  0  0  0  0  0  0  0  0  0
  -25.7202  -21.3753   26.4116 C   0  0  0  0  0  0  0  0  0  0  0  0
  -24.8530  -13.8983   20.6986 C   0  0  0  0  0  0  0  0  0  0  0  0
  -22.8532  -12.4717   20.2362 C   0  0  0  0  0  0  0  0  0  0  0  0
  -22.7195  -27.7910   22.1777 C   0  0  0  0  0  0  0  0  0  0  0  0
  -24.7568  -27.3723   19.6884 C   0  0  0  0  0  0  0  0  0  0  0  0
  -26.7955  -21.8395   24.1888 C   0  0  0  0  0  0  0  0  0  0  0  0
  -27.6288  -25.9626   18.5007 C   0  0  0  0  0  0  0  0  0  0  0  0
  -29.4430  -16.9202   19.6695 C   0  0  0  0  0  0  0  0  0  0  0  0
  -18.6687  -30.7697   21.2972 C   0  0  0  0  0  0  0  0  0  0  0  0
  -24.9287  -28.4027   23.2271 C   0  0  0  0  0  0  0  0  0  0  0  0
  -25.1031  -25.8804   21.6933 C   0  0  0  0  0  0  0  0  0  0  0  0
  -19.5082  -29.7969   20.4731 C   0  0  0  0  0  0  0  0  0  0  0  0
  -29.2183  -15.2649   22.8456 C   0  0  0  0  0  0  0  0  0  0  0  0
  -19.6874  -28.4799   21.2217 C   0  0  0  0  0  0  0  0  0  0  0  0
  -28.0734  -14.2701   22.6554 C   0  0  0  0  0  0  0  0  0  0  0  0
  -30.0419  -15.4210   21.5706 C   0  0  0  0  0  0  0  0  0  0  0  0
  -28.0926  -14.7994   20.1775 C   0  0  0  0  0  0  0  0  0  0  0  0
  -20.4307  -28.6946   22.5457 C   0  0  1  0  0  0  0  0  0  0  0  0
  -24.1466  -28.1933   21.9341 C   0  0  1  0  0  0  0  0  0  0  0  0
  -27.2157  -14.6386   21.4316 C   0  0  1  0  0  0  0  0  0  0  0  0
  -29.0124  -25.7688   16.4160 C   0  0  0  0  0  0  0  0  0  0  0  0
  -22.7538  -25.3730   18.5478 C   0  0  0  0  0  0  0  0  0  0  0  0
  -24.5607  -24.5338   17.0315 C   0  0  0  0  0  0  0  0  0  0  0  0
  -23.7847  -26.8980   16.8550 C   0  0  0  0  0  0  0  0  0  0  0  0
  -29.9603  -27.2524   19.7889 C   0  0  0  0  0  0  0  0  0  0  0  0
  -25.8730  -22.3696   25.2841 C   0  0  2  0  0  0  0  0  0  1  0  0
  -25.1828  -26.1974   18.8415 C   0  0  1  0  0  0  0  0  0  0  0  0
  -28.7819  -26.5450   17.7033 C   0  0  2  0  0  0  0  0  0  0  0  0
  -24.0742  -25.7507   17.8472 C   0  0  0  0  0  0  0  0  0  0  0  0
  -26.2889  -12.3556   21.5389 N   0  0  0  0  0  0  0  0  0  0  0  0
  -28.5849  -17.1125   18.6601 N   0  5  0  0  0  0  0  0  0  0  0  0
  -26.0915  -13.6436   21.2100 N   0  0  0  0  0  0  0  0  0  0  0  0
  -24.7391  -27.1660   21.0751 N   0  0  0  0  0  0  0  0  0  0  0  0
  -29.1841  -15.7581   20.4312 N   0  0  0  0  0  0  0  0  0  0  0  0
  -24.3291  -19.9675   21.2982 N   0  0  0  0  0  0  0  0  0  0  0  0
  -24.4879  -15.1406   20.3166 N   0  0  0  0  0  0  0  0  0  0  0  0
  -22.3320  -11.1722   20.2996 N   0  0  0  0  0  0  0  0  0  0  0  0
  -26.0740  -21.2016   23.1843 N   0  0  0  0  0  0  0  0  0  0  0  0
  -21.8492  -28.8562   22.3086 N   0  0  0  0  0  0  0  0  0  0  0  0
  -26.4358  -26.5870   18.2039 N   0  0  0  0  0  0  0  0  0  0  0  0
  -30.0373  -26.5080   18.5056 N   0  3  0  0  0  0  0  0  0  0  0  0
  -22.1439  -13.3957   19.7709 O   0  0  0  0  0  0  0  0  0  0  0  0
  -22.4293  -26.6020   22.2407 O   0  0  0  0  0  0  0  0  0  0  0  0
  -24.4578  -28.4361   19.1402 O   0  0  0  0  0  0  0  0  0  0  0  0
  -28.0109  -22.0047   24.2433 O   0  0  0  0  0  0  0  0  0  0  0  0
  -27.7715  -25.0430   19.3035 O   0  0  0  0  0  0  0  0  0  0  0  0
  -30.3897  -17.6608   19.9535 O   0  0  0  0  0  0  0  0  0  0  0  0
  -27.2297  -18.8060   17.2636 O   0  0  0  0  0  0  0  0  0  0  0  0
  -29.4928  -19.4305   17.9789 O   0  0  0  0  0  0  0  0  0  0  0  0
  -24.3935   -6.2968   22.0363 O   0  0  0  0  0  0  0  0  0  0  0  0
  -26.4066  -23.5833   25.8118 O   0  0  0  0  0  0  0  0  0  1  0  0
  -19.6595   -4.6667   24.3462 F   0  0  0  0  0  0  0  0  0  0  0  0
  -24.3859   -4.9107   24.4282 F   0  0  0  0  0  0  0  0  0  0  0  0
  -24.1605  -20.8005   26.8228 S   0  0  0  0  0  0  0  0  0  0  0  0
  -28.3027  -18.6233   18.2384 S   0  0  0  0  0  0  0  0  0  0  0  0
  1  2  1  0  0  0  0
  1  6  2  0  0  0  0
  2  7  2  0  0  0  0
  3 16  1  0  0  0  0
  3 20  2  0  0  0  0
  4 10  2  0  0  0  0
  4 21  1  0  0  0  0
  5 11  1  0  0  0  0
  5 21  2  0  0  0  0
  6 23  1  0  0  0  0
  7 25  1  0  0  0  0
  8 12  2  0  0  0  0
  8 24  1  0  0  0  0
  9 15  2  0  0  0  0
  9 27  1  0  0  0  0
 10 29  1  0  0  0  0
 11 29  2  0  0  0  0
 12 30  1  0  0  0  0
 13 14  2  0  0  0  0
 13 31  1  0  0  0  0
 14 32  1  0  0  0  0
 15 34  1  0  0  0  0
 16 36  2  0  0  0  0
 17 26  1  0  0  0  0
 17 30  2  0  0  0  0
 18 28  1  0  0  0  0
 18 34  2  0  0  0  0
 19 32  2  0  0  0  0
 19 33  1  0  0  0  0
 20 89  1  0  0  0  0
 21 35  1  0  0  0  0
 22 35  1  0  0  0  0
 22 37  2  0  0  0  0
 22 38  1  0  0  0  0
 23 25  2  0  0  0  0
 23 44  1  0  0  0  0
 24 26  2  0  0  0  0
 24 45  1  0  0  0  0
 25 53  1  0  0  0  0
 26 46  1  0  0  0  0
 27 28  2  0  0  0  0
 27 73  1  0  0  0  0
 28 70  1  0  0  0  0
 29 85  1  0  0  0  0
 30 86  1  0  0  0  0
 31 33  2  0  0  0  0
 31 85  1  0  0  0  0
 32 87  1  0  0  0  0
 33 88  1  0  0  0  0
 34 90  1  0  0  0  0
 35 65  2  0  0  0  0
 36 61  1  0  0  0  0
 36 89  1  0  0  0  0
 37 67  1  0  0  0  0
 37 71  1  0  0  0  0
 38 72  1  0  0  0  0
 38 77  2  0  0  0  0
 39 54  1  0  0  0  0
 39 74  1  0  0  0  0
 39 78  2  0  0  0  0
 40 62  1  0  0  0  0
 40 68  1  0  0  0  0
 40 79  2  0  0  0  0
 41 61  1  0  0  0  0
 41 73  1  0  0  0  0
 41 80  2  0  0  0  0
 42 63  1  0  0  0  0
 42 75  1  0  0  0  0
 42 81  2  0  0  0  0
 43 66  1  0  0  0  0
 43 69  1  0  0  0  0
 43 82  2  0  0  0  0
 44 47  1  0  0  0  0
 45 54  1  0  0  0  0
 46 68  1  0  0  0  0
 47 49  1  0  0  0  0
 48 50  1  0  0  0  0
 48 51  1  0  0  0  0
 49 53  1  0  0  0  0
 50 55  1  0  0  0  0
 51 69  1  0  0  0  0
 52 55  1  0  0  0  0
 52 69  1  0  0  0  0
 53 74  1  0  0  0  0
 54 68  1  0  0  0  0
 55 67  1  0  0  0  0
 56 63  1  0  0  0  0
 57 64  1  0  0  0  0
 58 64  1  0  0  0  0
 59 64  1  0  0  0  0
 60 76  1  0  0  0  0
 61 86  1  0  0  0  0
 62 64  1  0  0  0  0
 62 75  1  0  0  0  0
 63 76  1  0  0  0  0
 65 67  1  0  0  0  0
 66 90  1  0  0  0  0
 83 90  2  0  0  0  0
 84 90  2  0  0  0  0
M  CHG  2  66  -1  76   1
M  ISO  4  43 100  61 101  66 100  86 101
M  END
> <Batch ID>
0092

> <Smiles>
CNC(C)C(=O)NC(C(=O)N1Cc2cc([101O:1][101CH:1](C(=O)Nc3ccc(S(=O)(=O)[100NH:0][100C:0](=O)N4CCCC(n5nc(-c6ccc(Oc7ccc(F)cc7F)cc6)c(C(N)=O)c5N)C4)cc3N)c3cccs3)ccc2CC1C(=O)NC1CCCc2ccccc21)C(C)(C)C

> <Shape>
0.226

> <Color>
0.078

> <Negative vol penalty>
0.000

$$$$

  -OEChem-04052300343D

 87 96  0     1  0  0  0  0  0999 V2000
  -31.0328  -35.2404   21.7479 C   0  0  0  0  0  0  0  0  0  0  0  0
  -30.8944  -33.9699   21.1981 C   0  0  0  0  0  0  0  0  0  0  0  0
  -22.9689  -16.5190   21.1982 C   0  0  0  0  0  0  0  0  0  0  0  0
  -22.2648  -15.3173   19.2241 C   0  0  0  0  0  0  0  0  0  0  0  0
  -30.3476  -35.5715   22.9161 C   0  0  0  0  0  0  0  0  0  0  0  0
  -30.0715  -33.0295   21.8169 C   0  0  0  0  0  0  0  0  0  0  0  0
  -26.6578  -28.7505   19.0705 C   0  0  0  0  0  0  0  0  0  0  0  0
  -28.4288  -19.7256   20.4869 C   0  0  0  0  0  0  0  0  0  0  0  0
  -29.0434  -18.5957   21.0263 C   0  0  0  0  0  0  0  0  0  0  0  0
  -21.8954  -17.3967   21.0469 C   0  0  0  0  0  0  0  0  0  0  0  0
  -21.1912  -16.1949   19.0727 C   0  0  0  0  0  0  0  0  0  0  0  0
  -26.8675  -27.3927   18.8339 C   0  0  0  0  0  0  0  0  0  0  0  0
  -21.1218  -20.0800   19.1428 C   0  0  0  0  0  0  0  0  0  0  0  0
  -21.3747  -21.4437   19.2908 C   0  0  0  0  0  0  0  0  0  0  0  0
  -25.6120  -26.8583   20.8232 C   0  0  0  0  0  0  0  0  0  0  0  0
  -26.6741  -22.4512   17.3343 C   0  0  0  0  0  0  0  0  0  0  0  0
  -29.9719  -18.0663   18.8595 C   0  0  0  0  0  0  0  0  0  0  0  0
  -19.8005  -21.5370   21.1213 C   0  0  0  0  0  0  0  0  0  0  0  0
  -23.1536  -15.4794   20.2868 C   0  0  0  0  0  0  0  0  0  0  0  0
  -24.2800  -13.3675   21.1695 C   0  0  0  0  0  0  0  0  0  0  0  0
  -29.5084  -34.6379   23.5442 C   0  0  0  0  0  0  0  0  0  0  0  0
  -25.9317  -29.1736   20.1931 C   0  0  0  0  0  0  0  0  0  0  0  0
  -29.3756  -33.3481   22.9954 C   0  0  0  0  0  0  0  0  0  0  0  0
  -25.3923  -28.2220   21.0705 C   0  0  0  0  0  0  0  0  0  0  0  0
  -27.3959  -23.2745   18.2334 C   0  0  0  0  0  0  0  0  0  0  0  0
  -28.5856  -20.0259   19.1337 C   0  0  0  0  0  0  0  0  0  0  0  0
  -29.8150  -17.7660   20.2127 C   0  0  0  0  0  0  0  0  0  0  0  0
  -21.0065  -17.2346   19.9841 C   0  0  0  0  0  0  0  0  0  0  0  0
  -26.3470  -26.4464   19.7118 C   0  0  0  0  0  0  0  0  0  0  0  0
  -20.2082  -19.4448   19.9840 C   0  0  0  0  0  0  0  0  0  0  0  0
  -20.7141  -22.1722   20.2800 C   0  0  0  0  0  0  0  0  0  0  0  0
  -29.3572  -19.1963   18.3201 C   0  0  0  0  0  0  0  0  0  0  0  0
  -19.5476  -20.1733   20.9732 C   0  0  0  0  0  0  0  0  0  0  0  0
  -24.2627  -14.5728   20.4423 C   0  0  0  0  0  0  0  0  0  0  0  0
  -28.1877  -22.4495   19.0013 C   0  0  0  0  0  0  0  0  0  0  0  0
  -25.5560  -12.8863   21.0063 C   0  0  0  0  0  0  0  0  0  0  0  0
  -27.0468  -21.1481   17.5803 C   0  0  0  0  0  0  0  0  0  0  0  0
  -23.2359  -12.7391   21.9249 C   0  0  0  0  0  0  0  0  0  0  0  0
  -26.5892  -30.9330   22.7575 C   0  0  0  0  0  0  0  0  0  0  0  0
  -23.4124  -30.5976   23.3209 C   0  0  0  0  0  0  0  0  0  0  0  0
  -20.5576  -28.7930   22.8304 C   0  0  0  0  0  0  0  0  0  0  0  0
  -30.6871  -15.4464   19.9888 C   0  0  0  0  0  0  0  0  0  0  0  0
  -28.8252  -35.0265   24.8315 C   0  0  0  0  0  0  0  0  0  0  0  0
  -25.6915  -30.6410   20.4198 C   0  0  0  0  0  0  0  0  0  0  0  0
  -24.5883  -28.6235   22.2791 C   0  0  0  0  0  0  0  0  0  0  0  0
  -27.6801  -34.0943   25.2188 C   0  0  0  0  0  0  0  0  0  0  0  0
  -29.2213  -12.9341   17.9435 C   0  0  0  0  0  0  0  0  0  0  0  0
  -28.1067  -32.6367   25.0762 C   0  0  0  0  0  0  0  0  0  0  0  0
  -27.7701  -12.9619   18.4219 C   0  0  0  0  0  0  0  0  0  0  0  0
  -29.8250  -14.3367   17.8646 C   0  0  0  0  0  0  0  0  0  0  0  0
  -28.2535  -15.1420   19.5985 C   0  0  0  0  0  0  0  0  0  0  0  0
  -28.4729  -32.3086   23.6237 C   0  0  1  0  0  0  0  0  0  0  0  0
  -25.3748  -30.9771   21.8738 C   0  0  1  0  0  0  0  0  0  0  0  0
  -27.6388  -13.7410   19.7425 C   0  0  1  0  0  0  0  0  0  0  0  0
  -29.1341  -22.7916   20.0870 C   0  0  0  0  0  0  0  0  0  0  0  0
  -18.1260  -28.7462   23.4490 C   0  0  0  0  0  0  0  0  0  0  0  0
  -24.1413  -29.5650   26.0981 C   0  0  0  0  0  0  0  0  0  0  0  0
  -21.8143  -28.6627   26.2970 C   0  0  0  0  0  0  0  0  0  0  0  0
  -22.1811  -31.1171   26.0435 C   0  0  0  0  0  0  0  0  0  0  0  0
  -31.0727  -16.7046   22.0967 C   0  0  0  0  0  0  0  0  0  0  0  0
  -19.7146  -29.0398   20.0042 C   0  0  0  0  0  0  0  0  0  0  0  0
  -27.3069  -24.7694   18.3254 C   0  0  0  0  0  0  0  0  0  1  0  0
  -22.5574  -29.5961   24.0593 C   0  0  1  0  0  0  0  0  0  0  0  0
  -19.1549  -29.2153   22.4321 C   0  0  2  0  0  0  0  0  0  0  0  0
  -22.6903  -29.7274   25.6028 C   0  0  0  0  0  0  0  0  0  0  0  0
  -25.4348  -14.8408   19.8605 N   0  0  0  0  0  0  0  0  0  0  0  0
  -27.9670  -21.1591   18.5957 N   0  0  0  0  0  0  0  0  0  0  0  0
  -26.2005  -13.7973   20.2221 N   0  0  0  0  0  0  0  0  0  0  0  0
  -24.3863  -30.0704   22.4610 N   0  0  0  0  0  0  0  0  0  0  0  0
  -29.6399  -15.0557   19.1330 N   0  0  0  0  0  0  0  0  0  0  0  0
  -26.1784  -11.7771   21.4587 N   0  0  0  0  0  0  0  0  0  0  0  0
  -21.9854  -13.3688   21.9885 N   0  0  0  0  0  0  0  0  0  0  0  0
  -27.2767  -32.1296   22.8290 N   0  0  0  0  0  0  0  0  0  0  0  0
  -21.1983  -29.7726   23.5594 N   0  0  0  0  0  0  0  0  0  0  0  0
  -30.4522  -16.5970   20.7719 N   0  0  0  0  0  0  0  0  0  0  0  0
  -18.7987  -28.6412   21.1039 N   0  3  0  0  0  0  0  0  0  0  0  0
  -23.4116  -11.6597   22.5393 O   0  0  0  0  0  0  0  0  0  0  0  0
  -26.8801  -29.8910   23.3330 O   0  0  0  0  0  0  0  0  0  0  0  0
  -23.2184  -31.8033   23.4952 O   0  0  0  0  0  0  0  0  0  0  0  0
  -21.0357  -27.7018   22.5285 O   0  0  0  0  0  0  0  0  0  0  0  0
  -31.7402  -14.8023   20.0668 O   0  0  0  0  0  0  0  0  0  0  0  0
  -26.6547  -20.0174   17.0055 O   0  0  0  0  0  0  0  0  0  0  0  0
  -19.9587  -18.0907   19.8363 O   0  0  0  0  0  0  0  0  0  0  0  0
  -26.5508  -25.1204   19.4836 O   0  0  0  0  0  0  0  0  0  1  0  0
  -20.9582  -23.4815   20.4230 F   0  0  0  0  0  0  0  0  0  0  0  0
  -29.5146  -19.4716   17.0171 F   0  0  0  0  0  0  0  0  0  0  0  0
  -18.6697  -19.5683   21.7851 F   0  0  0  0  0  0  0  0  0  0  0  0
  1  2  1  0  0  0  0
  1  5  2  0  0  0  0
  2  6  2  0  0  0  0
  3 10  2  0  0  0  0
  3 19  1  0  0  0  0
  4 11  1  0  0  0  0
  4 19  2  0  0  0  0
  5 21  1  0  0  0  0
  6 23  1  0  0  0  0
  7 12  2  0  0  0  0
  7 22  1  0  0  0  0
  8  9  2  0  0  0  0
  8 26  1  0  0  0  0
  9 27  1  0  0  0  0
 10 28  1  0  0  0  0
 11 28  2  0  0  0  0
 12 29  1  0  0  0  0
 13 14  2  0  0  0  0
 13 30  1  0  0  0  0
 14 31  1  0  0  0  0
 15 24  1  0  0  0  0
 15 29  2  0  0  0  0
 16 25  1  0  0  0  0
 16 37  2  0  0  0  0
 17 27  2  0  0  0  0
 17 32  1  0  0  0  0
 18 31  2  0  0  0  0
 18 33  1  0  0  0  0
 19 34  1  0  0  0  0
 20 34  1  0  0  0  0
 20 36  2  0  0  0  0
 20 38  1  0  0  0  0
 21 23  2  0  0  0  0
 21 43  1  0  0  0  0
 22 24  2  0  0  0  0
 22 44  1  0  0  0  0
 23 52  1  0  0  0  0
 24 45  1  0  0  0  0
 25 35  2  0  0  0  0
 25 62  1  0  0  0  0
 26 32  2  0  0  0  0
 26 67  1  0  0  0  0
 27 75  1  0  0  0  0
 28 83  1  0  0  0  0
 29 84  1  0  0  0  0
 30 33  2  0  0  0  0
 30 83  1  0  0  0  0
 31 85  1  0  0  0  0
 32 86  1  0  0  0  0
 33 87  1  0  0  0  0
 34 66  2  0  0  0  0
 35 55  1  0  0  0  0
 35 67  1  0  0  0  0
 36 68  1  0  0  0  0
 36 71  1  0  0  0  0
 37 67  1  0  0  0  0
 37 82  1  0  0  0  0
 38 72  1  0  0  0  0
 38 77  2  0  0  0  0
 39 53  1  0  0  0  0
 39 73  1  0  0  0  0
 39 78  2  0  0  0  0
 40 63  1  0  0  0  0
 40 69  1  0  0  0  0
 40 79  2  0  0  0  0
 41 64  1  0  0  0  0
 41 74  1  0  0  0  0
 41 80  2  0  0  0  0
 42 70  1  0  0  0  0
 42 75  1  0  0  0  0
 42 81  2  0  0  0  0
 43 46  1  0  0  0  0
 44 53  1  0  0  0  0
 45 69  1  0  0  0  0
 46 48  1  0  0  0  0
 47 49  1  0  0  0  0
 47 50  1  0  0  0  0
 48 52  1  0  0  0  0
 49 54  1  0  0  0  0
 50 70  1  0  0  0  0
 51 54  1  0  0  0  0
 51 70  1  0  0  0  0
 52 73  1  0  0  0  0
 53 69  1  0  0  0  0
 54 68  1  0  0  0  0
 56 64  1  0  0  0  0
 57 65  1  0  0  0  0
 58 65  1  0  0  0  0
 59 65  1  0  0  0  0
 60 75  1  0  0  0  0
 61 76  1  0  0  0  0
 62 84  1  0  0  0  0
 63 65  1  0  0  0  0
 63 74  1  0  0  0  0
 64 76  1  0  0  0  0
 66 68  1  0  0  0  0
M  CHG  1  76   1
M  ISO  4  42 100  62 101  75 100  84 101
M  END
> <Batch ID>
0092

> <Smiles>
CNC(C)C(=O)NC(C(=O)N1Cc2cc([101O:1][101CH2:1]C3=C(C)N(c4ccc([100N:0](C)[100C:0](=O)N5CCCC(n6nc(-c7ccc(Oc8ccc(F)cc8F)cc7)c(C(N)=O)c6N)C5)cc4F)C(=O)C3)ccc2CC1C(=O)NC1CCCc2ccccc21)C(C)(C)C

> <Shape>
0.270

> <Color>
0.106

> <Negative vol penalty>
0.000

$$$$

  -OEChem-04052300343D

 88 97  0     1  0  0  0  0  0999 V2000
  -28.6194  -30.8191   27.1932 C   0  0  0  0  0  0  0  0  0  0  0  0
  -28.4667  -29.8327   26.2241 C   0  0  0  0  0  0  0  0  0  0  0  0
  -23.4239  -10.6431   21.2321 C   0  0  0  0  0  0  0  0  0  0  0  0
  -24.8025   -8.7985   21.9626 C   0  0  0  0  0  0  0  0  0  0  0  0
  -27.5088  -31.5345   27.6391 C   0  0  0  0  0  0  0  0  0  0  0  0
  -27.2031  -29.5604   25.7011 C   0  0  0  0  0  0  0  0  0  0  0  0
  -27.2500  -29.0759   20.6605 C   0  0  0  0  0  0  0  0  0  0  0  0
  -29.0149  -19.7407   17.4600 C   0  0  0  0  0  0  0  0  0  0  0  0
  -29.4871  -20.1678   19.7906 C   0  0  0  0  0  0  0  0  0  0  0  0
  -29.0286  -18.3683   17.7087 C   0  0  0  0  0  0  0  0  0  0  0  0
  -29.5008  -18.7953   20.0393 C   0  0  0  0  0  0  0  0  0  0  0  0
  -22.3226   -9.7904   21.1573 C   0  0  0  0  0  0  0  0  0  0  0  0
  -23.7012   -7.9458   21.8878 C   0  0  0  0  0  0  0  0  0  0  0  0
  -27.7172  -27.8693   20.1411 C   0  0  0  0  0  0  0  0  0  0  0  0
  -20.9754   -7.2310   23.7533 C   0  0  0  0  0  0  0  0  0  0  0  0
  -20.7658   -6.3510   24.8150 C   0  0  0  0  0  0  0  0  0  0  0  0
  -25.4423  -27.1335   19.8205 C   0  0  0  0  0  0  0  0  0  0  0  0
  -29.4340  -23.9696   17.2136 C   0  0  0  0  0  0  0  0  0  0  0  0
  -20.9614   -4.4781   23.3013 C   0  0  0  0  0  0  0  0  0  0  0  0
  -24.6639  -10.1471   21.6347 C   0  0  0  0  0  0  0  0  0  0  0  0
  -26.2205  -11.7806   22.8248 C   0  0  0  0  0  0  0  0  0  0  0  0
  -26.2324  -31.2774   27.1143 C   0  0  0  0  0  0  0  0  0  0  0  0
  -25.8732  -29.3164   20.7741 C   0  0  0  0  0  0  0  0  0  0  0  0
  -26.0742  -30.2720   26.1414 C   0  0  0  0  0  0  0  0  0  0  0  0
  -24.9603  -28.3450   20.3393 C   0  0  0  0  0  0  0  0  0  0  0  0
  -28.9781  -24.2050   18.5341 C   0  0  0  0  0  0  0  0  0  0  0  0
  -29.2442  -20.6405   18.5009 C   0  0  0  0  0  0  0  0  0  0  0  0
  -29.2715  -17.8956   18.9984 C   0  0  0  0  0  0  0  0  0  0  0  0
  -22.4612   -8.4418   21.4852 C   0  0  0  0  0  0  0  0  0  0  0  0
  -26.8133  -26.8967   19.7237 C   0  0  0  0  0  0  0  0  0  0  0  0
  -21.1779   -6.7346   22.4655 C   0  0  0  0  0  0  0  0  0  0  0  0
  -20.7588   -4.9746   24.5891 C   0  0  0  0  0  0  0  0  0  0  0  0
  -21.1709   -5.3582   22.2396 C   0  0  0  0  0  0  0  0  0  0  0  0
  -25.8021  -11.0273   21.7116 C   0  0  0  0  0  0  0  0  0  0  0  0
  -27.3411  -12.4444   22.3887 C   0  0  0  0  0  0  0  0  0  0  0  0
  -29.5809  -22.6081   17.0657 C   0  0  0  0  0  0  0  0  0  0  0  0
  -28.8605  -22.9801   19.1531 C   0  0  0  0  0  0  0  0  0  0  0  0
  -27.3679  -17.0328   22.0953 C   0  0  0  0  0  0  0  0  0  0  0  0
  -27.7108  -16.2520   21.0646 C   0  0  0  0  0  0  0  0  0  0  0  0
  -25.6475  -11.8722   24.1359 C   0  0  0  0  0  0  0  0  0  0  0  0
  -23.8856  -29.8753   23.1908 C   0  0  0  0  0  0  0  0  0  0  0  0
  -21.7412  -30.3572   20.8051 C   0  0  0  0  0  0  0  0  0  0  0  0
  -20.8192  -29.7601   17.5740 C   0  0  0  0  0  0  0  0  0  0  0  0
  -29.6817  -15.5542   18.2601 C   0  0  0  0  0  0  0  0  0  0  0  0
  -25.0545  -32.0439   27.6617 C   0  0  0  0  0  0  0  0  0  0  0  0
  -25.3854  -30.6338   21.3116 C   0  0  0  0  0  0  0  0  0  0  0  0
  -23.4721  -28.5622   20.4211 C   0  0  0  0  0  0  0  0  0  0  0  0
  -23.8078  -31.9522   26.7856 C   0  0  0  0  0  0  0  0  0  0  0  0
  -30.0936  -11.8887   18.1923 C   0  0  0  0  0  0  0  0  0  0  0  0
  -23.5562  -30.5077   26.3647 C   0  0  0  0  0  0  0  0  0  0  0  0
  -29.0012  -11.4057   19.1449 C   0  0  0  0  0  0  0  0  0  0  0  0
  -29.7088  -13.1952   17.5045 C   0  0  0  0  0  0  0  0  0  0  0  0
  -28.2420  -13.8018   19.4047 C   0  0  0  0  0  0  0  0  0  0  0  0
  -24.7236  -29.9645   25.5319 C   0  0  1  0  0  0  0  0  0  0  0  0
  -23.9629  -30.5660   21.8587 C   0  0  1  0  0  0  0  0  0  0  0  0
  -28.6183  -12.5098   20.1456 C   0  0  1  0  0  0  0  0  0  0  0  0
  -18.9974  -30.2573   15.9214 C   0  0  0  0  0  0  0  0  0  0  0  0
  -19.9366  -28.3203   22.1853 C   0  0  0  0  0  0  0  0  0  0  0  0
  -18.6200  -28.1524   20.0625 C   0  0  0  0  0  0  0  0  0  0  0  0
  -18.7461  -30.3253   21.2812 C   0  0  0  0  0  0  0  0  0  0  0  0
  -22.6938  -31.1419   15.7477 C   0  0  0  0  0  0  0  0  0  0  0  0
  -28.6810  -25.5443   19.1417 C   0  0  0  0  0  0  0  0  0  1  0  0
  -29.1202  -16.0111   20.6362 C   0  0  0  0  0  0  0  0  0  0  0  0
  -20.7798  -29.4812   20.0388 C   0  0  1  0  0  0  0  0  0  0  0  0
  -20.3463  -30.6919   16.4728 C   0  0  2  0  0  0  0  0  0  0  0  0
  -19.5486  -29.0646   20.8921 C   0  0  0  0  0  0  0  0  0  0  0  0
  -26.5924  -11.1963   20.6481 N   0  0  0  0  0  0  0  0  0  0  0  0
  -29.2298  -22.0167   18.2511 N   0  0  0  0  0  0  0  0  0  0  0  0
  -27.5186  -12.0634   21.0912 N   0  0  0  0  0  0  0  0  0  0  0  0
  -23.0445  -29.8639   20.9598 N   0  0  0  0  0  0  0  0  0  0  0  0
  -29.3055  -14.2132   18.4754 N   0  0  0  0  0  0  0  0  0  0  0  0
  -28.1820  -13.3109   22.9923 N   0  0  0  0  0  0  0  0  0  0  0  0
  -24.4962  -11.1234   24.4156 N   0  0  0  0  0  0  0  0  0  0  0  0
  -24.6536  -30.4659   24.1761 N   0  0  0  0  0  0  0  0  0  0  0  0
  -20.4436  -30.2117   18.8215 N   0  0  0  0  0  0  0  0  0  0  0  0
  -29.2864  -16.4747   19.2548 N   0  0  0  0  0  0  0  0  0  0  0  0
  -21.3285  -30.7098   15.3521 N   0  3  0  0  0  0  0  0  0  0  0  0
  -26.1323  -12.6091   25.0277 O   0  0  0  0  0  0  0  0  0  0  0  0
  -23.1802  -28.8811   23.3159 O   0  0  0  0  0  0  0  0  0  0  0  0
  -21.3522  -31.4424   21.2440 O   0  0  0  0  0  0  0  0  0  0  0  0
  -21.4547  -28.7323   17.3497 O   0  0  0  0  0  0  0  0  0  0  0  0
  -30.3438  -15.8957   17.2729 O   0  0  0  0  0  0  0  0  0  0  0  0
  -29.9799  -21.8939   16.0200 O   0  0  0  0  0  0  0  0  0  0  0  0
  -28.4757  -22.6672   20.3853 O   0  0  0  0  0  0  0  0  0  0  0  0
  -21.3867   -7.6095   21.4126 O   0  0  0  0  0  0  0  0  0  0  0  0
  -27.2666  -25.7179   19.2170 O   0  0  0  0  0  0  0  0  0  1  0  0
  -20.5591   -4.1296   25.6090 F   0  0  0  0  0  0  0  0  0  0  0  0
  -21.3661   -4.8753   21.0049 F   0  0  0  0  0  0  0  0  0  0  0  0
  1  2  1  0  0  0  0
  1  5  2  0  0  0  0
  2  6  2  0  0  0  0
  3 12  2  0  0  0  0
  3 20  1  0  0  0  0
  4 13  1  0  0  0  0
  4 20  2  0  0  0  0
  5 22  1  0  0  0  0
  6 24  1  0  0  0  0
  7 14  2  0  0  0  0
  7 23  1  0  0  0  0
  8 10  2  0  0  0  0
  8 27  1  0  0  0  0
  9 11  1  0  0  0  0
  9 27  2  0  0  0  0
 10 28  1  0  0  0  0
 11 28  2  0  0  0  0
 12 29  1  0  0  0  0
 13 29  2  0  0  0  0
 14 30  1  0  0  0  0
 15 16  2  0  0  0  0
 15 31  1  0  0  0  0
 16 32  1  0  0  0  0
 17 25  1  0  0  0  0
 17 30  2  0  0  0  0
 18 26  1  0  0  0  0
 18 36  2  0  0  0  0
 19 32  2  0  0  0  0
 19 33  1  0  0  0  0
 20 34  1  0  0  0  0
 21 34  1  0  0  0  0
 21 35  2  0  0  0  0
 21 40  1  0  0  0  0
 22 24  2  0  0  0  0
 22 45  1  0  0  0  0
 23 25  2  0  0  0  0
 23 46  1  0  0  0  0
 24 54  1  0  0  0  0
 25 47  1  0  0  0  0
 26 37  2  0  0  0  0
 26 62  1  0  0  0  0
 27 68  1  0  0  0  0
 28 76  1  0  0  0  0
 29 85  1  0  0  0  0
 30 86  1  0  0  0  0
 31 33  2  0  0  0  0
 31 85  1  0  0  0  0
 32 87  1  0  0  0  0
 33 88  1  0  0  0  0
 34 67  2  0  0  0  0
 35 69  1  0  0  0  0
 35 72  1  0  0  0  0
 36 68  1  0  0  0  0
 36 83  1  0  0  0  0
 37 68  1  0  0  0  0
 37 84  1  0  0  0  0
 38 39  2  0  0  0  0
 39 63  1  0  0  0  0
 40 73  1  0  0  0  0
 40 78  2  0  0  0  0
 41 55  1  0  0  0  0
 41 74  1  0  0  0  0
 41 79  2  0  0  0  0
 42 64  1  0  0  0  0
 42 70  1  0  0  0  0
 42 80  2  0  0  0  0
 43 65  1  0  0  0  0
 43 75  1  0  0  0  0
 43 81  2  0  0  0  0
 44 71  1  0  0  0  0
 44 76  1  0  0  0  0
 44 82  2  0  0  0  0
 45 48  1  0  0  0  0
 46 55  1  0  0  0  0
 47 70  1  0  0  0  0
 48 50  1  0  0  0  0
 49 51  1  0  0  0  0
 49 52  1  0  0  0  0
 50 54  1  0  0  0  0
 51 56  1  0  0  0  0
 52 71  1  0  0  0  0
 53 56  1  0  0  0  0
 53 71  1  0  0  0  0
 54 74  1  0  0  0  0
 55 70  1  0  0  0  0
 56 69  1  0  0  0  0
 57 65  1  0  0  0  0
 58 66  1  0  0  0  0
 59 66  1  0  0  0  0
 60 66  1  0  0  0  0
 61 77  1  0  0  0  0
 62 86  1  0  0  0  0
 63 76  1  0  0  0  0
 64 66  1  0  0  0  0
 64 75  1  0  0  0  0
 65 77  1  0  0  0  0
 67 69  1  0  0  0  0
M  CHG  1  77   1
M  ISO  4  44 100  62 101  76 100  86 101
M  END
> <Batch ID>
0092

> <Smiles>
C=CC[100N:0](c1ccc(N2C(=O)CC([101CH2:1][101O:1]c3ccc4c(c3)CN(C(=O)C(NC(=O)C(C)NC)C(C)(C)C)C(C(=O)NC3CCCc5ccccc53)C4)C2=O)cc1)[100C:0](=O)N1CCCC(n2nc(-c3ccc(Oc4ccc(F)cc4F)cc3)c(C(N)=O)c2N)C1

> <Shape>
0.329

> <Color>
0.101

> <Negative vol penalty>
0.000

$$$$

  -OEChem-04052300343D

 88 97  0     1  0  0  0  0  0999 V2000
  -29.9029  -22.1992   16.0390 C   0  0  0  0  0  0  0  0  0  0  0  0
  -28.8424  -22.0474   16.9266 C   0  0  0  0  0  0  0  0  0  0  0  0
  -28.3581  -16.7493   21.1439 C   0  0  0  0  0  0  0  0  0  0  0  0
  -27.3317  -17.1300   18.9902 C   0  0  0  0  0  0  0  0  0  0  0  0
  -30.8828  -23.1605   16.2834 C   0  0  0  0  0  0  0  0  0  0  0  0
  -28.7617  -22.8562   18.0596 C   0  0  0  0  0  0  0  0  0  0  0  0
  -24.0946  -24.6657   18.8265 C   0  0  0  0  0  0  0  0  0  0  0  0
  -29.0887  -17.9292   21.0043 C   0  0  0  0  0  0  0  0  0  0  0  0
  -28.0623  -18.3100   18.8506 C   0  0  0  0  0  0  0  0  0  0  0  0
  -23.1595  -23.7977   19.3885 C   0  0  0  0  0  0  0  0  0  0  0  0
  -28.5475  -21.2493   21.3466 C   0  0  0  0  0  0  0  0  0  0  0  0
  -28.6115  -22.1059   22.4455 C   0  0  0  0  0  0  0  0  0  0  0  0
  -20.6344  -17.0054   23.1675 C   0  0  0  0  0  0  0  0  0  0  0  0
  -21.7974  -16.3058   25.1662 C   0  0  0  0  0  0  0  0  0  0  0  0
  -23.5114  -24.8231   21.5434 C   0  0  0  0  0  0  0  0  0  0  0  0
  -31.0173  -21.8861   22.4769 C   0  0  0  0  0  0  0  0  0  0  0  0
  -27.4796  -16.3496   20.1368 C   0  0  0  0  0  0  0  0  0  0  0  0
  -21.1861  -15.9927   23.9522 C   0  0  0  0  0  0  0  0  0  0  0  0
  -27.2359  -13.8278   20.4351 C   0  0  0  0  0  0  0  0  0  0  0  0
  -30.8089  -23.9880   17.4149 C   0  0  0  0  0  0  0  0  0  0  0  0
  -24.7543  -25.6134   19.6223 C   0  0  0  0  0  0  0  0  0  0  0  0
  -29.7422  -23.8285   18.3200 C   0  0  0  0  0  0  0  0  0  0  0  0
  -24.4526  -25.7038   20.9887 C   0  0  0  0  0  0  0  0  0  0  0  0
  -20.6940  -18.3312   23.5968 C   0  0  0  0  0  0  0  0  0  0  0  0
  -21.8571  -17.6317   25.5956 C   0  0  0  0  0  0  0  0  0  0  0  0
  -21.3054  -18.6444   24.8109 C   0  0  0  0  0  0  0  0  0  0  0  0
  -28.9408  -18.7096   19.8577 C   0  0  0  0  0  0  0  0  0  0  0  0
  -22.8699  -23.8743   20.7476 C   0  0  0  0  0  0  0  0  0  0  0  0
  -29.7184  -20.7109   20.8128 C   0  0  0  0  0  0  0  0  0  0  0  0
  -29.8463  -22.4243   23.0107 C   0  0  0  0  0  0  0  0  0  0  0  0
  -30.9533  -21.0294   21.3780 C   0  0  0  0  0  0  0  0  0  0  0  0
  -26.7251  -15.1305   20.2801 C   0  0  0  0  0  0  0  0  0  0  0  0
  -26.1212  -13.0308   20.5281 C   0  0  0  0  0  0  0  0  0  0  0  0
  -19.1086  -21.5497   21.3551 C   0  0  0  0  0  0  0  0  0  0  0  0
  -20.3947  -21.2100   21.2049 C   0  0  0  0  0  0  0  0  0  0  0  0
  -18.1920  -20.6456   22.0767 C   0  0  0  0  0  0  0  0  0  0  0  0
  -21.1239  -14.6103   23.5046 C   0  0  0  0  0  0  0  0  0  0  0  0
  -28.5963  -13.3785   20.4902 C   0  0  0  0  0  0  0  0  0  0  0  0
  -20.4822  -14.2436   22.2212 C   0  0  0  0  0  0  0  0  0  0  0  0
  -27.7837  -26.1567   20.4168 C   0  0  0  0  0  0  0  0  0  0  0  0
  -26.5348  -28.8037   21.8153 C   0  0  0  0  0  0  0  0  0  0  0  0
  -23.8163  -30.3496   23.1816 C   0  0  0  0  0  0  0  0  0  0  0  0
  -31.9170  -24.9809   17.6617 C   0  0  0  0  0  0  0  0  0  0  0  0
  -25.7407  -26.5604   18.9957 C   0  0  0  0  0  0  0  0  0  0  0  0
  -25.1182  -26.7170   21.8824 C   0  0  0  0  0  0  0  0  0  0  0  0
  -21.0035  -19.9624   21.7900 C   0  0  0  0  0  0  0  0  0  0  0  0
  -18.6950  -19.2978   22.5275 C   0  0  0  0  0  0  0  0  0  0  0  0
  -31.5578  -26.0517   18.6886 C   0  0  0  0  0  0  0  0  0  0  0  0
  -21.5608  -12.7743   19.1334 C   0  0  0  0  0  0  0  0  0  0  0  0
  -30.9121  -25.4183   19.9169 C   0  0  0  0  0  0  0  0  0  0  0  0
  -23.0465  -13.1277   19.0743 C   0  0  0  0  0  0  0  0  0  0  0  0
  -20.7497  -13.8811   19.7993 C   0  0  0  0  0  0  0  0  0  0  0  0
  -22.7267  -14.6035   21.1102 C   0  0  0  0  0  0  0  0  0  0  0  0
  -29.6066  -24.7037   19.5472 C   0  0  1  0  0  0  0  0  0  0  0  0
  -26.7299  -27.1435   20.0001 C   0  0  1  0  0  0  0  0  0  0  0  0
  -23.5822  -13.4970   20.4690 C   0  0  2  0  0  0  0  0  0  0  0  0
  -23.1133  -32.4967   24.2740 C   0  0  0  0  0  0  0  0  0  0  0  0
  -27.9222  -27.9436   24.3932 C   0  0  0  0  0  0  0  0  0  0  0  0
  -26.4489  -29.5407   25.6369 C   0  0  0  0  0  0  0  0  0  0  0  0
  -28.0378  -30.3954   23.9143 C   0  0  0  0  0  0  0  0  0  0  0  0
  -21.8400  -30.9203   21.0538 C   0  0  0  0  0  0  0  0  0  0  0  0
  -21.3358  -22.0857   20.4260 C   0  0  0  0  0  0  0  0  0  1  0  0
  -25.9763  -29.1296   23.1795 C   0  0  1  0  0  0  0  0  0  0  0  0
  -23.2289  -31.7325   22.9643 C   0  0  2  0  0  0  0  0  0  0  0  0
  -27.0850  -29.2318   24.2648 C   0  0  0  0  0  0  0  0  0  0  0  0
  -25.3899  -15.1635   20.2743 N   0  0  0  0  0  0  0  0  0  0  0  0
  -21.6205  -13.6134   24.1860 N   0  0  0  0  0  0  0  0  0  0  0  0
  -25.0522  -13.8716   20.4267 N   0  0  0  0  0  0  0  0  0  0  0  0
  -20.1315  -19.3345   22.7896 N   0  0  1  0  0  0  0  0  0  0  0  0
  -21.3061  -14.2321   21.1044 N   0  0  0  0  0  0  0  0  0  0  0  0
  -26.0801  -27.6165   21.2241 N   0  0  0  0  0  0  0  0  0  0  0  0
  -22.4813  -17.9248   26.8289 N   0  0  0  0  0  0  0  0  0  0  0  0
  -21.3659  -19.9899   25.2465 N   0  0  0  0  0  0  0  0  0  0  0  0
  -25.9610  -11.6996   20.6858 N   0  0  0  0  0  0  0  0  0  0  0  0
  -29.2320  -13.0242   19.2924 N   0  0  0  0  0  0  0  0  0  0  0  0
  -28.5380  -25.6633   19.3694 N   0  0  0  0  0  0  0  0  0  0  0  0
  -25.1853  -30.3446   23.0171 N   0  0  0  0  0  0  0  0  0  0  0  0
  -21.8710  -31.6292   22.3590 N   0  3  0  0  0  0  0  0  0  0  0  0
  -17.0186  -20.9790   22.2394 O   0  0  0  0  0  0  0  0  0  0  0  0
  -29.2242  -13.2781   21.5715 O   0  0  0  0  0  0  0  0  0  0  0  0
  -19.2865  -13.9888   22.2833 O   0  0  0  0  0  0  0  0  0  0  0  0
  -27.9044  -25.8657   21.6010 O   0  0  0  0  0  0  0  0  0  0  0  0
  -27.3392  -29.5777   21.2905 O   0  0  0  0  0  0  0  0  0  0  0  0
  -23.1298  -29.3725   23.4721 O   0  0  0  0  0  0  0  0  0  0  0  0
  -29.6533  -19.8612   19.7213 O   0  0  0  0  0  0  0  0  0  0  0  0
  -21.9580  -23.0278   21.2988 O   0  0  0  0  0  0  0  0  0  1  0  0
  -29.9077  -23.2482   24.0650 F   0  0  0  0  0  0  0  0  0  0  0  0
  -32.0817  -20.5162   20.8688 F   0  0  0  0  0  0  0  0  0  0  0  0
  1  2  1  0  0  0  0
  1  5  2  0  0  0  0
  2  6  2  0  0  0  0
  3  8  2  0  0  0  0
  3 17  1  0  0  0  0
  4  9  1  0  0  0  0
  4 17  2  0  0  0  0
  5 20  1  0  0  0  0
  6 22  1  0  0  0  0
  7 10  2  0  0  0  0
  7 21  1  0  0  0  0
  8 27  1  0  0  0  0
  9 27  2  0  0  0  0
 10 28  1  0  0  0  0
 11 12  2  0  0  0  0
 11 29  1  0  0  0  0
 12 30  1  0  0  0  0
 13 18  2  0  0  0  0
 13 24  1  0  0  0  0
 14 18  1  0  0  0  0
 14 25  2  0  0  0  0
 15 23  1  0  0  0  0
 15 28  2  0  0  0  0
 16 30  2  0  0  0  0
 16 31  1  0  0  0  0
 17 32  1  0  0  0  0
 18 37  1  0  0  0  0
 19 32  1  0  0  0  0
 19 33  2  0  0  0  0
 19 38  1  0  0  0  0
 20 22  2  0  0  0  0
 20 43  1  0  0  0  0
 21 23  2  0  0  0  0
 21 44  1  0  0  0  0
 22 54  1  0  0  0  0
 23 45  1  0  0  0  0
 24 26  2  0  0  0  0
 24 69  1  0  0  0  0
 25 26  1  0  0  0  0
 25 72  1  0  0  0  0
 26 73  1  0  0  0  0
 27 85  1  0  0  0  0
 28 86  1  0  0  0  0
 29 31  2  0  0  0  0
 29 85  1  0  0  0  0
 30 87  1  0  0  0  0
 31 88  1  0  0  0  0
 32 66  2  0  0  0  0
 33 68  1  0  0  0  0
 33 74  1  0  0  0  0
 34 35  2  0  0  0  0
 34 36  1  0  0  0  0
 35 46  1  0  0  0  0
 35 62  1  0  0  0  0
 36 47  1  0  0  0  0
 36 79  2  0  0  0  0
 37 39  1  0  0  0  0
 37 67  2  0  0  0  0
 38 75  1  0  0  0  0
 38 80  2  0  0  0  0
 39 70  1  0  0  0  0
 39 81  2  0  0  0  0
 40 55  1  0  0  0  0
 40 76  1  0  0  0  0
 40 82  2  0  0  0  0
 41 63  1  0  0  0  0
 41 71  1  0  0  0  0
 41 83  2  0  0  0  0
 42 64  1  0  0  0  0
 42 77  1  0  0  0  0
 42 84  2  0  0  0  0
 43 48  1  0  0  0  0
 44 55  1  0  0  0  0
 45 71  1  0  0  0  0
 46 69  1  0  0  0  0
 47 69  1  0  0  0  0
 48 50  1  0  0  0  0
 49 51  1  0  0  0  0
 49 52  1  0  0  0  0
 50 54  1  0  0  0  0
 51 56  1  0  0  0  0
 52 70  1  0  0  0  0
 53 56  1  0  0  0  0
 53 70  1  0  0  0  0
 54 76  1  0  0  0  0
 55 71  1  0  0  0  0
 56 68  1  0  0  0  0
 57 64  1  0  0  0  0
 58 65  1  0  0  0  0
 59 65  1  0  0  0  0
 60 65  1  0  0  0  0
 61 78  1  0  0  0  0
 62 86  1  0  0  0  0
 63 65  1  0  0  0  0
 63 77  1  0  0  0  0
 64 78  1  0  0  0  0
 66 68  1  0  0  0  0
M  CHG  1  78   1
M  ISO  4  37 100  39 100  62 101  86 101
M  END
> <Batch ID>
0092

> <Smiles>
CNC(C)C(=O)NC(C(=O)N1Cc2cc([101O:1][101CH2:1]C3=CC(=O)CN(c4cc([100C:0](=N)[100C:0](=O)N5CCCC(n6nc(-c7ccc(Oc8ccc(F)cc8F)cc7)c(C(N)=O)c6N)C5)cc(N)c4N)C3)ccc2CC1C(=O)NC1CCCc2ccccc21)C(C)(C)C

> <Shape>
0.226

> <Color>
0.059

> <Negative vol penalty>
0.000

$$$$

  -OEChem-04052300343D

 85 93  0     1  0  0  0  0  0999 V2000
  -29.8058  -35.1134   22.3878 C   0  0  0  0  0  0  0  0  0  0  0  0
  -29.3818  -33.7885   22.3718 C   0  0  0  0  0  0  0  0  0  0  0  0
  -24.3524   -8.8692   20.5285 C   0  0  0  0  0  0  0  0  0  0  0  0
  -22.9761  -10.7454   21.1788 C   0  0  0  0  0  0  0  0  0  0  0  0
  -29.4671  -20.4931   21.4701 C   0  0  0  0  0  0  0  0  0  0  0  0
  -28.9826  -36.1012   22.9269 C   0  0  0  0  0  0  0  0  0  0  0  0
  -28.1347  -33.4504   22.8960 C   0  0  0  0  0  0  0  0  0  0  0  0
  -25.5707  -30.2648   19.9089 C   0  0  0  0  0  0  0  0  0  0  0  0
  -29.5204  -19.1144   21.6747 C   0  0  0  0  0  0  0  0  0  0  0  0
  -23.3357   -7.9924   20.9064 C   0  0  0  0  0  0  0  0  0  0  0  0
  -21.9593   -9.8685   21.5567 C   0  0  0  0  0  0  0  0  0  0  0  0
  -25.9416  -28.9213   19.9439 C   0  0  0  0  0  0  0  0  0  0  0  0
  -22.1167   -6.6797   23.7727 C   0  0  0  0  0  0  0  0  0  0  0  0
  -22.4741   -5.5583   24.5212 C   0  0  0  0  0  0  0  0  0  0  0  0
  -28.2339  -20.1416   19.4225 C   0  0  0  0  0  0  0  0  0  0  0  0
  -24.0854  -28.4533   21.4117 C   0  0  0  0  0  0  0  0  0  0  0  0
  -21.5984   -4.1219   22.7872 C   0  0  0  0  0  0  0  0  0  0  0  0
  -24.1727  -10.2458   20.6647 C   0  0  0  0  0  0  0  0  0  0  0  0
  -28.8238  -21.0067   20.3441 C   0  0  0  0  0  0  0  0  0  0  0  0
  -25.4169  -11.7339   19.0079 C   0  0  0  0  0  0  0  0  0  0  0  0
  -27.7207  -35.7764   23.4492 C   0  0  0  0  0  0  0  0  0  0  0  0
  -24.4589  -30.7154   20.6350 C   0  0  0  0  0  0  0  0  0  0  0  0
  -27.2944  -34.4345   23.4438 C   0  0  0  0  0  0  0  0  0  0  0  0
  -23.7009  -29.8025   21.3822 C   0  0  0  0  0  0  0  0  0  0  0  0
  -28.9305  -18.2492   20.7532 C   0  0  0  0  0  0  0  0  0  0  0  0
  -22.1391   -8.4919   21.4205 C   0  0  0  0  0  0  0  0  0  0  0  0
  -25.2006  -28.0158   20.6976 C   0  0  0  0  0  0  0  0  0  0  0  0
  -21.5001   -6.5222   22.5314 C   0  0  0  0  0  0  0  0  0  0  0  0
  -22.2149   -4.2794   24.0285 C   0  0  0  0  0  0  0  0  0  0  0  0
  -28.2872  -18.7628   19.6271 C   0  0  0  0  0  0  0  0  0  0  0  0
  -21.2410   -5.2433   22.0387 C   0  0  0  0  0  0  0  0  0  0  0  0
  -25.2229  -11.1521   20.2750 C   0  0  0  0  0  0  0  0  0  0  0  0
  -26.5413  -12.5090   19.1545 C   0  0  0  0  0  0  0  0  0  0  0  0
  -28.7672  -22.4752   20.1262 C   0  0  0  0  0  0  0  0  0  0  0  0
  -24.6494  -11.5869   17.8058 C   0  0  0  0  0  0  0  0  0  0  0  0
  -24.0179  -32.7827   23.0089 C   0  0  0  0  0  0  0  0  0  0  0  0
  -27.3098  -25.1345   21.3224 C   0  0  0  0  0  0  0  0  0  0  0  0
  -20.8841  -32.1591   22.4499 C   0  0  0  0  0  0  0  0  0  0  0  0
  -18.5310  -30.0128   21.2238 C   0  0  0  0  0  0  0  0  0  0  0  0
  -29.5870  -16.1785   22.0288 C   0  0  0  0  0  0  0  0  0  0  0  0
  -26.8859  -36.8715   24.0644 C   0  0  0  0  0  0  0  0  0  0  0  0
  -24.0561  -32.1629   20.5654 C   0  0  0  0  0  0  0  0  0  0  0  0
  -22.4868  -30.2318   22.1633 C   0  0  0  0  0  0  0  0  0  0  0  0
  -25.4221  -36.4849   24.2595 C   0  0  0  0  0  0  0  0  0  0  0  0
  -29.9085  -12.7479   22.9263 C   0  0  0  0  0  0  0  0  0  0  0  0
  -25.3152  -35.0993   24.8884 C   0  0  0  0  0  0  0  0  0  0  0  0
  -28.7341  -12.0748   22.2123 C   0  0  0  0  0  0  0  0  0  0  0  0
  -29.5370  -14.1364   23.4439 C   0  0  0  0  0  0  0  0  0  0  0  0
  -27.7867  -14.3667   21.7257 C   0  0  0  0  0  0  0  0  0  0  0  0
  -25.9379  -34.0318   23.9805 C   0  0  1  0  0  0  0  0  0  0  0  0
  -23.2094  -32.6053   21.7549 C   0  0  1  0  0  0  0  0  0  0  0  0
  -28.1320  -12.9921   21.1299 C   0  0  2  0  0  0  0  0  0  0  0  0
  -16.0501  -29.7617   20.9416 C   0  0  0  0  0  0  0  0  0  0  0  0
  -20.6164  -31.4941   25.4158 C   0  0  0  0  0  0  0  0  0  0  0  0
  -18.4424  -30.3668   24.8954 C   0  0  0  0  0  0  0  0  0  0  0  0
  -18.7131  -32.8090   24.4656 C   0  0  0  0  0  0  0  0  0  0  0  0
  -18.7625  -29.8832   18.2762 C   0  0  0  0  0  0  0  0  0  0  0  0
  -28.7568  -24.7010   21.2224 C   0  0  0  0  0  0  0  0  0  0  0  0
  -26.9485  -26.4071   20.5830 C   0  0  0  0  0  0  0  0  0  1  0  0
  -19.8870  -31.1485   22.9633 C   0  0  1  0  0  0  0  0  0  0  0  0
  -17.3456  -30.2372   20.3025 C   0  0  2  0  0  0  0  0  0  0  0  0
  -19.4387  -31.4466   24.4220 C   0  0  0  0  0  0  0  0  0  0  0  0
  -26.1497  -11.5255   21.1613 N   0  0  0  0  0  0  0  0  0  0  0  0
  -26.9371  -12.3503   20.4500 N   0  0  0  0  0  0  0  0  0  0  0  0
  -22.1371  -31.6588   22.0685 N   0  0  0  0  0  0  0  0  0  0  0  0
  -28.9775  -14.9506   22.3628 N   0  0  0  0  0  0  0  0  0  0  0  0
  -27.2201  -13.3040   18.3003 N   0  0  0  0  0  0  0  0  0  0  0  0
  -23.5239  -10.7521   17.8296 N   0  0  0  0  0  0  0  0  0  0  0  0
  -28.9869  -16.8491   20.9636 N   0  0  0  0  0  0  0  0  0  0  0  0
  -28.8245  -23.2707   21.2678 N   0  0  0  0  0  0  0  0  0  0  0  0
  -25.0395  -33.7061   22.8937 N   0  0  0  0  0  0  0  0  0  0  0  0
  -18.7953  -31.1243   21.9958 N   0  0  0  0  0  0  0  0  0  0  0  0
  -17.5371  -29.4981   19.0226 N   0  3  0  0  0  0  0  0  0  0  0  0
  -28.6548  -22.9082   18.9823 O   0  0  0  0  0  0  0  0  0  0  0  0
  -24.9621  -12.1655   16.7377 O   0  0  0  0  0  0  0  0  0  0  0  0
  -23.7348  -32.1313   24.0075 O   0  0  0  0  0  0  0  0  0  0  0  0
  -26.4862  -24.5246   22.0039 O   0  0  0  0  0  0  0  0  0  0  0  0
  -20.5605  -33.3476   22.3829 O   0  0  0  0  0  0  0  0  0  0  0  0
  -19.1573  -28.9559   21.2581 O   0  0  0  0  0  0  0  0  0  0  0  0
  -30.5854  -16.5906   22.6248 O   0  0  0  0  0  0  0  0  0  0  0  0
  -21.1467   -7.6366   21.7891 O   0  0  0  0  0  0  0  0  0  0  0  0
  -25.5609  -26.7041   20.7340 O   0  0  0  0  0  0  0  0  0  1  0  0
  -22.5596   -3.2026   24.7467 F   0  0  0  0  0  0  0  0  0  0  0  0
  -27.7171  -17.9409   18.7341 F   0  0  0  0  0  0  0  0  0  0  0  0
  -20.6500   -5.0857   20.8464 F   0  0  0  0  0  0  0  0  0  0  0  0
  1  2  1  0  0  0  0
  1  6  2  0  0  0  0
  2  7  2  0  0  0  0
  3 10  2  0  0  0  0
  3 18  1  0  0  0  0
  4 11  1  0  0  0  0
  4 18  2  0  0  0  0
  5  9  2  0  0  0  0
  5 19  1  0  0  0  0
  6 21  1  0  0  0  0
  7 23  1  0  0  0  0
  8 12  2  0  0  0  0
  8 22  1  0  0  0  0
  9 25  1  0  0  0  0
 10 26  1  0  0  0  0
 11 26  2  0  0  0  0
 12 27  1  0  0  0  0
 13 14  2  0  0  0  0
 13 28  1  0  0  0  0
 14 29  1  0  0  0  0
 15 19  2  0  0  0  0
 15 30  1  0  0  0  0
 16 24  1  0  0  0  0
 16 27  2  0  0  0  0
 17 29  2  0  0  0  0
 17 31  1  0  0  0  0
 18 32  1  0  0  0  0
 19 34  1  0  0  0  0
 20 32  1  0  0  0  0
 20 33  2  0  0  0  0
 20 35  1  0  0  0  0
 21 23  2  0  0  0  0
 21 41  1  0  0  0  0
 22 24  2  0  0  0  0
 22 42  1  0  0  0  0
 23 50  1  0  0  0  0
 24 43  1  0  0  0  0
 25 30  2  0  0  0  0
 25 69  1  0  0  0  0
 26 81  1  0  0  0  0
 27 82  1  0  0  0  0
 28 31  2  0  0  0  0
 28 81  1  0  0  0  0
 29 83  1  0  0  0  0
 30 84  1  0  0  0  0
 31 85  1  0  0  0  0
 32 63  2  0  0  0  0
 33 64  1  0  0  0  0
 33 67  1  0  0  0  0
 34 70  1  0  0  0  0
 34 74  2  0  0  0  0
 35 68  1  0  0  0  0
 35 75  2  0  0  0  0
 36 51  1  0  0  0  0
 36 71  1  0  0  0  0
 36 76  2  0  0  0  0
 37 58  1  0  0  0  0
 37 59  1  0  0  0  0
 37 77  2  0  0  0  0
 38 60  1  0  0  0  0
 38 65  1  0  0  0  0
 38 78  2  0  0  0  0
 39 61  1  0  0  0  0
 39 72  1  0  0  0  0
 39 79  2  0  0  0  0
 40 66  1  0  0  0  0
 40 69  1  0  0  0  0
 40 80  2  0  0  0  0
 41 44  1  0  0  0  0
 42 51  1  0  0  0  0
 43 65  1  0  0  0  0
 44 46  1  0  0  0  0
 45 47  1  0  0  0  0
 45 48  1  0  0  0  0
 46 50  1  0  0  0  0
 47 52  1  0  0  0  0
 48 66  1  0  0  0  0
 49 52  1  0  0  0  0
 49 66  1  0  0  0  0
 50 71  1  0  0  0  0
 51 65  1  0  0  0  0
 52 64  1  0  0  0  0
 53 61  1  0  0  0  0
 54 62  1  0  0  0  0
 55 62  1  0  0  0  0
 56 62  1  0  0  0  0
 57 73  1  0  0  0  0
 58 70  1  0  0  0  0
 59 82  1  0  0  0  0
 60 62  1  0  0  0  0
 60 72  1  0  0  0  0
 61 73  1  0  0  0  0
 63 64  1  0  0  0  0
M  CHG  1  73   1
M  ISO  4  40 100  59 101  69 100  82 101
M  END
> <Batch ID>
0092

> <Smiles>
CNC(C)C(=O)NC(C(=O)N1Cc2cc([101O:1][101CH2:1]C(=O)CNC(=O)c3ccc([100NH:0][100C:0](=O)N4CCCC(n5nc(-c6ccc(Oc7ccc(F)cc7F)cc6)c(C(N)=O)c5N)C4)c(F)c3)ccc2CC1C(=O)NC1CCCc2ccccc21)C(C)(C)C

> <Shape>
0.310

> <Color>
0.107

> <Negative vol penalty>
0.000

$$$$

  -OEChem-04052300343D

 84 92  0     1  0  0  0  0  0999 V2000
  -30.1084  -27.3556   28.8663 C   0  0  0  0  0  0  0  0  0  0  0  0
  -30.4783  -26.2712   28.0773 C   0  0  0  0  0  0  0  0  0  0  0  0
  -23.2989   -9.7981   19.9074 C   0  0  0  0  0  0  0  0  0  0  0  0
  -23.7225   -9.9433   22.2816 C   0  0  0  0  0  0  0  0  0  0  0  0
  -30.6980  -18.2995   16.6622 C   0  0  0  0  0  0  0  0  0  0  0  0
  -29.2202  -28.3079   28.3682 C   0  0  0  0  0  0  0  0  0  0  0  0
  -29.9593  -26.1378   26.7899 C   0  0  0  0  0  0  0  0  0  0  0  0
  -32.8754  -23.8592   21.8200 C   0  0  0  0  0  0  0  0  0  0  0  0
  -31.0794  -19.3136   17.5406 C   0  0  0  0  0  0  0  0  0  0  0  0
  -22.5678   -8.6276   20.1094 C   0  0  0  0  0  0  0  0  0  0  0  0
  -22.9913   -8.7727   22.4836 C   0  0  0  0  0  0  0  0  0  0  0  0
  -32.8678  -22.6139   21.1933 C   0  0  0  0  0  0  0  0  0  0  0  0
  -19.7401   -7.8687   22.6653 C   0  0  0  0  0  0  0  0  0  0  0  0
  -18.8254   -7.8513   23.7182 C   0  0  0  0  0  0  0  0  0  0  0  0
  -28.8526  -17.7346   18.1157 C   0  0  0  0  0  0  0  0  0  0  0  0
  -31.1630  -23.3947   19.6760 C   0  0  0  0  0  0  0  0  0  0  0  0
  -20.0159   -6.0040   24.7218 C   0  0  0  0  0  0  0  0  0  0  0  0
  -23.8763  -10.4560   20.9935 C   0  0  0  0  0  0  0  0  0  0  0  0
  -29.5845  -17.5100   16.9497 C   0  0  0  0  0  0  0  0  0  0  0  0
  -24.1431  -12.9850   20.7922 C   0  0  0  0  0  0  0  0  0  0  0  0
  -28.6975  -28.1913   27.0705 C   0  0  0  0  0  0  0  0  0  0  0  0
  -32.0181  -24.8806   21.3857 C   0  0  0  0  0  0  0  0  0  0  0  0
  -29.0622  -27.0887   26.2745 C   0  0  0  0  0  0  0  0  0  0  0  0
  -31.1652  -24.6535   20.2959 C   0  0  0  0  0  0  0  0  0  0  0  0
  -30.3475  -19.5383   18.7066 C   0  0  0  0  0  0  0  0  0  0  0  0
  -29.2341  -18.7487   18.9941 C   0  0  0  0  0  0  0  0  0  0  0  0
  -22.4140   -8.1149   21.3975 C   0  0  0  0  0  0  0  0  0  0  0  0
  -32.0098  -22.3808   20.1226 C   0  0  0  0  0  0  0  0  0  0  0  0
  -20.7927   -6.9537   22.6406 C   0  0  0  0  0  0  0  0  0  0  0  0
  -18.9633   -6.9190   24.7465 C   0  0  0  0  0  0  0  0  0  0  0  0
  -20.9305   -6.0214   23.6688 C   0  0  0  0  0  0  0  0  0  0  0  0
  -24.6322  -11.6649   20.7855 C   0  0  0  0  0  0  0  0  0  0  0  0
  -25.2491  -13.7621   20.5482 C   0  0  0  0  0  0  0  0  0  0  0  0
  -29.1799  -16.4325   16.0162 C   0  0  0  0  0  0  0  0  0  0  0  0
  -22.8085  -13.4658   21.0004 C   0  0  0  0  0  0  0  0  0  0  0  0
  -29.6470  -26.6147   22.6570 C   0  0  0  0  0  0  0  0  0  0  0  0
  -29.8934  -28.1495   19.7181 C   0  0  0  0  0  0  0  0  0  0  0  0
  -28.4026  -14.0990   15.9402 C   0  0  0  0  0  0  0  0  0  0  0  0
  -27.9473  -30.6757   20.9310 C   0  0  0  0  0  0  0  0  0  0  0  0
  -29.9223  -14.7434   17.6452 C   0  0  0  0  0  0  0  0  0  0  0  0
  -27.7039  -29.2204   26.5929 C   0  0  0  0  0  0  0  0  0  0  0  0
  -32.0636  -26.2269   22.0562 C   0  0  0  0  0  0  0  0  0  0  0  0
  -30.2292  -25.7176   19.7896 C   0  0  0  0  0  0  0  0  0  0  0  0
  -27.4903  -29.2055   25.0815 C   0  0  0  0  0  0  0  0  0  0  0  0
  -30.1597  -12.5996   20.4926 C   0  0  0  0  0  0  0  0  0  0  0  0
  -27.2976  -27.7765   24.5837 C   0  0  0  0  0  0  0  0  0  0  0  0
  -28.7073  -12.2447   20.8054 C   0  0  0  0  0  0  0  0  0  0  0  0
  -30.3887  -12.7115   18.9899 C   0  0  0  0  0  0  0  0  0  0  0  0
  -28.0216  -13.3523   18.6254 C   0  0  0  0  0  0  0  0  0  0  0  0
  -28.5399  -26.9224   24.8639 C   0  0  1  0  0  0  0  0  0  0  0  0
  -30.8107  -27.0681   21.8217 C   0  0  1  0  0  0  0  0  0  0  0  0
  -27.7439  -13.2389   20.1358 C   0  0  1  0  0  0  0  0  0  0  0  0
  -27.1910  -14.5416   15.1552 C   0  0  0  0  0  0  0  0  0  0  0  0
  -27.1230  -32.9758   20.3587 C   0  0  0  0  0  0  0  0  0  0  0  0
  -32.6326  -29.2998   20.4104 C   0  0  0  0  0  0  0  0  0  0  0  0
  -31.5339  -31.5232   20.7533 C   0  0  0  0  0  0  0  0  0  0  0  0
  -31.4736  -30.4372   18.5084 C   0  0  0  0  0  0  0  0  0  0  0  0
  -25.1205  -29.8007   20.9790 C   0  0  0  0  0  0  0  0  0  0  0  0
  -30.0583  -29.4950   20.3795 C   0  0  1  0  0  0  0  0  0  0  0  0
  -26.8328  -31.4844   20.2921 C   0  0  2  0  0  0  0  0  0  0  0  0
  -31.4160  -30.1660   20.0275 C   0  0  0  0  0  0  0  0  0  0  0  0
  -25.9464  -11.6031   20.5553 N   0  0  0  0  0  0  0  0  0  0  0  0
  -26.2926  -12.8940   20.4151 N   0  0  0  0  0  0  0  0  0  0  0  0
  -30.3717  -27.0362   20.4207 N   0  0  0  0  0  0  0  0  0  0  0  0
  -29.4413  -13.6409   18.3734 N   0  0  0  0  0  0  0  0  0  0  0  0
  -28.4794  -18.9588   20.1701 N   0  0  0  0  0  0  0  0  0  0  0  0
  -25.4210  -15.0964   20.4367 N   0  0  0  0  0  0  0  0  0  0  0  0
  -21.7913  -12.5315   21.2382 N   0  0  0  0  0  0  0  0  0  0  0  0
  -30.7526  -20.5695   19.5833 N   0  0  0  0  0  0  0  0  0  1  0  0
  -29.5805  -27.2128   23.9009 N   0  0  0  0  0  0  0  0  0  0  0  0
  -28.8881  -30.2809   20.0035 N   0  0  0  0  0  0  0  0  0  0  0  0
  -29.1611  -15.1154   16.5263 N   0  0  0  0  0  0  0  0  0  0  0  0
  -25.5406  -31.2256   20.9880 N   0  3  0  0  0  0  0  0  0  0  0  0
  -29.0249  -16.7239   14.8312 O   0  0  0  0  0  0  0  0  0  0  0  0
  -22.5236  -14.6868   20.9600 O   0  0  0  0  0  0  0  0  0  0  0  0
  -28.8663  -25.7849   22.2057 O   0  0  0  0  0  0  0  0  0  0  0  0
  -29.3625  -28.0856   18.6058 O   0  0  0  0  0  0  0  0  0  0  0  0
  -28.7157  -12.9060   15.9649 O   0  0  0  0  0  0  0  0  0  0  0  0
  -27.9820  -30.4229   22.1333 O   0  0  0  0  0  0  0  0  0  0  0  0
  -30.9949  -15.3045   17.8962 O   0  0  0  0  0  0  0  0  0  0  0  0
  -21.7004   -6.9728   21.5949 O   0  0  0  0  0  0  0  0  0  0  0  0
  -32.0006  -21.1524   19.5017 O   0  0  0  0  0  0  0  0  0  1  0  0
  -18.0857   -6.9034   25.7583 F   0  0  0  0  0  0  0  0  0  0  0  0
  -21.9404   -5.1406   23.6512 F   0  0  0  0  0  0  0  0  0  0  0  0
  1  2  1  0  0  0  0
  1  6  2  0  0  0  0
  2  7  2  0  0  0  0
  3 10  2  0  0  0  0
  3 18  1  0  0  0  0
  4 11  1  0  0  0  0
  4 18  2  0  0  0  0
  5  9  2  0  0  0  0
  5 19  1  0  0  0  0
  6 21  1  0  0  0  0
  7 23  1  0  0  0  0
  8 12  2  0  0  0  0
  8 22  1  0  0  0  0
  9 25  1  0  0  0  0
 10 27  1  0  0  0  0
 11 27  2  0  0  0  0
 12 28  1  0  0  0  0
 13 14  2  0  0  0  0
 13 29  1  0  0  0  0
 14 30  1  0  0  0  0
 15 19  2  0  0  0  0
 15 26  1  0  0  0  0
 16 24  1  0  0  0  0
 16 28  2  0  0  0  0
 17 30  2  0  0  0  0
 17 31  1  0  0  0  0
 18 32  1  0  0  0  0
 19 34  1  0  0  0  0
 20 32  1  0  0  0  0
 20 33  2  0  0  0  0
 20 35  1  0  0  0  0
 21 23  2  0  0  0  0
 21 41  1  0  0  0  0
 22 24  2  0  0  0  0
 22 42  1  0  0  0  0
 23 50  1  0  0  0  0
 24 43  1  0  0  0  0
 25 26  2  0  0  0  0
 25 69  1  0  0  0  0
 26 66  1  0  0  0  0
 27 81  1  0  0  0  0
 28 82  1  0  0  0  0
 29 31  2  0  0  0  0
 29 81  1  0  0  0  0
 30 83  1  0  0  0  0
 31 84  1  0  0  0  0
 32 62  2  0  0  0  0
 33 63  1  0  0  0  0
 33 67  1  0  0  0  0
 34 72  1  0  0  0  0
 34 74  2  0  0  0  0
 35 68  1  0  0  0  0
 35 75  2  0  0  0  0
 36 51  1  0  0  0  0
 36 70  1  0  0  0  0
 36 76  2  0  0  0  0
 37 59  1  0  0  0  0
 37 64  1  0  0  0  0
 37 77  2  0  0  0  0
 38 53  1  0  0  0  0
 38 72  1  0  0  0  0
 38 78  2  0  0  0  0
 39 60  1  0  0  0  0
 39 71  1  0  0  0  0
 39 79  2  0  0  0  0
 40 65  1  0  0  0  0
 40 72  1  0  0  0  0
 40 80  2  0  0  0  0
 41 44  1  0  0  0  0
 42 51  1  0  0  0  0
 43 64  1  0  0  0  0
 44 46  1  0  0  0  0
 45 47  1  0  0  0  0
 45 48  1  0  0  0  0
 46 50  1  0  0  0  0
 47 52  1  0  0  0  0
 48 65  1  0  0  0  0
 49 52  1  0  0  0  0
 49 65  1  0  0  0  0
 50 70  1  0  0  0  0
 51 64  1  0  0  0  0
 52 63  1  0  0  0  0
 54 60  1  0  0  0  0
 55 61  1  0  0  0  0
 56 61  1  0  0  0  0
 57 61  1  0  0  0  0
 58 73  1  0  0  0  0
 59 61  1  0  0  0  0
 59 71  1  0  0  0  0
 60 73  1  0  0  0  0
 62 63  1  0  0  0  0
 69 82  1  0  0  0  0
M  CHG  1  73   1
M  ISO  4  40 100  69 101  72 100  82 101
M  END
> <Batch ID>
0092

> <Smiles>
CNC(C)C(=O)NC(C(=O)N1Cc2cc([101O:1][101NH:1]c3ccc(C(=O)[100N:0](C(C)=O)[100C:0](=O)N4CCCC(n5nc(-c6ccc(Oc7ccc(F)cc7F)cc6)c(C(N)=O)c5N)C4)cc3N)ccc2CC1C(=O)NC1CCCc2ccccc21)C(C)(C)C

> <Shape>
0.235

> <Color>
0.171

> <Negative vol penalty>
0.000

$$$$

  -OEChem-04052300343D

 87 95  0     1  0  0  0  0  0999 V2000
  -26.0312  -35.7384   22.1214 C   0  0  0  0  0  0  0  0  0  0  0  0
  -26.5730  -34.4574   22.0964 C   0  0  0  0  0  0  0  0  0  0  0  0
  -22.3381  -10.7847   20.6851 C   0  0  0  0  0  0  0  0  0  0  0  0
  -24.5666  -10.6615   21.6103 C   0  0  0  0  0  0  0  0  0  0  0  0
  -24.7325  -35.9358   22.5889 C   0  0  0  0  0  0  0  0  0  0  0  0
  -25.8168  -33.3730   22.5399 C   0  0  0  0  0  0  0  0  0  0  0  0
  -26.1304  -29.3858   19.4335 C   0  0  0  0  0  0  0  0  0  0  0  0
  -22.3662   -9.4128   20.4347 C   0  0  0  0  0  0  0  0  0  0  0  0
  -24.5946   -9.2895   21.3600 C   0  0  0  0  0  0  0  0  0  0  0  0
  -27.2830  -28.6055   19.5135 C   0  0  0  0  0  0  0  0  0  0  0  0
  -21.9645   -6.5515   22.1911 C   0  0  0  0  0  0  0  0  0  0  0  0
  -20.8359   -5.8068   22.5336 C   0  0  0  0  0  0  0  0  0  0  0  0
  -26.0925  -26.9956   20.8590 C   0  0  0  0  0  0  0  0  0  0  0  0
  -29.2307  -20.1762   20.4721 C   0  0  0  0  0  0  0  0  0  0  0  0
  -20.5802   -5.1336   20.2274 C   0  0  0  0  0  0  0  0  0  0  0  0
  -23.4384  -11.4090   21.2728 C   0  0  0  0  0  0  0  0  0  0  0  0
  -22.9605  -13.4685   22.7004 C   0  0  0  0  0  0  0  0  0  0  0  0
  -23.9566  -34.8520   23.0292 C   0  0  0  0  0  0  0  0  0  0  0  0
  -24.9513  -28.9816   20.0759 C   0  0  0  0  0  0  0  0  0  0  0  0
  -24.5070  -33.5562   23.0149 C   0  0  0  0  0  0  0  0  0  0  0  0
  -24.9256  -27.7713   20.7835 C   0  0  0  0  0  0  0  0  0  0  0  0
  -29.1943  -18.8260   20.8205 C   0  0  0  0  0  0  0  0  0  0  0  0
  -29.2963  -21.1517   21.4671 C   0  0  0  0  0  0  0  0  0  0  0  0
  -29.2233  -18.4513   22.1637 C   0  0  0  0  0  0  0  0  0  0  0  0
  -29.3253  -20.7769   22.8104 C   0  0  0  0  0  0  0  0  0  0  0  0
  -29.2888  -19.4267   23.1587 C   0  0  0  0  0  0  0  0  0  0  0  0
  -23.4944   -8.6652   20.7722 C   0  0  0  0  0  0  0  0  0  0  0  0
  -27.2650  -27.4116   20.2287 C   0  0  0  0  0  0  0  0  0  0  0  0
  -22.4009   -6.5873   20.8667 C   0  0  0  0  0  0  0  0  0  0  0  0
  -20.1438   -5.0979   21.5518 C   0  0  0  0  0  0  0  0  0  0  0  0
  -21.7088   -5.8783   19.8849 C   0  0  0  0  0  0  0  0  0  0  0  0
  -23.4102  -12.8263   21.5311 C   0  0  0  0  0  0  0  0  0  0  0  0
  -23.1402  -14.8066   22.4479 C   0  0  0  0  0  0  0  0  0  0  0  0
  -22.4280  -12.9058   23.9068 C   0  0  0  0  0  0  0  0  0  0  0  0
  -29.3586  -24.5170   19.7848 C   0  0  0  0  0  0  0  0  0  0  0  0
  -29.3074  -23.0167   19.8044 C   0  0  0  0  0  0  0  0  0  0  0  0
  -23.1276  -30.1870   22.3835 C   0  0  0  0  0  0  0  0  0  0  0  0
  -21.1949  -27.6953   21.6229 C   0  0  0  0  0  0  0  0  0  0  0  0
  -20.8845  -24.5767   20.2722 C   0  0  0  0  0  0  0  0  0  0  0  0
  -26.8240  -17.8102   18.8066 C   0  0  0  0  0  0  0  0  0  0  0  0
  -22.5746  -35.1210   23.5701 C   0  0  0  0  0  0  0  0  0  0  0  0
  -23.7090  -29.8214   19.9578 C   0  0  0  0  0  0  0  0  0  0  0  0
  -23.6795  -27.2827   21.4741 C   0  0  0  0  0  0  0  0  0  0  0  0
  -21.7061  -33.8697   23.6713 C   0  0  0  0  0  0  0  0  0  0  0  0
  -23.2667  -17.9537   18.8464 C   0  0  0  0  0  0  0  0  0  0  0  0
  -22.4880  -32.7275   24.3120 C   0  0  0  0  0  0  0  0  0  0  0  0
  -22.8595  -16.7138   19.6445 C   0  0  0  0  0  0  0  0  0  0  0  0
  -24.4932  -17.6873   17.9766 C   0  0  0  0  0  0  0  0  0  0  0  0
  -25.2504  -15.9012   19.4966 C   0  0  0  0  0  0  0  0  0  0  0  0
  -23.7093  -32.3513   23.4643 C   0  0  1  0  0  0  0  0  0  0  0  0
  -22.7075  -29.5681   21.0804 C   0  0  1  0  0  0  0  0  0  0  0  0
  -24.0517  -16.1370   20.4314 C   0  0  2  0  0  0  0  0  0  0  0  0
  -19.1870  -22.7831   19.8263 C   0  0  0  0  0  0  0  0  0  0  0  0
  -21.2437  -26.9191   24.5733 C   0  0  0  0  0  0  0  0  0  0  0  0
  -20.3630  -24.6673   23.9237 C   0  0  0  0  0  0  0  0  0  0  0  0
  -19.0055  -26.7119   23.4770 C   0  0  0  0  0  0  0  0  0  0  0  0
  -21.3242  -24.7254   17.3493 C   0  0  0  0  0  0  0  0  0  0  0  0
  -29.1266  -17.8039   19.7324 C   0  0  0  0  0  0  0  0  0  0  0  0
  -28.2087  -25.2387   20.4377 C   0  0  0  0  0  0  0  0  0  1  0  0
  -21.0661  -26.2631   22.0825 C   0  0  1  0  0  0  0  0  0  0  0  0
  -19.8975  -24.0069   19.2694 C   0  0  2  0  0  0  0  0  0  0  0  0
  -20.4438  -26.1502   23.5028 C   0  0  0  0  0  0  0  0  0  0  0  0
  -23.8429  -13.6857   20.6047 N   0  0  0  0  0  0  0  0  0  0  0  0
  -23.6658  -14.8816   21.1916 N   0  0  0  0  0  0  0  0  0  0  0  0
  -22.4923  -28.1422   21.3347 N   0  0  0  0  0  0  0  0  0  0  0  0
  -25.5881  -17.1430   18.7834 N   0  0  0  0  0  0  0  0  0  0  0  0
  -29.1866  -17.0800   22.5114 N   0  0  0  0  0  0  0  0  0  0  0  0
  -29.3923  -21.7687   23.8187 N   0  0  0  0  0  0  0  0  0  0  0  0
  -29.3186  -19.0466   24.5225 N   0  0  0  0  0  0  0  0  0  0  0  0
  -22.8982  -15.9146   23.1802 N   0  0  0  0  0  0  0  0  0  0  0  0
  -22.3117  -11.5122   23.9995 N   0  0  0  0  0  0  0  0  0  0  0  0
  -29.3312  -22.5137   21.0874 N   0  0  0  0  0  0  0  0  0  0  0  0
  -23.3074  -31.5558   22.3241 N   0  0  0  0  0  0  0  0  0  0  0  0
  -20.3145  -25.5671   21.0437 N   0  0  0  0  0  0  0  0  0  0  0  0
  -27.8055  -17.2309   19.6015 N   0  0  0  0  0  0  0  0  0  0  0  0
  -20.6014  -23.6122   18.0166 N   0  3  0  0  0  0  0  0  0  0  0  0
  -22.0508  -13.6186   24.8676 O   0  0  0  0  0  0  0  0  0  0  0  0
  -30.3104  -25.0430   19.2280 O   0  0  0  0  0  0  0  0  0  0  0  0
  -29.2791  -22.4566   18.7211 O   0  0  0  0  0  0  0  0  0  0  0  0
  -23.2761  -29.4756   23.3702 O   0  0  0  0  0  0  0  0  0  0  0  0
  -20.1810  -28.3898   21.5164 O   0  0  0  0  0  0  0  0  0  0  0  0
  -22.0441  -24.1800   20.3645 O   0  0  0  0  0  0  0  0  0  0  0  0
  -27.0353  -18.8484   18.1706 O   0  0  0  0  0  0  0  0  0  0  0  0
  -23.5220   -7.3264   20.5283 O   0  0  0  0  0  0  0  0  0  0  0  0
  -28.3888  -26.6484   20.3089 O   0  0  0  0  0  0  0  0  0  1  0  0
  -19.0609   -4.3816   21.8812 F   0  0  0  0  0  0  0  0  0  0  0  0
  -22.1239   -5.9079   18.6111 F   0  0  0  0  0  0  0  0  0  0  0  0
  1  2  1  0  0  0  0
  1  5  2  0  0  0  0
  2  6  2  0  0  0  0
  3  8  2  0  0  0  0
  3 16  1  0  0  0  0
  4  9  1  0  0  0  0
  4 16  2  0  0  0  0
  5 18  1  0  0  0  0
  6 20  1  0  0  0  0
  7 10  2  0  0  0  0
  7 19  1  0  0  0  0
  8 27  1  0  0  0  0
  9 27  2  0  0  0  0
 10 28  1  0  0  0  0
 11 12  2  0  0  0  0
 11 29  1  0  0  0  0
 12 30  1  0  0  0  0
 13 21  1  0  0  0  0
 13 28  2  0  0  0  0
 14 22  2  0  0  0  0
 14 23  1  0  0  0  0
 15 30  2  0  0  0  0
 15 31  1  0  0  0  0
 16 32  1  0  0  0  0
 17 32  1  0  0  0  0
 17 33  2  0  0  0  0
 17 34  1  0  0  0  0
 18 20  2  0  0  0  0
 18 41  1  0  0  0  0
 19 21  2  0  0  0  0
 19 42  1  0  0  0  0
 20 50  1  0  0  0  0
 21 43  1  0  0  0  0
 22 24  1  0  0  0  0
 22 58  1  0  0  0  0
 23 25  2  0  0  0  0
 23 72  1  0  0  0  0
 24 26  2  0  0  0  0
 24 67  1  0  0  0  0
 25 26  1  0  0  0  0
 25 68  1  0  0  0  0
 26 69  1  0  0  0  0
 27 84  1  0  0  0  0
 28 85  1  0  0  0  0
 29 31  2  0  0  0  0
 29 84  1  0  0  0  0
 30 86  1  0  0  0  0
 31 87  1  0  0  0  0
 32 63  2  0  0  0  0
 33 64  1  0  0  0  0
 33 70  1  0  0  0  0
 34 71  1  0  0  0  0
 34 77  2  0  0  0  0
 35 36  1  0  0  0  0
 35 59  1  0  0  0  0
 35 78  2  0  0  0  0
 36 72  1  0  0  0  0
 36 79  2  0  0  0  0
 37 51  1  0  0  0  0
 37 73  1  0  0  0  0
 37 80  2  0  0  0  0
 38 60  1  0  0  0  0
 38 65  1  0  0  0  0
 38 81  2  0  0  0  0
 39 61  1  0  0  0  0
 39 74  1  0  0  0  0
 39 82  2  0  0  0  0
 40 66  1  0  0  0  0
 40 75  1  0  0  0  0
 40 83  2  0  0  0  0
 41 44  1  0  0  0  0
 42 51  1  0  0  0  0
 43 65  1  0  0  0  0
 44 46  1  0  0  0  0
 45 47  1  0  0  0  0
 45 48  1  0  0  0  0
 46 50  1  0  0  0  0
 47 52  1  0  0  0  0
 48 66  1  0  0  0  0
 49 52  1  0  0  0  0
 49 66  1  0  0  0  0
 50 73  1  0  0  0  0
 51 65  1  0  0  0  0
 52 64  1  0  0  0  0
 53 61  1  0  0  0  0
 54 62  1  0  0  0  0
 55 62  1  0  0  0  0
 56 62  1  0  0  0  0
 57 76  1  0  0  0  0
 58 75  1  0  0  0  0
 59 85  1  0  0  0  0
 60 62  1  0  0  0  0
 60 74  1  0  0  0  0
 61 76  1  0  0  0  0
 63 64  1  0  0  0  0
M  CHG  1  76   1
M  ISO  4  40 100  59 101  75 100  85 101
M  END
> <Batch ID>
0092

> <Smiles>
CNC(C)C(=O)NC(C(=O)N1Cc2cc([101O:1][101CH2:1]C(=O)C(=O)Nc3cc(C[100NH:0][100C:0](=O)N4CCCC(n5nc(-c6ccc(Oc7ccc(F)cc7F)cc6)c(C(N)=O)c5N)C4)c(N)c(N)c3N)ccc2CC1C(=O)NC1CCCc2ccccc21)C(C)(C)C

> <Shape>
0.280

> <Color>
0.077

> <Negative vol penalty>
0.000

$$$$

  -OEChem-04052300343D

 86 95  0     1  0  0  0  0  0999 V2000
  -16.6450  -29.5163   23.3270 C   0  0  0  0  0  0  0  0  0  0  0  0
  -17.1202  -28.4985   22.5063 C   0  0  0  0  0  0  0  0  0  0  0  0
  -23.4861   -9.9752   22.2095 C   0  0  0  0  0  0  0  0  0  0  0  0
  -23.4485   -9.7423   19.8050 C   0  0  0  0  0  0  0  0  0  0  0  0
  -17.5360  -30.4273   23.8928 C   0  0  0  0  0  0  0  0  0  0  0  0
  -18.4867  -28.3917   22.2500 C   0  0  0  0  0  0  0  0  0  0  0  0
  -23.3298  -22.3653   23.3696 C   0  0  0  0  0  0  0  0  0  0  0  0
  -22.7469   -8.7991   22.3350 C   0  0  0  0  0  0  0  0  0  0  0  0
  -22.7093   -8.5661   19.9306 C   0  0  0  0  0  0  0  0  0  0  0  0
  -24.3144  -21.4233   23.6684 C   0  0  0  0  0  0  0  0  0  0  0  0
  -19.5198   -7.8415   22.0296 C   0  0  0  0  0  0  0  0  0  0  0  0
  -18.4489   -7.8422   22.9233 C   0  0  0  0  0  0  0  0  0  0  0  0
  -25.9623  -23.1847   23.8408 C   0  0  0  0  0  0  0  0  0  0  0  0
  -32.0309  -18.8276   23.3944 C   0  0  0  0  0  0  0  0  0  0  0  0
  -30.2099  -17.2468   23.2474 C   0  0  0  0  0  0  0  0  0  0  0  0
  -32.0860  -17.0724   21.7351 C   0  0  0  0  0  0  0  0  0  0  0  0
  -19.4875   -6.0516   24.1692 C   0  0  0  0  0  0  0  0  0  0  0  0
  -23.8369  -10.4469   20.9445 C   0  0  0  0  0  0  0  0  0  0  0  0
  -24.2350  -12.9470   21.2585 C   0  0  0  0  0  0  0  0  0  0  0  0
  -18.9151  -30.3259   23.6511 C   0  0  0  0  0  0  0  0  0  0  0  0
  -23.6549  -23.7237   23.3205 C   0  0  0  0  0  0  0  0  0  0  0  0
  -19.3969  -29.3031   22.8120 C   0  0  0  0  0  0  0  0  0  0  0  0
  -24.9777  -24.1340   23.5544 C   0  0  0  0  0  0  0  0  0  0  0  0
  -30.7986  -18.3588   23.8494 C   0  0  0  0  0  0  0  0  0  0  0  0
  -32.6746  -18.1844   22.3371 C   0  0  0  0  0  0  0  0  0  0  0  0
  -30.8536  -16.6035   22.1902 C   0  0  0  0  0  0  0  0  0  0  0  0
  -22.3584   -8.0945   21.1956 C   0  0  0  0  0  0  0  0  0  0  0  0
  -25.6275  -21.8320   23.9031 C   0  0  0  0  0  0  0  0  0  0  0  0
  -20.5745   -6.9457   22.2055 C   0  0  0  0  0  0  0  0  0  0  0  0
  -18.4328   -6.9473   23.9932 C   0  0  0  0  0  0  0  0  0  0  0  0
  -20.5583   -6.0508   23.2753 C   0  0  0  0  0  0  0  0  0  0  0  0
  -24.6001  -11.6620   20.8141 C   0  0  0  0  0  0  0  0  0  0  0  0
  -25.2910  -13.7478   20.8981 C   0  0  0  0  0  0  0  0  0  0  0  0
  -28.1861  -20.1629   25.7919 C   0  0  0  0  0  0  0  0  0  0  0  0
  -28.8305  -20.3671   27.1172 C   0  0  0  0  0  0  0  0  0  0  0  0
  -27.2311  -21.0139   25.3971 C   0  0  0  0  0  0  0  0  0  1  0  0
  -23.0475  -13.3780   21.9366 C   0  0  0  0  0  0  0  0  0  0  0  0
  -22.4615  -27.2391   22.7784 C   0  0  0  0  0  0  0  0  0  0  0  0
  -24.4356  -27.3201   25.1250 C   0  0  0  0  0  0  0  0  0  0  0  0
  -26.3357  -26.9145   27.9290 C   0  0  0  0  0  0  0  0  0  0  0  0
  -30.7606  -14.7194   20.5205 C   0  0  0  0  0  0  0  0  0  0  0  0
  -19.8347  -31.3624   24.2467 C   0  0  0  0  0  0  0  0  0  0  0  0
  -22.6396  -24.7676   22.9420 C   0  0  0  0  0  0  0  0  0  0  0  0
  -25.2885  -25.6026   23.4568 C   0  0  0  0  0  0  0  0  0  0  0  0
  -28.6879  -19.0019   24.9842 C   0  0  0  0  0  0  0  0  0  0  0  0
  -30.2003  -19.7560   27.2733 C   0  0  0  0  0  0  0  0  0  0  0  0
  -21.3056  -30.9548   24.2273 C   0  0  0  0  0  0  0  0  0  0  0  0
  -29.2694  -12.8077   17.9131 C   0  0  0  0  0  0  0  0  0  0  0  0
  -21.6872  -30.3976   22.8595 C   0  0  0  0  0  0  0  0  0  0  0  0
  -27.8917  -12.4449   18.4719 C   0  0  0  0  0  0  0  0  0  0  0  0
  -30.9402  -19.6902   25.9395 C   0  0  0  0  0  0  0  0  0  0  0  0
  -30.3427  -12.7988   19.0001 C   0  0  0  0  0  0  0  0  0  0  0  0
  -28.6590  -13.2530   20.7403 C   0  0  0  0  0  0  0  0  0  0  0  0
  -20.8747  -29.1394   22.5302 C   0  0  1  0  0  0  0  0  0  0  0  0
  -22.8423  -26.1025   23.6810 C   0  0  1  0  0  0  0  0  0  0  0  0
  -27.5334  -13.3121   19.6947 C   0  0  2  0  0  0  0  0  0  0  0  0
  -27.3626  -28.2101   29.8170 C   0  0  0  0  0  0  0  0  0  0  0  0
  -26.6027  -28.3442   23.2386 C   0  0  0  0  0  0  0  0  0  0  0  0
  -28.0401  -28.7813   25.2414 C   0  0  0  0  0  0  0  0  0  0  0  0
  -25.8718  -29.9861   24.9776 C   0  0  0  0  0  0  0  0  0  0  0  0
  -24.7875  -25.4126   29.9555 C   0  0  0  0  0  0  0  0  0  0  0  0
  -25.8600  -27.5290   25.5731 C   0  0  1  0  0  0  0  0  0  0  0  0
  -26.1533  -27.4146   29.3507 C   0  0  2  0  0  0  0  0  0  0  0  0
  -26.5833  -28.6342   24.7527 C   0  0  0  0  0  0  0  0  0  0  0  0
  -25.7946  -11.6431   20.2168 N   0  0  0  0  0  0  0  0  0  0  0  0
  -26.1893  -12.9260   20.2833 N   0  0  0  0  0  0  0  0  0  0  0  0
  -30.1537  -19.0031   24.9081 N   0  0  3  0  0  0  0  0  0  0  0  0
  -24.2243  -26.3855   24.1041 N   0  0  0  0  0  0  0  0  0  0  0  0
  -29.9365  -13.6449   20.1244 N   0  0  0  0  0  0  0  0  0  0  0  0
  -33.9206  -18.6587   21.8768 N   0  0  0  0  0  0  0  0  0  0  0  0
  -25.5295  -15.0679   21.0501 N   0  0  0  0  0  0  0  0  0  0  0  0
  -22.0628  -12.4251   22.2306 N   0  0  0  0  0  0  0  0  0  0  0  0
  -30.2558  -15.4733   21.5795 N   0  0  0  0  0  0  0  0  0  0  0  0
  -21.4027  -27.9959   23.2429 N   0  0  0  0  0  0  0  0  0  0  0  0
  -25.8027  -27.7905   27.0072 N   0  0  0  0  0  0  0  0  0  0  0  0
  -25.9576  -26.2677   30.2821 N   0  3  0  0  0  0  0  0  0  0  0  0
  -28.2722  -20.9552   28.0388 O   0  0  0  0  0  0  0  0  0  0  0  0
  -22.8579  -14.5759   22.2572 O   0  0  0  0  0  0  0  0  0  0  0  0
  -23.0828  -27.4183   21.7375 O   0  0  0  0  0  0  0  0  0  0  0  0
  -23.5335  -27.9707   25.6600 O   0  0  0  0  0  0  0  0  0  0  0  0
  -26.8983  -25.8548   27.6627 O   0  0  0  0  0  0  0  0  0  0  0  0
  -31.8220  -14.9701   19.9438 O   0  0  0  0  0  0  0  0  0  0  0  0
  -21.6373   -6.9467   21.3177 O   0  0  0  0  0  0  0  0  0  0  0  0
  -26.5828  -20.9075   24.1987 O   0  0  0  0  0  0  0  0  0  1  0  0
  -17.4051   -6.9492   24.8523 F   0  0  0  0  0  0  0  0  0  0  0  0
  -21.5693   -5.1887   23.4502 F   0  0  0  0  0  0  0  0  0  0  0  0
  1  2  1  0  0  0  0
  1  5  2  0  0  0  0
  2  6  2  0  0  0  0
  3  8  2  0  0  0  0
  3 18  1  0  0  0  0
  4  9  1  0  0  0  0
  4 18  2  0  0  0  0
  5 20  1  0  0  0  0
  6 22  1  0  0  0  0
  7 10  2  0  0  0  0
  7 21  1  0  0  0  0
  8 27  1  0  0  0  0
  9 27  2  0  0  0  0
 10 28  1  0  0  0  0
 11 12  2  0  0  0  0
 11 29  1  0  0  0  0
 12 30  1  0  0  0  0
 13 23  1  0  0  0  0
 13 28  2  0  0  0  0
 14 24  1  0  0  0  0
 14 25  2  0  0  0  0
 15 24  2  0  0  0  0
 15 26  1  0  0  0  0
 16 25  1  0  0  0  0
 16 26  2  0  0  0  0
 17 30  2  0  0  0  0
 17 31  1  0  0  0  0
 18 32  1  0  0  0  0
 19 32  1  0  0  0  0
 19 33  2  0  0  0  0
 19 37  1  0  0  0  0
 20 22  2  0  0  0  0
 20 42  1  0  0  0  0
 21 23  2  0  0  0  0
 21 43  1  0  0  0  0
 22 54  1  0  0  0  0
 23 44  1  0  0  0  0
 24 67  1  0  0  0  0
 25 70  1  0  0  0  0
 26 73  1  0  0  0  0
 27 83  1  0  0  0  0
 28 84  1  0  0  0  0
 29 31  2  0  0  0  0
 29 83  1  0  0  0  0
 30 85  1  0  0  0  0
 31 86  1  0  0  0  0
 32 65  2  0  0  0  0
 33 66  1  0  0  0  0
 33 71  1  0  0  0  0
 34 35  1  0  0  0  0
 34 36  2  0  0  0  0
 34 45  1  0  0  0  0
 35 46  1  0  0  0  0
 35 77  2  0  0  0  0
 36 84  1  0  0  0  0
 37 72  1  0  0  0  0
 37 78  2  0  0  0  0
 38 55  1  0  0  0  0
 38 74  1  0  0  0  0
 38 79  2  0  0  0  0
 39 62  1  0  0  0  0
 39 68  1  0  0  0  0
 39 80  2  0  0  0  0
 40 63  1  0  0  0  0
 40 75  1  0  0  0  0
 40 81  2  0  0  0  0
 41 69  1  0  0  0  0
 41 73  1  0  0  0  0
 41 82  2  0  0  0  0
 42 47  1  0  0  0  0
 43 55  1  0  0  0  0
 44 68  1  0  0  0  0
 45 67  1  0  0  0  0
 46 51  1  0  0  0  0
 47 49  1  0  0  0  0
 48 50  1  0  0  0  0
 48 52  1  0  0  0  0
 49 54  1  0  0  0  0
 50 56  1  0  0  0  0
 51 67  1  0  0  0  0
 52 69  1  0  0  0  0
 53 56  1  0  0  0  0
 53 69  1  0  0  0  0
 54 74  1  0  0  0  0
 55 68  1  0  0  0  0
 56 66  1  0  0  0  0
 57 63  1  0  0  0  0
 58 64  1  0  0  0  0
 59 64  1  0  0  0  0
 60 64  1  0  0  0  0
 61 76  1  0  0  0  0
 62 64  1  0  0  0  0
 62 75  1  0  0  0  0
 63 76  1  0  0  0  0
 65 66  1  0  0  0  0
M  CHG  1  76   1
M  ISO  4  36 101  41 100  73 100  84 101
M  END
> <Batch ID>
0092

> <Smiles>
CNC(C)C(=O)NC(C(=O)N1Cc2cc([101O:1][101CH:1]=C3CN(c4cc(N)cc([100NH:0][100C:0](=O)N5CCCC(n6nc(-c7ccc(Oc8ccc(F)cc8F)cc7)c(C(N)=O)c6N)C5)c4)CCC3=O)ccc2CC1C(=O)NC1CCCc2ccccc21)C(C)(C)C

> <Shape>
0.234

> <Color>
0.176

> <Negative vol penalty>
0.000

$$$$

  -OEChem-04052300343D

 86 95  0     1  0  0  0  0  0999 V2000
  -28.2670  -30.1453   27.8995 C   0  0  0  0  0  0  0  0  0  0  0  0
  -28.1529  -29.2906   26.8078 C   0  0  0  0  0  0  0  0  0  0  0  0
  -24.1993   -9.7969   22.5473 C   0  0  0  0  0  0  0  0  0  0  0  0
  -24.6489  -11.6573   24.0217 C   0  0  0  0  0  0  0  0  0  0  0  0
  -27.1793  -30.9259   28.2889 C   0  0  0  0  0  0  0  0  0  0  0  0
  -26.9506  -29.2152   26.1054 C   0  0  0  0  0  0  0  0  0  0  0  0
  -27.6257  -29.2695   21.0868 C   0  0  0  0  0  0  0  0  0  0  0  0
  -27.8127  -20.3901   18.3095 C   0  0  0  0  0  0  0  0  0  0  0  0
  -27.6619  -19.0056   18.3869 C   0  0  0  0  0  0  0  0  0  0  0  0
  -23.8611   -9.0075   23.6464 C   0  0  0  0  0  0  0  0  0  0  0  0
  -24.3106  -10.8680   25.1208 C   0  0  0  0  0  0  0  0  0  0  0  0
  -28.0420  -28.0815   20.4875 C   0  0  0  0  0  0  0  0  0  0  0  0
  -21.2057   -8.6034   25.7002 C   0  0  0  0  0  0  0  0  0  0  0  0
  -20.0533   -7.8229   25.6078 C   0  0  0  0  0  0  0  0  0  0  0  0
  -25.7712  -27.6370   19.8054 C   0  0  0  0  0  0  0  0  0  0  0  0
  -29.7592  -24.3559   17.3450 C   0  0  0  0  0  0  0  0  0  0  0  0
  -30.0559  -18.7347   18.2070 C   0  0  0  0  0  0  0  0  0  0  0  0
  -21.3766   -5.8294   25.9423 C   0  0  0  0  0  0  0  0  0  0  0  0
  -24.5933  -11.1218   22.7349 C   0  0  0  0  0  0  0  0  0  0  0  0
  -24.0814  -12.7495   20.8385 C   0  0  0  0  0  0  0  0  0  0  0  0
  -25.9661  -30.8671   27.5851 C   0  0  0  0  0  0  0  0  0  0  0  0
  -26.2750  -29.6454   21.0594 C   0  0  0  0  0  0  0  0  0  0  0  0
  -25.8453  -29.9947   26.4866 C   0  0  0  0  0  0  0  0  0  0  0  0
  -25.3408  -28.8314   20.4029 C   0  0  0  0  0  0  0  0  0  0  0  0
  -29.1546  -24.4941   18.6188 C   0  0  0  0  0  0  0  0  0  0  0  0
  -29.0852  -20.9470   18.1808 C   0  0  0  0  0  0  0  0  0  0  0  0
  -28.7834  -18.1779   18.3357 C   0  0  0  0  0  0  0  0  0  0  0  0
  -23.9168   -9.5431   24.9332 C   0  0  0  0  0  0  0  0  0  0  0  0
  -27.1143  -27.2636   19.8492 C   0  0  0  0  0  0  0  0  0  0  0  0
  -22.4436   -7.9969   25.9136 C   0  0  0  0  0  0  0  0  0  0  0  0
  -20.1388   -6.4360   25.7289 C   0  0  0  0  0  0  0  0  0  0  0  0
  -30.2067  -20.1193   18.1296 C   0  0  0  0  0  0  0  0  0  0  0  0
  -22.5290   -6.6099   26.0347 C   0  0  0  0  0  0  0  0  0  0  0  0
  -24.9433  -11.9376   21.6000 C   0  0  0  0  0  0  0  0  0  0  0  0
  -28.8395  -23.2293   19.0639 C   0  0  0  0  0  0  0  0  0  0  0  0
  -24.8934  -13.3112   19.8836 C   0  0  0  0  0  0  0  0  0  0  0  0
  -29.7949  -23.0107   17.0505 C   0  0  0  0  0  0  0  0  0  0  0  0
  -22.6729  -12.9759   20.9816 C   0  0  0  0  0  0  0  0  0  0  0  0
  -24.0437  -30.1567   23.2647 C   0  0  0  0  0  0  0  0  0  0  0  0
  -22.2930  -31.1217   20.7100 C   0  0  0  0  0  0  0  0  0  0  0  0
  -21.7595  -30.9773   17.3423 C   0  0  0  0  0  0  0  0  0  0  0  0
  -29.6375  -15.8083   18.3801 C   0  0  0  0  0  0  0  0  0  0  0  0
  -24.8034  -31.6949   28.0724 C   0  0  0  0  0  0  0  0  0  0  0  0
  -25.8464  -30.9431   21.6874 C   0  0  0  0  0  0  0  0  0  0  0  0
  -23.8823  -29.1999   20.3279 C   0  0  0  0  0  0  0  0  0  0  0  0
  -23.6820  -31.8338   27.0460 C   0  0  0  0  0  0  0  0  0  0  0  0
  -29.6703  -12.2539   18.5856 C   0  0  0  0  0  0  0  0  0  0  0  0
  -23.3537  -30.4787   26.4273 C   0  0  0  0  0  0  0  0  0  0  0  0
  -28.3725  -11.9215   19.3255 C   0  0  0  0  0  0  0  0  0  0  0  0
  -30.3141  -13.5335   19.1165 C   0  0  0  0  0  0  0  0  0  0  0  0
  -28.1316  -14.3726   19.8923 C   0  0  0  0  0  0  0  0  0  0  0  0
  -24.5654  -29.9033   25.6843 C   0  0  1  0  0  0  0  0  0  0  0  0
  -24.3635  -30.9731   22.0445 C   0  0  1  0  0  0  0  0  0  0  0  0
  -27.4125  -13.1271   19.3488 C   0  0  2  0  0  0  0  0  0  0  0  0
  -28.1953  -22.8062   20.3278 C   0  0  0  0  0  0  0  0  0  0  0  0
  -20.2305  -31.8440   15.5512 C   0  0  0  0  0  0  0  0  0  0  0  0
  -20.1356  -29.1584   21.6050 C   0  0  0  0  0  0  0  0  0  0  0  0
  -19.1050  -29.3629   19.3325 C   0  0  0  0  0  0  0  0  0  0  0  0
  -19.2717  -31.3663   20.8093 C   0  0  0  0  0  0  0  0  0  0  0  0
  -23.9838  -32.3332   15.9377 C   0  0  0  0  0  0  0  0  0  0  0  0
  -28.9068  -25.7853   19.3418 C   0  0  0  0  0  0  0  0  0  1  0  0
  -21.3644  -30.4428   19.7324 C   0  0  1  0  0  0  0  0  0  0  0  0
  -21.5285  -32.0674   16.3114 C   0  0  2  0  0  0  0  0  0  0  0  0
  -19.9963  -30.0744   20.3727 C   0  0  0  0  0  0  0  0  0  0  0  0
  -26.2059  -11.9769   21.1661 N   0  0  0  0  0  0  0  0  0  0  0  0
  -29.2329  -22.3356   18.1023 N   0  0  0  0  0  0  0  0  0  0  0  0
  -26.1434  -12.8203   20.1217 N   0  0  0  0  0  0  0  0  0  0  0  0
  -23.5114  -30.4755   20.9625 N   0  0  0  0  0  0  0  0  0  0  0  0
  -29.3470  -14.6333   19.1051 N   0  0  0  0  0  0  0  0  0  0  0  0
  -24.6528  -14.1720   18.8719 N   0  0  0  0  0  0  0  0  0  0  0  0
  -21.9924  -12.3194   22.0162 N   0  0  0  0  0  0  0  0  0  0  0  0
  -28.6298  -16.7716   18.4156 N   0  0  0  0  0  0  0  0  0  0  0  0
  -24.7252  -30.5513   24.4001 N   0  0  0  0  0  0  0  0  0  0  0  0
  -21.2647  -31.3314   18.5797 N   0  0  0  0  0  0  0  0  0  0  0  0
  -22.6491  -32.0975   15.3294 N   0  3  0  0  0  0  0  0  0  0  0  0
  -22.0335  -13.7249   20.2047 O   0  0  0  0  0  0  0  0  0  0  0  0
  -23.2371  -29.2378   23.1825 O   0  0  0  0  0  0  0  0  0  0  0  0
  -21.9531  -32.1898   21.2250 O   0  0  0  0  0  0  0  0  0  0  0  0
  -22.3193  -29.9162   17.0757 O   0  0  0  0  0  0  0  0  0  0  0  0
  -30.6901  -15.9386   17.7500 O   0  0  0  0  0  0  0  0  0  0  0  0
  -30.2609  -22.3754   15.9818 O   0  0  0  0  0  0  0  0  0  0  0  0
  -23.5866   -8.7732   26.0059 O   0  0  0  0  0  0  0  0  0  0  0  0
  -27.5178  -26.1032   19.2639 O   0  0  0  0  0  0  0  0  0  1  0  0
  -19.0319   -5.6868   25.6416 F   0  0  0  0  0  0  0  0  0  0  0  0
  -31.4358  -20.6408   18.0037 F   0  0  0  0  0  0  0  0  0  0  0  0
  -23.7153   -6.0216   26.2410 F   0  0  0  0  0  0  0  0  0  0  0  0
  1  2  1  0  0  0  0
  1  5  2  0  0  0  0
  2  6  2  0  0  0  0
  3 10  2  0  0  0  0
  3 19  1  0  0  0  0
  4 11  1  0  0  0  0
  4 19  2  0  0  0  0
  5 21  1  0  0  0  0
  6 23  1  0  0  0  0
  7 12  2  0  0  0  0
  7 22  1  0  0  0  0
  8  9  2  0  0  0  0
  8 26  1  0  0  0  0
  9 27  1  0  0  0  0
 10 28  1  0  0  0  0
 11 28  2  0  0  0  0
 12 29  1  0  0  0  0
 13 14  2  0  0  0  0
 13 30  1  0  0  0  0
 14 31  1  0  0  0  0
 15 24  1  0  0  0  0
 15 29  2  0  0  0  0
 16 25  1  0  0  0  0
 16 37  2  0  0  0  0
 17 27  2  0  0  0  0
 17 32  1  0  0  0  0
 18 31  2  0  0  0  0
 18 33  1  0  0  0  0
 19 34  1  0  0  0  0
 20 34  1  0  0  0  0
 20 36  2  0  0  0  0
 20 38  1  0  0  0  0
 21 23  2  0  0  0  0
 21 43  1  0  0  0  0
 22 24  2  0  0  0  0
 22 44  1  0  0  0  0
 23 52  1  0  0  0  0
 24 45  1  0  0  0  0
 25 35  2  0  0  0  0
 25 61  1  0  0  0  0
 26 32  2  0  0  0  0
 26 66  1  0  0  0  0
 27 72  1  0  0  0  0
 28 82  1  0  0  0  0
 29 83  1  0  0  0  0
 30 33  2  0  0  0  0
 30 82  1  0  0  0  0
 31 84  1  0  0  0  0
 32 85  1  0  0  0  0
 33 86  1  0  0  0  0
 34 65  2  0  0  0  0
 35 55  1  0  0  0  0
 35 66  1  0  0  0  0
 36 67  1  0  0  0  0
 36 70  1  0  0  0  0
 37 66  1  0  0  0  0
 37 81  1  0  0  0  0
 38 71  1  0  0  0  0
 38 76  2  0  0  0  0
 39 53  1  0  0  0  0
 39 73  1  0  0  0  0
 39 77  2  0  0  0  0
 40 62  1  0  0  0  0
 40 68  1  0  0  0  0
 40 78  2  0  0  0  0
 41 63  1  0  0  0  0
 41 74  1  0  0  0  0
 41 79  2  0  0  0  0
 42 69  1  0  0  0  0
 42 72  1  0  0  0  0
 42 80  2  0  0  0  0
 43 46  1  0  0  0  0
 44 53  1  0  0  0  0
 45 68  1  0  0  0  0
 46 48  1  0  0  0  0
 47 49  1  0  0  0  0
 47 50  1  0  0  0  0
 48 52  1  0  0  0  0
 49 54  1  0  0  0  0
 50 69  1  0  0  0  0
 51 54  1  0  0  0  0
 51 69  1  0  0  0  0
 52 73  1  0  0  0  0
 53 68  1  0  0  0  0
 54 67  1  0  0  0  0
 56 63  1  0  0  0  0
 57 64  1  0  0  0  0
 58 64  1  0  0  0  0
 59 64  1  0  0  0  0
 60 75  1  0  0  0  0
 61 83  1  0  0  0  0
 62 64  1  0  0  0  0
 62 74  1  0  0  0  0
 63 75  1  0  0  0  0
 65 67  1  0  0  0  0
M  CHG  1  75   1
M  ISO  4  42 100  61 101  72 100  83 101
M  END
> <Batch ID>
0092

> <Smiles>
CNC(C)C(=O)NC(C(=O)N1Cc2cc([101O:1][101CH2:1]C3=C(C)N(c4ccc([100NH:0][100C:0](=O)N5CCCC(n6nc(-c7ccc(Oc8ccc(F)cc8F)cc7)c(C(N)=O)c6N)C5)cc4F)C(=O)C3)ccc2CC1C(=O)NC1CCCc2ccccc21)C(C)(C)C

> <Shape>
0.271

> <Color>
0.116

> <Negative vol penalty>
0.000

$$$$

  -OEChem-04052300343D

 85 94  0     1  0  0  0  0  0999 V2000
  -29.5054  -36.5213   20.6579 C   0  0  0  0  0  0  0  0  0  0  0  0
  -29.6359  -35.1846   20.2951 C   0  0  0  0  0  0  0  0  0  0  0  0
  -24.7625   -8.8037   21.7016 C   0  0  0  0  0  0  0  0  0  0  0  0
  -23.2695  -10.0303   20.2513 C   0  0  0  0  0  0  0  0  0  0  0  0
  -28.7324  -36.8698   21.7646 C   0  0  0  0  0  0  0  0  0  0  0  0
  -28.9941  -34.1954   21.0396 C   0  0  0  0  0  0  0  0  0  0  0  0
  -26.5726  -28.9837   18.9231 C   0  0  0  0  0  0  0  0  0  0  0  0
  -23.6723   -8.3658   22.4535 C   0  0  0  0  0  0  0  0  0  0  0  0
  -22.1793   -9.5924   21.0032 C   0  0  0  0  0  0  0  0  0  0  0  0
  -27.0515  -27.6749   18.8838 C   0  0  0  0  0  0  0  0  0  0  0  0
  -21.2575   -6.0123   22.2026 C   0  0  0  0  0  0  0  0  0  0  0  0
  -21.2151   -4.6643   22.5585 C   0  0  0  0  0  0  0  0  0  0  0  0
  -25.8632  -27.1852   20.9252 C   0  0  0  0  0  0  0  0  0  0  0  0
  -25.0137  -19.6680   17.3268 C   0  0  0  0  0  0  0  0  0  0  0  0
  -26.8700  -18.6086   18.4531 C   0  0  0  0  0  0  0  0  0  0  0  0
  -25.3159  -17.2761   17.1700 C   0  0  0  0  0  0  0  0  0  0  0  0
  -21.2081   -5.2813   24.8944 C   0  0  0  0  0  0  0  0  0  0  0  0
  -24.5611   -9.6360   20.6005 C   0  0  0  0  0  0  0  0  0  0  0  0
  -26.2559   -9.4563   18.7023 C   0  0  0  0  0  0  0  0  0  0  0  0
  -28.0730  -35.8852   22.5173 C   0  0  0  0  0  0  0  0  0  0  0  0
  -25.7428  -29.4068   19.9714 C   0  0  0  0  0  0  0  0  0  0  0  0
  -28.2126  -34.5310   22.1582 C   0  0  0  0  0  0  0  0  0  0  0  0
  -25.3730  -28.4991   20.9742 C   0  0  0  0  0  0  0  0  0  0  0  0
  -26.1504  -19.7590   18.1300 C   0  0  0  0  0  0  0  0  0  0  0  0
  -24.5964  -18.4266   16.8469 C   0  0  0  0  0  0  0  0  0  0  0  0
  -26.4527  -17.3671   17.9731 C   0  0  0  0  0  0  0  0  0  0  0  0
  -22.3808   -8.7601   22.1043 C   0  0  0  0  0  0  0  0  0  0  0  0
  -26.6992  -26.7763   19.8865 C   0  0  0  0  0  0  0  0  0  0  0  0
  -21.2754   -6.9949   23.1926 C   0  0  0  0  0  0  0  0  0  0  0  0
  -21.1903   -4.2988   23.9044 C   0  0  0  0  0  0  0  0  0  0  0  0
  -21.2506   -6.6293   24.5385 C   0  0  0  0  0  0  0  0  0  0  0  0
  -25.6869  -10.0892   19.8237 C   0  0  0  0  0  0  0  0  0  0  0  0
  -27.2909  -10.2797   18.3318 C   0  0  0  0  0  0  0  0  0  0  0  0
  -26.7813  -23.2776   19.0968 C   0  0  0  0  0  0  0  0  0  0  0  0
  -25.9615  -22.2650   18.3797 C   0  0  0  0  0  0  0  0  0  0  0  0
  -26.4206  -24.5594   19.1946 C   0  0  0  0  0  0  0  0  0  1  0  0
  -25.8823   -8.2335   18.0536 C   0  0  0  0  0  0  0  0  0  0  0  0
  -25.9622  -31.6021   22.2596 C   0  0  0  0  0  0  0  0  0  0  0  0
  -22.8965  -30.7253   22.8555 C   0  0  0  0  0  0  0  0  0  0  0  0
  -20.4673  -28.3399   22.6193 C   0  0  0  0  0  0  0  0  0  0  0  0
  -28.3353  -16.1148   19.0839 C   0  0  0  0  0  0  0  0  0  0  0  0
  -27.2869  -36.3064   23.7335 C   0  0  0  0  0  0  0  0  0  0  0  0
  -25.2129  -30.8144   19.9850 C   0  0  0  0  0  0  0  0  0  0  0  0
  -24.4684  -28.8979   22.1104 C   0  0  0  0  0  0  0  0  0  0  0  0
  -27.9958  -22.6414   19.6768 C   0  0  0  0  0  0  0  0  0  0  0  0
  -26.3349  -35.2291   24.2467 C   0  0  0  0  0  0  0  0  0  0  0  0
  -30.4095  -13.4253   20.1522 C   0  0  0  0  0  0  0  0  0  0  0  0
  -27.0430  -33.8797   24.3155 C   0  0  0  0  0  0  0  0  0  0  0  0
  -29.4874  -12.2060   20.0813 C   0  0  0  0  0  0  0  0  0  0  0  0
  -27.7158  -21.1558   19.5206 C   0  0  0  0  0  0  0  0  0  0  0  0
  -29.6625  -14.6753   20.6140 C   0  0  0  0  0  0  0  0  0  0  0  0
  -27.5282  -13.7732   19.7774 C   0  0  0  0  0  0  0  0  0  0  0  0
  -27.5118  -33.4312   22.9260 C   0  0  1  0  0  0  0  0  0  0  0  0
  -24.7910  -31.2807   21.3750 C   0  0  1  0  0  0  0  0  0  0  0  0
  -28.2212  -12.5043   19.2546 C   0  0  2  0  0  0  0  0  0  0  0  0
  -18.0738  -27.8985   23.2307 C   0  0  0  0  0  0  0  0  0  0  0  0
  -23.7260  -30.2558   25.7540 C   0  0  0  0  0  0  0  0  0  0  0  0
  -21.6158  -28.9468   26.0728 C   0  0  0  0  0  0  0  0  0  0  0  0
  -21.5025  -31.3652   25.4719 C   0  0  0  0  0  0  0  0  0  0  0  0
  -19.6814  -28.0175   19.7843 C   0  0  0  0  0  0  0  0  0  0  0  0
  -22.2315  -29.6873   23.7268 C   0  0  1  0  0  0  0  0  0  0  0  0
  -19.0223  -28.4158   22.1604 C   0  0  2  0  0  0  0  0  0  0  0  0
  -22.2876  -30.0565   25.2361 C   0  0  0  0  0  0  0  0  0  0  0  0
  -26.3089  -11.2267   20.1447 N   0  0  0  0  0  0  0  0  0  0  0  0
  -27.2796  -11.3151   19.2194 N   0  0  0  0  0  0  0  0  0  0  0  0
  -26.5795  -21.0311   18.6212 N   0  0  0  0  0  0  0  0  0  0  0  0
  -23.9813  -30.2870   22.0828 N   0  0  0  0  0  0  0  0  0  0  0  0
  -28.4776  -14.8972   19.7825 N   0  0  0  0  0  0  0  0  0  0  0  0
  -23.4470  -18.3339   16.0347 N   0  0  0  0  0  0  0  0  0  0  0  0
  -28.2006  -10.2117   17.3367 N   0  0  0  0  0  0  0  0  0  0  0  0
  -24.7947   -7.5117   18.5639 N   0  0  0  0  0  0  0  0  0  0  0  0
  -27.1849  -16.1989   18.3003 N   0  0  0  0  0  0  0  0  0  0  0  0
  -26.3994  -32.9093   22.1614 N   0  0  0  0  0  0  0  0  0  0  0  0
  -20.8805  -29.5190   23.2026 N   0  0  0  0  0  0  0  0  0  0  0  0
  -18.8272  -27.6026   20.9268 N   0  3  0  0  0  0  0  0  0  0  0  0
  -24.9613  -22.5444   17.7399 O   0  0  0  0  0  0  0  0  0  0  0  0
  -26.5049   -7.7857   17.0610 O   0  0  0  0  0  0  0  0  0  0  0  0
  -26.4333  -30.7293   22.9792 O   0  0  0  0  0  0  0  0  0  0  0  0
  -22.4647  -31.8808   22.8548 O   0  0  0  0  0  0  0  0  0  0  0  0
  -21.1591  -27.3339   22.4781 O   0  0  0  0  0  0  0  0  0  0  0  0
  -29.1860  -17.0057   19.1527 O   0  0  0  0  0  0  0  0  0  0  0  0
  -21.3167   -8.3328   22.8376 O   0  0  0  0  0  0  0  0  0  0  0  0
  -27.1658  -25.4984   19.8509 O   0  0  0  0  0  0  0  0  0  1  0  0
  -21.1480   -3.0043   24.2460 F   0  0  0  0  0  0  0  0  0  0  0  0
  -21.2664   -7.5687   25.4940 F   0  0  0  0  0  0  0  0  0  0  0  0
  1  2  1  0  0  0  0
  1  5  2  0  0  0  0
  2  6  2  0  0  0  0
  3  8  2  0  0  0  0
  3 18  1  0  0  0  0
  4  9  1  0  0  0  0
  4 18  2  0  0  0  0
  5 20  1  0  0  0  0
  6 22  1  0  0  0  0
  7 10  2  0  0  0  0
  7 21  1  0  0  0  0
  8 27  1  0  0  0  0
  9 27  2  0  0  0  0
 10 28  1  0  0  0  0
 11 12  2  0  0  0  0
 11 29  1  0  0  0  0
 12 30  1  0  0  0  0
 13 23  1  0  0  0  0
 13 28  2  0  0  0  0
 14 24  1  0  0  0  0
 14 25  2  0  0  0  0
 15 24  2  0  0  0  0
 15 26  1  0  0  0  0
 16 25  1  0  0  0  0
 16 26  2  0  0  0  0
 17 30  2  0  0  0  0
 17 31  1  0  0  0  0
 18 32  1  0  0  0  0
 19 32  1  0  0  0  0
 19 33  2  0  0  0  0
 19 37  1  0  0  0  0
 20 22  2  0  0  0  0
 20 42  1  0  0  0  0
 21 23  2  0  0  0  0
 21 43  1  0  0  0  0
 22 53  1  0  0  0  0
 23 44  1  0  0  0  0
 24 66  1  0  0  0  0
 25 69  1  0  0  0  0
 26 72  1  0  0  0  0
 27 82  1  0  0  0  0
 28 83  1  0  0  0  0
 29 31  2  0  0  0  0
 29 82  1  0  0  0  0
 30 84  1  0  0  0  0
 31 85  1  0  0  0  0
 32 64  2  0  0  0  0
 33 65  1  0  0  0  0
 33 70  1  0  0  0  0
 34 35  1  0  0  0  0
 34 36  2  0  0  0  0
 34 45  1  0  0  0  0
 35 66  1  0  0  0  0
 35 76  2  0  0  0  0
 36 83  1  0  0  0  0
 37 71  1  0  0  0  0
 37 77  2  0  0  0  0
 38 54  1  0  0  0  0
 38 73  1  0  0  0  0
 38 78  2  0  0  0  0
 39 61  1  0  0  0  0
 39 67  1  0  0  0  0
 39 79  2  0  0  0  0
 40 62  1  0  0  0  0
 40 74  1  0  0  0  0
 40 80  2  0  0  0  0
 41 68  1  0  0  0  0
 41 72  1  0  0  0  0
 41 81  2  0  0  0  0
 42 46  1  0  0  0  0
 43 54  1  0  0  0  0
 44 67  1  0  0  0  0
 45 50  1  0  0  0  0
 46 48  1  0  0  0  0
 47 49  1  0  0  0  0
 47 51  1  0  0  0  0
 48 53  1  0  0  0  0
 49 55  1  0  0  0  0
 50 66  1  0  0  0  0
 51 68  1  0  0  0  0
 52 55  1  0  0  0  0
 52 68  1  0  0  0  0
 53 73  1  0  0  0  0
 54 67  1  0  0  0  0
 55 65  1  0  0  0  0
 56 62  1  0  0  0  0
 57 63  1  0  0  0  0
 58 63  1  0  0  0  0
 59 63  1  0  0  0  0
 60 75  1  0  0  0  0
 61 63  1  0  0  0  0
 61 74  1  0  0  0  0
 62 75  1  0  0  0  0
 64 65  1  0  0  0  0
M  CHG  1  75   1
M  ISO  4  36 101  41 100  72 100  83 101
M  END
> <Batch ID>
0092

> <Smiles>
CNC(C)C(=O)NC(C(=O)N1Cc2cc([101O:1][101CH:1]=C3CCN(c4cc(N)cc([100NH:0][100C:0](=O)N5CCCC(n6nc(-c7ccc(Oc8ccc(F)cc8F)cc7)c(C(N)=O)c6N)C5)c4)C3=O)ccc2CC1C(=O)NC1CCCc2ccccc21)C(C)(C)C

> <Shape>
0.277

> <Color>
0.096

> <Negative vol penalty>
0.000

$$$$

  -OEChem-04052300343D

 81 89  0     1  0  0  0  0  0999 V2000
  -28.6071  -32.9400   26.9063 C   0  0  0  0  0  0  0  0  0  0  0  0
  -28.3773  -31.5693   26.8465 C   0  0  0  0  0  0  0  0  0  0  0  0
  -32.6384  -17.5050   23.4626 C   0  0  0  0  0  0  0  0  0  0  0  0
  -23.0798   -9.8639   19.9383 C   0  0  0  0  0  0  0  0  0  0  0  0
  -23.8375   -9.8715   22.2324 C   0  0  0  0  0  0  0  0  0  0  0  0
  -28.0470  -33.7821   25.9465 C   0  0  0  0  0  0  0  0  0  0  0  0
  -27.5864  -31.0398   25.8274 C   0  0  0  0  0  0  0  0  0  0  0  0
  -29.6094  -26.8841   23.7579 C   0  0  0  0  0  0  0  0  0  0  0  0
  -31.8382  -18.3703   24.2085 C   0  0  0  0  0  0  0  0  0  0  0  0
  -32.0531  -16.6196   22.5575 C   0  0  0  0  0  0  0  0  0  0  0  0
  -22.3377   -8.7094   20.1872 C   0  0  0  0  0  0  0  0  0  0  0  0
  -23.0952   -8.7170   22.4814 C   0  0  0  0  0  0  0  0  0  0  0  0
  -29.4798  -25.6915   24.4682 C   0  0  0  0  0  0  0  0  0  0  0  0
  -19.8678   -7.9136   23.0805 C   0  0  0  0  0  0  0  0  0  0  0  0
  -19.1098   -7.8721   24.2507 C   0  0  0  0  0  0  0  0  0  0  0  0
  -27.6375  -25.0528   23.0480 C   0  0  0  0  0  0  0  0  0  0  0  0
  -29.8672  -17.4649   23.1443 C   0  0  0  0  0  0  0  0  0  0  0  0
  -20.3538   -5.9365   24.9878 C   0  0  0  0  0  0  0  0  0  0  0  0
  -23.8298  -10.4449   20.9609 C   0  0  0  0  0  0  0  0  0  0  0  0
  -24.1675  -12.9707   20.8419 C   0  0  0  0  0  0  0  0  0  0  0  0
  -27.2567  -33.2617   24.9096 C   0  0  0  0  0  0  0  0  0  0  0  0
  -28.7455  -27.1755   22.6925 C   0  0  0  0  0  0  0  0  0  0  0  0
  -27.0141  -31.8759   24.8536 C   0  0  0  0  0  0  0  0  0  0  0  0
  -27.7598  -26.2487   22.3242 C   0  0  0  0  0  0  0  0  0  0  0  0
  -30.4526  -18.3502   24.0494 C   0  0  0  0  0  0  0  0  0  0  0  0
  -30.6675  -16.5996   22.3983 C   0  0  0  0  0  0  0  0  0  0  0  0
  -22.3453   -8.1360   21.4587 C   0  0  0  0  0  0  0  0  0  0  0  0
  -28.4919  -24.7769   24.1152 C   0  0  0  0  0  0  0  0  0  0  0  0
  -20.8688   -6.9666   22.8639 C   0  0  0  0  0  0  0  0  0  0  0  0
  -19.3528   -6.8836   25.2043 C   0  0  0  0  0  0  0  0  0  0  0  0
  -21.1118   -5.9781   23.8176 C   0  0  0  0  0  0  0  0  0  0  0  0
  -24.5971  -11.6372   20.7043 C   0  0  0  0  0  0  0  0  0  0  0  0
  -25.2588  -13.7221   20.4799 C   0  0  0  0  0  0  0  0  0  0  0  0
  -28.4238  -21.2525   24.7389 C   0  0  0  0  0  0  0  0  0  0  0  0
  -22.8958  -13.4842   21.2598 C   0  0  0  0  0  0  0  0  0  0  0  0
  -26.6060  -29.4496   22.0969 C   0  0  0  0  0  0  0  0  0  0  0  0
  -26.4732  -28.0201   19.1881 C   0  0  0  0  0  0  0  0  0  0  0  0
  -26.9507  -25.2051   17.3188 C   0  0  0  0  0  0  0  0  0  0  0  0
  -30.7230  -14.7768   20.6603 C   0  0  0  0  0  0  0  0  0  0  0  0
  -26.6338  -34.2166   23.9223 C   0  0  0  0  0  0  0  0  0  0  0  0
  -28.9155  -28.4544   21.9193 C   0  0  0  0  0  0  0  0  0  0  0  0
  -26.8202  -26.5049   21.1753 C   0  0  0  0  0  0  0  0  0  0  0  0
  -26.1157  -33.5344   22.6588 C   0  0  0  0  0  0  0  0  0  0  0  0
  -29.6150  -12.3618   18.2902 C   0  0  0  0  0  0  0  0  0  0  0  0
  -25.3112  -32.2887   23.0163 C   0  0  0  0  0  0  0  0  0  0  0  0
  -28.1754  -12.0677   18.7183 C   0  0  0  0  0  0  0  0  0  0  0  0
  -30.5285  -12.5918   19.4928 C   0  0  0  0  0  0  0  0  0  0  0  0
  -28.6190  -13.3127   20.8724 C   0  0  0  0  0  0  0  0  0  0  0  0
  -26.1821  -31.2610   23.7491 C   0  0  1  0  0  0  0  0  0  0  0  0
  -27.6502  -28.8784   21.1799 C   0  0  1  0  0  0  0  0  0  0  0  0
  -27.6476  -13.1381   19.6936 C   0  0  2  0  0  0  0  0  0  0  0  0
  -26.7197  -24.3326   14.9773 C   0  0  0  0  0  0  0  0  0  0  0  0
  -23.4518  -27.8192   19.5637 C   0  0  0  0  0  0  0  0  0  0  0  0
  -23.4028  -26.1403   17.7071 C   0  0  0  0  0  0  0  0  0  0  0  0
  -24.1757  -28.4695   17.2599 C   0  0  0  0  0  0  0  0  0  0  0  0
  -29.8490  -24.6399   17.1195 C   0  0  0  0  0  0  0  0  0  0  0  0
  -29.5906  -19.2829   24.8534 C   0  0  0  0  0  0  0  0  0  0  0  0
  -27.8639  -22.4832   24.0913 C   0  0  0  0  0  0  0  0  0  1  0  0
  -25.6573  -26.9042   18.5815 C   0  0  1  0  0  0  0  0  0  0  0  0
  -27.6488  -24.9855   15.9888 C   0  0  2  0  0  0  0  0  0  0  0  0
  -24.1882  -27.3290   18.3010 C   0  0  0  0  0  0  0  0  0  0  0  0
  -25.8626  -11.5436   20.2872 N   0  0  0  0  0  0  0  0  0  0  0  0
  -29.1253  -20.4151   24.0575 N   0  0  0  0  0  0  0  0  0  0  0  0
  -26.2374  -12.8278   20.1596 N   0  0  0  0  0  0  0  0  0  0  0  0
  -27.0223  -27.7724   20.4541 N   0  0  0  0  0  0  0  0  0  0  0  0
  -29.9670  -13.6214   20.3700 N   0  0  0  0  0  0  0  0  0  0  0  0
  -25.4670  -15.0539   20.4075 N   0  0  0  0  0  0  0  0  0  0  0  0
  -21.8850  -12.5733   21.5958 N   0  0  0  0  0  0  0  0  0  0  0  0
  -30.0733  -15.7005   21.4783 N   0  0  0  0  0  0  0  0  0  0  0  0
  -27.0280  -30.5547   22.8110 N   0  0  0  0  0  0  0  0  0  0  0  0
  -26.3874  -26.4611   17.3987 N   0  0  0  0  0  0  0  0  0  0  0  0
  -28.8400  -24.1080   16.1676 N   0  3  0  0  0  0  0  0  0  0  0  0
  -22.6574  -14.7144   21.3172 O   0  0  0  0  0  0  0  0  0  0  0  0
  -25.4988  -28.9272   22.1514 O   0  0  0  0  0  0  0  0  0  0  0  0
  -26.6239  -29.0702   18.5585 O   0  0  0  0  0  0  0  0  0  0  0  0
  -26.9062  -24.3468   18.1974 O   0  0  0  0  0  0  0  0  0  0  0  0
  -31.8523  -14.9476   20.1938 O   0  0  0  0  0  0  0  0  0  0  0  0
  -21.6210   -7.0096   21.7021 O   0  0  0  0  0  0  0  0  0  0  0  0
  -28.3629  -23.6123   24.8072 O   0  0  0  0  0  0  0  0  0  1  0  0
  -18.6258   -6.8447   26.3287 F   0  0  0  0  0  0  0  0  0  0  0  0
  -22.0728   -5.0662   23.6156 F   0  0  0  0  0  0  0  0  0  0  0  0
  1  2  1  0  0  0  0
  1  6  2  0  0  0  0
  2  7  2  0  0  0  0
  3  9  2  0  0  0  0
  3 10  1  0  0  0  0
  4 11  2  0  0  0  0
  4 19  1  0  0  0  0
  5 12  1  0  0  0  0
  5 19  2  0  0  0  0
  6 21  1  0  0  0  0
  7 23  1  0  0  0  0
  8 13  2  0  0  0  0
  8 22  1  0  0  0  0
  9 25  1  0  0  0  0
 10 26  2  0  0  0  0
 11 27  1  0  0  0  0
 12 27  2  0  0  0  0
 13 28  1  0  0  0  0
 14 15  2  0  0  0  0
 14 29  1  0  0  0  0
 15 30  1  0  0  0  0
 16 24  1  0  0  0  0
 16 28  2  0  0  0  0
 17 25  2  0  0  0  0
 17 26  1  0  0  0  0
 18 30  2  0  0  0  0
 18 31  1  0  0  0  0
 19 32  1  0  0  0  0
 20 32  1  0  0  0  0
 20 33  2  0  0  0  0
 20 35  1  0  0  0  0
 21 23  2  0  0  0  0
 21 40  1  0  0  0  0
 22 24  2  0  0  0  0
 22 41  1  0  0  0  0
 23 49  1  0  0  0  0
 24 42  1  0  0  0  0
 25 57  1  0  0  0  0
 26 69  1  0  0  0  0
 27 78  1  0  0  0  0
 28 79  1  0  0  0  0
 29 31  2  0  0  0  0
 29 78  1  0  0  0  0
 30 80  1  0  0  0  0
 31 81  1  0  0  0  0
 32 62  2  0  0  0  0
 33 64  1  0  0  0  0
 33 67  1  0  0  0  0
 34 58  1  0  0  0  0
 34 63  2  0  0  0  0
 35 68  1  0  0  0  0
 35 73  2  0  0  0  0
 36 50  1  0  0  0  0
 36 70  1  0  0  0  0
 36 74  2  0  0  0  0
 37 59  1  0  0  0  0
 37 65  1  0  0  0  0
 37 75  2  0  0  0  0
 38 60  1  0  0  0  0
 38 71  1  0  0  0  0
 38 76  2  0  0  0  0
 39 66  1  0  0  0  0
 39 69  1  0  0  0  0
 39 77  2  0  0  0  0
 40 43  1  0  0  0  0
 41 50  1  0  0  0  0
 42 65  1  0  0  0  0
 43 45  1  0  0  0  0
 44 46  1  0  0  0  0
 44 47  1  0  0  0  0
 45 49  1  0  0  0  0
 46 51  1  0  0  0  0
 47 66  1  0  0  0  0
 48 51  1  0  0  0  0
 48 66  1  0  0  0  0
 49 70  1  0  0  0  0
 50 65  1  0  0  0  0
 51 64  1  0  0  0  0
 52 60  1  0  0  0  0
 53 61  1  0  0  0  0
 54 61  1  0  0  0  0
 55 61  1  0  0  0  0
 56 72  1  0  0  0  0
 57 63  1  0  0  0  0
 58 79  1  0  0  0  0
 59 61  1  0  0  0  0
 59 71  1  0  0  0  0
 60 72  1  0  0  0  0
 62 64  1  0  0  0  0
M  CHG  1  72   1
M  ISO  4  39 100  58 101  69 100  79 101
M  END
> <Batch ID>
0092

> <Smiles>
CNC(C)C(=O)NC(C(=O)N1Cc2cc([101O:1][101CH2:1]C=NCc3cccc([100NH:0][100C:0](=O)N4CCCC(n5nc(-c6ccc(Oc7ccc(F)cc7F)cc6)c(C(N)=O)c5N)C4)c3)ccc2CC1C(=O)NC1CCCc2ccccc21)C(C)(C)C

> <Shape>
0.303

> <Color>
0.196

> <Negative vol penalty>
0.000

$$$$

  -OEChem-04052300343D

 85 93  0     1  0  0  0  0  0999 V2000
  -26.1873  -17.6021   17.9417 C   0  0  0  0  0  0  0  0  0  0  0  0
  -25.3699  -18.6969   18.2036 C   0  0  0  0  0  0  0  0  0  0  0  0
  -16.8501  -24.7392   24.2791 C   0  0  0  0  0  0  0  0  0  0  0  0
  -23.7597  -12.4631   19.8634 C   0  0  0  0  0  0  0  0  0  0  0  0
  -25.0992  -13.2804   21.7004 C   0  0  0  0  0  0  0  0  0  0  0  0
  -17.2408  -23.4468   24.6293 C   0  0  0  0  0  0  0  0  0  0  0  0
  -27.4500  -17.5205   18.5272 C   0  0  0  0  0  0  0  0  0  0  0  0
  -25.8144  -19.7104   19.0520 C   0  0  0  0  0  0  0  0  0  0  0  0
  -24.6067  -25.6961   18.5855 C   0  0  0  0  0  0  0  0  0  0  0  0
  -17.7829  -25.6301   23.7482 C   0  0  0  0  0  0  0  0  0  0  0  0
  -24.8881  -11.8583   19.3097 C   0  0  0  0  0  0  0  0  0  0  0  0
  -26.2276  -12.6756   21.1467 C   0  0  0  0  0  0  0  0  0  0  0  0
  -23.6764  -26.5176   19.2207 C   0  0  0  0  0  0  0  0  0  0  0  0
  -29.5319  -11.6516   20.0316 C   0  0  0  0  0  0  0  0  0  0  0  0
  -30.7116  -12.3946   19.9911 C   0  0  0  0  0  0  0  0  0  0  0  0
  -19.4972  -23.9362   23.9178 C   0  0  0  0  0  0  0  0  0  0  0  0
  -25.3553  -27.1669   20.8266 C   0  0  0  0  0  0  0  0  0  0  0  0
  -29.6157  -14.0603   18.6266 C   0  0  0  0  0  0  0  0  0  0  0  0
  -23.8653  -13.1742   21.0588 C   0  0  0  0  0  0  0  0  0  0  0  0
  -18.5643  -23.0453   24.4487 C   0  0  0  0  0  0  0  0  0  0  0  0
  -21.7931  -13.2315   22.5455 C   0  0  0  0  0  0  0  0  0  0  0  0
  -27.9141  -18.5381   19.3756 C   0  0  0  0  0  0  0  0  0  0  0  0
  -25.9175  -25.5953   19.0734 C   0  0  0  0  0  0  0  0  0  0  0  0
  -27.0840  -19.6416   19.6504 C   0  0  0  0  0  0  0  0  0  0  0  0
  -26.3010  -26.3454   20.1943 C   0  0  0  0  0  0  0  0  0  0  0  0
  -19.1065  -25.2286   23.5676 C   0  0  0  0  0  0  0  0  0  0  0  0
  -26.1220  -11.9646   19.9513 C   0  0  0  0  0  0  0  0  0  0  0  0
  -24.0498  -27.2509   20.3431 C   0  0  0  0  0  0  0  0  0  0  0  0
  -28.3940  -12.1129   19.3695 C   0  0  0  0  0  0  0  0  0  0  0  0
  -30.7536  -13.5990   19.2886 C   0  0  0  0  0  0  0  0  0  0  0  0
  -28.4360  -13.3172   18.6671 C   0  0  0  0  0  0  0  0  0  0  0  0
  -22.7002  -13.7996   21.6310 C   0  0  0  0  0  0  0  0  0  0  0  0
  -20.8719  -14.2237   22.7768 C   0  0  0  0  0  0  0  0  0  0  0  0
  -22.0133  -27.4750   21.4714 C   0  0  0  0  0  0  0  0  0  1  0  0
  -18.9791  -21.6759   24.8188 C   0  0  0  0  0  0  0  0  0  0  0  0
  -21.7840  -11.9238   23.1333 C   0  0  0  0  0  0  0  0  0  0  0  0
  -21.0478  -28.1502   22.1038 C   0  0  0  0  0  0  0  0  0  0  0  0
  -19.8359  -27.4507   22.6394 C   0  0  0  0  0  0  0  0  0  0  0  0
  -27.7022  -23.2368   20.2379 C   0  0  0  0  0  0  0  0  0  0  0  0
  -30.0300  -25.4954   20.1845 C   0  0  0  0  0  0  0  0  0  0  0  0
  -30.8550  -28.8068   20.2081 C   0  0  0  0  0  0  0  0  0  0  0  0
  -19.9390  -19.5255   24.0243 C   0  0  0  0  0  0  0  0  0  0  0  0
  -29.2675  -18.3828   20.0227 C   0  0  0  0  0  0  0  0  0  0  0  0
  -26.9164  -24.7253   18.3609 C   0  0  0  0  0  0  0  0  0  0  0  0
  -27.7014  -26.2878   20.7456 C   0  0  0  0  0  0  0  0  0  0  0  0
  -29.8128  -19.6806   20.6132 C   0  0  0  0  0  0  0  0  0  0  0  0
  -20.0659  -18.6055   20.4333 C   0  0  0  0  0  0  0  0  0  0  0  0
  -28.7357  -20.3908   21.4271 C   0  0  0  0  0  0  0  0  0  0  0  0
  -20.7640  -17.2522   20.5101 C   0  0  0  0  0  0  0  0  0  0  0  0
  -20.5233  -19.5552   21.5398 C   0  0  0  0  0  0  0  0  0  0  0  0
  -21.0877  -17.6138   22.9850 C   0  0  0  0  0  0  0  0  0  0  0  0
  -27.5405  -20.7731   20.5457 C   0  0  1  0  0  0  0  0  0  0  0  0
  -28.0822  -24.3030   19.2497 C   0  0  1  0  0  0  0  0  0  0  0  0
  -20.5919  -16.6390   21.9071 C   0  0  2  0  0  0  0  0  0  0  0  0
  -32.8395  -30.3426   20.1953 C   0  0  0  0  0  0  0  0  0  0  0  0
  -30.5272  -24.8736   23.1301 C   0  0  0  0  0  0  0  0  0  0  0  0
  -31.7985  -27.0239   23.2975 C   0  0  0  0  0  0  0  0  0  0  0  0
  -32.5990  -25.2192   21.7727 C   0  0  0  0  0  0  0  0  0  0  0  0
  -30.0290  -30.0417   17.6485 C   0  0  0  0  0  0  0  0  0  0  0  0
  -30.5315  -26.5369   21.1554 C   0  0  1  0  0  0  0  0  0  0  0  0
  -31.8099  -29.6131   19.3465 C   0  0  2  0  0  0  0  0  0  0  0  0
  -31.3371  -25.9132   22.3299 C   0  0  0  0  0  0  0  0  0  0  0  0
  -22.3839  -15.0553   21.3036 N   0  0  0  0  0  0  0  0  0  0  0  0
  -21.2677  -15.2844   22.0161 N   0  0  0  0  0  0  0  0  0  0  0  0
  -28.6401  -25.4179   20.0178 N   0  0  0  0  0  0  0  0  0  0  0  0
  -20.4524  -18.9308   22.8680 N   0  0  0  0  0  0  0  0  0  0  0  0
  -19.7701  -14.2836   23.5545 N   0  0  0  0  0  0  0  0  0  0  0  0
  -22.8047  -11.0282   22.7865 N   0  0  0  0  0  0  0  0  0  0  0  0
  -20.0545  -26.1353   23.0276 N   0  0  0  0  0  0  0  0  0  0  0  0
  -19.4815  -20.8880   23.8555 N   0  0  0  0  0  0  0  0  0  0  0  0
  -27.8478  -21.9487   19.7595 N   0  0  0  0  0  0  0  0  0  0  0  0
  -31.2825  -27.5051   20.3635 N   0  0  0  0  0  0  0  0  0  0  0  0
  -18.8224  -21.3065   26.0898 N   0  3  0  0  0  0  0  0  0  0  0  0
  -21.1724  -29.5467   22.2829 N   0  3  0  0  0  0  0  0  0  0  0  0
  -31.0597  -30.6225   18.5469 N   0  3  0  0  0  0  0  0  0  0  0  0
  -20.8877  -11.5547   23.9296 O   0  0  0  0  0  0  0  0  0  0  0  0
  -18.7704  -28.0602   22.7044 O   0  0  0  0  0  0  0  0  0  0  0  0
  -27.3077  -23.5590   21.3524 O   0  0  0  0  0  0  0  0  0  0  0  0
  -30.8421  -24.7817   19.5904 O   0  0  0  0  0  0  0  0  0  0  0  0
  -29.8340  -29.2849   20.6975 O   0  0  0  0  0  0  0  0  0  0  0  0
  -19.8816  -19.0008   25.1313 O   0  0  0  0  0  0  0  0  0  0  0  0
  -27.2233  -11.3744   19.4114 O   0  0  0  0  0  0  0  0  0  0  0  0
  -23.1436  -28.0530   20.9654 O   0  0  0  0  0  0  0  0  0  1  0  0
  -31.8861  -14.3132   19.2511 F   0  0  0  0  0  0  0  0  0  0  0  0
  -27.3457  -13.7660   18.0301 F   0  0  0  0  0  0  0  0  0  0  0  0
  1  2  1  0  0  0  0
  1  7  2  0  0  0  0
  2  8  2  0  0  0  0
  3  6  1  0  0  0  0
  3 10  2  0  0  0  0
  4 11  2  0  0  0  0
  4 19  1  0  0  0  0
  5 12  1  0  0  0  0
  5 19  2  0  0  0  0
  6 20  2  0  0  0  0
  7 22  1  0  0  0  0
  8 24  1  0  0  0  0
  9 13  2  0  0  0  0
  9 23  1  0  0  0  0
 10 26  1  0  0  0  0
 11 27  1  0  0  0  0
 12 27  2  0  0  0  0
 13 28  1  0  0  0  0
 14 15  2  0  0  0  0
 14 29  1  0  0  0  0
 15 30  1  0  0  0  0
 16 20  1  0  0  0  0
 16 26  2  0  0  0  0
 17 25  1  0  0  0  0
 17 28  2  0  0  0  0
 18 30  2  0  0  0  0
 18 31  1  0  0  0  0
 19 32  1  0  0  0  0
 20 35  1  0  0  0  0
 21 32  1  0  0  0  0
 21 33  2  0  0  0  0
 21 36  1  0  0  0  0
 22 24  2  0  0  0  0
 22 43  1  0  0  0  0
 23 25  2  0  0  0  0
 23 44  1  0  0  0  0
 24 52  1  0  0  0  0
 25 45  1  0  0  0  0
 26 69  1  0  0  0  0
 27 82  1  0  0  0  0
 28 83  1  0  0  0  0
 29 31  2  0  0  0  0
 29 82  1  0  0  0  0
 30 84  1  0  0  0  0
 31 85  1  0  0  0  0
 32 63  2  0  0  0  0
 33 64  1  0  0  0  0
 33 67  1  0  0  0  0
 34 37  2  0  0  0  0
 34 83  1  0  0  0  0
 35 70  1  0  0  0  0
 35 73  2  0  0  0  0
 36 68  1  0  0  0  0
 36 76  2  0  0  0  0
 37 38  1  0  0  0  0
 37 74  1  0  0  0  0
 38 69  1  0  0  0  0
 38 77  2  0  0  0  0
 39 53  1  0  0  0  0
 39 71  1  0  0  0  0
 39 78  2  0  0  0  0
 40 60  1  0  0  0  0
 40 65  1  0  0  0  0
 40 79  2  0  0  0  0
 41 61  1  0  0  0  0
 41 72  1  0  0  0  0
 41 80  2  0  0  0  0
 42 66  1  0  0  0  0
 42 70  1  0  0  0  0
 42 81  2  0  0  0  0
 43 46  1  0  0  0  0
 44 53  1  0  0  0  0
 45 65  1  0  0  0  0
 46 48  1  0  0  0  0
 47 49  1  0  0  0  0
 47 50  1  0  0  0  0
 48 52  1  0  0  0  0
 49 54  1  0  0  0  0
 50 66  1  0  0  0  0
 51 54  1  0  0  0  0
 51 66  1  0  0  0  0
 52 71  1  0  0  0  0
 53 65  1  0  0  0  0
 54 64  1  0  0  0  0
 55 61  1  0  0  0  0
 56 62  1  0  0  0  0
 57 62  1  0  0  0  0
 58 62  1  0  0  0  0
 59 75  1  0  0  0  0
 60 62  1  0  0  0  0
 60 72  1  0  0  0  0
 61 75  1  0  0  0  0
 63 64  1  0  0  0  0
M  CHG  3  73   1  74   1  75   1
M  ISO  4  34 101  42 100  70 100  83 101
M  END
> <Batch ID>
0092

> <Smiles>
CNC(C)C(=O)NC(C(=O)N1Cc2cc([101O:1][101CH2:1]C(=N)C(=O)Nc3cccc(C(=N)[100NH:0][100C:0](=O)N4CCCC(n5nc(-c6ccc(Oc7ccc(F)cc7F)cc6)c(C(N)=O)c5N)C4)c3)ccc2CC1C(=O)NC1CCCc2ccccc21)C(C)(C)C

> <Shape>
0.225

> <Color>
0.069

> <Negative vol penalty>
0.000

$$$$

  -OEChem-04052300343D

 87 96  0     1  0  0  0  0  0999 V2000
  -22.3274  -11.5379   26.5834 C   0  0  0  0  0  0  0  0  0  0  0  0
  -22.9935  -12.7226   26.2866 C   0  0  0  0  0  0  0  0  0  0  0  0
  -23.0003   -9.8937   19.9810 C   0  0  0  0  0  0  0  0  0  0  0  0
  -23.7249   -9.9448   22.2852 C   0  0  0  0  0  0  0  0  0  0  0  0
  -20.9361  -11.4845   26.5098 C   0  0  0  0  0  0  0  0  0  0  0  0
  -22.2688  -13.8544   25.9149 C   0  0  0  0  0  0  0  0  0  0  0  0
  -23.8864  -18.0493   28.2454 C   0  0  0  0  0  0  0  0  0  0  0  0
  -22.2336   -8.7593   20.2472 C   0  0  0  0  0  0  0  0  0  0  0  0
  -22.9582   -8.8104   22.5515 C   0  0  0  0  0  0  0  0  0  0  0  0
  -25.0493  -18.6418   27.7551 C   0  0  0  0  0  0  0  0  0  0  0  0
  -23.2022   -5.4714   22.0798 C   0  0  0  0  0  0  0  0  0  0  0  0
  -23.7894   -4.4542   22.8322 C   0  0  0  0  0  0  0  0  0  0  0  0
  -23.7152  -20.2619   26.5657 C   0  0  0  0  0  0  0  0  0  0  0  0
  -30.6539  -19.8065   21.4123 C   0  0  0  0  0  0  0  0  0  0  0  0
  -29.5384  -17.8632   22.3155 C   0  0  0  0  0  0  0  0  0  0  0  0
  -31.1945  -17.6055   20.5754 C   0  0  0  0  0  0  0  0  0  0  0  0
  -22.0652   -4.6974   24.5069 C   0  0  0  0  0  0  0  0  0  0  0  0
  -23.7461  -10.4864   21.0000 C   0  0  0  0  0  0  0  0  0  0  0  0
  -24.1317  -13.0020   20.8239 C   0  0  0  0  0  0  0  0  0  0  0  0
  -20.1933  -12.6189   26.1463 C   0  0  0  0  0  0  0  0  0  0  0  0
  -22.6268  -18.5528   27.8900 C   0  0  0  0  0  0  0  0  0  0  0  0
  -20.8663  -13.8158   25.8350 C   0  0  0  0  0  0  0  0  0  0  0  0
  -22.5379  -19.6755   27.0548 C   0  0  0  0  0  0  0  0  0  0  0  0
  -29.7301  -19.2446   22.2934 C   0  0  0  0  0  0  0  0  0  0  0  0
  -31.3861  -18.9870   20.5532 C   0  0  0  0  0  0  0  0  0  0  0  0
  -30.2706  -17.0436   21.4565 C   0  0  0  0  0  0  0  0  0  0  0  0
  -22.2125   -8.2177   21.5324 C   0  0  0  0  0  0  0  0  0  0  0  0
  -24.9638  -19.7465   26.9129 C   0  0  0  0  0  0  0  0  0  0  0  0
  -22.0465   -6.1017   22.5411 C   0  0  0  0  0  0  0  0  0  0  0  0
  -23.2209   -4.0671   24.0457 C   0  0  0  0  0  0  0  0  0  0  0  0
  -21.4779   -5.7147   23.7546 C   0  0  0  0  0  0  0  0  0  0  0  0
  -24.5387  -11.6579   20.7255 C   0  0  0  0  0  0  0  0  0  0  0  0
  -25.2417  -13.7244   20.4598 C   0  0  0  0  0  0  0  0  0  0  0  0
  -28.3550  -21.7846   24.5251 C   0  0  0  0  0  0  0  0  0  0  0  0
  -27.3391  -20.9191   24.4848 C   0  0  0  0  0  0  0  0  0  0  0  0
  -29.4397  -21.2627   23.6665 C   0  0  0  0  0  0  0  0  0  0  0  0
  -27.7296  -19.7902   23.6135 C   0  0  0  0  0  0  0  0  0  0  0  0
  -22.8637  -13.5485   21.2101 C   0  0  0  0  0  0  0  0  0  0  0  0
  -20.1047  -17.3961   26.3392 C   0  0  0  0  0  0  0  0  0  0  0  0
  -18.7545  -20.2063   27.2348 C   0  0  0  0  0  0  0  0  0  0  0  0
  -19.1864  -23.4582   28.1758 C   0  0  0  0  0  0  0  0  0  0  0  0
  -30.7212  -14.6848   20.6951 C   0  0  0  0  0  0  0  0  0  0  0  0
  -18.6940  -12.4997   26.0346 C   0  0  0  0  0  0  0  0  0  0  0  0
  -21.3825  -17.9187   28.4487 C   0  0  0  0  0  0  0  0  0  0  0  0
  -21.2103  -20.2669   26.6596 C   0  0  0  0  0  0  0  0  0  0  0  0
  -17.9771  -13.8469   25.9962 C   0  0  0  0  0  0  0  0  0  0  0  0
  -29.6032  -12.2319   18.3690 C   0  0  0  0  0  0  0  0  0  0  0  0
  -18.6692  -14.7923   25.0195 C   0  0  0  0  0  0  0  0  0  0  0  0
  -28.1525  -11.9745   18.7828 C   0  0  0  0  0  0  0  0  0  0  0  0
  -30.5034  -12.4753   19.5790 C   0  0  0  0  0  0  0  0  0  0  0  0
  -28.5878  -13.2645   20.9120 C   0  0  0  0  0  0  0  0  0  0  0  0
  -20.1137  -15.0716   25.4519 C   0  0  1  0  0  0  0  0  0  0  0  0
  -20.1402  -18.1989   27.6088 C   0  0  1  0  0  0  0  0  0  0  0  0
  -27.6305  -13.0782   19.7236 C   0  0  2  0  0  0  0  0  0  0  0  0
  -28.4969  -23.0719   25.2489 C   0  0  0  0  0  0  0  0  0  0  0  0
  -17.8939  -25.5151   28.8049 C   0  0  0  0  0  0  0  0  0  0  0  0
  -18.0568  -20.6626   24.2997 C   0  0  0  0  0  0  0  0  0  0  0  0
  -17.6512  -23.0727   24.8429 C   0  0  0  0  0  0  0  0  0  0  0  0
  -16.2554  -21.3030   25.9119 C   0  0  0  0  0  0  0  0  0  0  0  0
  -20.4118  -23.5457   30.8684 C   0  0  0  0  0  0  0  0  0  0  0  0
  -26.0137  -20.9550   25.1541 C   0  0  0  0  0  0  0  0  0  1  0  0
  -18.6619  -21.5876   26.6330 C   0  0  1  0  0  0  0  0  0  0  0  0
  -18.5915  -24.2643   29.3163 C   0  0  2  0  0  0  0  0  0  0  0  0
  -17.6815  -21.6444   25.4276 C   0  0  0  0  0  0  0  0  0  0  0  0
  -25.8081  -11.5312   20.3297 N   0  0  0  0  0  0  0  0  0  0  0  0
  -26.2083  -12.8050   20.1761 N   0  0  0  0  0  0  0  0  0  0  0  0
  -29.0007  -20.0608   23.1508 N   0  0  0  0  0  0  0  0  0  0  0  0
  -20.0223  -19.6076   27.2267 N   0  0  0  0  0  0  0  0  0  0  0  0
  -29.9483  -13.5364   20.4221 N   0  0  0  0  0  0  0  0  0  0  0  0
  -32.3204  -19.5546   19.6621 N   0  0  0  0  0  0  0  0  0  0  0  0
  -25.4753  -15.0501   20.3577 N   0  0  0  0  0  0  0  0  0  0  0  0
  -21.8317  -12.6645   21.5534 N   0  0  0  0  0  0  0  0  0  0  0  0
  -30.0768  -15.6402   21.4805 N   0  0  0  0  0  0  0  0  0  0  0  0
  -20.1404  -16.0289   26.5369 N   0  0  0  0  0  0  0  0  0  0  0  0
  -18.3156  -22.4875   27.7278 N   0  0  0  0  0  0  0  0  0  0  0  0
  -19.6591  -24.6782   30.2701 N   0  3  0  0  0  0  0  0  0  0  0  0
  -30.5051  -21.8309   23.4854 O   0  0  0  0  0  0  0  0  0  0  0  0
  -27.0185  -18.8253   23.3810 O   0  0  0  0  0  0  0  0  0  0  0  0
  -22.6471  -14.7839   21.2337 O   0  0  0  0  0  0  0  0  0  0  0  0
  -20.0477  -17.9742   25.2602 O   0  0  0  0  0  0  0  0  0  0  0  0
  -17.7408  -19.6808   27.7016 O   0  0  0  0  0  0  0  0  0  0  0  0
  -20.3098  -23.6709   27.7249 O   0  0  0  0  0  0  0  0  0  0  0  0
  -31.8600  -14.8236   20.2414 O   0  0  0  0  0  0  0  0  0  0  0  0
  -21.4642   -7.1109   21.7926 O   0  0  0  0  0  0  0  0  0  0  0  0
  -26.0973  -20.3264   26.4324 O   0  0  0  0  0  0  0  0  0  1  0  0
  -23.7841   -3.0892   24.7673 F   0  0  0  0  0  0  0  0  0  0  0  0
  -20.3670   -6.3157   24.2023 F   0  0  0  0  0  0  0  0  0  0  0  0
  1  2  1  0  0  0  0
  1  5  2  0  0  0  0
  2  6  2  0  0  0  0
  3  8  2  0  0  0  0
  3 18  1  0  0  0  0
  4  9  1  0  0  0  0
  4 18  2  0  0  0  0
  5 20  1  0  0  0  0
  6 22  1  0  0  0  0
  7 10  2  0  0  0  0
  7 21  1  0  0  0  0
  8 27  1  0  0  0  0
  9 27  2  0  0  0  0
 10 28  1  0  0  0  0
 11 12  2  0  0  0  0
 11 29  1  0  0  0  0
 12 30  1  0  0  0  0
 13 23  1  0  0  0  0
 13 28  2  0  0  0  0
 14 24  1  0  0  0  0
 14 25  2  0  0  0  0
 15 24  2  0  0  0  0
 15 26  1  0  0  0  0
 16 25  1  0  0  0  0
 16 26  2  0  0  0  0
 17 30  2  0  0  0  0
 17 31  1  0  0  0  0
 18 32  1  0  0  0  0
 19 32  1  0  0  0  0
 19 33  2  0  0  0  0
 19 38  1  0  0  0  0
 20 22  2  0  0  0  0
 20 43  1  0  0  0  0
 21 23  2  0  0  0  0
 21 44  1  0  0  0  0
 22 52  1  0  0  0  0
 23 45  1  0  0  0  0
 24 67  1  0  0  0  0
 25 70  1  0  0  0  0
 26 73  1  0  0  0  0
 27 84  1  0  0  0  0
 28 85  1  0  0  0  0
 29 31  2  0  0  0  0
 29 84  1  0  0  0  0
 30 86  1  0  0  0  0
 31 87  1  0  0  0  0
 32 65  2  0  0  0  0
 33 66  1  0  0  0  0
 33 71  1  0  0  0  0
 34 35  2  0  0  0  0
 34 36  1  0  0  0  0
 34 55  1  0  0  0  0
 35 37  1  0  0  0  0
 35 61  1  0  0  0  0
 36 67  1  0  0  0  0
 36 77  2  0  0  0  0
 37 67  1  0  0  0  0
 37 78  2  0  0  0  0
 38 72  1  0  0  0  0
 38 79  2  0  0  0  0
 39 53  1  0  0  0  0
 39 74  1  0  0  0  0
 39 80  2  0  0  0  0
 40 62  1  0  0  0  0
 40 68  1  0  0  0  0
 40 81  2  0  0  0  0
 41 63  1  0  0  0  0
 41 75  1  0  0  0  0
 41 82  2  0  0  0  0
 42 69  1  0  0  0  0
 42 73  1  0  0  0  0
 42 83  2  0  0  0  0
 43 46  1  0  0  0  0
 44 53  1  0  0  0  0
 45 68  1  0  0  0  0
 46 48  1  0  0  0  0
 47 49  1  0  0  0  0
 47 50  1  0  0  0  0
 48 52  1  0  0  0  0
 49 54  1  0  0  0  0
 50 69  1  0  0  0  0
 51 54  1  0  0  0  0
 51 69  1  0  0  0  0
 52 74  1  0  0  0  0
 53 68  1  0  0  0  0
 54 66  1  0  0  0  0
 56 63  1  0  0  0  0
 57 64  1  0  0  0  0
 58 64  1  0  0  0  0
 59 64  1  0  0  0  0
 60 76  1  0  0  0  0
 61 85  1  0  0  0  0
 62 64  1  0  0  0  0
 62 75  1  0  0  0  0
 63 76  1  0  0  0  0
 65 66  1  0  0  0  0
M  CHG  1  76   1
M  ISO  4  42 100  61 101  73 100  85 101
M  END
> <Batch ID>
0092

> <Smiles>
CNC(C)C(=O)NC(C(=O)N1Cc2cc([101O:1][101CH2:1]C3=C(C)C(=O)N(c4cc(N)cc([100NH:0][100C:0](=O)N5CCCC(n6nc(-c7ccc(Oc8ccc(F)cc8F)cc7)c(C(N)=O)c6N)C5)c4)C3=O)ccc2CC1C(=O)NC1CCCc2ccccc21)C(C)(C)C

> <Shape>
0.179

> <Color>
0.186

> <Negative vol penalty>
0.000

$$$$

  -OEChem-04052300343D

 85 93  0     1  0  0  0  0  0999 V2000
  -17.3168  -11.8893   22.3557 C   0  0  0  0  0  0  0  0  0  0  0  0
  -17.7400  -12.9985   21.6304 C   0  0  0  0  0  0  0  0  0  0  0  0
  -22.8488  -28.1707   22.0573 C   0  0  0  0  0  0  0  0  0  0  0  0
  -23.6447  -30.4246   22.4091 C   0  0  0  0  0  0  0  0  0  0  0  0
  -18.1899  -11.2653   23.2458 C   0  0  0  0  0  0  0  0  0  0  0  0
  -19.0363  -13.4850   21.7957 C   0  0  0  0  0  0  0  0  0  0  0  0
  -22.5988  -16.0040   17.4981 C   0  0  0  0  0  0  0  0  0  0  0  0
  -27.1754  -24.5973   18.0375 C   0  0  0  0  0  0  0  0  0  0  0  0
  -28.5431  -24.8664   18.0862 C   0  0  0  0  0  0  0  0  0  0  0  0
  -21.7505  -28.4306   22.8770 C   0  0  0  0  0  0  0  0  0  0  0  0
  -22.5464  -30.6845   23.2287 C   0  0  0  0  0  0  0  0  0  0  0  0
  -22.8816  -17.3300   17.1731 C   0  0  0  0  0  0  0  0  0  0  0  0
  -18.5475  -28.6128   24.5865 C   0  0  0  0  0  0  0  0  0  0  0  0
  -17.2945  -28.1869   24.1462 C   0  0  0  0  0  0  0  0  0  0  0  0
  -24.8843  -17.2252   18.5137 C   0  0  0  0  0  0  0  0  0  0  0  0
  -27.2357  -23.8737   20.3418 C   0  0  0  0  0  0  0  0  0  0  0  0
  -17.5130  -29.5752   22.1811 C   0  0  0  0  0  0  0  0  0  0  0  0
  -23.7959  -29.1677   21.8234 C   0  0  0  0  0  0  0  0  0  0  0  0
  -25.0162  -29.0872   19.5846 C   0  0  0  0  0  0  0  0  0  0  0  0
  -19.5006  -11.7386   23.4149 C   0  0  0  0  0  0  0  0  0  0  0  0
  -23.4524  -15.2809   18.3437 C   0  0  0  0  0  0  0  0  0  0  0  0
  -19.9273  -12.8676   22.6899 C   0  0  0  0  0  0  0  0  0  0  0  0
  -24.6114  -15.8895   18.8460 C   0  0  0  0  0  0  0  0  0  0  0  0
  -26.5216  -24.1010   19.1654 C   0  0  0  0  0  0  0  0  0  0  0  0
  -29.2572  -24.6391   19.2626 C   0  0  0  0  0  0  0  0  0  0  0  0
  -28.6035  -24.1427   20.3905 C   0  0  0  0  0  0  0  0  0  0  0  0
  -21.5993  -29.6875   23.4627 C   0  0  0  0  0  0  0  0  0  0  0  0
  -24.0229  -17.9417   17.6832 C   0  0  0  0  0  0  0  0  0  0  0  0
  -19.2834  -29.5201   23.8242 C   0  0  0  0  0  0  0  0  0  0  0  0
  -16.7772  -28.6680   22.9434 C   0  0  0  0  0  0  0  0  0  0  0  0
  -18.7661  -30.0013   22.6215 C   0  0  0  0  0  0  0  0  0  0  0  0
  -24.9309  -28.8997   20.9772 C   0  0  0  0  0  0  0  0  0  0  0  0
  -26.2903  -28.6885   19.2618 C   0  0  0  0  0  0  0  0  0  0  0  0
  -24.6548  -21.4409   18.2243 C   0  0  0  0  0  0  0  0  0  0  0  0
  -24.3889  -20.1418   18.3876 C   0  0  0  0  0  0  0  0  0  1  0  0
  -24.0317  -29.5779   18.6650 C   0  0  0  0  0  0  0  0  0  0  0  0
  -24.7308  -22.3480   19.4060 C   0  0  0  0  0  0  0  0  0  0  0  0
  -23.1436  -13.8876   21.1839 C   0  0  0  0  0  0  0  0  0  0  0  0
  -26.1474  -12.8344   20.5593 C   0  0  0  0  0  0  0  0  0  0  0  0
  -29.0821  -13.2798   18.8752 C   0  0  0  0  0  0  0  0  0  0  0  0
  -30.0036  -24.9075   22.3259 C   0  0  0  0  0  0  0  0  0  0  0  0
  -20.3930  -11.0599   24.4237 C   0  0  0  0  0  0  0  0  0  0  0  0
  -23.1473  -13.8431   18.6632 C   0  0  0  0  0  0  0  0  0  0  0  0
  -25.5707  -15.1504   19.7415 C   0  0  0  0  0  0  0  0  0  0  0  0
  -21.8702  -11.4099   24.2631 C   0  0  0  0  0  0  0  0  0  0  0  0
  -30.6971  -28.3208   21.0765 C   0  0  0  0  0  0  0  0  0  0  0  0
  -22.0462  -12.9149   24.0877 C   0  0  0  0  0  0  0  0  0  0  0  0
  -29.2976  -28.8982   20.8723 C   0  0  0  0  0  0  0  0  0  0  0  0
  -30.7206  -27.2709   22.1832 C   0  0  0  0  0  0  0  0  0  0  0  0
  -28.3347  -26.7427   21.7712 C   0  0  0  0  0  0  0  0  0  0  0  0
  -21.3338  -13.4100   22.8232 C   0  0  1  0  0  0  0  0  0  0  0  0
  -23.8157  -13.3616   19.9473 C   0  0  1  0  0  0  0  0  0  0  0  0
  -28.2764  -27.7737   20.6341 C   0  0  1  0  0  0  0  0  0  0  0  0
  -31.3662  -12.2779   18.5985 C   0  0  0  0  0  0  0  0  0  0  0  0
  -26.9804  -13.9949   23.2555 C   0  0  0  0  0  0  0  0  0  0  0  0
  -29.3654  -13.8247   22.5134 C   0  0  0  0  0  0  0  0  0  0  0  0
  -27.9776  -11.7630   22.7275 C   0  0  0  0  0  0  0  0  0  0  0  0
  -29.5646  -22.5124   22.0057 C   0  0  0  0  0  0  0  0  0  0  0  0
  -28.6425  -12.7847   15.9906 C   0  0  0  0  0  0  0  0  0  0  0  0
  -25.0392  -23.8095   19.1122 C   0  0  1  0  0  0  0  0  0  0  0  0
  -27.5394  -13.3591   20.8164 C   0  0  1  0  0  0  0  0  0  0  0  0
  -29.9395  -12.3172   18.0734 C   0  0  2  0  0  0  0  0  0  0  0  0
  -27.9468  -13.2502   22.3129 C   0  0  0  0  0  0  0  0  0  0  0  0
  -26.0609  -28.4192   21.5029 N   0  0  0  0  0  0  0  0  0  0  0  0
  -26.8681  -28.3012   20.4350 N   0  0  0  0  0  0  0  0  0  0  0  0
  -25.2255  -13.7486   20.0301 N   0  0  0  0  0  0  0  0  0  0  0  0
  -29.7030  -26.2395   21.9747 N   0  0  0  0  0  0  0  0  0  0  0  0
  -30.6419  -24.9192   19.2894 N   0  0  0  0  0  0  0  0  0  0  0  0
  -26.9615  -28.6349   18.0918 N   0  0  0  0  0  0  0  0  0  0  0  0
  -22.7742  -29.9432   19.1645 N   0  0  0  0  0  0  0  0  0  0  0  0
  -22.1133  -13.0912   21.6463 N   0  0  0  0  0  0  0  0  0  0  0  0
  -28.4216  -12.6407   19.9031 N   0  0  0  0  0  0  0  0  0  0  0  0
  -29.3203  -23.9000   21.6186 N   0  0  0  0  0  0  0  0  0  0  0  0
  -24.2567  -24.6917   20.0366 N   0  3  0  0  0  0  0  0  0  0  0  0
  -29.9769  -12.7267   16.6410 N   0  3  0  0  0  0  0  0  0  0  0  0
  -24.2549  -29.6737   17.4343 O   0  0  0  0  0  0  0  0  0  0  0  0
  -24.5575  -21.9282   20.5484 O   0  0  0  0  0  0  0  0  0  0  0  0
  -23.5320  -14.9374   21.6826 O   0  0  0  0  0  0  0  0  0  0  0  0
  -25.8896  -11.6548   20.8119 O   0  0  0  0  0  0  0  0  0  0  0  0
  -29.0087  -14.4793   18.6178 O   0  0  0  0  0  0  0  0  0  0  0  0
  -30.7855  -24.6335   23.2448 O   0  0  0  0  0  0  0  0  0  0  0  0
  -20.5276  -29.9415   24.2624 O   0  0  0  0  0  0  0  0  0  0  0  0
  -24.3009  -19.2360   17.3680 O   0  0  0  0  0  0  0  0  0  1  0  0
  -15.5746  -28.2577   22.5199 F   0  0  0  0  0  0  0  0  0  0  0  0
  -19.4689  -30.8721   21.8842 F   0  0  0  0  0  0  0  0  0  0  0  0
  1  2  1  0  0  0  0
  1  5  2  0  0  0  0
  2  6  2  0  0  0  0
  3 10  2  0  0  0  0
  3 18  1  0  0  0  0
  4 11  1  0  0  0  0
  4 18  2  0  0  0  0
  5 20  1  0  0  0  0
  6 22  1  0  0  0  0
  7 12  2  0  0  0  0
  7 21  1  0  0  0  0
  8  9  2  0  0  0  0
  8 24  1  0  0  0  0
  9 25  1  0  0  0  0
 10 27  1  0  0  0  0
 11 27  2  0  0  0  0
 12 28  1  0  0  0  0
 13 14  2  0  0  0  0
 13 29  1  0  0  0  0
 14 30  1  0  0  0  0
 15 23  1  0  0  0  0
 15 28  2  0  0  0  0
 16 24  2  0  0  0  0
 16 26  1  0  0  0  0
 17 30  2  0  0  0  0
 17 31  1  0  0  0  0
 18 32  1  0  0  0  0
 19 32  1  0  0  0  0
 19 33  2  0  0  0  0
 19 36  1  0  0  0  0
 20 22  2  0  0  0  0
 20 42  1  0  0  0  0
 21 23  2  0  0  0  0
 21 43  1  0  0  0  0
 22 51  1  0  0  0  0
 23 44  1  0  0  0  0
 24 60  1  0  0  0  0
 25 26  2  0  0  0  0
 25 68  1  0  0  0  0
 26 73  1  0  0  0  0
 27 82  1  0  0  0  0
 28 83  1  0  0  0  0
 29 31  2  0  0  0  0
 29 82  1  0  0  0  0
 30 84  1  0  0  0  0
 31 85  1  0  0  0  0
 32 64  2  0  0  0  0
 33 65  1  0  0  0  0
 33 69  1  0  0  0  0
 34 35  2  0  0  0  0
 34 37  1  0  0  0  0
 35 83  1  0  0  0  0
 36 70  1  0  0  0  0
 36 76  2  0  0  0  0
 37 60  1  0  0  0  0
 37 77  2  0  0  0  0
 38 52  1  0  0  0  0
 38 71  1  0  0  0  0
 38 78  2  0  0  0  0
 39 61  1  0  0  0  0
 39 66  1  0  0  0  0
 39 79  2  0  0  0  0
 40 62  1  0  0  0  0
 40 72  1  0  0  0  0
 40 80  2  0  0  0  0
 41 67  1  0  0  0  0
 41 73  1  0  0  0  0
 41 81  2  0  0  0  0
 42 45  1  0  0  0  0
 43 52  1  0  0  0  0
 44 66  1  0  0  0  0
 45 47  1  0  0  0  0
 46 48  1  0  0  0  0
 46 49  1  0  0  0  0
 47 51  1  0  0  0  0
 48 53  1  0  0  0  0
 49 67  1  0  0  0  0
 50 53  1  0  0  0  0
 50 67  1  0  0  0  0
 51 71  1  0  0  0  0
 52 66  1  0  0  0  0
 53 65  1  0  0  0  0
 54 62  1  0  0  0  0
 55 63  1  0  0  0  0
 56 63  1  0  0  0  0
 57 63  1  0  0  0  0
 58 73  1  0  0  0  0
 59 75  1  0  0  0  0
 60 74  1  0  0  0  0
 61 63  1  0  0  0  0
 61 72  1  0  0  0  0
 62 75  1  0  0  0  0
 64 65  1  0  0  0  0
M  CHG  2  74   1  75   1
M  ISO  4  35 101  41 100  73 100  83 101
M  END
> <Batch ID>
0092

> <Smiles>
CNC(C)C(=O)NC(C(=O)N1Cc2cc([101O:1][101CH:1]=CC(=O)C(N)c3ccc(N)c([100N:0](C)[100C:0](=O)N4CCCC(n5nc(-c6ccc(Oc7ccc(F)cc7F)cc6)c(C(N)=O)c5N)C4)c3)ccc2CC1C(=O)NC1CCCc2ccccc21)C(C)(C)C

> <Shape>
0.237

> <Color>
0.080

> <Negative vol penalty>
0.000

$$$$

  -OEChem-04052300343D

 84 92  0     1  0  0  0  0  0999 V2000
  -31.3141  -25.6787   17.3290 C   0  0  0  0  0  0  0  0  0  0  0  0
  -30.0359  -25.5505   17.8632 C   0  0  0  0  0  0  0  0  0  0  0  0
  -25.6542  -14.9622   21.4801 C   0  0  0  0  0  0  0  0  0  0  0  0
  -24.8301  -16.3926   19.7161 C   0  0  0  0  0  0  0  0  0  0  0  0
  -32.2637  -26.4667   17.9778 C   0  0  0  0  0  0  0  0  0  0  0  0
  -29.7071  -26.2094   19.0473 C   0  0  0  0  0  0  0  0  0  0  0  0
  -25.1904  -28.4875   18.8129 C   0  0  0  0  0  0  0  0  0  0  0  0
  -24.4613  -14.2397   21.4516 C   0  0  0  0  0  0  0  0  0  0  0  0
  -23.6372  -15.6702   19.6875 C   0  0  0  0  0  0  0  0  0  0  0  0
  -24.0623  -27.6810   18.9569 C   0  0  0  0  0  0  0  0  0  0  0  0
  -23.0534  -11.8305   19.5421 C   0  0  0  0  0  0  0  0  0  0  0  0
  -23.1379  -10.4385   19.5678 C   0  0  0  0  0  0  0  0  0  0  0  0
  -25.3181  -23.2857   22.5242 C   0  0  0  0  0  0  0  0  0  0  0  0
  -23.8747  -28.3653   21.2625 C   0  0  0  0  0  0  0  0  0  0  0  0
  -23.9550  -23.7378   20.1325 C   0  0  0  0  0  0  0  0  0  0  0  0
  -21.8605  -10.3989   21.6181 C   0  0  0  0  0  0  0  0  0  0  0  0
  -25.8385  -16.0387   20.6124 C   0  0  0  0  0  0  0  0  0  0  0  0
  -26.0243  -23.3705   21.3243 C   0  0  0  0  0  0  0  0  0  0  0  0
  -28.2354  -16.5338   19.8930 C   0  0  0  0  0  0  0  0  0  0  0  0
  -31.9434  -27.1434   19.1653 C   0  0  0  0  0  0  0  0  0  0  0  0
  -25.6764  -29.2317   19.8975 C   0  0  0  0  0  0  0  0  0  0  0  0
  -30.6538  -27.0062   19.7134 C   0  0  0  0  0  0  0  0  0  0  0  0
  -25.0077  -29.1824   21.1290 C   0  0  0  0  0  0  0  0  0  0  0  0
  -23.2488  -23.6530   21.3325 C   0  0  0  0  0  0  0  0  0  0  0  0
  -23.9304  -23.4269   22.5283 C   0  0  0  0  0  0  0  0  0  0  0  0
  -25.3427  -23.5966   20.1284 C   0  0  0  0  0  0  0  0  0  0  0  0
  -23.4529  -14.5937   20.5553 C   0  0  0  0  0  0  0  0  0  0  0  0
  -23.4060  -27.6176   20.1825 C   0  0  0  0  0  0  0  0  0  0  0  0
  -22.3725  -12.5068   20.5544 C   0  0  0  0  0  0  0  0  0  0  0  0
  -22.5414   -9.7227   20.6058 C   0  0  0  0  0  0  0  0  0  0  0  0
  -21.7760  -11.7910   21.5924 C   0  0  0  0  0  0  0  0  0  0  0  0
  -27.0703  -16.7857   20.6419 C   0  0  0  0  0  0  0  0  0  0  0  0
  -29.1119  -17.5177   20.2802 C   0  0  0  0  0  0  0  0  0  0  0  0
  -27.4735  -23.2179   21.3533 C   0  0  0  0  0  0  0  0  0  0  0  0
  -28.5015  -15.5025   18.9331 C   0  0  0  0  0  0  0  0  0  0  0  0
  -28.1958  -22.9772   22.6236 C   0  0  0  0  0  0  0  0  0  0  0  0
  -28.3901  -29.2750   21.5521 C   0  0  0  0  0  0  0  0  0  0  0  0
  -21.3151  -24.9725   21.4503 C   0  0  0  0  0  0  0  0  0  0  0  0
  -27.0302  -31.8567   22.9690 C   0  0  0  0  0  0  0  0  0  0  0  0
  -24.1806  -33.5483   23.7847 C   0  0  0  0  0  0  0  0  0  0  0  0
  -33.0176  -27.9458   19.8560 C   0  0  0  0  0  0  0  0  0  0  0  0
  -26.8787  -30.1176   19.7185 C   0  0  0  0  0  0  0  0  0  0  0  0
  -25.4772  -29.9777   22.3187 C   0  0  0  0  0  0  0  0  0  0  0  0
  -32.4758  -28.9118   20.9064 C   0  0  0  0  0  0  0  0  0  0  0  0
  -30.2013  -20.3330   23.9810 C   0  0  0  0  0  0  0  0  0  0  0  0
  -31.4549  -28.2128   21.7986 C   0  0  0  0  0  0  0  0  0  0  0  0
  -29.7034  -19.0945   23.2367 C   0  0  0  0  0  0  0  0  0  0  0  0
  -29.0714  -21.3270   24.2294 C   0  0  0  0  0  0  0  0  0  0  0  0
  -27.8463  -20.5012   22.2379 C   0  0  0  0  0  0  0  0  0  0  0  0
  -30.2515  -27.7252   20.9827 C   0  0  1  0  0  0  0  0  0  0  0  0
  -27.5883  -30.4342   21.0314 C   0  0  1  0  0  0  0  0  0  0  0  0
  -28.9652  -19.4866   21.9445 C   0  0  2  0  0  0  0  0  0  0  0  0
  -19.8082  -25.0588   21.3931 C   0  0  0  0  0  0  0  0  0  0  0  0
  -23.3856  -35.6082   24.9773 C   0  0  0  0  0  0  0  0  0  0  0  0
  -27.5470  -30.4996   25.6525 C   0  0  0  0  0  0  0  0  0  0  0  0
  -25.9256  -32.0978   26.6941 C   0  0  0  0  0  0  0  0  0  0  0  0
  -28.0069  -32.9576   25.6209 C   0  0  0  0  0  0  0  0  0  0  0  0
  -22.9485  -34.6381   21.3244 C   0  0  0  0  0  0  0  0  0  0  0  0
  -22.0652  -26.2788   21.6199 C   0  0  0  0  0  0  0  0  0  1  0  0
  -26.1375  -32.0722   24.1672 C   0  0  1  0  0  0  0  0  0  0  0  0
  -23.8019  -35.0114   23.6419 C   0  0  2  0  0  0  0  0  0  0  0  0
  -26.8963  -31.8902   25.5120 C   0  0  0  0  0  0  0  0  0  0  0  0
  -27.1924  -17.8465   21.4443 N   0  0  0  0  0  0  0  0  0  0  0  0
  -28.2189  -23.2793   20.2852 N   0  0  0  0  0  0  0  0  0  0  0  0
  -21.8539  -23.7981   21.3140 N   0  0  0  0  0  0  0  0  0  0  0  0
  -28.4447  -18.2697   21.2019 N   0  0  0  0  0  0  0  0  0  0  0  0
  -28.3691  -21.6496   22.9889 N   0  0  0  0  0  0  0  0  0  0  0  0
  -26.6609  -30.8242   22.0954 N   0  0  0  0  0  0  0  0  0  0  0  0
  -23.2321  -23.3380   23.7530 N   0  0  0  0  0  0  0  0  0  0  0  0
  -26.0391  -23.6854   18.9026 N   0  0  0  0  0  0  0  0  0  0  0  0
  -30.3807  -17.8043   19.9190 N   0  0  0  0  0  0  0  0  0  0  0  0
  -27.4903  -14.5734   18.6530 N   0  0  0  0  0  0  0  0  0  0  0  0
  -29.3652  -28.8287   20.6806 N   0  0  0  0  0  0  0  0  0  0  0  0
  -25.5340  -33.3893   23.9951 N   0  0  0  0  0  0  0  0  0  0  0  0
  -22.6686  -35.1622   22.6860 N   0  3  0  0  0  0  0  0  0  0  0  0
  -29.6090  -15.3981   18.3533 O   0  0  0  0  0  0  0  0  0  0  0  0
  -28.5645  -23.9812   23.2189 O   0  0  0  0  0  0  0  0  0  0  0  0
  -28.1433  -28.8201   22.6629 O   0  0  0  0  0  0  0  0  0  0  0  0
  -28.0148  -32.5827   22.8102 O   0  0  0  0  0  0  0  0  0  0  0  0
  -23.3576  -32.6379   23.7201 O   0  0  0  0  0  0  0  0  0  0  0  0
  -22.2889  -13.8888   20.5270 O   0  0  0  0  0  0  0  0  0  0  0  0
  -22.3050  -26.8307   20.3260 O   0  0  0  0  0  0  0  0  0  1  0  0
  -22.6213   -8.3858   20.6296 F   0  0  0  0  0  0  0  0  0  0  0  0
  -21.1195  -12.4351   22.5671 F   0  0  0  0  0  0  0  0  0  0  0  0
  1  2  1  0  0  0  0
  1  5  2  0  0  0  0
  2  6  2  0  0  0  0
  3  8  2  0  0  0  0
  3 17  1  0  0  0  0
  4  9  1  0  0  0  0
  4 17  2  0  0  0  0
  5 20  1  0  0  0  0
  6 22  1  0  0  0  0
  7 10  2  0  0  0  0
  7 21  1  0  0  0  0
  8 27  1  0  0  0  0
  9 27  2  0  0  0  0
 10 28  1  0  0  0  0
 11 12  2  0  0  0  0
 11 29  1  0  0  0  0
 12 30  1  0  0  0  0
 13 18  2  0  0  0  0
 13 25  1  0  0  0  0
 14 23  1  0  0  0  0
 14 28  2  0  0  0  0
 15 24  1  0  0  0  0
 15 26  2  0  0  0  0
 16 30  2  0  0  0  0
 16 31  1  0  0  0  0
 17 32  1  0  0  0  0
 18 26  1  0  0  0  0
 18 34  1  0  0  0  0
 19 32  1  0  0  0  0
 19 33  2  0  0  0  0
 19 35  1  0  0  0  0
 20 22  2  0  0  0  0
 20 41  1  0  0  0  0
 21 23  2  0  0  0  0
 21 42  1  0  0  0  0
 22 50  1  0  0  0  0
 23 43  1  0  0  0  0
 24 25  2  0  0  0  0
 24 65  1  0  0  0  0
 25 69  1  0  0  0  0
 26 70  1  0  0  0  0
 27 81  1  0  0  0  0
 28 82  1  0  0  0  0
 29 31  2  0  0  0  0
 29 81  1  0  0  0  0
 30 83  1  0  0  0  0
 31 84  1  0  0  0  0
 32 63  2  0  0  0  0
 33 66  1  0  0  0  0
 33 71  1  0  0  0  0
 34 36  1  0  0  0  0
 34 64  2  0  0  0  0
 35 72  1  0  0  0  0
 35 76  2  0  0  0  0
 36 67  1  0  0  0  0
 36 77  2  0  0  0  0
 37 51  1  0  0  0  0
 37 73  1  0  0  0  0
 37 78  2  0  0  0  0
 38 53  1  0  0  0  0
 38 59  1  0  0  0  0
 38 65  2  0  0  0  0
 39 60  1  0  0  0  0
 39 68  1  0  0  0  0
 39 79  2  0  0  0  0
 40 61  1  0  0  0  0
 40 74  1  0  0  0  0
 40 80  2  0  0  0  0
 41 44  1  0  0  0  0
 42 51  1  0  0  0  0
 43 68  1  0  0  0  0
 44 46  1  0  0  0  0
 45 47  1  0  0  0  0
 45 48  1  0  0  0  0
 46 50  1  0  0  0  0
 47 52  1  0  0  0  0
 48 67  1  0  0  0  0
 49 52  1  0  0  0  0
 49 67  1  0  0  0  0
 50 73  1  0  0  0  0
 51 68  1  0  0  0  0
 52 66  1  0  0  0  0
 54 61  1  0  0  0  0
 55 62  1  0  0  0  0
 56 62  1  0  0  0  0
 57 62  1  0  0  0  0
 58 75  1  0  0  0  0
 59 82  1  0  0  0  0
 60 62  1  0  0  0  0
 60 74  1  0  0  0  0
 61 75  1  0  0  0  0
 63 66  1  0  0  0  0
M  CHG  1  75   1
M  ISO  4  34 100  36 100  59 101  82 101
M  END
> <Batch ID>
0092

> <Smiles>
CNC(C)C(=O)NC(C(=O)N1Cc2cc([101O:1][101CH2:1]C(C)=Nc3cc(N)c([100C:0](=N)[100C:0](=O)N4CCCC(n5nc(-c6ccc(Oc7ccc(F)cc7F)cc6)c(C(N)=O)c5N)C4)cc3N)ccc2CC1C(=O)NC1CCCc2ccccc21)C(C)(C)C

> <Shape>
0.264

> <Color>
0.070

> <Negative vol penalty>
0.000

$$$$

  -OEChem-04052300343D

 84 92  0     1  0  0  0  0  0999 V2000
  -21.5508  -12.7005   19.8890 C   0  0  0  0  0  0  0  0  0  0  0  0
  -21.6775  -13.7527   20.7902 C   0  0  0  0  0  0  0  0  0  0  0  0
  -20.0950  -28.1919   22.9423 C   0  0  0  0  0  0  0  0  0  0  0  0
  -25.7638  -24.5000   19.7047 C   0  0  0  0  0  0  0  0  0  0  0  0
  -25.4520  -25.4144   17.4902 C   0  0  0  0  0  0  0  0  0  0  0  0
  -22.6851  -12.0169   19.4532 C   0  0  0  0  0  0  0  0  0  0  0  0
  -22.9388  -14.1212   21.2570 C   0  0  0  0  0  0  0  0  0  0  0  0
  -23.6250  -19.1386   21.2451 C   0  0  0  0  0  0  0  0  0  0  0  0
  -20.3171  -26.8596   23.2905 C   0  0  0  0  0  0  0  0  0  0  0  0
  -21.0352  -29.1664   23.2773 C   0  0  0  0  0  0  0  0  0  0  0  0
  -25.3939  -23.2393   19.2363 C   0  0  0  0  0  0  0  0  0  0  0  0
  -25.0821  -24.1537   17.0218 C   0  0  0  0  0  0  0  0  0  0  0  0
  -23.0377  -19.8640   22.2807 C   0  0  0  0  0  0  0  0  0  0  0  0
  -26.6216  -21.2875   16.1078 C   0  0  0  0  0  0  0  0  0  0  0  0
  -27.1731  -20.8589   14.9004 C   0  0  0  0  0  0  0  0  0  0  0  0
  -25.1628  -19.9479   23.4191 C   0  0  0  0  0  0  0  0  0  0  0  0
  -22.4194  -27.4762   24.3089 C   0  0  0  0  0  0  0  0  0  0  0  0
  -24.9578  -20.6750   13.9538 C   0  0  0  0  0  0  0  0  0  0  0  0
  -25.7928  -25.5875   18.8317 C   0  0  0  0  0  0  0  0  0  0  0  0
  -27.4718  -27.4349   19.3571 C   0  0  0  0  0  0  0  0  0  0  0  0
  -23.9618  -12.3835   19.9075 C   0  0  0  0  0  0  0  0  0  0  0  0
  -24.9855  -18.8024   21.2940 C   0  0  0  0  0  0  0  0  0  0  0  0
  -24.0911  -13.4410   20.8280 C   0  0  0  0  0  0  0  0  0  0  0  0
  -25.7656  -19.2204   22.3816 C   0  0  0  0  0  0  0  0  0  0  0  0
  -21.4793  -26.5017   23.9738 C   0  0  0  0  0  0  0  0  0  0  0  0
  -22.1974  -28.8085   23.9607 C   0  0  0  0  0  0  0  0  0  0  0  0
  -25.0530  -23.0661   17.8948 C   0  0  0  0  0  0  0  0  0  0  0  0
  -23.8059  -20.2663   23.3693 C   0  0  0  0  0  0  0  0  0  0  0  0
  -25.2382  -21.4097   16.2382 C   0  0  0  0  0  0  0  0  0  0  0  0
  -26.3412  -20.5527   13.8234 C   0  0  0  0  0  0  0  0  0  0  0  0
  -24.4063  -21.1035   15.1612 C   0  0  0  0  0  0  0  0  0  0  0  0
  -26.1744  -26.8902   19.3151 C   0  0  0  0  0  0  0  0  0  0  0  0
  -27.3015  -28.6863   19.8969 C   0  0  0  0  0  0  0  0  0  0  0  0
  -23.2320  -22.3376   24.2919 C   0  0  0  0  0  0  0  0  0  1  0  0
  -28.7194  -26.8610   18.9450 C   0  0  0  0  0  0  0  0  0  0  0  0
  -22.7026  -23.1464   25.2199 C   0  0  0  0  0  0  0  0  0  0  0  0
  -22.7886  -24.6289   25.0190 C   0  0  0  0  0  0  0  0  0  0  0  0
  -26.6217  -16.0783   21.3704 C   0  0  0  0  0  0  0  0  0  0  0  0
  -29.1768  -18.0583   21.1003 C   0  0  0  0  0  0  0  0  0  0  0  0
  -30.4882  -21.1752   21.5608 C   0  0  0  0  0  0  0  0  0  0  0  0
  -23.3456  -30.9695   23.5102 C   0  0  0  0  0  0  0  0  0  0  0  0
  -25.1541  -11.5844   19.4446 C   0  0  0  0  0  0  0  0  0  0  0  0
  -25.6101  -18.0425   20.1561 C   0  0  0  0  0  0  0  0  0  0  0  0
  -27.2350  -18.9025   22.4723 C   0  0  0  0  0  0  0  0  0  0  0  0
  -26.4892  -12.2797   19.6986 C   0  0  0  0  0  0  0  0  0  0  0  0
  -24.0976  -32.2103   20.2640 C   0  0  0  0  0  0  0  0  0  0  0  0
  -26.5397  -12.8361   21.1180 C   0  0  0  0  0  0  0  0  0  0  0  0
  -24.8389  -31.0234   19.6497 C   0  0  0  0  0  0  0  0  0  0  0  0
  -22.9181  -31.7634   21.1282 C   0  0  0  0  0  0  0  0  0  0  0  0
  -24.0198  -29.5896   21.5587 C   0  0  0  0  0  0  0  0  0  0  0  0
  -25.4444  -13.8865   21.3381 C   0  0  1  0  0  0  0  0  0  0  0  0
  -26.8885  -17.3122   20.5557 C   0  0  1  0  0  0  0  0  0  0  0  0
  -25.2454  -30.0066   20.7309 C   0  0  1  0  0  0  0  0  0  0  0  0
  -22.0718  -22.6863   26.4973 C   0  0  0  0  0  0  0  0  0  0  0  0
  -32.1648  -23.0381   21.4337 C   0  0  0  0  0  0  0  0  0  0  0  0
  -30.3334  -16.6993   23.5752 C   0  0  0  0  0  0  0  0  0  0  0  0
  -31.9251  -18.6187   23.7998 C   0  0  0  0  0  0  0  0  0  0  0  0
  -31.9985  -17.1707   21.7698 C   0  0  0  0  0  0  0  0  0  0  0  0
  -23.8056  -29.7531   25.6278 C   0  0  0  0  0  0  0  0  0  0  0  0
  -29.4895  -22.0493   18.9156 C   0  0  0  0  0  0  0  0  0  0  0  0
  -30.0751  -18.7833   22.0732 C   0  0  1  0  0  0  0  0  0  0  0  0
  -31.2947  -22.0746   20.6416 C   0  0  2  0  0  0  0  0  0  0  0  0
  -31.0549  -17.8225   22.8040 C   0  0  0  0  0  0  0  0  0  0  0  0
  -25.2482  -27.7270   19.7905 N   0  0  0  0  0  0  0  0  0  0  0  0
  -25.9645  -28.8102   20.1364 N   0  0  0  0  0  0  0  0  0  0  0  0
  -27.7981  -18.1519   21.3378 N   0  0  0  0  0  0  0  0  0  0  0  0
  -23.3461  -30.7643   22.1175 N   0  0  0  0  0  0  0  0  0  0  0  0
  -28.1664  -29.6818   20.1854 N   0  0  0  0  0  0  0  0  0  0  0  0
  -28.7148  -25.5650   18.4113 N   0  0  0  0  0  0  0  0  0  0  0  0
  -21.7043  -25.1487   24.3265 N   0  0  0  0  0  0  0  0  0  0  0  0
  -25.8236  -15.1462   20.7350 N   0  0  0  0  0  0  0  0  0  0  0  0
  -30.7315  -19.8409   21.3123 N   0  0  0  0  0  0  0  0  0  0  0  0
  -23.1703  -29.8178   24.3071 N   0  0  0  0  0  0  0  0  0  0  0  0
  -30.3866  -22.8707   19.7684 N   0  3  0  0  0  0  0  0  0  0  0  0
  -29.8082  -27.4729   19.0621 O   0  0  0  0  0  0  0  0  0  0  0  0
  -23.7340  -25.2422   25.5046 O   0  0  0  0  0  0  0  0  0  0  0  0
  -27.1052  -15.9785   22.4920 O   0  0  0  0  0  0  0  0  0  0  0  0
  -29.6795  -17.4380   20.1600 O   0  0  0  0  0  0  0  0  0  0  0  0
  -29.7219  -21.6126   22.4165 O   0  0  0  0  0  0  0  0  0  0  0  0
  -23.5149  -32.0907   24.0042 O   0  0  0  0  0  0  0  0  0  0  0  0
  -24.6922  -21.8361   17.4373 O   0  0  0  0  0  0  0  0  0  0  0  0
  -23.2350  -20.9740   24.3819 O   0  0  0  0  0  0  0  0  0  1  0  0
  -26.8711  -20.1427   12.6635 F   0  0  0  0  0  0  0  0  0  0  0  0
  -23.0766  -21.2202   15.2802 F   0  0  0  0  0  0  0  0  0  0  0  0
  1  2  1  0  0  0  0
  1  6  2  0  0  0  0
  2  7  2  0  0  0  0
  3  9  2  0  0  0  0
  3 10  1  0  0  0  0
  4 11  2  0  0  0  0
  4 19  1  0  0  0  0
  5 12  1  0  0  0  0
  5 19  2  0  0  0  0
  6 21  1  0  0  0  0
  7 23  1  0  0  0  0
  8 13  2  0  0  0  0
  8 22  1  0  0  0  0
  9 25  1  0  0  0  0
 10 26  2  0  0  0  0
 11 27  1  0  0  0  0
 12 27  2  0  0  0  0
 13 28  1  0  0  0  0
 14 15  2  0  0  0  0
 14 29  1  0  0  0  0
 15 30  1  0  0  0  0
 16 24  1  0  0  0  0
 16 28  2  0  0  0  0
 17 25  2  0  0  0  0
 17 26  1  0  0  0  0
 18 30  2  0  0  0  0
 18 31  1  0  0  0  0
 19 32  1  0  0  0  0
 20 32  1  0  0  0  0
 20 33  2  0  0  0  0
 20 35  1  0  0  0  0
 21 23  2  0  0  0  0
 21 42  1  0  0  0  0
 22 24  2  0  0  0  0
 22 43  1  0  0  0  0
 23 51  1  0  0  0  0
 24 44  1  0  0  0  0
 25 70  1  0  0  0  0
 26 73  1  0  0  0  0
 27 81  1  0  0  0  0
 28 82  1  0  0  0  0
 29 31  2  0  0  0  0
 29 81  1  0  0  0  0
 30 83  1  0  0  0  0
 31 84  1  0  0  0  0
 32 64  2  0  0  0  0
 33 65  1  0  0  0  0
 33 68  1  0  0  0  0
 34 36  2  0  0  0  0
 34 82  1  0  0  0  0
 35 69  1  0  0  0  0
 35 75  2  0  0  0  0
 36 37  1  0  0  0  0
 36 54  1  0  0  0  0
 37 70  1  0  0  0  0
 37 76  2  0  0  0  0
 38 52  1  0  0  0  0
 38 71  1  0  0  0  0
 38 77  2  0  0  0  0
 39 61  1  0  0  0  0
 39 66  1  0  0  0  0
 39 78  2  0  0  0  0
 40 62  1  0  0  0  0
 40 72  1  0  0  0  0
 40 79  2  0  0  0  0
 41 67  1  0  0  0  0
 41 73  1  0  0  0  0
 41 80  2  0  0  0  0
 42 45  1  0  0  0  0
 43 52  1  0  0  0  0
 44 66  1  0  0  0  0
 45 47  1  0  0  0  0
 46 48  1  0  0  0  0
 46 49  1  0  0  0  0
 47 51  1  0  0  0  0
 48 53  1  0  0  0  0
 49 67  1  0  0  0  0
 50 53  1  0  0  0  0
 50 67  1  0  0  0  0
 51 71  1  0  0  0  0
 52 66  1  0  0  0  0
 53 65  1  0  0  0  0
 55 62  1  0  0  0  0
 56 63  1  0  0  0  0
 57 63  1  0  0  0  0
 58 63  1  0  0  0  0
 59 73  1  0  0  0  0
 60 74  1  0  0  0  0
 61 63  1  0  0  0  0
 61 72  1  0  0  0  0
 62 74  1  0  0  0  0
 64 65  1  0  0  0  0
M  CHG  1  74   1
M  ISO  4  34 101  41 100  73 100  82 101
M  END
> <Batch ID>
0092

> <Smiles>
CNC(C)C(=O)NC(C(=O)N1Cc2cc([101O:1][101CH:1]=C(C)C(=O)Nc3cccc([100N:0](C)[100C:0](=O)N4CCCC(n5nc(-c6ccc(Oc7ccc(F)cc7F)cc6)c(C(N)=O)c5N)C4)c3)ccc2CC1C(=O)NC1CCCc2ccccc21)C(C)(C)C

> <Shape>
0.208

> <Color>
0.082

> <Negative vol penalty>
0.000

$$$$

  -OEChem-04052300343D

 87 95  0     1  0  0  0  0  0999 V2000
  -25.5936  -32.8947   24.0112 C   0  0  0  0  0  0  0  0  0  0  0  0
  -26.8627  -32.3666   24.2260 C   0  0  0  0  0  0  0  0  0  0  0  0
  -29.2686  -18.6790   19.1706 C   0  0  0  0  0  0  0  0  0  0  0  0
  -23.3279   -9.7817   19.8508 C   0  0  0  0  0  0  0  0  0  0  0  0
  -23.6306   -9.9476   22.2420 C   0  0  0  0  0  0  0  0  0  0  0  0
  -28.9586  -17.6667   18.2624 C   0  0  0  0  0  0  0  0  0  0  0  0
  -24.4668  -32.0940   24.1927 C   0  0  0  0  0  0  0  0  0  0  0  0
  -27.0055  -31.0376   24.6234 C   0  0  0  0  0  0  0  0  0  0  0  0
  -30.8168  -26.3743   20.6714 C   0  0  0  0  0  0  0  0  0  0  0  0
  -30.3902  -19.4821   18.9639 C   0  0  0  0  0  0  0  0  0  0  0  0
  -22.5853   -8.6141   20.0258 C   0  0  0  0  0  0  0  0  0  0  0  0
  -22.8879   -8.7800   22.4170 C   0  0  0  0  0  0  0  0  0  0  0  0
  -31.7039  -25.4743   20.0805 C   0  0  0  0  0  0  0  0  0  0  0  0
  -20.7666   -6.0405   23.5187 C   0  0  0  0  0  0  0  0  0  0  0  0
  -19.8003   -6.0303   24.5246 C   0  0  0  0  0  0  0  0  0  0  0  0
  -31.0579  -23.7744   21.6746 C   0  0  0  0  0  0  0  0  0  0  0  0
  -18.6619   -7.8703   23.4495 C   0  0  0  0  0  0  0  0  0  0  0  0
  -23.8506  -10.4485   20.9589 C   0  0  0  0  0  0  0  0  0  0  0  0
  -29.7704  -17.4574   17.1475 C   0  0  0  0  0  0  0  0  0  0  0  0
  -24.1322  -12.9752   20.7488 C   0  0  0  0  0  0  0  0  0  0  0  0
  -24.5963  -30.7518   24.5832 C   0  0  0  0  0  0  0  0  0  0  0  0
  -30.0347  -25.9725   21.7579 C   0  0  0  0  0  0  0  0  0  0  0  0
  -25.8792  -30.2186   24.8116 C   0  0  0  0  0  0  0  0  0  0  0  0
  -30.1585  -24.6677   22.2628 C   0  0  0  0  0  0  0  0  0  0  0  0
  -31.2020  -19.2728   17.8490 C   0  0  0  0  0  0  0  0  0  0  0  0
  -30.8921  -18.2605   16.9408 C   0  0  0  0  0  0  0  0  0  0  0  0
  -22.3652   -8.1132   21.3089 C   0  0  0  0  0  0  0  0  0  0  0  0
  -31.8243  -24.1776   20.5810 C   0  0  0  0  0  0  0  0  0  0  0  0
  -20.6806   -6.9656   22.4783 C   0  0  0  0  0  0  0  0  0  0  0  0
  -18.7479   -6.9452   24.4900 C   0  0  0  0  0  0  0  0  0  0  0  0
  -19.6282   -7.8805   22.4437 C   0  0  0  0  0  0  0  0  0  0  0  0
  -24.6184  -11.6544   20.7787 C   0  0  0  0  0  0  0  0  0  0  0  0
  -25.2506  -13.7484   20.5544 C   0  0  0  0  0  0  0  0  0  0  0  0
  -29.4117  -16.3721   16.2043 C   0  0  0  0  0  0  0  0  0  0  0  0
  -22.7897  -13.4598   20.8846 C   0  0  0  0  0  0  0  0  0  0  0  0
  -27.4134  -26.9000   24.2767 C   0  0  0  0  0  0  0  0  0  0  0  0
  -26.7949  -24.0389   23.3593 C   0  0  0  0  0  0  0  0  0  0  0  0
  -28.6348  -14.0392   16.1097 C   0  0  0  0  0  0  0  0  0  0  0  0
  -26.2157  -21.0713   21.7796 C   0  0  0  0  0  0  0  0  0  0  0  0
  -30.0672  -14.6967   17.8839 C   0  0  0  0  0  0  0  0  0  0  0  0
  -23.3469  -29.9387   24.8125 C   0  0  0  0  0  0  0  0  0  0  0  0
  -29.1109  -26.9271   22.4644 C   0  0  0  0  0  0  0  0  0  0  0  0
  -29.3223  -24.2902   23.4549 C   0  0  0  0  0  0  0  0  0  0  0  0
  -23.6013  -28.4347   24.8717 C   0  0  0  0  0  0  0  0  0  0  0  0
  -30.1554  -12.5784   20.7588 C   0  0  0  0  0  0  0  0  0  0  0  0
  -24.7974  -28.1304   25.7681 C   0  0  0  0  0  0  0  0  0  0  0  0
  -28.6884  -12.2284   21.0005 C   0  0  0  0  0  0  0  0  0  0  0  0
  -30.4607  -12.6763   19.2687 C   0  0  0  0  0  0  0  0  0  0  0  0
  -28.1164  -13.3172   18.7787 C   0  0  0  0  0  0  0  0  0  0  0  0
  -26.0762  -28.7746   25.2193 C   0  0  1  0  0  0  0  0  0  0  0  0
  -27.8317  -26.2513   22.9900 C   0  0  1  0  0  0  0  0  0  0  0  0
  -27.7622  -13.2179   20.2740 C   0  0  1  0  0  0  0  0  0  0  0  0
  -27.4654  -14.4764   15.2603 C   0  0  0  0  0  0  0  0  0  0  0  0
  -24.6299  -19.1266   21.7606 C   0  0  0  0  0  0  0  0  0  0  0  0
  -28.0857  -22.9660   25.9062 C   0  0  0  0  0  0  0  0  0  0  0  0
  -27.1995  -20.7000   25.3162 C   0  0  0  0  0  0  0  0  0  0  0  0
  -25.6197  -22.5825   25.7447 C   0  0  0  0  0  0  0  0  0  0  0  0
  -25.4310  -21.5895   18.9734 C   0  0  0  0  0  0  0  0  0  0  0  0
  -33.2545  -22.1158   17.9802 C   0  0  0  0  0  0  0  0  0  0  0  0
  -32.9330  -23.4631   18.6006 C   0  0  0  0  0  0  0  0  0  1  0  0
  -26.9751  -22.5631   23.6105 C   0  0  1  0  0  0  0  0  0  0  0  0
  -24.9575  -20.4865   21.1638 C   0  0  2  0  0  0  0  0  0  0  0  0
  -26.9868  -22.2171   25.1263 C   0  0  0  0  0  0  0  0  0  0  0  0
  -25.9425  -11.5885   20.6162 N   0  0  0  0  0  0  0  0  0  0  0  0
  -32.3227  -20.0926   17.6620 N   0  0  0  0  0  0  0  0  0  0  0  0
  -32.1085  -21.2235   18.1509 N   0  0  0  0  0  0  0  0  0  0  0  0
  -26.2979  -12.8777   20.4822 N   0  0  0  0  0  0  0  0  0  0  0  0
  -27.9575  -24.8167   23.2982 N   0  0  0  0  0  0  0  0  0  0  0  0
  -29.5477  -13.6015   18.5966 N   0  0  0  0  0  0  0  0  0  0  0  0
  -31.7170  -18.0491   15.8110 N   0  0  0  0  0  0  0  0  0  0  0  0
  -25.4305  -15.0814   20.4399 N   0  0  0  0  0  0  0  0  0  0  0  0
  -21.7599  -12.5292   21.0788 N   0  0  0  0  0  0  0  0  0  0  0  0
  -26.5960  -28.0019   24.1115 N   0  0  0  0  0  0  0  0  0  0  0  0
  -25.9272  -21.8889   22.8517 N   0  0  0  0  0  0  0  0  0  0  0  0
  -29.3645  -15.0598   16.7246 N   0  0  0  0  0  0  0  0  0  0  0  0
  -25.1278  -20.3252   19.6921 N   0  3  0  0  0  0  0  0  0  0  0  0
  -29.3176  -16.6530   15.0104 O   0  0  0  0  0  0  0  0  0  0  0  0
  -22.5095  -14.6807   20.8189 O   0  0  0  0  0  0  0  0  0  0  0  0
  -27.8018  -26.4350   25.3419 O   0  0  0  0  0  0  0  0  0  0  0  0
  -25.6551  -24.4932   23.2261 O   0  0  0  0  0  0  0  0  0  0  0  0
  -28.9439  -12.8460   16.1610 O   0  0  0  0  0  0  0  0  0  0  0  0
  -27.3422  -20.8244   21.3545 O   0  0  0  0  0  0  0  0  0  0  0  0
  -31.1266  -15.2585   18.1842 O   0  0  0  0  0  0  0  0  0  0  0  0
  -21.6403   -6.9740   21.4800 O   0  0  0  0  0  0  0  0  0  0  0  0
  -32.6950  -23.2966   19.9924 O   0  0  0  0  0  0  0  0  0  1  0  0
  -17.8192   -6.9342   25.4551 F   0  0  0  0  0  0  0  0  0  0  0  0
  -19.5396   -8.7708   21.4461 F   0  0  0  0  0  0  0  0  0  0  0  0
  1  2  1  0  0  0  0
  1  7  2  0  0  0  0
  2  8  2  0  0  0  0
  3  6  1  0  0  0  0
  3 10  2  0  0  0  0
  4 11  2  0  0  0  0
  4 18  1  0  0  0  0
  5 12  1  0  0  0  0
  5 18  2  0  0  0  0
  6 19  2  0  0  0  0
  7 21  1  0  0  0  0
  8 23  1  0  0  0  0
  9 13  2  0  0  0  0
  9 22  1  0  0  0  0
 10 25  1  0  0  0  0
 11 27  1  0  0  0  0
 12 27  2  0  0  0  0
 13 28  1  0  0  0  0
 14 15  2  0  0  0  0
 14 29  1  0  0  0  0
 15 30  1  0  0  0  0
 16 24  1  0  0  0  0
 16 28  2  0  0  0  0
 17 30  2  0  0  0  0
 17 31  1  0  0  0  0
 18 32  1  0  0  0  0
 19 26  1  0  0  0  0
 19 34  1  0  0  0  0
 20 32  1  0  0  0  0
 20 33  2  0  0  0  0
 20 35  1  0  0  0  0
 21 23  2  0  0  0  0
 21 41  1  0  0  0  0
 22 24  2  0  0  0  0
 22 42  1  0  0  0  0
 23 50  1  0  0  0  0
 24 43  1  0  0  0  0
 25 26  2  0  0  0  0
 25 65  1  0  0  0  0
 26 70  1  0  0  0  0
 27 84  1  0  0  0  0
 28 85  1  0  0  0  0
 29 31  2  0  0  0  0
 29 84  1  0  0  0  0
 30 86  1  0  0  0  0
 31 87  1  0  0  0  0
 32 64  2  0  0  0  0
 33 67  1  0  0  0  0
 33 71  1  0  0  0  0
 34 75  1  0  0  0  0
 34 77  2  0  0  0  0
 35 72  1  0  0  0  0
 35 78  2  0  0  0  0
 36 51  1  0  0  0  0
 36 73  1  0  0  0  0
 36 79  2  0  0  0  0
 37 61  1  0  0  0  0
 37 68  1  0  0  0  0
 37 80  2  0  0  0  0
 38 53  1  0  0  0  0
 38 75  1  0  0  0  0
 38 81  2  0  0  0  0
 39 62  1  0  0  0  0
 39 74  1  0  0  0  0
 39 82  2  0  0  0  0
 40 69  1  0  0  0  0
 40 75  1  0  0  0  0
 40 83  2  0  0  0  0
 41 44  1  0  0  0  0
 42 51  1  0  0  0  0
 43 68  1  0  0  0  0
 44 46  1  0  0  0  0
 45 47  1  0  0  0  0
 45 48  1  0  0  0  0
 46 50  1  0  0  0  0
 47 52  1  0  0  0  0
 48 69  1  0  0  0  0
 49 52  1  0  0  0  0
 49 69  1  0  0  0  0
 50 73  1  0  0  0  0
 51 68  1  0  0  0  0
 52 67  1  0  0  0  0
 54 62  1  0  0  0  0
 55 63  1  0  0  0  0
 56 63  1  0  0  0  0
 57 63  1  0  0  0  0
 58 76  1  0  0  0  0
 59 60  1  0  0  0  0
 59 66  1  0  0  0  0
 60 85  1  0  0  0  0
 61 63  1  0  0  0  0
 61 74  1  0  0  0  0
 62 76  1  0  0  0  0
 64 67  1  0  0  0  0
 65 66  2  0  0  0  0
M  CHG  1  76   1
M  ISO  4  40 100  60 101  75 100  85 101
M  END
> <Batch ID>
0092

> <Smiles>
CNC(C)C(=O)NC(C(=O)N1Cc2cc([101O:1][101CH2:1]CN=Nc3cccc(C(=O)[100N:0](C(C)=O)[100C:0](=O)N4CCCC(n5nc(-c6ccc(Oc7ccc(F)cc7F)cc6)c(C(N)=O)c5N)C4)c3N)ccc2CC1C(=O)NC1CCCc2ccccc21)C(C)(C)C

> <Shape>
0.215

> <Color>
0.168

> <Negative vol penalty>
0.000

$$$$

  -OEChem-04052300343D

 89 98  0     1  0  0  0  0  0999 V2000
  -28.3250  -37.2278   22.4316 C   0  0  0  0  0  0  0  0  0  0  0  0
  -28.7311  -35.9855   21.9547 C   0  0  0  0  0  0  0  0  0  0  0  0
  -23.8494   -9.9289   22.3797 C   0  0  0  0  0  0  0  0  0  0  0  0
  -23.0574  -10.1274   20.1058 C   0  0  0  0  0  0  0  0  0  0  0  0
  -27.3156  -37.3094   23.3899 C   0  0  0  0  0  0  0  0  0  0  0  0
  -28.1286  -34.8240   22.4368 C   0  0  0  0  0  0  0  0  0  0  0  0
  -26.9995  -29.6876   19.2987 C   0  0  0  0  0  0  0  0  0  0  0  0
  -22.9171   -8.9188   22.6163 C   0  0  0  0  0  0  0  0  0  0  0  0
  -22.1251   -9.1172   20.3424 C   0  0  0  0  0  0  0  0  0  0  0  0
  -27.6794  -28.4736   19.2105 C   0  0  0  0  0  0  0  0  0  0  0  0
  -22.6022   -5.6165   21.9617 C   0  0  0  0  0  0  0  0  0  0  0  0
  -23.0388   -4.4764   22.6365 C   0  0  0  0  0  0  0  0  0  0  0  0
  -26.2281  -27.5451   20.8990 C   0  0  0  0  0  0  0  0  0  0  0  0
  -30.9520  -24.4200   19.3598 C   0  0  0  0  0  0  0  0  0  0  0  0
  -28.6391  -20.6257   17.8649 C   0  0  0  0  0  0  0  0  0  0  0  0
  -21.4270   -4.8952   24.3869 C   0  0  0  0  0  0  0  0  0  0  0  0
  -23.9196  -10.5333   21.1245 C   0  0  0  0  0  0  0  0  0  0  0  0
  -26.1995  -11.4251   20.4073 C   0  0  0  0  0  0  0  0  0  0  0  0
  -26.6938  -36.1488   23.8768 C   0  0  0  0  0  0  0  0  0  0  0  0
  -25.9340  -29.8431   20.1970 C   0  0  0  0  0  0  0  0  0  0  0  0
  -27.1109  -34.8901   23.4035 C   0  0  0  0  0  0  0  0  0  0  0  0
  -25.5347  -28.7613   20.9948 C   0  0  0  0  0  0  0  0  0  0  0  0
  -29.6150  -24.7559   19.0330 C   0  0  0  0  0  0  0  0  0  0  0  0
  -28.6500  -19.2044   17.9642 C   0  0  0  0  0  0  0  0  0  0  0  0
  -22.0549   -8.5129   21.5977 C   0  0  0  0  0  0  0  0  0  0  0  0
  -27.2956  -27.4030   20.0128 C   0  0  0  0  0  0  0  0  0  0  0  0
  -21.5781   -6.3960   22.4996 C   0  0  0  0  0  0  0  0  0  0  0  0
  -22.4512   -4.1158   23.8490 C   0  0  0  0  0  0  0  0  0  0  0  0
  -20.9905   -6.0353   23.7121 C   0  0  0  0  0  0  0  0  0  0  0  0
  -24.8821  -11.5772   20.8796 C   0  0  0  0  0  0  0  0  0  0  0  0
  -29.5739  -18.7569   18.8827 C   0  0  0  0  0  0  0  0  0  0  0  0
  -28.9518  -23.5810   18.7556 C   0  0  0  0  0  0  0  0  0  0  0  0
  -26.6924  -12.7056   20.3465 C   0  0  0  0  0  0  0  0  0  0  0  0
  -31.0651  -23.0500   19.2721 C   0  0  0  0  0  0  0  0  0  0  0  0
  -29.5551  -21.2105   18.7117 C   0  0  0  0  0  0  0  0  0  0  0  0
  -31.0813  -17.0133   19.7211 C   0  0  0  0  0  0  0  0  0  0  0  0
  -29.8820  -17.4327   19.2653 C   0  0  0  0  0  0  0  0  0  0  0  0
  -26.9137  -10.2329   20.0550 C   0  0  0  0  0  0  0  0  0  0  0  0
  -25.3754  -31.7017   22.7143 C   0  0  0  0  0  0  0  0  0  0  0  0
  -22.4315  -30.3468   22.5712 C   0  0  0  0  0  0  0  0  0  0  0  0
  -20.4985  -27.7153   21.5786 C   0  0  0  0  0  0  0  0  0  0  0  0
  -26.1030  -18.0883   18.9959 C   0  0  0  0  0  0  0  0  0  0  0  0
  -25.6400  -36.2845   24.9472 C   0  0  0  0  0  0  0  0  0  0  0  0
  -25.1936  -31.1508   20.2609 C   0  0  0  0  0  0  0  0  0  0  0  0
  -24.3842  -28.8704   21.9607 C   0  0  0  0  0  0  0  0  0  0  0  0
  -24.7934  -35.0276   25.1312 C   0  0  0  0  0  0  0  0  0  0  0  0
  -24.8168  -17.0444   22.1475 C   0  0  0  0  0  0  0  0  0  0  0  0
  -25.6821  -33.7893   25.1902 C   0  0  0  0  0  0  0  0  0  0  0  0
  -24.8220  -15.5174   22.0570 C   0  0  0  0  0  0  0  0  0  0  0  0
  -24.4628  -17.6878   20.8086 C   0  0  0  0  0  0  0  0  0  0  0  0
  -25.2977  -15.7207   19.5809 C   0  0  0  0  0  0  0  0  0  0  0  0
  -26.4644  -33.6089   23.8837 C   0  0  1  0  0  0  0  0  0  0  0  0
  -24.4538  -31.3548   21.5794 C   0  0  1  0  0  0  0  0  0  0  0  0
  -25.7040  -15.0277   20.8927 C   0  0  2  0  0  0  0  0  0  0  0  0
  -27.5412  -23.3639   18.3618 C   0  0  0  0  0  0  0  0  0  0  0  0
  -18.1345  -26.8753   21.6364 C   0  0  0  0  0  0  0  0  0  0  0  0
  -28.4728  -17.3036   16.2252 C   0  0  0  0  0  0  0  0  0  0  0  0
  -26.8282  -19.1749   16.2464 C   0  0  0  0  0  0  0  0  0  0  0  0
  -22.7759  -29.5870   25.5062 C   0  0  0  0  0  0  0  0  0  0  0  0
  -20.8786  -27.9754   25.2394 C   0  0  0  0  0  0  0  0  0  0  0  0
  -20.4949  -30.4173   24.9042 C   0  0  0  0  0  0  0  0  0  0  0  0
  -20.3107  -27.6952   18.6251 C   0  0  0  0  0  0  0  0  0  0  0  0
  -29.0365  -26.1399   18.9981 C   0  0  0  0  0  0  0  0  0  1  0  0
  -21.7909  -29.1163   23.1664 C   0  0  1  0  0  0  0  0  0  0  0  0
  -19.1696  -27.6612   20.8467 C   0  0  2  0  0  0  0  0  0  0  0  0
  -27.7597  -18.3275   17.1636 C   0  0  0  0  0  0  0  0  0  0  0  0
  -21.5080  -29.2722   24.6873 C   0  0  0  0  0  0  0  0  0  0  0  0
  -24.5586  -12.8537   21.1032 N   0  0  0  0  0  0  0  0  0  0  0  0
  -29.8432  -22.5506   18.9038 N   0  0  0  0  0  0  0  0  0  0  0  0
  -25.6799  -13.5153   20.7699 N   0  0  0  0  0  0  0  0  0  0  0  0
  -23.6959  -30.1715   21.9912 N   0  0  0  0  0  0  0  0  0  0  0  0
  -25.3368  -17.1821   19.7473 N   0  0  0  0  0  0  0  0  0  0  0  0
  -27.8889  -13.2067   19.9727 N   0  0  0  0  0  0  0  0  0  0  0  0
  -26.2577   -9.0003   20.1767 N   0  0  0  0  0  0  0  0  0  0  0  0
  -25.6096  -33.0563   22.8550 N   0  0  0  0  0  0  0  0  0  0  0  0
  -20.6041  -28.8446   22.3627 N   0  0  0  0  0  0  0  0  0  0  0  0
  -26.9090  -17.5252   18.0141 N   0  0  0  0  0  0  0  0  0  0  0  0
  -19.3374  -27.0122   19.5157 N   0  3  0  0  0  0  0  0  0  0  0  0
  -28.1041  -10.2584   19.6600 O   0  0  0  0  0  0  0  0  0  0  0  0
  -25.8384  -30.8068   23.4118 O   0  0  0  0  0  0  0  0  0  0  0  0
  -21.8291  -31.4224   22.6128 O   0  0  0  0  0  0  0  0  0  0  0  0
  -21.3555  -26.8412   21.4688 O   0  0  0  0  0  0  0  0  0  0  0  0
  -26.0752  -19.3085   19.1894 O   0  0  0  0  0  0  0  0  0  0  0  0
  -32.1096  -22.2578   19.4819 O   0  0  0  0  0  0  0  0  0  0  0  0
  -21.1452   -7.5271   21.8281 O   0  0  0  0  0  0  0  0  0  0  0  0
  -27.9579  -26.2172   19.9292 O   0  0  0  0  0  0  0  0  0  1  0  0
  -22.8694   -3.0201   24.4961 F   0  0  0  0  0  0  0  0  0  0  0  0
  -20.0054   -6.7796   24.2332 F   0  0  0  0  0  0  0  0  0  0  0  0
  -30.4231  -20.0478   19.6209 S   0  0  0  0  0  0  0  0  0  0  0  0
  1  2  1  0  0  0  0
  1  5  2  0  0  0  0
  2  6  2  0  0  0  0
  3  8  2  0  0  0  0
  3 17  1  0  0  0  0
  4  9  1  0  0  0  0
  4 17  2  0  0  0  0
  5 19  1  0  0  0  0
  6 21  1  0  0  0  0
  7 10  2  0  0  0  0
  7 20  1  0  0  0  0
  8 25  1  0  0  0  0
  9 25  2  0  0  0  0
 10 26  1  0  0  0  0
 11 12  2  0  0  0  0
 11 27  1  0  0  0  0
 12 28  1  0  0  0  0
 13 22  1  0  0  0  0
 13 26  2  0  0  0  0
 14 23  1  0  0  0  0
 14 34  2  0  0  0  0
 15 24  1  0  0  0  0
 15 35  2  0  0  0  0
 16 28  2  0  0  0  0
 16 29  1  0  0  0  0
 17 30  1  0  0  0  0
 18 30  1  0  0  0  0
 18 33  2  0  0  0  0
 18 38  1  0  0  0  0
 19 21  2  0  0  0  0
 19 43  1  0  0  0  0
 20 22  2  0  0  0  0
 20 44  1  0  0  0  0
 21 52  1  0  0  0  0
 22 45  1  0  0  0  0
 23 32  2  0  0  0  0
 23 63  1  0  0  0  0
 24 31  2  0  0  0  0
 24 66  1  0  0  0  0
 25 85  1  0  0  0  0
 26 86  1  0  0  0  0
 27 29  2  0  0  0  0
 27 85  1  0  0  0  0
 28 87  1  0  0  0  0
 29 88  1  0  0  0  0
 30 68  2  0  0  0  0
 31 37  1  0  0  0  0
 31 89  1  0  0  0  0
 32 55  1  0  0  0  0
 32 69  1  0  0  0  0
 33 70  1  0  0  0  0
 33 73  1  0  0  0  0
 34 69  1  0  0  0  0
 34 84  1  0  0  0  0
 35 69  1  0  0  0  0
 35 89  1  0  0  0  0
 36 37  2  0  0  0  0
 38 74  1  0  0  0  0
 38 79  2  0  0  0  0
 39 53  1  0  0  0  0
 39 75  1  0  0  0  0
 39 80  2  0  0  0  0
 40 64  1  0  0  0  0
 40 71  1  0  0  0  0
 40 81  2  0  0  0  0
 41 65  1  0  0  0  0
 41 76  1  0  0  0  0
 41 82  2  0  0  0  0
 42 72  1  0  0  0  0
 42 77  1  0  0  0  0
 42 83  2  0  0  0  0
 43 46  1  0  0  0  0
 44 53  1  0  0  0  0
 45 71  1  0  0  0  0
 46 48  1  0  0  0  0
 47 49  1  0  0  0  0
 47 50  1  0  0  0  0
 48 52  1  0  0  0  0
 49 54  1  0  0  0  0
 50 72  1  0  0  0  0
 51 54  1  0  0  0  0
 51 72  1  0  0  0  0
 52 75  1  0  0  0  0
 53 71  1  0  0  0  0
 54 70  1  0  0  0  0
 56 65  1  0  0  0  0
 57 66  1  0  0  0  0
 58 66  1  0  0  0  0
 59 67  1  0  0  0  0
 60 67  1  0  0  0  0
 61 67  1  0  0  0  0
 62 78  1  0  0  0  0
 63 86  1  0  0  0  0
 64 67  1  0  0  0  0
 64 76  1  0  0  0  0
 65 78  1  0  0  0  0
 66 77  1  0  0  0  0
 68 70  1  0  0  0  0
M  CHG  1  78   1
M  ISO  4  42 100  63 101  77 100  86 101
M  END
> <Batch ID>
0092

> <Smiles>
C=Cc1sc(N2C(=O)CC([101CH2:1][101O:1]c3ccc4c(c3)CN(C(=O)C(NC(=O)C(C)NC)C(C)(C)C)C(C(=O)NC3CCCc5ccccc53)C4)=C2C)cc1C(C)(C)[100NH:0][100C:0](=O)N1CCCC(n2nc(-c3ccc(Oc4ccc(F)cc4F)cc3)c(C(N)=O)c2N)C1

> <Shape>
0.366

> <Color>
0.105

> <Negative vol penalty>
0.000

$$$$

  -OEChem-04052300343D

 88 97  0     1  0  0  0  0  0999 V2000
  -29.1403  -32.9511   25.3260 C   0  0  0  0  0  0  0  0  0  0  0  0
  -28.9947  -31.7167   24.7010 C   0  0  0  0  0  0  0  0  0  0  0  0
  -23.2475  -10.3820   20.8280 C   0  0  0  0  0  0  0  0  0  0  0  0
  -24.7661   -8.8651   21.9369 C   0  0  0  0  0  0  0  0  0  0  0  0
  -28.0208  -33.6136   25.8275 C   0  0  0  0  0  0  0  0  0  0  0  0
  -27.7294  -31.1436   24.5783 C   0  0  0  0  0  0  0  0  0  0  0  0
  -26.8979  -29.2414   19.9593 C   0  0  0  0  0  0  0  0  0  0  0  0
  -22.2678   -9.3893   20.8116 C   0  0  0  0  0  0  0  0  0  0  0  0
  -23.7864   -7.8724   21.9206 C   0  0  0  0  0  0  0  0  0  0  0  0
  -27.4773  -28.0079   19.6649 C   0  0  0  0  0  0  0  0  0  0  0  0
  -21.0091   -7.0869   23.6786 C   0  0  0  0  0  0  0  0  0  0  0  0
  -20.8118   -6.3540   24.8488 C   0  0  0  0  0  0  0  0  0  0  0  0
  -25.3654  -26.9218   20.0884 C   0  0  0  0  0  0  0  0  0  0  0  0
  -28.2665  -20.1578   18.9914 C   0  0  0  0  0  0  0  0  0  0  0  0
  -29.4359  -18.4692   17.1037 C   0  0  0  0  0  0  0  0  0  0  0  0
  -21.3665   -4.3202   23.6686 C   0  0  0  0  0  0  0  0  0  0  0  0
  -24.4967  -10.1199   21.3905 C   0  0  0  0  0  0  0  0  0  0  0  0
  -25.7322  -12.1034   22.4138 C   0  0  0  0  0  0  0  0  0  0  0  0
  -26.7400  -33.0528   25.7023 C   0  0  0  0  0  0  0  0  0  0  0  0
  -25.5485  -29.3232   20.3317 C   0  0  0  0  0  0  0  0  0  0  0  0
  -26.5918  -31.7986   25.0799 C   0  0  0  0  0  0  0  0  0  0  0  0
  -24.7707  -28.1578   20.3846 C   0  0  0  0  0  0  0  0  0  0  0  0
  -28.7119  -20.6743   17.7747 C   0  0  0  0  0  0  0  0  0  0  0  0
  -28.9906  -17.9527   18.3204 C   0  0  0  0  0  0  0  0  0  0  0  0
  -22.5372   -8.1345   21.3580 C   0  0  0  0  0  0  0  0  0  0  0  0
  -26.7117  -26.8475   19.7323 C   0  0  0  0  0  0  0  0  0  0  0  0
  -21.3851   -6.4365   22.5033 C   0  0  0  0  0  0  0  0  0  0  0  0
  -29.2965  -19.8301   16.8308 C   0  0  0  0  0  0  0  0  0  0  0  0
  -20.9905   -4.9707   24.8438 C   0  0  0  0  0  0  0  0  0  0  0  0
  -28.4059  -18.7970   19.2644 C   0  0  0  0  0  0  0  0  0  0  0  0
  -21.5638   -5.0531   22.4983 C   0  0  0  0  0  0  0  0  0  0  0  0
  -25.5093  -11.1448   21.4072 C   0  0  0  0  0  0  0  0  0  0  0  0
  -26.7997  -12.8378   21.9582 C   0  0  0  0  0  0  0  0  0  0  0  0
  -28.2846  -24.0532   16.4988 C   0  0  0  0  0  0  0  0  0  0  0  0
  -28.3914  -24.3252   17.8012 C   0  0  0  0  0  0  0  0  0  0  0  0
  -28.5762  -23.0318   18.5006 C   0  0  0  0  0  0  0  0  0  0  0  0
  -25.0364  -12.3114   23.6500 C   0  0  0  0  0  0  0  0  0  0  0  0
  -23.9931  -30.2897   22.9299 C   0  0  0  0  0  0  0  0  0  0  0  0
  -21.3784  -29.7825   21.0782 C   0  0  0  0  0  0  0  0  0  0  0  0
  -19.9833  -28.1675   18.4151 C   0  0  0  0  0  0  0  0  0  0  0  0
  -29.1127  -15.5843   17.5649 C   0  0  0  0  0  0  0  0  0  0  0  0
  -25.5654  -33.7844   26.3022 C   0  0  0  0  0  0  0  0  0  0  0  0
  -24.9317  -30.6644   20.6202 C   0  0  0  0  0  0  0  0  0  0  0  0
  -23.3124  -28.1939   20.7594 C   0  0  0  0  0  0  0  0  0  0  0  0
  -28.3827  -22.6017   16.1996 C   0  0  0  0  0  0  0  0  0  0  0  0
  -24.2141  -33.2834   25.7987 C   0  0  0  0  0  0  0  0  0  0  0  0
  -29.9661  -12.0365   18.1078 C   0  0  0  0  0  0  0  0  0  0  0  0
  -24.1657  -31.7591   25.8270 C   0  0  0  0  0  0  0  0  0  0  0  0
  -28.8582  -11.5594   19.0454 C   0  0  0  0  0  0  0  0  0  0  0  0
  -29.4908  -13.1640   17.1963 C   0  0  0  0  0  0  0  0  0  0  0  0
  -27.7964  -13.8456   18.8680 C   0  0  0  0  0  0  0  0  0  0  0  0
  -25.2328  -31.1560   24.9055 C   0  0  1  0  0  0  0  0  0  0  0  0
  -23.6801  -30.5723   21.4877 C   0  0  1  0  0  0  0  0  0  0  0  0
  -28.2568  -12.7390   19.8289 C   0  0  1  0  0  0  0  0  0  0  0  0
  -17.8172  -27.9275   17.1711 C   0  0  0  0  0  0  0  0  0  0  0  0
  -20.2935  -28.0116   23.3136 C   0  0  0  0  0  0  0  0  0  0  0  0
  -18.6498  -27.0710   21.6760 C   0  0  0  0  0  0  0  0  0  0  0  0
  -18.5924  -29.4996   22.2429 C   0  0  0  0  0  0  0  0  0  0  0  0
  -29.5526  -16.1368   19.9462 C   0  0  0  0  0  0  0  0  0  0  0  0
  -21.1744  -29.1977   15.9094 C   0  0  0  0  0  0  0  0  0  0  0  0
  -30.3221  -19.3777   14.7333 C   0  0  0  0  0  0  0  0  0  0  0  0
  -28.3461  -25.6332   18.5033 C   0  0  0  0  0  0  0  0  0  1  0  0
  -20.4720  -28.6060   20.8075 C   0  0  1  0  0  0  0  0  0  0  0  0
  -19.1393  -28.6738   17.2594 C   0  0  2  0  0  0  0  0  0  0  0  0
  -19.5299  -28.2958   22.0048 C   0  0  0  0  0  0  0  0  0  0  0  0
  -26.3663  -11.2576   20.3889 N   0  0  0  0  0  0  0  0  0  0  0  0
  -27.1380  -12.2958   20.7533 N   0  0  0  0  0  0  0  0  0  0  0  0
  -28.5658  -22.0320   17.5177 N   0  0  0  0  0  0  0  0  0  0  0  0
  -22.7567  -29.5284   21.0386 N   0  0  0  0  0  0  0  0  0  0  0  0
  -28.8823  -14.2521   17.9627 N   0  0  0  0  0  0  0  0  0  0  0  0
  -27.4726  -13.8880   22.4748 N   0  0  0  0  0  0  0  0  0  0  0  0
  -23.9629  -11.4665   23.9629 N   0  0  0  0  0  0  0  0  0  0  0  0
  -24.8096  -31.2332   23.5237 N   0  0  0  0  0  0  0  0  0  0  0  0
  -19.7755  -28.9057   19.5611 N   0  0  0  0  0  0  0  0  0  0  0  0
  -29.1360  -16.5437   18.6002 N   0  0  0  0  0  0  0  0  0  0  0  0
  -19.8661  -28.4965   15.9705 N   0  3  0  0  0  0  0  0  0  0  0  0
  -28.7081  -22.9139   19.7083 O   0  0  0  0  0  0  0  0  0  0  0  0
  -25.3469  -13.2300   24.4459 O   0  0  0  0  0  0  0  0  0  0  0  0
  -23.5270  -29.2905   23.4646 O   0  0  0  0  0  0  0  0  0  0  0  0
  -20.8819  -30.8879   21.3091 O   0  0  0  0  0  0  0  0  0  0  0  0
  -20.7474  -27.2104   18.3127 O   0  0  0  0  0  0  0  0  0  0  0  0
  -29.3114  -15.8870   16.3822 O   0  0  0  0  0  0  0  0  0  0  0  0
  -21.5813   -7.1656   21.3425 O   0  0  0  0  0  0  0  0  0  0  0  0
  -29.7382  -20.3146   15.6359 O   0  0  0  0  0  0  0  0  0  0  0  0
  -27.2749  -25.6422   19.4461 O   0  0  0  0  0  0  0  0  0  1  0  0
  -20.8025   -4.2672   25.9681 F   0  0  0  0  0  0  0  0  0  0  0  0
  -27.9747  -18.3119   20.4374 F   0  0  0  0  0  0  0  0  0  0  0  0
  -21.9261   -4.4228   21.3725 F   0  0  0  0  0  0  0  0  0  0  0  0
  1  2  1  0  0  0  0
  1  5  2  0  0  0  0
  2  6  2  0  0  0  0
  3  8  2  0  0  0  0
  3 17  1  0  0  0  0
  4  9  1  0  0  0  0
  4 17  2  0  0  0  0
  5 19  1  0  0  0  0
  6 21  1  0  0  0  0
  7 10  2  0  0  0  0
  7 20  1  0  0  0  0
  8 25  1  0  0  0  0
  9 25  2  0  0  0  0
 10 26  1  0  0  0  0
 11 12  2  0  0  0  0
 11 27  1  0  0  0  0
 12 29  1  0  0  0  0
 13 22  1  0  0  0  0
 13 26  2  0  0  0  0
 14 23  1  0  0  0  0
 14 30  2  0  0  0  0
 15 24  2  0  0  0  0
 15 28  1  0  0  0  0
 16 29  2  0  0  0  0
 16 31  1  0  0  0  0
 17 32  1  0  0  0  0
 18 32  1  0  0  0  0
 18 33  2  0  0  0  0
 18 37  1  0  0  0  0
 19 21  2  0  0  0  0
 19 42  1  0  0  0  0
 20 22  2  0  0  0  0
 20 43  1  0  0  0  0
 21 52  1  0  0  0  0
 22 44  1  0  0  0  0
 23 28  2  0  0  0  0
 23 68  1  0  0  0  0
 24 30  1  0  0  0  0
 24 75  1  0  0  0  0
 25 83  1  0  0  0  0
 26 85  1  0  0  0  0
 27 31  2  0  0  0  0
 27 83  1  0  0  0  0
 28 84  1  0  0  0  0
 29 86  1  0  0  0  0
 30 87  1  0  0  0  0
 31 88  1  0  0  0  0
 32 66  2  0  0  0  0
 33 67  1  0  0  0  0
 33 71  1  0  0  0  0
 34 35  2  0  0  0  0
 34 45  1  0  0  0  0
 35 36  1  0  0  0  0
 35 62  1  0  0  0  0
 36 68  1  0  0  0  0
 36 77  2  0  0  0  0
 37 72  1  0  0  0  0
 37 78  2  0  0  0  0
 38 53  1  0  0  0  0
 38 73  1  0  0  0  0
 38 79  2  0  0  0  0
 39 63  1  0  0  0  0
 39 69  1  0  0  0  0
 39 80  2  0  0  0  0
 40 64  1  0  0  0  0
 40 74  1  0  0  0  0
 40 81  2  0  0  0  0
 41 70  1  0  0  0  0
 41 75  1  0  0  0  0
 41 82  2  0  0  0  0
 42 46  1  0  0  0  0
 43 53  1  0  0  0  0
 44 69  1  0  0  0  0
 45 68  1  0  0  0  0
 46 48  1  0  0  0  0
 47 49  1  0  0  0  0
 47 50  1  0  0  0  0
 48 52  1  0  0  0  0
 49 54  1  0  0  0  0
 50 70  1  0  0  0  0
 51 54  1  0  0  0  0
 51 70  1  0  0  0  0
 52 73  1  0  0  0  0
 53 69  1  0  0  0  0
 54 67  1  0  0  0  0
 55 64  1  0  0  0  0
 56 65  1  0  0  0  0
 57 65  1  0  0  0  0
 58 65  1  0  0  0  0
 59 75  1  0  0  0  0
 60 76  1  0  0  0  0
 61 84  1  0  0  0  0
 62 85  1  0  0  0  0
 63 65  1  0  0  0  0
 63 74  1  0  0  0  0
 64 76  1  0  0  0  0
 66 67  1  0  0  0  0
M  CHG  1  76   1
M  ISO  4  41 100  62 101  75 100  85 101
M  END
> <Batch ID>
0092

> <Smiles>
CNC(C)C(=O)NC(C(=O)N1Cc2cc([101O:1][101CH2:1]C3=CCN(c4cc(F)c([100N:0](C)[100C:0](=O)N5CCCC(n6nc(-c7ccc(Oc8ccc(F)cc8F)cc7)c(C(N)=O)c6N)C5)cc4OC)C3=O)ccc2CC1C(=O)NC1CCCc2ccccc21)C(C)(C)C

> <Shape>
0.354

> <Color>
0.123

> <Negative vol penalty>
0.000

$$$$

  -OEChem-04052300343D

 85 94  0     1  0  0  0  0  0999 V2000
  -26.5984  -37.9543   18.2409 C   0  0  0  0  0  0  0  0  0  0  0  0
  -27.1516  -36.7149   17.9358 C   0  0  0  0  0  0  0  0  0  0  0  0
  -23.1354  -10.0859   20.5122 C   0  0  0  0  0  0  0  0  0  0  0  0
  -24.7756   -8.5455   21.3919 C   0  0  0  0  0  0  0  0  0  0  0  0
  -25.9644  -38.1506   19.4671 C   0  0  0  0  0  0  0  0  0  0  0  0
  -27.0722  -35.6713   18.8572 C   0  0  0  0  0  0  0  0  0  0  0  0
  -28.0095  -19.4265   22.6988 C   0  0  0  0  0  0  0  0  0  0  0  0
  -26.4836  -28.5391   19.1774 C   0  0  0  0  0  0  0  0  0  0  0  0
  -27.9230  -20.7759   22.3495 C   0  0  0  0  0  0  0  0  0  0  0  0
  -22.1951   -9.6051   21.4234 C   0  0  0  0  0  0  0  0  0  0  0  0
  -23.8354   -8.0648   22.3032 C   0  0  0  0  0  0  0  0  0  0  0  0
  -27.0988  -27.4328   19.7617 C   0  0  0  0  0  0  0  0  0  0  0  0
  -21.7630   -6.1810   24.6198 C   0  0  0  0  0  0  0  0  0  0  0  0
  -21.6661   -4.7991   24.7831 C   0  0  0  0  0  0  0  0  0  0  0  0
  -28.5775  -20.2733   20.0601 C   0  0  0  0  0  0  0  0  0  0  0  0
  -25.9103  -27.8644   21.8160 C   0  0  0  0  0  0  0  0  0  0  0  0
  -21.1042   -4.5622   22.4453 C   0  0  0  0  0  0  0  0  0  0  0  0
  -24.4256   -9.5560   20.4963 C   0  0  0  0  0  0  0  0  0  0  0  0
  -25.3067  -10.0322   18.1501 C   0  0  0  0  0  0  0  0  0  0  0  0
  -25.8687  -37.1061   20.4001 C   0  0  0  0  0  0  0  0  0  0  0  0
  -28.3913  -18.5200   21.7243 C   0  0  0  0  0  0  0  0  0  0  0  0
  -25.5839  -29.3241   19.9128 C   0  0  0  0  0  0  0  0  0  0  0  0
  -26.4376  -35.8542   20.0976 C   0  0  0  0  0  0  0  0  0  0  0  0
  -28.6725  -18.9392   20.4181 C   0  0  0  0  0  0  0  0  0  0  0  0
  -25.2831  -28.9787   21.2380 C   0  0  0  0  0  0  0  0  0  0  0  0
  -28.2051  -21.1962   21.0399 C   0  0  0  0  0  0  0  0  0  0  0  0
  -22.5451   -8.5946   22.3190 C   0  0  0  0  0  0  0  0  0  0  0  0
  -26.8143  -27.0969   21.0820 C   0  0  0  0  0  0  0  0  0  0  0  0
  -21.5305   -6.7535   23.3692 C   0  0  0  0  0  0  0  0  0  0  0  0
  -21.3367   -3.9897   23.6959 C   0  0  0  0  0  0  0  0  0  0  0  0
  -21.2012   -5.9441   22.2820 C   0  0  0  0  0  0  0  0  0  0  0  0
  -25.3972  -10.0518   19.5549 C   0  0  0  0  0  0  0  0  0  0  0  0
  -26.4743  -10.6156   17.7227 C   0  0  0  0  0  0  0  0  0  0  0  0
  -24.2606   -9.5315   17.3071 C   0  0  0  0  0  0  0  0  0  0  0  0
  -25.5045  -32.3596   20.8526 C   0  0  0  0  0  0  0  0  0  0  0  0
  -22.5324  -31.5584   21.8759 C   0  0  0  0  0  0  0  0  0  0  0  0
  -27.7463  -23.6182   21.5470 C   0  0  0  0  0  0  0  0  0  0  0  0
  -20.3760  -29.1118   22.8815 C   0  0  0  0  0  0  0  0  0  0  0  0
  -30.2503  -14.4691   20.0827 C   0  0  0  0  0  0  0  0  0  0  0  0
  -25.2154  -37.3797   21.7316 C   0  0  0  0  0  0  0  0  0  0  0  0
  -24.9084  -30.4987   19.2596 C   0  0  0  0  0  0  0  0  0  0  0  0
  -28.5158  -17.0327   21.8473 C   0  0  0  0  0  0  0  0  0  0  0  0
  -29.0114  -17.7719   19.5430 C   0  0  0  0  0  0  0  0  0  0  0  0
  -24.3090  -29.7770   22.0640 C   0  0  0  0  0  0  0  0  0  0  0  0
  -24.8451  -36.1137   22.5000 C   0  0  0  0  0  0  0  0  0  0  0  0
  -31.0303  -11.2692   18.9970 C   0  0  0  0  0  0  0  0  0  0  0  0
  -26.0065  -35.1248   22.4909 C   0  0  0  0  0  0  0  0  0  0  0  0
  -29.6718  -10.5797   18.8794 C   0  0  0  0  0  0  0  0  0  0  0  0
  -31.0898  -12.1461   20.2421 C   0  0  0  0  0  0  0  0  0  0  0  0
  -28.6428  -12.5067   20.1851 C   0  0  0  0  0  0  0  0  0  0  0  0
  -26.3500  -34.6904   21.0609 C   0  0  1  0  0  0  0  0  0  0  0  0
  -24.3997  -31.5292   20.2629 C   0  0  1  0  0  0  0  0  0  0  0  0
  -28.5262  -11.6052   18.9388 C   0  0  2  0  0  0  0  0  0  0  0  0
  -29.3591  -16.7085   20.6010 C   0  0  2  0  0  0  0  0  0  0  0  0
  -18.0258  -28.7682   23.6911 C   0  0  0  0  0  0  0  0  0  0  0  0
  -23.3227  -32.6351   24.6192 C   0  0  0  0  0  0  0  0  0  0  0  0
  -21.3539  -31.4260   25.5837 C   0  0  0  0  0  0  0  0  0  0  0  0
  -21.0036  -33.2277   23.8944 C   0  0  0  0  0  0  0  0  0  0  0  0
  -27.7629  -14.9274   19.9956 C   0  0  0  0  0  0  0  0  0  0  0  0
  -19.7107  -27.3816   20.5744 C   0  0  0  0  0  0  0  0  0  0  0  0
  -27.7627  -24.9352   20.7934 C   0  0  0  0  0  0  0  0  0  1  0  0
  -21.9556  -31.0049   23.1565 C   0  0  1  0  0  0  0  0  0  0  0  0
  -18.9449  -28.8031   22.4801 C   0  0  2  0  0  0  0  0  0  0  0  0
  -21.9288  -32.0593   24.2988 C   0  0  0  0  0  0  0  0  0  0  0  0
  -26.5327  -10.6038   19.9908 N   0  0  0  0  0  0  0  0  0  0  0  0
  -27.1664  -10.9364   18.8533 N   0  0  0  0  0  0  0  0  0  0  0  0
  -23.6792  -30.9201   21.3827 N   0  0  0  0  0  0  0  0  0  0  0  0
  -29.9844  -13.1043   20.2683 N   0  0  0  0  0  0  0  0  0  0  0  0
  -26.9663  -10.8804   16.4937 N   0  0  0  0  0  0  0  0  0  0  0  0
  -24.3179   -8.1933   16.8945 N   0  0  0  0  0  0  0  0  0  0  0  0
  -28.1050  -22.5683   20.7085 N   0  0  0  0  0  0  0  0  0  0  0  0
  -25.3954  -33.7113   20.5870 N   0  0  0  0  0  0  0  0  0  0  0  0
  -20.6456  -30.4623   22.8132 N   0  0  0  0  0  0  0  0  0  0  0  0
  -29.1569  -15.3473   20.1253 N   0  0  0  0  0  0  0  0  0  0  0  0
  -18.8724  -27.4806   21.7968 N   0  3  0  0  0  0  0  0  0  0  0  0
  -23.3121  -10.2540   16.9174 O   0  0  0  0  0  0  0  0  0  0  0  0
  -26.3894  -31.8145   21.5018 O   0  0  0  0  0  0  0  0  0  0  0  0
  -21.9813  -32.5172   21.3293 O   0  0  0  0  0  0  0  0  0  0  0  0
  -27.4469  -23.5616   22.7352 O   0  0  0  0  0  0  0  0  0  0  0  0
  -21.1738  -28.2423   23.2251 O   0  0  0  0  0  0  0  0  0  0  0  0
  -31.4021  -14.8825   19.8968 O   0  0  0  0  0  0  0  0  0  0  0  0
  -21.6280   -8.1254   23.2085 O   0  0  0  0  0  0  0  0  0  0  0  0
  -27.4139  -26.0180   21.6549 O   0  0  0  0  0  0  0  0  0  1  0  0
  -21.2451   -2.6626   23.8526 F   0  0  0  0  0  0  0  0  0  0  0  0
  -20.9779   -6.4882   21.0779 F   0  0  0  0  0  0  0  0  0  0  0  0
  1  2  1  0  0  0  0
  1  5  2  0  0  0  0
  2  6  2  0  0  0  0
  3 10  2  0  0  0  0
  3 18  1  0  0  0  0
  4 11  1  0  0  0  0
  4 18  2  0  0  0  0
  5 20  1  0  0  0  0
  6 23  1  0  0  0  0
  7  9  2  0  0  0  0
  7 21  1  0  0  0  0
  8 12  2  0  0  0  0
  8 22  1  0  0  0  0
  9 26  1  0  0  0  0
 10 27  1  0  0  0  0
 11 27  2  0  0  0  0
 12 28  1  0  0  0  0
 13 14  2  0  0  0  0
 13 29  1  0  0  0  0
 14 30  1  0  0  0  0
 15 24  1  0  0  0  0
 15 26  2  0  0  0  0
 16 25  1  0  0  0  0
 16 28  2  0  0  0  0
 17 30  2  0  0  0  0
 17 31  1  0  0  0  0
 18 32  1  0  0  0  0
 19 32  1  0  0  0  0
 19 33  2  0  0  0  0
 19 34  1  0  0  0  0
 20 23  2  0  0  0  0
 20 40  1  0  0  0  0
 21 24  2  0  0  0  0
 21 42  1  0  0  0  0
 22 25  2  0  0  0  0
 22 41  1  0  0  0  0
 23 51  1  0  0  0  0
 24 43  1  0  0  0  0
 25 44  1  0  0  0  0
 26 71  1  0  0  0  0
 27 82  1  0  0  0  0
 28 83  1  0  0  0  0
 29 31  2  0  0  0  0
 29 82  1  0  0  0  0
 30 84  1  0  0  0  0
 31 85  1  0  0  0  0
 32 65  2  0  0  0  0
 33 66  1  0  0  0  0
 33 69  1  0  0  0  0
 34 70  1  0  0  0  0
 34 76  2  0  0  0  0
 35 52  1  0  0  0  0
 35 72  1  0  0  0  0
 35 77  2  0  0  0  0
 36 62  1  0  0  0  0
 36 67  1  0  0  0  0
 36 78  2  0  0  0  0
 37 61  1  0  0  0  0
 37 71  1  0  0  0  0
 37 79  2  0  0  0  0
 38 63  1  0  0  0  0
 38 73  1  0  0  0  0
 38 80  2  0  0  0  0
 39 68  1  0  0  0  0
 39 74  1  0  0  0  0
 39 81  2  0  0  0  0
 40 45  1  0  0  0  0
 41 52  1  0  0  0  0
 42 54  1  0  0  0  0
 43 54  1  0  0  0  0
 44 67  1  0  0  0  0
 45 47  1  0  0  0  0
 46 48  1  0  0  0  0
 46 49  1  0  0  0  0
 47 51  1  0  0  0  0
 48 53  1  0  0  0  0
 49 68  1  0  0  0  0
 50 53  1  0  0  0  0
 50 68  1  0  0  0  0
 51 72  1  0  0  0  0
 52 67  1  0  0  0  0
 53 66  1  0  0  0  0
 54 74  1  0  0  0  0
 55 63  1  0  0  0  0
 56 64  1  0  0  0  0
 57 64  1  0  0  0  0
 58 64  1  0  0  0  0
 59 74  1  0  0  0  0
 60 75  1  0  0  0  0
 61 83  1  0  0  0  0
 62 64  1  0  0  0  0
 62 73  1  0  0  0  0
 63 75  1  0  0  0  0
 65 66  1  0  0  0  0
M  CHG  1  75   1
M  ISO  4  39 100  61 101  74 100  83 101
M  END
> <Batch ID>
0092

> <Smiles>
CNC(C)C(=O)NC(C(=O)N1Cc2cc([101O:1][101CH2:1]C(=O)Nc3ccc4c(c3)CC([100N:0](C)[100C:0](=O)N3CCCC(n5nc(-c6ccc(Oc7ccc(F)cc7F)cc6)c(C(N)=O)c5N)C3)C4)ccc2CC1C(=O)NC1CCCc2ccccc21)C(C)(C)C

> <Shape>
0.301

> <Color>
0.096

> <Negative vol penalty>
0.000

$$$$

  -OEChem-04052300343D

 86 95  0     1  0  0  0  0  0999 V2000
  -31.7720  -34.1036   16.2361 C   0  0  0  0  0  0  0  0  0  0  0  0
  -31.1558  -32.8586   16.3121 C   0  0  0  0  0  0  0  0  0  0  0  0
  -24.7268   -8.4529   21.4530 C   0  0  0  0  0  0  0  0  0  0  0  0
  -23.1799  -10.1749   20.7609 C   0  0  0  0  0  0  0  0  0  0  0  0
  -31.9731  -34.8526   17.3947 C   0  0  0  0  0  0  0  0  0  0  0  0
  -30.7413  -32.3614   17.5472 C   0  0  0  0  0  0  0  0  0  0  0  0
  -25.8024  -28.9150   18.6585 C   0  0  0  0  0  0  0  0  0  0  0  0
  -23.7893   -7.9797   22.3710 C   0  0  0  0  0  0  0  0  0  0  0  0
  -22.2424   -9.7016   21.6789 C   0  0  0  0  0  0  0  0  0  0  0  0
  -25.6356  -27.5409   18.8250 C   0  0  0  0  0  0  0  0  0  0  0  0
  -21.6680   -6.0945   24.6428 C   0  0  0  0  0  0  0  0  0  0  0  0
  -21.4676   -4.7159   24.7129 C   0  0  0  0  0  0  0  0  0  0  0  0
  -25.7528  -27.8227   21.2179 C   0  0  0  0  0  0  0  0  0  0  0  0
  -27.7746  -18.4058   19.8479 C   0  0  0  0  0  0  0  0  0  0  0  0
  -24.0633  -22.9103   20.2728 C   0  0  0  0  0  0  0  0  0  0  0  0
  -25.1897  -18.9538   18.9532 C   0  0  0  0  0  0  0  0  0  0  0  0
  -20.7950   -4.6958   22.3925 C   0  0  0  0  0  0  0  0  0  0  0  0
  -25.9259  -22.3731   19.1273 C   0  0  0  0  0  0  0  0  0  0  0  0
  -24.4221   -9.5506   20.6480 C   0  0  0  0  0  0  0  0  0  0  0  0
  -25.5447   -9.6403   18.3590 C   0  0  0  0  0  0  0  0  0  0  0  0
  -31.5521  -34.3685   18.6434 C   0  0  0  0  0  0  0  0  0  0  0  0
  -25.9568  -29.7533   19.7720 C   0  0  0  0  0  0  0  0  0  0  0  0
  -30.9381  -33.1040   18.7238 C   0  0  0  0  0  0  0  0  0  0  0  0
  -25.9188  -29.2074   21.0630 C   0  0  0  0  0  0  0  0  0  0  0  0
  -27.2429  -19.6870   19.9943 C   0  0  0  0  0  0  0  0  0  0  0  0
  -25.1147  -23.4297   19.4779 C   0  0  0  0  0  0  0  0  0  0  0  0
  -25.9505  -19.9610   19.5470 C   0  0  0  0  0  0  0  0  0  0  0  0
  -27.0139  -17.3986   19.2541 C   0  0  0  0  0  0  0  0  0  0  0  0
  -25.7214  -17.6726   18.8068 C   0  0  0  0  0  0  0  0  0  0  0  0
  -22.5471   -8.6040   22.4840 C   0  0  0  0  0  0  0  0  0  0  0  0
  -25.6137  -26.9941   20.1047 C   0  0  0  0  0  0  0  0  0  0  0  0
  -21.4318   -6.7738   23.4476 C   0  0  0  0  0  0  0  0  0  0  0  0
  -21.0311   -4.0165   23.5877 C   0  0  0  0  0  0  0  0  0  0  0  0
  -20.9953   -6.0744   22.3225 C   0  0  0  0  0  0  0  0  0  0  0  0
  -25.3903  -10.0402   19.6999 C   0  0  0  0  0  0  0  0  0  0  0  0
  -26.5929  -10.3961   17.8937 C   0  0  0  0  0  0  0  0  0  0  0  0
  -24.2640  -21.5521   20.3839 C   0  0  0  0  0  0  0  0  0  0  0  0
  -24.8065   -8.6721   17.6017 C   0  0  0  0  0  0  0  0  0  0  0  0
  -28.2527  -31.6823   20.8262 C   0  0  0  0  0  0  0  0  0  0  0  0
  -26.0294  -32.4722   23.0523 C   0  0  0  0  0  0  0  0  0  0  0  0
  -23.2254  -31.5905   24.7865 C   0  0  0  0  0  0  0  0  0  0  0  0
  -28.8451  -15.6882   19.5141 C   0  0  0  0  0  0  0  0  0  0  0  0
  -31.8337  -35.1934   19.8742 C   0  0  0  0  0  0  0  0  0  0  0  0
  -26.1089  -31.2369   19.5765 C   0  0  0  0  0  0  0  0  0  0  0  0
  -26.0599  -30.0667   22.2918 C   0  0  0  0  0  0  0  0  0  0  0  0
  -31.0276  -34.7595   21.0958 C   0  0  0  0  0  0  0  0  0  0  0  0
  -30.5837  -12.5838   19.3840 C   0  0  0  0  0  0  0  0  0  0  0  0
  -31.0743  -33.2432   21.2552 C   0  0  0  0  0  0  0  0  0  0  0  0
  -29.4634  -11.5431   19.3221 C   0  0  0  0  0  0  0  0  0  0  0  0
  -30.2141  -13.7623   20.2831 C   0  0  0  0  0  0  0  0  0  0  0  0
  -27.8122  -13.3654   19.9054 C   0  0  0  0  0  0  0  0  0  0  0  0
  -30.4521  -32.5415   20.0420 C   0  0  1  0  0  0  0  0  0  0  0  0
  -26.7722  -31.9309   20.7622 C   0  0  1  0  0  0  0  0  0  0  0  0
  -28.1122  -12.1905   18.9602 C   0  0  2  0  0  0  0  0  0  0  0  0
  -28.0843  -20.7437   20.6347 C   0  0  0  0  0  0  0  0  0  0  0  0
  -21.6649  -32.4266   26.5649 C   0  0  0  0  0  0  0  0  0  0  0  0
  -28.1146  -31.8240   25.1834 C   0  0  0  0  0  0  0  0  0  0  0  0
  -26.2661  -31.7504   26.8703 C   0  0  0  0  0  0  0  0  0  0  0  0
  -26.7512  -33.8689   25.6458 C   0  0  0  0  0  0  0  0  0  0  0  0
  -20.9099  -31.5340   22.9443 C   0  0  0  0  0  0  0  0  0  0  0  0
  -25.3101  -24.8655   19.0885 C   0  0  0  0  0  0  0  0  0  1  0  0
  -25.6520  -31.9515   24.4181 C   0  0  1  0  0  0  0  0  0  0  0  0
  -21.9387  -32.3439   25.0713 C   0  0  2  0  0  0  0  0  0  0  0  0
  -26.6952  -32.3320   25.5064 C   0  0  0  0  0  0  0  0  0  0  0  0
  -26.2702  -10.9773   20.0630 N   0  0  0  0  0  0  0  0  0  0  0  0
  -25.3992  -21.2368   19.6839 N   0  0  0  0  0  0  0  0  0  0  0  0
  -26.9875  -11.1723   18.9434 N   0  0  0  0  0  0  0  0  0  0  0  0
  -26.2126  -31.5107   22.0484 N   0  0  0  0  0  0  0  0  0  0  0  0
  -28.9251  -14.3275   19.8784 N   0  0  0  0  0  0  0  0  0  0  0  0
  -24.9334  -16.6673   18.2026 N   0  0  0  0  0  0  0  0  0  0  0  0
  -27.2064  -10.4657   16.6932 N   0  0  0  0  0  0  0  0  0  0  0  0
  -23.7607   -7.9856   18.2337 N   0  0  0  0  0  0  0  0  0  0  0  0
  -27.5752  -16.1049   19.1162 N   0  0  0  0  0  0  0  0  0  0  0  0
  -29.0077  -32.5942   20.1135 N   0  0  0  0  0  0  0  0  0  0  0  0
  -24.3045  -32.4429   24.6843 N   0  0  0  0  0  0  0  0  0  0  0  0
  -20.7846  -31.6631   24.4189 N   0  3  0  0  0  0  0  0  0  0  0  0
  -25.0772   -8.4114   16.4049 O   0  0  0  0  0  0  0  0  0  0  0  0
  -28.6786  -30.7344   21.4756 O   0  0  0  0  0  0  0  0  0  0  0  0
  -26.1498  -33.6878   22.8806 O   0  0  0  0  0  0  0  0  0  0  0  0
  -23.2696  -30.3678   24.6702 O   0  0  0  0  0  0  0  0  0  0  0  0
  -29.8363  -16.4226   19.5261 O   0  0  0  0  0  0  0  0  0  0  0  0
  -23.5592  -20.6260   21.0226 O   0  0  0  0  0  0  0  0  0  0  0  0
  -21.6320   -8.1423   23.3795 O   0  0  0  0  0  0  0  0  0  0  0  0
  -25.4518  -25.6531   20.2700 O   0  0  0  0  0  0  0  0  0  1  0  0
  -20.8402   -2.6924   23.6547 F   0  0  0  0  0  0  0  0  0  0  0  0
  -20.7679   -6.7213   21.1711 F   0  0  0  0  0  0  0  0  0  0  0  0
  1  2  1  0  0  0  0
  1  5  2  0  0  0  0
  2  6  2  0  0  0  0
  3  8  2  0  0  0  0
  3 19  1  0  0  0  0
  4  9  1  0  0  0  0
  4 19  2  0  0  0  0
  5 21  1  0  0  0  0
  6 23  1  0  0  0  0
  7 10  2  0  0  0  0
  7 22  1  0  0  0  0
  8 30  1  0  0  0  0
  9 30  2  0  0  0  0
 10 31  1  0  0  0  0
 11 12  2  0  0  0  0
 11 32  1  0  0  0  0
 12 33  1  0  0  0  0
 13 24  1  0  0  0  0
 13 31  2  0  0  0  0
 14 25  1  0  0  0  0
 14 28  2  0  0  0  0
 15 26  1  0  0  0  0
 15 37  2  0  0  0  0
 16 27  1  0  0  0  0
 16 29  2  0  0  0  0
 17 33  2  0  0  0  0
 17 34  1  0  0  0  0
 18 26  2  0  0  0  0
 18 66  1  0  0  0  0
 19 35  1  0  0  0  0
 20 35  1  0  0  0  0
 20 36  2  0  0  0  0
 20 38  1  0  0  0  0
 21 23  2  0  0  0  0
 21 43  1  0  0  0  0
 22 24  2  0  0  0  0
 22 44  1  0  0  0  0
 23 52  1  0  0  0  0
 24 45  1  0  0  0  0
 25 27  2  0  0  0  0
 25 55  1  0  0  0  0
 26 61  1  0  0  0  0
 27 66  1  0  0  0  0
 28 29  1  0  0  0  0
 28 73  1  0  0  0  0
 29 70  1  0  0  0  0
 30 83  1  0  0  0  0
 31 84  1  0  0  0  0
 32 34  2  0  0  0  0
 32 83  1  0  0  0  0
 33 85  1  0  0  0  0
 34 86  1  0  0  0  0
 35 65  2  0  0  0  0
 36 67  1  0  0  0  0
 36 71  1  0  0  0  0
 37 66  1  0  0  0  0
 37 82  1  0  0  0  0
 38 72  1  0  0  0  0
 38 77  2  0  0  0  0
 39 53  1  0  0  0  0
 39 74  1  0  0  0  0
 39 78  2  0  0  0  0
 40 62  1  0  0  0  0
 40 68  1  0  0  0  0
 40 79  2  0  0  0  0
 41 63  1  0  0  0  0
 41 75  1  0  0  0  0
 41 80  2  0  0  0  0
 42 69  1  0  0  0  0
 42 73  1  0  0  0  0
 42 81  2  0  0  0  0
 43 46  1  0  0  0  0
 44 53  1  0  0  0  0
 45 68  1  0  0  0  0
 46 48  1  0  0  0  0
 47 49  1  0  0  0  0
 47 50  1  0  0  0  0
 48 52  1  0  0  0  0
 49 54  1  0  0  0  0
 50 69  1  0  0  0  0
 51 54  1  0  0  0  0
 51 69  1  0  0  0  0
 52 74  1  0  0  0  0
 53 68  1  0  0  0  0
 54 67  1  0  0  0  0
 56 63  1  0  0  0  0
 57 64  1  0  0  0  0
 58 64  1  0  0  0  0
 59 64  1  0  0  0  0
 60 76  1  0  0  0  0
 61 84  1  0  0  0  0
 62 64  1  0  0  0  0
 62 75  1  0  0  0  0
 63 76  1  0  0  0  0
 65 67  1  0  0  0  0
M  CHG  1  76   1
M  ISO  4  42 100  61 101  73 100  84 101
M  END
> <Batch ID>
0092

> <Smiles>
CNC(C)C(=O)NC(C(=O)N1Cc2cc([101O:1][101CH2:1]C3=CN(c4cc(N)c([100NH:0][100C:0](=O)N5CCCC(n6nc(-c7ccc(Oc8ccc(F)cc8F)cc7)c(C(N)=O)c6N)C5)cc4C)C(=O)C3)ccc2CC1C(=O)NC1CCCc2ccccc21)C(C)(C)C

> <Shape>
0.236

> <Color>
0.083

> <Negative vol penalty>
0.000

$$$$

  -OEChem-04052300343D

 85 93  0     1  0  0  0  0  0999 V2000
  -29.7448  -32.5490   24.6580 C   0  0  0  0  0  0  0  0  0  0  0  0
  -29.5315  -31.3454   23.9936 C   0  0  0  0  0  0  0  0  0  0  0  0
  -23.5189  -12.4710   15.7367 C   0  0  0  0  0  0  0  0  0  0  0  0
  -22.7713  -11.0074   17.5076 C   0  0  0  0  0  0  0  0  0  0  0  0
  -28.7206  -33.1177   25.4139 C   0  0  0  0  0  0  0  0  0  0  0  0
  -28.2940  -30.7093   24.0857 C   0  0  0  0  0  0  0  0  0  0  0  0
  -26.6370  -29.0259   19.6062 C   0  0  0  0  0  0  0  0  0  0  0  0
  -22.7174  -11.7806   14.8277 C   0  0  0  0  0  0  0  0  0  0  0  0
  -21.9697  -10.3170   16.5985 C   0  0  0  0  0  0  0  0  0  0  0  0
  -27.1995  -27.8458   19.1219 C   0  0  0  0  0  0  0  0  0  0  0  0
  -20.0021   -7.9423   14.6751 C   0  0  0  0  0  0  0  0  0  0  0  0
  -20.0195   -6.5485   14.7237 C   0  0  0  0  0  0  0  0  0  0  0  0
  -25.2659  -26.6196   19.8814 C   0  0  0  0  0  0  0  0  0  0  0  0
  -29.5441  -20.8452   19.5365 C   0  0  0  0  0  0  0  0  0  0  0  0
  -27.7791  -19.8050   20.8171 C   0  0  0  0  0  0  0  0  0  0  0  0
  -22.3905   -6.5617   14.2601 C   0  0  0  0  0  0  0  0  0  0  0  0
  -23.5459  -12.0844   17.0767 C   0  0  0  0  0  0  0  0  0  0  0  0
  -29.8090  -18.5834   20.3434 C   0  0  0  0  0  0  0  0  0  0  0  0
  -24.0130  -13.9165   18.7893 C   0  0  0  0  0  0  0  0  0  0  0  0
  -27.4669  -32.4931   25.5074 C   0  0  0  0  0  0  0  0  0  0  0  0
  -25.3875  -29.0101   20.2427 C   0  0  0  0  0  0  0  0  0  0  0  0
  -27.2525  -31.2696   24.8446 C   0  0  0  0  0  0  0  0  0  0  0  0
  -24.6886  -27.8013   20.3707 C   0  0  0  0  0  0  0  0  0  0  0  0
  -30.3090  -19.6841   19.6476 C   0  0  0  0  0  0  0  0  0  0  0  0
  -28.2791  -20.9056   20.1213 C   0  0  0  0  0  0  0  0  0  0  0  0
  -21.9428  -10.7036   15.2585 C   0  0  0  0  0  0  0  0  0  0  0  0
  -26.5153  -26.6419   19.2620 C   0  0  0  0  0  0  0  0  0  0  0  0
  -21.1790   -8.6460   14.4189 C   0  0  0  0  0  0  0  0  0  0  0  0
  -21.2136   -5.8581   14.5162 C   0  0  0  0  0  0  0  0  0  0  0  0
  -28.5441  -18.6438   20.9281 C   0  0  0  0  0  0  0  0  0  0  0  0
  -22.3732   -7.9557   14.2114 C   0  0  0  0  0  0  0  0  0  0  0  0
  -24.3742  -12.7969   18.0162 C   0  0  0  0  0  0  0  0  0  0  0  0
  -25.1423  -14.2132   19.5125 C   0  0  0  0  0  0  0  0  0  0  0  0
  -30.6059  -17.3367   20.4754 C   0  0  0  0  0  0  0  0  0  0  0  0
  -22.7679  -14.6250   18.8486 C   0  0  0  0  0  0  0  0  0  0  0  0
  -24.3444  -29.7391   23.1554 C   0  0  0  0  0  0  0  0  0  0  0  0
  -21.4362  -29.1895   21.8277 C   0  0  0  0  0  0  0  0  0  0  0  0
  -27.8431  -23.2635   19.3568 C   0  0  0  0  0  0  0  0  0  0  0  0
  -19.6076  -27.6503   19.3917 C   0  0  0  0  0  0  0  0  0  0  0  0
  -30.6218  -14.9250   19.9211 C   0  0  0  0  0  0  0  0  0  0  0  0
  -26.4054  -33.1221   26.3749 C   0  0  0  0  0  0  0  0  0  0  0  0
  -24.7824  -30.2958   20.7358 C   0  0  0  0  0  0  0  0  0  0  0  0
  -23.3352  -27.7336   21.0280 C   0  0  0  0  0  0  0  0  0  0  0  0
  -25.0042  -32.5744   26.1164 C   0  0  0  0  0  0  0  0  0  0  0  0
  -29.4366  -11.6016   20.1395 C   0  0  0  0  0  0  0  0  0  0  0  0
  -25.0300  -31.0506   26.0523 C   0  0  0  0  0  0  0  0  0  0  0  0
  -27.9805  -11.7064   19.6780 C   0  0  0  0  0  0  0  0  0  0  0  0
  -30.3526  -12.5294   19.3427 C   0  0  0  0  0  0  0  0  0  0  0  0
  -28.4741  -14.0345   18.8292 C   0  0  0  0  0  0  0  0  0  0  0  0
  -25.9160  -30.5618   24.9001 C   0  0  1  0  0  0  0  0  0  0  0  0
  -23.7360  -30.0842   21.8256 C   0  0  1  0  0  0  0  0  0  0  0  0
  -27.5006  -13.1715   19.6481 C   0  0  1  0  0  0  0  0  0  0  0  0
  -31.6603  -19.6465   19.0113 C   0  0  0  0  0  0  0  0  0  0  0  0
  -17.2486  -27.3583   18.5873 C   0  0  0  0  0  0  0  0  0  0  0  0
  -20.9020  -27.2370   24.1108 C   0  0  0  0  0  0  0  0  0  0  0  0
  -19.0062  -26.2983   22.7717 C   0  0  0  0  0  0  0  0  0  0  0  0
  -18.9562  -28.6840   23.4988 C   0  0  0  0  0  0  0  0  0  0  0  0
  -20.2243  -28.8857   16.7740 C   0  0  0  0  0  0  0  0  0  0  0  0
  -26.7251  -24.2826   19.4751 C   0  0  0  0  0  0  0  0  0  1  0  0
  -20.5470  -27.9806   21.6639 C   0  0  1  0  0  0  0  0  0  0  0  0
  -18.5271  -28.1722   18.4619 C   0  0  2  0  0  0  0  0  0  0  0  0
  -19.8792  -27.5506   23.0006 C   0  0  0  0  0  0  0  0  0  0  0  0
  -25.6345  -12.4087   18.2282 N   0  0  0  0  0  0  0  0  0  0  0  0
  -26.0751  -13.2894   19.1427 N   0  0  0  0  0  0  0  0  0  0  0  0
  -22.7883  -29.0166   21.4996 N   0  0  0  0  0  0  0  0  0  0  0  0
  -29.8343  -13.8982   19.3716 N   0  0  0  0  0  0  0  0  0  0  0  0
  -25.4186  -15.1715   20.4222 N   0  0  0  0  0  0  0  0  0  0  0  0
  -21.7108  -14.1870   18.0392 N   0  0  0  0  0  0  0  0  0  0  0  0
  -27.5027  -22.0834   20.0092 N   0  0  0  0  0  0  0  0  0  0  0  0
  -30.0206  -16.1884   19.9411 N   0  0  0  0  0  0  0  0  0  0  0  0
  -25.2209  -30.6924   23.6375 N   0  0  0  0  0  0  0  0  0  0  0  0
  -19.6017  -28.3099   20.6026 N   0  0  0  0  0  0  0  0  0  0  0  0
  -18.9874  -28.1092   17.0459 N   0  3  0  0  0  0  0  0  0  0  0  0
  -31.7174  -17.3895   20.9946 O   0  0  0  0  0  0  0  0  0  0  0  0
  -22.6029  -15.6270   19.5849 O   0  0  0  0  0  0  0  0  0  0  0  0
  -24.0400  -28.6866   23.7042 O   0  0  0  0  0  0  0  0  0  0  0  0
  -20.9477  -30.2502   22.2251 O   0  0  0  0  0  0  0  0  0  0  0  0
  -28.8804  -23.5149   18.7524 O   0  0  0  0  0  0  0  0  0  0  0  0
  -20.3773  -26.7454   19.0769 O   0  0  0  0  0  0  0  0  0  0  0  0
  -31.7477  -14.7272   20.3886 O   0  0  0  0  0  0  0  0  0  0  0  0
  -21.1603  -10.0298   14.3718 O   0  0  0  0  0  0  0  0  0  0  0  0
  -27.0623  -25.4885   18.7906 O   0  0  0  0  0  0  0  0  0  1  0  0
  -21.2304   -4.5197   14.5644 F   0  0  0  0  0  0  0  0  0  0  0  0
  -28.0525  -17.5927   21.5998 F   0  0  0  0  0  0  0  0  0  0  0  0
  -23.5072   -8.6262   13.9661 F   0  0  0  0  0  0  0  0  0  0  0  0
  1  2  1  0  0  0  0
  1  5  2  0  0  0  0
  2  6  2  0  0  0  0
  3  8  2  0  0  0  0
  3 17  1  0  0  0  0
  4  9  1  0  0  0  0
  4 17  2  0  0  0  0
  5 20  1  0  0  0  0
  6 22  1  0  0  0  0
  7 10  2  0  0  0  0
  7 21  1  0  0  0  0
  8 26  1  0  0  0  0
  9 26  2  0  0  0  0
 10 27  1  0  0  0  0
 11 12  2  0  0  0  0
 11 28  1  0  0  0  0
 12 29  1  0  0  0  0
 13 23  1  0  0  0  0
 13 27  2  0  0  0  0
 14 24  2  0  0  0  0
 14 25  1  0  0  0  0
 15 25  2  0  0  0  0
 15 30  1  0  0  0  0
 16 29  2  0  0  0  0
 16 31  1  0  0  0  0
 17 32  1  0  0  0  0
 18 24  1  0  0  0  0
 18 30  2  0  0  0  0
 18 34  1  0  0  0  0
 19 32  1  0  0  0  0
 19 33  2  0  0  0  0
 19 35  1  0  0  0  0
 20 22  2  0  0  0  0
 20 41  1  0  0  0  0
 21 23  2  0  0  0  0
 21 42  1  0  0  0  0
 22 50  1  0  0  0  0
 23 43  1  0  0  0  0
 24 53  1  0  0  0  0
 25 69  1  0  0  0  0
 26 81  1  0  0  0  0
 27 82  1  0  0  0  0
 28 31  2  0  0  0  0
 28 81  1  0  0  0  0
 29 83  1  0  0  0  0
 30 84  1  0  0  0  0
 31 85  1  0  0  0  0
 32 63  2  0  0  0  0
 33 64  1  0  0  0  0
 33 67  1  0  0  0  0
 34 70  1  0  0  0  0
 34 74  2  0  0  0  0
 35 68  1  0  0  0  0
 35 75  2  0  0  0  0
 36 51  1  0  0  0  0
 36 71  1  0  0  0  0
 36 76  2  0  0  0  0
 37 60  1  0  0  0  0
 37 65  1  0  0  0  0
 37 77  2  0  0  0  0
 38 59  1  0  0  0  0
 38 69  1  0  0  0  0
 38 78  2  0  0  0  0
 39 61  1  0  0  0  0
 39 72  1  0  0  0  0
 39 79  2  0  0  0  0
 40 66  1  0  0  0  0
 40 70  1  0  0  0  0
 40 80  2  0  0  0  0
 41 44  1  0  0  0  0
 42 51  1  0  0  0  0
 43 65  1  0  0  0  0
 44 46  1  0  0  0  0
 45 47  1  0  0  0  0
 45 48  1  0  0  0  0
 46 50  1  0  0  0  0
 47 52  1  0  0  0  0
 48 66  1  0  0  0  0
 49 52  1  0  0  0  0
 49 66  1  0  0  0  0
 50 71  1  0  0  0  0
 51 65  1  0  0  0  0
 52 64  1  0  0  0  0
 54 61  1  0  0  0  0
 55 62  1  0  0  0  0
 56 62  1  0  0  0  0
 57 62  1  0  0  0  0
 58 73  1  0  0  0  0
 59 82  1  0  0  0  0
 60 62  1  0  0  0  0
 60 72  1  0  0  0  0
 61 73  1  0  0  0  0
 63 64  1  0  0  0  0
M  CHG  1  73   1
M  ISO  4  40 100  59 101  70 100  82 101
M  END
> <Batch ID>
0092

> <Smiles>
CNC(C)C(=O)NC(C(=O)N1Cc2cc([101O:1][101CH2:1]C(=O)Nc3cc(C)c(C(=O)[100NH:0][100C:0](=O)N4CCCC(n5nc(-c6ccc(Oc7ccc(F)cc7F)cc6)c(C(N)=O)c5N)C4)c(F)c3)ccc2CC1C(=O)NC1CCCc2ccccc21)C(C)(C)C

> <Shape>
0.281

> <Color>
0.124

> <Negative vol penalty>
0.000

$$$$

  -OEChem-04052300343D

 86 94  0     1  0  0  0  0  0999 V2000
  -29.4249  -35.8408   18.4793 C   0  0  0  0  0  0  0  0  0  0  0  0
  -29.5203  -34.5052   18.8570 C   0  0  0  0  0  0  0  0  0  0  0  0
  -23.3471  -10.2761   21.8146 C   0  0  0  0  0  0  0  0  0  0  0  0
  -22.8824  -12.6444   21.7027 C   0  0  0  0  0  0  0  0  0  0  0  0
  -28.5115  -36.6804   19.1154 C   0  0  0  0  0  0  0  0  0  0  0  0
  -28.7030  -34.0088   19.8720 C   0  0  0  0  0  0  0  0  0  0  0  0
  -26.6636  -29.5229   18.7046 C   0  0  0  0  0  0  0  0  0  0  0  0
  -22.3934  -10.1366   22.8228 C   0  0  0  0  0  0  0  0  0  0  0  0
  -21.9286  -12.5048   22.7109 C   0  0  0  0  0  0  0  0  0  0  0  0
  -27.4822  -28.4007   18.8248 C   0  0  0  0  0  0  0  0  0  0  0  0
  -19.0258   -9.9438   23.0566 C   0  0  0  0  0  0  0  0  0  0  0  0
  -18.1345   -8.8750   22.9623 C   0  0  0  0  0  0  0  0  0  0  0  0
  -30.2186  -19.7523   21.3765 C   0  0  0  0  0  0  0  0  0  0  0  0
  -28.7790  -18.0883   20.3786 C   0  0  0  0  0  0  0  0  0  0  0  0
  -26.4646  -27.8938   20.9524 C   0  0  0  0  0  0  0  0  0  0  0  0
  -31.0058  -17.4853   21.0964 C   0  0  0  0  0  0  0  0  0  0  0  0
  -18.9303   -8.0246   25.0791 C   0  0  0  0  0  0  0  0  0  0  0  0
  -23.5917  -11.5301   21.2545 C   0  0  0  0  0  0  0  0  0  0  0  0
  -28.9965  -19.3986   20.8046 C   0  0  0  0  0  0  0  0  0  0  0  0
  -24.3691  -11.5687   18.8252 C   0  0  0  0  0  0  0  0  0  0  0  0
  -27.6758  -36.1917   20.1320 C   0  0  0  0  0  0  0  0  0  0  0  0
  -25.7455  -29.8456   19.7143 C   0  0  0  0  0  0  0  0  0  0  0  0
  -27.7785  -34.8430   20.5232 C   0  0  0  0  0  0  0  0  0  0  0  0
  -25.6338  -29.0192   20.8415 C   0  0  0  0  0  0  0  0  0  0  0  0
  -31.2233  -18.7957   21.5223 C   0  0  0  0  0  0  0  0  0  0  0  0
  -29.7837  -17.1316   20.5245 C   0  0  0  0  0  0  0  0  0  0  0  0
  -21.6841  -11.2509   23.2709 C   0  0  0  0  0  0  0  0  0  0  0  0
  -27.3848  -27.5876   19.9501 C   0  0  0  0  0  0  0  0  0  0  0  0
  -19.8695  -10.0529   24.1621 C   0  0  0  0  0  0  0  0  0  0  0  0
  -18.0867   -7.9154   23.9736 C   0  0  0  0  0  0  0  0  0  0  0  0
  -19.8217   -9.0934   25.1733 C   0  0  0  0  0  0  0  0  0  0  0  0
  -24.5771  -11.6750   20.2134 C   0  0  0  0  0  0  0  0  0  0  0  0
  -25.6083  -11.7868   18.2745 C   0  0  0  0  0  0  0  0  0  0  0  0
  -27.5842  -25.2683   20.1780 C   0  0  0  0  0  0  0  0  0  1  0  0
  -27.9265  -20.4170   20.6507 C   0  0  0  0  0  0  0  0  0  0  0  0
  -23.1634  -11.2973   18.0983 C   0  0  0  0  0  0  0  0  0  0  0  0
  -28.2709  -24.1262   20.3006 C   0  0  0  0  0  0  0  0  0  0  0  0
  -27.5185  -22.8391   20.4121 C   0  0  0  0  0  0  0  0  0  0  0  0
  -25.3471  -32.3122   21.6791 C   0  0  0  0  0  0  0  0  0  0  0  0
  -22.6353  -30.7277   22.4904 C   0  0  0  0  0  0  0  0  0  0  0  0
  -20.9517  -27.7639   22.6581 C   0  0  0  0  0  0  0  0  0  0  0  0
  -30.4536  -14.7303   20.1625 C   0  0  0  0  0  0  0  0  0  0  0  0
  -26.7371  -37.1488   20.8229 C   0  0  0  0  0  0  0  0  0  0  0  0
  -24.8510  -31.0446   19.5571 C   0  0  0  0  0  0  0  0  0  0  0  0
  -24.6499  -29.3105   21.9441 C   0  0  0  0  0  0  0  0  0  0  0  0
  -25.6449  -36.4536   21.6317 C   0  0  0  0  0  0  0  0  0  0  0  0
  -30.2735  -11.2964   19.2389 C   0  0  0  0  0  0  0  0  0  0  0  0
  -26.2400  -35.3356   22.4818 C   0  0  0  0  0  0  0  0  0  0  0  0
  -28.7730  -10.9957   19.2517 C   0  0  0  0  0  0  0  0  0  0  0  0
  -30.6680  -12.2621   20.3550 C   0  0  0  0  0  0  0  0  0  0  0  0
  -28.3944  -13.2092   20.4111 C   0  0  0  0  0  0  0  0  0  0  0  0
  -26.8918  -34.2613   21.6027 C   0  0  1  0  0  0  0  0  0  0  0  0
  -24.3120  -31.5662   20.8856 C   0  0  1  0  0  0  0  0  0  0  0  0
  -27.9386  -12.2916   19.2648 C   0  0  2  0  0  0  0  0  0  0  0  0
  -18.7675  -26.7787   23.4037 C   0  0  0  0  0  0  0  0  0  0  0  0
  -23.5497  -30.9057   25.3959 C   0  0  0  0  0  0  0  0  0  0  0  0
  -21.8763  -29.1304   25.9584 C   0  0  0  0  0  0  0  0  0  0  0  0
  -21.1088  -31.3203   25.0431 C   0  0  0  0  0  0  0  0  0  0  0  0
  -20.2955  -26.8522   19.9201 C   0  0  0  0  0  0  0  0  0  0  0  0
  -22.2759  -29.6788   23.5149 C   0  0  1  0  0  0  0  0  0  0  0  0
  -19.5428  -27.3809   22.2423 C   0  0  2  0  0  0  0  0  0  0  0  0
  -22.2226  -30.2541   24.9584 C   0  0  0  0  0  0  0  0  0  0  0  0
  -25.8486  -11.9398   20.5254 N   0  0  0  0  0  0  0  0  0  0  0  0
  -26.4506  -12.0017   19.3255 N   0  0  0  0  0  0  0  0  0  0  0  0
  -23.8018  -30.4977   21.7472 N   0  0  0  0  0  0  0  0  0  0  0  0
  -29.8387  -13.4680   20.3022 N   0  0  0  0  0  0  0  0  0  0  0  0
  -32.4592  -19.1531   22.1001 N   0  0  0  0  0  0  0  0  0  0  0  0
  -26.0488  -11.8137   16.9987 N   0  0  0  0  0  0  0  0  0  0  0  0
  -21.9786  -11.0981   18.8201 N   0  0  0  0  0  0  0  0  0  0  0  0
  -29.5628  -15.8008   20.0911 N   0  0  0  0  0  0  0  0  0  0  0  0
  -28.3617  -21.7363   20.5337 N   0  0  0  0  0  0  0  0  0  0  0  0
  -25.8819  -33.4032   21.0210 N   0  0  0  0  0  0  0  0  0  0  0  0
  -21.0244  -29.0797   23.0639 N   0  0  0  0  0  0  0  0  0  0  0  0
  -19.5825  -26.3831   21.1360 N   0  3  0  0  0  0  0  0  0  0  0  0
  -26.7524  -20.0571   20.6618 O   0  0  0  0  0  0  0  0  0  0  0  0
  -23.1406  -11.2171   16.8467 O   0  0  0  0  0  0  0  0  0  0  0  0
  -26.2917  -22.7966   20.3920 O   0  0  0  0  0  0  0  0  0  0  0  0
  -25.6378  -31.9275   22.8057 O   0  0  0  0  0  0  0  0  0  0  0  0
  -21.9042  -31.7111   22.3495 O   0  0  0  0  0  0  0  0  0  0  0  0
  -21.8927  -26.9738   22.6296 O   0  0  0  0  0  0  0  0  0  0  0  0
  -31.6789  -14.8500   20.0828 O   0  0  0  0  0  0  0  0  0  0  0  0
  -29.6496  -24.0853   20.3286 O   0  0  0  0  0  0  0  0  0  0  0  0
  -20.7532  -11.1150   24.2546 O   0  0  0  0  0  0  0  0  0  0  0  0
  -28.1830  -26.4920   20.0702 O   0  0  0  0  0  0  0  0  0  1  0  0
  -17.2297   -6.8900   23.8837 F   0  0  0  0  0  0  0  0  0  0  0  0
  -20.6289   -9.1936   26.2383 F   0  0  0  0  0  0  0  0  0  0  0  0
  1  2  1  0  0  0  0
  1  5  2  0  0  0  0
  2  6  2  0  0  0  0
  3  8  2  0  0  0  0
  3 18  1  0  0  0  0
  4  9  1  0  0  0  0
  4 18  2  0  0  0  0
  5 21  1  0  0  0  0
  6 23  1  0  0  0  0
  7 10  2  0  0  0  0
  7 22  1  0  0  0  0
  8 27  1  0  0  0  0
  9 27  2  0  0  0  0
 10 28  1  0  0  0  0
 11 12  2  0  0  0  0
 11 29  1  0  0  0  0
 12 30  1  0  0  0  0
 13 19  1  0  0  0  0
 13 25  2  0  0  0  0
 14 19  2  0  0  0  0
 14 26  1  0  0  0  0
 15 24  1  0  0  0  0
 15 28  2  0  0  0  0
 16 25  1  0  0  0  0
 16 26  2  0  0  0  0
 17 30  2  0  0  0  0
 17 31  1  0  0  0  0
 18 32  1  0  0  0  0
 19 35  1  0  0  0  0
 20 32  1  0  0  0  0
 20 33  2  0  0  0  0
 20 36  1  0  0  0  0
 21 23  2  0  0  0  0
 21 43  1  0  0  0  0
 22 24  2  0  0  0  0
 22 44  1  0  0  0  0
 23 52  1  0  0  0  0
 24 45  1  0  0  0  0
 25 67  1  0  0  0  0
 26 70  1  0  0  0  0
 27 83  1  0  0  0  0
 28 84  1  0  0  0  0
 29 31  2  0  0  0  0
 29 83  1  0  0  0  0
 30 85  1  0  0  0  0
 31 86  1  0  0  0  0
 32 63  2  0  0  0  0
 33 64  1  0  0  0  0
 33 68  1  0  0  0  0
 34 37  2  0  0  0  0
 34 84  1  0  0  0  0
 35 71  1  0  0  0  0
 35 75  2  0  0  0  0
 36 69  1  0  0  0  0
 36 76  2  0  0  0  0
 37 38  1  0  0  0  0
 37 82  1  0  0  0  0
 38 71  1  0  0  0  0
 38 77  2  0  0  0  0
 39 53  1  0  0  0  0
 39 72  1  0  0  0  0
 39 78  2  0  0  0  0
 40 60  1  0  0  0  0
 40 65  1  0  0  0  0
 40 79  2  0  0  0  0
 41 61  1  0  0  0  0
 41 73  1  0  0  0  0
 41 80  2  0  0  0  0
 42 66  1  0  0  0  0
 42 70  1  0  0  0  0
 42 81  2  0  0  0  0
 43 46  1  0  0  0  0
 44 53  1  0  0  0  0
 45 65  1  0  0  0  0
 46 48  1  0  0  0  0
 47 49  1  0  0  0  0
 47 50  1  0  0  0  0
 48 52  1  0  0  0  0
 49 54  1  0  0  0  0
 50 66  1  0  0  0  0
 51 54  1  0  0  0  0
 51 66  1  0  0  0  0
 52 72  1  0  0  0  0
 53 65  1  0  0  0  0
 54 64  1  0  0  0  0
 55 61  1  0  0  0  0
 56 62  1  0  0  0  0
 57 62  1  0  0  0  0
 58 62  1  0  0  0  0
 59 74  1  0  0  0  0
 60 62  1  0  0  0  0
 60 73  1  0  0  0  0
 61 74  1  0  0  0  0
 63 64  1  0  0  0  0
M  CHG  1  74   1
M  ISO  4  34 101  42 100  70 100  84 101
M  END
> <Batch ID>
0092

> <Smiles>
CNC(C)C(=O)NC(C(=O)N1Cc2cc([101O:1][101CH2:1]C(=O)C(=O)NC(=O)c3cc(N)cc([100NH:0][100C:0](=O)N4CCCC(n5nc(-c6ccc(Oc7ccc(F)cc7F)cc6)c(C(N)=O)c5N)C4)c3)ccc2CC1C(=O)NC1CCCc2ccccc21)C(C)(C)C

> <Shape>
0.279

> <Color>
0.103

> <Negative vol penalty>
0.000

$$$$

  -OEChem-04052300343D

 87 96  0     1  0  0  0  0  0999 V2000
  -28.4952  -30.9193   22.4806 C   0  0  0  0  0  0  0  0  0  0  0  0
  -27.9285  -30.1701   23.5067 C   0  0  0  0  0  0  0  0  0  0  0  0
  -28.8298  -20.1805   20.9841 C   0  0  0  0  0  0  0  0  0  0  0  0
  -29.9656  -19.3380   19.0253 C   0  0  0  0  0  0  0  0  0  0  0  0
  -27.7077  -31.3417   21.4104 C   0  0  0  0  0  0  0  0  0  0  0  0
  -26.5735  -29.8437   23.4637 C   0  0  0  0  0  0  0  0  0  0  0  0
  -24.4101  -22.9730   23.5386 C   0  0  0  0  0  0  0  0  0  0  0  0
  -23.4380  -13.3203   24.0456 C   0  0  0  0  0  0  0  0  0  0  0  0
  -22.7602  -14.2382   24.8479 C   0  0  0  0  0  0  0  0  0  0  0  0
  -28.6527  -21.4113   20.3521 C   0  0  0  0  0  0  0  0  0  0  0  0
  -29.7885  -20.5687   18.3932 C   0  0  0  0  0  0  0  0  0  0  0  0
  -23.9091  -21.6903   23.7620 C   0  0  0  0  0  0  0  0  0  0  0  0
  -28.2191  -24.8905   19.3876 C   0  0  0  0  0  0  0  0  0  0  0  0
  -28.4875  -26.0441   20.1243 C   0  0  0  0  0  0  0  0  0  0  0  0
  -21.6498  -22.5208   23.5301 C   0  0  0  0  0  0  0  0  0  0  0  0
  -22.0156  -15.4144   22.8732 C   0  0  0  0  0  0  0  0  0  0  0  0
  -30.7715  -25.3181   20.4293 C   0  0  0  0  0  0  0  0  0  0  0  0
  -29.4863  -19.1439   20.3207 C   0  0  0  0  0  0  0  0  0  0  0  0
  -30.3636  -17.6251   22.1731 C   0  0  0  0  0  0  0  0  0  0  0  0
  -26.3445  -31.0121   21.3495 C   0  0  0  0  0  0  0  0  0  0  0  0
  -23.5322  -24.0329   23.2946 C   0  0  0  0  0  0  0  0  0  0  0  0
  -25.7667  -30.2631   22.3924 C   0  0  0  0  0  0  0  0  0  0  0  0
  -22.1462  -23.8054   23.2933 C   0  0  0  0  0  0  0  0  0  0  0  0
  -23.4047  -13.4495   22.6571 C   0  0  0  0  0  0  0  0  0  0  0  0
  -22.0490  -15.2852   24.2618 C   0  0  0  0  0  0  0  0  0  0  0  0
  -22.6934  -14.4966   22.0709 C   0  0  0  0  0  0  0  0  0  0  0  0
  -29.1320  -21.6054   19.0567 C   0  0  0  0  0  0  0  0  0  0  0  0
  -22.5324  -21.4649   23.7579 C   0  0  0  0  0  0  0  0  0  0  0  0
  -29.2269  -23.9506   19.1718 C   0  0  0  0  0  0  0  0  0  0  0  0
  -29.7637  -26.2580   20.6451 C   0  0  0  0  0  0  0  0  0  0  0  0
  -30.5031  -24.1644   19.6926 C   0  0  0  0  0  0  0  0  0  0  0  0
  -29.6700  -17.8724   20.9733 C   0  0  0  0  0  0  0  0  0  0  0  0
  -30.2491  -16.2696   22.3628 C   0  0  0  0  0  0  0  0  0  0  0  0
  -21.3068  -18.6241   25.5876 C   0  0  0  0  0  0  0  0  0  0  0  0
  -20.8228  -15.8610   26.3459 C   0  0  0  0  0  0  0  0  0  0  0  0
  -21.7837  -19.8342   25.2591 C   0  0  0  0  0  0  0  0  0  1  0  0
  -31.0500  -18.5389   23.0389 C   0  0  0  0  0  0  0  0  0  0  0  0
  -23.1231  -27.6860   22.5440 C   0  0  0  0  0  0  0  0  0  0  0  0
  -21.0664  -26.1884   20.8301 C   0  0  0  0  0  0  0  0  0  0  0  0
  -19.8263  -24.2360   18.6963 C   0  0  0  0  0  0  0  0  0  0  0  0
  -26.2413  -12.2194   20.5231 C   0  0  0  0  0  0  0  0  0  0  0  0
  -25.5229  -31.5313   20.1962 C   0  0  0  0  0  0  0  0  0  0  0  0
  -24.0249  -25.4425   23.1100 C   0  0  0  0  0  0  0  0  0  0  0  0
  -21.2383  -24.9821   23.0607 C   0  0  0  0  0  0  0  0  0  0  0  0
  -21.0273  -18.2598   27.0182 C   0  0  0  0  0  0  0  0  0  0  0  0
  -21.0340  -17.5654   24.5498 C   0  0  0  0  0  0  0  0  0  0  0  0
  -20.1664  -17.0078   27.0942 C   0  0  0  0  0  0  0  0  0  0  0  0
  -24.1788  -30.8249   20.0391 C   0  0  0  0  0  0  0  0  0  0  0  0
  -29.7524  -12.1776   19.9338 C   0  0  0  0  0  0  0  0  0  0  0  0
  -23.4772  -30.7061   21.3883 C   0  0  0  0  0  0  0  0  0  0  0  0
  -30.1920  -13.6101   20.2417 C   0  0  0  0  0  0  0  0  0  0  0  0
  -28.3772  -12.1395   19.2709 C   0  0  0  0  0  0  0  0  0  0  0  0
  -27.7549  -14.2838   20.3141 C   0  0  0  0  0  0  0  0  0  0  0  0
  -24.3060  -29.8680   22.3692 C   0  0  1  0  0  0  0  0  0  0  0  0
  -23.1797  -26.2510   22.1093 C   0  0  1  0  0  0  0  0  0  0  0  0
  -29.1115  -14.3702   21.0341 C   0  0  2  0  0  0  0  0  0  0  0  0
  -18.6056  -23.0127   16.8767 C   0  0  0  0  0  0  0  0  0  0  0  0
  -18.8922  -26.9157   22.8420 C   0  0  0  0  0  0  0  0  0  0  0  0
  -17.1972  -26.0460   21.2175 C   0  0  0  0  0  0  0  0  0  0  0  0
  -18.6365  -27.9864   20.5964 C   0  0  0  0  0  0  0  0  0  0  0  0
  -21.6641  -25.2608   16.6150 C   0  0  0  0  0  0  0  0  0  0  0  0
  -24.1393  -12.4521   21.8218 C   0  0  0  0  0  0  0  0  0  0  0  0
  -19.6539  -25.6747   20.7099 C   0  0  1  0  0  0  0  0  0  0  0  0
  -19.4805  -24.2089   17.2184 C   0  0  2  0  0  0  0  0  0  0  0  0
  -18.6161  -26.6390   21.3506 C   0  0  0  0  0  0  0  0  0  0  0  0
  -29.1533  -16.7630   20.4383 N   0  0  0  0  0  0  0  0  0  0  0  0
  -29.5225  -15.8055   21.3060 N   0  0  0  0  0  0  0  0  0  0  0  0
  -21.3500  -16.2325   25.0905 N   0  0  0  0  0  0  0  0  0  0  0  0
  -21.7756  -25.8255   21.9816 N   0  0  0  0  0  0  0  0  0  0  0  0
  -27.3983  -12.8768   20.0733 N   0  0  0  0  0  0  0  0  0  0  0  0
  -22.6499  -14.6428   20.6668 N   0  0  0  0  0  0  0  0  0  0  0  0
  -30.7001  -15.4414   23.3287 N   0  0  0  0  0  0  0  0  0  0  0  0
  -30.3304  -19.1417   24.0796 N   0  0  0  0  0  0  0  0  0  0  0  0
  -24.1673  -28.4584   22.0721 N   0  0  0  0  0  0  0  0  0  0  0  0
  -19.4330  -25.4161   19.2912 N   0  0  0  0  0  0  0  0  0  0  0  0
  -25.3689  -12.9892   21.2827 N   0  0  0  0  0  0  0  0  0  0  0  0
  -20.7218  -24.1331   16.3972 N   0  3  0  0  0  0  0  0  0  0  0  0
  -20.8010  -14.7289   26.8279 O   0  0  0  0  0  0  0  0  0  0  0  0
  -32.2613  -18.8254   22.8838 O   0  0  0  0  0  0  0  0  0  0  0  0
  -22.1996  -28.0662   23.2541 O   0  0  0  0  0  0  0  0  0  0  0  0
  -21.5290  -26.8970   19.9317 O   0  0  0  0  0  0  0  0  0  0  0  0
  -20.3859  -23.3022   19.2667 O   0  0  0  0  0  0  0  0  0  0  0  0
  -26.0060  -11.0327   20.2711 O   0  0  0  0  0  0  0  0  0  0  0  0
  -28.9591  -22.8062   18.4395 O   0  0  0  0  0  0  0  0  0  0  0  0
  -22.0503  -20.2093   23.9722 O   0  0  0  0  0  0  0  0  0  1  0  0
  -30.0216  -27.3666   21.3512 F   0  0  0  0  0  0  0  0  0  0  0  0
  -31.4757  -23.2656   19.4876 F   0  0  0  0  0  0  0  0  0  0  0  0
  1  2  1  0  0  0  0
  1  5  2  0  0  0  0
  2  6  2  0  0  0  0
  3 10  2  0  0  0  0
  3 18  1  0  0  0  0
  4 11  1  0  0  0  0
  4 18  2  0  0  0  0
  5 20  1  0  0  0  0
  6 22  1  0  0  0  0
  7 12  2  0  0  0  0
  7 21  1  0  0  0  0
  8  9  2  0  0  0  0
  8 24  1  0  0  0  0
  9 25  1  0  0  0  0
 10 27  1  0  0  0  0
 11 27  2  0  0  0  0
 12 28  1  0  0  0  0
 13 14  2  0  0  0  0
 13 29  1  0  0  0  0
 14 30  1  0  0  0  0
 15 23  1  0  0  0  0
 15 28  2  0  0  0  0
 16 25  2  0  0  0  0
 16 26  1  0  0  0  0
 17 30  2  0  0  0  0
 17 31  1  0  0  0  0
 18 32  1  0  0  0  0
 19 32  1  0  0  0  0
 19 33  2  0  0  0  0
 19 37  1  0  0  0  0
 20 22  2  0  0  0  0
 20 42  1  0  0  0  0
 21 23  2  0  0  0  0
 21 43  1  0  0  0  0
 22 54  1  0  0  0  0
 23 44  1  0  0  0  0
 24 26  2  0  0  0  0
 24 62  1  0  0  0  0
 25 68  1  0  0  0  0
 26 71  1  0  0  0  0
 27 84  1  0  0  0  0
 28 85  1  0  0  0  0
 29 31  2  0  0  0  0
 29 84  1  0  0  0  0
 30 86  1  0  0  0  0
 31 87  1  0  0  0  0
 32 66  2  0  0  0  0
 33 67  1  0  0  0  0
 33 72  1  0  0  0  0
 34 36  2  0  0  0  0
 34 45  1  0  0  0  0
 34 46  1  0  0  0  0
 35 47  1  0  0  0  0
 35 68  1  0  0  0  0
 35 78  2  0  0  0  0
 36 85  1  0  0  0  0
 37 73  1  0  0  0  0
 37 79  2  0  0  0  0
 38 55  1  0  0  0  0
 38 74  1  0  0  0  0
 38 80  2  0  0  0  0
 39 63  1  0  0  0  0
 39 69  1  0  0  0  0
 39 81  2  0  0  0  0
 40 64  1  0  0  0  0
 40 75  1  0  0  0  0
 40 82  2  0  0  0  0
 41 70  1  0  0  0  0
 41 76  1  0  0  0  0
 41 83  2  0  0  0  0
 42 48  1  0  0  0  0
 43 55  1  0  0  0  0
 44 69  1  0  0  0  0
 45 47  1  0  0  0  0
 46 68  1  0  0  0  0
 48 50  1  0  0  0  0
 49 51  1  0  0  0  0
 49 52  1  0  0  0  0
 50 54  1  0  0  0  0
 51 56  1  0  0  0  0
 52 70  1  0  0  0  0
 53 56  1  0  0  0  0
 53 70  1  0  0  0  0
 54 74  1  0  0  0  0
 55 69  1  0  0  0  0
 56 67  1  0  0  0  0
 57 64  1  0  0  0  0
 58 65  1  0  0  0  0
 59 65  1  0  0  0  0
 60 65  1  0  0  0  0
 61 77  1  0  0  0  0
 62 76  1  0  0  0  0
 63 65  1  0  0  0  0
 63 75  1  0  0  0  0
 64 77  1  0  0  0  0
 66 67  1  0  0  0  0
M  CHG  1  77   1
M  ISO  4  36 101  41 100  76 100  85 101
M  END
> <Batch ID>
0092

> <Smiles>
CNC(C)C(=O)NC(C(=O)N1Cc2cc([101O:1][101CH:1]=C3CCC(=O)N(c4ccc(C[100NH:0][100C:0](=O)N5CCCC(n6nc(-c7ccc(Oc8ccc(F)cc8F)cc7)c(C(N)=O)c6N)C5)c(N)c4)C3)ccc2CC1C(=O)NC1CCCc2ccccc21)C(C)(C)C

> <Shape>
0.260

> <Color>
0.069

> <Negative vol penalty>
0.000

$$$$

  -OEChem-04052300343D

 89 98  0     1  0  0  0  0  0999 V2000
  -31.4097  -29.4520   17.6412 C   0  0  0  0  0  0  0  0  0  0  0  0
  -30.1301  -29.7178   17.1643 C   0  0  0  0  0  0  0  0  0  0  0  0
  -23.3585  -10.3377   22.1032 C   0  0  0  0  0  0  0  0  0  0  0  0
  -22.0914  -10.4421   20.0488 C   0  0  0  0  0  0  0  0  0  0  0  0
  -31.5765  -28.7159   18.8135 C   0  0  0  0  0  0  0  0  0  0  0  0
  -29.0165  -29.2467   17.8589 C   0  0  0  0  0  0  0  0  0  0  0  0
  -22.2353  -30.9876   19.3756 C   0  0  0  0  0  0  0  0  0  0  0  0
  -22.8148   -9.0823   22.3749 C   0  0  0  0  0  0  0  0  0  0  0  0
  -21.5476   -9.1866   20.3204 C   0  0  0  0  0  0  0  0  0  0  0  0
  -20.9479  -30.4554   19.3178 C   0  0  0  0  0  0  0  0  0  0  0  0
  -23.3058   -5.8873   21.3828 C   0  0  0  0  0  0  0  0  0  0  0  0
  -24.1725   -4.8869   21.8226 C   0  0  0  0  0  0  0  0  0  0  0  0
  -20.5406  -22.6467   21.9836 C   0  0  0  0  0  0  0  0  0  0  0  0
  -21.3554  -29.2622   21.3744 C   0  0  0  0  0  0  0  0  0  0  0  0
  -21.9642  -24.8361   22.9647 C   0  0  0  0  0  0  0  0  0  0  0  0
  -22.9050   -4.6890   23.8700 C   0  0  0  0  0  0  0  0  0  0  0  0
  -22.9968  -11.0176   20.9402 C   0  0  0  0  0  0  0  0  0  0  0  0
  -21.8241  -22.4694   22.4999 C   0  0  0  0  0  0  0  0  0  0  0  0
  -24.9188  -12.6350   20.4957 C   0  0  0  0  0  0  0  0  0  0  0  0
  -30.4642  -28.2438   19.5280 C   0  0  0  0  0  0  0  0  0  0  0  0
  -23.0976  -30.6519   20.4293 C   0  0  0  0  0  0  0  0  0  0  0  0
  -29.1686  -28.5025   19.0411 C   0  0  0  0  0  0  0  0  0  0  0  0
  -22.6523  -29.7935   21.4446 C   0  0  0  0  0  0  0  0  0  0  0  0
  -22.5359  -23.5640   22.9905 C   0  0  0  0  0  0  0  0  0  0  0  0
  -20.6806  -25.0135   22.4483 C   0  0  0  0  0  0  0  0  0  0  0  0
  -19.9688  -23.9188   21.9577 C   0  0  0  0  0  0  0  0  0  0  0  0
  -21.9093   -8.5067   21.4835 C   0  0  0  0  0  0  0  0  0  0  0  0
  -20.5088  -29.5903   20.3157 C   0  0  0  0  0  0  0  0  0  0  0  0
  -22.2387   -6.2887   22.1865 C   0  0  0  0  0  0  0  0  0  0  0  0
  -23.9721   -4.2877   23.0662 C   0  0  0  0  0  0  0  0  0  0  0  0
  -22.0383   -5.6895   23.4301 C   0  0  0  0  0  0  0  0  0  0  0  0
  -23.5578  -12.3148   20.6593 C   0  0  0  0  0  0  0  0  0  0  0  0
  -24.9263  -13.9859   20.2475 C   0  0  0  0  0  0  0  0  0  0  0  0
  -18.9602  -28.9585   22.6122 C   0  0  0  0  0  0  0  0  0  0  0  0
  -19.7299  -26.9358   21.2147 C   0  0  0  0  0  0  0  0  0  0  0  0
  -22.3943  -21.1288   22.5135 C   0  0  0  0  0  0  0  0  0  0  0  0
  -22.6292  -20.3690   21.4242 C   0  0  0  0  0  0  0  0  0  0  0  0
  -26.0732  -11.7872   20.5620 C   0  0  0  0  0  0  0  0  0  0  0  0
  -23.2236  -19.0289   21.6019 C   0  0  0  0  0  0  0  0  0  0  0  0
  -25.9121  -29.1906   20.6456 C   0  0  0  0  0  0  0  0  0  0  0  0
  -25.6823  -30.0543   23.7639 C   0  0  0  0  0  0  0  0  0  0  0  0
  -23.6821  -30.9094   26.3935 C   0  0  0  0  0  0  0  0  0  0  0  0
  -30.6955  -27.4121   20.7647 C   0  0  0  0  0  0  0  0  0  0  0  0
  -24.4739  -31.2555   20.4912 C   0  0  0  0  0  0  0  0  0  0  0  0
  -23.5321  -29.4176   22.6078 C   0  0  0  0  0  0  0  0  0  0  0  0
  -19.0348  -28.1135   23.8463 C   0  0  0  0  0  0  0  0  0  0  0  0
  -29.4553  -27.2692   21.6433 C   0  0  0  0  0  0  0  0  0  0  0  0
  -21.1626  -17.1759   19.2038 C   0  0  0  0  0  0  0  0  0  0  0  0
  -28.2370  -26.9202   20.7944 C   0  0  0  0  0  0  0  0  0  0  0  0
  -21.6909  -15.7571   19.3974 C   0  0  0  0  0  0  0  0  0  0  0  0
  -20.1732  -27.1277   23.6753 C   0  0  0  0  0  0  0  0  0  0  0  0
  -21.1734  -17.9729   20.5074 C   0  0  0  0  0  0  0  0  0  0  0  0
  -23.0343  -16.5828   21.3706 C   0  0  0  0  0  0  0  0  0  0  0  0
  -27.9354  -28.0297   19.7798 C   0  0  1  0  0  0  0  0  0  0  0  0
  -25.4463  -30.4401   21.3380 C   0  0  1  0  0  0  0  0  0  0  0  0
  -23.0764  -15.7781   20.0622 C   0  0  1  0  0  0  0  0  0  0  0  0
  -18.8711  -28.1948   21.3106 C   0  0  1  0  0  0  0  0  0  1  0  0
  -23.9134  -23.4110   23.5516 C   0  0  0  0  0  0  0  0  0  0  0  0
  -17.4123  -27.8020   21.0739 C   0  0  0  0  0  0  0  0  0  0  0  0
  -23.7798  -31.5226   28.8249 C   0  0  0  0  0  0  0  0  0  0  0  0
  -26.1626  -27.1275   24.4803 C   0  0  0  0  0  0  0  0  0  0  0  0
  -25.3175  -27.6250   26.7838 C   0  0  0  0  0  0  0  0  0  0  0  0
  -27.3654  -28.7684   25.9346 C   0  0  0  0  0  0  0  0  0  0  0  0
  -22.4836  -33.5682   25.8904 C   0  0  0  0  0  0  0  0  0  0  0  0
  -25.1059  -29.4233   25.0083 C   0  0  1  0  0  0  0  0  0  0  0  0
  -23.7682  -32.0453   27.3969 C   0  0  2  0  0  0  0  0  0  0  0  0
  -25.9717  -28.2414   25.5290 C   0  0  0  0  0  0  0  0  0  0  0  0
  -22.7586  -13.3767   20.5265 N   0  0  0  0  0  0  0  0  0  0  0  0
  -23.6201  -14.3775   20.2768 N   0  0  0  0  0  0  0  0  0  0  0  0
  -20.1094  -26.3407   22.4322 N   0  0  0  0  0  0  0  0  0  0  0  0
  -22.4936  -17.9294   21.1540 N   0  0  0  0  0  0  0  0  0  0  0  0
  -24.8714  -30.0287   22.6204 N   0  0  0  0  0  0  0  0  0  0  0  0
  -18.6673  -24.0760   21.4300 N   0  0  0  0  0  0  0  0  0  0  0  0
  -25.9226  -14.8651   20.0094 N   0  0  0  0  0  0  0  0  0  0  0  0
  -26.5179  -11.1708   19.3845 N   0  0  0  0  0  0  0  0  0  0  0  0
  -27.2760  -29.1425   20.4289 N   0  0  0  0  0  0  0  0  0  0  0  0
  -24.9310  -30.5053   25.9711 N   0  0  0  0  0  0  0  0  0  0  0  0
  -22.6041  -32.9628   27.2417 N   0  3  0  0  0  0  0  0  0  0  0  0
  -18.9127  -30.1855   22.6713 O   0  0  0  0  0  0  0  0  0  0  0  0
  -20.0196  -26.4970   20.0970 O   0  0  0  0  0  0  0  0  0  0  0  0
  -26.6822  -11.5694   21.6368 O   0  0  0  0  0  0  0  0  0  0  0  0
  -24.3297  -18.9644   22.1414 O   0  0  0  0  0  0  0  0  0  0  0  0
  -25.0948  -28.3329   20.3326 O   0  0  0  0  0  0  0  0  0  0  0  0
  -26.8076  -30.5579   23.8068 O   0  0  0  0  0  0  0  0  0  0  0  0
  -22.6141  -30.4261   26.0244 O   0  0  0  0  0  0  0  0  0  0  0  0
  -21.3787   -7.2816   21.7481 O   0  0  0  0  0  0  0  0  0  0  0  0
  -19.2530  -29.0689   20.2614 O   0  0  0  0  0  0  0  0  0  1  0  0
  -24.8036   -3.3259   23.4878 F   0  0  0  0  0  0  0  0  0  0  0  0
  -21.0143   -6.0701   24.2062 F   0  0  0  0  0  0  0  0  0  0  0  0
  1  2  1  0  0  0  0
  1  5  2  0  0  0  0
  2  6  2  0  0  0  0
  3  8  2  0  0  0  0
  3 17  1  0  0  0  0
  4  9  1  0  0  0  0
  4 17  2  0  0  0  0
  5 20  1  0  0  0  0
  6 22  1  0  0  0  0
  7 10  2  0  0  0  0
  7 21  1  0  0  0  0
  8 27  1  0  0  0  0
  9 27  2  0  0  0  0
 10 28  1  0  0  0  0
 11 12  2  0  0  0  0
 11 29  1  0  0  0  0
 12 30  1  0  0  0  0
 13 18  2  0  0  0  0
 13 26  1  0  0  0  0
 14 23  1  0  0  0  0
 14 28  2  0  0  0  0
 15 24  2  0  0  0  0
 15 25  1  0  0  0  0
 16 30  2  0  0  0  0
 16 31  1  0  0  0  0
 17 32  1  0  0  0  0
 18 24  1  0  0  0  0
 18 36  1  0  0  0  0
 19 32  1  0  0  0  0
 19 33  2  0  0  0  0
 19 38  1  0  0  0  0
 20 22  2  0  0  0  0
 20 43  1  0  0  0  0
 21 23  2  0  0  0  0
 21 44  1  0  0  0  0
 22 54  1  0  0  0  0
 23 45  1  0  0  0  0
 24 58  1  0  0  0  0
 25 26  2  0  0  0  0
 25 70  1  0  0  0  0
 26 73  1  0  0  0  0
 27 86  1  0  0  0  0
 28 87  1  0  0  0  0
 29 31  2  0  0  0  0
 29 86  1  0  0  0  0
 30 88  1  0  0  0  0
 31 89  1  0  0  0  0
 32 68  2  0  0  0  0
 33 69  1  0  0  0  0
 33 74  1  0  0  0  0
 34 46  1  0  0  0  0
 34 57  1  0  0  0  0
 34 79  2  0  0  0  0
 35 57  1  0  0  0  0
 35 70  1  0  0  0  0
 35 80  2  0  0  0  0
 36 37  2  0  0  0  0
 37 39  1  0  0  0  0
 38 75  1  0  0  0  0
 38 81  2  0  0  0  0
 39 71  1  0  0  0  0
 39 82  2  0  0  0  0
 40 55  1  0  0  0  0
 40 76  1  0  0  0  0
 40 83  2  0  0  0  0
 41 65  1  0  0  0  0
 41 72  1  0  0  0  0
 41 84  2  0  0  0  0
 42 66  1  0  0  0  0
 42 77  1  0  0  0  0
 42 85  2  0  0  0  0
 43 47  1  0  0  0  0
 44 55  1  0  0  0  0
 45 72  1  0  0  0  0
 46 51  1  0  0  0  0
 47 49  1  0  0  0  0
 48 50  1  0  0  0  0
 48 52  1  0  0  0  0
 49 54  1  0  0  0  0
 50 56  1  0  0  0  0
 51 70  1  0  0  0  0
 52 71  1  0  0  0  0
 53 56  1  0  0  0  0
 53 71  1  0  0  0  0
 54 76  1  0  0  0  0
 55 72  1  0  0  0  0
 56 69  1  0  0  0  0
 57 59  1  0  0  0  0
 57 87  1  0  0  0  0
 60 66  1  0  0  0  0
 61 67  1  0  0  0  0
 62 67  1  0  0  0  0
 63 67  1  0  0  0  0
 64 78  1  0  0  0  0
 65 67  1  0  0  0  0
 65 77  1  0  0  0  0
 66 78  1  0  0  0  0
 68 69  1  0  0  0  0
M  CHG  1  78   1
M  ISO  4  37 100  39 100  57 101  87 101
M  END
> <Batch ID>
0092

> <Smiles>
CNC(C)C(=O)NC(C(=O)N1Cc2cc([101O:1][101C:1]3(C)C(=O)CCN(c4cc(C)c(C=[100CH:0][100C:0](=O)N5CCCC(n6nc(-c7ccc(Oc8ccc(F)cc8F)cc7)c(C(N)=O)c6N)C5)cc4N)C3=O)ccc2CC1C(=O)NC1CCCc2ccccc21)C(C)(C)C

> <Shape>
0.264

> <Color>
0.081

> <Negative vol penalty>
0.000

$$$$

  -OEChem-04052300343D

 87 96  0     1  0  0  0  0  0999 V2000
  -22.5310  -23.7121   22.4655 C   0  0  0  0  0  0  0  0  0  0  0  0
  -23.7235  -23.0019   22.3714 C   0  0  0  0  0  0  0  0  0  0  0  0
  -22.7783  -28.8471   20.8907 C   0  0  0  0  0  0  0  0  0  0  0  0
  -24.0943  -28.5428   22.8938 C   0  0  0  0  0  0  0  0  0  0  0  0
  -33.5133  -23.9205   19.0835 C   0  0  0  0  0  0  0  0  0  0  0  0
  -21.3637  -23.0624   22.8646 C   0  0  0  0  0  0  0  0  0  0  0  0
  -23.7497  -21.6417   22.6775 C   0  0  0  0  0  0  0  0  0  0  0  0
  -26.3622  -18.9370   19.2858 C   0  0  0  0  0  0  0  0  0  0  0  0
  -33.1827  -22.5749   18.9239 C   0  0  0  0  0  0  0  0  0  0  0  0
  -21.6502  -29.1020   21.6705 C   0  0  0  0  0  0  0  0  0  0  0  0
  -22.9663  -28.7977   23.6737 C   0  0  0  0  0  0  0  0  0  0  0  0
  -27.7530  -18.9764   19.3750 C   0  0  0  0  0  0  0  0  0  0  0  0
  -18.3429  -29.4786   23.1346 C   0  0  0  0  0  0  0  0  0  0  0  0
  -17.1480  -28.8572   22.7718 C   0  0  0  0  0  0  0  0  0  0  0  0
  -31.1893  -24.5236   18.8143 C   0  0  0  0  0  0  0  0  0  0  0  0
  -27.7347  -16.8472   20.5087 C   0  0  0  0  0  0  0  0  0  0  0  0
  -18.1837  -26.6942   23.0650 C   0  0  0  0  0  0  0  0  0  0  0  0
  -24.0003  -28.5675   21.5023 C   0  0  0  0  0  0  0  0  0  0  0  0
  -32.5167  -24.8949   19.0288 C   0  0  0  0  0  0  0  0  0  0  0  0
  -25.3322  -27.2709   19.7551 C   0  0  0  0  0  0  0  0  0  0  0  0
  -21.3735  -21.6915   23.1665 C   0  0  0  0  0  0  0  0  0  0  0  0
  -25.6453  -17.8557   19.8180 C   0  0  0  0  0  0  0  0  0  0  0  0
  -22.5817  -20.9734   23.0824 C   0  0  0  0  0  0  0  0  0  0  0  0
  -26.3350  -16.7952   20.4227 C   0  0  0  0  0  0  0  0  0  0  0  0
  -31.8554  -22.2036   18.7094 C   0  0  0  0  0  0  0  0  0  0  0  0
  -30.8587  -23.1779   18.6546 C   0  0  0  0  0  0  0  0  0  0  0  0
  -21.7442  -29.0773   23.0620 C   0  0  0  0  0  0  0  0  0  0  0  0
  -28.4393  -17.9328   19.9891 C   0  0  0  0  0  0  0  0  0  0  0  0
  -19.4583  -28.7078   23.4625 C   0  0  0  0  0  0  0  0  0  0  0  0
  -17.0684  -27.4651   22.7370 C   0  0  0  0  0  0  0  0  0  0  0  0
  -19.3787  -27.3156   23.4278 C   0  0  0  0  0  0  0  0  0  0  0  0
  -25.1659  -28.3036   20.6973 C   0  0  0  0  0  0  0  0  0  0  0  0
  -26.6033  -27.4527   19.2674 C   0  0  0  0  0  0  0  0  0  0  0  0
  -30.6551  -20.1273   19.4148 C   0  0  0  0  0  0  0  0  0  0  0  0
  -32.8694  -26.3279   19.1992 C   0  0  0  0  0  0  0  0  0  0  0  0
  -24.4194  -26.2397   19.3564 C   0  0  0  0  0  0  0  0  0  0  0  0
  -23.4537  -17.5210   22.0959 C   0  0  0  0  0  0  0  0  0  0  0  0
  -23.3622  -14.4633   21.0168 C   0  0  0  0  0  0  0  0  0  0  0  0
  -24.9530  -11.9119   19.4022 C   0  0  0  0  0  0  0  0  0  0  0  0
  -31.9953  -28.5056   19.9847 C   0  0  0  0  0  0  0  0  0  0  0  0
  -20.0965  -21.0431   23.6392 C   0  0  0  0  0  0  0  0  0  0  0  0
  -24.1471  -17.8154   19.6900 C   0  0  0  0  0  0  0  0  0  0  0  0
  -25.6135  -15.6019   20.9919 C   0  0  0  0  0  0  0  0  0  0  0  0
  -20.1313  -19.5179   23.5844 C   0  0  0  0  0  0  0  0  0  0  0  0
  -32.7347  -18.7513   17.8699 C   0  0  0  0  0  0  0  0  0  0  0  0
  -29.8399  -31.3045   19.8522 C   0  0  0  0  0  0  0  0  0  0  0  0
  -21.4339  -18.9920   24.1789 C   0  0  0  0  0  0  0  0  0  0  0  0
  -31.8670  -18.0132   18.8878 C   0  0  0  0  0  0  0  0  0  0  0  0
  -28.4427  -30.6903   19.9746 C   0  0  0  0  0  0  0  0  0  0  0  0
  -32.1034  -20.0635   17.4179 C   0  0  0  0  0  0  0  0  0  0  0  0
  -30.8578  -30.5782   20.7304 C   0  0  0  0  0  0  0  0  0  0  0  0
  -29.5199  -28.5132   20.6702 C   0  0  0  0  0  0  0  0  0  0  0  0
  -22.6452  -19.4914   23.3821 C   0  0  1  0  0  0  0  0  0  0  0  0
  -30.4921  -18.6522   19.0502 C   0  0  1  0  0  0  0  0  0  1  0  0
  -23.4832  -16.9105   20.7233 C   0  0  1  0  0  0  0  0  0  0  0  0
  -28.4737  -29.1650   19.7516 C   0  0  1  0  0  0  0  0  0  0  0  0
  -24.6392   -9.5211   18.7073 C   0  0  0  0  0  0  0  0  0  0  0  0
  -23.8489  -13.5661   23.8922 C   0  0  0  0  0  0  0  0  0  0  0  0
  -24.4658  -11.3061   23.0090 C   0  0  0  0  0  0  0  0  0  0  0  0
  -22.1659  -12.2007   22.6441 C   0  0  0  0  0  0  0  0  0  0  0  0
  -25.2306  -12.5878   16.5343 C   0  0  0  0  0  0  0  0  0  0  0  0
  -24.1002  -13.1893   21.3504 C   0  0  1  0  0  0  0  0  0  0  0  0
  -24.4943  -10.9782   18.2966 C   0  0  2  0  0  0  0  0  0  0  0  0
  -23.6589  -12.5888   22.7150 C   0  0  0  0  0  0  0  0  0  0  0  0
  -26.2450  -29.0835   20.8035 N   0  0  0  0  0  0  0  0  0  0  0  0
  -27.1017  -28.5405   19.9218 N   0  0  0  0  0  0  0  0  0  0  0  0
  -31.5385  -20.8101   18.5490 N   0  0  0  0  0  0  0  0  0  0  0  0
  -24.1483  -15.6119   20.8478 N   0  0  0  0  0  0  0  0  0  0  0  0
  -30.8316  -29.1413   20.4517 N   0  0  0  0  0  0  0  0  0  0  0  0
  -29.5076  -22.8248   18.4394 N   0  0  0  0  0  0  0  0  0  0  0  0
  -27.3320  -26.7863   18.3469 N   0  0  0  0  0  0  0  0  0  0  0  0
  -23.5500  -26.4939   18.2869 N   0  0  0  0  0  0  0  0  0  0  0  0
  -31.8561  -27.1411   19.7074 N   0  0  0  0  0  0  0  0  0  0  0  0
  -22.7930  -18.7330   22.1585 N   0  0  0  0  0  0  0  0  0  0  0  0
  -23.9063  -12.2956   20.2137 N   0  0  0  0  0  0  0  0  0  0  0  0
  -25.3000  -11.2012   17.0629 N   0  3  0  0  0  0  0  0  0  0  0  0
  -30.0801  -20.5934   20.3968 O   0  0  0  0  0  0  0  0  0  0  0  0
  -34.0084  -26.6995   18.9302 O   0  0  0  0  0  0  0  0  0  0  0  0
  -24.3647  -25.1318   19.9421 O   0  0  0  0  0  0  0  0  0  0  0  0
  -23.9894  -16.9350   23.0294 O   0  0  0  0  0  0  0  0  0  0  0  0
  -22.1342  -14.4387   20.9030 O   0  0  0  0  0  0  0  0  0  0  0  0
  -26.1234  -12.2627   19.5351 O   0  0  0  0  0  0  0  0  0  0  0  0
  -33.0564  -29.1083   19.7945 O   0  0  0  0  0  0  0  0  0  0  0  0
  -20.6437  -29.3261   23.8232 O   0  0  0  0  0  0  0  0  0  0  0  0
  -29.7967  -17.9691   20.0780 O   0  0  0  0  0  0  0  0  0  1  0  0
  -15.9203  -26.8685   22.3901 F   0  0  0  0  0  0  0  0  0  0  0  0
  -20.4465  -26.5698   23.7429 F   0  0  0  0  0  0  0  0  0  0  0  0
  1  2  1  0  0  0  0
  1  6  2  0  0  0  0
  2  7  2  0  0  0  0
  3 10  2  0  0  0  0
  3 18  1  0  0  0  0
  4 11  1  0  0  0  0
  4 18  2  0  0  0  0
  5  9  2  0  0  0  0
  5 19  1  0  0  0  0
  6 21  1  0  0  0  0
  7 23  1  0  0  0  0
  8 12  2  0  0  0  0
  8 22  1  0  0  0  0
  9 25  1  0  0  0  0
 10 27  1  0  0  0  0
 11 27  2  0  0  0  0
 12 28  1  0  0  0  0
 13 14  2  0  0  0  0
 13 29  1  0  0  0  0
 14 30  1  0  0  0  0
 15 19  2  0  0  0  0
 15 26  1  0  0  0  0
 16 24  1  0  0  0  0
 16 28  2  0  0  0  0
 17 30  2  0  0  0  0
 17 31  1  0  0  0  0
 18 32  1  0  0  0  0
 19 35  1  0  0  0  0
 20 32  1  0  0  0  0
 20 33  2  0  0  0  0
 20 36  1  0  0  0  0
 21 23  2  0  0  0  0
 21 41  1  0  0  0  0
 22 24  2  0  0  0  0
 22 42  1  0  0  0  0
 23 53  1  0  0  0  0
 24 43  1  0  0  0  0
 25 26  2  0  0  0  0
 25 67  1  0  0  0  0
 26 70  1  0  0  0  0
 27 84  1  0  0  0  0
 28 85  1  0  0  0  0
 29 31  2  0  0  0  0
 29 84  1  0  0  0  0
 30 86  1  0  0  0  0
 31 87  1  0  0  0  0
 32 65  2  0  0  0  0
 33 66  1  0  0  0  0
 33 71  1  0  0  0  0
 34 54  1  0  0  0  0
 34 67  1  0  0  0  0
 34 77  2  0  0  0  0
 35 73  1  0  0  0  0
 35 78  2  0  0  0  0
 36 72  1  0  0  0  0
 36 79  2  0  0  0  0
 37 55  1  0  0  0  0
 37 74  1  0  0  0  0
 37 80  2  0  0  0  0
 38 62  1  0  0  0  0
 38 68  1  0  0  0  0
 38 81  2  0  0  0  0
 39 63  1  0  0  0  0
 39 75  1  0  0  0  0
 39 82  2  0  0  0  0
 40 69  1  0  0  0  0
 40 73  1  0  0  0  0
 40 83  2  0  0  0  0
 41 44  1  0  0  0  0
 42 55  1  0  0  0  0
 43 68  1  0  0  0  0
 44 47  1  0  0  0  0
 45 48  1  0  0  0  0
 45 50  1  0  0  0  0
 46 49  1  0  0  0  0
 46 51  1  0  0  0  0
 47 53  1  0  0  0  0
 48 54  1  0  0  0  0
 49 56  1  0  0  0  0
 50 67  1  0  0  0  0
 51 69  1  0  0  0  0
 52 56  1  0  0  0  0
 52 69  1  0  0  0  0
 53 74  1  0  0  0  0
 54 85  1  0  0  0  0
 55 68  1  0  0  0  0
 56 66  1  0  0  0  0
 57 63  1  0  0  0  0
 58 64  1  0  0  0  0
 59 64  1  0  0  0  0
 60 64  1  0  0  0  0
 61 76  1  0  0  0  0
 62 64  1  0  0  0  0
 62 75  1  0  0  0  0
 63 76  1  0  0  0  0
 65 66  1  0  0  0  0
M  CHG  1  76   1
M  ISO  4  40 100  54 101  73 100  85 101
M  END
> <Batch ID>
0092

> <Smiles>
CNC(C)C(=O)NC(C(=O)N1Cc2cc([101O:1][101CH:1]3CCCN(c4ccc(C(=O)[100NH:0][100C:0](=O)N5CCCC(n6nc(-c7ccc(Oc8ccc(F)cc8F)cc7)c(C(N)=O)c6N)C5)cc4N)C3=O)ccc2CC1C(=O)NC1CCCc2ccccc21)C(C)(C)C

> <Shape>
0.217

> <Color>
0.076

> <Negative vol penalty>
0.000

$$$$

  -OEChem-04052300343D

 84 92  0     1  0  0  0  0  0999 V2000
  -26.3078  -38.0191   22.5347 C   0  0  0  0  0  0  0  0  0  0  0  0
  -27.0498  -36.9010   22.1675 C   0  0  0  0  0  0  0  0  0  0  0  0
  -22.3551   -9.3498   19.8253 C   0  0  0  0  0  0  0  0  0  0  0  0
  -23.5939   -9.4122   21.8986 C   0  0  0  0  0  0  0  0  0  0  0  0
  -25.1693  -37.8697   23.3256 C   0  0  0  0  0  0  0  0  0  0  0  0
  -26.6543  -35.6330   22.5920 C   0  0  0  0  0  0  0  0  0  0  0  0
  -27.2011  -30.3775   19.4958 C   0  0  0  0  0  0  0  0  0  0  0  0
  -22.1008   -7.9920   20.0180 C   0  0  0  0  0  0  0  0  0  0  0  0
  -23.3396   -8.0543   22.0913 C   0  0  0  0  0  0  0  0  0  0  0  0
  -28.1399  -29.3484   19.5532 C   0  0  0  0  0  0  0  0  0  0  0  0
  -20.7764   -6.1293   23.1614 C   0  0  0  0  0  0  0  0  0  0  0  0
  -20.3725   -5.7212   24.4326 C   0  0  0  0  0  0  0  0  0  0  0  0
  -26.6882  -28.1145   21.0328 C   0  0  0  0  0  0  0  0  0  0  0  0
  -22.3056   -4.2799   24.5840 C   0  0  0  0  0  0  0  0  0  0  0  0
  -23.1017  -10.0599   20.7655 C   0  0  0  0  0  0  0  0  0  0  0  0
  -22.5792  -12.5454   21.0039 C   0  0  0  0  0  0  0  0  0  0  0  0
  -24.7542  -36.5983   23.7520 C   0  0  0  0  0  0  0  0  0  0  0  0
  -26.0015  -30.2875   20.2165 C   0  0  0  0  0  0  0  0  0  0  0  0
  -25.5100  -35.4667   23.3905 C   0  0  0  0  0  0  0  0  0  0  0  0
  -25.7346  -29.1427   20.9809 C   0  0  0  0  0  0  0  0  0  0  0  0
  -22.5930   -7.3442   21.1510 C   0  0  0  0  0  0  0  0  0  0  0  0
  -27.8848  -28.2180   20.3240 C   0  0  0  0  0  0  0  0  0  0  0  0
  -21.9448   -5.6126   22.6014 C   0  0  0  0  0  0  0  0  0  0  0  0
  -21.1371   -4.7966   25.1439 C   0  0  0  0  0  0  0  0  0  0  0  0
  -22.7094   -4.6879   23.3128 C   0  0  0  0  0  0  0  0  0  0  0  0
  -23.3652  -11.4625   20.5667 C   0  0  0  0  0  0  0  0  0  0  0  0
  -23.2552  -13.6586   20.5676 C   0  0  0  0  0  0  0  0  0  0  0  0
  -28.3737  -19.2408   20.1068 C   0  0  0  0  0  0  0  0  0  0  0  0
  -28.5700  -20.6624   20.0770 C   0  0  0  0  0  0  0  0  0  0  0  0
  -29.2370  -18.4137   19.5112 C   0  0  0  0  0  0  0  0  0  0  0  0
  -29.6237  -21.2281   19.4540 C   0  0  0  0  0  0  0  0  0  0  0  0
  -30.4263  -18.9775   18.8024 C   0  0  0  0  0  0  0  0  0  0  0  0
  -21.3482  -12.5453   21.7390 C   0  0  0  0  0  0  0  0  0  0  0  0
  -24.6582  -31.9695   22.5553 C   0  0  0  0  0  0  0  0  0  0  0  0
  -29.2182  -24.8644   19.9517 C   0  0  0  0  0  0  0  0  0  0  0  0
  -22.1498  -29.9854   22.0139 C   0  0  0  0  0  0  0  0  0  0  0  0
  -21.0308  -26.9865   20.8300 C   0  0  0  0  0  0  0  0  0  0  0  0
  -28.0116  -16.4140   20.1483 C   0  0  0  0  0  0  0  0  0  0  0  0
  -23.5435  -36.4915   24.6450 C   0  0  0  0  0  0  0  0  0  0  0  0
  -24.9874  -31.3944   20.1228 C   0  0  0  0  0  0  0  0  0  0  0  0
  -24.4531  -28.9884   21.7570 C   0  0  0  0  0  0  0  0  0  0  0  0
  -22.9806  -35.0758   24.7413 C   0  0  0  0  0  0  0  0  0  0  0  0
  -27.1272  -14.1340   17.3774 C   0  0  0  0  0  0  0  0  0  0  0  0
  -24.1030  -34.0699   24.9765 C   0  0  0  0  0  0  0  0  0  0  0  0
  -26.0367  -13.2895   18.0296 C   0  0  0  0  0  0  0  0  0  0  0  0
  -28.2003  -14.5586   18.3791 C   0  0  0  0  0  0  0  0  0  0  0  0
  -26.5596  -14.4098   20.2309 C   0  0  0  0  0  0  0  0  0  0  0  0
  -25.0991  -34.0721   23.8106 C   0  0  1  0  0  0  0  0  0  0  0  0
  -24.0251  -31.4248   21.3062 C   0  0  1  0  0  0  0  0  0  0  0  0
  -25.4464  -14.0147   19.2484 C   0  0  2  0  0  0  0  0  0  0  0  0
  -18.9343  -25.6346   20.5574 C   0  0  0  0  0  0  0  0  0  0  0  0
  -22.1948  -29.3198   24.9913 C   0  0  0  0  0  0  0  0  0  0  0  0
  -20.7700  -27.3218   24.4951 C   0  0  0  0  0  0  0  0  0  0  0  0
  -19.9080  -29.6145   24.0227 C   0  0  0  0  0  0  0  0  0  0  0  0
  -31.6971  -20.9841   18.1400 C   0  0  0  0  0  0  0  0  0  0  0  0
  -21.3134  -26.9276   17.8845 C   0  0  0  0  0  0  0  0  0  0  0  0
  -28.7963  -23.4198   20.1163 C   0  0  0  0  0  0  0  0  0  0  0  0
  -28.3007  -25.8912   20.5867 C   0  0  0  0  0  0  0  0  0  1  0  0
  -21.7154  -28.6414   22.5467 C   0  0  1  0  0  0  0  0  0  0  0  0
  -19.8778  -26.6346   19.9074 C   0  0  2  0  0  0  0  0  0  0  0  0
  -21.1721  -28.7279   24.0010 C   0  0  0  0  0  0  0  0  0  0  0  0
  -24.4569  -11.8524   19.9032 N   0  0  0  0  0  0  0  0  0  0  0  0
  -24.3617  -13.1928   19.9203 N   0  0  0  0  0  0  0  0  0  0  0  0
  -30.5500  -20.3792   18.8179 N   0  0  0  0  0  0  0  0  0  0  0  0
  -23.4957  -30.1005   21.6385 N   0  0  0  0  0  0  0  0  0  0  0  0
  -27.6104  -15.1936   19.5687 N   0  0  0  0  0  0  0  0  0  0  0  0
  -23.0051  -14.9806   20.6781 N   0  0  0  0  0  0  0  0  0  0  0  0
  -20.7907  -11.3135   22.1082 N   0  0  0  0  0  0  0  0  0  0  0  0
  -29.0766  -17.0566   19.5227 N   0  0  0  0  0  0  0  0  0  0  0  0
  -29.7454  -22.5539   19.4648 N   0  0  0  0  0  0  0  0  0  0  0  0
  -24.5595  -33.3419   22.6836 N   0  0  0  0  0  0  0  0  0  0  0  0
  -20.7587  -28.1096   21.5821 N   0  0  0  0  0  0  0  0  0  0  0  0
  -20.3908  -26.0416   18.6401 N   0  3  0  0  0  0  0  0  0  0  0  0
  -31.2188  -18.2104   18.2542 O   0  0  0  0  0  0  0  0  0  0  0  0
  -20.7515  -13.6055   22.0446 O   0  0  0  0  0  0  0  0  0  0  0  0
  -25.1951  -31.2015   23.3449 O   0  0  0  0  0  0  0  0  0  0  0  0
  -30.2360  -25.1952   19.3446 O   0  0  0  0  0  0  0  0  0  0  0  0
  -21.3236  -30.8972   21.9270 O   0  0  0  0  0  0  0  0  0  0  0  0
  -22.0677  -26.3285   20.8812 O   0  0  0  0  0  0  0  0  0  0  0  0
  -27.4626  -16.8823   21.1523 O   0  0  0  0  0  0  0  0  0  0  0  0
  -22.3448   -6.0193   21.3396 O   0  0  0  0  0  0  0  0  0  0  0  0
  -28.7998  -27.2123   20.3822 O   0  0  0  0  0  0  0  0  0  1  0  0
  -20.7500   -4.4060   26.3653 F   0  0  0  0  0  0  0  0  0  0  0  0
  -23.8335   -4.1889   22.7805 F   0  0  0  0  0  0  0  0  0  0  0  0
  1  2  1  0  0  0  0
  1  5  2  0  0  0  0
  2  6  2  0  0  0  0
  3  8  2  0  0  0  0
  3 15  1  0  0  0  0
  4  9  1  0  0  0  0
  4 15  2  0  0  0  0
  5 17  1  0  0  0  0
  6 19  1  0  0  0  0
  7 10  2  0  0  0  0
  7 18  1  0  0  0  0
  8 21  1  0  0  0  0
  9 21  2  0  0  0  0
 10 22  1  0  0  0  0
 11 12  2  0  0  0  0
 11 23  1  0  0  0  0
 12 24  1  0  0  0  0
 13 20  1  0  0  0  0
 13 22  2  0  0  0  0
 14 24  2  0  0  0  0
 14 25  1  0  0  0  0
 15 26  1  0  0  0  0
 16 26  1  0  0  0  0
 16 27  2  0  0  0  0
 16 33  1  0  0  0  0
 17 19  2  0  0  0  0
 17 39  1  0  0  0  0
 18 20  2  0  0  0  0
 18 40  1  0  0  0  0
 19 48  1  0  0  0  0
 20 41  1  0  0  0  0
 21 81  1  0  0  0  0
 22 82  1  0  0  0  0
 23 25  2  0  0  0  0
 23 81  1  0  0  0  0
 24 83  1  0  0  0  0
 25 84  1  0  0  0  0
 26 62  2  0  0  0  0
 27 63  1  0  0  0  0
 27 67  1  0  0  0  0
 28 29  1  0  0  0  0
 28 30  2  0  0  0  0
 29 31  2  0  0  0  0
 30 32  1  0  0  0  0
 30 69  1  0  0  0  0
 31 64  1  0  0  0  0
 31 70  1  0  0  0  0
 32 64  1  0  0  0  0
 32 74  2  0  0  0  0
 33 68  1  0  0  0  0
 33 75  2  0  0  0  0
 34 49  1  0  0  0  0
 34 71  1  0  0  0  0
 34 76  2  0  0  0  0
 35 57  1  0  0  0  0
 35 58  1  0  0  0  0
 35 77  2  0  0  0  0
 36 59  1  0  0  0  0
 36 65  1  0  0  0  0
 36 78  2  0  0  0  0
 37 60  1  0  0  0  0
 37 72  1  0  0  0  0
 37 79  2  0  0  0  0
 38 66  1  0  0  0  0
 38 69  1  0  0  0  0
 38 80  2  0  0  0  0
 39 42  1  0  0  0  0
 40 49  1  0  0  0  0
 41 65  1  0  0  0  0
 42 44  1  0  0  0  0
 43 45  1  0  0  0  0
 43 46  1  0  0  0  0
 44 48  1  0  0  0  0
 45 50  1  0  0  0  0
 46 66  1  0  0  0  0
 47 50  1  0  0  0  0
 47 66  1  0  0  0  0
 48 71  1  0  0  0  0
 49 65  1  0  0  0  0
 50 63  1  0  0  0  0
 51 60  1  0  0  0  0
 52 61  1  0  0  0  0
 53 61  1  0  0  0  0
 54 61  1  0  0  0  0
 55 64  1  0  0  0  0
 56 73  1  0  0  0  0
 57 70  1  0  0  0  0
 58 82  1  0  0  0  0
 59 61  1  0  0  0  0
 59 72  1  0  0  0  0
 60 73  1  0  0  0  0
 62 63  1  0  0  0  0
M  CHG  1  73   1
M  ISO  4  38 100  58 101  69 100  82 101
M  END
> <Batch ID>
0092

> <Smiles>
CNC(C)C(=O)NC(C(=O)N1Cc2cc([101O:1][101CH2:1]C(=O)CNc3ccc([100NH:0][100C:0](=O)N4CCCC(n5nc(-c6ccc(Oc7ccc(F)cc7F)cc6)c(C(N)=O)c5N)C4)c(=O)n3C)ccc2CC1C(=O)NC1CCCc2ccccc21)C(C)(C)C

> <Shape>
0.377

> <Color>
0.101

> <Negative vol penalty>
0.000

$$$$

  -OEChem-04052300343D

 85 93  0     1  0  0  0  0  0999 V2000
  -29.9949  -23.7678   13.5259 C   0  0  0  0  0  0  0  0  0  0  0  0
  -29.6646  -23.1651   14.7354 C   0  0  0  0  0  0  0  0  0  0  0  0
  -29.9611  -17.9522   19.9339 C   0  0  0  0  0  0  0  0  0  0  0  0
  -28.2179  -18.3498   21.5588 C   0  0  0  0  0  0  0  0  0  0  0  0
  -30.2012  -25.1455   13.4682 C   0  0  0  0  0  0  0  0  0  0  0  0
  -29.5414  -23.9398   15.8884 C   0  0  0  0  0  0  0  0  0  0  0  0
  -25.6249  -23.0601   20.5136 C   0  0  0  0  0  0  0  0  0  0  0  0
  -29.3278  -16.7725   19.5431 C   0  0  0  0  0  0  0  0  0  0  0  0
  -27.5845  -17.1701   21.1679 C   0  0  0  0  0  0  0  0  0  0  0  0
  -25.7691  -22.4594   21.7635 C   0  0  0  0  0  0  0  0  0  0  0  0
  -28.3585  -13.4711   18.3665 C   0  0  0  0  0  0  0  0  0  0  0  0
  -29.1492  -12.3351   18.1941 C   0  0  0  0  0  0  0  0  0  0  0  0
  -26.1662  -24.6241   22.7512 C   0  0  0  0  0  0  0  0  0  0  0  0
  -32.0949  -22.4873   29.6138 C   0  0  0  0  0  0  0  0  0  0  0  0
  -29.3374  -22.5217   30.0349 C   0  0  0  0  0  0  0  0  0  0  0  0
  -29.8375  -12.4632   20.5065 C   0  0  0  0  0  0  0  0  0  0  0  0
  -29.4062  -18.7408   20.9419 C   0  0  0  0  0  0  0  0  0  0  0  0
  -29.8600  -21.2480   20.8166 C   0  0  0  0  0  0  0  0  0  0  0  0
  -30.0710  -25.9387   14.6191 C   0  0  0  0  0  0  0  0  0  0  0  0
  -25.7612  -24.4484   20.3711 C   0  0  0  0  0  0  0  0  0  0  0  0
  -29.7475  -25.3292   15.8463 C   0  0  0  0  0  0  0  0  0  0  0  0
  -26.0207  -25.2402   21.4989 C   0  0  0  0  0  0  0  0  0  0  0  0
  -31.5824  -22.8980   30.8444 C   0  0  0  0  0  0  0  0  0  0  0  0
  -31.2287  -22.0938   28.5938 C   0  0  0  0  0  0  0  0  0  0  0  0
  -30.2036  -22.9152   31.0549 C   0  0  0  0  0  0  0  0  0  0  0  0
  -28.1395  -16.3815   20.1600 C   0  0  0  0  0  0  0  0  0  0  0  0
  -26.0427  -23.2411   22.8821 C   0  0  0  0  0  0  0  0  0  0  0  0
  -28.3072  -14.1032   19.6089 C   0  0  0  0  0  0  0  0  0  0  0  0
  -29.8499  -22.1109   28.8043 C   0  0  0  0  0  0  0  0  0  0  0  0
  -29.8887  -11.8311   19.2641 C   0  0  0  0  0  0  0  0  0  0  0  0
  -29.0467  -13.5992   20.6789 C   0  0  0  0  0  0  0  0  0  0  0  0
  -30.0603  -19.9593   21.3465 C   0  0  0  0  0  0  0  0  0  0  0  0
  -30.7118  -22.0509   21.5352 C   0  0  0  0  0  0  0  0  0  0  0  0
  -28.9824  -21.6807   19.7686 C   0  0  0  0  0  0  0  0  0  0  0  0
  -27.6524  -22.2732   25.9624 C   0  0  0  0  0  0  0  0  0  0  0  0
  -28.5983  -22.7830   27.0116 C   0  0  0  0  0  0  0  0  0  0  0  0
  -27.7389  -26.3558   18.7728 C   0  0  0  0  0  0  0  0  0  0  0  0
  -25.7416  -28.6768   19.8434 C   0  0  0  0  0  0  0  0  0  0  0  0
  -23.4549  -29.6864   22.1670 C   0  0  0  0  0  0  0  0  0  0  0  0
  -33.1099  -21.6078   26.9903 C   0  0  0  0  0  0  0  0  0  0  0  0
  -30.3500  -27.4174   14.5169 C   0  0  0  0  0  0  0  0  0  0  0  0
  -25.5763  -25.0839   19.0204 C   0  0  0  0  0  0  0  0  0  0  0  0
  -26.1562  -26.7371   21.4027 C   0  0  0  0  0  0  0  0  0  0  0  0
  -29.8327  -28.2186   15.7089 C   0  0  0  0  0  0  0  0  0  0  0  0
  -34.8683  -21.9218   23.9103 C   0  0  0  0  0  0  0  0  0  0  0  0
  -30.2119  -27.5332   17.0178 C   0  0  0  0  0  0  0  0  0  0  0  0
  -33.8151  -21.5773   22.8548 C   0  0  0  0  0  0  0  0  0  0  0  0
  -34.7110  -21.0689   25.1679 C   0  0  0  0  0  0  0  0  0  0  0  0
  -32.3144  -20.7348   24.7054 C   0  0  0  0  0  0  0  0  0  0  0  0
  -29.5804  -26.1391   17.1137 C   0  0  1  0  0  0  0  0  0  0  0  0
  -26.2453  -26.4502   18.9063 C   0  0  1  0  0  0  0  0  0  0  0  0
  -32.3921  -21.6130   23.4459 C   0  0  2  0  0  0  0  0  0  0  0  0
  -22.0260  -31.6494   22.8011 C   0  0  0  0  0  0  0  0  0  0  0  0
  -28.1977  -30.1001   20.9623 C   0  0  0  0  0  0  0  0  0  0  0  0
  -26.6636  -31.4975   22.3630 C   0  0  0  0  0  0  0  0  0  0  0  0
  -26.5239  -31.6068   19.8748 C   0  0  0  0  0  0  0  0  0  0  0  0
  -20.9616  -28.1277   21.8313 C   0  0  0  0  0  0  0  0  0  0  0  0
  -27.0587  -23.2978   25.0316 C   0  0  0  0  0  0  0  0  0  1  0  0
  -25.6779  -29.5484   21.0744 C   0  0  1  0  0  0  0  0  0  0  0  0
  -22.0951  -30.3453   22.0219 C   0  0  2  0  0  0  0  0  0  0  0  0
  -26.7652  -30.6598   21.0705 C   0  0  0  0  0  0  0  0  0  0  0  0
  -30.9682  -19.9398   22.3260 N   0  0  0  0  0  0  0  0  0  0  0  0
  -31.3460  -21.2263   22.4172 N   0  0  0  0  0  0  0  0  0  0  0  0
  -25.9731  -27.3109   20.0593 N   0  0  0  0  0  0  0  0  0  0  0  0
  -33.3393  -21.1550   25.6738 N   0  0  0  0  0  0  0  0  0  0  0  0
  -32.4776  -23.2950   31.8629 N   0  0  0  0  0  0  0  0  0  0  0  0
  -29.6637  -23.3260   32.2943 N   0  0  0  0  0  0  0  0  0  0  0  0
  -30.9727  -23.3747   21.4923 N   0  0  0  0  0  0  0  0  0  0  0  0
  -28.1756  -20.7254   19.1357 N   0  0  0  0  0  0  0  0  0  0  0  0
  -31.7643  -21.6788   27.3493 N   0  0  0  0  0  0  0  0  0  0  0  0
  -28.1811  -26.2414   17.4687 N   0  0  0  0  0  0  0  0  0  0  0  0
  -24.3102  -30.0507   21.1486 N   0  0  0  0  0  0  0  0  0  0  0  0
  -21.0242  -29.4395   22.5257 N   0  3  0  0  0  0  0  0  0  0  0  0
  -28.9277  -22.8764   19.3931 O   0  0  0  0  0  0  0  0  0  0  0  0
  -27.4167  -21.0744   25.9505 O   0  0  0  0  0  0  0  0  0  0  0  0
  -28.8813  -23.9632   27.0861 O   0  0  0  0  0  0  0  0  0  0  0  0
  -28.4384  -26.3860   19.7785 O   0  0  0  0  0  0  0  0  0  0  0  0
  -25.5843  -29.1878   18.7318 O   0  0  0  0  0  0  0  0  0  0  0  0
  -23.7320  -28.9276   23.0932 O   0  0  0  0  0  0  0  0  0  0  0  0
  -34.0374  -21.9361   27.7345 O   0  0  0  0  0  0  0  0  0  0  0  0
  -27.5211  -15.2305   19.7787 O   0  0  0  0  0  0  0  0  0  0  0  0
  -28.9655  -21.7235   27.7966 O   0  0  0  0  0  0  0  0  0  0  0  0
  -26.1846  -22.6573   24.1031 O   0  0  0  0  0  0  0  0  0  1  0  0
  -30.6468  -10.7392   19.0988 F   0  0  0  0  0  0  0  0  0  0  0  0
  -29.0006  -14.2015   21.8751 F   0  0  0  0  0  0  0  0  0  0  0  0
  1  2  1  0  0  0  0
  1  5  2  0  0  0  0
  2  6  2  0  0  0  0
  3  8  2  0  0  0  0
  3 17  1  0  0  0  0
  4  9  1  0  0  0  0
  4 17  2  0  0  0  0
  5 19  1  0  0  0  0
  6 21  1  0  0  0  0
  7 10  2  0  0  0  0
  7 20  1  0  0  0  0
  8 26  1  0  0  0  0
  9 26  2  0  0  0  0
 10 27  1  0  0  0  0
 11 12  2  0  0  0  0
 11 28  1  0  0  0  0
 12 30  1  0  0  0  0
 13 22  1  0  0  0  0
 13 27  2  0  0  0  0
 14 23  2  0  0  0  0
 14 24  1  0  0  0  0
 15 25  2  0  0  0  0
 15 29  1  0  0  0  0
 16 30  2  0  0  0  0
 16 31  1  0  0  0  0
 17 32  1  0  0  0  0
 18 32  1  0  0  0  0
 18 33  2  0  0  0  0
 18 34  1  0  0  0  0
 19 21  2  0  0  0  0
 19 41  1  0  0  0  0
 20 22  2  0  0  0  0
 20 42  1  0  0  0  0
 21 50  1  0  0  0  0
 22 43  1  0  0  0  0
 23 25  1  0  0  0  0
 23 66  1  0  0  0  0
 24 29  2  0  0  0  0
 24 70  1  0  0  0  0
 25 67  1  0  0  0  0
 26 81  1  0  0  0  0
 27 83  1  0  0  0  0
 28 31  2  0  0  0  0
 28 81  1  0  0  0  0
 29 82  1  0  0  0  0
 30 84  1  0  0  0  0
 31 85  1  0  0  0  0
 32 62  2  0  0  0  0
 33 63  1  0  0  0  0
 33 68  1  0  0  0  0
 34 69  1  0  0  0  0
 34 74  2  0  0  0  0
 35 36  1  0  0  0  0
 35 58  1  0  0  0  0
 35 75  2  0  0  0  0
 36 76  2  0  0  0  0
 36 82  1  0  0  0  0
 37 51  1  0  0  0  0
 37 71  1  0  0  0  0
 37 77  2  0  0  0  0
 38 59  1  0  0  0  0
 38 64  1  0  0  0  0
 38 78  2  0  0  0  0
 39 60  1  0  0  0  0
 39 72  1  0  0  0  0
 39 79  2  0  0  0  0
 40 65  1  0  0  0  0
 40 70  1  0  0  0  0
 40 80  2  0  0  0  0
 41 44  1  0  0  0  0
 42 51  1  0  0  0  0
 43 64  1  0  0  0  0
 44 46  1  0  0  0  0
 45 47  1  0  0  0  0
 45 48  1  0  0  0  0
 46 50  1  0  0  0  0
 47 52  1  0  0  0  0
 48 65  1  0  0  0  0
 49 52  1  0  0  0  0
 49 65  1  0  0  0  0
 50 71  1  0  0  0  0
 51 64  1  0  0  0  0
 52 63  1  0  0  0  0
 53 60  1  0  0  0  0
 54 61  1  0  0  0  0
 55 61  1  0  0  0  0
 56 61  1  0  0  0  0
 57 73  1  0  0  0  0
 58 83  1  0  0  0  0
 59 61  1  0  0  0  0
 59 72  1  0  0  0  0
 60 73  1  0  0  0  0
 62 63  1  0  0  0  0
M  CHG  1  73   1
M  ISO  4  40 100  58 101  70 100  83 101
M  END
> <Batch ID>
0092

> <Smiles>
CNC(C)C(=O)NC(C(=O)N1Cc2cc([101O:1][101CH2:1]C(=O)C(=O)Oc3cc(N)c(N)cc3[100NH:0][100C:0](=O)N3CCCC(n4nc(-c5ccc(Oc6ccc(F)cc6F)cc5)c(C(N)=O)c4N)C3)ccc2CC1C(=O)NC1CCCc2ccccc21)C(C)(C)C

> <Shape>
0.190

> <Color>
0.076

> <Negative vol penalty>
0.000

$$$$

  -OEChem-04052300343D

 84 92  0     1  0  0  0  0  0999 V2000
  -17.2616  -12.2666   22.0913 C   0  0  0  0  0  0  0  0  0  0  0  0
  -17.9299  -13.4810   21.9731 C   0  0  0  0  0  0  0  0  0  0  0  0
  -32.6959  -23.0355   18.7132 C   0  0  0  0  0  0  0  0  0  0  0  0
  -23.4033  -28.9978   22.9644 C   0  0  0  0  0  0  0  0  0  0  0  0
  -22.1487  -29.9783   21.1474 C   0  0  0  0  0  0  0  0  0  0  0  0
  -32.7565  -24.4182   18.5399 C   0  0  0  0  0  0  0  0  0  0  0  0
  -17.9390  -11.1424   22.5615 C   0  0  0  0  0  0  0  0  0  0  0  0
  -19.2758  -13.5721   22.3262 C   0  0  0  0  0  0  0  0  0  0  0  0
  -23.5475  -17.0726   19.6794 C   0  0  0  0  0  0  0  0  0  0  0  0
  -31.5394  -22.4467   19.2246 C   0  0  0  0  0  0  0  0  0  0  0  0
  -22.4386  -29.4405   23.8694 C   0  0  0  0  0  0  0  0  0  0  0  0
  -21.1839  -30.4209   22.0523 C   0  0  0  0  0  0  0  0  0  0  0  0
  -24.0862  -18.3129   20.0188 C   0  0  0  0  0  0  0  0  0  0  0  0
  -18.5685  -29.1083   23.7426 C   0  0  0  0  0  0  0  0  0  0  0  0
  -17.2288  -28.9182   23.4040 C   0  0  0  0  0  0  0  0  0  0  0  0
  -30.5042  -24.6234   19.3896 C   0  0  0  0  0  0  0  0  0  0  0  0
  -25.9301  -17.2061   21.1117 C   0  0  0  0  0  0  0  0  0  0  0  0
  -16.8656  -31.3048   23.5013 C   0  0  0  0  0  0  0  0  0  0  0  0
  -23.2584  -29.2668   21.6034 C   0  0  0  0  0  0  0  0  0  0  0  0
  -31.6607  -25.2122   18.8782 C   0  0  0  0  0  0  0  0  0  0  0  0
  -24.2801  -27.5790   19.9862 C   0  0  0  0  0  0  0  0  0  0  0  0
  -19.2964  -11.2174   22.9114 C   0  0  0  0  0  0  0  0  0  0  0  0
  -24.1914  -15.8876   20.0636 C   0  0  0  0  0  0  0  0  0  0  0  0
  -19.9717  -12.4482   22.8029 C   0  0  0  0  0  0  0  0  0  0  0  0
  -25.3988  -15.9520   20.7737 C   0  0  0  0  0  0  0  0  0  0  0  0
  -30.4435  -23.2407   19.5628 C   0  0  0  0  0  0  0  0  0  0  0  0
  -21.3289  -30.1519   23.4134 C   0  0  0  0  0  0  0  0  0  0  0  0
  -25.2762  -18.3797   20.7376 C   0  0  0  0  0  0  0  0  0  0  0  0
  -19.0567  -30.3967   23.9607 C   0  0  0  0  0  0  0  0  0  0  0  0
  -16.3773  -30.0165   23.2833 C   0  0  0  0  0  0  0  0  0  0  0  0
  -18.2053  -31.4949   23.8400 C   0  0  0  0  0  0  0  0  0  0  0  0
  -24.2549  -28.8103   20.6682 C   0  0  0  0  0  0  0  0  0  0  0  0
  -25.4220  -27.6314   19.2249 C   0  0  0  0  0  0  0  0  0  0  0  0
  -31.7262  -26.6729   18.6945 C   0  0  0  0  0  0  0  0  0  0  0  0
  -27.0530  -19.8953   20.6086 C   0  0  0  0  0  0  0  0  0  1  0  0
  -23.3539  -26.4857   20.0364 C   0  0  0  0  0  0  0  0  0  0  0  0
  -27.6675  -21.0543   20.8746 C   0  0  0  0  0  0  0  0  0  0  0  0
  -29.0392  -21.2947   20.3187 C   0  0  0  0  0  0  0  0  0  0  0  0
  -23.4236  -13.4129   21.9048 C   0  0  0  0  0  0  0  0  0  0  0  0
  -26.2299  -12.2188   20.7999 C   0  0  0  0  0  0  0  0  0  0  0  0
  -29.3166  -12.8267   19.4770 C   0  0  0  0  0  0  0  0  0  0  0  0
  -30.8622  -28.8025   18.7940 C   0  0  0  0  0  0  0  0  0  0  0  0
  -19.9739   -9.9865   23.4597 C   0  0  0  0  0  0  0  0  0  0  0  0
  -23.6113  -14.5579   19.6665 C   0  0  0  0  0  0  0  0  0  0  0  0
  -26.1398  -14.7094   21.1924 C   0  0  0  0  0  0  0  0  0  0  0  0
  -21.4977  -10.0782   23.4579 C   0  0  0  0  0  0  0  0  0  0  0  0
  -28.5241  -31.4784   18.1798 C   0  0  0  0  0  0  0  0  0  0  0  0
  -21.9523  -11.4230   24.0161 C   0  0  0  0  0  0  0  0  0  0  0  0
  -27.2147  -30.9328   18.7494 C   0  0  0  0  0  0  0  0  0  0  0  0
  -29.7264  -31.0144   18.9963 C   0  0  0  0  0  0  0  0  0  0  0  0
  -28.5062  -28.9801   19.7185 C   0  0  0  0  0  0  0  0  0  0  0  0
  -21.4380  -12.5810   23.1524 C   0  0  1  0  0  0  0  0  0  0  0  0
  -24.0832  -13.4109   20.5548 C   0  0  1  0  0  0  0  0  0  0  0  0
  -27.2732  -29.4023   18.9014 C   0  0  1  0  0  0  0  0  0  0  0  0
  -31.3996  -11.6525   18.7157 C   0  0  0  0  0  0  0  0  0  0  0  0
  -27.0488  -11.7911   23.7079 C   0  0  0  0  0  0  0  0  0  0  0  0
  -29.4147  -11.5325   22.9309 C   0  0  0  0  0  0  0  0  0  0  0  0
  -27.6690   -9.9240   22.1641 C   0  0  0  0  0  0  0  0  0  0  0  0
  -29.0168  -13.8401   16.7126 C   0  0  0  0  0  0  0  0  0  0  0  0
  -27.6695  -12.2813   21.2502 C   0  0  1  0  0  0  0  0  0  0  0  0
  -30.0470  -12.2085   18.2986 C   0  0  2  0  0  0  0  0  0  0  0  0
  -27.9358  -11.4058   22.5072 C   0  0  0  0  0  0  0  0  0  0  0  0
  -25.2982  -29.5880   20.3668 N   0  0  0  0  0  0  0  0  0  0  0  0
  -30.7306  -27.4415   18.9937 N   0  0  0  0  0  0  0  0  0  0  0  0
  -25.9896  -28.8436   19.4871 N   0  0  0  0  0  0  0  0  0  0  0  0
  -25.5290  -13.4330   20.7860 N   0  0  0  0  0  0  0  0  0  0  0  0
  -29.7296  -29.5587   19.1473 N   0  0  0  0  0  0  0  0  0  0  0  0
  -25.9861  -26.7584   18.3634 N   0  0  0  0  0  0  0  0  0  0  0  0
  -22.2335  -26.5969   20.8710 N   0  0  0  0  0  0  0  0  0  0  0  0
  -29.2697  -22.6428   20.0816 N   0  0  0  0  0  0  0  0  0  0  0  0
  -22.2355  -12.7087   21.9515 N   0  0  0  0  0  0  0  0  0  0  0  0
  -28.4763  -11.9210   20.0893 N   0  0  0  0  0  0  0  0  0  0  0  0
  -30.2659  -13.2269   17.2328 N   0  3  0  0  0  0  0  0  0  0  0  0
  -23.5237  -25.4343   19.3735 O   0  0  0  0  0  0  0  0  0  0  0  0
  -29.8119  -20.3627   20.1230 O   0  0  0  0  0  0  0  0  0  0  0  0
  -23.9540  -14.0079   22.8355 O   0  0  0  0  0  0  0  0  0  0  0  0
  -25.7473  -11.1339   20.4658 O   0  0  0  0  0  0  0  0  0  0  0  0
  -29.4783  -13.9951   19.8224 O   0  0  0  0  0  0  0  0  0  0  0  0
  -31.8810  -29.3367   18.3493 O   0  0  0  0  0  0  0  0  0  0  0  0
  -27.0869  -22.0431   21.6425 O   0  0  0  0  0  0  0  0  0  0  0  0
  -20.3872  -30.5838   24.2961 O   0  0  0  0  0  0  0  0  0  0  0  0
  -25.8039  -19.5890   21.0708 O   0  0  0  0  0  0  0  0  0  1  0  0
  -15.0912  -29.8339   22.9565 F   0  0  0  0  0  0  0  0  0  0  0  0
  -18.6688  -32.7351   24.0471 F   0  0  0  0  0  0  0  0  0  0  0  0
  1  2  1  0  0  0  0
  1  7  2  0  0  0  0
  2  8  2  0  0  0  0
  3  6  1  0  0  0  0
  3 10  2  0  0  0  0
  4 11  2  0  0  0  0
  4 19  1  0  0  0  0
  5 12  1  0  0  0  0
  5 19  2  0  0  0  0
  6 20  2  0  0  0  0
  7 22  1  0  0  0  0
  8 24  1  0  0  0  0
  9 13  2  0  0  0  0
  9 23  1  0  0  0  0
 10 26  1  0  0  0  0
 11 27  1  0  0  0  0
 12 27  2  0  0  0  0
 13 28  1  0  0  0  0
 14 15  2  0  0  0  0
 14 29  1  0  0  0  0
 15 30  1  0  0  0  0
 16 20  1  0  0  0  0
 16 26  2  0  0  0  0
 17 25  1  0  0  0  0
 17 28  2  0  0  0  0
 18 30  2  0  0  0  0
 18 31  1  0  0  0  0
 19 32  1  0  0  0  0
 20 34  1  0  0  0  0
 21 32  1  0  0  0  0
 21 33  2  0  0  0  0
 21 36  1  0  0  0  0
 22 24  2  0  0  0  0
 22 43  1  0  0  0  0
 23 25  2  0  0  0  0
 23 44  1  0  0  0  0
 24 52  1  0  0  0  0
 25 45  1  0  0  0  0
 26 70  1  0  0  0  0
 27 81  1  0  0  0  0
 28 82  1  0  0  0  0
 29 31  2  0  0  0  0
 29 81  1  0  0  0  0
 30 83  1  0  0  0  0
 31 84  1  0  0  0  0
 32 63  2  0  0  0  0
 33 65  1  0  0  0  0
 33 68  1  0  0  0  0
 34 64  2  0  0  0  0
 35 37  2  0  0  0  0
 35 82  1  0  0  0  0
 36 69  1  0  0  0  0
 36 74  2  0  0  0  0
 37 38  1  0  0  0  0
 37 80  1  0  0  0  0
 38 70  1  0  0  0  0
 38 75  2  0  0  0  0
 39 53  1  0  0  0  0
 39 71  1  0  0  0  0
 39 76  2  0  0  0  0
 40 60  1  0  0  0  0
 40 66  1  0  0  0  0
 40 77  2  0  0  0  0
 41 61  1  0  0  0  0
 41 72  1  0  0  0  0
 41 78  2  0  0  0  0
 42 64  1  0  0  0  0
 42 67  1  0  0  0  0
 42 79  2  0  0  0  0
 43 46  1  0  0  0  0
 44 53  1  0  0  0  0
 45 66  1  0  0  0  0
 46 48  1  0  0  0  0
 47 49  1  0  0  0  0
 47 50  1  0  0  0  0
 48 52  1  0  0  0  0
 49 54  1  0  0  0  0
 50 67  1  0  0  0  0
 51 54  1  0  0  0  0
 51 67  1  0  0  0  0
 52 71  1  0  0  0  0
 53 66  1  0  0  0  0
 54 65  1  0  0  0  0
 55 61  1  0  0  0  0
 56 62  1  0  0  0  0
 57 62  1  0  0  0  0
 58 62  1  0  0  0  0
 59 73  1  0  0  0  0
 60 62  1  0  0  0  0
 60 72  1  0  0  0  0
 61 73  1  0  0  0  0
 63 65  1  0  0  0  0
M  CHG  1  73   1
M  ISO  4  35 101  42 100  64 100  82 101
M  END
> <Batch ID>
0092

> <Smiles>
CNC(C)C(=O)NC(C(=O)N1Cc2cc([101O:1][101CH2:1]C(=O)C(=O)Nc3cccc(C=[100N:0][100C:0](=O)N4CCCC(n5nc(-c6ccc(Oc7ccc(F)cc7F)cc6)c(C(N)=O)c5N)C4)c3)ccc2CC1C(=O)NC1CCCc2ccccc21)C(C)(C)C

> <Shape>
0.265

> <Color>
0.061

> <Negative vol penalty>
0.000

$$$$

  -OEChem-04052300343D

 84 92  0     1  0  0  0  0  0999 V2000
  -22.3309  -34.3237   14.7895 C   0  0  0  0  0  0  0  0  0  0  0  0
  -22.1773  -33.1180   15.4664 C   0  0  0  0  0  0  0  0  0  0  0  0
  -24.5723  -10.0204   22.0463 C   0  0  0  0  0  0  0  0  0  0  0  0
  -24.6746  -11.3879   24.0354 C   0  0  0  0  0  0  0  0  0  0  0  0
  -23.4945  -35.0730   14.9578 C   0  0  0  0  0  0  0  0  0  0  0  0
  -23.1879  -32.6605   16.3114 C   0  0  0  0  0  0  0  0  0  0  0  0
  -22.4889  -29.5234   21.5244 C   0  0  0  0  0  0  0  0  0  0  0  0
  -24.2057   -8.9202   22.8215 C   0  0  0  0  0  0  0  0  0  0  0  0
  -24.3079  -10.2877   24.8106 C   0  0  0  0  0  0  0  0  0  0  0  0
  -22.5745  -28.1635   21.8195 C   0  0  0  0  0  0  0  0  0  0  0  0
  -21.4087   -7.7472   24.3159 C   0  0  0  0  0  0  0  0  0  0  0  0
  -20.3581   -6.9524   23.8575 C   0  0  0  0  0  0  0  0  0  0  0  0
  -28.7195  -22.2688   21.7077 C   0  0  0  0  0  0  0  0  0  0  0  0
  -24.8626  -28.4659   22.5210 C   0  0  0  0  0  0  0  0  0  0  0  0
  -29.8981  -20.2157   21.2254 C   0  0  0  0  0  0  0  0  0  0  0  0
  -21.8375   -5.0440   23.7759 C   0  0  0  0  0  0  0  0  0  0  0  0
  -24.8069  -11.2542   22.6533 C   0  0  0  0  0  0  0  0  0  0  0  0
  -27.5025  -21.6168   21.5096 C   0  0  0  0  0  0  0  0  0  0  0  0
  -24.3285  -13.3310   21.2512 C   0  0  0  0  0  0  0  0  0  0  0  0
  -24.5157  -34.6292   15.8127 C   0  0  0  0  0  0  0  0  0  0  0  0
  -23.5948  -30.3642   21.7155 C   0  0  0  0  0  0  0  0  0  0  0  0
  -24.3668  -33.4040   16.4903 C   0  0  0  0  0  0  0  0  0  0  0  0
  -24.7877  -29.8366   22.2301 C   0  0  0  0  0  0  0  0  0  0  0  0
  -28.6810  -19.5636   21.0273 C   0  0  0  0  0  0  0  0  0  0  0  0
  -24.0735   -9.0539   24.2036 C   0  0  0  0  0  0  0  0  0  0  0  0
  -23.7624  -27.6340   22.3151 C   0  0  0  0  0  0  0  0  0  0  0  0
  -22.6737   -7.1904   24.5043 C   0  0  0  0  0  0  0  0  0  0  0  0
  -20.5725   -5.6008   23.5874 C   0  0  0  0  0  0  0  0  0  0  0  0
  -29.9174  -21.5683   21.5656 C   0  0  0  0  0  0  0  0  0  0  0  0
  -22.8881   -5.8389   24.2343 C   0  0  0  0  0  0  0  0  0  0  0  0
  -27.4832  -20.2642   21.1694 C   0  0  0  0  0  0  0  0  0  0  0  0
  -25.1862  -12.3909   21.8532 C   0  0  0  0  0  0  0  0  0  0  0  0
  -25.1724  -14.2037   20.6089 C   0  0  0  0  0  0  0  0  0  0  0  0
  -26.2398  -22.3614   21.6610 C   0  0  0  0  0  0  0  0  0  0  0  0
  -22.8969  -13.4084   21.2710 C   0  0  0  0  0  0  0  0  0  0  0  0
  -25.3965  -32.1672   19.8164 C   0  0  0  0  0  0  0  0  0  0  0  0
  -24.9913  -24.2310   22.0968 C   0  0  0  0  0  0  0  0  0  0  0  0
  -26.7228  -33.1123   22.6217 C   0  0  0  0  0  0  0  0  0  0  0  0
  -27.3711  -32.4172   25.8994 C   0  0  0  0  0  0  0  0  0  0  0  0
  -29.7645  -17.3507   20.5026 C   0  0  0  0  0  0  0  0  0  0  0  0
  -25.7756  -35.4505   15.9261 C   0  0  0  0  0  0  0  0  0  0  0  0
  -23.4780  -31.8339   21.4176 C   0  0  0  0  0  0  0  0  0  0  0  0
  -25.9974  -30.7005   22.4723 C   0  0  0  0  0  0  0  0  0  0  0  0
  -26.6386  -35.0790   17.1293 C   0  0  0  0  0  0  0  0  0  0  0  0
  -30.1406  -13.9053   19.6872 C   0  0  0  0  0  0  0  0  0  0  0  0
  -26.7901  -33.5646   17.2304 C   0  0  0  0  0  0  0  0  0  0  0  0
  -28.8146  -13.2815   20.1285 C   0  0  0  0  0  0  0  0  0  0  0  0
  -30.5917  -15.0114   20.6394 C   0  0  0  0  0  0  0  0  0  0  0  0
  -28.2665  -15.4331   21.3356 C   0  0  0  0  0  0  0  0  0  0  0  0
  -25.4300  -32.8864   17.4347 C   0  0  1  0  0  0  0  0  0  0  0  0
  -24.8264  -32.5016   21.1657 C   0  0  1  0  0  0  0  0  0  0  0  0
  -27.7387  -14.3580   20.3716 C   0  0  2  0  0  0  0  0  0  0  0  0
  -28.5073  -33.3643   27.9266 C   0  0  0  0  0  0  0  0  0  0  0  0
  -29.4377  -32.3677   21.4449 C   0  0  0  0  0  0  0  0  0  0  0  0
  -30.3799  -32.4226   23.7639 C   0  0  0  0  0  0  0  0  0  0  0  0
  -29.4189  -34.4945   22.7606 C   0  0  0  0  0  0  0  0  0  0  0  0
  -24.8409  -32.4753   27.4336 C   0  0  0  0  0  0  0  0  0  0  0  0
  -25.1304  -25.6945   22.4656 C   0  0  0  0  0  0  0  0  0  1  0  0
  -27.8687  -32.6307   23.4784 C   0  0  1  0  0  0  0  0  0  0  0  0
  -27.2001  -33.2482   27.1583 C   0  0  2  0  0  0  0  0  0  0  0  0
  -29.2543  -32.9620   22.8557 C   0  0  0  0  0  0  0  0  0  0  0  0
  -26.4760  -12.6426   21.6144 N   0  0  0  0  0  0  0  0  0  0  0  0
  -26.2192  -23.6159   21.9737 N   0  0  0  0  0  0  0  0  0  0  0  0
  -26.4350  -13.7508   20.8552 N   0  0  0  0  0  0  0  0  0  0  0  0
  -25.8355  -32.1300   22.1597 N   0  0  0  0  0  0  0  0  0  0  0  0
  -29.5232  -15.9969   20.8185 N   0  0  0  0  0  0  0  0  0  0  0  0
  -24.9501  -15.3067   19.8629 N   0  0  0  0  0  0  0  0  0  0  0  0
  -22.1846  -12.4307   21.9789 N   0  0  0  0  0  0  0  0  0  0  0  0
  -28.6651  -18.1895   20.6820 N   0  0  0  0  0  0  0  0  0  0  0  0
  -24.9977  -33.0247   18.8089 N   0  0  0  0  0  0  0  0  0  0  0  0
  -27.6567  -33.2035   24.8033 N   0  0  0  0  0  0  0  0  0  0  0  0
  -26.1822  -32.6288   28.0535 N   0  3  0  0  0  0  0  0  0  0  0  0
  -22.2674  -14.3083   20.6649 O   0  0  0  0  0  0  0  0  0  0  0  0
  -26.1442  -31.2035   19.6983 O   0  0  0  0  0  0  0  0  0  0  0  0
  -23.8893  -23.7086   21.9427 O   0  0  0  0  0  0  0  0  0  0  0  0
  -26.6148  -34.3166   22.3776 O   0  0  0  0  0  0  0  0  0  0  0  0
  -27.2659  -31.1927   25.8902 O   0  0  0  0  0  0  0  0  0  0  0  0
  -30.8574  -17.7328   20.0765 O   0  0  0  0  0  0  0  0  0  0  0  0
  -23.7155   -7.9807   24.9603 O   0  0  0  0  0  0  0  0  0  0  0  0
  -23.8488  -26.3069   22.6033 O   0  0  0  0  0  0  0  0  0  1  0  0
  -19.5632   -4.8373   23.1486 F   0  0  0  0  0  0  0  0  0  0  0  0
  -31.0861  -22.1945   21.7559 F   0  0  0  0  0  0  0  0  0  0  0  0
  -24.1009   -5.2981   24.4145 F   0  0  0  0  0  0  0  0  0  0  0  0
  -26.3123  -19.6370   20.9792 F   0  0  0  0  0  0  0  0  0  0  0  0
  1  2  1  0  0  0  0
  1  5  2  0  0  0  0
  2  6  2  0  0  0  0
  3  8  2  0  0  0  0
  3 17  1  0  0  0  0
  4  9  1  0  0  0  0
  4 17  2  0  0  0  0
  5 20  1  0  0  0  0
  6 22  1  0  0  0  0
  7 10  2  0  0  0  0
  7 21  1  0  0  0  0
  8 25  1  0  0  0  0
  9 25  2  0  0  0  0
 10 26  1  0  0  0  0
 11 12  2  0  0  0  0
 11 27  1  0  0  0  0
 12 28  1  0  0  0  0
 13 18  1  0  0  0  0
 13 29  2  0  0  0  0
 14 23  1  0  0  0  0
 14 26  2  0  0  0  0
 15 24  2  0  0  0  0
 15 29  1  0  0  0  0
 16 28  2  0  0  0  0
 16 30  1  0  0  0  0
 17 32  1  0  0  0  0
 18 31  2  0  0  0  0
 18 34  1  0  0  0  0
 19 32  1  0  0  0  0
 19 33  2  0  0  0  0
 19 35  1  0  0  0  0
 20 22  2  0  0  0  0
 20 41  1  0  0  0  0
 21 23  2  0  0  0  0
 21 42  1  0  0  0  0
 22 50  1  0  0  0  0
 23 43  1  0  0  0  0
 24 31  1  0  0  0  0
 24 69  1  0  0  0  0
 25 79  1  0  0  0  0
 26 80  1  0  0  0  0
 27 30  2  0  0  0  0
 27 79  1  0  0  0  0
 28 81  1  0  0  0  0
 29 82  1  0  0  0  0
 30 83  1  0  0  0  0
 31 84  1  0  0  0  0
 32 62  2  0  0  0  0
 33 64  1  0  0  0  0
 33 67  1  0  0  0  0
 34 63  2  0  0  0  0
 35 68  1  0  0  0  0
 35 73  2  0  0  0  0
 36 51  1  0  0  0  0
 36 70  1  0  0  0  0
 36 74  2  0  0  0  0
 37 58  1  0  0  0  0
 37 63  1  0  0  0  0
 37 75  2  0  0  0  0
 38 59  1  0  0  0  0
 38 65  1  0  0  0  0
 38 76  2  0  0  0  0
 39 60  1  0  0  0  0
 39 71  1  0  0  0  0
 39 77  2  0  0  0  0
 40 66  1  0  0  0  0
 40 69  1  0  0  0  0
 40 78  2  0  0  0  0
 41 44  1  0  0  0  0
 42 51  1  0  0  0  0
 43 65  1  0  0  0  0
 44 46  1  0  0  0  0
 45 47  1  0  0  0  0
 45 48  1  0  0  0  0
 46 50  1  0  0  0  0
 47 52  1  0  0  0  0
 48 66  1  0  0  0  0
 49 52  1  0  0  0  0
 49 66  1  0  0  0  0
 50 70  1  0  0  0  0
 51 65  1  0  0  0  0
 52 64  1  0  0  0  0
 53 60  1  0  0  0  0
 54 61  1  0  0  0  0
 55 61  1  0  0  0  0
 56 61  1  0  0  0  0
 57 72  1  0  0  0  0
 58 80  1  0  0  0  0
 59 61  1  0  0  0  0
 59 71  1  0  0  0  0
 60 72  1  0  0  0  0
 62 64  1  0  0  0  0
M  CHG  1  72   1
M  ISO  4  40 100  58 101  69 100  80 101
M  END
> <Batch ID>
0092

> <Smiles>
CNC(C)C(=O)NC(C(=O)N1Cc2cc([101O:1][101CH2:1]C(=O)N=Cc3cc(F)cc([100NH:0][100C:0](=O)N4CCCC(n5nc(-c6ccc(Oc7ccc(F)cc7F)cc6)c(C(N)=O)c5N)C4)c3F)ccc2CC1C(=O)NC1CCCc2ccccc21)C(C)(C)C

> <Shape>
0.239

> <Color>
0.104

> <Negative vol penalty>
0.000

$$$$

  -OEChem-04052300343D

 82 90  0     1  0  0  0  0  0999 V2000
  -24.9696  -30.1513   22.8511 C   0  0  0  0  0  0  0  0  0  0  0  0
  -24.3821  -28.9379   23.1946 C   0  0  0  0  0  0  0  0  0  0  0  0
  -28.7969  -12.5139   20.8763 C   0  0  0  0  0  0  0  0  0  0  0  0
  -28.2251  -12.3418   18.5353 C   0  0  0  0  0  0  0  0  0  0  0  0
  -25.6312  -30.2835   21.6310 C   0  0  0  0  0  0  0  0  0  0  0  0
  -24.4550  -27.8563   22.3176 C   0  0  0  0  0  0  0  0  0  0  0  0
  -24.9281  -21.9347   23.8068 C   0  0  0  0  0  0  0  0  0  0  0  0
  -30.1503  -12.4181   20.5529 C   0  0  0  0  0  0  0  0  0  0  0  0
  -29.5786  -12.2460   18.2118 C   0  0  0  0  0  0  0  0  0  0  0  0
  -23.9848  -20.9121   23.8974 C   0  0  0  0  0  0  0  0  0  0  0  0
  -32.3490   -9.9850   19.7339 C   0  0  0  0  0  0  0  0  0  0  0  0
  -33.1399   -9.1327   20.5043 C   0  0  0  0  0  0  0  0  0  0  0  0
  -20.7718  -14.2904   24.7120 C   0  0  0  0  0  0  0  0  0  0  0  0
  -24.5437  -20.2065   21.6593 C   0  0  0  0  0  0  0  0  0  0  0  0
  -34.5298  -11.0019   21.1454 C   0  0  0  0  0  0  0  0  0  0  0  0
  -19.3285  -13.7355   26.4473 C   0  0  0  0  0  0  0  0  0  0  0  0
  -27.8343  -12.4756   19.8676 C   0  0  0  0  0  0  0  0  0  0  0  0
  -19.9767  -13.2772   25.3215 C   0  0  0  0  0  0  0  0  0  0  0  0
  -25.6668  -13.7486   20.3024 C   0  0  0  0  0  0  0  0  0  0  0  0
  -25.7206  -29.2000   20.7428 C   0  0  0  0  0  0  0  0  0  0  0  0
  -25.6798  -22.1080   22.6358 C   0  0  0  0  0  0  0  0  0  0  0  0
  -25.1173  -27.9745   21.0839 C   0  0  0  0  0  0  0  0  0  0  0  0
  -25.4976  -21.2306   21.5573 C   0  0  0  0  0  0  0  0  0  0  0  0
  -30.5412  -12.2842   19.2206 C   0  0  0  0  0  0  0  0  0  0  0  0
  -23.7905  -20.0496   22.8225 C   0  0  0  0  0  0  0  0  0  0  0  0
  -32.6485  -11.3458   19.6692 C   0  0  0  0  0  0  0  0  0  0  0  0
  -34.2303   -9.6411   21.2101 C   0  0  0  0  0  0  0  0  0  0  0  0
  -33.7389  -11.8543   20.3750 C   0  0  0  0  0  0  0  0  0  0  0  0
  -26.4360  -12.5740   20.2011 C   0  0  0  0  0  0  0  0  0  0  0  0
  -24.4106  -13.3083   20.6408 C   0  0  0  0  0  0  0  0  0  0  0  0
  -20.7008  -15.4846   25.3951 C   0  0  0  0  0  0  0  0  0  0  0  0
  -19.8365  -11.8813   24.8332 C   0  0  0  0  0  0  0  0  0  0  0  0
  -26.0532  -15.1156   20.1080 C   0  0  0  0  0  0  0  0  0  0  0  0
  -25.9837  -24.4321   20.4887 C   0  0  0  0  0  0  0  0  0  0  0  0
  -28.3187  -22.5109   19.3144 C   0  0  0  0  0  0  0  0  0  0  0  0
  -22.1830  -17.0562   24.1038 C   0  0  0  0  0  0  0  0  0  0  0  0
  -29.6147  -19.3664   19.0329 C   0  0  0  0  0  0  0  0  0  0  0  0
  -21.0065  -10.0862   23.5953 C   0  0  0  0  0  0  0  0  0  0  0  0
  -26.4054  -29.4047   19.4147 C   0  0  0  0  0  0  0  0  0  0  0  0
  -26.7122  -23.1995   22.5638 C   0  0  0  0  0  0  0  0  0  0  0  0
  -26.2935  -21.3615   20.2853 C   0  0  0  0  0  0  0  0  0  0  0  0
  -26.7610  -28.1006   18.7054 C   0  0  0  0  0  0  0  0  0  0  0  0
  -22.4670   -8.6318   20.7232 C   0  0  0  0  0  0  0  0  0  0  0  0
  -25.5771  -27.1390   18.7310 C   0  0  0  0  0  0  0  0  0  0  0  0
  -23.5629   -9.6270   20.3321 C   0  0  0  0  0  0  0  0  0  0  0  0
  -22.3396   -8.4952   22.2398 C   0  0  0  0  0  0  0  0  0  0  0  0
  -23.2694  -10.7491   22.5769 C   0  0  0  0  0  0  0  0  0  0  0  0
  -25.1964  -26.7708   20.1700 C   0  0  1  0  0  0  0  0  0  0  0  0
  -27.0575  -23.6019   21.1333 C   0  0  1  0  0  0  0  0  0  0  0  0
  -23.3895  -10.9747   21.0610 C   0  0  1  0  0  0  0  0  0  0  0  0
  -31.5103  -18.1041   17.9792 C   0  0  0  0  0  0  0  0  0  0  0  0
  -26.9230  -22.6803   16.6064 C   0  0  0  0  0  0  0  0  0  0  0  0
  -28.2666  -20.7009   15.8682 C   0  0  0  0  0  0  0  0  0  0  0  0
  -29.4179  -22.8204   16.5047 C   0  0  0  0  0  0  0  0  0  0  0  0
  -30.6486  -18.4924   21.6647 C   0  0  0  0  0  0  0  0  0  0  0  0
  -22.6222  -18.5052   24.2032 C   0  0  0  0  0  0  0  0  0  1  0  0
  -28.3732  -21.3878   18.3071 C   0  0  1  0  0  0  0  0  0  0  0  0
  -31.0254  -18.8379   19.2198 C   0  0  2  0  0  0  0  0  0  0  0  0
  -28.2286  -21.8958   16.8447 C   0  0  0  0  0  0  0  0  0  0  0  0
  -25.7277  -11.4703   20.4547 N   0  0  0  0  0  0  0  0  0  0  0  0
  -24.5003  -11.9496   20.7188 N   0  0  0  0  0  0  0  0  0  0  0  0
  -27.2864  -22.4482   20.2612 N   0  0  0  0  0  0  0  0  0  0  0  0
  -22.1690   -9.8135   22.8534 N   0  0  0  0  0  0  0  0  0  0  0  0
  -23.2490  -13.9547   20.8762 N   0  0  0  0  0  0  0  0  0  0  0  0
  -27.3835  -15.3913   19.7636 N   0  0  0  0  0  0  0  0  0  0  0  0
  -21.3201  -16.7322   25.1453 N   0  0  0  0  0  0  0  0  0  0  0  0
  -20.9184  -11.3867   24.1044 N   0  0  0  0  0  0  0  0  0  0  0  0
  -26.1189  -25.7907   20.7019 N   0  0  0  0  0  0  0  0  0  0  0  0
  -29.6130  -20.6647   18.5686 N   0  0  0  0  0  0  0  0  0  0  0  0
  -31.0771  -17.8958   20.3734 N   0  3  0  0  0  0  0  0  0  0  0  0
  -18.8265  -11.2453   25.1220 O   0  0  0  0  0  0  0  0  0  0  0  0
  -25.2468  -16.0656   20.2520 O   0  0  0  0  0  0  0  0  0  0  0  0
  -25.0990  -23.8811   19.8443 O   0  0  0  0  0  0  0  0  0  0  0  0
  -29.1652  -23.4069   19.2675 O   0  0  0  0  0  0  0  0  0  0  0  0
  -22.5760  -16.3262   23.1998 O   0  0  0  0  0  0  0  0  0  0  0  0
  -28.6142  -18.6934   19.2712 O   0  0  0  0  0  0  0  0  0  0  0  0
  -20.1067   -9.2560   23.7584 O   0  0  0  0  0  0  0  0  0  0  0  0
  -31.8618  -12.1909   18.9046 O   0  0  0  0  0  0  0  0  0  0  0  0
  -22.8700  -19.0510   22.9081 O   0  0  0  0  0  0  0  0  0  1  0  0
  -34.9888   -8.8227   21.9510 F   0  0  0  0  0  0  0  0  0  0  0  0
  -34.0308  -13.1609   20.3177 F   0  0  0  0  0  0  0  0  0  0  0  0
  -19.6791  -15.3812   26.7654 S   0  0  0  0  0  0  0  0  0  0  0  0
  1  2  1  0  0  0  0
  1  5  2  0  0  0  0
  2  6  2  0  0  0  0
  3  8  2  0  0  0  0
  3 17  1  0  0  0  0
  4  9  1  0  0  0  0
  4 17  2  0  0  0  0
  5 20  1  0  0  0  0
  6 22  1  0  0  0  0
  7 10  2  0  0  0  0
  7 21  1  0  0  0  0
  8 24  1  0  0  0  0
  9 24  2  0  0  0  0
 10 25  1  0  0  0  0
 11 12  2  0  0  0  0
 11 26  1  0  0  0  0
 12 27  1  0  0  0  0
 13 18  1  0  0  0  0
 13 31  2  0  0  0  0
 14 23  1  0  0  0  0
 14 25  2  0  0  0  0
 15 27  2  0  0  0  0
 15 28  1  0  0  0  0
 16 18  2  0  0  0  0
 16 82  1  0  0  0  0
 17 29  1  0  0  0  0
 18 32  1  0  0  0  0
 19 29  1  0  0  0  0
 19 30  2  0  0  0  0
 19 33  1  0  0  0  0
 20 22  2  0  0  0  0
 20 39  1  0  0  0  0
 21 23  2  0  0  0  0
 21 40  1  0  0  0  0
 22 48  1  0  0  0  0
 23 41  1  0  0  0  0
 24 78  1  0  0  0  0
 25 79  1  0  0  0  0
 26 28  2  0  0  0  0
 26 78  1  0  0  0  0
 27 80  1  0  0  0  0
 28 81  1  0  0  0  0
 29 60  2  0  0  0  0
 30 61  1  0  0  0  0
 30 64  1  0  0  0  0
 31 66  1  0  0  0  0
 31 82  1  0  0  0  0
 32 67  1  0  0  0  0
 32 71  2  0  0  0  0
 33 65  1  0  0  0  0
 33 72  2  0  0  0  0
 34 49  1  0  0  0  0
 34 68  1  0  0  0  0
 34 73  2  0  0  0  0
 35 57  1  0  0  0  0
 35 62  1  0  0  0  0
 35 74  2  0  0  0  0
 36 56  1  0  0  0  0
 36 66  1  0  0  0  0
 36 75  2  0  0  0  0
 37 58  1  0  0  0  0
 37 69  1  0  0  0  0
 37 76  2  0  0  0  0
 38 63  1  0  0  0  0
 38 67  1  0  0  0  0
 38 77  2  0  0  0  0
 39 42  1  0  0  0  0
 40 49  1  0  0  0  0
 41 62  1  0  0  0  0
 42 44  1  0  0  0  0
 43 45  1  0  0  0  0
 43 46  1  0  0  0  0
 44 48  1  0  0  0  0
 45 50  1  0  0  0  0
 46 63  1  0  0  0  0
 47 50  1  0  0  0  0
 47 63  1  0  0  0  0
 48 68  1  0  0  0  0
 49 62  1  0  0  0  0
 50 61  1  0  0  0  0
 51 58  1  0  0  0  0
 52 59  1  0  0  0  0
 53 59  1  0  0  0  0
 54 59  1  0  0  0  0
 55 70  1  0  0  0  0
 56 79  1  0  0  0  0
 57 59  1  0  0  0  0
 57 69  1  0  0  0  0
 58 70  1  0  0  0  0
 60 61  1  0  0  0  0
M  CHG  1  70   1
M  ISO  4  38 100  56 101  67 100  79 101
M  END
> <Batch ID>
0092

> <Smiles>
CNC(C)C(=O)NC(C(=O)N1Cc2cc([101O:1][101CH2:1]C(=O)Nc3cc(C(=O)[100NH:0][100C:0](=O)N4CCCC(n5nc(-c6ccc(Oc7ccc(F)cc7F)cc6)c(C(N)=O)c5N)C4)cs3)ccc2CC1C(=O)NC1CCCc2ccccc21)C(C)(C)C

> <Shape>
0.203

> <Color>
0.112

> <Negative vol penalty>
0.000

$$$$

  -OEChem-04052300343D

 83 91  0     1  0  0  0  0  0999 V2000
  -31.8644  -33.4937   14.8711 C   0  0  0  0  0  0  0  0  0  0  0  0
  -31.2375  -32.2632   15.0392 C   0  0  0  0  0  0  0  0  0  0  0  0
  -23.0902   -9.9831   19.8607 C   0  0  0  0  0  0  0  0  0  0  0  0
  -24.1315   -9.6023   22.0073 C   0  0  0  0  0  0  0  0  0  0  0  0
  -32.1971  -34.2632   15.9852 C   0  0  0  0  0  0  0  0  0  0  0  0
  -30.9440  -31.8009   16.3216 C   0  0  0  0  0  0  0  0  0  0  0  0
  -26.0863  -28.4781   18.0148 C   0  0  0  0  0  0  0  0  0  0  0  0
  -22.4332   -8.7569   19.9618 C   0  0  0  0  0  0  0  0  0  0  0  0
  -23.4744   -8.3760   22.1085 C   0  0  0  0  0  0  0  0  0  0  0  0
  -25.9134  -27.1114   18.2296 C   0  0  0  0  0  0  0  0  0  0  0  0
  -20.3842   -7.2665   22.9088 C   0  0  0  0  0  0  0  0  0  0  0  0
  -19.7829   -6.9538   24.1279 C   0  0  0  0  0  0  0  0  0  0  0  0
  -31.0887  -18.9722   20.6637 C   0  0  0  0  0  0  0  0  0  0  0  0
  -30.3940  -20.1266   20.1999 C   0  0  0  0  0  0  0  0  0  0  0  0
  -26.2819  -27.4420   20.5905 C   0  0  0  0  0  0  0  0  0  0  0  0
  -21.1879   -4.9977   24.3193 C   0  0  0  0  0  0  0  0  0  0  0  0
  -23.9395  -10.4058   20.8834 C   0  0  0  0  0  0  0  0  0  0  0  0
  -24.1563  -12.9244   21.2261 C   0  0  0  0  0  0  0  0  0  0  0  0
  -31.8988  -33.8145   17.2814 C   0  0  0  0  0  0  0  0  0  0  0  0
  -26.3695  -29.3368   19.0866 C   0  0  0  0  0  0  0  0  0  0  0  0
  -31.2742  -32.5645   17.4541 C   0  0  0  0  0  0  0  0  0  0  0  0
  -26.4553  -28.8195   20.3871 C   0  0  0  0  0  0  0  0  0  0  0  0
  -22.6252   -7.9534   21.0857 C   0  0  0  0  0  0  0  0  0  0  0  0
  -26.0141  -26.5927   19.5172 C   0  0  0  0  0  0  0  0  0  0  0  0
  -21.3874   -6.4447   22.3949 C   0  0  0  0  0  0  0  0  0  0  0  0
  -20.1847   -5.8195   24.8332 C   0  0  0  0  0  0  0  0  0  0  0  0
  -21.7892   -5.3103   23.1001 C   0  0  0  0  0  0  0  0  0  0  0  0
  -24.6190  -11.6721   20.7793 C   0  0  0  0  0  0  0  0  0  0  0  0
  -30.3423  -18.2471   21.5664 C   0  0  0  0  0  0  0  0  0  0  0  0
  -25.1615  -13.7999   20.8948 C   0  0  0  0  0  0  0  0  0  0  0  0
  -29.1430  -20.2396   20.7656 C   0  0  0  0  0  0  0  0  0  0  0  0
  -26.9492  -24.4541   19.6673 C   0  0  0  0  0  0  0  0  0  1  0  0
  -22.9279  -13.2657   21.8820 C   0  0  0  0  0  0  0  0  0  0  0  0
  -26.9003  -23.1303   19.8594 C   0  0  0  0  0  0  0  0  0  0  0  0
  -28.1683  -22.3350   19.7708 C   0  0  0  0  0  0  0  0  0  0  0  0
  -28.7955  -31.2419   19.8540 C   0  0  0  0  0  0  0  0  0  0  0  0
  -26.8280  -32.1233   22.2776 C   0  0  0  0  0  0  0  0  0  0  0  0
  -24.2029  -31.3350   24.3109 C   0  0  0  0  0  0  0  0  0  0  0  0
  -30.5773  -15.1240   20.6486 C   0  0  0  0  0  0  0  0  0  0  0  0
  -32.3203  -34.6598   18.4572 C   0  0  0  0  0  0  0  0  0  0  0  0
  -26.5267  -30.8125   18.8419 C   0  0  0  0  0  0  0  0  0  0  0  0
  -26.7376  -29.7020   21.5745 C   0  0  0  0  0  0  0  0  0  0  0  0
  -31.6370  -34.2683   19.7649 C   0  0  0  0  0  0  0  0  0  0  0  0
  -29.2506  -13.1693   17.9848 C   0  0  0  0  0  0  0  0  0  0  0  0
  -31.6733  -32.7551   19.9541 C   0  0  0  0  0  0  0  0  0  0  0  0
  -27.8927  -12.7040   18.5137 C   0  0  0  0  0  0  0  0  0  0  0  0
  -30.3012  -13.2168   19.0920 C   0  0  0  0  0  0  0  0  0  0  0  0
  -28.5597  -13.5425   20.8051 C   0  0  0  0  0  0  0  0  0  0  0  0
  -30.9170  -32.0401   18.8280 C   0  0  1  0  0  0  0  0  0  0  0  0
  -27.3209  -31.5184   19.9366 C   0  0  1  0  0  0  0  0  0  0  0  0
  -27.4535  -13.5320   19.7363 C   0  0  2  0  0  0  0  0  0  0  0  0
  -22.8491  -32.2398   26.2204 C   0  0  0  0  0  0  0  0  0  0  0  0
  -29.1102  -31.4795   24.1977 C   0  0  0  0  0  0  0  0  0  0  0  0
  -27.4447  -31.4790   26.0670 C   0  0  0  0  0  0  0  0  0  0  0  0
  -27.8380  -33.5607   24.7499 C   0  0  0  0  0  0  0  0  0  0  0  0
  -21.7089  -31.2851   22.7183 C   0  0  0  0  0  0  0  0  0  0  0  0
  -30.7071  -16.9984   22.2700 C   0  0  0  0  0  0  0  0  0  0  0  0
  -26.5845  -31.6396   23.6868 C   0  0  1  0  0  0  0  0  0  0  0  0
  -22.9659  -32.1197   24.7088 C   0  0  2  0  0  0  0  0  0  0  0  0
  -27.7410  -32.0225   24.6529 C   0  0  0  0  0  0  0  0  0  0  0  0
  -25.8241  -11.7416   20.2076 N   0  0  0  0  0  0  0  0  0  0  0  0
  -26.1272  -13.0481   20.2929 N   0  0  0  0  0  0  0  0  0  0  0  0
  -26.8897  -31.1371   21.2830 N   0  0  0  0  0  0  0  0  0  0  0  0
  -29.8234  -14.0186   20.2211 N   0  0  0  0  0  0  0  0  0  0  0  0
  -25.3045  -15.1317   21.0626 N   0  0  0  0  0  0  0  0  0  0  0  0
  -22.0058  -12.2440   22.1472 N   0  0  0  0  0  0  0  0  0  0  0  0
  -28.1325  -21.2158   20.5910 N   0  0  0  0  0  0  0  0  0  0  0  0
  -29.4888  -32.1230   19.0463 N   0  0  0  0  0  0  0  0  0  0  0  0
  -25.2804  -32.1633   24.0786 N   0  0  0  0  0  0  0  0  0  0  0  0
  -30.0500  -15.8333   21.7207 N   0  0  0  0  0  0  0  0  0  0  0  0
  -21.7388  -31.4483   24.1946 N   0  3  0  0  0  0  0  0  0  0  0  0
  -22.6489  -14.4444   22.2081 O   0  0  0  0  0  0  0  0  0  0  0  0
  -29.0857  -22.6914   19.0392 O   0  0  0  0  0  0  0  0  0  0  0  0
  -29.2694  -30.2997   20.4781 O   0  0  0  0  0  0  0  0  0  0  0  0
  -26.9514  -33.3323   22.0661 O   0  0  0  0  0  0  0  0  0  0  0  0
  -24.2133  -30.1094   24.2193 O   0  0  0  0  0  0  0  0  0  0  0  0
  -31.6388  -15.4575   20.1109 O   0  0  0  0  0  0  0  0  0  0  0  0
  -25.7245  -22.4639   20.1387 O   0  0  0  0  0  0  0  0  0  0  0  0
  -21.9840   -6.7569   21.1848 O   0  0  0  0  0  0  0  0  0  0  0  0
  -25.8465  -25.2590   19.7295 O   0  0  0  0  0  0  0  0  0  1  0  0
  -19.6082   -5.5202   26.0046 F   0  0  0  0  0  0  0  0  0  0  0  0
  -22.7532   -4.5177   22.6120 F   0  0  0  0  0  0  0  0  0  0  0  0
  -28.8106  -18.9578   21.8513 S   0  0  0  0  0  0  0  0  0  0  0  0
  1  2  1  0  0  0  0
  1  5  2  0  0  0  0
  2  6  2  0  0  0  0
  3  8  2  0  0  0  0
  3 17  1  0  0  0  0
  4  9  1  0  0  0  0
  4 17  2  0  0  0  0
  5 19  1  0  0  0  0
  6 21  1  0  0  0  0
  7 10  2  0  0  0  0
  7 20  1  0  0  0  0
  8 23  1  0  0  0  0
  9 23  2  0  0  0  0
 10 24  1  0  0  0  0
 11 12  2  0  0  0  0
 11 25  1  0  0  0  0
 12 26  1  0  0  0  0
 13 14  1  0  0  0  0
 13 29  2  0  0  0  0
 14 31  2  0  0  0  0
 15 22  1  0  0  0  0
 15 24  2  0  0  0  0
 16 26  2  0  0  0  0
 16 27  1  0  0  0  0
 17 28  1  0  0  0  0
 18 28  1  0  0  0  0
 18 30  2  0  0  0  0
 18 33  1  0  0  0  0
 19 21  2  0  0  0  0
 19 40  1  0  0  0  0
 20 22  2  0  0  0  0
 20 41  1  0  0  0  0
 21 49  1  0  0  0  0
 22 42  1  0  0  0  0
 23 79  1  0  0  0  0
 24 80  1  0  0  0  0
 25 27  2  0  0  0  0
 25 79  1  0  0  0  0
 26 81  1  0  0  0  0
 27 82  1  0  0  0  0
 28 61  2  0  0  0  0
 29 57  1  0  0  0  0
 29 83  1  0  0  0  0
 30 62  1  0  0  0  0
 30 65  1  0  0  0  0
 31 67  1  0  0  0  0
 31 83  1  0  0  0  0
 32 34  2  0  0  0  0
 32 80  1  0  0  0  0
 33 66  1  0  0  0  0
 33 72  2  0  0  0  0
 34 35  1  0  0  0  0
 34 78  1  0  0  0  0
 35 67  1  0  0  0  0
 35 73  2  0  0  0  0
 36 50  1  0  0  0  0
 36 68  1  0  0  0  0
 36 74  2  0  0  0  0
 37 58  1  0  0  0  0
 37 63  1  0  0  0  0
 37 75  2  0  0  0  0
 38 59  1  0  0  0  0
 38 69  1  0  0  0  0
 38 76  2  0  0  0  0
 39 64  1  0  0  0  0
 39 70  1  0  0  0  0
 39 77  2  0  0  0  0
 40 43  1  0  0  0  0
 41 50  1  0  0  0  0
 42 63  1  0  0  0  0
 43 45  1  0  0  0  0
 44 46  1  0  0  0  0
 44 47  1  0  0  0  0
 45 49  1  0  0  0  0
 46 51  1  0  0  0  0
 47 64  1  0  0  0  0
 48 51  1  0  0  0  0
 48 64  1  0  0  0  0
 49 68  1  0  0  0  0
 50 63  1  0  0  0  0
 51 62  1  0  0  0  0
 52 59  1  0  0  0  0
 53 60  1  0  0  0  0
 54 60  1  0  0  0  0
 55 60  1  0  0  0  0
 56 71  1  0  0  0  0
 57 70  1  0  0  0  0
 58 60  1  0  0  0  0
 58 69  1  0  0  0  0
 59 71  1  0  0  0  0
 61 62  1  0  0  0  0
M  CHG  1  71   1
M  ISO  4  32 101  39 100  70 100  80 101
M  END
> <Batch ID>
0092

> <Smiles>
CNC(C)C(=O)NC(C(=O)N1Cc2cc([101O:1][101CH2:1]C(=O)C(=O)Nc3ccc(C[100NH:0][100C:0](=O)N4CCCC(n5nc(-c6ccc(Oc7ccc(F)cc7F)cc6)c(C(N)=O)c5N)C4)s3)ccc2CC1C(=O)NC1CCCc2ccccc21)C(C)(C)C

> <Shape>
0.324

> <Color>
0.180

> <Negative vol penalty>
0.000

$$$$

  -OEChem-04052300343D

 87 96  0     1  0  0  0  0  0999 V2000
  -27.3759  -17.9170   18.6160 C   0  0  0  0  0  0  0  0  0  0  0  0
  -23.9688  -35.5686   15.4984 C   0  0  0  0  0  0  0  0  0  0  0  0
  -24.3705  -34.2375   15.5455 C   0  0  0  0  0  0  0  0  0  0  0  0
  -23.8876   -8.8526   20.2538 C   0  0  0  0  0  0  0  0  0  0  0  0
  -22.9663  -10.6803   21.5375 C   0  0  0  0  0  0  0  0  0  0  0  0
  -24.2047  -36.4058   16.5881 C   0  0  0  0  0  0  0  0  0  0  0  0
  -25.0094  -33.7431   16.6821 C   0  0  0  0  0  0  0  0  0  0  0  0
  -24.5191  -28.1047   19.0216 C   0  0  0  0  0  0  0  0  0  0  0  0
  -30.2136  -19.8694   21.0572 C   0  0  0  0  0  0  0  0  0  0  0  0
  -30.1659  -18.4755   21.0372 C   0  0  0  0  0  0  0  0  0  0  0  0
  -22.9503   -7.9856   20.8154 C   0  0  0  0  0  0  0  0  0  0  0  0
  -22.0289   -9.8133   22.0991 C   0  0  0  0  0  0  0  0  0  0  0  0
  -25.3264  -26.9727   18.9182 C   0  0  0  0  0  0  0  0  0  0  0  0
  -22.5293   -6.3195   23.7259 C   0  0  0  0  0  0  0  0  0  0  0  0
  -22.9822   -5.0789   24.1744 C   0  0  0  0  0  0  0  0  0  0  0  0
  -28.3926  -19.9544   19.4717 C   0  0  0  0  0  0  0  0  0  0  0  0
  -26.3913  -27.5491   21.0046 C   0  0  0  0  0  0  0  0  0  0  0  0
  -30.1229  -24.0885   20.0958 C   0  0  0  0  0  0  0  0  0  0  0  0
  -21.4850   -3.9749   22.6328 C   0  0  0  0  0  0  0  0  0  0  0  0
  -28.3449  -18.5605   19.4517 C   0  0  0  0  0  0  0  0  0  0  0  0
  -23.8956  -10.1999   20.6148 C   0  0  0  0  0  0  0  0  0  0  0  0
  -24.7233  -11.8529   18.8570 C   0  0  0  0  0  0  0  0  0  0  0  0
  -24.8382  -35.9189   17.7423 C   0  0  0  0  0  0  0  0  0  0  0  0
  -24.6496  -28.9746   20.1137 C   0  0  0  0  0  0  0  0  0  0  0  0
  -25.2552  -34.5749   17.7877 C   0  0  0  0  0  0  0  0  0  0  0  0
  -25.5827  -28.6900   21.1208 C   0  0  0  0  0  0  0  0  0  0  0  0
  -28.7838  -24.1309   20.5563 C   0  0  0  0  0  0  0  0  0  0  0  0
  -29.3269  -20.6089   20.2744 C   0  0  0  0  0  0  0  0  0  0  0  0
  -29.2316  -17.8211   20.2345 C   0  0  0  0  0  0  0  0  0  0  0  0
  -22.0209   -8.4660   21.7380 C   0  0  0  0  0  0  0  0  0  0  0  0
  -26.2647  -26.6963   19.9083 C   0  0  0  0  0  0  0  0  0  0  0  0
  -21.5541   -6.3879   22.7309 C   0  0  0  0  0  0  0  0  0  0  0  0
  -22.4601   -3.9065   23.6279 C   0  0  0  0  0  0  0  0  0  0  0  0
  -21.0320   -5.2155   22.1843 C   0  0  0  0  0  0  0  0  0  0  0  0
  -24.8640  -11.0958   20.0355 C   0  0  0  0  0  0  0  0  0  0  0  0
  -28.3469  -22.8297   20.6710 C   0  0  0  0  0  0  0  0  0  0  0  0
  -25.9109  -12.5333   18.7422 C   0  0  0  0  0  0  0  0  0  0  0  0
  -30.4636  -22.7626   19.9430 C   0  0  0  0  0  0  0  0  0  0  0  0
  -23.6180  -11.9340   17.9474 C   0  0  0  0  0  0  0  0  0  0  0  0
  -25.4421  -32.0330   20.4629 C   0  0  0  0  0  0  0  0  0  0  0  0
  -24.6418  -31.4834   23.5581 C   0  0  0  0  0  0  0  0  0  0  0  0
  -24.2484  -29.2326   26.0930 C   0  0  0  0  0  0  0  0  0  0  0  0
  -30.0327  -15.5466   20.9635 C   0  0  0  0  0  0  0  0  0  0  0  0
  -25.1140  -36.8738   18.8767 C   0  0  0  0  0  0  0  0  0  0  0  0
  -23.7526  -30.1770   20.2240 C   0  0  0  0  0  0  0  0  0  0  0  0
  -25.7480  -29.5813   22.3236 C   0  0  0  0  0  0  0  0  0  0  0  0
  -25.4609  -36.1762   20.1894 C   0  0  0  0  0  0  0  0  0  0  0  0
  -30.2663  -12.0068   21.2672 C   0  0  0  0  0  0  0  0  0  0  0  0
  -26.4856  -35.0715   19.9523 C   0  0  0  0  0  0  0  0  0  0  0  0
  -28.8700  -11.5165   20.8769 C   0  0  0  0  0  0  0  0  0  0  0  0
  -30.2089  -13.3181   22.0488 C   0  0  0  0  0  0  0  0  0  0  0  0
  -28.0535  -13.9045   21.0098 C   0  0  0  0  0  0  0  0  0  0  0  0
  -25.9290  -33.9951   19.0125 C   0  0  1  0  0  0  0  0  0  0  0  0
  -24.3265  -31.2704   21.1199 C   0  0  1  0  0  0  0  0  0  0  0  0
  -28.0639  -12.6203   20.1646 C   0  0  2  0  0  0  0  0  0  0  0  0
  -27.0315  -22.3102   21.1082 C   0  0  0  0  0  0  0  0  0  0  0  0
  -23.6210  -29.0871   28.5184 C   0  0  0  0  0  0  0  0  0  0  0  0
  -27.3842  -32.5756   24.3304 C   0  0  0  0  0  0  0  0  0  0  0  0
  -27.0813  -31.5434   26.5912 C   0  0  0  0  0  0  0  0  0  0  0  0
  -25.5107  -33.3177   25.8116 C   0  0  0  0  0  0  0  0  0  0  0  0
  -21.9275  -27.4919   25.5079 C   0  0  0  0  0  0  0  0  0  0  0  0
  -27.9945  -25.3703   20.8599 C   0  0  0  0  0  0  0  0  0  1  0  0
  -25.3820  -31.0105   24.7859 C   0  0  1  0  0  0  0  0  0  0  0  0
  -23.1188  -29.0195   27.0846 C   0  0  2  0  0  0  0  0  0  0  0  0
  -26.3380  -32.0958   25.3563 C   0  0  0  0  0  0  0  0  0  0  0  0
  -26.5908  -17.3956   17.9389 N   0  0  0  0  0  0  0  0  0  0  0  0
  -26.0477  -11.2777   20.6270 N   0  0  0  0  0  0  0  0  0  0  0  0
  -29.3762  -22.0065   20.2952 N   0  0  0  0  0  0  0  0  0  0  0  0
  -26.6616  -12.1568   19.8168 N   0  0  0  0  0  0  0  0  0  0  0  0
  -24.8522  -30.7481   22.3829 N   0  0  0  0  0  0  0  0  0  0  0  0
  -29.4331  -14.3176   21.3112 N   0  0  0  0  0  0  0  0  0  0  0  0
  -26.3759  -13.4109   17.8278 N   0  0  0  0  0  0  0  0  0  0  0  0
  -22.4748  -11.1687   18.2153 N   0  0  0  0  0  0  0  0  0  0  0  0
  -29.2090  -16.4043   20.2351 N   0  0  0  0  0  0  0  0  0  0  0  0
  -25.0205  -33.1227   19.7252 N   0  0  0  0  0  0  0  0  0  0  0  0
  -24.3636  -30.5570   25.7270 N   0  0  0  0  0  0  0  0  0  0  0  0
  -22.4861  -27.6873   26.8705 N   0  3  0  0  0  0  0  0  0  0  0  0
  -23.6496  -12.6510   16.9186 O   0  0  0  0  0  0  0  0  0  0  0  0
  -26.5998  -31.6612   20.6154 O   0  0  0  0  0  0  0  0  0  0  0  0
  -23.8987  -32.4645   23.6404 O   0  0  0  0  0  0  0  0  0  0  0  0
  -24.9599  -28.3165   25.6869 O   0  0  0  0  0  0  0  0  0  0  0  0
  -31.2004  -15.8071   21.2644 O   0  0  0  0  0  0  0  0  0  0  0  0
  -31.5993  -22.2066   19.5383 O   0  0  0  0  0  0  0  0  0  0  0  0
  -21.1060   -7.6203   22.2861 O   0  0  0  0  0  0  0  0  0  0  0  0
  -27.0545  -25.5925   19.8095 O   0  0  0  0  0  0  0  0  0  1  0  0
  -22.8963   -2.7152   24.0577 F   0  0  0  0  0  0  0  0  0  0  0  0
  -20.0958   -5.2749   21.2273 F   0  0  0  0  0  0  0  0  0  0  0  0
  1 20  1  0  0  0  0
  1 66  3  0  0  0  0
  2  3  1  0  0  0  0
  2  6  2  0  0  0  0
  3  7  2  0  0  0  0
  4 11  2  0  0  0  0
  4 21  1  0  0  0  0
  5 12  1  0  0  0  0
  5 21  2  0  0  0  0
  6 23  1  0  0  0  0
  7 25  1  0  0  0  0
  8 13  2  0  0  0  0
  8 24  1  0  0  0  0
  9 10  2  0  0  0  0
  9 28  1  0  0  0  0
 10 29  1  0  0  0  0
 11 30  1  0  0  0  0
 12 30  2  0  0  0  0
 13 31  1  0  0  0  0
 14 15  2  0  0  0  0
 14 32  1  0  0  0  0
 15 33  1  0  0  0  0
 16 20  1  0  0  0  0
 16 28  2  0  0  0  0
 17 26  1  0  0  0  0
 17 31  2  0  0  0  0
 18 27  1  0  0  0  0
 18 38  2  0  0  0  0
 19 33  2  0  0  0  0
 19 34  1  0  0  0  0
 20 29  2  0  0  0  0
 21 35  1  0  0  0  0
 22 35  1  0  0  0  0
 22 37  2  0  0  0  0
 22 39  1  0  0  0  0
 23 25  2  0  0  0  0
 23 44  1  0  0  0  0
 24 26  2  0  0  0  0
 24 45  1  0  0  0  0
 25 53  1  0  0  0  0
 26 46  1  0  0  0  0
 27 36  2  0  0  0  0
 27 62  1  0  0  0  0
 28 68  1  0  0  0  0
 29 74  1  0  0  0  0
 30 84  1  0  0  0  0
 31 85  1  0  0  0  0
 32 34  2  0  0  0  0
 32 84  1  0  0  0  0
 33 86  1  0  0  0  0
 34 87  1  0  0  0  0
 35 67  2  0  0  0  0
 36 56  1  0  0  0  0
 36 68  1  0  0  0  0
 37 69  1  0  0  0  0
 37 72  1  0  0  0  0
 38 68  1  0  0  0  0
 38 83  1  0  0  0  0
 39 73  1  0  0  0  0
 39 78  2  0  0  0  0
 40 54  1  0  0  0  0
 40 75  1  0  0  0  0
 40 79  2  0  0  0  0
 41 63  1  0  0  0  0
 41 70  1  0  0  0  0
 41 80  2  0  0  0  0
 42 64  1  0  0  0  0
 42 76  1  0  0  0  0
 42 81  2  0  0  0  0
 43 71  1  0  0  0  0
 43 74  1  0  0  0  0
 43 82  2  0  0  0  0
 44 47  1  0  0  0  0
 45 54  1  0  0  0  0
 46 70  1  0  0  0  0
 47 49  1  0  0  0  0
 48 50  1  0  0  0  0
 48 51  1  0  0  0  0
 49 53  1  0  0  0  0
 50 55  1  0  0  0  0
 51 71  1  0  0  0  0
 52 55  1  0  0  0  0
 52 71  1  0  0  0  0
 53 75  1  0  0  0  0
 54 70  1  0  0  0  0
 55 69  1  0  0  0  0
 57 64  1  0  0  0  0
 58 65  1  0  0  0  0
 59 65  1  0  0  0  0
 60 65  1  0  0  0  0
 61 77  1  0  0  0  0
 62 85  1  0  0  0  0
 63 65  1  0  0  0  0
 63 76  1  0  0  0  0
 64 77  1  0  0  0  0
 67 69  1  0  0  0  0
M  CHG  1  77   1
M  ISO  4  43 100  62 101  74 100  85 101
M  END
> <Batch ID>
0092

> <Smiles>
CNC(C)C(=O)NC(C(=O)N1Cc2cc([101O:1][101CH2:1]C3=C(C)N(c4ccc([100NH:0][100C:0](=O)N5CCCC(n6nc(-c7ccc(Oc8ccc(F)cc8F)cc7)c(C(N)=O)c6N)C5)c(C#N)c4)C(=O)C3)ccc2CC1C(=O)NC1CCCc2ccccc21)C(C)(C)C

> <Shape>
0.315

> <Color>
0.109

> <Negative vol penalty>
0.000

$$$$

  -OEChem-04052300343D

 87 96  0     1  0  0  0  0  0999 V2000
  -15.4901  -31.8698   27.1049 C   0  0  0  0  0  0  0  0  0  0  0  0
  -15.6379  -30.7157   26.3424 C   0  0  0  0  0  0  0  0  0  0  0  0
  -22.3364  -12.7553   18.0228 C   0  0  0  0  0  0  0  0  0  0  0  0
  -23.0309  -10.5158   18.6054 C   0  0  0  0  0  0  0  0  0  0  0  0
  -16.2934  -32.9804   26.8493 C   0  0  0  0  0  0  0  0  0  0  0  0
  -16.5883  -30.6718   25.3230 C   0  0  0  0  0  0  0  0  0  0  0  0
  -21.8334  -25.7342   25.3532 C   0  0  0  0  0  0  0  0  0  0  0  0
  -21.3177  -12.2322   17.2264 C   0  0  0  0  0  0  0  0  0  0  0  0
  -22.0122   -9.9927   17.8090 C   0  0  0  0  0  0  0  0  0  0  0  0
  -22.7410  -24.6895   25.1771 C   0  0  0  0  0  0  0  0  0  0  0  0
  -18.6769   -9.4993   18.0397 C   0  0  0  0  0  0  0  0  0  0  0  0
  -17.9138   -8.4578   18.5675 C   0  0  0  0  0  0  0  0  0  0  0  0
  -30.3701  -19.1515   22.3319 C   0  0  0  0  0  0  0  0  0  0  0  0
  -29.2711  -20.0235   22.5809 C   0  0  0  0  0  0  0  0  0  0  0  0
  -23.5951  -25.7537   23.1807 C   0  0  0  0  0  0  0  0  0  0  0  0
  -18.6043   -7.0288   16.7459 C   0  0  0  0  0  0  0  0  0  0  0  0
  -23.1931  -11.8970   18.7123 C   0  0  0  0  0  0  0  0  0  0  0  0
  -24.1042  -13.2872   20.6475 C   0  0  0  0  0  0  0  0  0  0  0  0
  -17.2608  -32.9468   25.8326 C   0  0  0  0  0  0  0  0  0  0  0  0
  -21.8137  -26.8016   24.4511 C   0  0  0  0  0  0  0  0  0  0  0  0
  -17.4043  -31.7834   25.0527 C   0  0  0  0  0  0  0  0  0  0  0  0
  -22.6967  -26.8091   23.3589 C   0  0  0  0  0  0  0  0  0  0  0  0
  -21.1556  -10.8510   17.1195 C   0  0  0  0  0  0  0  0  0  0  0  0
  -23.6194  -24.6991   24.0934 C   0  0  0  0  0  0  0  0  0  0  0  0
  -19.4037   -9.3055   16.8649 C   0  0  0  0  0  0  0  0  0  0  0  0
  -17.8775   -7.2225   17.9206 C   0  0  0  0  0  0  0  0  0  0  0  0
  -19.3674   -8.0703   16.2181 C   0  0  0  0  0  0  0  0  0  0  0  0
  -24.2459  -12.4367   19.5347 C   0  0  0  0  0  0  0  0  0  0  0  0
  -29.9795  -17.9973   21.6893 C   0  0  0  0  0  0  0  0  0  0  0  0
  -25.3902  -13.5107   21.0748 C   0  0  0  0  0  0  0  0  0  0  0  0
  -28.0823  -19.5027   22.1189 C   0  0  0  0  0  0  0  0  0  0  0  0
  -25.2572  -21.9031   22.4982 C   0  0  0  0  0  0  0  0  0  0  0  0
  -26.4688  -21.4232   22.1305 C   0  0  0  0  0  0  0  0  0  0  0  0
  -25.6906  -19.0912   22.2969 C   0  0  0  0  0  0  0  0  0  0  0  0
  -22.9162  -13.8269   21.2418 C   0  0  0  0  0  0  0  0  0  0  0  0
  -30.8107  -16.8455   21.2544 C   0  0  0  0  0  0  0  0  0  0  0  0
  -20.2843  -30.0865   23.4782 C   0  0  0  0  0  0  0  0  0  0  0  0
  -23.3041  -30.3323   22.9974 C   0  0  0  0  0  0  0  0  0  0  0  0
  -26.5179  -31.4174   22.6357 C   0  0  0  0  0  0  0  0  0  0  0  0
  -30.7213  -14.6602   20.0967 C   0  0  0  0  0  0  0  0  0  0  0  0
  -18.0733  -34.1883   25.5624 C   0  0  0  0  0  0  0  0  0  0  0  0
  -20.8114  -27.9178   24.5670 C   0  0  0  0  0  0  0  0  0  0  0  0
  -22.6162  -27.9608   22.3945 C   0  0  0  0  0  0  0  0  0  0  0  0
  -24.1490  -20.9636   22.8795 C   0  0  0  0  0  0  0  0  0  0  0  0
  -24.2987  -19.6546   22.1368 C   0  0  0  0  0  0  0  0  0  0  0  0
  -19.3136  -33.9311   24.7104 C   0  0  0  0  0  0  0  0  0  0  0  0
  -29.7403  -11.2820   19.7469 C   0  0  0  0  0  0  0  0  0  0  0  0
  -18.9641  -33.0594   23.5084 C   0  0  0  0  0  0  0  0  0  0  0  0
  -28.2106  -11.3470   19.7597 C   0  0  0  0  0  0  0  0  0  0  0  0
  -30.3523  -12.4671   19.0013 C   0  0  0  0  0  0  0  0  0  0  0  0
  -28.3687  -13.8506   19.4583 C   0  0  0  0  0  0  0  0  0  0  0  0
  -18.4412  -31.6886   23.9544 C   0  0  1  0  0  0  0  0  0  0  0  0
  -21.3727  -29.2811   24.1250 C   0  0  1  0  0  0  0  0  0  0  0  0
  -27.7067  -12.7166   20.2576 C   0  0  1  0  0  0  0  0  0  0  0  0
  -27.5415  -22.3549   21.6102 C   0  0  0  0  0  0  0  0  0  0  0  0
  -27.8999  -33.1018   21.3906 C   0  0  0  0  0  0  0  0  0  0  0  0
  -23.1015  -28.6287   20.4754 C   0  0  0  0  0  0  0  0  0  0  0  0
  -25.1638  -29.7666   19.6266 C   0  0  0  0  0  0  0  0  0  0  0  0
  -23.1006  -31.0966   20.0706 C   0  0  0  0  0  0  0  0  0  0  0  0
  -27.4039  -32.7162   25.1431 C   0  0  0  0  0  0  0  0  0  0  0  0
  -24.8887  -23.3595   22.5928 C   0  0  0  0  0  0  0  0  0  1  0  0
  -24.4435  -30.2049   22.0183 C   0  0  1  0  0  0  0  0  0  0  0  0
  -27.1201  -32.8106   22.6633 C   0  0  2  0  0  0  0  0  0  0  0  0
  -23.9526  -29.9106   20.5727 C   0  0  0  0  0  0  0  0  0  0  0  0
  -25.5214  -12.1402   19.2715 N   0  0  0  0  0  0  0  0  0  0  0  0
  -26.1928  -12.8082   20.2249 N   0  0  0  0  0  0  0  0  0  0  0  0
  -26.7391  -20.0340   22.1566 N   0  0  0  0  0  0  0  0  0  0  0  0
  -22.4592  -29.2239   23.1324 N   0  0  0  0  0  0  0  0  0  0  0  0
  -29.8318  -13.7255   19.5386 N   0  0  0  0  0  0  0  0  0  0  0  0
  -25.9014  -14.2378   22.0909 N   0  0  0  0  0  0  0  0  0  0  0  0
  -22.2872  -13.0967   22.2594 N   0  0  0  0  0  0  0  0  0  0  0  0
  -30.1218  -15.8108   20.6210 N   0  0  0  0  0  0  0  0  0  0  0  0
  -19.5380  -30.8385   24.3653 N   0  0  0  0  0  0  0  0  0  0  0  0
  -25.2293  -31.4276   22.1451 N   0  0  0  0  0  0  0  0  0  0  0  0
  -28.0444  -32.9525   23.8237 N   0  3  0  0  0  0  0  0  0  0  0  0
  -25.8293  -17.8816   22.4926 O   0  0  0  0  0  0  0  0  0  0  0  0
  -22.4177  -14.9162   20.8698 O   0  0  0  0  0  0  0  0  0  0  0  0
  -32.0249  -16.8827   21.4338 O   0  0  0  0  0  0  0  0  0  0  0  0
  -20.1328  -30.0317   22.2634 O   0  0  0  0  0  0  0  0  0  0  0  0
  -23.1612  -31.3867   23.6228 O   0  0  0  0  0  0  0  0  0  0  0  0
  -27.1308  -30.4193   23.0083 O   0  0  0  0  0  0  0  0  0  0  0  0
  -31.9401  -14.4702   20.1576 O   0  0  0  0  0  0  0  0  0  0  0  0
  -20.1615  -10.3403   16.3426 O   0  0  0  0  0  0  0  0  0  0  0  0
  -24.5060  -23.6783   23.9300 O   0  0  0  0  0  0  0  0  0  1  0  0
  -17.1458   -6.2220   18.4284 F   0  0  0  0  0  0  0  0  0  0  0  0
  -20.0644   -7.8778   15.0898 F   0  0  0  0  0  0  0  0  0  0  0  0
  -28.2939  -17.9683   21.3887 S   0  0  0  0  0  0  0  0  0  0  0  0
  1  2  1  0  0  0  0
  1  5  2  0  0  0  0
  2  6  2  0  0  0  0
  3  8  2  0  0  0  0
  3 17  1  0  0  0  0
  4  9  1  0  0  0  0
  4 17  2  0  0  0  0
  5 19  1  0  0  0  0
  6 21  1  0  0  0  0
  7 10  2  0  0  0  0
  7 20  1  0  0  0  0
  8 23  1  0  0  0  0
  9 23  2  0  0  0  0
 10 24  1  0  0  0  0
 11 12  2  0  0  0  0
 11 25  1  0  0  0  0
 12 26  1  0  0  0  0
 13 14  1  0  0  0  0
 13 29  2  0  0  0  0
 14 31  2  0  0  0  0
 15 22  1  0  0  0  0
 15 24  2  0  0  0  0
 16 26  2  0  0  0  0
 16 27  1  0  0  0  0
 17 28  1  0  0  0  0
 18 28  1  0  0  0  0
 18 30  2  0  0  0  0
 18 35  1  0  0  0  0
 19 21  2  0  0  0  0
 19 41  1  0  0  0  0
 20 22  2  0  0  0  0
 20 42  1  0  0  0  0
 21 52  1  0  0  0  0
 22 43  1  0  0  0  0
 23 83  1  0  0  0  0
 24 84  1  0  0  0  0
 25 27  2  0  0  0  0
 25 83  1  0  0  0  0
 26 85  1  0  0  0  0
 27 86  1  0  0  0  0
 28 65  2  0  0  0  0
 29 36  1  0  0  0  0
 29 87  1  0  0  0  0
 30 66  1  0  0  0  0
 30 70  1  0  0  0  0
 31 67  1  0  0  0  0
 31 87  1  0  0  0  0
 32 33  2  0  0  0  0
 32 44  1  0  0  0  0
 32 61  1  0  0  0  0
 33 55  1  0  0  0  0
 33 67  1  0  0  0  0
 34 45  1  0  0  0  0
 34 67  1  0  0  0  0
 34 76  2  0  0  0  0
 35 71  1  0  0  0  0
 35 77  2  0  0  0  0
 36 72  1  0  0  0  0
 36 78  2  0  0  0  0
 37 53  1  0  0  0  0
 37 73  1  0  0  0  0
 37 79  2  0  0  0  0
 38 62  1  0  0  0  0
 38 68  1  0  0  0  0
 38 80  2  0  0  0  0
 39 63  1  0  0  0  0
 39 74  1  0  0  0  0
 39 81  2  0  0  0  0
 40 69  1  0  0  0  0
 40 72  1  0  0  0  0
 40 82  2  0  0  0  0
 41 46  1  0  0  0  0
 42 53  1  0  0  0  0
 43 68  1  0  0  0  0
 44 45  1  0  0  0  0
 46 48  1  0  0  0  0
 47 49  1  0  0  0  0
 47 50  1  0  0  0  0
 48 52  1  0  0  0  0
 49 54  1  0  0  0  0
 50 69  1  0  0  0  0
 51 54  1  0  0  0  0
 51 69  1  0  0  0  0
 52 73  1  0  0  0  0
 53 68  1  0  0  0  0
 54 66  1  0  0  0  0
 56 63  1  0  0  0  0
 57 64  1  0  0  0  0
 58 64  1  0  0  0  0
 59 64  1  0  0  0  0
 60 75  1  0  0  0  0
 61 84  1  0  0  0  0
 62 64  1  0  0  0  0
 62 74  1  0  0  0  0
 63 75  1  0  0  0  0
 65 66  1  0  0  0  0
M  CHG  1  75   1
M  ISO  4  40 100  61 101  72 100  84 101
M  END
> <Batch ID>
0092

> <Smiles>
CNC(C)C(=O)NC(C(=O)N1Cc2cc([101O:1][101CH2:1]C3=C(C)N(c4ccc(C(=O)[100NH:0][100C:0](=O)N5CCCC(n6nc(-c7ccc(Oc8ccc(F)cc8F)cc7)c(C(N)=O)c6N)C5)s4)C(=O)CC3)ccc2CC1C(=O)NC1CCCc2ccccc21)C(C)(C)C

> <Shape>
0.227

> <Color>
0.094

> <Negative vol penalty>
0.000

$$$$

  -OEChem-04052300343D

 90 99  0     1  0  0  0  0  0999 V2000
  -29.2165  -35.2540   23.3212 C   0  0  0  0  0  0  0  0  0  0  0  0
  -29.1743  -33.8692   23.1941 C   0  0  0  0  0  0  0  0  0  0  0  0
  -24.1729  -15.6610   22.4040 C   0  0  0  0  0  0  0  0  0  0  0  0
  -23.4858  -15.5204   20.0920 C   0  0  0  0  0  0  0  0  0  0  0  0
  -28.0533  -35.9609   23.6229 C   0  0  0  0  0  0  0  0  0  0  0  0
  -27.9690  -33.1905   23.3697 C   0  0  0  0  0  0  0  0  0  0  0  0
  -27.1836  -29.6734   19.8119 C   0  0  0  0  0  0  0  0  0  0  0  0
  -23.4631  -16.8537   22.5424 C   0  0  0  0  0  0  0  0  0  0  0  0
  -22.7760  -16.7131   20.2304 C   0  0  0  0  0  0  0  0  0  0  0  0
  -27.8729  -28.4688   19.9442 C   0  0  0  0  0  0  0  0  0  0  0  0
  -23.8898  -20.1119   21.7507 C   0  0  0  0  0  0  0  0  0  0  0  0
  -24.5190  -21.1667   22.4117 C   0  0  0  0  0  0  0  0  0  0  0  0
  -25.8940  -27.4450   20.8687 C   0  0  0  0  0  0  0  0  0  0  0  0
  -29.2990  -23.8182   21.9840 C   0  0  0  0  0  0  0  0  0  0  0  0
  -28.1842  -19.5970   20.8678 C   0  0  0  0  0  0  0  0  0  0  0  0
  -30.4367  -18.8556   19.3984 C   0  0  0  0  0  0  0  0  0  0  0  0
  -22.7585  -21.1801   24.0662 C   0  0  0  0  0  0  0  0  0  0  0  0
  -24.1843  -14.9943   21.1787 C   0  0  0  0  0  0  0  0  0  0  0  0
  -24.4392  -12.4573   21.2564 C   0  0  0  0  0  0  0  0  0  0  0  0
  -26.8312  -35.2914   23.7928 C   0  0  0  0  0  0  0  0  0  0  0  0
  -25.8453  -29.7760   20.2177 C   0  0  0  0  0  0  0  0  0  0  0  0
  -26.7886  -33.8890   23.6753 C   0  0  0  0  0  0  0  0  0  0  0  0
  -25.1892  -28.6513   20.7381 C   0  0  0  0  0  0  0  0  0  0  0  0
  -28.0909  -23.8899   21.2475 C   0  0  0  0  0  0  0  0  0  0  0  0
  -29.1515  -20.5491   20.5462 C   0  0  0  0  0  0  0  0  0  0  0  0
  -30.2777  -20.1784   19.8114 C   0  0  0  0  0  0  0  0  0  0  0  0
  -29.4694  -17.9035   19.7201 C   0  0  0  0  0  0  0  0  0  0  0  0
  -22.7646  -17.3798   21.4556 C   0  0  0  0  0  0  0  0  0  0  0  0
  -27.2290  -27.3551   20.4754 C   0  0  0  0  0  0  0  0  0  0  0  0
  -22.6948  -19.5912   22.2474 C   0  0  0  0  0  0  0  0  0  0  0  0
  -23.9534  -21.7008   23.5695 C   0  0  0  0  0  0  0  0  0  0  0  0
  -28.3432  -18.2742   20.4548 C   0  0  0  0  0  0  0  0  0  0  0  0
  -22.1292  -20.1253   23.4052 C   0  0  0  0  0  0  0  0  0  0  0  0
  -24.9178  -13.7625   21.0350 C   0  0  0  0  0  0  0  0  0  0  0  0
  -25.5143  -11.6467   20.9853 C   0  0  0  0  0  0  0  0  0  0  0  0
  -29.8208  -22.5573   21.7967 C   0  0  0  0  0  0  0  0  0  0  0  0
  -27.9110  -22.6704   20.6327 C   0  0  0  0  0  0  0  0  0  0  0  0
  -23.1389  -12.0169   21.6701 C   0  0  0  0  0  0  0  0  0  0  0  0
  -24.2853  -31.4946   22.3895 C   0  0  0  0  0  0  0  0  0  0  0  0
  -21.6762  -30.1369   21.0214 C   0  0  0  0  0  0  0  0  0  0  0  0
  -30.3245  -16.2005   18.1179 C   0  0  0  0  0  0  0  0  0  0  0  0
  -20.3641  -27.5543   19.2172 C   0  0  0  0  0  0  0  0  0  0  0  0
  -29.3412  -15.5221   20.2309 C   0  0  0  0  0  0  0  0  0  0  0  0
  -25.6095  -36.0938   24.1647 C   0  0  0  0  0  0  0  0  0  0  0  0
  -25.1078  -31.0753   20.0435 C   0  0  0  0  0  0  0  0  0  0  0  0
  -23.7472  -28.7037   21.1698 C   0  0  0  0  0  0  0  0  0  0  0  0
  -24.2993  -35.3361   23.9657 C   0  0  0  0  0  0  0  0  0  0  0  0
  -28.1735  -12.9541   17.8474 C   0  0  0  0  0  0  0  0  0  0  0  0
  -24.4034  -33.9286   24.5444 C   0  0  0  0  0  0  0  0  0  0  0  0
  -28.0496  -11.7286   18.7450 C   0  0  0  0  0  0  0  0  0  0  0  0
  -29.3124  -13.8673   18.2888 C   0  0  0  0  0  0  0  0  0  0  0  0
  -29.0428  -13.0957   20.6430 C   0  0  0  0  0  0  0  0  0  0  0  0
  -25.4953  -33.1194   23.8341 C   0  0  1  0  0  0  0  0  0  0  0  0
  -23.9000  -31.2052   20.9663 C   0  0  1  0  0  0  0  0  0  0  0  0
  -27.9486  -12.0930   20.2340 C   0  0  1  0  0  0  0  0  0  0  0  0
  -29.9900  -17.0017   16.8784 C   0  0  0  0  0  0  0  0  0  0  0  0
  -18.1939  -26.7024   18.2887 C   0  0  0  0  0  0  0  0  0  0  0  0
  -20.8444  -29.2223   23.8110 C   0  0  0  0  0  0  0  0  0  0  0  0
  -19.2509  -27.6192   22.7343 C   0  0  0  0  0  0  0  0  0  0  0  0
  -18.9706  -30.0740   22.3905 C   0  0  0  0  0  0  0  0  0  0  0  0
  -21.3664  -27.6919   16.4360 C   0  0  0  0  0  0  0  0  0  0  0  0
  -27.1784  -25.0776   21.1583 C   0  0  0  0  0  0  0  0  0  1  0  0
  -20.8830  -28.8735   21.2531 C   0  0  1  0  0  0  0  0  0  0  0  0
  -19.4375  -27.5339   18.0149 C   0  0  2  0  0  0  0  0  0  0  0  0
  -20.0150  -28.9465   22.5410 C   0  0  0  0  0  0  0  0  0  0  0  0
  -26.1975  -13.7845   20.6528 N   0  0  0  0  0  0  0  0  0  0  0  0
  -28.9685  -21.8682   20.9738 N   0  0  0  0  0  0  0  0  0  0  0  0
  -26.5321  -12.4831   20.6321 N   0  0  0  0  0  0  0  0  0  0  0  0
  -23.0709  -29.9983   20.9854 N   0  0  0  0  0  0  0  0  0  0  0  0
  -29.2223  -14.2144   19.7129 N   0  0  0  0  0  0  0  0  0  0  0  0
  -31.2729  -21.1242   19.4742 N   0  0  0  0  0  0  0  0  0  0  0  0
  -25.6790  -10.3072   21.0171 N   0  0  0  0  0  0  0  0  0  0  0  0
  -22.1504  -12.9821   21.9060 N   0  0  0  0  0  0  0  0  0  0  0  0
  -25.0225  -32.6525   22.5484 N   0  0  0  0  0  0  0  0  0  0  0  0
  -20.1207  -28.6403   20.0312 N   0  0  0  0  0  0  0  0  0  0  0  0
  -29.6361  -16.5356   19.2920 N   0  0  0  0  0  0  0  0  0  0  0  0
  -20.1369  -26.9579   16.8317 N   0  3  0  0  0  0  0  0  0  0  0  0
  -22.8666  -10.8046   21.8419 O   0  0  0  0  0  0  0  0  0  0  0  0
  -23.9381  -30.7252   23.2778 O   0  0  0  0  0  0  0  0  0  0  0  0
  -21.0799  -31.2062   20.8707 O   0  0  0  0  0  0  0  0  0  0  0  0
  -31.1385  -15.2756   18.0448 O   0  0  0  0  0  0  0  0  0  0  0  0
  -21.2159  -26.6910   19.4164 O   0  0  0  0  0  0  0  0  0  0  0  0
  -29.2583  -15.7682   21.4405 O   0  0  0  0  0  0  0  0  0  0  0  0
  -30.9302  -22.0053   22.2733 O   0  0  0  0  0  0  0  0  0  0  0  0
  -26.9374  -22.2368   19.8400 O   0  0  0  0  0  0  0  0  0  0  0  0
  -22.0717  -18.5435   21.5904 O   0  0  0  0  0  0  0  0  0  0  0  0
  -27.8996  -26.1783   20.6063 O   0  0  0  0  0  0  0  0  0  1  0  0
  -24.5587  -22.7127   24.2050 F   0  0  0  0  0  0  0  0  0  0  0  0
  -27.4077  -17.3671   20.7703 F   0  0  0  0  0  0  0  0  0  0  0  0
  -20.9820  -19.6285   23.8878 F   0  0  0  0  0  0  0  0  0  0  0  0
  1  2  1  0  0  0  0
  1  5  2  0  0  0  0
  2  6  2  0  0  0  0
  3  8  2  0  0  0  0
  3 18  1  0  0  0  0
  4  9  1  0  0  0  0
  4 18  2  0  0  0  0
  5 20  1  0  0  0  0
  6 22  1  0  0  0  0
  7 10  2  0  0  0  0
  7 21  1  0  0  0  0
  8 28  1  0  0  0  0
  9 28  2  0  0  0  0
 10 29  1  0  0  0  0
 11 12  2  0  0  0  0
 11 30  1  0  0  0  0
 12 31  1  0  0  0  0
 13 23  1  0  0  0  0
 13 29  2  0  0  0  0
 14 24  1  0  0  0  0
 14 36  2  0  0  0  0
 15 25  1  0  0  0  0
 15 32  2  0  0  0  0
 16 26  1  0  0  0  0
 16 27  2  0  0  0  0
 17 31  2  0  0  0  0
 17 33  1  0  0  0  0
 18 34  1  0  0  0  0
 19 34  1  0  0  0  0
 19 35  2  0  0  0  0
 19 38  1  0  0  0  0
 20 22  2  0  0  0  0
 20 44  1  0  0  0  0
 21 23  2  0  0  0  0
 21 45  1  0  0  0  0
 22 53  1  0  0  0  0
 23 46  1  0  0  0  0
 24 37  2  0  0  0  0
 24 62  1  0  0  0  0
 25 26  2  0  0  0  0
 25 67  1  0  0  0  0
 26 71  1  0  0  0  0
 27 32  1  0  0  0  0
 27 76  1  0  0  0  0
 28 86  1  0  0  0  0
 29 87  1  0  0  0  0
 30 33  2  0  0  0  0
 30 86  1  0  0  0  0
 31 88  1  0  0  0  0
 32 89  1  0  0  0  0
 33 90  1  0  0  0  0
 34 66  2  0  0  0  0
 35 68  1  0  0  0  0
 35 72  1  0  0  0  0
 36 67  1  0  0  0  0
 36 84  1  0  0  0  0
 37 67  1  0  0  0  0
 37 85  1  0  0  0  0
 38 73  1  0  0  0  0
 38 78  2  0  0  0  0
 39 54  1  0  0  0  0
 39 74  1  0  0  0  0
 39 79  2  0  0  0  0
 40 63  1  0  0  0  0
 40 69  1  0  0  0  0
 40 80  2  0  0  0  0
 41 56  1  0  0  0  0
 41 76  1  0  0  0  0
 41 81  2  0  0  0  0
 42 64  1  0  0  0  0
 42 75  1  0  0  0  0
 42 82  2  0  0  0  0
 43 70  1  0  0  0  0
 43 76  1  0  0  0  0
 43 83  2  0  0  0  0
 44 47  1  0  0  0  0
 45 54  1  0  0  0  0
 46 69  1  0  0  0  0
 47 49  1  0  0  0  0
 48 50  1  0  0  0  0
 48 51  1  0  0  0  0
 49 53  1  0  0  0  0
 50 55  1  0  0  0  0
 51 70  1  0  0  0  0
 52 55  1  0  0  0  0
 52 70  1  0  0  0  0
 53 74  1  0  0  0  0
 54 69  1  0  0  0  0
 55 68  1  0  0  0  0
 57 64  1  0  0  0  0
 58 65  1  0  0  0  0
 59 65  1  0  0  0  0
 60 65  1  0  0  0  0
 61 77  1  0  0  0  0
 62 87  1  0  0  0  0
 63 65  1  0  0  0  0
 63 75  1  0  0  0  0
 64 77  1  0  0  0  0
 66 68  1  0  0  0  0
M  CHG  1  77   1
M  ISO  4  43 100  62 101  76 100  87 101
M  END
> <Batch ID>
0092

> <Smiles>
CNC(C)C(=O)NC(C(=O)N1Cc2cc([101O:1][101CH2:1]C3CC(=O)N(c4cc(F)c([100N:0](C(C)=O)[100C:0](=O)N5CCCC(n6nc(-c7ccc(Oc8ccc(F)cc8F)cc7)c(C(N)=O)c6N)C5)cc4N)C3=O)ccc2CC1C(=O)NC1CCCc2ccccc21)C(C)(C)C

> <Shape>
0.308

> <Color>
0.084

> <Negative vol penalty>
0.000

$$$$

  -OEChem-04052300343D

 88 97  0     1  0  0  0  0  0999 V2000
  -28.2789  -36.4479   16.8655 C   0  0  0  0  0  0  0  0  0  0  0  0
  -28.6156  -35.1195   17.1054 C   0  0  0  0  0  0  0  0  0  0  0  0
  -23.9016   -9.6046   19.7530 C   0  0  0  0  0  0  0  0  0  0  0  0
  -24.5874   -9.6620   22.0689 C   0  0  0  0  0  0  0  0  0  0  0  0
  -27.4866  -37.1410   17.7797 C   0  0  0  0  0  0  0  0  0  0  0  0
  -28.1610  -34.4838   18.2603 C   0  0  0  0  0  0  0  0  0  0  0  0
  -26.5663  -28.5993   18.8387 C   0  0  0  0  0  0  0  0  0  0  0  0
  -29.3633  -20.4656   21.5130 C   0  0  0  0  0  0  0  0  0  0  0  0
  -29.4859  -19.0892   21.3231 C   0  0  0  0  0  0  0  0  0  0  0  0
  -23.4868   -8.2819   19.9086 C   0  0  0  0  0  0  0  0  0  0  0  0
  -24.1726   -8.3394   22.2245 C   0  0  0  0  0  0  0  0  0  0  0  0
  -27.2500  -27.4855   19.3243 C   0  0  0  0  0  0  0  0  0  0  0  0
  -22.9624   -5.0934   23.3276 C   0  0  0  0  0  0  0  0  0  0  0  0
  -22.2223   -4.7747   24.4661 C   0  0  0  0  0  0  0  0  0  0  0  0
  -26.2067  -27.7914   21.4776 C   0  0  0  0  0  0  0  0  0  0  0  0
  -29.5348  -24.4548   23.6028 C   0  0  0  0  0  0  0  0  0  0  0  0
  -29.3673  -18.7491   23.7121 C   0  0  0  0  0  0  0  0  0  0  0  0
  -20.5214   -6.3575   23.8036 C   0  0  0  0  0  0  0  0  0  0  0  0
  -24.4519  -10.2946   20.8331 C   0  0  0  0  0  0  0  0  0  0  0  0
  -24.1114  -12.8225   20.8721 C   0  0  0  0  0  0  0  0  0  0  0  0
  -27.0141  -36.5106   18.9416 C   0  0  0  0  0  0  0  0  0  0  0  0
  -25.7045  -29.3251   19.6734 C   0  0  0  0  0  0  0  0  0  0  0  0
  -27.3627  -35.1696   19.1915 C   0  0  0  0  0  0  0  0  0  0  0  0
  -25.5112  -28.9125   20.9995 C   0  0  0  0  0  0  0  0  0  0  0  0
  -28.3504  -24.4453   22.8255 C   0  0  0  0  0  0  0  0  0  0  0  0
  -29.2428  -20.9838   22.8025 C   0  0  0  0  0  0  0  0  0  0  0  0
  -29.4879  -18.2309   22.4227 C   0  0  0  0  0  0  0  0  0  0  0  0
  -29.2448  -20.1255   23.9020 C   0  0  0  0  0  0  0  0  0  0  0  0
  -23.6223   -7.6494   21.1443 C   0  0  0  0  0  0  0  0  0  0  0  0
  -27.0725  -27.0831   20.6447 C   0  0  0  0  0  0  0  0  0  0  0  0
  -22.4820   -6.0441   22.4270 C   0  0  0  0  0  0  0  0  0  0  0  0
  -21.0019   -5.4067   24.7042 C   0  0  0  0  0  0  0  0  0  0  0  0
  -21.2615   -6.6761   22.6650 C   0  0  0  0  0  0  0  0  0  0  0  0
  -24.8811  -11.6607   20.6728 C   0  0  0  0  0  0  0  0  0  0  0  0
  -28.1185  -23.1419   22.4451 C   0  0  0  0  0  0  0  0  0  0  0  0
  -24.9715  -13.8563   20.5926 C   0  0  0  0  0  0  0  0  0  0  0  0
  -29.9908  -23.1569   23.6735 C   0  0  0  0  0  0  0  0  0  0  0  0
  -30.2830  -14.7504   23.2543 C   0  0  0  0  0  0  0  0  0  0  0  0
  -29.6238  -15.9107   23.2849 C   0  0  0  0  0  0  0  0  0  0  0  0
  -22.7416  -12.9554   21.2740 C   0  0  0  0  0  0  0  0  0  0  0  0
  -25.6203  -32.3121   20.7572 C   0  0  0  0  0  0  0  0  0  0  0  0
  -22.7527  -31.3832   21.9558 C   0  0  0  0  0  0  0  0  0  0  0  0
  -20.7376  -28.8347   23.0006 C   0  0  0  0  0  0  0  0  0  0  0  0
  -29.9008  -16.3155   20.9216 C   0  0  0  0  0  0  0  0  0  0  0  0
  -26.1997  -37.3148   19.9238 C   0  0  0  0  0  0  0  0  0  0  0  0
  -24.9538  -30.5084   19.1268 C   0  0  0  0  0  0  0  0  0  0  0  0
  -24.5817  -29.6455   21.9307 C   0  0  0  0  0  0  0  0  0  0  0  0
  -25.4478  -36.4569   20.9381 C   0  0  0  0  0  0  0  0  0  0  0  0
  -29.5520  -13.8578   18.4667 C   0  0  0  0  0  0  0  0  0  0  0  0
  -26.3669  -35.3858   21.5169 C   0  0  0  0  0  0  0  0  0  0  0  0
  -28.2469  -13.1522   18.8337 C   0  0  0  0  0  0  0  0  0  0  0  0
  -30.3602  -14.1966   19.7140 C   0  0  0  0  0  0  0  0  0  0  0  0
  -28.3052  -14.3319   21.0860 C   0  0  0  0  0  0  0  0  0  0  0  0
  -26.8683  -34.4381   20.4206 C   0  0  1  0  0  0  0  0  0  0  0  0
  -24.4956  -31.4784   20.2115 C   0  0  1  0  0  0  0  0  0  0  0  0
  -27.4442  -13.9734   19.8581 C   0  0  2  0  0  0  0  0  0  0  0  0
  -27.0209  -22.5778   21.6275 C   0  0  0  0  0  0  0  0  0  0  0  0
  -18.4629  -28.3897   23.9624 C   0  0  0  0  0  0  0  0  0  0  0  0
  -23.7173  -32.3577   24.6816 C   0  0  0  0  0  0  0  0  0  0  0  0
  -21.8557  -31.0521   25.7295 C   0  0  0  0  0  0  0  0  0  0  0  0
  -21.3371  -32.9171   24.1561 C   0  0  0  0  0  0  0  0  0  0  0  0
  -19.9459  -27.1916   20.6699 C   0  0  0  0  0  0  0  0  0  0  0  0
  -27.5101  -25.6406   22.4842 C   0  0  0  0  0  0  0  0  0  1  0  0
  -22.2862  -30.7570   23.2478 C   0  0  1  0  0  0  0  0  0  0  0  0
  -19.2887  -28.5044   22.6906 C   0  0  2  0  0  0  0  0  0  0  0  0
  -22.3182  -31.7581   24.4370 C   0  0  0  0  0  0  0  0  0  0  0  0
  -26.1337  -11.9304   20.2957 N   0  0  0  0  0  0  0  0  0  0  0  0
  -29.1221  -22.3676   22.9660 N   0  0  0  0  0  0  0  0  0  0  0  0
  -26.1577  -13.2735   20.2557 N   0  0  0  0  0  0  0  0  0  0  0  0
  -23.8752  -30.7998   21.3512 N   0  0  0  0  0  0  0  0  0  0  0  0
  -29.5618  -14.9723   20.6638 N   0  0  0  0  0  0  0  0  0  0  0  0
  -29.1247  -20.6255   25.2189 N   0  0  0  0  0  0  0  0  0  0  0  0
  -24.8212  -15.1978   20.6045 N   0  0  0  0  0  0  0  0  0  0  0  0
  -22.0019  -11.7909   21.5212 N   0  0  0  0  0  0  0  0  0  0  0  0
  -25.8371  -33.4875   20.0637 N   0  0  0  0  0  0  0  0  0  0  0  0
  -20.9681  -30.1940   22.9760 N   0  0  0  0  0  0  0  0  0  0  0  0
  -29.6167  -16.8020   22.2242 N   0  0  0  0  0  0  0  0  0  0  0  0
  -19.1983  -27.2123   21.9534 N   0  3  0  0  0  0  0  0  0  0  0  0
  -22.1852  -14.0732   21.3940 O   0  0  0  0  0  0  0  0  0  0  0  0
  -26.2440  -31.9189   21.7360 O   0  0  0  0  0  0  0  0  0  0  0  0
  -22.1393  -32.3497   21.4962 O   0  0  0  0  0  0  0  0  0  0  0  0
  -21.5798  -27.9734   23.2442 O   0  0  0  0  0  0  0  0  0  0  0  0
  -30.4378  -17.0278   20.0634 O   0  0  0  0  0  0  0  0  0  0  0  0
  -31.0564  -22.6507   24.2825 O   0  0  0  0  0  0  0  0  0  0  0  0
  -23.2175   -6.3588   21.2966 O   0  0  0  0  0  0  0  0  0  0  0  0
  -27.7392  -25.9968   21.1214 O   0  0  0  0  0  0  0  0  0  1  0  0
  -20.2906   -5.0995   25.7968 F   0  0  0  0  0  0  0  0  0  0  0  0
  -20.7943   -7.5895   21.8028 F   0  0  0  0  0  0  0  0  0  0  0  0
  1  2  1  0  0  0  0
  1  5  2  0  0  0  0
  2  6  2  0  0  0  0
  3 10  2  0  0  0  0
  3 19  1  0  0  0  0
  4 11  1  0  0  0  0
  4 19  2  0  0  0  0
  5 21  1  0  0  0  0
  6 23  1  0  0  0  0
  7 12  2  0  0  0  0
  7 22  1  0  0  0  0
  8  9  2  0  0  0  0
  8 26  1  0  0  0  0
  9 27  1  0  0  0  0
 10 29  1  0  0  0  0
 11 29  2  0  0  0  0
 12 30  1  0  0  0  0
 13 14  2  0  0  0  0
 13 31  1  0  0  0  0
 14 32  1  0  0  0  0
 15 24  1  0  0  0  0
 15 30  2  0  0  0  0
 16 25  1  0  0  0  0
 16 37  2  0  0  0  0
 17 27  2  0  0  0  0
 17 28  1  0  0  0  0
 18 32  2  0  0  0  0
 18 33  1  0  0  0  0
 19 34  1  0  0  0  0
 20 34  1  0  0  0  0
 20 36  2  0  0  0  0
 20 40  1  0  0  0  0
 21 23  2  0  0  0  0
 21 45  1  0  0  0  0
 22 24  2  0  0  0  0
 22 46  1  0  0  0  0
 23 54  1  0  0  0  0
 24 47  1  0  0  0  0
 25 35  2  0  0  0  0
 25 63  1  0  0  0  0
 26 28  2  0  0  0  0
 26 68  1  0  0  0  0
 27 77  1  0  0  0  0
 28 72  1  0  0  0  0
 29 85  1  0  0  0  0
 30 86  1  0  0  0  0
 31 33  2  0  0  0  0
 31 85  1  0  0  0  0
 32 87  1  0  0  0  0
 33 88  1  0  0  0  0
 34 67  2  0  0  0  0
 35 57  1  0  0  0  0
 35 68  1  0  0  0  0
 36 69  1  0  0  0  0
 36 73  1  0  0  0  0
 37 68  1  0  0  0  0
 37 84  1  0  0  0  0
 38 39  2  0  0  0  0
 39 77  1  0  0  0  0
 40 74  1  0  0  0  0
 40 79  2  0  0  0  0
 41 55  1  0  0  0  0
 41 75  1  0  0  0  0
 41 80  2  0  0  0  0
 42 64  1  0  0  0  0
 42 70  1  0  0  0  0
 42 81  2  0  0  0  0
 43 65  1  0  0  0  0
 43 76  1  0  0  0  0
 43 82  2  0  0  0  0
 44 71  1  0  0  0  0
 44 77  1  0  0  0  0
 44 83  2  0  0  0  0
 45 48  1  0  0  0  0
 46 55  1  0  0  0  0
 47 70  1  0  0  0  0
 48 50  1  0  0  0  0
 49 51  1  0  0  0  0
 49 52  1  0  0  0  0
 50 54  1  0  0  0  0
 51 56  1  0  0  0  0
 52 71  1  0  0  0  0
 53 56  1  0  0  0  0
 53 71  1  0  0  0  0
 54 75  1  0  0  0  0
 55 70  1  0  0  0  0
 56 69  1  0  0  0  0
 58 65  1  0  0  0  0
 59 66  1  0  0  0  0
 60 66  1  0  0  0  0
 61 66  1  0  0  0  0
 62 78  1  0  0  0  0
 63 86  1  0  0  0  0
 64 66  1  0  0  0  0
 64 76  1  0  0  0  0
 65 78  1  0  0  0  0
 67 69  1  0  0  0  0
M  CHG  1  78   1
M  ISO  4  44 100  63 101  77 100  86 101
M  END
> <Batch ID>
0092

> <Smiles>
C=C[100N:0](c1ccc(N2C(=O)CC([101CH2:1][101O:1]c3ccc4c(c3)CN(C(=O)C(NC(=O)C(C)NC)C(C)(C)C)C(C(=O)NC3CCCc5ccccc53)C4)=C2C)c(N)c1)[100C:0](=O)N1CCCC(n2nc(-c3ccc(Oc4ccc(F)cc4F)cc3)c(C(N)=O)c2N)C1

> <Shape>
0.301

> <Color>
0.161

> <Negative vol penalty>
0.000

$$$$

  -OEChem-04052300343D

 86 95  0     1  0  0  0  0  0999 V2000
  -29.4936  -36.3718   23.9082 C   0  0  0  0  0  0  0  0  0  0  0  0
  -29.7117  -35.4537   22.8859 C   0  0  0  0  0  0  0  0  0  0  0  0
  -22.9674  -16.5158   21.2015 C   0  0  0  0  0  0  0  0  0  0  0  0
  -22.2637  -15.3167   19.2257 C   0  0  0  0  0  0  0  0  0  0  0  0
  -28.7997  -35.9856   25.0541 C   0  0  0  0  0  0  0  0  0  0  0  0
  -29.2368  -34.1485   23.0095 C   0  0  0  0  0  0  0  0  0  0  0  0
  -26.6513  -28.7520   19.0713 C   0  0  0  0  0  0  0  0  0  0  0  0
  -28.4235  -19.7256   20.4939 C   0  0  0  0  0  0  0  0  0  0  0  0
  -29.3498  -19.1994   18.3255 C   0  0  0  0  0  0  0  0  0  0  0  0
  -29.0408  -18.5963   21.0317 C   0  0  0  0  0  0  0  0  0  0  0  0
  -29.9671  -18.0701   18.8632 C   0  0  0  0  0  0  0  0  0  0  0  0
  -21.8934  -17.3931   21.0516 C   0  0  0  0  0  0  0  0  0  0  0  0
  -21.1896  -16.1939   19.0758 C   0  0  0  0  0  0  0  0  0  0  0  0
  -26.8607  -27.3939   18.8357 C   0  0  0  0  0  0  0  0  0  0  0  0
  -21.1177  -20.0788   19.1518 C   0  0  0  0  0  0  0  0  0  0  0  0
  -21.3699  -21.4424   19.3018 C   0  0  0  0  0  0  0  0  0  0  0  0
  -25.6061  -26.8613   20.8261 C   0  0  0  0  0  0  0  0  0  0  0  0
  -26.6659  -22.4512   17.3403 C   0  0  0  0  0  0  0  0  0  0  0  0
  -19.7960  -21.5320   21.1327 C   0  0  0  0  0  0  0  0  0  0  0  0
  -23.1527  -15.4777   20.2884 C   0  0  0  0  0  0  0  0  0  0  0  0
  -24.2805  -13.3652   21.1678 C   0  0  0  0  0  0  0  0  0  0  0  0
  -28.3077  -34.6776   25.1876 C   0  0  0  0  0  0  0  0  0  0  0  0
  -25.9258  -29.1761   20.1940 C   0  0  0  0  0  0  0  0  0  0  0  0
  -28.5368  -33.7440   24.1589 C   0  0  0  0  0  0  0  0  0  0  0  0
  -25.3868  -28.2253   21.0723 C   0  0  0  0  0  0  0  0  0  0  0  0
  -27.3882  -23.2751   18.2384 C   0  0  0  0  0  0  0  0  0  0  0  0
  -28.5779  -20.0272   19.1408 C   0  0  0  0  0  0  0  0  0  0  0  0
  -29.8126  -17.7686   20.2164 C   0  0  0  0  0  0  0  0  0  0  0  0
  -21.0044  -17.2321   19.9889 C   0  0  0  0  0  0  0  0  0  0  0  0
  -26.3405  -26.4484   19.7147 C   0  0  0  0  0  0  0  0  0  0  0  0
  -20.2047  -19.4417   19.9922 C   0  0  0  0  0  0  0  0  0  0  0  0
  -20.7090  -22.1691   20.2922 C   0  0  0  0  0  0  0  0  0  0  0  0
  -19.5439  -20.1684   20.9826 C   0  0  0  0  0  0  0  0  0  0  0  0
  -24.2623  -14.5715   20.4423 C   0  0  0  0  0  0  0  0  0  0  0  0
  -28.1803  -22.4507   19.0065 C   0  0  0  0  0  0  0  0  0  0  0  0
  -25.5568  -12.8850   21.0036 C   0  0  0  0  0  0  0  0  0  0  0  0
  -27.0384  -21.1483   17.5872 C   0  0  0  0  0  0  0  0  0  0  0  0
  -23.2370  -12.7350   21.9225 C   0  0  0  0  0  0  0  0  0  0  0  0
  -26.5850  -30.9375   22.7565 C   0  0  0  0  0  0  0  0  0  0  0  0
  -23.4084  -30.6031   23.3219 C   0  0  0  0  0  0  0  0  0  0  0  0
  -20.5531  -28.7985   22.8344 C   0  0  0  0  0  0  0  0  0  0  0  0
  -30.6861  -15.4498   19.9888 C   0  0  0  0  0  0  0  0  0  0  0  0
  -27.6044  -34.2935   26.4653 C   0  0  0  0  0  0  0  0  0  0  0  0
  -25.6860  -30.6437   20.4195 C   0  0  0  0  0  0  0  0  0  0  0  0
  -24.5835  -28.6279   22.2811 C   0  0  0  0  0  0  0  0  0  0  0  0
  -26.8083  -32.9956   26.3559 C   0  0  0  0  0  0  0  0  0  0  0  0
  -29.2215  -12.9397   17.9401 C   0  0  0  0  0  0  0  0  0  0  0  0
  -27.6409  -31.9145   25.6741 C   0  0  0  0  0  0  0  0  0  0  0  0
  -27.7703  -12.9658   18.4188 C   0  0  0  0  0  0  0  0  0  0  0  0
  -29.8242  -14.3428   17.8632 C   0  0  0  0  0  0  0  0  0  0  0  0
  -28.2526  -15.1445   19.5986 C   0  0  0  0  0  0  0  0  0  0  0  0
  -28.0157  -32.3259   24.2452 C   0  0  1  0  0  0  0  0  0  0  0  0
  -25.3701  -30.9811   21.8734 C   0  0  1  0  0  0  0  0  0  0  0  0
  -27.6388  -13.7429   19.7406 C   0  0  1  0  0  0  0  0  0  0  0  0
  -29.1273  -22.7935   20.0915 C   0  0  0  0  0  0  0  0  0  0  0  0
  -18.1218  -28.7525   23.4542 C   0  0  0  0  0  0  0  0  0  0  0  0
  -24.1386  -29.5726   26.0995 C   0  0  0  0  0  0  0  0  0  0  0  0
  -21.8116  -28.6709   26.3004 C   0  0  0  0  0  0  0  0  0  0  0  0
  -22.1786  -31.1250   26.0447 C   0  0  0  0  0  0  0  0  0  0  0  0
  -31.0713  -16.7051   22.0986 C   0  0  0  0  0  0  0  0  0  0  0  0
  -19.7086  -29.0430   20.0084 C   0  0  0  0  0  0  0  0  0  0  0  0
  -27.2995  -24.7702   18.3291 C   0  0  0  0  0  0  0  0  0  1  0  0
  -22.5537  -29.6023   24.0615 C   0  0  1  0  0  0  0  0  0  0  0  0
  -19.1503  -29.2206   22.4365 C   0  0  2  0  0  0  0  0  0  0  0  0
  -22.6874  -29.7349   25.6049 C   0  0  0  0  0  0  0  0  0  0  0  0
  -25.4341  -14.8412   19.8607 N   0  0  0  0  0  0  0  0  0  0  0  0
  -27.9592  -21.1600   18.6022 N   0  0  0  0  0  0  0  0  0  0  0  0
  -26.2005  -13.7975   20.2206 N   0  0  0  0  0  0  0  0  0  0  0  0
  -24.3817  -30.0750   22.4619 N   0  0  0  0  0  0  0  0  0  0  0  0
  -29.6389  -15.0598   19.1327 N   0  0  0  0  0  0  0  0  0  0  0  0
  -26.1800  -11.7755   21.4541 N   0  0  0  0  0  0  0  0  0  0  0  0
  -21.9861  -13.3639   21.9872 N   0  0  0  0  0  0  0  0  0  0  0  0
  -26.8888  -32.1453   23.3552 N   0  0  0  0  0  0  0  0  0  0  0  0
  -21.1943  -29.7785   23.5621 N   0  0  0  0  0  0  0  0  0  0  0  0
  -30.4506  -16.5991   20.7737 N   0  0  0  0  0  0  0  0  0  0  0  0
  -18.7932  -28.6454   21.1088 N   0  3  0  0  0  0  0  0  0  0  0  0
  -23.4135  -11.6548   22.5352 O   0  0  0  0  0  0  0  0  0  0  0  0
  -27.2002  -29.8857   22.8862 O   0  0  0  0  0  0  0  0  0  0  0  0
  -23.2146  -31.8089   23.4952 O   0  0  0  0  0  0  0  0  0  0  0  0
  -21.0309  -27.7069   22.5331 O   0  0  0  0  0  0  0  0  0  0  0  0
  -31.7396  -14.8063   20.0657 O   0  0  0  0  0  0  0  0  0  0  0  0
  -26.6459  -20.0171   17.0135 O   0  0  0  0  0  0  0  0  0  0  0  0
  -19.9561  -18.0877   19.8425 O   0  0  0  0  0  0  0  0  0  0  0  0
  -26.5440  -25.1222   19.4874 O   0  0  0  0  0  0  0  0  0  1  0  0
  -20.9524  -23.4782   20.4372 F   0  0  0  0  0  0  0  0  0  0  0  0
  -18.6666  -19.5616   21.7938 F   0  0  0  0  0  0  0  0  0  0  0  0
  1  2  1  0  0  0  0
  1  5  2  0  0  0  0
  2  6  2  0  0  0  0
  3 12  2  0  0  0  0
  3 20  1  0  0  0  0
  4 13  1  0  0  0  0
  4 20  2  0  0  0  0
  5 22  1  0  0  0  0
  6 24  1  0  0  0  0
  7 14  2  0  0  0  0
  7 23  1  0  0  0  0
  8 10  2  0  0  0  0
  8 27  1  0  0  0  0
  9 11  1  0  0  0  0
  9 27  2  0  0  0  0
 10 28  1  0  0  0  0
 11 28  2  0  0  0  0
 12 29  1  0  0  0  0
 13 29  2  0  0  0  0
 14 30  1  0  0  0  0
 15 16  2  0  0  0  0
 15 31  1  0  0  0  0
 16 32  1  0  0  0  0
 17 25  1  0  0  0  0
 17 30  2  0  0  0  0
 18 26  1  0  0  0  0
 18 37  2  0  0  0  0
 19 32  2  0  0  0  0
 19 33  1  0  0  0  0
 20 34  1  0  0  0  0
 21 34  1  0  0  0  0
 21 36  2  0  0  0  0
 21 38  1  0  0  0  0
 22 24  2  0  0  0  0
 22 43  1  0  0  0  0
 23 25  2  0  0  0  0
 23 44  1  0  0  0  0
 24 52  1  0  0  0  0
 25 45  1  0  0  0  0
 26 35  2  0  0  0  0
 26 62  1  0  0  0  0
 27 67  1  0  0  0  0
 28 75  1  0  0  0  0
 29 83  1  0  0  0  0
 30 84  1  0  0  0  0
 31 33  2  0  0  0  0
 31 83  1  0  0  0  0
 32 85  1  0  0  0  0
 33 86  1  0  0  0  0
 34 66  2  0  0  0  0
 35 55  1  0  0  0  0
 35 67  1  0  0  0  0
 36 68  1  0  0  0  0
 36 71  1  0  0  0  0
 37 67  1  0  0  0  0
 37 82  1  0  0  0  0
 38 72  1  0  0  0  0
 38 77  2  0  0  0  0
 39 53  1  0  0  0  0
 39 73  1  0  0  0  0
 39 78  2  0  0  0  0
 40 63  1  0  0  0  0
 40 69  1  0  0  0  0
 40 79  2  0  0  0  0
 41 64  1  0  0  0  0
 41 74  1  0  0  0  0
 41 80  2  0  0  0  0
 42 70  1  0  0  0  0
 42 75  1  0  0  0  0
 42 81  2  0  0  0  0
 43 46  1  0  0  0  0
 44 53  1  0  0  0  0
 45 69  1  0  0  0  0
 46 48  1  0  0  0  0
 47 49  1  0  0  0  0
 47 50  1  0  0  0  0
 48 52  1  0  0  0  0
 49 54  1  0  0  0  0
 50 70  1  0  0  0  0
 51 54  1  0  0  0  0
 51 70  1  0  0  0  0
 52 73  1  0  0  0  0
 53 69  1  0  0  0  0
 54 68  1  0  0  0  0
 56 64  1  0  0  0  0
 57 65  1  0  0  0  0
 58 65  1  0  0  0  0
 59 65  1  0  0  0  0
 60 75  1  0  0  0  0
 61 76  1  0  0  0  0
 62 84  1  0  0  0  0
 63 65  1  0  0  0  0
 63 74  1  0  0  0  0
 64 76  1  0  0  0  0
 66 68  1  0  0  0  0
M  CHG  1  76   1
M  ISO  4  42 100  62 101  75 100  84 101
M  END
> <Batch ID>
0092

> <Smiles>
CNC(C)C(=O)NC(C(=O)N1Cc2cc([101O:1][101CH2:1]C3=C(C)N(c4ccc([100N:0](C)[100C:0](=O)N5CCCC(n6nc(-c7ccc(Oc8ccc(F)cc8F)cc7)c(C(N)=O)c6N)C5)cc4)C(=O)C3)ccc2CC1C(=O)NC1CCCc2ccccc21)C(C)(C)C

> <Shape>
0.289

> <Color>
0.106

> <Negative vol penalty>
0.000

$$$$

  -OEChem-04052300343D

 88 97  0     1  0  0  0  0  0999 V2000
  -27.2151  -34.9813   13.8196 C   0  0  0  0  0  0  0  0  0  0  0  0
  -26.9409  -33.6653   14.1781 C   0  0  0  0  0  0  0  0  0  0  0  0
  -22.9303  -10.9030   19.1730 C   0  0  0  0  0  0  0  0  0  0  0  0
  -23.2578   -9.7382   21.2642 C   0  0  0  0  0  0  0  0  0  0  0  0
  -29.4423  -19.7617   20.5277 C   0  0  0  0  0  0  0  0  0  0  0  0
  -27.9575  -35.7952   14.6743 C   0  0  0  0  0  0  0  0  0  0  0  0
  -27.4100  -33.1622   15.3911 C   0  0  0  0  0  0  0  0  0  0  0  0
  -24.6143  -29.0951   19.0172 C   0  0  0  0  0  0  0  0  0  0  0  0
  -28.4888  -20.7780   20.5877 C   0  0  0  0  0  0  0  0  0  0  0  0
  -21.9911   -9.9465   18.7873 C   0  0  0  0  0  0  0  0  0  0  0  0
  -22.3186   -8.7817   20.8786 C   0  0  0  0  0  0  0  0  0  0  0  0
  -24.7684  -27.7186   19.1764 C   0  0  0  0  0  0  0  0  0  0  0  0
  -22.2098   -6.0667   18.8668 C   0  0  0  0  0  0  0  0  0  0  0  0
  -22.5273   -4.7249   19.0773 C   0  0  0  0  0  0  0  0  0  0  0  0
  -26.2381  -28.1059   21.0497 C   0  0  0  0  0  0  0  0  0  0  0  0
  -24.4060  -22.7211   20.4407 C   0  0  0  0  0  0  0  0  0  0  0  0
  -26.9668  -19.4270   19.2856 C   0  0  0  0  0  0  0  0  0  0  0  0
  -20.5915   -4.4905   20.5038 C   0  0  0  0  0  0  0  0  0  0  0  0
  -23.5637  -10.7988   20.4115 C   0  0  0  0  0  0  0  0  0  0  0  0
  -29.1581  -18.5781   19.8465 C   0  0  0  0  0  0  0  0  0  0  0  0
  -24.2916  -12.9811   21.5139 C   0  0  0  0  0  0  0  0  0  0  0  0
  -28.4276  -35.3046   15.9027 C   0  0  0  0  0  0  0  0  0  0  0  0
  -25.2806  -29.9890   19.8677 C   0  0  0  0  0  0  0  0  0  0  0  0
  -28.1605  -33.9698   16.2623 C   0  0  0  0  0  0  0  0  0  0  0  0
  -26.0887  -29.4932   20.9009 C   0  0  0  0  0  0  0  0  0  0  0  0
  -25.3037  -23.6033   19.7903 C   0  0  0  0  0  0  0  0  0  0  0  0
  -27.2511  -20.6107   19.9667 C   0  0  0  0  0  0  0  0  0  0  0  0
  -21.6853   -8.8859   19.6401 C   0  0  0  0  0  0  0  0  0  0  0  0
  -25.5827  -27.2239   20.1909 C   0  0  0  0  0  0  0  0  0  0  0  0
  -21.0831   -6.6204   19.4748 C   0  0  0  0  0  0  0  0  0  0  0  0
  -21.7182   -3.9368   19.8957 C   0  0  0  0  0  0  0  0  0  0  0  0
  -27.9204  -18.4107   19.2255 C   0  0  0  0  0  0  0  0  0  0  0  0
  -20.2740   -5.8324   20.2933 C   0  0  0  0  0  0  0  0  0  0  0  0
  -24.5343  -11.7862   20.8102 C   0  0  0  0  0  0  0  0  0  0  0  0
  -26.4639  -22.9024   19.5452 C   0  0  0  0  0  0  0  0  0  0  0  0
  -25.5301  -13.5607   21.6438 C   0  0  0  0  0  0  0  0  0  0  0  0
  -25.0450  -21.5081   20.5734 C   0  0  0  0  0  0  0  0  0  0  0  0
  -30.1755  -17.4974   19.7847 C   0  0  0  0  0  0  0  0  0  0  0  0
  -23.0572  -13.5189   22.0063 C   0  0  0  0  0  0  0  0  0  0  0  0
  -27.4644  -32.2633   19.4649 C   0  0  0  0  0  0  0  0  0  0  0  0
  -26.9057  -32.8147   22.6123 C   0  0  0  0  0  0  0  0  0  0  0  0
  -25.8238  -31.6113   25.6170 C   0  0  0  0  0  0  0  0  0  0  0  0
  -30.4561  -15.0466   19.5886 C   0  0  0  0  0  0  0  0  0  0  0  0
  -29.2663  -36.2078   16.7719 C   0  0  0  0  0  0  0  0  0  0  0  0
  -25.0827  -31.4705   19.6997 C   0  0  0  0  0  0  0  0  0  0  0  0
  -26.8098  -30.4105   21.8533 C   0  0  0  0  0  0  0  0  0  0  0  0
  -29.4075  -35.7112   18.2085 C   0  0  0  0  0  0  0  0  0  0  0  0
  -30.1512  -11.7085   20.7118 C   0  0  0  0  0  0  0  0  0  0  0  0
  -29.7466  -34.2241   18.2284 C   0  0  0  0  0  0  0  0  0  0  0  0
  -28.6429  -11.5286   20.9042 C   0  0  0  0  0  0  0  0  0  0  0  0
  -30.4687  -12.5695   19.4900 C   0  0  0  0  0  0  0  0  0  0  0  0
  -28.2792  -13.6841   19.6371 C   0  0  0  0  0  0  0  0  0  0  0  0
  -28.6308  -33.3951   17.5809 C   0  0  1  0  0  0  0  0  0  0  0  0
  -26.2159  -32.2967   20.3003 C   0  0  1  0  0  0  0  0  0  0  0  0
  -27.9060  -12.8830   20.8949 C   0  0  1  0  0  0  0  0  0  0  0  0
  -27.7158  -23.3471   18.8922 C   0  0  0  0  0  0  0  0  0  0  0  0
  -25.5208  -32.2852   28.0152 C   0  0  0  0  0  0  0  0  0  0  0  0
  -29.9119  -32.5512   23.0636 C   0  0  0  0  0  0  0  0  0  0  0  0
  -29.4506  -32.2811   25.5095 C   0  0  0  0  0  0  0  0  0  0  0  0
  -28.8218  -34.3983   24.3499 C   0  0  0  0  0  0  0  0  0  0  0  0
  -22.9019  -31.1561   25.4967 C   0  0  0  0  0  0  0  0  0  0  0  0
  -25.0320  -25.0362   19.4380 C   0  0  0  0  0  0  0  0  0  1  0  0
  -27.4849  -32.2985   23.9073 C   0  0  1  0  0  0  0  0  0  0  0  0
  -24.8664  -32.1849   26.6460 C   0  0  2  0  0  0  0  0  0  0  0  0
  -28.9054  -32.8648   24.1886 C   0  0  0  0  0  0  0  0  0  0  0  0
  -25.8254  -11.6156   20.5135 N   0  0  0  0  0  0  0  0  0  0  0  0
  -26.2953  -21.6301   20.0258 N   0  0  0  0  0  0  0  0  0  0  0  0
  -26.4051  -12.7110   21.0333 N   0  0  0  0  0  0  0  0  0  0  0  0
  -26.5894  -31.8510   21.6442 N   0  0  0  0  0  0  0  0  0  0  0  0
  -29.7399  -13.8372   19.5620 N   0  0  0  0  0  0  0  0  0  0  0  0
  -25.9450  -14.7091   22.2193 N   0  0  0  0  0  0  0  0  0  0  0  0
  -21.8778  -12.7943   21.7866 N   0  0  0  0  0  0  0  0  0  0  0  0
  -29.6709  -16.1993   19.7012 N   0  0  0  0  0  0  0  0  0  0  0  0
  -27.5180  -33.2450   18.4938 N   0  0  0  0  0  0  0  0  0  0  0  0
  -26.5041  -32.6036   24.9434 N   0  0  0  0  0  0  0  0  0  0  0  0
  -23.6568  -31.3227   26.7653 N   0  3  0  0  0  0  0  0  0  0  0  0
  -31.3662  -17.7971   19.7705 O   0  0  0  0  0  0  0  0  0  0  0  0
  -22.9993  -14.6178   22.6086 O   0  0  0  0  0  0  0  0  0  0  0  0
  -28.3167  -31.4110   19.6859 O   0  0  0  0  0  0  0  0  0  0  0  0
  -26.7334  -34.0275   22.4678 O   0  0  0  0  0  0  0  0  0  0  0  0
  -25.9576  -30.4037   25.4319 O   0  0  0  0  0  0  0  0  0  0  0  0
  -31.6897  -15.0944   19.5538 O   0  0  0  0  0  0  0  0  0  0  0  0
  -24.6266  -20.3690   21.1121 O   0  0  0  0  0  0  0  0  0  0  0  0
  -20.7687   -7.9525   19.2642 O   0  0  0  0  0  0  0  0  0  0  0  0
  -25.7354  -25.8808   20.3481 O   0  0  0  0  0  0  0  0  0  1  0  0
  -22.0225   -2.6479   20.0966 F   0  0  0  0  0  0  0  0  0  0  0  0
  -27.6368  -17.2771   18.5686 F   0  0  0  0  0  0  0  0  0  0  0  0
  -19.1897   -6.3584   20.8792 F   0  0  0  0  0  0  0  0  0  0  0  0
  1  2  1  0  0  0  0
  1  6  2  0  0  0  0
  2  7  2  0  0  0  0
  3 10  2  0  0  0  0
  3 19  1  0  0  0  0
  4 11  1  0  0  0  0
  4 19  2  0  0  0  0
  5  9  2  0  0  0  0
  5 20  1  0  0  0  0
  6 22  1  0  0  0  0
  7 24  1  0  0  0  0
  8 12  2  0  0  0  0
  8 23  1  0  0  0  0
  9 27  1  0  0  0  0
 10 28  1  0  0  0  0
 11 28  2  0  0  0  0
 12 29  1  0  0  0  0
 13 14  2  0  0  0  0
 13 30  1  0  0  0  0
 14 31  1  0  0  0  0
 15 25  1  0  0  0  0
 15 29  2  0  0  0  0
 16 26  1  0  0  0  0
 16 37  2  0  0  0  0
 17 27  2  0  0  0  0
 17 32  1  0  0  0  0
 18 31  2  0  0  0  0
 18 33  1  0  0  0  0
 19 34  1  0  0  0  0
 20 32  2  0  0  0  0
 20 38  1  0  0  0  0
 21 34  1  0  0  0  0
 21 36  2  0  0  0  0
 21 39  1  0  0  0  0
 22 24  2  0  0  0  0
 22 44  1  0  0  0  0
 23 25  2  0  0  0  0
 23 45  1  0  0  0  0
 24 53  1  0  0  0  0
 25 46  1  0  0  0  0
 26 35  2  0  0  0  0
 26 62  1  0  0  0  0
 27 67  1  0  0  0  0
 28 84  1  0  0  0  0
 29 85  1  0  0  0  0
 30 33  2  0  0  0  0
 30 84  1  0  0  0  0
 31 86  1  0  0  0  0
 32 87  1  0  0  0  0
 33 88  1  0  0  0  0
 34 66  2  0  0  0  0
 35 56  1  0  0  0  0
 35 67  1  0  0  0  0
 36 68  1  0  0  0  0
 36 71  1  0  0  0  0
 37 67  1  0  0  0  0
 37 83  1  0  0  0  0
 38 73  1  0  0  0  0
 38 77  2  0  0  0  0
 39 72  1  0  0  0  0
 39 78  2  0  0  0  0
 40 54  1  0  0  0  0
 40 74  1  0  0  0  0
 40 79  2  0  0  0  0
 41 63  1  0  0  0  0
 41 69  1  0  0  0  0
 41 80  2  0  0  0  0
 42 64  1  0  0  0  0
 42 75  1  0  0  0  0
 42 81  2  0  0  0  0
 43 70  1  0  0  0  0
 43 73  1  0  0  0  0
 43 82  2  0  0  0  0
 44 47  1  0  0  0  0
 45 54  1  0  0  0  0
 46 69  1  0  0  0  0
 47 49  1  0  0  0  0
 48 50  1  0  0  0  0
 48 51  1  0  0  0  0
 49 53  1  0  0  0  0
 50 55  1  0  0  0  0
 51 70  1  0  0  0  0
 52 55  1  0  0  0  0
 52 70  1  0  0  0  0
 53 74  1  0  0  0  0
 54 69  1  0  0  0  0
 55 68  1  0  0  0  0
 57 64  1  0  0  0  0
 58 65  1  0  0  0  0
 59 65  1  0  0  0  0
 60 65  1  0  0  0  0
 61 76  1  0  0  0  0
 62 85  1  0  0  0  0
 63 65  1  0  0  0  0
 63 75  1  0  0  0  0
 64 76  1  0  0  0  0
 66 68  1  0  0  0  0
M  CHG  1  76   1
M  ISO  4  43 100  62 101  73 100  85 101
M  END
> <Batch ID>
0092

> <Smiles>
CNC(C)C(=O)NC(C(=O)N1Cc2cc([101O:1][101CH2:1]C3=C(C)N(c4ccc(C(=O)[100NH:0][100C:0](=O)N5CCCC(n6nc(-c7ccc(Oc8ccc(F)cc8F)cc7)c(C(N)=O)c6N)C5)c(F)c4)C(=O)C3)ccc2CC1C(=O)NC1CCCc2ccccc21)C(C)(C)C

> <Shape>
0.261

> <Color>
0.111

> <Negative vol penalty>
0.000

$$$$

  -OEChem-04052300343D

 83 91  0     1  0  0  0  0  0999 V2000
  -28.5125  -31.9890   26.5479 C   0  0  0  0  0  0  0  0  0  0  0  0
  -28.5845  -31.0150   25.5572 C   0  0  0  0  0  0  0  0  0  0  0  0
  -24.4761   -9.2575   22.2451 C   0  0  0  0  0  0  0  0  0  0  0  0
  -23.5212   -9.8252   20.0997 C   0  0  0  0  0  0  0  0  0  0  0  0
  -30.1687  -21.1116   18.6527 C   0  0  0  0  0  0  0  0  0  0  0  0
  -27.3076  -32.2201   27.2104 C   0  0  0  0  0  0  0  0  0  0  0  0
  -27.4518  -30.2707   25.2291 C   0  0  0  0  0  0  0  0  0  0  0  0
  -26.8098  -29.8130   20.2268 C   0  0  0  0  0  0  0  0  0  0  0  0
  -23.3550   -8.4815   22.5389 C   0  0  0  0  0  0  0  0  0  0  0  0
  -22.4000   -9.0490   20.3934 C   0  0  0  0  0  0  0  0  0  0  0  0
  -30.2552  -22.4542   19.0209 C   0  0  0  0  0  0  0  0  0  0  0  0
  -27.6062  -28.8791   19.5655 C   0  0  0  0  0  0  0  0  0  0  0  0
  -22.1725   -5.4138   21.7491 C   0  0  0  0  0  0  0  0  0  0  0  0
  -22.3850   -4.1510   22.3022 C   0  0  0  0  0  0  0  0  0  0  0  0
  -27.7587  -21.2343   18.7714 C   0  0  0  0  0  0  0  0  0  0  0  0
  -25.7683  -27.3167   19.5713 C   0  0  0  0  0  0  0  0  0  0  0  0
  -21.1195   -4.7944   24.2571 C   0  0  0  0  0  0  0  0  0  0  0  0
  -24.5592   -9.9294   21.0255 C   0  0  0  0  0  0  0  0  0  0  0  0
  -28.9204  -20.5016   18.5279 C   0  0  0  0  0  0  0  0  0  0  0  0
  -26.8992  -10.3109   20.0839 C   0  0  0  0  0  0  0  0  0  0  0  0
  -26.1573  -31.4850   26.8836 C   0  0  0  0  0  0  0  0  0  0  0  0
  -25.4879  -29.5013   20.5756 C   0  0  0  0  0  0  0  0  0  0  0  0
  -26.2308  -30.4913   25.8888 C   0  0  0  0  0  0  0  0  0  0  0  0
  -24.9564  -28.2493   20.2348 C   0  0  0  0  0  0  0  0  0  0  0  0
  -27.8452  -22.5769   19.1396 C   0  0  0  0  0  0  0  0  0  0  0  0
  -22.3169   -8.3772   21.6130 C   0  0  0  0  0  0  0  0  0  0  0  0
  -27.0864  -27.6297   19.2402 C   0  0  0  0  0  0  0  0  0  0  0  0
  -29.0935  -23.1868   19.2643 C   0  0  0  0  0  0  0  0  0  0  0  0
  -21.4336   -6.3669   22.4501 C   0  0  0  0  0  0  0  0  0  0  0  0
  -21.8585   -3.8413   23.5562 C   0  0  0  0  0  0  0  0  0  0  0  0
  -20.9071   -6.0572   23.7040 C   0  0  0  0  0  0  0  0  0  0  0  0
  -25.7169  -10.7317   20.7218 C   0  0  0  0  0  0  0  0  0  0  0  0
  -27.6818  -11.4385   20.0329 C   0  0  0  0  0  0  0  0  0  0  0  0
  -28.8297  -19.0791   18.1377 C   0  0  0  0  0  0  0  0  0  0  0  0
  -27.2579   -9.0165   19.5823 C   0  0  0  0  0  0  0  0  0  0  0  0
  -23.8873  -29.2596   23.3112 C   0  0  0  0  0  0  0  0  0  0  0  0
  -21.3449  -28.8580   21.3371 C   0  0  0  0  0  0  0  0  0  0  0  0
  -20.1791  -27.9312   18.2665 C   0  0  0  0  0  0  0  0  0  0  0  0
  -28.0522  -16.8085   18.7833 C   0  0  0  0  0  0  0  0  0  0  0  0
  -24.8892  -31.7378   27.6600 C   0  0  0  0  0  0  0  0  0  0  0  0
  -24.6334  -30.5294   21.2651 C   0  0  0  0  0  0  0  0  0  0  0  0
  -23.5369  -27.8728   20.5689 C   0  0  0  0  0  0  0  0  0  0  0  0
  -23.6418  -31.1645   26.9926 C   0  0  0  0  0  0  0  0  0  0  0  0
  -27.1875  -15.9169   22.2783 C   0  0  0  0  0  0  0  0  0  0  0  0
  -23.8941  -29.7332   26.5296 C   0  0  0  0  0  0  0  0  0  0  0  0
  -26.7507  -14.4666   22.1029 C   0  0  0  0  0  0  0  0  0  0  0  0
  -26.8748  -16.7672   21.0477 C   0  0  0  0  0  0  0  0  0  0  0  0
  -26.9961  -14.7449   19.6084 C   0  0  0  0  0  0  0  0  0  0  0  0
  -25.0177  -29.6805   25.4874 C   0  0  1  0  0  0  0  0  0  0  0  0
  -23.4629  -29.9184   22.0292 C   0  0  1  0  0  0  0  0  0  0  0  0
  -27.3565  -13.8758   20.8218 C   0  0  2  0  0  0  0  0  0  0  0  0
  -18.0502  -27.6731   16.9633 C   0  0  0  0  0  0  0  0  0  0  0  0
  -20.7257  -26.2887   22.8620 C   0  0  0  0  0  0  0  0  0  0  0  0
  -19.2287  -25.6108   20.9732 C   0  0  0  0  0  0  0  0  0  0  0  0
  -18.7214  -27.6696   22.2873 C   0  0  0  0  0  0  0  0  0  0  0  0
  -21.0358  -29.9212   16.2504 C   0  0  0  0  0  0  0  0  0  0  0  0
  -29.2663  -26.7662   18.8424 C   0  0  0  0  0  0  0  0  0  1  0  0
  -29.8444  -25.3716   18.6996 C   0  0  0  0  0  0  0  0  0  0  0  0
  -20.6757  -27.6732   20.6833 C   0  0  1  0  0  0  0  0  0  0  0  0
  -19.2030  -28.6002   17.3156 C   0  0  2  0  0  0  0  0  0  0  0  0
  -19.8653  -26.8167   21.6968 C   0  0  0  0  0  0  0  0  0  0  0  0
  -25.7418  -12.0256   21.0524 N   0  0  0  0  0  0  0  0  0  0  0  0
  -26.9494  -12.4275   20.6207 N   0  0  0  0  0  0  0  0  0  0  0  0
  -22.7432  -28.9098   21.2488 N   0  0  0  0  0  0  0  0  0  0  0  0
  -27.3686  -16.1494   19.8093 N   0  0  0  0  0  0  0  0  0  0  0  0
  -26.6612  -23.3072   19.3822 N   0  0  0  0  0  0  0  0  0  0  0  0
  -28.9182  -11.6705   19.5432 N   0  0  0  0  0  0  0  0  0  0  0  0
  -26.3363   -7.9691   19.7163 N   0  0  0  0  0  0  0  0  0  0  0  0
  -28.2346  -18.2293   18.9890 N   0  0  0  0  0  0  0  0  0  0  0  0
  -24.5282  -30.1076   24.1943 N   0  0  0  0  0  0  0  0  0  0  0  0
  -19.8806  -28.2090   19.5837 N   0  0  0  0  0  0  0  0  0  0  0  0
  -29.3514  -18.7274   16.9627 N   0  3  0  0  0  0  0  0  0  0  0  0
  -19.8941  -28.9911   16.0544 N   0  3  0  0  0  0  0  0  0  0  0  0
  -28.3695   -8.7914   19.0464 O   0  0  0  0  0  0  0  0  0  0  0  0
  -23.6496  -28.0703   23.4869 O   0  0  0  0  0  0  0  0  0  0  0  0
  -20.6520  -29.7099   21.8991 O   0  0  0  0  0  0  0  0  0  0  0  0
  -21.1108  -27.2291   17.8796 O   0  0  0  0  0  0  0  0  0  0  0  0
  -28.4627  -16.2891   17.7510 O   0  0  0  0  0  0  0  0  0  0  0  0
  -21.2228   -7.6198   21.8993 O   0  0  0  0  0  0  0  0  0  0  0  0
  -27.8618  -26.7160   18.5953 O   0  0  0  0  0  0  0  0  0  1  0  0
  -29.1995  -24.5044   19.6246 O   0  0  0  0  0  0  0  0  0  0  0  0
  -22.0613   -2.6281   24.0865 F   0  0  0  0  0  0  0  0  0  0  0  0
  -20.1954   -6.9683   24.3817 F   0  0  0  0  0  0  0  0  0  0  0  0
  1  2  1  0  0  0  0
  1  6  2  0  0  0  0
  2  7  2  0  0  0  0
  3  9  2  0  0  0  0
  3 18  1  0  0  0  0
  4 10  1  0  0  0  0
  4 18  2  0  0  0  0
  5 11  2  0  0  0  0
  5 19  1  0  0  0  0
  6 21  1  0  0  0  0
  7 23  1  0  0  0  0
  8 12  2  0  0  0  0
  8 22  1  0  0  0  0
  9 26  1  0  0  0  0
 10 26  2  0  0  0  0
 11 28  1  0  0  0  0
 12 27  1  0  0  0  0
 13 14  2  0  0  0  0
 13 29  1  0  0  0  0
 14 30  1  0  0  0  0
 15 19  2  0  0  0  0
 15 25  1  0  0  0  0
 16 24  1  0  0  0  0
 16 27  2  0  0  0  0
 17 30  2  0  0  0  0
 17 31  1  0  0  0  0
 18 32  1  0  0  0  0
 19 34  1  0  0  0  0
 20 32  1  0  0  0  0
 20 33  2  0  0  0  0
 20 35  1  0  0  0  0
 21 23  2  0  0  0  0
 21 40  1  0  0  0  0
 22 24  2  0  0  0  0
 22 41  1  0  0  0  0
 23 49  1  0  0  0  0
 24 42  1  0  0  0  0
 25 28  2  0  0  0  0
 25 66  1  0  0  0  0
 26 79  1  0  0  0  0
 27 80  1  0  0  0  0
 28 81  1  0  0  0  0
 29 31  2  0  0  0  0
 29 79  1  0  0  0  0
 30 82  1  0  0  0  0
 31 83  1  0  0  0  0
 32 62  2  0  0  0  0
 33 63  1  0  0  0  0
 33 67  1  0  0  0  0
 34 69  1  0  0  0  0
 34 72  2  0  0  0  0
 35 68  1  0  0  0  0
 35 74  2  0  0  0  0
 36 50  1  0  0  0  0
 36 70  1  0  0  0  0
 36 75  2  0  0  0  0
 37 59  1  0  0  0  0
 37 64  1  0  0  0  0
 37 76  2  0  0  0  0
 38 60  1  0  0  0  0
 38 71  1  0  0  0  0
 38 77  2  0  0  0  0
 39 65  1  0  0  0  0
 39 69  1  0  0  0  0
 39 78  2  0  0  0  0
 40 43  1  0  0  0  0
 41 50  1  0  0  0  0
 42 64  1  0  0  0  0
 43 45  1  0  0  0  0
 44 46  1  0  0  0  0
 44 47  1  0  0  0  0
 45 49  1  0  0  0  0
 46 51  1  0  0  0  0
 47 65  1  0  0  0  0
 48 51  1  0  0  0  0
 48 65  1  0  0  0  0
 49 70  1  0  0  0  0
 50 64  1  0  0  0  0
 51 63  1  0  0  0  0
 52 60  1  0  0  0  0
 53 61  1  0  0  0  0
 54 61  1  0  0  0  0
 55 61  1  0  0  0  0
 56 73  1  0  0  0  0
 57 58  1  0  0  0  0
 57 80  1  0  0  0  0
 58 81  1  0  0  0  0
 59 61  1  0  0  0  0
 59 71  1  0  0  0  0
 60 73  1  0  0  0  0
 62 63  1  0  0  0  0
M  CHG  2  72   1  73   1
M  ISO  4  39 100  57 101  69 100  80 101
M  END
> <Batch ID>
0092

> <Smiles>
CNC(C)C(=O)NC(C(=O)N1Cc2cc([101O:1][101CH2:1]COc3ccc(C(=N)[100NH:0][100C:0](=O)N4CCCC(n5nc(-c6ccc(Oc7ccc(F)cc7F)cc6)c(C(N)=O)c5N)C4)cc3N)ccc2CC1C(=O)NC1CCCc2ccccc21)C(C)(C)C

> <Shape>
0.332

> <Color>
0.085

> <Negative vol penalty>
0.000

$$$$

  -OEChem-04052300343D

 86 94  0     1  0  0  0  0  0999 V2000
  -21.4332   -8.3988   24.6396 C   0  0  0  0  0  0  0  0  0  0  0  0
  -22.5276   -9.1975   24.9556 C   0  0  0  0  0  0  0  0  0  0  0  0
  -23.9240  -28.5607   19.4581 C   0  0  0  0  0  0  0  0  0  0  0  0
  -24.1540  -27.8811   21.7651 C   0  0  0  0  0  0  0  0  0  0  0  0
  -21.1622   -8.0847   23.3086 C   0  0  0  0  0  0  0  0  0  0  0  0
  -23.3523   -9.6816   23.9407 C   0  0  0  0  0  0  0  0  0  0  0  0
  -24.5001  -14.5774   24.5394 C   0  0  0  0  0  0  0  0  0  0  0  0
  -28.9484  -18.7990   23.2185 C   0  0  0  0  0  0  0  0  0  0  0  0
  -29.0348  -19.7781   22.2288 C   0  0  0  0  0  0  0  0  0  0  0  0
  -22.5865  -28.8838   19.6867 C   0  0  0  0  0  0  0  0  0  0  0  0
  -22.8165  -28.2042   21.9937 C   0  0  0  0  0  0  0  0  0  0  0  0
  -25.4828  -14.8909   25.4775 C   0  0  0  0  0  0  0  0  0  0  0  0
  -19.7858  -26.8198   21.4198 C   0  0  0  0  0  0  0  0  0  0  0  0
  -19.0136  -25.9102   22.1422 C   0  0  0  0  0  0  0  0  0  0  0  0
  -28.6670  -20.5171   24.8937 C   0  0  0  0  0  0  0  0  0  0  0  0
  -27.1001  -15.1100   23.7011 C   0  0  0  0  0  0  0  0  0  0  0  0
  -18.5924  -27.5987   23.8181 C   0  0  0  0  0  0  0  0  0  0  0  0
  -24.7077  -28.0592   20.4974 C   0  0  0  0  0  0  0  0  0  0  0  0
  -28.7534  -21.4962   23.9040 C   0  0  0  0  0  0  0  0  0  0  0  0
  -27.2048  -28.5722   20.4004 C   0  0  0  0  0  0  0  0  0  0  0  0
  -21.9783   -8.5731   22.2761 C   0  0  0  0  0  0  0  0  0  0  0  0
  -24.8132  -14.5171   23.1738 C   0  0  0  0  0  0  0  0  0  0  0  0
  -23.0926   -9.3726   22.5947 C   0  0  0  0  0  0  0  0  0  0  0  0
  -26.1191  -14.7981   22.7475 C   0  0  0  0  0  0  0  0  0  0  0  0
  -28.7645  -19.1685   24.5510 C   0  0  0  0  0  0  0  0  0  0  0  0
  -28.9373  -21.1267   22.5716 C   0  0  0  0  0  0  0  0  0  0  0  0
  -22.0327  -28.7056   20.9544 C   0  0  0  0  0  0  0  0  0  0  0  0
  -26.7836  -15.1545   25.0587 C   0  0  0  0  0  0  0  0  0  0  0  0
  -19.9614  -28.1189   21.8966 C   0  0  0  0  0  0  0  0  0  0  0  0
  -18.4169  -26.2996   23.3413 C   0  0  0  0  0  0  0  0  0  0  0  0
  -19.3647  -28.5083   23.0957 C   0  0  0  0  0  0  0  0  0  0  0  0
  -26.0893  -27.7247   20.2618 C   0  0  0  0  0  0  0  0  0  0  0  0
  -28.2783  -27.7850   20.0624 C   0  0  0  0  0  0  0  0  0  0  0  0
  -28.6504  -22.8965   24.2955 C   0  0  0  0  0  0  0  0  0  0  0  0
  -27.2651  -29.9481   20.7992 C   0  0  0  0  0  0  0  0  0  0  0  0
  -24.7480  -12.2409   20.9560 C   0  0  0  0  0  0  0  0  0  0  0  0
  -25.5081  -14.6932   18.9734 C   0  0  0  0  0  0  0  0  0  0  0  0
  -28.4928  -18.3614   26.9221 C   0  0  0  0  0  0  0  0  0  0  0  0
  -26.8821  -17.7942   18.5956 C   0  0  0  0  0  0  0  0  0  0  0  0
  -29.2125  -21.8844   20.1848 C   0  0  0  0  0  0  0  0  0  0  0  0
  -21.6729   -8.1677   20.8559 C   0  0  0  0  0  0  0  0  0  0  0  0
  -23.7357  -14.2037   22.1722 C   0  0  0  0  0  0  0  0  0  0  0  0
  -26.5020  -14.7663   21.2912 C   0  0  0  0  0  0  0  0  0  0  0  0
  -22.3781   -9.0291   19.8115 C   0  0  0  0  0  0  0  0  0  0  0  0
  -29.4529  -24.0199   17.3460 C   0  0  0  0  0  0  0  0  0  0  0  0
  -23.8478   -9.2139   20.1759 C   0  0  0  0  0  0  0  0  0  0  0  0
  -28.7244  -25.2917   17.7863 C   0  0  0  0  0  0  0  0  0  0  0  0
  -28.7846  -22.7628   17.9000 C   0  0  0  0  0  0  0  0  0  0  0  0
  -27.8499  -24.0306   19.7943 C   0  0  0  0  0  0  0  0  0  0  0  0
  -23.9962   -9.9371   21.5200 C   0  0  1  0  0  0  0  0  0  0  0  0
  -24.2837  -13.6663   20.8537 C   0  0  1  0  0  0  0  0  0  0  0  0
  -28.5242  -25.3262   19.3142 C   0  0  2  0  0  0  0  0  0  0  0  0
  -28.2917  -17.2805   29.1671 C   0  0  0  0  0  0  0  0  0  0  0  0
  -27.3943  -19.5225   16.8497 C   0  0  0  0  0  0  0  0  0  0  0  0
  -27.8720  -13.0196   18.0137 C   0  0  0  0  0  0  0  0  0  0  0  0
  -28.8540  -15.0998   17.0254 C   0  0  0  0  0  0  0  0  0  0  0  0
  -26.6590  -14.2464   16.2031 C   0  0  0  0  0  0  0  0  0  0  0  0
  -25.1483  -19.8018   19.9081 C   0  0  0  0  0  0  0  0  0  0  0  0
  -27.3220  -16.1247   27.1622 C   0  0  0  0  0  0  0  0  0  1  0  0
  -26.7947  -15.3172   18.4894 C   0  0  1  0  0  0  0  0  0  0  0  0
  -28.4540  -17.0213   27.6698 C   0  0  1  0  0  0  0  0  0  0  0  0
  -26.3846  -19.0357   17.8774 C   0  0  2  0  0  0  0  0  0  0  0  0
  -27.5385  -14.4195   17.4606 C   0  0  0  0  0  0  0  0  0  0  0  0
  -26.4233  -26.4934   19.8663 N   0  0  0  0  0  0  0  0  0  0  0  0
  -27.7607  -26.5615   19.7535 N   0  0  0  0  0  0  0  0  0  0  0  0
  -25.4146  -14.4487   20.3508 N   0  0  0  0  0  0  0  0  0  0  0  0
  -28.6319  -22.8650   19.3530 N   0  0  0  0  0  0  0  0  0  0  0  0
  -29.6050  -28.0269   20.0021 N   0  0  0  0  0  0  0  0  0  0  0  0
  -27.3833  -23.4684   24.3153 N   0  0  0  0  0  0  0  0  0  0  0  0
  -26.0679  -30.6063   21.1117 N   0  0  0  0  0  0  0  0  0  0  0  0
  -28.6776  -18.1745   25.5548 N   0  0  0  0  0  0  0  0  0  0  0  0
  -29.0292  -22.1040   21.5497 N   0  0  0  0  0  0  0  0  0  0  0  0
  -23.7653  -11.3566   21.3582 N   0  0  0  0  0  0  0  0  0  0  0  0
  -26.4421  -16.6395   17.9837 N   0  0  0  0  0  0  0  0  0  0  0  0
  -26.1397  -20.1353   18.8531 N   0  3  0  0  0  0  0  0  0  0  0  0
  -29.6587  -23.5612   24.5848 O   0  0  0  0  0  0  0  0  0  0  0  0
  -28.3471  -30.5799   20.8604 O   0  0  0  0  0  0  0  0  0  0  0  0
  -25.9113  -11.9638   20.6884 O   0  0  0  0  0  0  0  0  0  0  0  0
  -24.6161  -14.4388   18.1603 O   0  0  0  0  0  0  0  0  0  0  0  0
  -28.3789  -19.4320   27.5118 O   0  0  0  0  0  0  0  0  0  0  0  0
  -27.5931  -17.8438   19.5968 O   0  0  0  0  0  0  0  0  0  0  0  0
  -29.8504  -20.9354   19.7216 O   0  0  0  0  0  0  0  0  0  0  0  0
  -20.7277  -29.0211   21.1779 O   0  0  0  0  0  0  0  0  0  0  0  0
  -27.7448  -15.4601   25.9722 O   0  0  0  0  0  0  0  0  0  1  0  0
  -17.6741  -25.4264   24.0342 F   0  0  0  0  0  0  0  0  0  0  0  0
  -19.5288  -29.7553   23.5582 F   0  0  0  0  0  0  0  0  0  0  0  0
  1  2  1  0  0  0  0
  1  5  2  0  0  0  0
  2  6  2  0  0  0  0
  3 10  2  0  0  0  0
  3 18  1  0  0  0  0
  4 11  1  0  0  0  0
  4 18  2  0  0  0  0
  5 21  1  0  0  0  0
  6 23  1  0  0  0  0
  7 12  2  0  0  0  0
  7 22  1  0  0  0  0
  8  9  2  0  0  0  0
  8 25  1  0  0  0  0
  9 26  1  0  0  0  0
 10 27  1  0  0  0  0
 11 27  2  0  0  0  0
 12 28  1  0  0  0  0
 13 14  2  0  0  0  0
 13 29  1  0  0  0  0
 14 30  1  0  0  0  0
 15 19  1  0  0  0  0
 15 25  2  0  0  0  0
 16 24  1  0  0  0  0
 16 28  2  0  0  0  0
 17 30  2  0  0  0  0
 17 31  1  0  0  0  0
 18 32  1  0  0  0  0
 19 26  2  0  0  0  0
 19 34  1  0  0  0  0
 20 32  1  0  0  0  0
 20 33  2  0  0  0  0
 20 35  1  0  0  0  0
 21 23  2  0  0  0  0
 21 41  1  0  0  0  0
 22 24  2  0  0  0  0
 22 42  1  0  0  0  0
 23 50  1  0  0  0  0
 24 43  1  0  0  0  0
 25 71  1  0  0  0  0
 26 72  1  0  0  0  0
 27 83  1  0  0  0  0
 28 84  1  0  0  0  0
 29 31  2  0  0  0  0
 29 83  1  0  0  0  0
 30 85  1  0  0  0  0
 31 86  1  0  0  0  0
 32 64  2  0  0  0  0
 33 65  1  0  0  0  0
 33 68  1  0  0  0  0
 34 69  1  0  0  0  0
 34 76  2  0  0  0  0
 35 70  1  0  0  0  0
 35 77  2  0  0  0  0
 36 51  1  0  0  0  0
 36 73  1  0  0  0  0
 36 78  2  0  0  0  0
 37 60  1  0  0  0  0
 37 66  1  0  0  0  0
 37 79  2  0  0  0  0
 38 61  1  0  0  0  0
 38 71  1  0  0  0  0
 38 80  2  0  0  0  0
 39 62  1  0  0  0  0
 39 74  1  0  0  0  0
 39 81  2  0  0  0  0
 40 67  1  0  0  0  0
 40 72  1  0  0  0  0
 40 82  2  0  0  0  0
 41 44  1  0  0  0  0
 42 51  1  0  0  0  0
 43 66  1  0  0  0  0
 44 46  1  0  0  0  0
 45 47  1  0  0  0  0
 45 48  1  0  0  0  0
 46 50  1  0  0  0  0
 47 52  1  0  0  0  0
 48 67  1  0  0  0  0
 49 52  1  0  0  0  0
 49 67  1  0  0  0  0
 50 73  1  0  0  0  0
 51 66  1  0  0  0  0
 52 65  1  0  0  0  0
 53 61  1  0  0  0  0
 54 62  1  0  0  0  0
 55 63  1  0  0  0  0
 56 63  1  0  0  0  0
 57 63  1  0  0  0  0
 58 75  1  0  0  0  0
 59 61  1  0  0  0  0
 59 84  1  0  0  0  0
 60 63  1  0  0  0  0
 60 74  1  0  0  0  0
 62 75  1  0  0  0  0
 64 65  1  0  0  0  0
M  CHG  1  75   1
M  ISO  4  40 100  59 101  72 100  84 101
M  END
> <Batch ID>
0092

> <Smiles>
CNC(C)C(=O)NC(C(=O)N1Cc2cc([101O:1][101CH2:1]C(C)C(=O)Nc3ccc([100NH:0][100C:0](=O)N4CCCC(n5nc(-c6ccc(Oc7ccc(F)cc7F)cc6)c(C(N)=O)c5N)C4)c(C(N)=O)c3)ccc2CC1C(=O)NC1CCCc2ccccc21)C(C)(C)C

> <Shape>
0.246

> <Color>
0.061

> <Negative vol penalty>
0.000

$$$$

  -OEChem-04052300343D

 88 97  0     1  0  0  0  0  0999 V2000
  -27.7821  -32.6971   27.2578 C   0  0  0  0  0  0  0  0  0  0  0  0
  -27.9343  -31.5933   26.4247 C   0  0  0  0  0  0  0  0  0  0  0  0
  -29.6190  -10.0223   17.1938 C   0  0  0  0  0  0  0  0  0  0  0  0
  -30.4186  -12.1914   16.4919 C   0  0  0  0  0  0  0  0  0  0  0  0
  -26.5087  -33.2004   27.5204 C   0  0  0  0  0  0  0  0  0  0  0  0
  -26.8130  -30.9915   25.8547 C   0  0  0  0  0  0  0  0  0  0  0  0
  -27.4603  -29.9344   20.9447 C   0  0  0  0  0  0  0  0  0  0  0  0
  -30.0526   -9.4721   15.9877 C   0  0  0  0  0  0  0  0  0  0  0  0
  -30.8522  -11.6412   15.2857 C   0  0  0  0  0  0  0  0  0  0  0  0
  -28.2166  -28.8060   20.6306 C   0  0  0  0  0  0  0  0  0  0  0  0
  -32.4944  -10.7367   12.1707 C   0  0  0  0  0  0  0  0  0  0  0  0
  -33.7624  -11.0943   11.7126 C   0  0  0  0  0  0  0  0  0  0  0  0
  -26.1869  -27.5587   20.2516 C   0  0  0  0  0  0  0  0  0  0  0  0
  -27.5060  -20.4386   19.1784 C   0  0  0  0  0  0  0  0  0  0  0  0
  -30.2472  -20.8534   18.8684 C   0  0  0  0  0  0  0  0  0  0  0  0
  -34.7460  -10.1782   13.7202 C   0  0  0  0  0  0  0  0  0  0  0  0
  -29.8020  -11.3820   17.4459 C   0  0  0  0  0  0  0  0  0  0  0  0
  -29.7692  -11.5928   19.9880 C   0  0  0  0  0  0  0  0  0  0  0  0
  -25.3720  -32.6104   26.9457 C   0  0  0  0  0  0  0  0  0  0  0  0
  -26.0592  -29.8803   20.9251 C   0  0  0  0  0  0  0  0  0  0  0  0
  -25.5231  -31.4866   26.1110 C   0  0  0  0  0  0  0  0  0  0  0  0
  -25.4152  -28.6884   20.5633 C   0  0  0  0  0  0  0  0  0  0  0  0
  -27.9805  -21.6826   18.7628 C   0  0  0  0  0  0  0  0  0  0  0  0
  -29.3511  -21.8900   18.6077 C   0  0  0  0  0  0  0  0  0  0  0  0
  -28.4021  -19.4019   19.4392 C   0  0  0  0  0  0  0  0  0  0  0  0
  -29.7727  -19.6093   19.2841 C   0  0  0  0  0  0  0  0  0  0  0  0
  -30.6692  -10.2815   15.0336 C   0  0  0  0  0  0  0  0  0  0  0  0
  -27.5799  -27.6171   20.2868 C   0  0  0  0  0  0  0  0  0  0  0  0
  -32.3521  -10.1000   13.4036 C   0  0  0  0  0  0  0  0  0  0  0  0
  -34.8882  -10.8150   12.4873 C   0  0  0  0  0  0  0  0  0  0  0  0
  -33.4779   -9.8207   14.1783 C   0  0  0  0  0  0  0  0  0  0  0  0
  -29.3538  -11.9510   18.6915 C   0  0  0  0  0  0  0  0  0  0  0  0
  -29.0544  -12.4208   20.8186 C   0  0  0  0  0  0  0  0  0  0  0  0
  -30.2113  -25.7433   17.2144 C   0  0  0  0  0  0  0  0  0  0  0  0
  -29.9662  -25.5638   18.5192 C   0  0  0  0  0  0  0  0  0  0  0  0
  -30.5824  -24.5941   16.3640 C   0  0  0  0  0  0  0  0  0  0  0  0
  -30.7165  -10.6004   20.4043 C   0  0  0  0  0  0  0  0  0  0  0  0
  -23.7687  -30.2745   23.0934 C   0  0  0  0  0  0  0  0  0  0  0  0
  -21.8191  -29.9900   20.5165 C   0  0  0  0  0  0  0  0  0  0  0  0
  -21.6475  -27.9308   17.5589 C   0  0  0  0  0  0  0  0  0  0  0  0
  -26.5617  -17.7986   20.0627 C   0  0  0  0  0  0  0  0  0  0  0  0
  -24.0124  -33.1608   27.2967 C   0  0  0  0  0  0  0  0  0  0  0  0
  -25.2581  -31.1136   21.2405 C   0  0  0  0  0  0  0  0  0  0  0  0
  -23.9137  -28.5837   20.5076 C   0  0  0  0  0  0  0  0  0  0  0  0
  -30.6236  -23.2080   16.9576 C   0  0  0  0  0  0  0  0  0  0  0  0
  -22.9051  -32.6957   26.3544 C   0  0  0  0  0  0  0  0  0  0  0  0
  -24.9100  -14.8078   21.0647 C   0  0  0  0  0  0  0  0  0  0  0  0
  -23.0014  -31.1918   26.1187 C   0  0  0  0  0  0  0  0  0  0  0  0
  -25.9025  -13.7037   20.6934 C   0  0  0  0  0  0  0  0  0  0  0  0
  -24.9120  -15.9405   20.0396 C   0  0  0  0  0  0  0  0  0  0  0  0
  -27.2251  -15.4095   19.3789 C   0  0  0  0  0  0  0  0  0  0  0  0
  -24.3329  -30.8216   25.4542 C   0  0  1  0  0  0  0  0  0  0  0  0
  -30.0113  -24.2076   19.1920 C   0  0  2  0  0  0  0  0  0  0  0  0
  -23.8333  -30.8023   21.6881 C   0  0  1  0  0  0  0  0  0  0  0  0
  -27.3059  -14.2774   20.4160 C   0  0  2  0  0  0  0  0  0  0  0  0
  -26.9984  -22.7753   18.4902 C   0  0  0  0  0  0  0  0  0  0  0  0
  -31.3190  -24.0132   19.9672 C   0  0  0  0  0  0  0  0  0  0  0  0
  -20.6380  -28.3897   15.3077 C   0  0  0  0  0  0  0  0  0  0  0  0
  -19.3553  -28.5996   21.6596 C   0  0  0  0  0  0  0  0  0  0  0  0
  -18.9988  -27.5414   19.4188 C   0  0  0  0  0  0  0  0  0  0  0  0
  -18.9122  -30.0235   19.6520 C   0  0  0  0  0  0  0  0  0  0  0  0
  -24.1913  -27.3362   16.1681 C   0  0  0  0  0  0  0  0  0  0  0  0
  -29.5983  -26.7313   19.3939 C   0  0  0  0  0  0  0  0  0  1  0  0
  -21.1411  -28.8407   19.8106 C   0  0  1  0  0  0  0  0  0  0  0  0
  -21.9169  -28.3679   16.1303 C   0  0  2  0  0  0  0  0  0  0  0  0
  -19.6264  -28.7478   20.1492 C   0  0  0  0  0  0  0  0  0  0  0  0
  -28.4454  -12.9302   18.6932 N   0  0  0  0  0  0  0  0  0  0  0  0
  -28.2840  -13.1943   20.0010 N   0  0  0  0  0  0  0  0  0  0  0  0
  -29.8454  -23.1349   18.1932 N   0  0  2  0  0  0  0  0  0  0  0  0
  -23.1743  -29.8152   20.8305 N   0  0  0  0  0  0  0  0  0  0  0  0
  -26.2739  -16.4369   19.8311 N   0  0  0  0  0  0  0  0  0  0  0  0
  -30.6981  -18.5726   19.5411 N   0  0  0  0  0  0  0  0  0  0  0  0
  -29.0158  -12.5554   22.1613 N   0  0  0  0  0  0  0  0  0  0  0  0
  -31.3610   -9.8378   19.4208 N   0  0  0  0  0  0  0  0  0  0  0  0
  -27.8970  -18.1478   19.8631 N   0  0  0  0  0  0  0  0  0  0  0  0
  -24.2958  -31.1312   24.0410 N   0  0  0  0  0  0  0  0  0  0  0  0
  -21.4266  -29.0088   18.3898 N   0  0  0  0  0  0  0  0  0  0  0  0
  -22.8803  -27.4374   15.4769 N   0  3  0  0  0  0  0  0  0  0  0  0
  -30.8895  -24.7912   15.1882 O   0  0  0  0  0  0  0  0  0  0  0  0
  -30.9714  -10.3847   21.6134 O   0  0  0  0  0  0  0  0  0  0  0  0
  -23.2757  -29.1723   23.3028 O   0  0  0  0  0  0  0  0  0  0  0  0
  -21.1720  -31.0083   20.7733 O   0  0  0  0  0  0  0  0  0  0  0  0
  -21.6307  -26.7509   17.9025 O   0  0  0  0  0  0  0  0  0  0  0  0
  -25.6937  -18.5906   20.4385 O   0  0  0  0  0  0  0  0  0  0  0  0
  -31.0926   -9.7449   13.8566 O   0  0  0  0  0  0  0  0  0  0  0  0
  -28.3157  -26.5141   19.9805 O   0  0  0  0  0  0  0  0  0  1  0  0
  -36.1060  -11.1570   12.0466 F   0  0  0  0  0  0  0  0  0  0  0  0
  -33.3477   -9.2080   15.3630 F   0  0  0  0  0  0  0  0  0  0  0  0
  1  2  1  0  0  0  0
  1  5  2  0  0  0  0
  2  6  2  0  0  0  0
  3  8  2  0  0  0  0
  3 17  1  0  0  0  0
  4  9  1  0  0  0  0
  4 17  2  0  0  0  0
  5 19  1  0  0  0  0
  6 21  1  0  0  0  0
  7 10  2  0  0  0  0
  7 20  1  0  0  0  0
  8 27  1  0  0  0  0
  9 27  2  0  0  0  0
 10 28  1  0  0  0  0
 11 12  2  0  0  0  0
 11 29  1  0  0  0  0
 12 30  1  0  0  0  0
 13 22  1  0  0  0  0
 13 28  2  0  0  0  0
 14 23  1  0  0  0  0
 14 25  2  0  0  0  0
 15 24  1  0  0  0  0
 15 26  2  0  0  0  0
 16 30  2  0  0  0  0
 16 31  1  0  0  0  0
 17 32  1  0  0  0  0
 18 32  1  0  0  0  0
 18 33  2  0  0  0  0
 18 37  1  0  0  0  0
 19 21  2  0  0  0  0
 19 42  1  0  0  0  0
 20 22  2  0  0  0  0
 20 43  1  0  0  0  0
 21 52  1  0  0  0  0
 22 44  1  0  0  0  0
 23 24  2  0  0  0  0
 23 56  1  0  0  0  0
 24 69  1  0  0  0  0
 25 26  1  0  0  0  0
 25 75  1  0  0  0  0
 26 72  1  0  0  0  0
 27 85  1  0  0  0  0
 28 86  1  0  0  0  0
 29 31  2  0  0  0  0
 29 85  1  0  0  0  0
 30 87  1  0  0  0  0
 31 88  1  0  0  0  0
 32 67  2  0  0  0  0
 33 68  1  0  0  0  0
 33 73  1  0  0  0  0
 34 35  2  0  0  0  0
 34 36  1  0  0  0  0
 35 53  1  0  0  0  0
 35 63  1  0  0  0  0
 36 45  1  0  0  0  0
 36 79  2  0  0  0  0
 37 74  1  0  0  0  0
 37 80  2  0  0  0  0
 38 54  1  0  0  0  0
 38 76  1  0  0  0  0
 38 81  2  0  0  0  0
 39 64  1  0  0  0  0
 39 70  1  0  0  0  0
 39 82  2  0  0  0  0
 40 65  1  0  0  0  0
 40 77  1  0  0  0  0
 40 83  2  0  0  0  0
 41 71  1  0  0  0  0
 41 75  1  0  0  0  0
 41 84  2  0  0  0  0
 42 46  1  0  0  0  0
 43 54  1  0  0  0  0
 44 70  1  0  0  0  0
 45 69  1  0  0  0  0
 46 48  1  0  0  0  0
 47 49  1  0  0  0  0
 47 50  1  0  0  0  0
 48 52  1  0  0  0  0
 49 55  1  0  0  0  0
 50 71  1  0  0  0  0
 51 55  1  0  0  0  0
 51 71  1  0  0  0  0
 52 76  1  0  0  0  0
 53 57  1  0  0  0  0
 53 69  1  0  0  0  0
 54 70  1  0  0  0  0
 55 68  1  0  0  0  0
 58 65  1  0  0  0  0
 59 66  1  0  0  0  0
 60 66  1  0  0  0  0
 61 66  1  0  0  0  0
 62 78  1  0  0  0  0
 63 86  1  0  0  0  0
 64 66  1  0  0  0  0
 64 77  1  0  0  0  0
 65 78  1  0  0  0  0
 67 68  1  0  0  0  0
M  CHG  1  78   1
M  ISO  4  41 100  63 101  75 100  86 101
M  END
> <Batch ID>
0092

> <Smiles>
CNC(C)C(=O)NC(C(=O)N1Cc2cc([101O:1][101CH2:1]C3=C(C)N(c4cc(N)c([100NH:0][100C:0](=O)N5CCCC(n6nc(-c7ccc(Oc8ccc(F)cc8F)cc7)c(C(N)=O)c6N)C5)cc4C)CC(=O)C3)ccc2CC1C(=O)NC1CCCc2ccccc21)C(C)(C)C

> <Shape>
0.278

> <Color>
0.080

> <Negative vol penalty>
0.000

$$$$

  -OEChem-04052300343D

 87 95  0     1  0  0  0  0  0999 V2000
  -25.5515  -35.5721   22.1182 C   0  0  0  0  0  0  0  0  0  0  0  0
  -26.1721  -34.3272   22.0964 C   0  0  0  0  0  0  0  0  0  0  0  0
  -21.3667  -15.6033   17.9061 C   0  0  0  0  0  0  0  0  0  0  0  0
  -19.9513  -15.0632   19.7881 C   0  0  0  0  0  0  0  0  0  0  0  0
  -24.2396  -35.6878   22.5760 C   0  0  0  0  0  0  0  0  0  0  0  0
  -25.4815  -33.1974   22.5336 C   0  0  0  0  0  0  0  0  0  0  0  0
  -26.0654  -29.2408   19.4272 C   0  0  0  0  0  0  0  0  0  0  0  0
  -20.3401  -15.2469   17.0317 C   0  0  0  0  0  0  0  0  0  0  0  0
  -18.9247  -14.7068   18.9137 C   0  0  0  0  0  0  0  0  0  0  0  0
  -27.2637  -28.5336   19.5153 C   0  0  0  0  0  0  0  0  0  0  0  0
  -16.5933  -16.2792   17.0394 C   0  0  0  0  0  0  0  0  0  0  0  0
  -15.3092  -16.7415   17.3274 C   0  0  0  0  0  0  0  0  0  0  0  0
  -29.8133  -19.4970   23.1732 C   0  0  0  0  0  0  0  0  0  0  0  0
  -26.1658  -26.8514   20.8509 C   0  0  0  0  0  0  0  0  0  0  0  0
  -29.7250  -20.2388   20.4853 C   0  0  0  0  0  0  0  0  0  0  0  0
  -14.5212  -14.4622   17.4721 C   0  0  0  0  0  0  0  0  0  0  0  0
  -21.1724  -15.5114   19.2843 C   0  0  0  0  0  0  0  0  0  0  0  0
  -29.8160  -18.5184   22.1792 C   0  0  0  0  0  0  0  0  0  0  0  0
  -22.4782  -17.1513   20.7381 C   0  0  0  0  0  0  0  0  0  0  0  0
  -23.5294  -34.5574   23.0100 C   0  0  0  0  0  0  0  0  0  0  0  0
  -24.9090  -28.7634   20.0606 C   0  0  0  0  0  0  0  0  0  0  0  0
  -24.1594  -33.2983   22.9989 C   0  0  0  0  0  0  0  0  0  0  0  0
  -24.9535  -27.5531   20.7673 C   0  0  0  0  0  0  0  0  0  0  0  0
  -29.7664  -20.8465   22.8232 C   0  0  0  0  0  0  0  0  0  0  0  0
  -29.7718  -18.8893   20.8353 C   0  0  0  0  0  0  0  0  0  0  0  0
  -29.7223  -21.2173   21.4793 C   0  0  0  0  0  0  0  0  0  0  0  0
  -19.1191  -14.7987   17.5355 C   0  0  0  0  0  0  0  0  0  0  0  0
  -27.3147  -27.3402   20.2296 C   0  0  0  0  0  0  0  0  0  0  0  0
  -16.8414  -14.9084   16.9677 C   0  0  0  0  0  0  0  0  0  0  0  0
  -14.2731  -15.8330   17.5438 C   0  0  0  0  0  0  0  0  0  0  0  0
  -15.8053  -13.9999   17.1841 C   0  0  0  0  0  0  0  0  0  0  0  0
  -22.2327  -15.8789   20.1881 C   0  0  0  0  0  0  0  0  0  0  0  0
  -23.5901  -16.9764   21.5252 C   0  0  0  0  0  0  0  0  0  0  0  0
  -29.8669  -17.0902   22.5848 C   0  0  0  0  0  0  0  0  0  0  0  0
  -21.7648  -18.3813   20.5540 C   0  0  0  0  0  0  0  0  0  0  0  0
  -29.5875  -24.5818   19.7995 C   0  0  0  0  0  0  0  0  0  0  0  0
  -29.6296  -23.0812   19.8179 C   0  0  0  0  0  0  0  0  0  0  0  0
  -22.9969  -29.8506   22.3553 C   0  0  0  0  0  0  0  0  0  0  0  0
  -21.2286  -27.2443   21.5789 C   0  0  0  0  0  0  0  0  0  0  0  0
  -21.1228  -24.1138   20.2240 C   0  0  0  0  0  0  0  0  0  0  0  0
  -28.6642  -14.9347   22.4095 C   0  0  0  0  0  0  0  0  0  0  0  0
  -22.1294  -34.7393   23.5407 C   0  0  0  0  0  0  0  0  0  0  0  0
  -23.6178  -29.5244   19.9337 C   0  0  0  0  0  0  0  0  0  0  0  0
  -23.7351  -26.9872   21.4483 C   0  0  0  0  0  0  0  0  0  0  0  0
  -21.3396  -33.4364   23.6348 C   0  0  0  0  0  0  0  0  0  0  0  0
  -25.9519  -12.7464   23.0026 C   0  0  0  0  0  0  0  0  0  0  0  0
  -22.1864  -32.3443   24.2806 C   0  0  0  0  0  0  0  0  0  0  0  0
  -24.7584  -13.4725   22.3760 C   0  0  0  0  0  0  0  0  0  0  0  0
  -27.2247  -12.9298   22.1772 C   0  0  0  0  0  0  0  0  0  0  0  0
  -26.3795  -15.0432   21.2407 C   0  0  0  0  0  0  0  0  0  0  0  0
  -23.4349  -32.0457   23.4417 C   0  0  1  0  0  0  0  0  0  0  0  0
  -22.6258  -29.2081   21.0487 C   0  0  1  0  0  0  0  0  0  0  0  0
  -25.0898  -14.9473   22.0716 C   0  0  1  0  0  0  0  0  0  0  0  0
  -19.5434  -22.2186   19.7645 C   0  0  0  0  0  0  0  0  0  0  0  0
  -21.3038  -26.4695   24.5291 C   0  0  0  0  0  0  0  0  0  0  0  0
  -20.5697  -24.1680   23.8716 C   0  0  0  0  0  0  0  0  0  0  0  0
  -19.0910  -26.1247   23.4160 C   0  0  0  0  0  0  0  0  0  0  0  0
  -21.5739  -24.2927   17.3045 C   0  0  0  0  0  0  0  0  0  0  0  0
  -28.3902  -25.2299   20.4443 C   0  0  0  0  0  0  0  0  0  1  0  0
  -21.1857  -25.8064   22.0366 C   0  0  1  0  0  0  0  0  0  0  0  0
  -20.1805  -23.4849   19.2136 C   0  0  2  0  0  0  0  0  0  0  0  0
  -20.5612  -25.6535   23.4522 C   0  0  0  0  0  0  0  0  0  0  0  0
  -23.1176  -14.9633   20.5915 N   0  0  0  0  0  0  0  0  0  0  0  0
  -23.9300  -15.6612   21.4033 N   0  0  0  0  0  0  0  0  0  0  0  0
  -22.4977  -27.7713   21.3006 N   0  0  0  0  0  0  0  0  0  0  0  0
  -27.4731  -14.3531   21.9411 N   0  0  0  0  0  0  0  0  0  0  0  0
  -29.7653  -21.8215   23.8461 N   0  0  0  0  0  0  0  0  0  0  0  0
  -29.7728  -17.9135   19.8136 N   0  0  0  0  0  0  0  0  0  0  0  0
  -24.3004  -17.8210   22.3027 N   0  0  0  0  0  0  0  0  0  0  0  0
  -20.6447  -18.3844   19.7115 N   0  0  0  0  0  0  0  0  0  0  0  0
  -29.6751  -22.5793   21.1007 N   0  0  0  0  0  0  0  0  0  0  0  0
  -28.7880  -16.3081   22.1717 N   0  0  0  0  0  0  0  0  0  0  0  0
  -23.0917  -31.2279   22.2981 N   0  0  0  0  0  0  0  0  0  0  0  0
  -20.4866  -25.0661   20.9919 N   0  0  0  0  0  0  0  0  0  0  0  0
  -20.9169  -23.1360   17.9658 N   0  3  0  0  0  0  0  0  0  0  0  0
  -30.8428  -16.6796   23.2069 O   0  0  0  0  0  0  0  0  0  0  0  0
  -22.1201  -19.4497   21.1068 O   0  0  0  0  0  0  0  0  0  0  0  0
  -30.5088  -25.1666   19.2502 O   0  0  0  0  0  0  0  0  0  0  0  0
  -29.6442  -22.5216   18.7341 O   0  0  0  0  0  0  0  0  0  0  0  0
  -23.1821  -29.1487   23.3426 O   0  0  0  0  0  0  0  0  0  0  0  0
  -20.1743  -27.8745   21.4653 O   0  0  0  0  0  0  0  0  0  0  0  0
  -22.3041  -23.7899   20.3247 O   0  0  0  0  0  0  0  0  0  0  0  0
  -29.5260  -14.2948   23.0204 O   0  0  0  0  0  0  0  0  0  0  0  0
  -18.1170  -14.4511   16.6825 O   0  0  0  0  0  0  0  0  0  0  0  0
  -28.4832  -26.6482   20.3177 O   0  0  0  0  0  0  0  0  0  1  0  0
  -13.0403  -16.2770   17.8218 F   0  0  0  0  0  0  0  0  0  0  0  0
  -16.0378  -12.6818   17.1178 F   0  0  0  0  0  0  0  0  0  0  0  0
  1  2  1  0  0  0  0
  1  5  2  0  0  0  0
  2  6  2  0  0  0  0
  3  8  2  0  0  0  0
  3 17  1  0  0  0  0
  4  9  1  0  0  0  0
  4 17  2  0  0  0  0
  5 20  1  0  0  0  0
  6 22  1  0  0  0  0
  7 10  2  0  0  0  0
  7 21  1  0  0  0  0
  8 27  1  0  0  0  0
  9 27  2  0  0  0  0
 10 28  1  0  0  0  0
 11 12  2  0  0  0  0
 11 29  1  0  0  0  0
 12 30  1  0  0  0  0
 13 18  2  0  0  0  0
 13 24  1  0  0  0  0
 14 23  1  0  0  0  0
 14 28  2  0  0  0  0
 15 25  2  0  0  0  0
 15 26  1  0  0  0  0
 16 30  2  0  0  0  0
 16 31  1  0  0  0  0
 17 32  1  0  0  0  0
 18 25  1  0  0  0  0
 18 34  1  0  0  0  0
 19 32  1  0  0  0  0
 19 33  2  0  0  0  0
 19 35  1  0  0  0  0
 20 22  2  0  0  0  0
 20 42  1  0  0  0  0
 21 23  2  0  0  0  0
 21 43  1  0  0  0  0
 22 51  1  0  0  0  0
 23 44  1  0  0  0  0
 24 26  2  0  0  0  0
 24 67  1  0  0  0  0
 25 68  1  0  0  0  0
 26 71  1  0  0  0  0
 27 84  1  0  0  0  0
 28 85  1  0  0  0  0
 29 31  2  0  0  0  0
 29 84  1  0  0  0  0
 30 86  1  0  0  0  0
 31 87  1  0  0  0  0
 32 63  2  0  0  0  0
 33 64  1  0  0  0  0
 33 69  1  0  0  0  0
 34 72  1  0  0  0  0
 34 76  2  0  0  0  0
 35 70  1  0  0  0  0
 35 77  2  0  0  0  0
 36 37  1  0  0  0  0
 36 59  1  0  0  0  0
 36 78  2  0  0  0  0
 37 71  1  0  0  0  0
 37 79  2  0  0  0  0
 38 52  1  0  0  0  0
 38 73  1  0  0  0  0
 38 80  2  0  0  0  0
 39 60  1  0  0  0  0
 39 65  1  0  0  0  0
 39 81  2  0  0  0  0
 40 61  1  0  0  0  0
 40 74  1  0  0  0  0
 40 82  2  0  0  0  0
 41 66  1  0  0  0  0
 41 72  1  0  0  0  0
 41 83  2  0  0  0  0
 42 45  1  0  0  0  0
 43 52  1  0  0  0  0
 44 65  1  0  0  0  0
 45 47  1  0  0  0  0
 46 48  1  0  0  0  0
 46 49  1  0  0  0  0
 47 51  1  0  0  0  0
 48 53  1  0  0  0  0
 49 66  1  0  0  0  0
 50 53  1  0  0  0  0
 50 66  1  0  0  0  0
 51 73  1  0  0  0  0
 52 65  1  0  0  0  0
 53 64  1  0  0  0  0
 54 61  1  0  0  0  0
 55 62  1  0  0  0  0
 56 62  1  0  0  0  0
 57 62  1  0  0  0  0
 58 75  1  0  0  0  0
 59 85  1  0  0  0  0
 60 62  1  0  0  0  0
 60 74  1  0  0  0  0
 61 75  1  0  0  0  0
 63 64  1  0  0  0  0
M  CHG  1  75   1
M  ISO  4  41 100  59 101  72 100  85 101
M  END
> <Batch ID>
0092

> <Smiles>
CNC(C)C(=O)NC(C(=O)N1Cc2cc([101O:1][101CH2:1]C(=O)C(=O)Nc3cc(N)c(C(=O)[100NH:0][100C:0](=O)N4CCCC(n5nc(-c6ccc(Oc7ccc(F)cc7F)cc6)c(C(N)=O)c5N)C4)cc3N)ccc2CC1C(=O)NC1CCCc2ccccc21)C(C)(C)C

> <Shape>
0.204

> <Color>
0.093

> <Negative vol penalty>
0.000

$$$$

  -OEChem-04052300343D

 86 95  0     1  0  0  0  0  0999 V2000
  -16.5451  -29.0428   23.3864 C   0  0  0  0  0  0  0  0  0  0  0  0
  -17.1247  -29.0241   22.1218 C   0  0  0  0  0  0  0  0  0  0  0  0
  -25.7402  -18.5846   19.4148 C   0  0  0  0  0  0  0  0  0  0  0  0
  -25.1114  -17.2339   17.5129 C   0  0  0  0  0  0  0  0  0  0  0  0
  -17.2633  -29.5383   24.4739 C   0  0  0  0  0  0  0  0  0  0  0  0
  -18.4225  -29.5021   21.9438 C   0  0  0  0  0  0  0  0  0  0  0  0
  -24.6910  -25.9495   18.9253 C   0  0  0  0  0  0  0  0  0  0  0  0
  -33.5620  -24.4352   13.7766 C   0  0  0  0  0  0  0  0  0  0  0  0
  -32.4094  -23.6866   13.5384 C   0  0  0  0  0  0  0  0  0  0  0  0
  -25.7474  -17.4463   20.2209 C   0  0  0  0  0  0  0  0  0  0  0  0
  -25.1187  -16.0955   18.3190 C   0  0  0  0  0  0  0  0  0  0  0  0
  -25.9076  -25.3746   18.5570 C   0  0  0  0  0  0  0  0  0  0  0  0
  -27.4123  -13.9853   19.6256 C   0  0  0  0  0  0  0  0  0  0  0  0
  -28.0328  -12.8415   19.1235 C   0  0  0  0  0  0  0  0  0  0  0  0
  -27.0870  -26.9294   19.9852 C   0  0  0  0  0  0  0  0  0  0  0  0
  -33.2171  -24.2089   16.1571 C   0  0  0  0  0  0  0  0  0  0  0  0
  -25.9464  -11.6351   19.2931 C   0  0  0  0  0  0  0  0  0  0  0  0
  -25.4221  -18.4784   18.0608 C   0  0  0  0  0  0  0  0  0  0  0  0
  -24.6166  -20.8033   17.3871 C   0  0  0  0  0  0  0  0  0  0  0  0
  -18.5740  -30.0137   24.3109 C   0  0  0  0  0  0  0  0  0  0  0  0
  -24.6667  -27.0079   19.8379 C   0  0  0  0  0  0  0  0  0  0  0  0
  -19.1584  -30.0058   23.0299 C   0  0  0  0  0  0  0  0  0  0  0  0
  -25.8705  -27.5011   20.3674 C   0  0  0  0  0  0  0  0  0  0  0  0
  -32.0645  -23.4603   15.9190 C   0  0  0  0  0  0  0  0  0  0  0  0
  -33.9659  -24.6963   15.0859 C   0  0  0  0  0  0  0  0  0  0  0  0
  -31.6607  -23.1991   14.6096 C   0  0  0  0  0  0  0  0  0  0  0  0
  -25.4367  -16.2018   19.6730 C   0  0  0  0  0  0  0  0  0  0  0  0
  -27.1026  -25.8635   19.0855 C   0  0  0  0  0  0  0  0  0  0  0  0
  -26.0588  -13.9541   19.9615 C   0  0  0  0  0  0  0  0  0  0  0  0
  -27.2999  -11.6664   18.9572 C   0  0  0  0  0  0  0  0  0  0  0  0
  -25.3259  -12.7790   19.7952 C   0  0  0  0  0  0  0  0  0  0  0  0
  -25.4139  -19.6540   17.2277 C   0  0  0  0  0  0  0  0  0  0  0  0
  -24.9833  -21.6224   16.3473 C   0  0  0  0  0  0  0  0  0  0  0  0
  -29.5938  -23.3055   18.6889 C   0  0  0  0  0  0  0  0  0  0  0  0
  -29.6661  -21.8598   19.0421 C   0  0  0  0  0  0  0  0  0  0  0  0
  -28.4713  -23.9683   18.9979 C   0  0  0  0  0  0  0  0  0  1  0  0
  -23.6326  -21.1036   18.3857 C   0  0  0  0  0  0  0  0  0  0  0  0
  -22.5910  -29.4592   21.7766 C   0  0  0  0  0  0  0  0  0  0  0  0
  -24.8139  -28.4912   23.6561 C   0  0  0  0  0  0  0  0  0  0  0  0
  -27.1516  -26.8611   25.5309 C   0  0  0  0  0  0  0  0  0  0  0  0
  -29.9722  -22.1044   13.0940 C   0  0  0  0  0  0  0  0  0  0  0  0
  -19.2936  -30.5836   25.5076 C   0  0  0  0  0  0  0  0  0  0  0  0
  -23.3843  -27.6979   20.2160 C   0  0  0  0  0  0  0  0  0  0  0  0
  -25.7987  -28.6638   21.3192 C   0  0  0  0  0  0  0  0  0  0  0  0
  -30.7607  -23.9245   17.9757 C   0  0  0  0  0  0  0  0  0  0  0  0
  -30.4136  -20.9711   18.0766 C   0  0  0  0  0  0  0  0  0  0  0  0
  -20.7997  -30.7248   25.3023 C   0  0  0  0  0  0  0  0  0  0  0  0
  -26.6891  -21.4615   11.8753 C   0  0  0  0  0  0  0  0  0  0  0  0
  -21.0965  -31.3637   23.9494 C   0  0  0  0  0  0  0  0  0  0  0  0
  -25.9154  -21.0355   13.1252 C   0  0  0  0  0  0  0  0  0  0  0  0
  -31.6596  -21.6462   17.5207 C   0  0  0  0  0  0  0  0  0  0  0  0
  -28.1276  -20.9477   11.8962 C   0  0  0  0  0  0  0  0  0  0  0  0
  -28.1141  -20.8533   14.3580 C   0  0  0  0  0  0  0  0  0  0  0  0
  -20.5728  -30.4926   22.8011 C   0  0  1  0  0  0  0  0  0  0  0  0
  -23.3657  -28.1779   21.6784 C   0  0  1  0  0  0  0  0  0  0  0  0
  -26.6790  -21.4021   14.4128 C   0  0  2  0  0  0  0  0  0  0  0  0
  -28.1041  -26.7732   27.8510 C   0  0  0  0  0  0  0  0  0  0  0  0
  -26.3627  -31.0623   23.1137 C   0  0  0  0  0  0  0  0  0  0  0  0
  -27.9335  -30.4206   24.9546 C   0  0  0  0  0  0  0  0  0  0  0  0
  -25.5238  -30.8241   25.4576 C   0  0  0  0  0  0  0  0  0  0  0  0
  -26.3327  -24.0393   25.8852 C   0  0  0  0  0  0  0  0  0  0  0  0
  -26.1958  -28.7306   24.2096 C   0  0  1  0  0  0  0  0  0  0  0  0
  -27.0676  -26.2020   26.8958 C   0  0  2  0  0  0  0  0  0  0  0  0
  -26.4996  -30.2419   24.4118 C   0  0  0  0  0  0  0  0  0  0  0  0
  -26.2257  -19.7322   16.1700 N   0  0  0  0  0  0  0  0  0  0  0  0
  -25.9404  -20.9404   15.6552 N   0  0  0  0  0  0  0  0  0  0  0  0
  -31.3288  -22.9808   17.0078 N   0  0  2  0  0  0  0  0  0  0  0  0
  -24.6853  -28.4732   22.2619 N   0  0  0  0  0  0  0  0  0  0  0  0
  -28.7896  -21.3364   13.1435 N   0  0  0  0  0  0  0  0  0  0  0  0
  -35.1318  -25.4527   15.3263 N   0  0  0  0  0  0  0  0  0  0  0  0
  -24.5772  -22.8523   15.9667 N   0  0  0  0  0  0  0  0  0  0  0  0
  -23.3792  -20.1507   19.3818 N   0  0  0  0  0  0  0  0  0  0  0  0
  -30.4934  -22.4415   14.3427 N   0  0  0  0  0  0  0  0  0  0  0  0
  -21.4620  -29.3747   22.5688 N   0  0  0  0  0  0  0  0  0  0  0  0
  -26.2912  -27.9337   25.4279 N   0  0  0  0  0  0  0  0  0  0  0  0
  -27.2964  -24.7342   26.7772 N   0  3  0  0  0  0  0  0  0  0  0  0
  -29.0870  -21.4002   20.0236 O   0  0  0  0  0  0  0  0  0  0  0  0
  -22.9852  -22.1780   18.3849 O   0  0  0  0  0  0  0  0  0  0  0  0
  -22.9883  -30.4527   21.1793 O   0  0  0  0  0  0  0  0  0  0  0  0
  -23.8713  -28.3298   24.4363 O   0  0  0  0  0  0  0  0  0  0  0  0
  -27.9078  -26.4665   24.6460 O   0  0  0  0  0  0  0  0  0  0  0  0
  -30.4698  -22.4615   12.0231 O   0  0  0  0  0  0  0  0  0  0  0  0
  -25.4440  -15.0907   20.4592 O   0  0  0  0  0  0  0  0  0  0  0  0
  -28.2863  -25.2946   18.7251 O   0  0  0  0  0  0  0  0  0  1  0  0
  -27.8956  -10.5685   18.4735 F   0  0  0  0  0  0  0  0  0  0  0  0
  -24.0250  -12.7432   20.1151 F   0  0  0  0  0  0  0  0  0  0  0  0
  1  2  1  0  0  0  0
  1  5  2  0  0  0  0
  2  6  2  0  0  0  0
  3 10  2  0  0  0  0
  3 18  1  0  0  0  0
  4 11  1  0  0  0  0
  4 18  2  0  0  0  0
  5 20  1  0  0  0  0
  6 22  1  0  0  0  0
  7 12  2  0  0  0  0
  7 21  1  0  0  0  0
  8  9  2  0  0  0  0
  8 25  1  0  0  0  0
  9 26  1  0  0  0  0
 10 27  1  0  0  0  0
 11 27  2  0  0  0  0
 12 28  1  0  0  0  0
 13 14  2  0  0  0  0
 13 29  1  0  0  0  0
 14 30  1  0  0  0  0
 15 23  1  0  0  0  0
 15 28  2  0  0  0  0
 16 24  1  0  0  0  0
 16 25  2  0  0  0  0
 17 30  2  0  0  0  0
 17 31  1  0  0  0  0
 18 32  1  0  0  0  0
 19 32  1  0  0  0  0
 19 33  2  0  0  0  0
 19 37  1  0  0  0  0
 20 22  2  0  0  0  0
 20 42  1  0  0  0  0
 21 23  2  0  0  0  0
 21 43  1  0  0  0  0
 22 54  1  0  0  0  0
 23 44  1  0  0  0  0
 24 26  2  0  0  0  0
 24 67  1  0  0  0  0
 25 70  1  0  0  0  0
 26 73  1  0  0  0  0
 27 83  1  0  0  0  0
 28 84  1  0  0  0  0
 29 31  2  0  0  0  0
 29 83  1  0  0  0  0
 30 85  1  0  0  0  0
 31 86  1  0  0  0  0
 32 65  2  0  0  0  0
 33 66  1  0  0  0  0
 33 71  1  0  0  0  0
 34 35  1  0  0  0  0
 34 36  2  0  0  0  0
 34 45  1  0  0  0  0
 35 46  1  0  0  0  0
 35 77  2  0  0  0  0
 36 84  1  0  0  0  0
 37 72  1  0  0  0  0
 37 78  2  0  0  0  0
 38 55  1  0  0  0  0
 38 74  1  0  0  0  0
 38 79  2  0  0  0  0
 39 62  1  0  0  0  0
 39 68  1  0  0  0  0
 39 80  2  0  0  0  0
 40 63  1  0  0  0  0
 40 75  1  0  0  0  0
 40 81  2  0  0  0  0
 41 69  1  0  0  0  0
 41 73  1  0  0  0  0
 41 82  2  0  0  0  0
 42 47  1  0  0  0  0
 43 55  1  0  0  0  0
 44 68  1  0  0  0  0
 45 67  1  0  0  0  0
 46 51  1  0  0  0  0
 47 49  1  0  0  0  0
 48 50  1  0  0  0  0
 48 52  1  0  0  0  0
 49 54  1  0  0  0  0
 50 56  1  0  0  0  0
 51 67  1  0  0  0  0
 52 69  1  0  0  0  0
 53 56  1  0  0  0  0
 53 69  1  0  0  0  0
 54 74  1  0  0  0  0
 55 68  1  0  0  0  0
 56 66  1  0  0  0  0
 57 63  1  0  0  0  0
 58 64  1  0  0  0  0
 59 64  1  0  0  0  0
 60 64  1  0  0  0  0
 61 76  1  0  0  0  0
 62 64  1  0  0  0  0
 62 75  1  0  0  0  0
 63 76  1  0  0  0  0
 65 66  1  0  0  0  0
M  CHG  1  76   1
M  ISO  4  36 101  41 100  73 100  84 101
M  END
> <Batch ID>
0092

> <Smiles>
CNC(C)C(=O)NC(C(=O)N1Cc2cc([101O:1][101CH:1]=C3CN(c4cc(N)ccc4[100NH:0][100C:0](=O)N4CCCC(n5nc(-c6ccc(Oc7ccc(F)cc7F)cc6)c(C(N)=O)c5N)C4)CCC3=O)ccc2CC1C(=O)NC1CCCc2ccccc21)C(C)(C)C

> <Shape>
0.199

> <Color>
0.071

> <Negative vol penalty>
0.000

$$$$

  -OEChem-04052300343D

 87 96  0     1  0  0  0  0  0999 V2000
  -19.7781  -30.9093   20.6657 C   0  0  0  0  0  0  0  0  0  0  0  0
  -20.8061  -31.0765   21.5868 C   0  0  0  0  0  0  0  0  0  0  0  0
  -28.0956  -17.7997   18.7545 C   0  0  0  0  0  0  0  0  0  0  0  0
  -27.9270  -17.8697   21.1636 C   0  0  0  0  0  0  0  0  0  0  0  0
  -18.9696  -29.7764   20.7275 C   0  0  0  0  0  0  0  0  0  0  0  0
  -21.0334  -30.1051   22.5623 C   0  0  0  0  0  0  0  0  0  0  0  0
  -24.1790  -23.1248   23.3599 C   0  0  0  0  0  0  0  0  0  0  0  0
  -22.7287  -15.3906   18.3358 C   0  0  0  0  0  0  0  0  0  0  0  0
  -22.8869  -14.0159   18.1612 C   0  0  0  0  0  0  0  0  0  0  0  0
  -27.9684  -19.1878   18.7052 C   0  0  0  0  0  0  0  0  0  0  0  0
  -27.7998  -19.2578   21.1143 C   0  0  0  0  0  0  0  0  0  0  0  0
  -24.2311  -22.0791   22.4394 C   0  0  0  0  0  0  0  0  0  0  0  0
  -29.9372  -21.8893   19.2139 C   0  0  0  0  0  0  0  0  0  0  0  0
  -30.8079  -22.5909   18.3802 C   0  0  0  0  0  0  0  0  0  0  0  0
  -24.7816  -23.6507   20.6941 C   0  0  0  0  0  0  0  0  0  0  0  0
  -24.2454  -14.4207   16.2047 C   0  0  0  0  0  0  0  0  0  0  0  0
  -28.9239  -23.4502   17.1355 C   0  0  0  0  0  0  0  0  0  0  0  0
  -28.0749  -17.1406   19.9837 C   0  0  0  0  0  0  0  0  0  0  0  0
  -29.3976  -14.9649   20.1403 C   0  0  0  0  0  0  0  0  0  0  0  0
  -19.1798  -28.7972   21.7123 C   0  0  0  0  0  0  0  0  0  0  0  0
  -24.4175  -24.4450   22.9516 C   0  0  0  0  0  0  0  0  0  0  0  0
  -20.2433  -28.9431   22.6262 C   0  0  0  0  0  0  0  0  0  0  0  0
  -24.7345  -24.7112   21.6119 C   0  0  0  0  0  0  0  0  0  0  0  0
  -24.0872  -15.7955   16.3794 C   0  0  0  0  0  0  0  0  0  0  0  0
  -23.3288  -16.2805   17.4448 C   0  0  0  0  0  0  0  0  0  0  0  0
  -23.6453  -13.5309   17.0957 C   0  0  0  0  0  0  0  0  0  0  0  0
  -27.8205  -19.9169   19.8851 C   0  0  0  0  0  0  0  0  0  0  0  0
  -24.5296  -22.3423   21.1057 C   0  0  0  0  0  0  0  0  0  0  0  0
  -28.5597  -21.9681   19.0084 C   0  0  0  0  0  0  0  0  0  0  0  0
  -30.3013  -23.3714   17.3410 C   0  0  0  0  0  0  0  0  0  0  0  0
  -28.0531  -22.7485   17.9693 C   0  0  0  0  0  0  0  0  0  0  0  0
  -28.2057  -15.7066   20.0351 C   0  0  0  0  0  0  0  0  0  0  0  0
  -28.9868  -13.6544   20.1504 C   0  0  0  0  0  0  0  0  0  0  0  0
  -23.5801  -18.3177   18.8220 C   0  0  0  0  0  0  0  0  0  0  0  0
  -23.3081  -19.5905   19.1484 C   0  0  0  0  0  0  0  0  0  0  0  0
  -22.4982  -18.4743   16.6517 C   0  0  0  0  0  0  0  0  0  0  0  0
  -30.7548  -15.4200   20.2216 C   0  0  0  0  0  0  0  0  0  0  0  0
  -22.7088  -27.1250   22.9150 C   0  0  0  0  0  0  0  0  0  0  0  0
  -25.5140  -28.4400   21.9537 C   0  0  0  0  0  0  0  0  0  0  0  0
  -28.5612  -28.0082   20.4790 C   0  0  0  0  0  0  0  0  0  0  0  0
  -23.7996  -11.2235   18.0163 C   0  0  0  0  0  0  0  0  0  0  0  0
  -18.2798  -27.5868   21.7284 C   0  0  0  0  0  0  0  0  0  0  0  0
  -24.3838  -25.5586   23.9622 C   0  0  0  0  0  0  0  0  0  0  0  0
  -25.0185  -26.1084   21.1267 C   0  0  0  0  0  0  0  0  0  0  0  0
  -22.5303  -20.4633   18.2148 C   0  0  0  0  0  0  0  0  0  0  0  0
  -22.6781  -19.9759   16.7858 C   0  0  0  0  0  0  0  0  0  0  0  0
  -18.3127  -26.8392   23.0574 C   0  0  0  0  0  0  0  0  0  0  0  0
  -25.2889  -10.8868   21.3747 C   0  0  0  0  0  0  0  0  0  0  0  0
  -19.7533  -26.5901   23.4781 C   0  0  0  0  0  0  0  0  0  0  0  0
  -26.2598  -12.0647   21.4363 C   0  0  0  0  0  0  0  0  0  0  0  0
  -24.0925  -11.1847   20.4758 C   0  0  0  0  0  0  0  0  0  0  0  0
  -25.4402  -12.7909   19.1590 C   0  0  0  0  0  0  0  0  0  0  0  0
  -20.4899  -27.9146   23.7151 C   0  0  1  0  0  0  0  0  0  0  0  0
  -24.1378  -26.9274   23.3350 C   0  0  1  0  0  0  0  0  0  0  0  0
  -26.6780  -12.5055   20.0228 C   0  0  1  0  0  0  0  0  0  0  0  0
  -24.7407  -16.7259   15.4097 C   0  0  0  0  0  0  0  0  0  0  0  0
  -30.6183  -29.2750   19.8000 C   0  0  0  0  0  0  0  0  0  0  0  0
  -24.0070  -29.6047   19.5699 C   0  0  0  0  0  0  0  0  0  0  0  0
  -26.2154  -30.0249   18.4679 C   0  0  0  0  0  0  0  0  0  0  0  0
  -25.6611  -31.1595   20.6192 C   0  0  0  0  0  0  0  0  0  0  0  0
  -23.7427  -11.5618   15.5562 C   0  0  0  0  0  0  0  0  0  0  0  0
  -30.2874  -26.3840   22.2513 C   0  0  0  0  0  0  0  0  0  0  0  0
  -23.7375  -20.1982   20.4490 C   0  0  0  0  0  0  0  0  0  1  0  0
  -26.1786  -28.6848   20.6206 C   0  0  1  0  0  0  0  0  0  0  0  0
  -29.9525  -28.4529   20.8926 C   0  0  2  0  0  0  0  0  0  0  0  0
  -25.5083  -29.8423   19.8279 C   0  0  0  0  0  0  0  0  0  0  0  0
  -27.1192  -14.9316   19.9821 N   0  0  0  0  0  0  0  0  0  0  0  0
  -27.6268  -13.6893   20.0541 N   0  0  0  0  0  0  0  0  0  0  0  0
  -23.1520  -17.7056   17.6441 N   0  0  0  0  0  0  0  0  0  0  0  0
  -24.9672  -27.1641   22.1516 N   0  0  0  0  0  0  0  0  0  0  0  0
  -24.5176  -11.6452   19.1534 N   0  0  0  0  0  0  0  0  0  0  0  0
  -29.6598  -12.4870   20.2322 N   0  0  0  0  0  0  0  0  0  0  0  0
  -30.9994  -16.7998   20.1979 N   0  0  0  0  0  0  0  0  0  0  0  0
  -21.8978  -27.6442   23.9061 N   0  0  0  0  0  0  0  0  0  0  0  0
  -27.5944  -28.8953   20.9028 N   0  0  0  0  0  0  0  0  0  0  0  0
  -23.8094  -12.1077   16.9158 N   0  0  0  0  0  0  0  0  0  0  0  0
  -30.8109  -27.2689   21.1790 N   0  3  0  0  0  0  0  0  0  0  0  0
  -21.8554  -18.0336   15.6970 O   0  0  0  0  0  0  0  0  0  0  0  0
  -31.7231  -14.6260   20.2961 O   0  0  0  0  0  0  0  0  0  0  0  0
  -22.3675  -26.8298   21.7757 O   0  0  0  0  0  0  0  0  0  0  0  0
  -25.4873  -29.3451   22.7914 O   0  0  0  0  0  0  0  0  0  0  0  0
  -28.3532  -26.9789   19.8404 O   0  0  0  0  0  0  0  0  0  0  0  0
  -23.2216  -10.1308   17.9778 O   0  0  0  0  0  0  0  0  0  0  0  0
  -27.6965  -21.2715   19.8375 O   0  0  0  0  0  0  0  0  0  0  0  0
  -24.5805  -21.3234   20.2050 O   0  0  0  0  0  0  0  0  0  1  0  0
  -31.1376  -24.0463   16.5415 F   0  0  0  0  0  0  0  0  0  0  0  0
  -26.7307  -22.8290   17.7677 F   0  0  0  0  0  0  0  0  0  0  0  0
  1  2  1  0  0  0  0
  1  5  2  0  0  0  0
  2  6  2  0  0  0  0
  3 10  2  0  0  0  0
  3 18  1  0  0  0  0
  4 11  1  0  0  0  0
  4 18  2  0  0  0  0
  5 20  1  0  0  0  0
  6 22  1  0  0  0  0
  7 12  2  0  0  0  0
  7 21  1  0  0  0  0
  8  9  2  0  0  0  0
  8 25  1  0  0  0  0
  9 26  1  0  0  0  0
 10 27  1  0  0  0  0
 11 27  2  0  0  0  0
 12 28  1  0  0  0  0
 13 14  2  0  0  0  0
 13 29  1  0  0  0  0
 14 30  1  0  0  0  0
 15 23  1  0  0  0  0
 15 28  2  0  0  0  0
 16 24  1  0  0  0  0
 16 26  2  0  0  0  0
 17 30  2  0  0  0  0
 17 31  1  0  0  0  0
 18 32  1  0  0  0  0
 19 32  1  0  0  0  0
 19 33  2  0  0  0  0
 19 37  1  0  0  0  0
 20 22  2  0  0  0  0
 20 42  1  0  0  0  0
 21 23  2  0  0  0  0
 21 43  1  0  0  0  0
 22 53  1  0  0  0  0
 23 44  1  0  0  0  0
 24 25  2  0  0  0  0
 24 56  1  0  0  0  0
 25 69  1  0  0  0  0
 26 76  1  0  0  0  0
 27 84  1  0  0  0  0
 28 85  1  0  0  0  0
 29 31  2  0  0  0  0
 29 84  1  0  0  0  0
 30 86  1  0  0  0  0
 31 87  1  0  0  0  0
 32 67  2  0  0  0  0
 33 68  1  0  0  0  0
 33 72  1  0  0  0  0
 34 35  2  0  0  0  0
 34 69  1  0  0  0  0
 35 45  1  0  0  0  0
 35 63  1  0  0  0  0
 36 46  1  0  0  0  0
 36 69  1  0  0  0  0
 36 78  2  0  0  0  0
 37 73  1  0  0  0  0
 37 79  2  0  0  0  0
 38 54  1  0  0  0  0
 38 74  1  0  0  0  0
 38 80  2  0  0  0  0
 39 64  1  0  0  0  0
 39 70  1  0  0  0  0
 39 81  2  0  0  0  0
 40 65  1  0  0  0  0
 40 75  1  0  0  0  0
 40 82  2  0  0  0  0
 41 71  1  0  0  0  0
 41 76  1  0  0  0  0
 41 83  2  0  0  0  0
 42 47  1  0  0  0  0
 43 54  1  0  0  0  0
 44 70  1  0  0  0  0
 45 46  1  0  0  0  0
 47 49  1  0  0  0  0
 48 50  1  0  0  0  0
 48 51  1  0  0  0  0
 49 53  1  0  0  0  0
 50 55  1  0  0  0  0
 51 71  1  0  0  0  0
 52 55  1  0  0  0  0
 52 71  1  0  0  0  0
 53 74  1  0  0  0  0
 54 70  1  0  0  0  0
 55 68  1  0  0  0  0
 57 65  1  0  0  0  0
 58 66  1  0  0  0  0
 59 66  1  0  0  0  0
 60 66  1  0  0  0  0
 61 76  1  0  0  0  0
 62 77  1  0  0  0  0
 63 85  1  0  0  0  0
 64 66  1  0  0  0  0
 64 75  1  0  0  0  0
 65 77  1  0  0  0  0
 67 68  1  0  0  0  0
M  CHG  1  77   1
M  ISO  4  41 100  63 101  76 100  85 101
M  END
> <Batch ID>
0092

> <Smiles>
CNC(C)C(=O)NC(C(=O)N1Cc2cc([101O:1][101CH2:1]C3=CN(c4ccc([100N:0](C)[100C:0](=O)N5CCCC(n6nc(-c7ccc(Oc8ccc(F)cc8F)cc7)c(C(N)=O)c6N)C5)cc4C)C(=O)CC3)ccc2CC1C(=O)NC1CCCc2ccccc21)C(C)(C)C

> <Shape>
0.229

> <Color>
0.065

> <Negative vol penalty>
0.000

$$$$

  -OEChem-04052300343D

 83 91  0     1  0  0  0  0  0999 V2000
  -16.9476  -27.3896   22.9572 C   0  0  0  0  0  0  0  0  0  0  0  0
  -17.9602  -27.0698   22.0584 C   0  0  0  0  0  0  0  0  0  0  0  0
  -23.8827  -13.3696   20.8324 C   0  0  0  0  0  0  0  0  0  0  0  0
  -26.2948  -13.3575   20.6958 C   0  0  0  0  0  0  0  0  0  0  0  0
  -31.6824  -22.2753   18.9021 C   0  0  0  0  0  0  0  0  0  0  0  0
  -17.1354  -28.4174   23.8804 C   0  0  0  0  0  0  0  0  0  0  0  0
  -19.1609  -27.7786   22.0816 C   0  0  0  0  0  0  0  0  0  0  0  0
  -24.7565  -25.5805   20.9137 C   0  0  0  0  0  0  0  0  0  0  0  0
  -23.8557  -12.0213   20.4759 C   0  0  0  0  0  0  0  0  0  0  0  0
  -26.2679  -12.0093   20.3394 C   0  0  0  0  0  0  0  0  0  0  0  0
  -25.5575  -25.6124   19.7731 C   0  0  0  0  0  0  0  0  0  0  0  0
  -24.3747   -9.0368   21.9780 C   0  0  0  0  0  0  0  0  0  0  0  0
  -31.6457  -20.8812   18.9304 C   0  0  0  0  0  0  0  0  0  0  0  0
  -23.5384   -8.1904   22.7060 C   0  0  0  0  0  0  0  0  0  0  0  0
  -29.3251  -22.3268   18.3752 C   0  0  0  0  0  0  0  0  0  0  0  0
  -26.6988  -27.5545   20.6362 C   0  0  0  0  0  0  0  0  0  0  0  0
  -22.3348   -7.6410   20.6845 C   0  0  0  0  0  0  0  0  0  0  0  0
  -25.1022  -14.0377   20.9423 C   0  0  0  0  0  0  0  0  0  0  0  0
  -30.5221  -22.9981   18.6246 C   0  0  0  0  0  0  0  0  0  0  0  0
  -25.2071  -15.9653   22.6099 C   0  0  0  0  0  0  0  0  0  0  0  0
  -18.3426  -29.1327   23.9212 C   0  0  0  0  0  0  0  0  0  0  0  0
  -24.9135  -26.5436   21.9209 C   0  0  0  0  0  0  0  0  0  0  0  0
  -19.3645  -28.8178   23.0052 C   0  0  0  0  0  0  0  0  0  0  0  0
  -25.9002  -27.5312   21.7898 C   0  0  0  0  0  0  0  0  0  0  0  0
  -29.2884  -20.9327   18.4033 C   0  0  0  0  0  0  0  0  0  0  0  0
  -25.0483  -11.3411   20.2294 C   0  0  0  0  0  0  0  0  0  0  0  0
  -26.5269  -26.6012   19.6328 C   0  0  0  0  0  0  0  0  0  0  0  0
  -24.1909   -9.1854   20.6033 C   0  0  0  0  0  0  0  0  0  0  0  0
  -22.5185   -7.4925   22.0592 C   0  0  0  0  0  0  0  0  0  0  0  0
  -30.4487  -20.2099   18.6809 C   0  0  0  0  0  0  0  0  0  0  0  0
  -23.1710   -8.4874   19.9565 C   0  0  0  0  0  0  0  0  0  0  0  0
  -25.1306  -15.4306   21.3099 C   0  0  0  0  0  0  0  0  0  0  0  0
  -25.2041  -17.3259   22.4223 C   0  0  0  0  0  0  0  0  0  0  0  0
  -30.5615  -24.4829   18.5949 C   0  0  0  0  0  0  0  0  0  0  0  0
  -25.2749  -15.2923   23.8741 C   0  0  0  0  0  0  0  0  0  0  0  0
  -23.0550  -28.7917   23.1842 C   0  0  0  0  0  0  0  0  0  0  0  0
  -25.5395  -29.1411   25.2403 C   0  0  0  0  0  0  0  0  0  0  0  0
  -28.8752  -28.7510   25.8468 C   0  0  0  0  0  0  0  0  0  0  0  0
  -26.8317  -20.8207   17.8569 C   0  0  0  0  0  0  0  0  0  0  0  0
  -18.4814  -30.2668   24.9056 C   0  0  0  0  0  0  0  0  0  0  0  0
  -24.0595  -26.4795   23.1574 C   0  0  0  0  0  0  0  0  0  0  0  0
  -26.1225  -28.5760   22.8516 C   0  0  0  0  0  0  0  0  0  0  0  0
  -19.9242  -30.7205   25.1127 C   0  0  0  0  0  0  0  0  0  0  0  0
  -23.6244  -20.6854   19.3969 C   0  0  0  0  0  0  0  0  0  0  0  0
  -20.6313  -30.8806   23.7707 C   0  0  0  0  0  0  0  0  0  0  0  0
  -23.6558  -19.3742   20.1854 C   0  0  0  0  0  0  0  0  0  0  0  0
  -24.3689  -20.5663   18.0683 C   0  0  0  0  0  0  0  0  0  0  0  0
  -25.7757  -18.7505   18.9589 C   0  0  0  0  0  0  0  0  0  0  0  0
  -20.6904  -29.5472   23.0156 C   0  0  1  0  0  0  0  0  0  0  0  0
  -23.9592  -27.8170   23.8843 C   0  0  1  0  0  0  0  0  0  0  0  0
  -25.0941  -18.8403   20.3341 C   0  0  2  0  0  0  0  0  0  0  0  0
  -30.6196  -29.1639   27.6029 C   0  0  0  0  0  0  0  0  0  0  0  0
  -25.5410  -32.1102   24.5372 C   0  0  0  0  0  0  0  0  0  0  0  0
  -27.8279  -32.2759   25.5428 C   0  0  0  0  0  0  0  0  0  0  0  0
  -25.8876  -31.6126   26.9634 C   0  0  0  0  0  0  0  0  0  0  0  0
  -29.5012  -25.8669   26.0683 C   0  0  0  0  0  0  0  0  0  0  0  0
  -29.5428  -26.5317   17.6353 C   0  0  0  0  0  0  0  0  0  0  0  0
  -28.6271  -27.1630   18.6687 C   0  0  0  0  0  0  0  0  0  1  0  0
  -26.7974  -29.9754   25.2652 C   0  0  1  0  0  0  0  0  0  0  0  0
  -29.6219  -28.1678   27.0328 C   0  0  2  0  0  0  0  0  0  0  0  0
  -26.5082  -31.4751   25.5561 C   0  0  0  0  0  0  0  0  0  0  0  0
  -25.0824  -16.3745   20.3661 N   0  0  0  0  0  0  0  0  0  0  0  0
  -25.1286  -17.5161   21.0738 N   0  0  0  0  0  0  0  0  0  0  0  0
  -25.2582  -28.4750   24.0391 N   0  0  0  0  0  0  0  0  0  0  0  0
  -25.7251  -20.0588   18.2877 N   0  0  0  0  0  0  0  0  0  0  0  0
  -25.2586  -18.3663   23.2808 N   0  0  0  0  0  0  0  0  0  0  0  0
  -25.2678  -13.8908   23.8861 N   0  0  0  0  0  0  0  0  0  0  0  0
  -28.0714  -20.2529   18.1489 N   0  0  0  0  0  0  0  0  0  0  0  0
  -29.6161  -25.1027   17.7875 N   0  0  0  0  0  0  0  0  0  0  0  0
  -21.7294  -28.7018   23.5635 N   0  0  0  0  0  0  0  0  0  0  0  0
  -27.6891  -29.3407   26.2298 N   0  0  0  0  0  0  0  0  0  0  0  0
  -30.3633  -26.9408   26.6256 N   0  3  0  0  0  0  0  0  0  0  0  0
  -31.4161  -25.0736   19.2501 O   0  0  0  0  0  0  0  0  0  0  0  0
  -25.3232  -15.9153   24.9617 O   0  0  0  0  0  0  0  0  0  0  0  0
  -23.5256  -29.5689   22.3618 O   0  0  0  0  0  0  0  0  0  0  0  0
  -24.8363  -29.0770   26.2518 O   0  0  0  0  0  0  0  0  0  0  0  0
  -29.3032  -28.6928   24.6962 O   0  0  0  0  0  0  0  0  0  0  0  0
  -26.6905  -21.9105   17.2962 O   0  0  0  0  0  0  0  0  0  0  0  0
  -25.0224  -10.0254   19.8818 O   0  0  0  0  0  0  0  0  0  0  0  0
  -27.3097  -26.6350   18.5202 O   0  0  0  0  0  0  0  0  0  1  0  0
  -21.7166   -6.6785   22.7582 F   0  0  0  0  0  0  0  0  0  0  0  0
  -30.4252  -18.8700   18.7109 F   0  0  0  0  0  0  0  0  0  0  0  0
  -22.9904   -8.6251   18.6358 F   0  0  0  0  0  0  0  0  0  0  0  0
  1  2  1  0  0  0  0
  1  6  2  0  0  0  0
  2  7  2  0  0  0  0
  3  9  2  0  0  0  0
  3 18  1  0  0  0  0
  4 10  1  0  0  0  0
  4 18  2  0  0  0  0
  5 13  2  0  0  0  0
  5 19  1  0  0  0  0
  6 21  1  0  0  0  0
  7 23  1  0  0  0  0
  8 11  2  0  0  0  0
  8 22  1  0  0  0  0
  9 26  1  0  0  0  0
 10 26  2  0  0  0  0
 11 27  1  0  0  0  0
 12 14  2  0  0  0  0
 12 28  1  0  0  0  0
 13 30  1  0  0  0  0
 14 29  1  0  0  0  0
 15 19  2  0  0  0  0
 15 25  1  0  0  0  0
 16 24  1  0  0  0  0
 16 27  2  0  0  0  0
 17 29  2  0  0  0  0
 17 31  1  0  0  0  0
 18 32  1  0  0  0  0
 19 34  1  0  0  0  0
 20 32  1  0  0  0  0
 20 33  2  0  0  0  0
 20 35  1  0  0  0  0
 21 23  2  0  0  0  0
 21 40  1  0  0  0  0
 22 24  2  0  0  0  0
 22 41  1  0  0  0  0
 23 49  1  0  0  0  0
 24 42  1  0  0  0  0
 25 30  2  0  0  0  0
 25 68  1  0  0  0  0
 26 79  1  0  0  0  0
 27 80  1  0  0  0  0
 28 31  2  0  0  0  0
 28 79  1  0  0  0  0
 29 81  1  0  0  0  0
 30 82  1  0  0  0  0
 31 83  1  0  0  0  0
 32 62  2  0  0  0  0
 33 63  1  0  0  0  0
 33 66  1  0  0  0  0
 34 69  1  0  0  0  0
 34 73  2  0  0  0  0
 35 67  1  0  0  0  0
 35 74  2  0  0  0  0
 36 50  1  0  0  0  0
 36 70  1  0  0  0  0
 36 75  2  0  0  0  0
 37 59  1  0  0  0  0
 37 64  1  0  0  0  0
 37 76  2  0  0  0  0
 38 60  1  0  0  0  0
 38 71  1  0  0  0  0
 38 77  2  0  0  0  0
 39 65  1  0  0  0  0
 39 68  1  0  0  0  0
 39 78  2  0  0  0  0
 40 43  1  0  0  0  0
 41 50  1  0  0  0  0
 42 64  1  0  0  0  0
 43 45  1  0  0  0  0
 44 46  1  0  0  0  0
 44 47  1  0  0  0  0
 45 49  1  0  0  0  0
 46 51  1  0  0  0  0
 47 65  1  0  0  0  0
 48 51  1  0  0  0  0
 48 65  1  0  0  0  0
 49 70  1  0  0  0  0
 50 64  1  0  0  0  0
 51 63  1  0  0  0  0
 52 60  1  0  0  0  0
 53 61  1  0  0  0  0
 54 61  1  0  0  0  0
 55 61  1  0  0  0  0
 56 72  1  0  0  0  0
 57 58  1  0  0  0  0
 57 69  1  0  0  0  0
 58 80  1  0  0  0  0
 59 61  1  0  0  0  0
 59 71  1  0  0  0  0
 60 72  1  0  0  0  0
 62 63  1  0  0  0  0
M  CHG  1  72   1
M  ISO  4  39 100  58 101  68 100  80 101
M  END
> <Batch ID>
0092

> <Smiles>
CNC(C)C(=O)NC(C(=O)N1Cc2cc([101O:1][101CH2:1]CNC(=O)c3ccc(F)c([100NH:0][100C:0](=O)N4CCCC(n5nc(-c6ccc(Oc7ccc(F)cc7F)cc6)c(C(N)=O)c5N)C4)c3)ccc2CC1C(=O)NC1CCCc2ccccc21)C(C)(C)C

> <Shape>
0.258

> <Color>
0.072

> <Negative vol penalty>
0.000

$$$$

  -OEChem-04052300343D

 87 96  0     1  0  0  0  0  0999 V2000
  -26.9018  -37.8151   23.4528 C   0  0  0  0  0  0  0  0  0  0  0  0
  -27.5100  -36.9264   22.5720 C   0  0  0  0  0  0  0  0  0  0  0  0
  -23.6069   -7.0343   21.9542 C   0  0  0  0  0  0  0  0  0  0  0  0
  -22.2178   -7.3502   20.0029 C   0  0  0  0  0  0  0  0  0  0  0  0
  -28.3091  -18.7457   20.4285 C   0  0  0  0  0  0  0  0  0  0  0  0
  -26.1602  -37.3302   24.5293 C   0  0  0  0  0  0  0  0  0  0  0  0
  -27.3777  -35.5521   22.7679 C   0  0  0  0  0  0  0  0  0  0  0  0
  -26.9414  -29.4081   19.1104 C   0  0  0  0  0  0  0  0  0  0  0  0
  -28.5335  -20.1216   20.4753 C   0  0  0  0  0  0  0  0  0  0  0  0
  -22.6966   -6.1016   22.4512 C   0  0  0  0  0  0  0  0  0  0  0  0
  -21.3075   -6.4175   20.4998 C   0  0  0  0  0  0  0  0  0  0  0  0
  -27.5314  -28.1464   19.0500 C   0  0  0  0  0  0  0  0  0  0  0  0
  -21.9198   -2.8534   21.9235 C   0  0  0  0  0  0  0  0  0  0  0  0
  -22.4297   -1.6656   22.4476 C   0  0  0  0  0  0  0  0  0  0  0  0
  -26.1604  -27.4234   20.8985 C   0  0  0  0  0  0  0  0  0  0  0  0
  -30.6597  -19.7381   21.5566 C   0  0  0  0  0  0  0  0  0  0  0  0
  -21.4294   -2.1796   24.5859 C   0  0  0  0  0  0  0  0  0  0  0  0
  -23.3675   -7.6587   20.7300 C   0  0  0  0  0  0  0  0  0  0  0  0
  -29.2600  -17.8660   20.9459 C   0  0  0  0  0  0  0  0  0  0  0  0
  -25.4157   -8.3703   19.3862 C   0  0  0  0  0  0  0  0  0  0  0  0
  -26.0107  -35.9493   24.7329 C   0  0  0  0  0  0  0  0  0  0  0  0
  -25.9626  -29.6908   20.0740 C   0  0  0  0  0  0  0  0  0  0  0  0
  -26.6345  -35.0483   23.8489 C   0  0  0  0  0  0  0  0  0  0  0  0
  -25.5577  -28.6888   20.9674 C   0  0  0  0  0  0  0  0  0  0  0  0
  -29.7088  -20.6178   21.0393 C   0  0  0  0  0  0  0  0  0  0  0  0
  -30.4353  -18.3622   21.5099 C   0  0  0  0  0  0  0  0  0  0  0  0
  -21.5469   -5.7932   21.7240 C   0  0  0  0  0  0  0  0  0  0  0  0
  -27.1430  -27.1547   19.9460 C   0  0  0  0  0  0  0  0  0  0  0  0
  -21.1648   -3.7044   22.7306 C   0  0  0  0  0  0  0  0  0  0  0  0
  -22.1845   -1.3287   23.7788 C   0  0  0  0  0  0  0  0  0  0  0  0
  -20.9195   -3.3675   24.0618 C   0  0  0  0  0  0  0  0  0  0  0  0
  -24.3071   -8.6227   20.2164 C   0  0  0  0  0  0  0  0  0  0  0  0
  -25.9807   -9.6056   19.1830 C   0  0  0  0  0  0  0  0  0  0  0  0
  -28.8743  -22.9403   21.1791 C   0  0  0  0  0  0  0  0  0  0  0  0
  -28.9963  -24.2716   21.0639 C   0  0  0  0  0  0  0  0  0  0  0  0
  -31.2644  -22.5438   20.9912 C   0  0  0  0  0  0  0  0  0  0  0  0
  -28.9905  -16.4347   20.8796 C   0  0  0  0  0  0  0  0  0  0  0  0
  -27.9283  -15.8149   21.4318 C   0  0  0  0  0  0  0  0  0  0  0  0
  -25.8921   -7.1302   18.8469 C   0  0  0  0  0  0  0  0  0  0  0  0
  -27.7896  -14.3538   21.2682 C   0  0  0  0  0  0  0  0  0  0  0  0
  -25.7271  -31.7297   22.5012 C   0  0  0  0  0  0  0  0  0  0  0  0
  -22.6990  -30.5784   22.6660 C   0  0  0  0  0  0  0  0  0  0  0  0
  -20.5258  -28.0348   21.9922 C   0  0  0  0  0  0  0  0  0  0  0  0
  -25.2389  -35.4726   25.9377 C   0  0  0  0  0  0  0  0  0  0  0  0
  -25.3167  -31.0487   20.1087 C   0  0  0  0  0  0  0  0  0  0  0  0
  -24.4967  -28.9352   22.0076 C   0  0  0  0  0  0  0  0  0  0  0  0
  -30.3403  -24.8949   20.8553 C   0  0  0  0  0  0  0  0  0  0  0  0
  -31.4328  -23.9957   21.4021 C   0  0  0  0  0  0  0  0  0  0  0  0
  -24.8355  -34.0024   25.8600 C   0  0  0  0  0  0  0  0  0  0  0  0
  -24.2758  -14.2338   20.2335 C   0  0  0  0  0  0  0  0  0  0  0  0
  -26.0176  -33.1473   25.4146 C   0  0  0  0  0  0  0  0  0  0  0  0
  -24.0554  -12.7280   20.1164 C   0  0  0  0  0  0  0  0  0  0  0  0
  -25.2489  -14.5835   21.3585 C   0  0  0  0  0  0  0  0  0  0  0  0
  -26.3364  -12.3677   21.1397 C   0  0  0  0  0  0  0  0  0  0  0  0
  -26.4934  -33.5506   24.0137 C   0  0  1  0  0  0  0  0  0  0  0  0
  -24.6982  -31.3817   21.4630 C   0  0  1  0  0  0  0  0  0  0  0  0
  -25.3971  -11.9902   19.9837 C   0  0  1  0  0  0  0  0  0  0  0  0
  -18.1239  -27.3675   22.2806 C   0  0  0  0  0  0  0  0  0  0  0  0
  -23.2236  -29.9713   25.6099 C   0  0  0  0  0  0  0  0  0  0  0  0
  -21.2099  -28.4837   25.5900 C   0  0  0  0  0  0  0  0  0  0  0  0
  -20.9614  -30.9224   25.1279 C   0  0  0  0  0  0  0  0  0  0  0  0
  -20.1044  -27.8532   19.0684 C   0  0  0  0  0  0  0  0  0  0  0  0
  -27.8180  -25.1960   21.1138 C   0  0  0  0  0  0  0  0  0  1  0  0
  -22.0283  -29.4332   23.3855 C   0  0  1  0  0  0  0  0  0  0  0  0
  -19.1426  -28.0308   21.3667 C   0  0  2  0  0  0  0  0  0  0  0  0
  -21.8772  -29.6983   24.9101 C   0  0  0  0  0  0  0  0  0  0  0  0
  -24.1742   -9.9166   20.5199 N   0  0  0  0  0  0  0  0  0  0  0  0
  -25.2066  -10.4883   19.8770 N   0  0  0  0  0  0  0  0  0  0  0  0
  -29.9422  -22.0480   21.0860 N   0  0  0  0  0  0  0  0  0  0  0  0
  -26.5016  -13.8219   21.2426 N   0  0  0  0  0  0  0  0  0  0  0  0
  -23.8994  -30.2809   22.0056 N   0  0  0  0  0  0  0  0  0  0  0  0
  -31.4155  -17.4932   22.0415 N   0  0  0  0  0  0  0  0  0  0  0  0
  -27.0592  -10.0120   18.4801 N   0  0  0  0  0  0  0  0  0  0  0  0
  -25.1931   -5.9552   19.1551 N   0  0  0  0  0  0  0  0  0  0  0  0
  -25.6077  -33.0111   23.0043 N   0  0  0  0  0  0  0  0  0  0  0  0
  -20.7665  -29.1983   22.6919 N   0  0  0  0  0  0  0  0  0  0  0  0
  -19.1620  -27.2940   20.0714 N   0  3  0  0  0  0  0  0  0  0  0  0
  -32.2601  -21.8995   20.6562 O   0  0  0  0  0  0  0  0  0  0  0  0
  -26.9170   -7.0639   18.1267 O   0  0  0  0  0  0  0  0  0  0  0  0
  -28.8244  -13.6919   21.1689 O   0  0  0  0  0  0  0  0  0  0  0  0
  -26.5663  -30.8967   22.8230 O   0  0  0  0  0  0  0  0  0  0  0  0
  -22.1733  -31.6942   22.6832 O   0  0  0  0  0  0  0  0  0  0  0  0
  -21.3125  -27.0978   21.8751 O   0  0  0  0  0  0  0  0  0  0  0  0
  -20.6585   -4.8829   22.2086 O   0  0  0  0  0  0  0  0  0  0  0  0
  -27.7178  -25.9224   19.8897 O   0  0  0  0  0  0  0  0  0  1  0  0
  -22.6730   -0.1872   24.2815 F   0  0  0  0  0  0  0  0  0  0  0  0
  -20.1939   -4.1805   24.8417 F   0  0  0  0  0  0  0  0  0  0  0  0
  1  2  1  0  0  0  0
  1  6  2  0  0  0  0
  2  7  2  0  0  0  0
  3 10  2  0  0  0  0
  3 18  1  0  0  0  0
  4 11  1  0  0  0  0
  4 18  2  0  0  0  0
  5  9  2  0  0  0  0
  5 19  1  0  0  0  0
  6 21  1  0  0  0  0
  7 23  1  0  0  0  0
  8 12  2  0  0  0  0
  8 22  1  0  0  0  0
  9 25  1  0  0  0  0
 10 27  1  0  0  0  0
 11 27  2  0  0  0  0
 12 28  1  0  0  0  0
 13 14  2  0  0  0  0
 13 29  1  0  0  0  0
 14 30  1  0  0  0  0
 15 24  1  0  0  0  0
 15 28  2  0  0  0  0
 16 25  2  0  0  0  0
 16 26  1  0  0  0  0
 17 30  2  0  0  0  0
 17 31  1  0  0  0  0
 18 32  1  0  0  0  0
 19 26  2  0  0  0  0
 19 37  1  0  0  0  0
 20 32  1  0  0  0  0
 20 33  2  0  0  0  0
 20 39  1  0  0  0  0
 21 23  2  0  0  0  0
 21 44  1  0  0  0  0
 22 24  2  0  0  0  0
 22 45  1  0  0  0  0
 23 55  1  0  0  0  0
 24 46  1  0  0  0  0
 25 69  1  0  0  0  0
 26 72  1  0  0  0  0
 27 84  1  0  0  0  0
 28 85  1  0  0  0  0
 29 31  2  0  0  0  0
 29 84  1  0  0  0  0
 30 86  1  0  0  0  0
 31 87  1  0  0  0  0
 32 67  2  0  0  0  0
 33 68  1  0  0  0  0
 33 73  1  0  0  0  0
 34 35  2  0  0  0  0
 34 69  1  0  0  0  0
 35 47  1  0  0  0  0
 35 63  1  0  0  0  0
 36 48  1  0  0  0  0
 36 69  1  0  0  0  0
 36 78  2  0  0  0  0
 37 38  2  0  0  0  0
 38 40  1  0  0  0  0
 39 74  1  0  0  0  0
 39 79  2  0  0  0  0
 40 70  1  0  0  0  0
 40 80  2  0  0  0  0
 41 56  1  0  0  0  0
 41 75  1  0  0  0  0
 41 81  2  0  0  0  0
 42 64  1  0  0  0  0
 42 71  1  0  0  0  0
 42 82  2  0  0  0  0
 43 65  1  0  0  0  0
 43 76  1  0  0  0  0
 43 83  2  0  0  0  0
 44 49  1  0  0  0  0
 45 56  1  0  0  0  0
 46 71  1  0  0  0  0
 47 48  1  0  0  0  0
 49 51  1  0  0  0  0
 50 52  1  0  0  0  0
 50 53  1  0  0  0  0
 51 55  1  0  0  0  0
 52 57  1  0  0  0  0
 53 70  1  0  0  0  0
 54 57  1  0  0  0  0
 54 70  1  0  0  0  0
 55 75  1  0  0  0  0
 56 71  1  0  0  0  0
 57 68  1  0  0  0  0
 58 65  1  0  0  0  0
 59 66  1  0  0  0  0
 60 66  1  0  0  0  0
 61 66  1  0  0  0  0
 62 77  1  0  0  0  0
 63 85  1  0  0  0  0
 64 66  1  0  0  0  0
 64 76  1  0  0  0  0
 65 77  1  0  0  0  0
 67 68  1  0  0  0  0
M  CHG  1  77   1
M  ISO  4  38 100  40 100  63 101  85 101
M  END
> <Batch ID>
0092

> <Smiles>
CNC(C)C(=O)NC(C(=O)N1Cc2cc([101O:1][101CH2:1]C3=CN(c4ccc(C=[100CH:0][100C:0](=O)N5CCCC(n6nc(-c7ccc(Oc8ccc(F)cc8F)cc7)c(C(N)=O)c6N)C5)c(N)c4)C(=O)CC3)ccc2CC1C(=O)NC1CCCc2ccccc21)C(C)(C)C

> <Shape>
0.331

> <Color>
0.063

> <Negative vol penalty>
0.000

$$$$

  -OEChem-04052300343D

 90 99  0     1  0  0  0  0  0999 V2000
  -29.5312  -35.7312   19.9417 C   0  0  0  0  0  0  0  0  0  0  0  0
  -29.5904  -34.3557   20.1417 C   0  0  0  0  0  0  0  0  0  0  0  0
  -25.0429  -18.0796   25.9341 C   0  0  0  0  0  0  0  0  0  0  0  0
  -26.6301  -17.6838   27.7120 C   0  0  0  0  0  0  0  0  0  0  0  0
  -28.5504  -36.4862   20.5834 C   0  0  0  0  0  0  0  0  0  0  0  0
  -28.6694  -33.7347   20.9846 C   0  0  0  0  0  0  0  0  0  0  0  0
  -26.7881  -29.4716   19.0016 C   0  0  0  0  0  0  0  0  0  0  0  0
  -24.0138  -18.1652   26.8717 C   0  0  0  0  0  0  0  0  0  0  0  0
  -25.6010  -17.7694   28.6497 C   0  0  0  0  0  0  0  0  0  0  0  0
  -27.5933  -28.3348   19.0557 C   0  0  0  0  0  0  0  0  0  0  0  0
  -22.8187  -20.4523   29.0567 C   0  0  0  0  0  0  0  0  0  0  0  0
  -21.9036  -21.4963   28.9214 C   0  0  0  0  0  0  0  0  0  0  0  0
  -26.3519  -27.5540   20.9711 C   0  0  0  0  0  0  0  0  0  0  0  0
  -29.2591  -17.0774   19.5500 C   0  0  0  0  0  0  0  0  0  0  0  0
  -26.9175  -17.4074   20.0448 C   0  0  0  0  0  0  0  0  0  0  0  0
  -29.1331  -21.3019   19.0366 C   0  0  0  0  0  0  0  0  0  0  0  0
  -20.1098  -19.8942   28.6921 C   0  0  0  0  0  0  0  0  0  0  0  0
  -26.3510  -17.8388   26.3542 C   0  0  0  0  0  0  0  0  0  0  0  0
  -28.2162  -18.8019   24.9046 C   0  0  0  0  0  0  0  0  0  0  0  0
  -27.6109  -35.8728   21.4270 C   0  0  0  0  0  0  0  0  0  0  0  0
  -25.7640  -29.6638   19.9401 C   0  0  0  0  0  0  0  0  0  0  0  0
  -27.6759  -34.4824   21.6393 C   0  0  0  0  0  0  0  0  0  0  0  0
  -25.5334  -28.6929   20.9252 C   0  0  0  0  0  0  0  0  0  0  0  0
  -28.1754  -17.9327   19.7493 C   0  0  0  0  0  0  0  0  0  0  0  0
  -29.0848  -15.6967   19.6459 C   0  0  0  0  0  0  0  0  0  0  0  0
  -26.7431  -16.0268   20.1408 C   0  0  0  0  0  0  0  0  0  0  0  0
  -27.8268  -15.1715   19.9414 C   0  0  0  0  0  0  0  0  0  0  0  0
  -24.2929  -18.0102   28.2296 C   0  0  0  0  0  0  0  0  0  0  0  0
  -27.3771  -27.3771   20.0423 C   0  0  0  0  0  0  0  0  0  0  0  0
  -22.3794  -19.1292   29.0096 C   0  0  0  0  0  0  0  0  0  0  0  0
  -28.0939  -21.4989   19.9791 C   0  0  0  0  0  0  0  0  0  0  0  0
  -20.5492  -21.2172   28.7391 C   0  0  0  0  0  0  0  0  0  0  0  0
  -21.0249  -18.8502   28.8274 C   0  0  0  0  0  0  0  0  0  0  0  0
  -27.4144  -17.7497   25.3859 C   0  0  0  0  0  0  0  0  0  0  0  0
  -29.0693  -18.2023   24.0107 C   0  0  0  0  0  0  0  0  0  0  0  0
  -29.2703  -19.9436   18.8535 C   0  0  0  0  0  0  0  0  0  0  0  0
  -27.6277  -20.2550   20.3434 C   0  0  0  0  0  0  0  0  0  0  0  0
  -28.1921  -20.1967   25.2361 C   0  0  0  0  0  0  0  0  0  0  0  0
  -25.1435  -31.8443   22.1682 C   0  0  0  0  0  0  0  0  0  0  0  0
  -22.3661  -30.1934   22.4563 C   0  0  0  0  0  0  0  0  0  0  0  0
  -20.6864  -27.2528   22.0343 C   0  0  0  0  0  0  0  0  0  0  0  0
  -28.3368  -12.9408   20.9686 C   0  0  0  0  0  0  0  0  0  0  0  0
  -26.5985  -36.7370   22.1360 C   0  0  0  0  0  0  0  0  0  0  0  0
  -24.8870  -30.8826   19.8519 C   0  0  0  0  0  0  0  0  0  0  0  0
  -24.4341  -28.8421   21.9438 C   0  0  0  0  0  0  0  0  0  0  0  0
  -25.4276  -35.9501   22.7189 C   0  0  0  0  0  0  0  0  0  0  0  0
  -31.1964  -14.0311   23.0488 C   0  0  0  0  0  0  0  0  0  0  0  0
  -25.9310  -34.7204   23.4681 C   0  0  0  0  0  0  0  0  0  0  0  0
  -30.5902  -15.1434   23.9026 C   0  0  0  0  0  0  0  0  0  0  0  0
  -30.1531  -12.9928   22.6476 C   0  0  0  0  0  0  0  0  0  0  0  0
  -28.3576  -14.6931   22.8098 C   0  0  0  0  0  0  0  0  0  0  0  0
  -26.6792  -33.7688   22.5266 C   0  0  1  0  0  0  0  0  0  0  0  0
  -24.2042  -31.2243   21.1726 C   0  0  1  0  0  0  0  0  0  0  0  0
  -29.3801  -15.7733   23.1933 C   0  0  1  0  0  0  0  0  0  0  0  0
  -18.4381  -26.1988   22.3969 C   0  0  0  0  0  0  0  0  0  0  0  0
  -22.9574  -29.9645   25.4409 C   0  0  0  0  0  0  0  0  0  0  0  0
  -21.2400  -28.1473   25.5708 C   0  0  0  0  0  0  0  0  0  0  0  0
  -20.5678  -30.4496   24.8851 C   0  0  0  0  0  0  0  0  0  0  0  0
  -26.9168  -13.0698   18.9690 C   0  0  0  0  0  0  0  0  0  0  0  0
  -20.3365  -26.7292   19.1425 C   0  0  0  0  0  0  0  0  0  0  0  0
  -27.5683  -25.0768   20.6151 C   0  0  0  0  0  0  0  0  0  1  0  0
  -28.2238  -23.8735   19.9655 C   0  0  0  0  0  0  0  0  0  0  0  0
  -21.9014  -29.0188   23.2830 C   0  0  1  0  0  0  0  0  0  0  0  0
  -19.3329  -26.9451   21.4196 C   0  0  2  0  0  0  0  0  0  0  0  0
  -21.6887  -29.3929   24.7771 C   0  0  0  0  0  0  0  0  0  0  0  0
  -27.7298  -16.5710   24.8426 N   0  0  0  0  0  0  0  0  0  0  0  0
  -28.3502  -19.3171   19.6531 N   0  0  0  0  0  0  0  0  0  0  0  0
  -28.7392  -16.8790   24.0106 N   0  0  0  0  0  0  0  0  0  0  0  0
  -23.6075  -30.0541   21.8198 N   0  0  0  0  0  0  0  0  0  0  0  0
  -28.9806  -13.6126   22.0280 N   0  0  0  0  0  0  0  0  0  0  0  0
  -30.1976  -14.8504   19.4398 N   0  0  0  0  0  0  0  0  0  0  0  0
  -25.4592  -15.5182   20.4411 N   0  0  0  0  0  0  0  0  0  0  0  0
  -30.0621  -18.6832   23.2325 N   0  0  0  0  0  0  0  0  0  0  0  0
  -27.2519  -20.6444   26.1741 N   0  0  0  0  0  0  0  0  0  0  0  0
  -25.7424  -33.0088   21.7271 N   0  0  0  0  0  0  0  0  0  0  0  0
  -20.7090  -28.5002   22.6213 N   0  0  0  0  0  0  0  0  0  0  0  0
  -27.6466  -13.7437   20.0406 N   0  0  0  0  0  0  0  0  0  0  0  0
  -19.4972  -26.1067   20.1985 N   0  3  0  0  0  0  0  0  0  0  0  0
  -28.9701  -21.0242   24.7036 O   0  0  0  0  0  0  0  0  0  0  0  0
  -25.3112  -31.3066   23.2565 O   0  0  0  0  0  0  0  0  0  0  0  0
  -21.6505  -31.1947   22.3725 O   0  0  0  0  0  0  0  0  0  0  0  0
  -21.6282  -26.4638   22.0006 O   0  0  0  0  0  0  0  0  0  0  0  0
  -28.3295  -11.7065   20.8849 O   0  0  0  0  0  0  0  0  0  0  0  0
  -30.1011  -19.2591   18.0764 O   0  0  0  0  0  0  0  0  0  0  0  0
  -26.6668  -19.9069   21.1914 O   0  0  0  0  0  0  0  0  0  0  0  0
  -23.2890  -18.0939   29.1449 O   0  0  0  0  0  0  0  0  0  0  0  0
  -28.1621  -26.2669   20.0977 O   0  0  0  0  0  0  0  0  0  1  0  0
  -27.6142  -22.6880   20.4618 O   0  0  0  0  0  0  0  0  0  0  0  0
  -19.6703  -22.2199   28.6107 F   0  0  0  0  0  0  0  0  0  0  0  0
  -20.5967  -17.5811   28.7825 F   0  0  0  0  0  0  0  0  0  0  0  0
  1  2  1  0  0  0  0
  1  5  2  0  0  0  0
  2  6  2  0  0  0  0
  3  8  2  0  0  0  0
  3 18  1  0  0  0  0
  4  9  1  0  0  0  0
  4 18  2  0  0  0  0
  5 20  1  0  0  0  0
  6 22  1  0  0  0  0
  7 10  2  0  0  0  0
  7 21  1  0  0  0  0
  8 28  1  0  0  0  0
  9 28  2  0  0  0  0
 10 29  1  0  0  0  0
 11 12  2  0  0  0  0
 11 30  1  0  0  0  0
 12 32  1  0  0  0  0
 13 23  1  0  0  0  0
 13 29  2  0  0  0  0
 14 24  1  0  0  0  0
 14 25  2  0  0  0  0
 15 24  2  0  0  0  0
 15 26  1  0  0  0  0
 16 31  1  0  0  0  0
 16 36  2  0  0  0  0
 17 32  2  0  0  0  0
 17 33  1  0  0  0  0
 18 34  1  0  0  0  0
 19 34  1  0  0  0  0
 19 35  2  0  0  0  0
 19 38  1  0  0  0  0
 20 22  2  0  0  0  0
 20 43  1  0  0  0  0
 21 23  2  0  0  0  0
 21 44  1  0  0  0  0
 22 52  1  0  0  0  0
 23 45  1  0  0  0  0
 24 67  1  0  0  0  0
 25 27  1  0  0  0  0
 25 71  1  0  0  0  0
 26 27  2  0  0  0  0
 26 72  1  0  0  0  0
 27 77  1  0  0  0  0
 28 86  1  0  0  0  0
 29 87  1  0  0  0  0
 30 33  2  0  0  0  0
 30 86  1  0  0  0  0
 31 37  2  0  0  0  0
 31 88  1  0  0  0  0
 32 89  1  0  0  0  0
 33 90  1  0  0  0  0
 34 66  2  0  0  0  0
 35 68  1  0  0  0  0
 35 73  1  0  0  0  0
 36 67  1  0  0  0  0
 36 84  1  0  0  0  0
 37 67  1  0  0  0  0
 37 85  1  0  0  0  0
 38 74  1  0  0  0  0
 38 79  2  0  0  0  0
 39 53  1  0  0  0  0
 39 75  1  0  0  0  0
 39 80  2  0  0  0  0
 40 63  1  0  0  0  0
 40 69  1  0  0  0  0
 40 81  2  0  0  0  0
 41 64  1  0  0  0  0
 41 76  1  0  0  0  0
 41 82  2  0  0  0  0
 42 70  1  0  0  0  0
 42 77  1  0  0  0  0
 42 83  2  0  0  0  0
 43 46  1  0  0  0  0
 44 53  1  0  0  0  0
 45 69  1  0  0  0  0
 46 48  1  0  0  0  0
 47 49  1  0  0  0  0
 47 50  1  0  0  0  0
 48 52  1  0  0  0  0
 49 54  1  0  0  0  0
 50 70  1  0  0  0  0
 51 54  1  0  0  0  0
 51 70  1  0  0  0  0
 52 75  1  0  0  0  0
 53 69  1  0  0  0  0
 54 68  1  0  0  0  0
 55 64  1  0  0  0  0
 56 65  1  0  0  0  0
 57 65  1  0  0  0  0
 58 65  1  0  0  0  0
 59 77  1  0  0  0  0
 60 78  1  0  0  0  0
 61 62  1  0  0  0  0
 61 87  1  0  0  0  0
 62 88  1  0  0  0  0
 63 65  1  0  0  0  0
 63 76  1  0  0  0  0
 64 78  1  0  0  0  0
 66 68  1  0  0  0  0
M  CHG  1  78   1
M  ISO  4  42 100  61 101  77 100  87 101
M  END
> <Batch ID>
0092

> <Smiles>
CNC(C)C(=O)NC(C(=O)N1Cc2cc([101O:1][101CH2:1]COC3CC(=O)N(c4cc(N)c([100N:0](C)[100C:0](=O)N5CCCC(n6nc(-c7ccc(Oc8ccc(F)cc8F)cc7)c(C(N)=O)c6N)C5)c(N)c4)C3=O)ccc2CC1C(=O)NC1CCCc2ccccc21)C(C)(C)C

> <Shape>
0.239

> <Color>
0.078

> <Negative vol penalty>
0.000

$$$$

  -OEChem-04052300343D

 83 91  0     1  0  0  0  0  0999 V2000
  -17.9037  -27.0270   23.6355 C   0  0  0  0  0  0  0  0  0  0  0  0
  -19.0563  -26.2492   23.5897 C   0  0  0  0  0  0  0  0  0  0  0  0
  -23.1080  -10.4030   20.8707 C   0  0  0  0  0  0  0  0  0  0  0  0
  -24.3816   -8.8715   22.2381 C   0  0  0  0  0  0  0  0  0  0  0  0
  -27.8310  -18.0187   21.7122 C   0  0  0  0  0  0  0  0  0  0  0  0
  -17.7991  -28.1639   22.8352 C   0  0  0  0  0  0  0  0  0  0  0  0
  -20.1045  -26.6073   22.7427 C   0  0  0  0  0  0  0  0  0  0  0  0
  -24.6247  -26.2869   25.0032 C   0  0  0  0  0  0  0  0  0  0  0  0
  -22.1281   -9.4269   20.6902 C   0  0  0  0  0  0  0  0  0  0  0  0
  -23.4017   -7.8954   22.0576 C   0  0  0  0  0  0  0  0  0  0  0  0
  -26.9714  -18.8454   22.4356 C   0  0  0  0  0  0  0  0  0  0  0  0
  -25.1794  -25.0151   25.1401 C   0  0  0  0  0  0  0  0  0  0  0  0
  -20.3462   -7.1745   23.3085 C   0  0  0  0  0  0  0  0  0  0  0  0
  -19.9341   -6.4566   24.4311 C   0  0  0  0  0  0  0  0  0  0  0  0
  -28.7348  -19.9511   20.5780 C   0  0  0  0  0  0  0  0  0  0  0  0
  -26.5813  -25.4264   23.2206 C   0  0  0  0  0  0  0  0  0  0  0  0
  -20.6488   -4.4021   23.3796 C   0  0  0  0  0  0  0  0  0  0  0  0
  -24.2348  -10.1253   21.6447 C   0  0  0  0  0  0  0  0  0  0  0  0
  -28.7128  -18.5716   20.7834 C   0  0  0  0  0  0  0  0  0  0  0  0
  -25.3090  -12.0975   22.8547 C   0  0  0  0  0  0  0  0  0  0  0  0
  -18.8505  -28.5415   21.9851 C   0  0  0  0  0  0  0  0  0  0  0  0
  -25.0371  -27.1353   23.9656 C   0  0  0  0  0  0  0  0  0  0  0  0
  -20.0133  -27.7496   21.9293 C   0  0  0  0  0  0  0  0  0  0  0  0
  -26.0321  -26.7094   23.0742 C   0  0  0  0  0  0  0  0  0  0  0  0
  -27.8751  -20.7777   21.3014 C   0  0  0  0  0  0  0  0  0  0  0  0
  -22.2749   -8.1732   21.2836 C   0  0  0  0  0  0  0  0  0  0  0  0
  -26.1558  -24.5836   24.2470 C   0  0  0  0  0  0  0  0  0  0  0  0
  -26.9934  -20.2248   22.2302 C   0  0  0  0  0  0  0  0  0  0  0  0
  -20.9095   -6.5063   22.2213 C   0  0  0  0  0  0  0  0  0  0  0  0
  -20.0855   -5.0704   24.4667 C   0  0  0  0  0  0  0  0  0  0  0  0
  -21.0608   -5.1201   22.2569 C   0  0  0  0  0  0  0  0  0  0  0  0
  -25.2477  -11.1330   21.8311 C   0  0  0  0  0  0  0  0  0  0  0  0
  -26.4530  -12.8092   22.5877 C   0  0  0  0  0  0  0  0  0  0  0  0
  -29.6282  -17.6905   20.0137 C   0  0  0  0  0  0  0  0  0  0  0  0
  -24.4121  -12.3294   23.9490 C   0  0  0  0  0  0  0  0  0  0  0  0
  -23.6045  -28.4893   21.4719 C   0  0  0  0  0  0  0  0  0  0  0  0
  -26.4689  -29.9719   21.1264 C   0  0  0  0  0  0  0  0  0  0  0  0
  -29.8302  -29.9541   21.7161 C   0  0  0  0  0  0  0  0  0  0  0  0
  -29.8712  -15.4089   19.0869 C   0  0  0  0  0  0  0  0  0  0  0  0
  -18.6723  -29.7524   21.1038 C   0  0  0  0  0  0  0  0  0  0  0  0
  -24.4481  -28.5143   23.8476 C   0  0  0  0  0  0  0  0  0  0  0  0
  -26.5240  -27.5897   21.9553 C   0  0  0  0  0  0  0  0  0  0  0  0
  -19.9795  -30.2717   20.5107 C   0  0  0  0  0  0  0  0  0  0  0  0
  -30.2161  -11.8985   19.3222 C   0  0  0  0  0  0  0  0  0  0  0  0
  -20.8031  -29.1200   19.9434 C   0  0  0  0  0  0  0  0  0  0  0  0
  -28.9634  -11.4631   20.0874 C   0  0  0  0  0  0  0  0  0  0  0  0
  -29.9199  -13.0416   18.3524 C   0  0  0  0  0  0  0  0  0  0  0  0
  -27.9964  -13.7660   19.7064 C   0  0  0  0  0  0  0  0  0  0  0  0
  -21.1820  -28.1192   21.0417 C   0  0  1  0  0  0  0  0  0  0  0  0
  -24.5738  -29.0996   22.4444 C   0  0  1  0  0  0  0  0  0  0  0  0
  -28.2571  -12.6646   20.7467 C   0  0  1  0  0  0  0  0  0  0  0  0
  -31.9141  -31.2819   21.2781 C   0  0  0  0  0  0  0  0  0  0  0  0
  -26.4993  -28.9689   18.2449 C   0  0  0  0  0  0  0  0  0  0  0  0
  -28.9477  -29.4855   18.1644 C   0  0  0  0  0  0  0  0  0  0  0  0
  -27.2994  -31.3199   18.5396 C   0  0  0  0  0  0  0  0  0  0  0  0
  -30.3211  -30.3561   24.6069 C   0  0  0  0  0  0  0  0  0  0  0  0
  -25.8679  -22.3265   24.9388 C   0  0  0  0  0  0  0  0  0  1  0  0
  -26.2755  -20.9824   24.3672 C   0  0  0  0  0  0  0  0  0  0  0  0
  -27.7518  -29.6616   20.3937 C   0  0  1  0  0  0  0  0  0  0  0  0
  -30.7662  -31.0271   22.2425 C   0  0  2  0  0  0  0  0  0  0  0  0
  -27.6141  -29.8414   18.8554 C   0  0  0  0  0  0  0  0  0  0  0  0
  -26.2712  -11.2212   20.9775 N   0  0  0  0  0  0  0  0  0  0  0  0
  -26.9864  -12.2497   21.4641 N   0  0  0  0  0  0  0  0  0  0  0  0
  -25.9129  -28.9268   21.8778 N   0  0  0  0  0  0  0  0  0  0  0  0
  -29.2603  -14.1431   19.0560 N   0  0  0  0  0  0  0  0  0  0  0  0
  -27.9086  -22.1726   21.0844 N   0  0  0  0  0  0  0  0  0  0  0  0
  -27.0446  -13.8528   23.2069 N   0  0  0  0  0  0  0  0  0  0  0  0
  -23.2850  -11.5059   24.0751 N   0  0  0  0  0  0  0  0  0  0  0  0
  -29.1834  -16.3824   19.8200 N   0  0  0  0  0  0  0  0  0  0  0  0
  -22.2788  -28.6308   21.8352 N   0  0  0  0  0  0  0  0  0  0  0  0
  -28.7819  -30.4960   21.0029 N   0  0  0  0  0  0  0  0  0  0  0  0
  -31.3383  -30.6166   23.5560 N   0  3  0  0  0  0  0  0  0  0  0  0
  -30.6739  -18.1565   19.5697 O   0  0  0  0  0  0  0  0  0  0  0  0
  -24.5957  -13.2503   24.7806 O   0  0  0  0  0  0  0  0  0  0  0  0
  -24.0280  -27.9325   20.4657 O   0  0  0  0  0  0  0  0  0  0  0  0
  -25.9819  -31.1020   21.0411 O   0  0  0  0  0  0  0  0  0  0  0  0
  -30.0130  -28.7550   21.9144 O   0  0  0  0  0  0  0  0  0  0  0  0
  -30.9542  -15.6426   18.5413 O   0  0  0  0  0  0  0  0  0  0  0  0
  -21.3188   -7.2205   21.1078 O   0  0  0  0  0  0  0  0  0  0  0  0
  -26.6984  -23.3425   24.3780 O   0  0  0  0  0  0  0  0  0  1  0  0
  -26.1419  -21.0197   22.9515 O   0  0  0  0  0  0  0  0  0  0  0  0
  -19.6912   -4.3813   25.5455 F   0  0  0  0  0  0  0  0  0  0  0  0
  -21.6024   -4.4727   21.2160 F   0  0  0  0  0  0  0  0  0  0  0  0
  1  2  1  0  0  0  0
  1  6  2  0  0  0  0
  2  7  2  0  0  0  0
  3  9  2  0  0  0  0
  3 18  1  0  0  0  0
  4 10  1  0  0  0  0
  4 18  2  0  0  0  0
  5 11  2  0  0  0  0
  5 19  1  0  0  0  0
  6 21  1  0  0  0  0
  7 23  1  0  0  0  0
  8 12  2  0  0  0  0
  8 22  1  0  0  0  0
  9 26  1  0  0  0  0
 10 26  2  0  0  0  0
 11 28  1  0  0  0  0
 12 27  1  0  0  0  0
 13 14  2  0  0  0  0
 13 29  1  0  0  0  0
 14 30  1  0  0  0  0
 15 19  2  0  0  0  0
 15 25  1  0  0  0  0
 16 24  1  0  0  0  0
 16 27  2  0  0  0  0
 17 30  2  0  0  0  0
 17 31  1  0  0  0  0
 18 32  1  0  0  0  0
 19 34  1  0  0  0  0
 20 32  1  0  0  0  0
 20 33  2  0  0  0  0
 20 35  1  0  0  0  0
 21 23  2  0  0  0  0
 21 40  1  0  0  0  0
 22 24  2  0  0  0  0
 22 41  1  0  0  0  0
 23 49  1  0  0  0  0
 24 42  1  0  0  0  0
 25 28  2  0  0  0  0
 25 66  1  0  0  0  0
 26 79  1  0  0  0  0
 27 80  1  0  0  0  0
 28 81  1  0  0  0  0
 29 31  2  0  0  0  0
 29 79  1  0  0  0  0
 30 82  1  0  0  0  0
 31 83  1  0  0  0  0
 32 62  2  0  0  0  0
 33 63  1  0  0  0  0
 33 67  1  0  0  0  0
 34 69  1  0  0  0  0
 34 73  2  0  0  0  0
 35 68  1  0  0  0  0
 35 74  2  0  0  0  0
 36 50  1  0  0  0  0
 36 70  1  0  0  0  0
 36 75  2  0  0  0  0
 37 59  1  0  0  0  0
 37 64  1  0  0  0  0
 37 76  2  0  0  0  0
 38 60  1  0  0  0  0
 38 71  1  0  0  0  0
 38 77  2  0  0  0  0
 39 65  1  0  0  0  0
 39 69  1  0  0  0  0
 39 78  2  0  0  0  0
 40 43  1  0  0  0  0
 41 50  1  0  0  0  0
 42 64  1  0  0  0  0
 43 45  1  0  0  0  0
 44 46  1  0  0  0  0
 44 47  1  0  0  0  0
 45 49  1  0  0  0  0
 46 51  1  0  0  0  0
 47 65  1  0  0  0  0
 48 51  1  0  0  0  0
 48 65  1  0  0  0  0
 49 70  1  0  0  0  0
 50 64  1  0  0  0  0
 51 63  1  0  0  0  0
 52 60  1  0  0  0  0
 53 61  1  0  0  0  0
 54 61  1  0  0  0  0
 55 61  1  0  0  0  0
 56 72  1  0  0  0  0
 57 58  1  0  0  0  0
 57 80  1  0  0  0  0
 58 81  1  0  0  0  0
 59 61  1  0  0  0  0
 59 71  1  0  0  0  0
 60 72  1  0  0  0  0
 62 63  1  0  0  0  0
M  CHG  1  72   1
M  ISO  4  39 100  57 101  69 100  80 101
M  END
> <Batch ID>
0092

> <Smiles>
CNC(C)C(=O)NC(C(=O)N1Cc2cc([101O:1][101CH2:1]COc3ccc(C(=O)[100NH:0][100C:0](=O)N4CCCC(n5nc(-c6ccc(Oc7ccc(F)cc7F)cc6)c(C(N)=O)c5N)C4)cc3N)ccc2CC1C(=O)NC1CCCc2ccccc21)C(C)(C)C

> <Shape>
0.240

> <Color>
0.097

> <Negative vol penalty>
0.000

$$$$

  -OEChem-04052300343D

 84 93  0     1  0  0  0  0  0999 V2000
  -23.9449   -7.5715   25.0892 C   0  0  0  0  0  0  0  0  0  0  0  0
  -25.0717   -8.3685   24.9144 C   0  0  0  0  0  0  0  0  0  0  0  0
  -23.0489  -29.8391   20.2035 C   0  0  0  0  0  0  0  0  0  0  0  0
  -23.1868  -28.6003   22.2731 C   0  0  0  0  0  0  0  0  0  0  0  0
  -22.9511   -7.5473   24.1117 C   0  0  0  0  0  0  0  0  0  0  0  0
  -25.2059   -9.1409   23.7612 C   0  0  0  0  0  0  0  0  0  0  0  0
  -27.8137  -14.6640   23.3126 C   0  0  0  0  0  0  0  0  0  0  0  0
  -21.8056  -30.3416   20.5871 C   0  0  0  0  0  0  0  0  0  0  0  0
  -21.9435  -29.1029   22.6568 C   0  0  0  0  0  0  0  0  0  0  0  0
  -29.0823  -15.0718   22.9026 C   0  0  0  0  0  0  0  0  0  0  0  0
  -18.6893  -28.4830   21.9806 C   0  0  0  0  0  0  0  0  0  0  0  0
  -17.7681  -27.5878   22.5242 C   0  0  0  0  0  0  0  0  0  0  0  0
  -28.2231  -15.4985   20.6893 C   0  0  0  0  0  0  0  0  0  0  0  0
  -32.7345  -21.6075   22.6004 C   0  0  0  0  0  0  0  0  0  0  0  0
  -31.0111  -21.5250   20.9094 C   0  0  0  0  0  0  0  0  0  0  0  0
  -31.5525  -23.6215   21.9810 C   0  0  0  0  0  0  0  0  0  0  0  0
  -17.7197  -28.8777   24.5664 C   0  0  0  0  0  0  0  0  0  0  0  0
  -23.7395  -28.9683   21.0465 C   0  0  0  0  0  0  0  0  0  0  0  0
  -26.2862  -29.0160   20.9064 C   0  0  0  0  0  0  0  0  0  0  0  0
  -23.0685   -8.3273   22.9504 C   0  0  0  0  0  0  0  0  0  0  0  0
  -26.7408  -14.6600   22.4096 C   0  0  0  0  0  0  0  0  0  0  0  0
  -24.2133   -9.1262   22.7666 C   0  0  0  0  0  0  0  0  0  0  0  0
  -26.9413  -15.0926   21.0910 C   0  0  0  0  0  0  0  0  0  0  0  0
  -31.9795  -20.8811   21.6796 C   0  0  0  0  0  0  0  0  0  0  0  0
  -32.5210  -22.9776   22.7512 C   0  0  0  0  0  0  0  0  0  0  0  0
  -30.7975  -22.8952   21.0601 C   0  0  0  0  0  0  0  0  0  0  0  0
  -21.2529  -29.9736   21.8137 C   0  0  0  0  0  0  0  0  0  0  0  0
  -29.2878  -15.4863   21.5900 C   0  0  0  0  0  0  0  0  0  0  0  0
  -19.1258  -29.5756   22.7299 C   0  0  0  0  0  0  0  0  0  0  0  0
  -17.2833  -27.7851   23.8171 C   0  0  0  0  0  0  0  0  0  0  0  0
  -18.6409  -29.7730   24.0228 C   0  0  0  0  0  0  0  0  0  0  0  0
  -25.0236  -28.4484   20.6505 C   0  0  0  0  0  0  0  0  0  0  0  0
  -27.1775  -28.1461   20.3273 C   0  0  0  0  0  0  0  0  0  0  0  0
  -31.6041  -18.6095   20.7210 C   0  0  0  0  0  0  0  0  0  0  0  0
  -26.6232  -30.2218   21.6051 C   0  0  0  0  0  0  0  0  0  0  0  0
  -24.8209  -12.4250   21.2170 C   0  0  0  0  0  0  0  0  0  0  0  0
  -23.3061  -14.9771   19.9076 C   0  0  0  0  0  0  0  0  0  0  0  0
  -23.4746  -18.2185   18.8530 C   0  0  0  0  0  0  0  0  0  0  0  0
  -28.9809  -22.9761   19.3166 C   0  0  0  0  0  0  0  0  0  0  0  0
  -21.9906   -8.2321   21.8998 C   0  0  0  0  0  0  0  0  0  0  0  0
  -25.3727  -14.2426   22.8746 C   0  0  0  0  0  0  0  0  0  0  0  0
  -25.8182  -15.1263   20.0880 C   0  0  0  0  0  0  0  0  0  0  0  0
  -22.0323   -9.3669   20.8797 C   0  0  0  0  0  0  0  0  0  0  0  0
  -26.4096  -24.2389   17.2022 C   0  0  0  0  0  0  0  0  0  0  0  0
  -23.4587   -9.5899   20.3872 C   0  0  0  0  0  0  0  0  0  0  0  0
  -25.9237  -25.4933   17.9319 C   0  0  0  0  0  0  0  0  0  0  0  0
  -26.7772  -23.1221   18.1776 C   0  0  0  0  0  0  0  0  0  0  0  0
  -32.9066  -18.5788   22.3704 C   0  0  0  0  0  0  0  0  0  0  0  0
  -27.2419  -24.7589   19.9592 C   0  0  0  0  0  0  0  0  0  0  0  0
  -24.3833   -9.9972   21.5408 C   0  0  1  0  0  0  0  0  0  0  0  0
  -32.2983  -17.4610   21.4855 C   0  0  1  0  0  0  0  0  0  0  0  0
  -24.4660  -13.7904   21.7340 C   0  0  1  0  0  0  0  0  0  0  0  0
  -26.9214  -25.9339   19.0209 C   0  0  2  0  0  0  0  0  0  0  0  0
  -22.0858  -20.0197   17.7928 C   0  0  0  0  0  0  0  0  0  0  0  0
  -23.5836  -13.5950   17.2016 C   0  0  0  0  0  0  0  0  0  0  0  0
  -23.0692  -15.7873   16.1073 C   0  0  0  0  0  0  0  0  0  0  0  0
  -21.3754  -14.7049   17.5846 C   0  0  0  0  0  0  0  0  0  0  0  0
  -23.7841  -19.9980   21.1974 C   0  0  0  0  0  0  0  0  0  0  0  0
  -31.3691  -16.4789   22.1722 C   0  0  0  0  0  0  0  0  0  1  0  0
  -23.4336  -15.7493   18.6167 C   0  0  1  0  0  0  0  0  0  0  0  0
  -22.5630  -19.4068   19.1002 C   0  0  2  0  0  0  0  0  0  0  0  0
  -22.8872  -14.9567   17.3957 C   0  0  0  0  0  0  0  0  0  0  0  0
  -25.1016  -27.3064   19.9623 N   0  0  0  0  0  0  0  0  0  0  0  0
  -26.4239  -27.1493   19.7807 N   0  0  0  0  0  0  0  0  0  0  0  0
  -32.1905  -19.5295   21.5294 N   0  0  0  0  0  0  0  0  0  0  0  0
  -24.5003  -14.7027   20.5892 N   0  0  0  0  0  0  0  0  0  0  0  0
  -27.7288  -23.6114   19.1775 N   0  0  0  0  0  0  0  0  0  0  0  0
  -33.2841  -23.7126   23.6821 N   0  0  0  0  0  0  0  0  0  0  0  0
  -28.5244  -28.1443   20.2373 N   0  0  0  0  0  0  0  0  0  0  0  0
  -25.5848  -30.9978   22.1379 N   0  0  0  0  0  0  0  0  0  0  0  0
  -29.8147  -23.5491   20.2763 N   0  0  0  0  0  0  0  0  0  0  0  0
  -24.1867  -11.3907   21.8783 N   0  0  0  0  0  0  0  0  0  0  0  0
  -22.7738  -17.0310   18.8408 N   0  0  0  0  0  0  0  0  0  0  0  0
  -23.2801  -20.4569   19.8774 N   0  3  0  0  0  0  0  0  0  0  0  0
  -30.8209  -18.6969   19.8028 O   0  0  0  0  0  0  0  0  0  0  0  0
  -27.8091  -30.6084   21.7384 O   0  0  0  0  0  0  0  0  0  0  0  0
  -25.6105  -12.3179   20.2860 O   0  0  0  0  0  0  0  0  0  0  0  0
  -22.1876  -14.6364   20.3005 O   0  0  0  0  0  0  0  0  0  0  0  0
  -24.6865  -18.3325   18.6836 O   0  0  0  0  0  0  0  0  0  0  0  0
  -29.3013  -22.0128   18.6156 O   0  0  0  0  0  0  0  0  0  0  0  0
  -20.0398  -30.4640   22.1885 O   0  0  0  0  0  0  0  0  0  0  0  0
  -30.5252  -15.8842   21.1870 O   0  0  0  0  0  0  0  0  0  1  0  0
  -16.3975  -26.9262   24.3384 F   0  0  0  0  0  0  0  0  0  0  0  0
  -19.0556  -30.8215   24.7471 F   0  0  0  0  0  0  0  0  0  0  0  0
  1  2  1  0  0  0  0
  1  5  2  0  0  0  0
  2  6  2  0  0  0  0
  3  8  2  0  0  0  0
  3 18  1  0  0  0  0
  4  9  1  0  0  0  0
  4 18  2  0  0  0  0
  5 20  1  0  0  0  0
  6 22  1  0  0  0  0
  7 10  2  0  0  0  0
  7 21  1  0  0  0  0
  8 27  1  0  0  0  0
  9 27  2  0  0  0  0
 10 28  1  0  0  0  0
 11 12  2  0  0  0  0
 11 29  1  0  0  0  0
 12 30  1  0  0  0  0
 13 23  1  0  0  0  0
 13 28  2  0  0  0  0
 14 24  1  0  0  0  0
 14 25  2  0  0  0  0
 15 24  2  0  0  0  0
 15 26  1  0  0  0  0
 16 25  1  0  0  0  0
 16 26  2  0  0  0  0
 17 30  2  0  0  0  0
 17 31  1  0  0  0  0
 18 32  1  0  0  0  0
 19 32  1  0  0  0  0
 19 33  2  0  0  0  0
 19 35  1  0  0  0  0
 20 22  2  0  0  0  0
 20 40  1  0  0  0  0
 21 23  2  0  0  0  0
 21 41  1  0  0  0  0
 22 50  1  0  0  0  0
 23 42  1  0  0  0  0
 24 65  1  0  0  0  0
 25 68  1  0  0  0  0
 26 71  1  0  0  0  0
 27 81  1  0  0  0  0
 28 82  1  0  0  0  0
 29 31  2  0  0  0  0
 29 81  1  0  0  0  0
 30 83  1  0  0  0  0
 31 84  1  0  0  0  0
 32 63  2  0  0  0  0
 33 64  1  0  0  0  0
 33 69  1  0  0  0  0
 34 51  1  0  0  0  0
 34 65  1  0  0  0  0
 34 75  2  0  0  0  0
 35 70  1  0  0  0  0
 35 76  2  0  0  0  0
 36 52  1  0  0  0  0
 36 72  1  0  0  0  0
 36 77  2  0  0  0  0
 37 60  1  0  0  0  0
 37 66  1  0  0  0  0
 37 78  2  0  0  0  0
 38 61  1  0  0  0  0
 38 73  1  0  0  0  0
 38 79  2  0  0  0  0
 39 67  1  0  0  0  0
 39 71  1  0  0  0  0
 39 80  2  0  0  0  0
 40 43  1  0  0  0  0
 41 52  1  0  0  0  0
 42 66  1  0  0  0  0
 43 45  1  0  0  0  0
 44 46  1  0  0  0  0
 44 47  1  0  0  0  0
 45 50  1  0  0  0  0
 46 53  1  0  0  0  0
 47 67  1  0  0  0  0
 48 51  1  0  0  0  0
 48 65  1  0  0  0  0
 49 53  1  0  0  0  0
 49 67  1  0  0  0  0
 50 72  1  0  0  0  0
 51 59  1  0  0  0  0
 52 66  1  0  0  0  0
 53 64  1  0  0  0  0
 54 61  1  0  0  0  0
 55 62  1  0  0  0  0
 56 62  1  0  0  0  0
 57 62  1  0  0  0  0
 58 74  1  0  0  0  0
 59 82  1  0  0  0  0
 60 62  1  0  0  0  0
 60 73  1  0  0  0  0
 61 74  1  0  0  0  0
 63 64  1  0  0  0  0
M  CHG  1  74   1
M  ISO  4  39 100  59 101  71 100  82 101
M  END
> <Batch ID>
0092

> <Smiles>
CNC(C)C(=O)NC(C(=O)N1Cc2cc([101O:1][101CH2:1]C3CN(c4cc(N)cc([100NH:0][100C:0](=O)N5CCCC(n6nc(-c7ccc(Oc8ccc(F)cc8F)cc7)c(C(N)=O)c6N)C5)c4)C3=O)ccc2CC1C(=O)NC1CCCc2ccccc21)C(C)(C)C

> <Shape>
0.254

> <Color>
0.082

> <Negative vol penalty>
0.000

$$$$

  -OEChem-04052300343D

 87 96  0     1  0  0  0  0  0999 V2000
  -22.7809  -18.2744   30.7253 C   0  0  0  0  0  0  0  0  0  0  0  0
  -23.9204  -18.7980   30.1228 C   0  0  0  0  0  0  0  0  0  0  0  0
  -23.2132   -9.8298   19.9491 C   0  0  0  0  0  0  0  0  0  0  0  0
  -23.8185   -9.9743   22.2836 C   0  0  0  0  0  0  0  0  0  0  0  0
  -21.5361  -18.4361   30.1185 C   0  0  0  0  0  0  0  0  0  0  0  0
  -23.8158  -19.4826   28.9125 C   0  0  0  0  0  0  0  0  0  0  0  0
  -27.1616  -24.2793   27.0951 C   0  0  0  0  0  0  0  0  0  0  0  0
  -22.5140   -8.6500   20.2034 C   0  0  0  0  0  0  0  0  0  0  0  0
  -23.1192   -8.7944   22.5379 C   0  0  0  0  0  0  0  0  0  0  0  0
  -28.2779  -24.3843   26.2665 C   0  0  0  0  0  0  0  0  0  0  0  0
  -19.5205   -7.7584   21.4984 C   0  0  0  0  0  0  0  0  0  0  0  0
  -18.2526   -7.6218   20.9333 C   0  0  0  0  0  0  0  0  0  0  0  0
  -26.8385  -24.9141   24.4046 C   0  0  0  0  0  0  0  0  0  0  0  0
  -30.3855  -19.5196   20.3889 C   0  0  0  0  0  0  0  0  0  0  0  0
  -29.6964  -19.6418   22.7013 C   0  0  0  0  0  0  0  0  0  0  0  0
  -18.9964   -5.6575   19.7394 C   0  0  0  0  0  0  0  0  0  0  0  0
  -23.8656  -10.4919   20.9892 C   0  0  0  0  0  0  0  0  0  0  0  0
  -24.0860  -13.0245   20.7763 C   0  0  0  0  0  0  0  0  0  0  0  0
  -21.4149  -19.1314   28.9050 C   0  0  0  0  0  0  0  0  0  0  0  0
  -25.8724  -24.4806   26.5814 C   0  0  0  0  0  0  0  0  0  0  0  0
  -22.5684  -19.6526   28.2883 C   0  0  0  0  0  0  0  0  0  0  0  0
  -25.7077  -24.8136   25.2294 C   0  0  0  0  0  0  0  0  0  0  0  0
  -30.0896  -20.2761   21.5228 C   0  0  0  0  0  0  0  0  0  0  0  0
  -30.2880  -18.1288   20.4333 C   0  0  0  0  0  0  0  0  0  0  0  0
  -29.5990  -18.2510   22.7457 C   0  0  0  0  0  0  0  0  0  0  0  0
  -29.8947  -17.4945   21.6117 C   0  0  0  0  0  0  0  0  0  0  0  0
  -22.4669   -8.1323   21.4978 C   0  0  0  0  0  0  0  0  0  0  0  0
  -28.1163  -24.6989   24.9204 C   0  0  0  0  0  0  0  0  0  0  0  0
  -20.5264   -6.8447   21.1839 C   0  0  0  0  0  0  0  0  0  0  0  0
  -17.9905   -6.5713   20.0539 C   0  0  0  0  0  0  0  0  0  0  0  0
  -20.2643   -5.7942   20.3044 C   0  0  0  0  0  0  0  0  0  0  0  0
  -24.5886  -11.7104   20.7271 C   0  0  0  0  0  0  0  0  0  0  0  0
  -25.1603  -13.8154   20.4497 C   0  0  0  0  0  0  0  0  0  0  0  0
  -29.9792  -22.4638   20.3335 C   0  0  0  0  0  0  0  0  0  0  0  0
  -30.5159  -22.4962   22.5723 C   0  0  0  0  0  0  0  0  0  0  0  0
  -22.7660  -13.4886   21.0893 C   0  0  0  0  0  0  0  0  0  0  0  0
  -23.2669  -22.6829   26.2927 C   0  0  0  0  0  0  0  0  0  0  0  0
  -21.9381  -25.4596   25.2697 C   0  0  0  0  0  0  0  0  0  0  0  0
  -22.3831  -28.5471   23.8854 C   0  0  0  0  0  0  0  0  0  0  0  0
  -30.5428  -15.1590   20.9249 C   0  0  0  0  0  0  0  0  0  0  0  0
  -20.0544  -19.2398   28.2632 C   0  0  0  0  0  0  0  0  0  0  0  0
  -24.6804  -24.3900   27.4943 C   0  0  0  0  0  0  0  0  0  0  0  0
  -24.3465  -25.0593   24.6333 C   0  0  0  0  0  0  0  0  0  0  0  0
  -30.3408  -23.8861   20.6545 C   0  0  0  0  0  0  0  0  0  0  0  0
  -19.9796  -20.3026   27.1699 C   0  0  0  0  0  0  0  0  0  0  0  0
  -29.7114  -12.5912   18.6028 C   0  0  0  0  0  0  0  0  0  0  0  0
  -21.1780  -20.1899   26.2330 C   0  0  0  0  0  0  0  0  0  0  0  0
  -28.2631  -12.2412   18.9525 C   0  0  0  0  0  0  0  0  0  0  0  0
  -30.5323  -12.9192   19.8488 C   0  0  0  0  0  0  0  0  0  0  0  0
  -28.5039  -13.5980   21.0711 C   0  0  0  0  0  0  0  0  0  0  0  0
  -22.4923  -20.4229   26.9879 C   0  0  1  0  0  0  0  0  0  0  0  0
  -30.3336  -23.9390   22.1721 C   0  0  1  0  0  0  0  0  0  0  0  0
  -23.3782  -24.1096   26.7506 C   0  0  1  0  0  0  0  0  0  0  0  0
  -27.6211  -13.3233   19.8427 C   0  0  2  0  0  0  0  0  0  0  0  0
  -21.1052  -30.5725   23.1357 C   0  0  0  0  0  0  0  0  0  0  0  0
  -21.0300  -23.9594   22.7727 C   0  0  0  0  0  0  0  0  0  0  0  0
  -20.6252  -26.1728   21.6749 C   0  0  0  0  0  0  0  0  0  0  0  0
  -19.3357  -25.5396   23.7143 C   0  0  0  0  0  0  0  0  0  0  0  0
  -23.7920  -30.2935   25.8152 C   0  0  0  0  0  0  0  0  0  0  0  0
  -29.0215  -24.4714   22.7330 C   0  0  0  0  0  0  0  0  0  1  0  0
  -21.7818  -26.1407   23.9315 C   0  0  1  0  0  0  0  0  0  0  0  0
  -21.8565  -29.9144   24.2825 C   0  0  2  0  0  0  0  0  0  0  0  0
  -20.7188  -25.4467   23.0338 C   0  0  0  0  0  0  0  0  0  0  0  0
  -25.8815  -11.6650   20.3951 N   0  0  0  0  0  0  0  0  0  0  0  0
  -26.2005  -12.9603   20.2327 N   0  0  0  0  0  0  0  0  0  0  0  0
  -30.1900  -21.7041   21.4774 N   0  0  0  0  0  0  0  0  0  0  0  0
  -23.2116  -24.9528   25.5651 N   0  0  0  0  0  0  0  0  0  0  0  0
  -29.8649  -13.9547   20.6408 N   0  0  0  0  0  0  0  0  0  0  0  0
  -30.5919  -17.3839   19.2714 N   0  0  0  0  0  0  0  0  0  0  0  0
  -29.1983  -17.6313   23.9511 N   0  0  0  0  0  0  0  0  0  0  0  0
  -25.3072  -15.1520   20.3296 N   0  0  0  0  0  0  0  0  0  0  0  0
  -21.7815  -12.5415   21.4024 N   0  0  0  0  0  0  0  0  0  0  0  0
  -29.7967  -16.0817   21.6574 N   0  0  0  0  0  0  0  0  0  0  0  0
  -22.6960  -21.8362   27.2237 N   0  0  0  0  0  0  0  0  0  0  0  0
  -21.4986  -27.5429   24.2178 N   0  0  0  0  0  0  0  0  0  0  0  0
  -22.9815  -30.8070   24.6810 N   0  3  0  0  0  0  0  0  0  0  0  0
  -29.5766  -22.1263   19.2285 O   0  0  0  0  0  0  0  0  0  0  0  0
  -30.8924  -22.1695   23.6903 O   0  0  0  0  0  0  0  0  0  0  0  0
  -22.4643  -14.7061   21.0753 O   0  0  0  0  0  0  0  0  0  0  0  0
  -23.6678  -22.3734   25.1769 O   0  0  0  0  0  0  0  0  0  0  0  0
  -20.9680  -25.3864   26.0280 O   0  0  0  0  0  0  0  0  0  0  0  0
  -23.4687  -28.3863   23.3321 O   0  0  0  0  0  0  0  0  0  0  0  0
  -31.6904  -15.3682   20.5231 O   0  0  0  0  0  0  0  0  0  0  0  0
  -21.7844   -6.9812   21.7463 O   0  0  0  0  0  0  0  0  0  0  0  0
  -29.2041  -24.8013   24.1093 O   0  0  0  0  0  0  0  0  0  1  0  0
  -16.7724   -6.4393   19.5125 F   0  0  0  0  0  0  0  0  0  0  0  0
  -21.2263   -4.9125   19.9995 F   0  0  0  0  0  0  0  0  0  0  0  0
  1  2  1  0  0  0  0
  1  5  2  0  0  0  0
  2  6  2  0  0  0  0
  3  8  2  0  0  0  0
  3 17  1  0  0  0  0
  4  9  1  0  0  0  0
  4 17  2  0  0  0  0
  5 19  1  0  0  0  0
  6 21  1  0  0  0  0
  7 10  2  0  0  0  0
  7 20  1  0  0  0  0
  8 27  1  0  0  0  0
  9 27  2  0  0  0  0
 10 28  1  0  0  0  0
 11 12  2  0  0  0  0
 11 29  1  0  0  0  0
 12 30  1  0  0  0  0
 13 22  1  0  0  0  0
 13 28  2  0  0  0  0
 14 23  1  0  0  0  0
 14 24  2  0  0  0  0
 15 23  2  0  0  0  0
 15 25  1  0  0  0  0
 16 30  2  0  0  0  0
 16 31  1  0  0  0  0
 17 32  1  0  0  0  0
 18 32  1  0  0  0  0
 18 33  2  0  0  0  0
 18 36  1  0  0  0  0
 19 21  2  0  0  0  0
 19 41  1  0  0  0  0
 20 22  2  0  0  0  0
 20 42  1  0  0  0  0
 21 51  1  0  0  0  0
 22 43  1  0  0  0  0
 23 66  1  0  0  0  0
 24 26  1  0  0  0  0
 24 69  1  0  0  0  0
 25 26  2  0  0  0  0
 25 70  1  0  0  0  0
 26 73  1  0  0  0  0
 27 84  1  0  0  0  0
 28 85  1  0  0  0  0
 29 31  2  0  0  0  0
 29 84  1  0  0  0  0
 30 86  1  0  0  0  0
 31 87  1  0  0  0  0
 32 64  2  0  0  0  0
 33 65  1  0  0  0  0
 33 71  1  0  0  0  0
 34 44  1  0  0  0  0
 34 66  1  0  0  0  0
 34 77  2  0  0  0  0
 35 52  1  0  0  0  0
 35 66  1  0  0  0  0
 35 78  2  0  0  0  0
 36 72  1  0  0  0  0
 36 79  2  0  0  0  0
 37 53  1  0  0  0  0
 37 74  1  0  0  0  0
 37 80  2  0  0  0  0
 38 61  1  0  0  0  0
 38 67  1  0  0  0  0
 38 81  2  0  0  0  0
 39 62  1  0  0  0  0
 39 75  1  0  0  0  0
 39 82  2  0  0  0  0
 40 68  1  0  0  0  0
 40 73  1  0  0  0  0
 40 83  2  0  0  0  0
 41 45  1  0  0  0  0
 42 53  1  0  0  0  0
 43 67  1  0  0  0  0
 44 52  1  0  0  0  0
 45 47  1  0  0  0  0
 46 48  1  0  0  0  0
 46 49  1  0  0  0  0
 47 51  1  0  0  0  0
 48 54  1  0  0  0  0
 49 68  1  0  0  0  0
 50 54  1  0  0  0  0
 50 68  1  0  0  0  0
 51 74  1  0  0  0  0
 52 60  1  0  0  0  0
 53 67  1  0  0  0  0
 54 65  1  0  0  0  0
 55 62  1  0  0  0  0
 56 63  1  0  0  0  0
 57 63  1  0  0  0  0
 58 63  1  0  0  0  0
 59 76  1  0  0  0  0
 60 85  1  0  0  0  0
 61 63  1  0  0  0  0
 61 75  1  0  0  0  0
 62 76  1  0  0  0  0
 64 65  1  0  0  0  0
M  CHG  1  76   1
M  ISO  4  40 100  60 101  73 100  85 101
M  END
> <Batch ID>
0092

> <Smiles>
CNC(C)C(=O)NC(C(=O)N1Cc2cc([101O:1][101CH2:1]C3CC(=O)N(c4cc(N)c([100NH:0][100C:0](=O)N5CCCC(n6nc(-c7ccc(Oc8ccc(F)cc8F)cc7)c(C(N)=O)c6N)C5)c(N)c4)C3=O)ccc2CC1C(=O)NC1CCCc2ccccc21)C(C)(C)C

> <Shape>
0.219

> <Color>
0.201

> <Negative vol penalty>
0.000

$$$$

  -OEChem-04052300343D

 88 96  0     1  0  0  0  0  0999 V2000
  -16.7509  -29.0294   24.1926 C   0  0  0  0  0  0  0  0  0  0  0  0
  -17.1118  -28.2670   23.0863 C   0  0  0  0  0  0  0  0  0  0  0  0
  -24.5419  -15.8458   21.0413 C   0  0  0  0  0  0  0  0  0  0  0  0
  -26.1154  -14.1308   20.3933 C   0  0  0  0  0  0  0  0  0  0  0  0
  -17.5552  -30.0943   24.5964 C   0  0  0  0  0  0  0  0  0  0  0  0
  -18.2768  -28.5699   22.3823 C   0  0  0  0  0  0  0  0  0  0  0  0
  -22.0565  -24.6076   19.6402 C   0  0  0  0  0  0  0  0  0  0  0  0
  -23.4886  -14.9513   20.8514 C   0  0  0  0  0  0  0  0  0  0  0  0
  -25.0621  -13.2362   20.2035 C   0  0  0  0  0  0  0  0  0  0  0  0
  -22.1840  -24.1973   18.3138 C   0  0  0  0  0  0  0  0  0  0  0  0
  -23.0614  -11.3035   22.1223 C   0  0  0  0  0  0  0  0  0  0  0  0
  -23.2078  -10.0143   22.6342 C   0  0  0  0  0  0  0  0  0  0  0  0
  -28.8687  -26.3835   14.9768 C   0  0  0  0  0  0  0  0  0  0  0  0
  -27.8916  -24.1872   15.2174 C   0  0  0  0  0  0  0  0  0  0  0  0
  -23.9403  -25.8185   17.9876 C   0  0  0  0  0  0  0  0  0  0  0  0
  -22.9632   -9.1033   20.4099 C   0  0  0  0  0  0  0  0  0  0  0  0
  -25.8553  -15.4356   20.8121 C   0  0  0  0  0  0  0  0  0  0  0  0
  -28.8456  -25.1326   15.5935 C   0  0  0  0  0  0  0  0  0  0  0  0
  -27.6706  -16.5781   22.1930 C   0  0  0  0  0  0  0  0  0  0  0  0
  -18.7356  -30.4043   23.9028 C   0  0  0  0  0  0  0  0  0  0  0  0
  -22.8638  -25.6356   20.1480 C   0  0  0  0  0  0  0  0  0  0  0  0
  -19.0969  -29.6408   22.7764 C   0  0  0  0  0  0  0  0  0  0  0  0
  -23.8228  -26.2382   19.3214 C   0  0  0  0  0  0  0  0  0  0  0  0
  -27.9377  -26.6890   13.9841 C   0  0  0  0  0  0  0  0  0  0  0  0
  -26.9605  -24.4926   14.2246 C   0  0  0  0  0  0  0  0  0  0  0  0
  -26.9836  -25.7436   13.6080 C   0  0  0  0  0  0  0  0  0  0  0  0
  -23.7487  -13.6465   20.4325 C   0  0  0  0  0  0  0  0  0  0  0  0
  -23.1240  -24.8048   17.4865 C   0  0  0  0  0  0  0  0  0  0  0  0
  -22.8657  -11.4926   20.7542 C   0  0  0  0  0  0  0  0  0  0  0  0
  -23.1588   -8.9142   21.7781 C   0  0  0  0  0  0  0  0  0  0  0  0
  -22.8167  -10.3925   19.8980 C   0  0  0  0  0  0  0  0  0  0  0  0
  -26.9437  -16.3594   21.0075 C   0  0  0  0  0  0  0  0  0  0  0  0
  -28.5880  -17.5445   21.8599 C   0  0  0  0  0  0  0  0  0  0  0  0
  -29.8151  -24.8141   16.6297 C   0  0  0  0  0  0  0  0  0  0  0  0
  -27.5293  -15.9627   23.4803 C   0  0  0  0  0  0  0  0  0  0  0  0
  -29.6128  -22.4280   19.5042 C   0  0  0  0  0  0  0  0  0  0  0  0
  -30.2012  -23.4045   18.6386 C   0  0  0  0  0  0  0  0  0  0  0  0
  -22.3207  -28.5247   21.3571 C   0  0  0  0  0  0  0  0  0  0  0  0
  -25.5097  -28.4506   21.9460 C   0  0  0  0  0  0  0  0  0  0  0  0
  -24.7460  -23.4566   14.5349 C   0  0  0  0  0  0  0  0  0  0  0  0
  -28.5738  -27.1750   21.1514 C   0  0  0  0  0  0  0  0  0  0  0  0
  -19.5481  -31.5943   24.3484 C   0  0  0  0  0  0  0  0  0  0  0  0
  -22.7323  -26.0482   21.5885 C   0  0  0  0  0  0  0  0  0  0  0  0
  -24.7278  -27.3324   19.8238 C   0  0  0  0  0  0  0  0  0  0  0  0
  -20.9620  -31.6161   23.7734 C   0  0  0  0  0  0  0  0  0  0  0  0
  -29.9353  -19.4245   17.3837 C   0  0  0  0  0  0  0  0  0  0  0  0
  -20.9345  -31.3200   22.2773 C   0  0  0  0  0  0  0  0  0  0  0  0
  -29.1833  -18.3939   18.2203 C   0  0  0  0  0  0  0  0  0  0  0  0
  -29.3463  -20.8263   17.5341 C   0  0  0  0  0  0  0  0  0  0  0  0
  -28.4952  -20.2459   19.7912 C   0  0  0  0  0  0  0  0  0  0  0  0
  -20.3661  -29.9227   22.0018 C   0  0  1  0  0  0  0  0  0  0  0  0
  -23.2527  -27.4570   21.8563 C   0  0  1  0  0  0  0  0  0  0  0  0
  -29.1078  -18.8410   19.6880 C   0  0  1  0  0  0  0  0  0  0  0  0
  -31.0392  -26.7478   21.3433 C   0  0  0  0  0  0  0  0  0  0  0  0
  -25.7180  -31.1109   20.4663 C   0  0  0  0  0  0  0  0  0  0  0  0
  -28.1888  -30.7437   20.2971 C   0  0  0  0  0  0  0  0  0  0  0  0
  -27.1118  -30.9570   22.5370 C   0  0  0  0  0  0  0  0  0  0  0  0
  -26.3032  -22.5447   12.7743 C   0  0  0  0  0  0  0  0  0  0  0  0
  -28.1517  -24.8762   22.9669 C   0  0  0  0  0  0  0  0  0  0  0  0
  -24.5423  -24.5264   15.5979 C   0  0  0  0  0  0  0  0  0  1  0  0
  -26.7477  -28.8539   21.1819 C   0  0  1  0  0  0  0  0  0  0  0  0
  -29.6832  -26.6057   22.0171 C   0  0  2  0  0  0  0  0  0  0  0  0
  -26.9233  -30.3971   21.1102 C   0  0  0  0  0  0  0  0  0  0  0  0
  -27.3630  -17.1253   19.9968 N   0  0  0  0  0  0  0  0  0  0  0  0
  -28.3633  -17.8348   20.5464 N   0  0  0  0  0  0  0  0  0  0  0  0
  -29.2063  -21.2106   18.9448 N   0  0  0  0  0  0  0  0  0  0  0  0
  -24.5566  -27.7051   21.2378 N   0  0  0  0  0  0  0  0  0  0  0  0
  -27.9799  -27.9628   13.3736 N   0  0  0  0  0  0  0  0  0  0  0  0
  -26.0385  -26.0539   12.6007 N   0  0  0  0  0  0  0  0  0  0  0  0
  -29.5569  -18.1658   22.5654 N   0  0  0  0  0  0  0  0  0  0  0  0
  -26.5360  -14.9885   23.6497 N   0  0  0  0  0  0  0  0  0  0  0  0
  -29.4364  -23.8302   17.6334 N   0  0  0  0  0  0  0  0  0  0  0  0
  -21.3621  -28.9089   22.2751 N   0  0  0  0  0  0  0  0  0  0  0  0
  -27.8622  -28.1543   21.8117 N   0  0  0  0  0  0  0  0  0  0  0  0
  -25.9807  -23.4922   13.8523 N   0  0  0  0  0  0  0  0  0  0  0  0
  -31.4387  -23.7668   18.9456 N   0  3  0  0  0  0  0  0  0  0  0  0
  -29.4408  -25.1599   22.2852 N   0  3  0  0  0  0  0  0  0  0  0  0
  -30.9395  -25.3247   16.6792 O   0  0  0  0  0  0  0  0  0  0  0  0
  -28.2513  -16.2795   24.4559 O   0  0  0  0  0  0  0  0  0  0  0  0
  -29.4832  -22.7237   20.6902 O   0  0  0  0  0  0  0  0  0  0  0  0
  -22.4618  -28.9681   20.2234 O   0  0  0  0  0  0  0  0  0  0  0  0
  -25.3960  -28.7786   23.1297 O   0  0  0  0  0  0  0  0  0  0  0  0
  -23.8322  -22.6579   14.3139 O   0  0  0  0  0  0  0  0  0  0  0  0
  -28.3622  -26.7922   20.0028 O   0  0  0  0  0  0  0  0  0  0  0  0
  -22.7212  -12.7732   20.2474 O   0  0  0  0  0  0  0  0  0  0  0  0
  -23.2501  -24.4068   16.1913 O   0  0  0  0  0  0  0  0  0  1  0  0
  -23.3010   -7.6763   22.2696 F   0  0  0  0  0  0  0  0  0  0  0  0
  -22.6302  -10.5680   18.5827 F   0  0  0  0  0  0  0  0  0  0  0  0
  1  2  1  0  0  0  0
  1  5  2  0  0  0  0
  2  6  2  0  0  0  0
  3  8  2  0  0  0  0
  3 17  1  0  0  0  0
  4  9  1  0  0  0  0
  4 17  2  0  0  0  0
  5 20  1  0  0  0  0
  6 22  1  0  0  0  0
  7 10  2  0  0  0  0
  7 21  1  0  0  0  0
  8 27  1  0  0  0  0
  9 27  2  0  0  0  0
 10 28  1  0  0  0  0
 11 12  2  0  0  0  0
 11 29  1  0  0  0  0
 12 30  1  0  0  0  0
 13 18  1  0  0  0  0
 13 24  2  0  0  0  0
 14 18  2  0  0  0  0
 14 25  1  0  0  0  0
 15 23  1  0  0  0  0
 15 28  2  0  0  0  0
 16 30  2  0  0  0  0
 16 31  1  0  0  0  0
 17 32  1  0  0  0  0
 18 34  1  0  0  0  0
 19 32  1  0  0  0  0
 19 33  2  0  0  0  0
 19 35  1  0  0  0  0
 20 22  2  0  0  0  0
 20 42  1  0  0  0  0
 21 23  2  0  0  0  0
 21 43  1  0  0  0  0
 22 51  1  0  0  0  0
 23 44  1  0  0  0  0
 24 26  1  0  0  0  0
 24 68  1  0  0  0  0
 25 26  2  0  0  0  0
 25 75  1  0  0  0  0
 26 69  1  0  0  0  0
 27 85  1  0  0  0  0
 28 86  1  0  0  0  0
 29 31  2  0  0  0  0
 29 85  1  0  0  0  0
 30 87  1  0  0  0  0
 31 88  1  0  0  0  0
 32 64  2  0  0  0  0
 33 65  1  0  0  0  0
 33 70  1  0  0  0  0
 34 72  1  0  0  0  0
 34 78  2  0  0  0  0
 35 71  1  0  0  0  0
 35 79  2  0  0  0  0
 36 37  1  0  0  0  0
 36 66  1  0  0  0  0
 36 80  2  0  0  0  0
 37 72  1  0  0  0  0
 37 76  2  0  0  0  0
 38 52  1  0  0  0  0
 38 73  1  0  0  0  0
 38 81  2  0  0  0  0
 39 61  1  0  0  0  0
 39 67  1  0  0  0  0
 39 82  2  0  0  0  0
 40 60  1  0  0  0  0
 40 75  1  0  0  0  0
 40 83  2  0  0  0  0
 41 62  1  0  0  0  0
 41 74  1  0  0  0  0
 41 84  2  0  0  0  0
 42 45  1  0  0  0  0
 43 52  1  0  0  0  0
 44 67  1  0  0  0  0
 45 47  1  0  0  0  0
 46 48  1  0  0  0  0
 46 49  1  0  0  0  0
 47 51  1  0  0  0  0
 48 53  1  0  0  0  0
 49 66  1  0  0  0  0
 50 53  1  0  0  0  0
 50 66  1  0  0  0  0
 51 73  1  0  0  0  0
 52 67  1  0  0  0  0
 53 65  1  0  0  0  0
 54 62  1  0  0  0  0
 55 63  1  0  0  0  0
 56 63  1  0  0  0  0
 57 63  1  0  0  0  0
 58 75  1  0  0  0  0
 59 77  1  0  0  0  0
 60 86  1  0  0  0  0
 61 63  1  0  0  0  0
 61 74  1  0  0  0  0
 62 77  1  0  0  0  0
 64 65  1  0  0  0  0
M  CHG  2  76   1  77   1
M  ISO  4  36 100  37 100  60 101  86 101
M  END
> <Batch ID>
0092

> <Smiles>
CNC(C)C(=O)NC(C(=O)N1Cc2cc([101O:1][101CH2:1]C(=O)N(C)c3cc(C(=O)N[100C:0](=N)[100C:0](=O)N4CCCC(n5nc(-c6ccc(Oc7ccc(F)cc7F)cc6)c(C(N)=O)c5N)C4)cc(N)c3N)ccc2CC1C(=O)NC1CCCc2ccccc21)C(C)(C)C

> <Shape>
0.269

> <Color>
0.057

> <Negative vol penalty>
0.000

$$$$

  -OEChem-04052300343D

 85 93  0     1  0  0  0  0  0999 V2000
  -29.8033  -25.3715   17.4840 C   0  0  0  0  0  0  0  0  0  0  0  0
  -28.4203  -25.5100   17.5441 C   0  0  0  0  0  0  0  0  0  0  0  0
  -26.6516  -16.4359   18.3760 C   0  0  0  0  0  0  0  0  0  0  0  0
  -24.6389  -15.8434   19.5740 C   0  0  0  0  0  0  0  0  0  0  0  0
  -30.5894  -25.7603   18.5678 C   0  0  0  0  0  0  0  0  0  0  0  0
  -27.8226  -26.0363   18.6887 C   0  0  0  0  0  0  0  0  0  0  0  0
  -22.8224  -29.5635   18.9405 C   0  0  0  0  0  0  0  0  0  0  0  0
  -27.3703  -15.5012   19.1211 C   0  0  0  0  0  0  0  0  0  0  0  0
  -25.3577  -14.9086   20.3191 C   0  0  0  0  0  0  0  0  0  0  0  0
  -21.4850  -29.2769   19.2108 C   0  0  0  0  0  0  0  0  0  0  0  0
  -27.8293  -12.1512   19.1390 C   0  0  0  0  0  0  0  0  0  0  0  0
  -28.7135  -11.3178   18.4541 C   0  0  0  0  0  0  0  0  0  0  0  0
  -19.0984  -23.8794   20.9289 C   0  0  0  0  0  0  0  0  0  0  0  0
  -17.1085  -23.0485   22.0182 C   0  0  0  0  0  0  0  0  0  0  0  0
  -21.8224  -29.9052   21.5153 C   0  0  0  0  0  0  0  0  0  0  0  0
  -18.7750  -21.5009   21.2030 C   0  0  0  0  0  0  0  0  0  0  0  0
  -30.5463  -12.1793   19.7716 C   0  0  0  0  0  0  0  0  0  0  0  0
  -25.2859  -16.6070   18.6024 C   0  0  0  0  0  0  0  0  0  0  0  0
  -17.8796  -24.1183   21.5637 C   0  0  0  0  0  0  0  0  0  0  0  0
  -23.8788  -17.3569   16.6111 C   0  0  0  0  0  0  0  0  0  0  0  0
  -30.0018  -26.3007   19.7225 C   0  0  0  0  0  0  0  0  0  0  0  0
  -23.6740  -30.0134   19.9597 C   0  0  0  0  0  0  0  0  0  0  0  0
  -28.6015  -26.4314   19.7896 C   0  0  0  0  0  0  0  0  0  0  0  0
  -23.1696  -30.1992   21.2548 C   0  0  0  0  0  0  0  0  0  0  0  0
  -19.5461  -22.5707   20.7485 C   0  0  0  0  0  0  0  0  0  0  0  0
  -26.7234  -14.7375   20.0927 C   0  0  0  0  0  0  0  0  0  0  0  0
  -20.9855  -29.4450   20.4990 C   0  0  0  0  0  0  0  0  0  0  0  0
  -28.3036  -12.9988   20.1402 C   0  0  0  0  0  0  0  0  0  0  0  0
  -17.5562  -21.7398   21.8379 C   0  0  0  0  0  0  0  0  0  0  0  0
  -30.0720  -11.3318   18.7704 C   0  0  0  0  0  0  0  0  0  0  0  0
  -29.6621  -13.0128   20.4565 C   0  0  0  0  0  0  0  0  0  0  0  0
  -24.5430  -17.5729   17.8334 C   0  0  0  0  0  0  0  0  0  0  0  0
  -23.3318  -18.5771   16.2974 C   0  0  0  0  0  0  0  0  0  0  0  0
  -17.4049  -25.5056   21.7563 C   0  0  0  0  0  0  0  0  0  0  0  0
  -23.7662  -16.1604   15.8293 C   0  0  0  0  0  0  0  0  0  0  0  0
  -26.3237  -28.9050   21.3213 C   0  0  0  0  0  0  0  0  0  0  0  0
  -26.2746  -31.7696   22.8425 C   0  0  0  0  0  0  0  0  0  0  0  0
  -18.1821  -27.8351   22.0309 C   0  0  0  0  0  0  0  0  0  0  0  0
  -24.4510  -34.4408   23.9316 C   0  0  0  0  0  0  0  0  0  0  0  0
  -21.6716  -23.2758   19.5945 C   0  0  0  0  0  0  0  0  0  0  0  0
  -30.8890  -26.6628   20.8871 C   0  0  0  0  0  0  0  0  0  0  0  0
  -25.1075  -30.3437   19.6460 C   0  0  0  0  0  0  0  0  0  0  0  0
  -24.0374  -30.6991   22.3797 C   0  0  0  0  0  0  0  0  0  0  0  0
  -30.2066  -27.5595   21.9169 C   0  0  0  0  0  0  0  0  0  0  0  0
  -24.0359  -23.2713   16.9323 C   0  0  0  0  0  0  0  0  0  0  0  0
  -28.8150  -27.0295   22.2477 C   0  0  0  0  0  0  0  0  0  0  0  0
  -24.3692  -21.7893   16.7460 C   0  0  0  0  0  0  0  0  0  0  0  0
  -23.8245  -23.6244   18.4035 C   0  0  0  0  0  0  0  0  0  0  0  0
  -23.1802  -21.3039   18.9226 C   0  0  0  0  0  0  0  0  0  0  0  0
  -27.9179  -27.0212   21.0041 C   0  0  1  0  0  0  0  0  0  0  0  0
  -26.0121  -30.3051   20.8738 C   0  0  1  0  0  0  0  0  0  0  0  0
  -23.3380  -20.8867   17.4513 C   0  0  2  0  0  0  0  0  0  0  0  0
  -24.6815  -36.6073   25.1767 C   0  0  0  0  0  0  0  0  0  0  0  0
  -26.4638  -30.2350   25.4729 C   0  0  0  0  0  0  0  0  0  0  0  0
  -25.7413  -32.3178   26.6595 C   0  0  0  0  0  0  0  0  0  0  0  0
  -27.8735  -32.2978   25.3649 C   0  0  0  0  0  0  0  0  0  0  0  0
  -23.5257  -36.0126   21.6009 C   0  0  0  0  0  0  0  0  0  0  0  0
  -15.5690  -21.0112   22.9223 C   0  0  0  0  0  0  0  0  0  0  0  0
  -19.3690  -28.7165   22.0839 C   0  0  0  0  0  0  0  0  0  1  0  0
  -25.6704  -32.2890   24.1247 C   0  0  1  0  0  0  0  0  0  0  0  0
  -24.6847  -35.9359   23.8121 C   0  0  2  0  0  0  0  0  0  0  0  0
  -26.4211  -31.7736   25.3850 C   0  0  0  0  0  0  0  0  0  0  0  0
  -24.4297  -18.8313   18.2665 N   0  0  0  0  0  0  0  0  0  0  0  0
  -23.6880  -19.4171   17.3111 N   0  0  0  0  0  0  0  0  0  0  0  0
  -25.4335  -31.0023   22.0242 N   0  0  0  0  0  0  0  0  0  0  0  0
  -22.8317  -22.7311   19.0046 N   0  0  0  0  0  0  0  0  0  0  0  0
  -22.5857  -19.0028   15.2559 N   0  0  0  0  0  0  0  0  0  0  0  0
  -24.3888  -14.9953   16.2976 N   0  0  0  0  0  0  0  0  0  0  0  0
  -20.7846  -22.3281   20.1042 N   0  0  0  0  0  0  0  0  0  0  0  0
  -18.4146  -26.5341   21.8396 N   0  0  0  0  0  0  0  0  0  0  0  0
  -27.4390  -28.3564   20.7174 N   0  0  0  0  0  0  0  0  0  0  0  0
  -25.6378  -33.7423   24.0013 N   0  0  0  0  0  0  0  0  0  0  0  0
  -17.0003  -28.4234   22.1729 N   0  3  0  0  0  0  0  0  0  0  0  0
  -23.6199  -36.5617   22.9781 N   0  3  0  0  0  0  0  0  0  0  0  0
  -16.2171  -25.7755   21.8609 O   0  0  0  0  0  0  0  0  0  0  0  0
  -23.1461  -16.1294   14.7393 O   0  0  0  0  0  0  0  0  0  0  0  0
  -25.6064  -28.3631   22.1541 O   0  0  0  0  0  0  0  0  0  0  0  0
  -27.4475  -32.0409   22.5733 O   0  0  0  0  0  0  0  0  0  0  0  0
  -23.3279  -33.9426   23.9638 O   0  0  0  0  0  0  0  0  0  0  0  0
  -21.4662  -24.4920   19.6197 O   0  0  0  0  0  0  0  0  0  0  0  0
  -27.4244  -13.8251   20.8198 O   0  0  0  0  0  0  0  0  0  0  0  0
  -16.8043  -20.6958   22.2816 O   0  0  0  0  0  0  0  0  0  0  0  0
  -19.6807  -29.1654   20.7657 O   0  0  0  0  0  0  0  0  0  1  0  0
  -30.9207  -10.5302   18.1136 F   0  0  0  0  0  0  0  0  0  0  0  0
  -30.1234  -13.8241   21.4182 F   0  0  0  0  0  0  0  0  0  0  0  0
  1  2  1  0  0  0  0
  1  5  2  0  0  0  0
  2  6  2  0  0  0  0
  3  8  2  0  0  0  0
  3 18  1  0  0  0  0
  4  9  1  0  0  0  0
  4 18  2  0  0  0  0
  5 21  1  0  0  0  0
  6 23  1  0  0  0  0
  7 10  2  0  0  0  0
  7 22  1  0  0  0  0
  8 26  1  0  0  0  0
  9 26  2  0  0  0  0
 10 27  1  0  0  0  0
 11 12  2  0  0  0  0
 11 28  1  0  0  0  0
 12 30  1  0  0  0  0
 13 19  1  0  0  0  0
 13 25  2  0  0  0  0
 14 19  2  0  0  0  0
 14 29  1  0  0  0  0
 15 24  1  0  0  0  0
 15 27  2  0  0  0  0
 16 25  1  0  0  0  0
 16 29  2  0  0  0  0
 17 30  2  0  0  0  0
 17 31  1  0  0  0  0
 18 32  1  0  0  0  0
 19 34  1  0  0  0  0
 20 32  1  0  0  0  0
 20 33  2  0  0  0  0
 20 35  1  0  0  0  0
 21 23  2  0  0  0  0
 21 41  1  0  0  0  0
 22 24  2  0  0  0  0
 22 42  1  0  0  0  0
 23 50  1  0  0  0  0
 24 43  1  0  0  0  0
 25 69  1  0  0  0  0
 26 81  1  0  0  0  0
 27 83  1  0  0  0  0
 28 31  2  0  0  0  0
 28 81  1  0  0  0  0
 29 82  1  0  0  0  0
 30 84  1  0  0  0  0
 31 85  1  0  0  0  0
 32 63  2  0  0  0  0
 33 64  1  0  0  0  0
 33 67  1  0  0  0  0
 34 70  1  0  0  0  0
 34 75  2  0  0  0  0
 35 68  1  0  0  0  0
 35 76  2  0  0  0  0
 36 51  1  0  0  0  0
 36 71  1  0  0  0  0
 36 77  2  0  0  0  0
 37 60  1  0  0  0  0
 37 65  1  0  0  0  0
 37 78  2  0  0  0  0
 38 59  1  0  0  0  0
 38 70  1  0  0  0  0
 38 73  2  0  0  0  0
 39 61  1  0  0  0  0
 39 72  1  0  0  0  0
 39 79  2  0  0  0  0
 40 66  1  0  0  0  0
 40 69  1  0  0  0  0
 40 80  2  0  0  0  0
 41 44  1  0  0  0  0
 42 51  1  0  0  0  0
 43 65  1  0  0  0  0
 44 46  1  0  0  0  0
 45 47  1  0  0  0  0
 45 48  1  0  0  0  0
 46 50  1  0  0  0  0
 47 52  1  0  0  0  0
 48 66  1  0  0  0  0
 49 52  1  0  0  0  0
 49 66  1  0  0  0  0
 50 71  1  0  0  0  0
 51 65  1  0  0  0  0
 52 64  1  0  0  0  0
 53 61  1  0  0  0  0
 54 62  1  0  0  0  0
 55 62  1  0  0  0  0
 56 62  1  0  0  0  0
 57 74  1  0  0  0  0
 58 82  1  0  0  0  0
 59 83  1  0  0  0  0
 60 62  1  0  0  0  0
 60 72  1  0  0  0  0
 61 74  1  0  0  0  0
 63 64  1  0  0  0  0
M  CHG  2  73   1  74   1
M  ISO  4  40 100  59 101  69 100  83 101
M  END
> <Batch ID>
0092

> <Smiles>
CNC(C)C(=O)NC(C(=O)N1Cc2cc([101O:1][101CH2:1]C(=N)NC(=O)c3cc([100NH:0][100C:0](=O)N4CCCC(n5nc(-c6ccc(Oc7ccc(F)cc7F)cc6)c(C(N)=O)c5N)C4)cc(OC)c3)ccc2CC1C(=O)NC1CCCc2ccccc21)C(C)(C)C

> <Shape>
0.286

> <Color>
0.062

> <Negative vol penalty>
0.000

$$$$

  -OEChem-04052300343D

 86 95  0     1  0  0  0  0  0999 V2000
  -29.6589  -33.0659   24.3996 C   0  0  0  0  0  0  0  0  0  0  0  0
  -29.4430  -31.7718   23.9371 C   0  0  0  0  0  0  0  0  0  0  0  0
  -23.0371  -10.0100   19.8471 C   0  0  0  0  0  0  0  0  0  0  0  0
  -23.9731   -9.6962   22.0522 C   0  0  0  0  0  0  0  0  0  0  0  0
  -28.5910  -33.8181   24.8870 C   0  0  0  0  0  0  0  0  0  0  0  0
  -28.1589  -31.2286   23.9628 C   0  0  0  0  0  0  0  0  0  0  0  0
  -26.9810  -28.8227   19.6652 C   0  0  0  0  0  0  0  0  0  0  0  0
  -29.2813  -18.6589   21.6964 C   0  0  0  0  0  0  0  0  0  0  0  0
  -31.4159  -18.5925   20.5667 C   0  0  0  0  0  0  0  0  0  0  0  0
  -28.9506  -19.8232   21.0030 C   0  0  0  0  0  0  0  0  0  0  0  0
  -31.0852  -19.7568   19.8733 C   0  0  0  0  0  0  0  0  0  0  0  0
  -22.3206   -8.8209   19.9820 C   0  0  0  0  0  0  0  0  0  0  0  0
  -23.2565   -8.5071   22.1871 C   0  0  0  0  0  0  0  0  0  0  0  0
  -27.5099  -27.5453   19.4851 C   0  0  0  0  0  0  0  0  0  0  0  0
  -20.0890   -7.5782   22.9112 C   0  0  0  0  0  0  0  0  0  0  0  0
  -19.4257   -7.3564   24.1180 C   0  0  0  0  0  0  0  0  0  0  0  0
  -25.4048  -26.5842   20.1660 C   0  0  0  0  0  0  0  0  0  0  0  0
  -29.0900  -22.9475   17.7336 C   0  0  0  0  0  0  0  0  0  0  0  0
  -20.7300   -5.3529   24.4668 C   0  0  0  0  0  0  0  0  0  0  0  0
  -23.8635  -10.4476   20.8822 C   0  0  0  0  0  0  0  0  0  0  0  0
  -24.1826  -12.9686   21.1064 C   0  0  0  0  0  0  0  0  0  0  0  0
  -27.2916  -33.2874   24.9097 C   0  0  0  0  0  0  0  0  0  0  0  0
  -25.6612  -28.9906   20.1084 C   0  0  0  0  0  0  0  0  0  0  0  0
  -27.0728  -31.9739   24.4522 C   0  0  0  0  0  0  0  0  0  0  0  0
  -24.8607  -27.8647   20.3486 C   0  0  0  0  0  0  0  0  0  0  0  0
  -30.5140  -18.0436   21.4782 C   0  0  0  0  0  0  0  0  0  0  0  0
  -28.9589  -23.6435   18.9606 C   0  0  0  0  0  0  0  0  0  0  0  0
  -29.8525  -20.3721   20.0915 C   0  0  0  0  0  0  0  0  0  0  0  0
  -22.4303   -8.0694   21.1520 C   0  0  0  0  0  0  0  0  0  0  0  0
  -26.7227  -26.4258   19.7383 C   0  0  0  0  0  0  0  0  0  0  0  0
  -21.0728   -6.6872   22.4821 C   0  0  0  0  0  0  0  0  0  0  0  0
  -19.7462   -6.2438   24.8958 C   0  0  0  0  0  0  0  0  0  0  0  0
  -21.3934   -5.5746   23.2599 C   0  0  0  0  0  0  0  0  0  0  0  0
  -24.6043  -11.6756   20.7432 C   0  0  0  0  0  0  0  0  0  0  0  0
  -29.2316  -22.7490   19.9720 C   0  0  0  0  0  0  0  0  0  0  0  0
  -25.2395  -13.7805   20.7742 C   0  0  0  0  0  0  0  0  0  0  0  0
  -29.4386  -21.6488   18.0325 C   0  0  0  0  0  0  0  0  0  0  0  0
  -22.9461  -13.3975   21.6918 C   0  0  0  0  0  0  0  0  0  0  0  0
  -24.3032  -30.3053   22.6639 C   0  0  0  0  0  0  0  0  0  0  0  0
  -21.5613  -29.6666   21.0525 C   0  0  0  0  0  0  0  0  0  0  0  0
  -19.9561  -27.7940   18.6938 C   0  0  0  0  0  0  0  0  0  0  0  0
  -30.7163  -14.8499   20.6905 C   0  0  0  0  0  0  0  0  0  0  0  0
  -26.1768  -34.1214   25.4896 C   0  0  0  0  0  0  0  0  0  0  0  0
  -25.0971  -30.3753   20.2721 C   0  0  0  0  0  0  0  0  0  0  0  0
  -23.4314  -27.9910   20.8064 C   0  0  0  0  0  0  0  0  0  0  0  0
  -24.7838  -33.6077   25.1347 C   0  0  0  0  0  0  0  0  0  0  0  0
  -29.4080  -12.8191   18.0750 C   0  0  0  0  0  0  0  0  0  0  0  0
  -24.7006  -32.0996   25.3481 C   0  0  0  0  0  0  0  0  0  0  0  0
  -28.0101  -12.4424   18.5687 C   0  0  0  0  0  0  0  0  0  0  0  0
  -30.4147  -12.8780   19.2217 C   0  0  0  0  0  0  0  0  0  0  0  0
  -28.6231  -13.3692   20.8412 C   0  0  0  0  0  0  0  0  0  0  0  0
  -25.6902  -31.3587   24.4408 C   0  0  1  0  0  0  0  0  0  0  0  0
  -23.9033  -30.4258   21.2206 C   0  0  1  0  0  0  0  0  0  0  0  0
  -27.5611  -13.3517   19.7285 C   0  0  2  0  0  0  0  0  0  0  0  0
  -29.2375  -22.9541   21.4380 C   0  0  0  0  0  0  0  0  0  0  0  0
  -17.7080  -27.4779   17.6245 C   0  0  0  0  0  0  0  0  0  0  0  0
  -20.5829  -28.2068   23.5469 C   0  0  0  0  0  0  0  0  0  0  0  0
  -18.8133  -27.1323   22.1390 C   0  0  0  0  0  0  0  0  0  0  0  0
  -18.8516  -29.6114   22.4137 C   0  0  0  0  0  0  0  0  0  0  0  0
  -21.0049  -28.4835   16.0135 C   0  0  0  0  0  0  0  0  0  0  0  0
  -30.8677  -16.7988   22.2195 C   0  0  0  0  0  0  0  0  0  0  0  0
  -28.5898  -25.0891   19.1194 C   0  0  0  0  0  0  0  0  0  1  0  0
  -20.6111  -28.4957   20.9814 C   0  0  1  0  0  0  0  0  0  0  0  0
  -19.0506  -28.1871   17.5405 C   0  0  2  0  0  0  0  0  0  0  0  0
  -19.7422  -28.3588   22.2635 C   0  0  0  0  0  0  0  0  0  0  0  0
  -25.8333  -11.6619   20.2201 N   0  0  0  0  0  0  0  0  0  0  0  0
  -29.5216  -21.5397   19.3961 N   0  0  0  0  0  0  0  0  0  0  0  0
  -26.1928  -12.9565   20.2522 N   0  0  0  0  0  0  0  0  0  0  0  0
  -22.9275  -29.3660   20.9580 N   0  0  0  0  0  0  0  0  0  0  0  0
  -29.9298  -13.7580   20.2878 N   0  0  0  0  0  0  0  0  0  0  0  0
  -25.4371  -15.1116   20.8806 N   0  0  0  0  0  0  0  0  0  0  0  0
  -21.9679  -12.4328   21.9689 N   0  0  0  0  0  0  0  0  0  0  0  0
  -25.1793  -31.2858   23.0887 N   0  0  0  0  0  0  0  0  0  0  0  0
  -19.8418  -28.6683   19.7539 N   0  0  0  0  0  0  0  0  0  0  0  0
  -30.1799  -15.6368   21.7024 N   0  0  0  0  0  0  0  0  0  0  0  0
  -19.6870  -27.8362   16.2394 N   0  3  0  0  0  0  0  0  0  0  0  0
  -22.7090  -14.6028   21.9461 O   0  0  0  0  0  0  0  0  0  0  0  0
  -23.8492  -29.3913   23.3424 O   0  0  0  0  0  0  0  0  0  0  0  0
  -21.1077  -30.8066   21.1800 O   0  0  0  0  0  0  0  0  0  0  0  0
  -20.6887  -26.8078   18.6592 O   0  0  0  0  0  0  0  0  0  0  0  0
  -31.8126  -15.1077   20.1821 O   0  0  0  0  0  0  0  0  0  0  0  0
  -29.6745  -20.6150   17.2336 O   0  0  0  0  0  0  0  0  0  0  0  0
  -21.7310   -6.9092   21.2841 O   0  0  0  0  0  0  0  0  0  0  0  0
  -27.2367  -25.1779   19.5638 O   0  0  0  0  0  0  0  0  0  1  0  0
  -19.1102   -6.0318   26.0554 F   0  0  0  0  0  0  0  0  0  0  0  0
  -22.3384   -4.7159   22.8535 F   0  0  0  0  0  0  0  0  0  0  0  0
  1  2  1  0  0  0  0
  1  5  2  0  0  0  0
  2  6  2  0  0  0  0
  3 12  2  0  0  0  0
  3 20  1  0  0  0  0
  4 13  1  0  0  0  0
  4 20  2  0  0  0  0
  5 22  1  0  0  0  0
  6 24  1  0  0  0  0
  7 14  2  0  0  0  0
  7 23  1  0  0  0  0
  8 10  2  0  0  0  0
  8 26  1  0  0  0  0
  9 11  1  0  0  0  0
  9 26  2  0  0  0  0
 10 28  1  0  0  0  0
 11 28  2  0  0  0  0
 12 29  1  0  0  0  0
 13 29  2  0  0  0  0
 14 30  1  0  0  0  0
 15 16  2  0  0  0  0
 15 31  1  0  0  0  0
 16 32  1  0  0  0  0
 17 25  1  0  0  0  0
 17 30  2  0  0  0  0
 18 27  1  0  0  0  0
 18 37  2  0  0  0  0
 19 32  2  0  0  0  0
 19 33  1  0  0  0  0
 20 34  1  0  0  0  0
 21 34  1  0  0  0  0
 21 36  2  0  0  0  0
 21 38  1  0  0  0  0
 22 24  2  0  0  0  0
 22 43  1  0  0  0  0
 23 25  2  0  0  0  0
 23 44  1  0  0  0  0
 24 52  1  0  0  0  0
 25 45  1  0  0  0  0
 26 61  1  0  0  0  0
 27 35  2  0  0  0  0
 27 62  1  0  0  0  0
 28 67  1  0  0  0  0
 29 83  1  0  0  0  0
 30 84  1  0  0  0  0
 31 33  2  0  0  0  0
 31 83  1  0  0  0  0
 32 85  1  0  0  0  0
 33 86  1  0  0  0  0
 34 66  2  0  0  0  0
 35 55  1  0  0  0  0
 35 67  1  0  0  0  0
 36 68  1  0  0  0  0
 36 71  1  0  0  0  0
 37 67  1  0  0  0  0
 37 82  1  0  0  0  0
 38 72  1  0  0  0  0
 38 77  2  0  0  0  0
 39 53  1  0  0  0  0
 39 73  1  0  0  0  0
 39 78  2  0  0  0  0
 40 63  1  0  0  0  0
 40 69  1  0  0  0  0
 40 79  2  0  0  0  0
 41 64  1  0  0  0  0
 41 74  1  0  0  0  0
 41 80  2  0  0  0  0
 42 70  1  0  0  0  0
 42 75  1  0  0  0  0
 42 81  2  0  0  0  0
 43 46  1  0  0  0  0
 44 53  1  0  0  0  0
 45 69  1  0  0  0  0
 46 48  1  0  0  0  0
 47 49  1  0  0  0  0
 47 50  1  0  0  0  0
 48 52  1  0  0  0  0
 49 54  1  0  0  0  0
 50 70  1  0  0  0  0
 51 54  1  0  0  0  0
 51 70  1  0  0  0  0
 52 73  1  0  0  0  0
 53 69  1  0  0  0  0
 54 68  1  0  0  0  0
 56 64  1  0  0  0  0
 57 65  1  0  0  0  0
 58 65  1  0  0  0  0
 59 65  1  0  0  0  0
 60 76  1  0  0  0  0
 61 75  1  0  0  0  0
 62 84  1  0  0  0  0
 63 65  1  0  0  0  0
 63 74  1  0  0  0  0
 64 76  1  0  0  0  0
 66 68  1  0  0  0  0
M  CHG  1  76   1
M  ISO  4  42 100  62 101  75 100  84 101
M  END
> <Batch ID>
0092

> <Smiles>
CNC(C)C(=O)NC(C(=O)N1Cc2cc([101O:1][101CH2:1]C3=C(C)N(c4ccc(C[100NH:0][100C:0](=O)N5CCCC(n6nc(-c7ccc(Oc8ccc(F)cc8F)cc7)c(C(N)=O)c6N)C5)cc4)C(=O)C3)ccc2CC1C(=O)NC1CCCc2ccccc21)C(C)(C)C

> <Shape>
0.423

> <Color>
0.208

> <Negative vol penalty>
0.000

$$$$

  -OEChem-04052300343D

 86 95  0     1  0  0  0  0  0999 V2000
  -28.1845  -36.6484   17.5545 C   0  0  0  0  0  0  0  0  0  0  0  0
  -28.2289  -35.2699   17.3721 C   0  0  0  0  0  0  0  0  0  0  0  0
  -23.9737   -9.7609   22.2868 C   0  0  0  0  0  0  0  0  0  0  0  0
  -24.4800  -11.4260   23.9625 C   0  0  0  0  0  0  0  0  0  0  0  0
  -28.0688  -37.1770   18.8394 C   0  0  0  0  0  0  0  0  0  0  0  0
  -28.1587  -34.4193   18.4748 C   0  0  0  0  0  0  0  0  0  0  0  0
  -25.4760  -28.9192   18.7164 C   0  0  0  0  0  0  0  0  0  0  0  0
  -23.5333   -8.8910   23.2842 C   0  0  0  0  0  0  0  0  0  0  0  0
  -24.0395  -10.5561   24.9600 C   0  0  0  0  0  0  0  0  0  0  0  0
  -25.9818  -27.6237   18.6180 C   0  0  0  0  0  0  0  0  0  0  0  0
  -20.7658   -8.4732   25.1813 C   0  0  0  0  0  0  0  0  0  0  0  0
  -19.5689   -7.7908   24.9641 C   0  0  0  0  0  0  0  0  0  0  0  0
  -26.0733  -27.4831   21.0244 C   0  0  0  0  0  0  0  0  0  0  0  0
  -29.8004  -20.9144   19.2874 C   0  0  0  0  0  0  0  0  0  0  0  0
  -30.6123  -18.6447   19.1248 C   0  0  0  0  0  0  0  0  0  0  0  0
  -20.7382   -5.6839   25.1405 C   0  0  0  0  0  0  0  0  0  0  0  0
  -24.4471  -11.0284   22.6259 C   0  0  0  0  0  0  0  0  0  0  0  0
  -24.1332  -12.8716   20.8905 C   0  0  0  0  0  0  0  0  0  0  0  0
  -27.9874  -36.3322   19.9576 C   0  0  0  0  0  0  0  0  0  0  0  0
  -25.2750  -29.5114   19.9715 C   0  0  0  0  0  0  0  0  0  0  0  0
  -28.0431  -34.9371   19.7760 C   0  0  0  0  0  0  0  0  0  0  0  0
  -25.5624  -28.7853   21.1361 C   0  0  0  0  0  0  0  0  0  0  0  0
  -28.4878  -20.4432   19.3099 C   0  0  0  0  0  0  0  0  0  0  0  0
  -30.8627  -20.0151   19.1948 C   0  0  0  0  0  0  0  0  0  0  0  0
  -29.2996  -18.1735   19.1474 C   0  0  0  0  0  0  0  0  0  0  0  0
  -23.5662   -9.2886   24.6208 C   0  0  0  0  0  0  0  0  0  0  0  0
  -26.2833  -26.9065   19.7720 C   0  0  0  0  0  0  0  0  0  0  0  0
  -21.9489   -7.7611   25.3780 C   0  0  0  0  0  0  0  0  0  0  0  0
  -19.5550   -6.3961   24.9437 C   0  0  0  0  0  0  0  0  0  0  0  0
  -21.9351   -6.3664   25.3577 C   0  0  0  0  0  0  0  0  0  0  0  0
  -28.2374  -19.0728   19.2399 C   0  0  0  0  0  0  0  0  0  0  0  0
  -24.9027  -11.9273   21.5961 C   0  0  0  0  0  0  0  0  0  0  0  0
  -25.0238  -13.4670   20.0310 C   0  0  0  0  0  0  0  0  0  0  0  0
  -26.2612  -23.3270   19.5652 C   0  0  0  0  0  0  0  0  0  0  0  0
  -25.3058  -22.1962   19.5380 C   0  0  0  0  0  0  0  0  0  0  0  0
  -25.8892  -24.6040   19.6543 C   0  0  0  0  0  0  0  0  0  1  0  0
  -22.7380  -13.1828   21.0021 C   0  0  0  0  0  0  0  0  0  0  0  0
  -26.4476  -32.0622   21.4620 C   0  0  0  0  0  0  0  0  0  0  0  0
  -24.2286  -31.2915   23.6989 C   0  0  0  0  0  0  0  0  0  0  0  0
  -22.2569  -28.8948   25.1185 C   0  0  0  0  0  0  0  0  0  0  0  0
  -29.9891  -15.7564   18.9783 C   0  0  0  0  0  0  0  0  0  0  0  0
  -27.9106  -36.9510   21.3308 C   0  0  0  0  0  0  0  0  0  0  0  0
  -24.7035  -30.8998   20.0610 C   0  0  0  0  0  0  0  0  0  0  0  0
  -25.3455  -29.3682   22.5078 C   0  0  0  0  0  0  0  0  0  0  0  0
  -27.6449  -22.7728   19.4773 C   0  0  0  0  0  0  0  0  0  0  0  0
  -26.0555  -20.8996   19.4333 C   0  0  0  0  0  0  0  0  0  0  0  0
  -27.4647  -35.9736   22.4153 C   0  0  0  0  0  0  0  0  0  0  0  0
  -29.7728  -12.2062   18.8148 C   0  0  0  0  0  0  0  0  0  0  0  0
  -28.2251  -34.6569   22.2927 C   0  0  0  0  0  0  0  0  0  0  0  0
  -28.4232  -11.8949   19.4658 C   0  0  0  0  0  0  0  0  0  0  0  0
  -30.4765  -13.3762   19.5001 C   0  0  0  0  0  0  0  0  0  0  0  0
  -28.3225  -14.2872   20.2743 C   0  0  0  0  0  0  0  0  0  0  0  0
  -27.9447  -33.9812   20.9450 C   0  0  1  0  0  0  0  0  0  0  0  0
  -25.0224  -31.5932   21.3820 C   0  0  1  0  0  0  0  0  0  0  0  0
  -27.5466  -13.1577   19.5772 C   0  0  2  0  0  0  0  0  0  0  0  0
  -20.5781  -28.5574   26.9529 C   0  0  0  0  0  0  0  0  0  0  0  0
  -26.4784  -31.3204   25.7599 C   0  0  0  0  0  0  0  0  0  0  0  0
  -24.9677  -30.0790   27.3236 C   0  0  0  0  0  0  0  0  0  0  0  0
  -24.3404  -32.3609   26.5348 C   0  0  0  0  0  0  0  0  0  0  0  0
  -20.1490  -28.0962   23.2007 C   0  0  0  0  0  0  0  0  0  0  0  0
  -24.2088  -30.4140   24.9272 C   0  0  1  0  0  0  0  0  0  0  0  0
  -20.7833  -28.8886   25.4829 C   0  0  2  0  0  0  0  0  0  0  0  0
  -25.0049  -31.0330   26.1107 C   0  0  0  0  0  0  0  0  0  0  0  0
  -26.1836  -11.9196   21.2175 N   0  0  0  0  0  0  0  0  0  0  0  0
  -26.2258  -12.8663   20.2647 N   0  0  0  0  0  0  0  0  0  0  0  0
  -27.4554  -21.3212   19.4002 N   0  0  3  0  0  0  0  0  0  0  0  0
  -24.7907  -30.7315   22.5430 N   0  0  0  0  0  0  0  0  0  0  0  0
  -29.5873  -14.5381   19.5658 N   0  0  0  0  0  0  0  0  0  0  0  0
  -32.1901  -20.4916   19.1709 N   0  0  0  0  0  0  0  0  0  0  0  0
  -24.8882  -14.4405   19.1056 N   0  0  0  0  0  0  0  0  0  0  0  0
  -21.9684  -12.4759   21.9360 N   0  0  0  0  0  0  0  0  0  0  0  0
  -29.0480  -16.7810   19.0748 N   0  0  0  0  0  0  0  0  0  0  0  0
  -26.6498  -33.3350   20.9634 N   0  0  0  0  0  0  0  0  0  0  0  0
  -22.8034  -30.1565   25.2222 N   0  0  0  0  0  0  0  0  0  0  0  0
  -20.0521  -27.8783   24.6670 N   0  3  0  0  0  0  0  0  0  0  0  0
  -24.0908  -22.3003   19.5931 O   0  0  0  0  0  0  0  0  0  0  0  0
  -22.1867  -14.0503   20.2831 O   0  0  0  0  0  0  0  0  0  0  0  0
  -27.3004  -31.3246   21.9419 O   0  0  0  0  0  0  0  0  0  0  0  0
  -23.7561  -32.4292   23.7609 O   0  0  0  0  0  0  0  0  0  0  0  0
  -22.8635  -27.8810   24.7796 O   0  0  0  0  0  0  0  0  0  0  0  0
  -31.0757  -15.8738   18.4062 O   0  0  0  0  0  0  0  0  0  0  0  0
  -23.1363   -8.4401   25.5943 O   0  0  0  0  0  0  0  0  0  0  0  0
  -26.7777  -25.6421   19.6788 O   0  0  0  0  0  0  0  0  0  1  0  0
  -18.4053   -5.7408   24.7367 F   0  0  0  0  0  0  0  0  0  0  0  0
  -23.0684   -5.6768   25.5472 F   0  0  0  0  0  0  0  0  0  0  0  0
  -26.9743  -18.6203   19.2615 F   0  0  0  0  0  0  0  0  0  0  0  0
  1  2  1  0  0  0  0
  1  5  2  0  0  0  0
  2  6  2  0  0  0  0
  3  8  2  0  0  0  0
  3 17  1  0  0  0  0
  4  9  1  0  0  0  0
  4 17  2  0  0  0  0
  5 19  1  0  0  0  0
  6 21  1  0  0  0  0
  7 10  2  0  0  0  0
  7 20  1  0  0  0  0
  8 26  1  0  0  0  0
  9 26  2  0  0  0  0
 10 27  1  0  0  0  0
 11 12  2  0  0  0  0
 11 28  1  0  0  0  0
 12 29  1  0  0  0  0
 13 22  1  0  0  0  0
 13 27  2  0  0  0  0
 14 23  1  0  0  0  0
 14 24  2  0  0  0  0
 15 24  1  0  0  0  0
 15 25  2  0  0  0  0
 16 29  2  0  0  0  0
 16 30  1  0  0  0  0
 17 32  1  0  0  0  0
 18 32  1  0  0  0  0
 18 33  2  0  0  0  0
 18 37  1  0  0  0  0
 19 21  2  0  0  0  0
 19 42  1  0  0  0  0
 20 22  2  0  0  0  0
 20 43  1  0  0  0  0
 21 53  1  0  0  0  0
 22 44  1  0  0  0  0
 23 31  2  0  0  0  0
 23 66  1  0  0  0  0
 24 69  1  0  0  0  0
 25 31  1  0  0  0  0
 25 72  1  0  0  0  0
 26 82  1  0  0  0  0
 27 83  1  0  0  0  0
 28 30  2  0  0  0  0
 28 82  1  0  0  0  0
 29 84  1  0  0  0  0
 30 85  1  0  0  0  0
 31 86  1  0  0  0  0
 32 64  2  0  0  0  0
 33 65  1  0  0  0  0
 33 70  1  0  0  0  0
 34 35  1  0  0  0  0
 34 36  2  0  0  0  0
 34 45  1  0  0  0  0
 35 46  1  0  0  0  0
 35 76  2  0  0  0  0
 36 83  1  0  0  0  0
 37 71  1  0  0  0  0
 37 77  2  0  0  0  0
 38 54  1  0  0  0  0
 38 73  1  0  0  0  0
 38 78  2  0  0  0  0
 39 61  1  0  0  0  0
 39 67  1  0  0  0  0
 39 79  2  0  0  0  0
 40 62  1  0  0  0  0
 40 74  1  0  0  0  0
 40 80  2  0  0  0  0
 41 68  1  0  0  0  0
 41 72  1  0  0  0  0
 41 81  2  0  0  0  0
 42 47  1  0  0  0  0
 43 54  1  0  0  0  0
 44 67  1  0  0  0  0
 45 66  1  0  0  0  0
 46 66  1  0  0  0  0
 47 49  1  0  0  0  0
 48 50  1  0  0  0  0
 48 51  1  0  0  0  0
 49 53  1  0  0  0  0
 50 55  1  0  0  0  0
 51 68  1  0  0  0  0
 52 55  1  0  0  0  0
 52 68  1  0  0  0  0
 53 73  1  0  0  0  0
 54 67  1  0  0  0  0
 55 65  1  0  0  0  0
 56 62  1  0  0  0  0
 57 63  1  0  0  0  0
 58 63  1  0  0  0  0
 59 63  1  0  0  0  0
 60 75  1  0  0  0  0
 61 63  1  0  0  0  0
 61 74  1  0  0  0  0
 62 75  1  0  0  0  0
 64 65  1  0  0  0  0
M  CHG  1  75   1
M  ISO  4  36 101  41 100  72 100  83 101
M  END
> <Batch ID>
0092

> <Smiles>
CNC(C)C(=O)NC(C(=O)N1Cc2cc([101O:1][101CH:1]=C3CN(c4cc(N)cc([100NH:0][100C:0](=O)N5CCCC(n6nc(-c7ccc(Oc8ccc(F)cc8F)cc7)c(C(N)=O)c6N)C5)c4F)CC3=O)ccc2CC1C(=O)NC1CCCc2ccccc21)C(C)(C)C

> <Shape>
0.264

> <Color>
0.131

> <Negative vol penalty>
0.000

$$$$

  -OEChem-04052300343D

 85 94  0     1  0  0  0  0  0999 V2000
  -30.2093  -36.1081   23.6528 C   0  0  0  0  0  0  0  0  0  0  0  0
  -30.2701  -35.1716   22.6258 C   0  0  0  0  0  0  0  0  0  0  0  0
  -24.7940   -8.6816   21.6011 C   0  0  0  0  0  0  0  0  0  0  0  0
  -23.2226  -10.0593   20.3889 C   0  0  0  0  0  0  0  0  0  0  0  0
  -29.5470  -35.7973   24.8397 C   0  0  0  0  0  0  0  0  0  0  0  0
  -29.6696  -33.9233   22.7856 C   0  0  0  0  0  0  0  0  0  0  0  0
  -26.3088  -28.8244   19.0408 C   0  0  0  0  0  0  0  0  0  0  0  0
  -25.1007  -19.8453   18.0176 C   0  0  0  0  0  0  0  0  0  0  0  0
  -24.5728  -18.6689   17.4857 C   0  0  0  0  0  0  0  0  0  0  0  0
  -23.7619   -8.2259   22.4212 C   0  0  0  0  0  0  0  0  0  0  0  0
  -22.1904   -9.6036   21.2090 C   0  0  0  0  0  0  0  0  0  0  0  0
  -26.3611  -27.4518   18.8025 C   0  0  0  0  0  0  0  0  0  0  0  0
  -21.2430   -5.9777   22.2386 C   0  0  0  0  0  0  0  0  0  0  0  0
  -21.1804   -4.6094   22.5021 C   0  0  0  0  0  0  0  0  0  0  0  0
  -25.1764  -27.0546   20.8660 C   0  0  0  0  0  0  0  0  0  0  0  0
  -26.9964  -18.6109   18.8660 C   0  0  0  0  0  0  0  0  0  0  0  0
  -21.4148   -5.0539   24.8653 C   0  0  0  0  0  0  0  0  0  0  0  0
  -24.5244   -9.5983   20.5849 C   0  0  0  0  0  0  0  0  0  0  0  0
  -26.0272   -9.5023   18.5258 C   0  0  0  0  0  0  0  0  0  0  0  0
  -28.9297  -34.5481   25.0104 C   0  0  0  0  0  0  0  0  0  0  0  0
  -25.6985  -29.3228   20.2008 C   0  0  0  0  0  0  0  0  0  0  0  0
  -28.9996  -33.5950   23.9764 C   0  0  0  0  0  0  0  0  0  0  0  0
  -25.1154  -28.4342   21.1154 C   0  0  0  0  0  0  0  0  0  0  0  0
  -26.3126  -19.8163   18.7077 C   0  0  0  0  0  0  0  0  0  0  0  0
  -25.2566  -17.4635   17.6439 C   0  0  0  0  0  0  0  0  0  0  0  0
  -26.4685  -17.4345   18.3341 C   0  0  0  0  0  0  0  0  0  0  0  0
  -22.4601   -8.6869   22.2252 C   0  0  0  0  0  0  0  0  0  0  0  0
  -25.7974  -26.5665   19.7166 C   0  0  0  0  0  0  0  0  0  0  0  0
  -21.3915   -6.8841   23.2884 C   0  0  0  0  0  0  0  0  0  0  0  0
  -21.2663   -4.1475   23.8155 C   0  0  0  0  0  0  0  0  0  0  0  0
  -21.4774   -6.4222   24.6017 C   0  0  0  0  0  0  0  0  0  0  0  0
  -25.5902  -10.0698   19.7377 C   0  0  0  0  0  0  0  0  0  0  0  0
  -27.0551  -10.3161   18.1165 C   0  0  0  0  0  0  0  0  0  0  0  0
  -27.0744  -23.2171   19.8003 C   0  0  0  0  0  0  0  0  0  0  0  0
  -28.2348  -22.4558   20.3165 C   0  0  0  0  0  0  0  0  0  0  0  0
  -26.9220  -24.5309   19.9666 C   0  0  0  0  0  0  0  0  0  1  0  0
  -25.5468   -8.3431   17.8320 C   0  0  0  0  0  0  0  0  0  0  0  0
  -26.6867  -31.0073   22.7087 C   0  0  0  0  0  0  0  0  0  0  0  0
  -23.5311  -31.0074   23.4599 C   0  0  0  0  0  0  0  0  0  0  0  0
  -20.4794  -29.5112   23.1513 C   0  0  0  0  0  0  0  0  0  0  0  0
  -28.3950  -16.0432   19.1702 C   0  0  0  0  0  0  0  0  0  0  0  0
  -28.2661  -34.2405   26.3294 C   0  0  0  0  0  0  0  0  0  0  0  0
  -25.6269  -30.8077   20.4299 C   0  0  0  0  0  0  0  0  0  0  0  0
  -24.4306  -28.9194   22.3660 C   0  0  0  0  0  0  0  0  0  0  0  0
  -26.1649  -22.2642   19.0972 C   0  0  0  0  0  0  0  0  0  0  0  0
  -28.0929  -21.0055   19.9550 C   0  0  0  0  0  0  0  0  0  0  0  0
  -27.3338  -33.0330   26.2752 C   0  0  0  0  0  0  0  0  0  0  0  0
  -30.4513  -13.2161   19.8456 C   0  0  0  0  0  0  0  0  0  0  0  0
  -28.0076  -31.8702   25.5534 C   0  0  0  0  0  0  0  0  0  0  0  0
  -29.4790  -12.0362   19.7783 C   0  0  0  0  0  0  0  0  0  0  0  0
  -29.8005  -14.4529   20.4626 C   0  0  0  0  0  0  0  0  0  0  0  0
  -27.5637  -13.6849   19.7727 C   0  0  0  0  0  0  0  0  0  0  0  0
  -28.3391  -32.2393   24.1024 C   0  0  1  0  0  0  0  0  0  0  0  0
  -25.4335  -31.1771   21.8974 C   0  0  1  0  0  0  0  0  0  0  0  0
  -28.1544  -12.4356   19.0990 C   0  0  2  0  0  0  0  0  0  0  0  0
  -18.0970  -29.7202   23.9116 C   0  0  0  0  0  0  0  0  0  0  0  0
  -24.3108  -29.9079   26.1973 C   0  0  0  0  0  0  0  0  0  0  0  0
  -21.9182  -29.2548   26.5392 C   0  0  0  0  0  0  0  0  0  0  0  0
  -22.5238  -31.6568   26.2460 C   0  0  0  0  0  0  0  0  0  0  0  0
  -19.5013  -29.8409   20.3776 C   0  0  0  0  0  0  0  0  0  0  0  0
  -22.6213  -30.1020   24.2547 C   0  0  1  0  0  0  0  0  0  0  0  0
  -19.1075  -30.0775   22.8327 C   0  0  2  0  0  0  0  0  0  0  0  0
  -22.8581  -30.2208   25.7868 C   0  0  0  0  0  0  0  0  0  0  0  0
  -26.2839  -11.1599   20.0763 N   0  0  0  0  0  0  0  0  0  0  0  0
  -27.1672  -11.2837   19.0711 N   0  0  0  0  0  0  0  0  0  0  0  0
  -26.8266  -20.9622   19.2248 N   0  0  3  0  0  0  0  0  0  0  0  0
  -24.3920  -30.3798   22.5485 N   0  0  0  0  0  0  0  0  0  0  0  0
  -28.5532  -14.7738   19.7655 N   0  0  0  0  0  0  0  0  0  0  0  0
  -24.7027  -16.2836   17.0982 N   0  0  0  0  0  0  0  0  0  0  0  0
  -27.8651  -10.2912   17.0368 N   0  0  0  0  0  0  0  0  0  0  0  0
  -24.4836   -7.6220   18.3923 N   0  0  0  0  0  0  0  0  0  0  0  0
  -27.1810  -16.2221   18.5077 N   0  0  0  0  0  0  0  0  0  0  0  0
  -27.1495  -32.1769   23.2807 N   0  0  0  0  0  0  0  0  0  0  0  0
  -21.2608  -30.4192   23.8340 N   0  0  0  0  0  0  0  0  0  0  0  0
  -18.6153  -29.5420   21.5320 N   0  3  0  0  0  0  0  0  0  0  0  0
  -29.1680  -22.9339   20.9415 O   0  0  0  0  0  0  0  0  0  0  0  0
  -26.0564   -7.9488   16.7558 O   0  0  0  0  0  0  0  0  0  0  0  0
  -27.1953  -29.8969   22.8096 O   0  0  0  0  0  0  0  0  0  0  0  0
  -23.4748  -32.2270   23.6361 O   0  0  0  0  0  0  0  0  0  0  0  0
  -20.8221  -28.3754   22.8302 O   0  0  0  0  0  0  0  0  0  0  0  0
  -29.2830  -16.8982   19.2194 O   0  0  0  0  0  0  0  0  0  0  0  0
  -21.4527   -8.2423   23.0252 O   0  0  0  0  0  0  0  0  0  0  0  0
  -25.8476  -25.2261   19.4869 O   0  0  0  0  0  0  0  0  0  1  0  0
  -21.2047   -2.8336   24.0685 F   0  0  0  0  0  0  0  0  0  0  0  0
  -21.6189   -7.2882   25.6145 F   0  0  0  0  0  0  0  0  0  0  0  0
  1  2  1  0  0  0  0
  1  5  2  0  0  0  0
  2  6  2  0  0  0  0
  3 10  2  0  0  0  0
  3 18  1  0  0  0  0
  4 11  1  0  0  0  0
  4 18  2  0  0  0  0
  5 20  1  0  0  0  0
  6 22  1  0  0  0  0
  7 12  2  0  0  0  0
  7 21  1  0  0  0  0
  8  9  2  0  0  0  0
  8 24  1  0  0  0  0
  9 25  1  0  0  0  0
 10 27  1  0  0  0  0
 11 27  2  0  0  0  0
 12 28  1  0  0  0  0
 13 14  2  0  0  0  0
 13 29  1  0  0  0  0
 14 30  1  0  0  0  0
 15 23  1  0  0  0  0
 15 28  2  0  0  0  0
 16 24  2  0  0  0  0
 16 26  1  0  0  0  0
 17 30  2  0  0  0  0
 17 31  1  0  0  0  0
 18 32  1  0  0  0  0
 19 32  1  0  0  0  0
 19 33  2  0  0  0  0
 19 37  1  0  0  0  0
 20 22  2  0  0  0  0
 20 42  1  0  0  0  0
 21 23  2  0  0  0  0
 21 43  1  0  0  0  0
 22 53  1  0  0  0  0
 23 44  1  0  0  0  0
 24 66  1  0  0  0  0
 25 26  2  0  0  0  0
 25 69  1  0  0  0  0
 26 72  1  0  0  0  0
 27 82  1  0  0  0  0
 28 83  1  0  0  0  0
 29 31  2  0  0  0  0
 29 82  1  0  0  0  0
 30 84  1  0  0  0  0
 31 85  1  0  0  0  0
 32 64  2  0  0  0  0
 33 65  1  0  0  0  0
 33 70  1  0  0  0  0
 34 35  1  0  0  0  0
 34 36  2  0  0  0  0
 34 45  1  0  0  0  0
 35 46  1  0  0  0  0
 35 76  2  0  0  0  0
 36 83  1  0  0  0  0
 37 71  1  0  0  0  0
 37 77  2  0  0  0  0
 38 54  1  0  0  0  0
 38 73  1  0  0  0  0
 38 78  2  0  0  0  0
 39 61  1  0  0  0  0
 39 67  1  0  0  0  0
 39 79  2  0  0  0  0
 40 62  1  0  0  0  0
 40 74  1  0  0  0  0
 40 80  2  0  0  0  0
 41 68  1  0  0  0  0
 41 72  1  0  0  0  0
 41 81  2  0  0  0  0
 42 47  1  0  0  0  0
 43 54  1  0  0  0  0
 44 67  1  0  0  0  0
 45 66  1  0  0  0  0
 46 66  1  0  0  0  0
 47 49  1  0  0  0  0
 48 50  1  0  0  0  0
 48 51  1  0  0  0  0
 49 53  1  0  0  0  0
 50 55  1  0  0  0  0
 51 68  1  0  0  0  0
 52 55  1  0  0  0  0
 52 68  1  0  0  0  0
 53 73  1  0  0  0  0
 54 67  1  0  0  0  0
 55 65  1  0  0  0  0
 56 62  1  0  0  0  0
 57 63  1  0  0  0  0
 58 63  1  0  0  0  0
 59 63  1  0  0  0  0
 60 75  1  0  0  0  0
 61 63  1  0  0  0  0
 61 74  1  0  0  0  0
 62 75  1  0  0  0  0
 64 65  1  0  0  0  0
M  CHG  1  75   1
M  ISO  4  36 101  41 100  72 100  83 101
M  END
> <Batch ID>
0092

> <Smiles>
CNC(C)C(=O)NC(C(=O)N1Cc2cc([101O:1][101CH:1]=C3CN(c4ccc(N)c([100NH:0][100C:0](=O)N5CCCC(n6nc(-c7ccc(Oc8ccc(F)cc8F)cc7)c(C(N)=O)c6N)C5)c4)CC3=O)ccc2CC1C(=O)NC1CCCc2ccccc21)C(C)(C)C

> <Shape>
0.284

> <Color>
0.103

> <Negative vol penalty>
0.000

$$$$

  -OEChem-04052300343D

 86 95  0     1  0  0  0  0  0999 V2000
  -26.3210  -36.1640   15.7231 C   0  0  0  0  0  0  0  0  0  0  0  0
  -26.7019  -34.8329   15.8587 C   0  0  0  0  0  0  0  0  0  0  0  0
  -23.4346   -9.5900   20.3619 C   0  0  0  0  0  0  0  0  0  0  0  0
  -24.2178   -9.9980   22.6107 C   0  0  0  0  0  0  0  0  0  0  0  0
  -26.1263  -36.9512   16.8573 C   0  0  0  0  0  0  0  0  0  0  0  0
  -26.8895  -34.2885   17.1287 C   0  0  0  0  0  0  0  0  0  0  0  0
  -25.6805  -28.5487   18.8889 C   0  0  0  0  0  0  0  0  0  0  0  0
  -30.3780  -19.8032   19.5594 C   0  0  0  0  0  0  0  0  0  0  0  0
  -30.3824  -18.4220   19.7542 C   0  0  0  0  0  0  0  0  0  0  0  0
  -22.8586   -8.3904   20.7801 C   0  0  0  0  0  0  0  0  0  0  0  0
  -23.6417   -8.7984   23.0289 C   0  0  0  0  0  0  0  0  0  0  0  0
  -26.4903  -27.4241   19.0415 C   0  0  0  0  0  0  0  0  0  0  0  0
  -20.5613   -7.6621   23.8290 C   0  0  0  0  0  0  0  0  0  0  0  0
  -19.8330   -7.6748   25.0186 C   0  0  0  0  0  0  0  0  0  0  0  0
  -26.7070  -27.9069   21.3950 C   0  0  0  0  0  0  0  0  0  0  0  0
  -21.3373   -6.0335   25.9570 C   0  0  0  0  0  0  0  0  0  0  0  0
  -28.4980  -22.7515   19.7785 C   0  0  0  0  0  0  0  0  0  0  0  0
  -30.6889  -22.7968   20.2391 C   0  0  0  0  0  0  0  0  0  0  0  0
  -24.1142  -10.3938   21.2772 C   0  0  0  0  0  0  0  0  0  0  0  0
  -24.1064  -12.9044   20.8253 C   0  0  0  0  0  0  0  0  0  0  0  0
  -26.3022  -36.4135   18.1420 C   0  0  0  0  0  0  0  0  0  0  0  0
  -25.3863  -29.3683   19.9880 C   0  0  0  0  0  0  0  0  0  0  0  0
  -26.6983  -35.0696   18.2811 C   0  0  0  0  0  0  0  0  0  0  0  0
  -25.8911  -29.0399   21.2542 C   0  0  0  0  0  0  0  0  0  0  0  0
  -28.9174  -24.0576   19.6544 C   0  0  0  0  0  0  0  0  0  0  0  0
  -29.5671  -20.6166   20.3509 C   0  0  0  0  0  0  0  0  0  0  0  0
  -29.5758  -17.8542   20.7404 C   0  0  0  0  0  0  0  0  0  0  0  0
  -28.7604  -20.0488   21.3371 C   0  0  0  0  0  0  0  0  0  0  0  0
  -28.7648  -18.6676   21.5319 C   0  0  0  0  0  0  0  0  0  0  0  0
  -22.9622   -7.9947   22.1136 C   0  0  0  0  0  0  0  0  0  0  0  0
  -27.0061  -27.1047   20.2941 C   0  0  0  0  0  0  0  0  0  0  0  0
  -21.6776   -6.8351   23.7034 C   0  0  0  0  0  0  0  0  0  0  0  0
  -30.3035  -24.0863   19.9459 C   0  0  0  0  0  0  0  0  0  0  0  0
  -20.2210   -6.8605   26.0826 C   0  0  0  0  0  0  0  0  0  0  0  0
  -22.0655   -6.0209   24.7674 C   0  0  0  0  0  0  0  0  0  0  0  0
  -24.7099  -11.6327   20.8457 C   0  0  0  0  0  0  0  0  0  0  0  0
  -25.0810  -13.7391   20.3354 C   0  0  0  0  0  0  0  0  0  0  0  0
  -22.7833  -13.2961   21.2145 C   0  0  0  0  0  0  0  0  0  0  0  0
  -25.9398  -32.4091   20.7304 C   0  0  0  0  0  0  0  0  0  0  0  0
  -24.0725  -31.7179   23.2912 C   0  0  0  0  0  0  0  0  0  0  0  0
  -22.8200  -29.3535   25.4097 C   0  0  0  0  0  0  0  0  0  0  0  0
  -30.3551  -15.5194   20.2041 C   0  0  0  0  0  0  0  0  0  0  0  0
  -26.1262  -37.3164   19.3372 C   0  0  0  0  0  0  0  0  0  0  0  0
  -24.4893  -30.5628   19.8120 C   0  0  0  0  0  0  0  0  0  0  0  0
  -25.5884  -29.8759   22.4699 C   0  0  0  0  0  0  0  0  0  0  0  0
  -25.9814  -36.5605   20.6555 C   0  0  0  0  0  0  0  0  0  0  0  0
  -29.5484  -12.6898   18.1992 C   0  0  0  0  0  0  0  0  0  0  0  0
  -27.0419  -35.4695   20.7646 C   0  0  0  0  0  0  0  0  0  0  0  0
  -28.1680  -12.2671   18.7073 C   0  0  0  0  0  0  0  0  0  0  0  0
  -30.4400  -13.1938   19.3326 C   0  0  0  0  0  0  0  0  0  0  0  0
  -28.4711  -13.8312   20.6692 C   0  0  0  0  0  0  0  0  0  0  0  0
  -26.8876  -34.4360   19.6423 C   0  0  1  0  0  0  0  0  0  0  0  0
  -24.6754  -31.6154   20.9005 C   0  0  1  0  0  0  0  0  0  0  0  0
  -27.5150  -13.3772   19.5541 C   0  0  2  0  0  0  0  0  0  0  0  0
  -21.3513  -29.0968   27.4282 C   0  0  0  0  0  0  0  0  0  0  0  0
  -26.3214  -32.7789   25.0595 C   0  0  0  0  0  0  0  0  0  0  0  0
  -25.2312  -31.6444   27.0070 C   0  0  0  0  0  0  0  0  0  0  0  0
  -24.0226  -33.4495   25.7807 C   0  0  0  0  0  0  0  0  0  0  0  0
  -20.9066  -27.6370   23.9429 C   0  0  0  0  0  0  0  0  0  0  0  0
  -28.0583  -25.2290   19.2788 C   0  0  0  0  0  0  0  0  0  1  0  0
  -24.3205  -31.1910   24.6841 C   0  0  1  0  0  0  0  0  0  0  0  0
  -21.4100  -29.0935   25.9086 C   0  0  2  0  0  0  0  0  0  0  0  0
  -24.9814  -32.2511   25.6097 C   0  0  0  0  0  0  0  0  0  0  0  0
  -25.9702  -11.6529   20.4037 N   0  0  0  0  0  0  0  0  0  0  0  0
  -29.5833  -21.9939   20.1340 N   0  0  0  0  0  0  0  0  0  0  0  0
  -26.1665  -12.9475   20.1009 N   0  0  0  0  0  0  0  0  0  0  0  0
  -24.7118  -31.0372   22.2454 N   0  0  0  0  0  0  0  0  0  0  0  0
  -29.7576  -14.2464   20.0884 N   0  0  0  0  0  0  0  0  0  0  0  0
  -27.9367  -20.8734   22.1423 N   0  0  0  0  0  0  0  0  0  0  0  0
  -27.9467  -18.0893   22.5326 N   0  0  0  0  0  0  0  0  0  0  0  0
  -25.1066  -15.0657   20.0865 N   0  0  0  0  0  0  0  0  0  0  0  0
  -21.9097  -12.3119   21.6965 N   0  0  0  0  0  0  0  0  0  0  0  0
  -29.5988  -16.4486   20.9177 N   0  0  0  0  0  0  0  0  0  0  0  0
  -25.7975  -33.5304   19.9355 N   0  0  0  0  0  0  0  0  0  0  0  0
  -23.0368  -30.6934   25.1668 N   0  0  0  0  0  0  0  0  0  0  0  0
  -20.9241  -27.7713   25.4223 N   0  3  0  0  0  0  0  0  0  0  0  0
  -22.3820  -14.4810   21.1217 O   0  0  0  0  0  0  0  0  0  0  0  0
  -26.9680  -32.0329   21.2808 O   0  0  0  0  0  0  0  0  0  0  0  0
  -23.3330  -32.6929   23.1363 O   0  0  0  0  0  0  0  0  0  0  0  0
  -23.6475  -28.4581   25.2548 O   0  0  0  0  0  0  0  0  0  0  0  0
  -31.4441  -15.7749   19.6837 O   0  0  0  0  0  0  0  0  0  0  0  0
  -31.1277  -25.1437   19.9472 O   0  0  0  0  0  0  0  0  0  0  0  0
  -22.4000   -6.8243   22.5221 O   0  0  0  0  0  0  0  0  0  0  0  0
  -27.7973  -26.0079   20.4457 O   0  0  0  0  0  0  0  0  0  1  0  0
  -19.5224   -6.8739   27.2254 F   0  0  0  0  0  0  0  0  0  0  0  0
  -23.1377   -5.2252   24.6531 F   0  0  0  0  0  0  0  0  0  0  0  0
  1  2  1  0  0  0  0
  1  5  2  0  0  0  0
  2  6  2  0  0  0  0
  3 10  2  0  0  0  0
  3 19  1  0  0  0  0
  4 11  1  0  0  0  0
  4 19  2  0  0  0  0
  5 21  1  0  0  0  0
  6 23  1  0  0  0  0
  7 12  2  0  0  0  0
  7 22  1  0  0  0  0
  8  9  2  0  0  0  0
  8 26  1  0  0  0  0
  9 27  1  0  0  0  0
 10 30  1  0  0  0  0
 11 30  2  0  0  0  0
 12 31  1  0  0  0  0
 13 14  2  0  0  0  0
 13 32  1  0  0  0  0
 14 34  1  0  0  0  0
 15 24  1  0  0  0  0
 15 31  2  0  0  0  0
 16 34  2  0  0  0  0
 16 35  1  0  0  0  0
 17 25  2  0  0  0  0
 17 65  1  0  0  0  0
 18 33  2  0  0  0  0
 18 65  1  0  0  0  0
 19 36  1  0  0  0  0
 20 36  1  0  0  0  0
 20 37  2  0  0  0  0
 20 38  1  0  0  0  0
 21 23  2  0  0  0  0
 21 43  1  0  0  0  0
 22 24  2  0  0  0  0
 22 44  1  0  0  0  0
 23 52  1  0  0  0  0
 24 45  1  0  0  0  0
 25 33  1  0  0  0  0
 25 60  1  0  0  0  0
 26 28  2  0  0  0  0
 26 65  1  0  0  0  0
 27 29  2  0  0  0  0
 27 73  1  0  0  0  0
 28 29  1  0  0  0  0
 28 69  1  0  0  0  0
 29 70  1  0  0  0  0
 30 83  1  0  0  0  0
 31 84  1  0  0  0  0
 32 35  2  0  0  0  0
 32 83  1  0  0  0  0
 33 82  1  0  0  0  0
 34 85  1  0  0  0  0
 35 86  1  0  0  0  0
 36 64  2  0  0  0  0
 37 66  1  0  0  0  0
 37 71  1  0  0  0  0
 38 72  1  0  0  0  0
 38 77  2  0  0  0  0
 39 53  1  0  0  0  0
 39 74  1  0  0  0  0
 39 78  2  0  0  0  0
 40 61  1  0  0  0  0
 40 67  1  0  0  0  0
 40 79  2  0  0  0  0
 41 62  1  0  0  0  0
 41 75  1  0  0  0  0
 41 80  2  0  0  0  0
 42 68  1  0  0  0  0
 42 73  1  0  0  0  0
 42 81  2  0  0  0  0
 43 46  1  0  0  0  0
 44 53  1  0  0  0  0
 45 67  1  0  0  0  0
 46 48  1  0  0  0  0
 47 49  1  0  0  0  0
 47 50  1  0  0  0  0
 48 52  1  0  0  0  0
 49 54  1  0  0  0  0
 50 68  1  0  0  0  0
 51 54  1  0  0  0  0
 51 68  1  0  0  0  0
 52 74  1  0  0  0  0
 53 67  1  0  0  0  0
 54 66  1  0  0  0  0
 55 62  1  0  0  0  0
 56 63  1  0  0  0  0
 57 63  1  0  0  0  0
 58 63  1  0  0  0  0
 59 76  1  0  0  0  0
 60 84  1  0  0  0  0
 61 63  1  0  0  0  0
 61 75  1  0  0  0  0
 62 76  1  0  0  0  0
 64 66  1  0  0  0  0
M  CHG  1  76   1
M  ISO  4  42 100  60 101  73 100  84 101
M  END
> <Batch ID>
0092

> <Smiles>
CNC(C)C(=O)NC(C(=O)N1Cc2cc([101O:1][101CH2:1]C3=CN(c4ccc([100NH:0][100C:0](=O)N5CCCC(n6nc(-c7ccc(Oc8ccc(F)cc8F)cc7)c(C(N)=O)c6N)C5)c(N)c4N)CC3=O)ccc2CC1C(=O)NC1CCCc2ccccc21)C(C)(C)C

> <Shape>
0.347

> <Color>
0.202

> <Negative vol penalty>
0.000

$$$$

  -OEChem-04052300343D

 85 93  0     1  0  0  0  0  0999 V2000
  -17.4585  -26.4306   22.5195 C   0  0  0  0  0  0  0  0  0  0  0  0
  -18.6885  -25.9595   22.9673 C   0  0  0  0  0  0  0  0  0  0  0  0
  -24.8128  -13.5514   21.3241 C   0  0  0  0  0  0  0  0  0  0  0  0
  -26.4164  -13.1045   19.5733 C   0  0  0  0  0  0  0  0  0  0  0  0
  -17.3937  -27.6052   21.7711 C   0  0  0  0  0  0  0  0  0  0  0  0
  -19.8546  -26.6622   22.6659 C   0  0  0  0  0  0  0  0  0  0  0  0
  -24.8209  -27.2428   26.2022 C   0  0  0  0  0  0  0  0  0  0  0  0
  -31.9645  -20.7844   23.4026 C   0  0  0  0  0  0  0  0  0  0  0  0
  -32.3524  -19.7078   22.6051 C   0  0  0  0  0  0  0  0  0  0  0  0
  -24.1010  -12.4071   20.9643 C   0  0  0  0  0  0  0  0  0  0  0  0
  -25.7046  -11.9601   19.2134 C   0  0  0  0  0  0  0  0  0  0  0  0
  -26.0463  -26.5779   26.2149 C   0  0  0  0  0  0  0  0  0  0  0  0
  -24.3532   -9.0676   21.4297 C   0  0  0  0  0  0  0  0  0  0  0  0
  -23.9221   -8.2237   22.4532 C   0  0  0  0  0  0  0  0  0  0  0  0
  -30.6861  -21.6872   21.5620 C   0  0  0  0  0  0  0  0  0  0  0  0
  -27.0111  -28.3432   24.8837 C   0  0  0  0  0  0  0  0  0  0  0  0
  -21.6306   -8.5600   21.7654 C   0  0  0  0  0  0  0  0  0  0  0  0
  -25.9705  -13.9001   20.6286 C   0  0  0  0  0  0  0  0  0  0  0  0
  -31.0740  -20.6106   20.7645 C   0  0  0  0  0  0  0  0  0  0  0  0
  -27.7535  -15.1732   21.9354 C   0  0  0  0  0  0  0  0  0  0  0  0
  -18.5586  -28.3277   21.4686 C   0  0  0  0  0  0  0  0  0  0  0  0
  -24.6783  -28.4595   25.5198 C   0  0  0  0  0  0  0  0  0  0  0  0
  -19.8055  -27.8467   21.9116 C   0  0  0  0  0  0  0  0  0  0  0  0
  -25.7835  -29.0228   24.8660 C   0  0  0  0  0  0  0  0  0  0  0  0
  -31.1313  -21.7742   22.8811 C   0  0  0  0  0  0  0  0  0  0  0  0
  -31.9072  -19.6209   21.2861 C   0  0  0  0  0  0  0  0  0  0  0  0
  -24.5469  -11.6114   19.9090 C   0  0  0  0  0  0  0  0  0  0  0  0
  -27.1408  -27.1267   25.5532 C   0  0  0  0  0  0  0  0  0  0  0  0
  -23.4230   -9.6577   20.5740 C   0  0  0  0  0  0  0  0  0  0  0  0
  -22.5609   -7.9699   22.6211 C   0  0  0  0  0  0  0  0  0  0  0  0
  -22.0618   -9.4039   20.7418 C   0  0  0  0  0  0  0  0  0  0  0  0
  -26.7059  -15.0824   20.9994 C   0  0  0  0  0  0  0  0  0  0  0  0
  -28.1109  -16.4993   21.9231 C   0  0  0  0  0  0  0  0  0  0  0  0
  -28.5930  -25.5827   24.5642 C   0  0  0  0  0  0  0  0  0  1  0  0
  -30.5910  -20.5479   19.3906 C   0  0  0  0  0  0  0  0  0  0  0  0
  -28.3502  -14.1503   22.7437 C   0  0  0  0  0  0  0  0  0  0  0  0
  -29.7355  -24.8909   24.4763 C   0  0  0  0  0  0  0  0  0  0  0  0
  -29.2829  -21.1278   19.0086 C   0  0  0  0  0  0  0  0  0  0  0  0
  -29.9189  -23.9306   23.3394 C   0  0  0  0  0  0  0  0  0  0  0  0
  -22.9174  -29.4659   23.0724 C   0  0  0  0  0  0  0  0  0  0  0  0
  -24.1919  -32.3472   23.8443 C   0  0  0  0  0  0  0  0  0  0  0  0
  -26.7296  -34.0925   25.3143 C   0  0  0  0  0  0  0  0  0  0  0  0
  -18.4435  -29.5667   20.6163 C   0  0  0  0  0  0  0  0  0  0  0  0
  -23.3568  -29.1775   25.5381 C   0  0  0  0  0  0  0  0  0  0  0  0
  -25.6881  -30.3367   24.1360 C   0  0  0  0  0  0  0  0  0  0  0  0
  -19.6860  -30.4526   20.6586 C   0  0  0  0  0  0  0  0  0  0  0  0
  -25.8520  -20.5108   19.8481 C   0  0  0  0  0  0  0  0  0  0  0  0
  -20.9472  -29.6118   20.4880 C   0  0  0  0  0  0  0  0  0  0  0  0
  -25.8488  -19.0396   20.2618 C   0  0  0  0  0  0  0  0  0  0  0  0
  -26.8602  -20.7755   18.7346 C   0  0  0  0  0  0  0  0  0  0  0  0
  -28.2540  -18.8651   19.4807 C   0  0  0  0  0  0  0  0  0  0  0  0
  -21.0900  -28.5941   21.6261 C   0  0  1  0  0  0  0  0  0  0  0  0
  -23.1920  -30.1554   24.3788 C   0  0  1  0  0  0  0  0  0  0  0  0
  -27.2675  -18.5644   20.6226 C   0  0  2  0  0  0  0  0  0  0  0  0
  -27.5129  -36.4359   25.7532 C   0  0  0  0  0  0  0  0  0  0  0  0
  -25.0865  -32.5900   20.9373 C   0  0  0  0  0  0  0  0  0  0  0  0
  -26.6379  -34.4248   21.6408 C   0  0  0  0  0  0  0  0  0  0  0  0
  -24.1750  -34.6977   21.9278 C   0  0  0  0  0  0  0  0  0  0  0  0
  -26.6170  -33.7049   28.2462 C   0  0  0  0  0  0  0  0  0  0  0  0
  -25.4310  -33.1103   23.4426 C   0  0  1  0  0  0  0  0  0  0  0  0
  -26.7192  -35.2551   26.2904 C   0  0  2  0  0  0  0  0  0  0  0  0
  -25.3342  -33.6800   21.9992 C   0  0  0  0  0  0  0  0  0  0  0  0
  -26.4166  -16.2573   20.4338 N   0  0  0  0  0  0  0  0  0  0  0  0
  -31.2637  -19.9906   18.4227 N   0  0  0  0  0  0  0  0  0  0  0  0
  -27.2876  -17.0989   21.0161 N   0  0  0  0  0  0  0  0  0  0  0  0
  -28.1873  -20.2802   19.0945 N   0  0  0  0  0  0  0  0  0  0  0  0
  -24.3730  -30.9973   24.1773 N   0  0  0  0  0  0  0  0  0  0  0  0
  -32.3123  -18.5227   20.4950 N   0  0  0  0  0  0  0  0  0  0  0  0
  -29.0460  -17.1993   22.5999 N   0  0  0  0  0  0  0  0  0  0  0  0
  -27.8624  -12.8411   22.6321 N   0  0  0  0  0  0  0  0  0  0  0  0
  -30.7380  -22.8666   23.6912 N   0  0  0  0  0  0  0  0  0  0  0  0
  -21.5763  -29.2420   22.8254 N   0  0  0  0  0  0  0  0  0  0  0  0
  -25.6383  -34.1231   24.4720 N   0  0  0  0  0  0  0  0  0  0  0  0
  -27.3139  -34.8429   27.5933 N   0  3  0  0  0  0  0  0  0  0  0  0
  -29.2771  -14.3932   23.5532 O   0  0  0  0  0  0  0  0  0  0  0  0
  -29.3084  -22.2995   18.6553 O   0  0  0  0  0  0  0  0  0  0  0  0
  -29.3787  -24.1264   22.2561 O   0  0  0  0  0  0  0  0  0  0  0  0
  -23.8528  -29.1609   22.3419 O   0  0  0  0  0  0  0  0  0  0  0  0
  -23.1046  -32.9293   23.8689 O   0  0  0  0  0  0  0  0  0  0  0  0
  -27.6189  -33.2444   25.2981 O   0  0  0  0  0  0  0  0  0  0  0  0
  -30.7579  -25.0269   25.3933 O   0  0  0  0  0  0  0  0  0  0  0  0
  -23.8527  -10.4946   19.5578 O   0  0  0  0  0  0  0  0  0  0  0  0
  -28.3379  -26.4794   25.5634 O   0  0  0  0  0  0  0  0  0  1  0  0
  -22.1471   -7.1583   23.6031 F   0  0  0  0  0  0  0  0  0  0  0  0
  -21.1635   -9.9670   19.9222 F   0  0  0  0  0  0  0  0  0  0  0  0
  1  2  1  0  0  0  0
  1  5  2  0  0  0  0
  2  6  2  0  0  0  0
  3 10  2  0  0  0  0
  3 18  1  0  0  0  0
  4 11  1  0  0  0  0
  4 18  2  0  0  0  0
  5 21  1  0  0  0  0
  6 23  1  0  0  0  0
  7 12  2  0  0  0  0
  7 22  1  0  0  0  0
  8  9  2  0  0  0  0
  8 25  1  0  0  0  0
  9 26  1  0  0  0  0
 10 27  1  0  0  0  0
 11 27  2  0  0  0  0
 12 28  1  0  0  0  0
 13 14  2  0  0  0  0
 13 29  1  0  0  0  0
 14 30  1  0  0  0  0
 15 19  1  0  0  0  0
 15 25  2  0  0  0  0
 16 24  1  0  0  0  0
 16 28  2  0  0  0  0
 17 30  2  0  0  0  0
 17 31  1  0  0  0  0
 18 32  1  0  0  0  0
 19 26  2  0  0  0  0
 19 35  1  0  0  0  0
 20 32  1  0  0  0  0
 20 33  2  0  0  0  0
 20 36  1  0  0  0  0
 21 23  2  0  0  0  0
 21 43  1  0  0  0  0
 22 24  2  0  0  0  0
 22 44  1  0  0  0  0
 23 52  1  0  0  0  0
 24 45  1  0  0  0  0
 25 71  1  0  0  0  0
 26 68  1  0  0  0  0
 27 82  1  0  0  0  0
 28 83  1  0  0  0  0
 29 31  2  0  0  0  0
 29 82  1  0  0  0  0
 30 84  1  0  0  0  0
 31 85  1  0  0  0  0
 32 63  2  0  0  0  0
 33 65  1  0  0  0  0
 33 69  1  0  0  0  0
 34 37  2  0  0  0  0
 34 83  1  0  0  0  0
 35 38  1  0  0  0  0
 35 64  2  0  0  0  0
 36 70  1  0  0  0  0
 36 75  2  0  0  0  0
 37 39  1  0  0  0  0
 37 81  1  0  0  0  0
 38 66  1  0  0  0  0
 38 76  2  0  0  0  0
 39 71  1  0  0  0  0
 39 77  2  0  0  0  0
 40 53  1  0  0  0  0
 40 72  1  0  0  0  0
 40 78  2  0  0  0  0
 41 60  1  0  0  0  0
 41 67  1  0  0  0  0
 41 79  2  0  0  0  0
 42 61  1  0  0  0  0
 42 73  1  0  0  0  0
 42 80  2  0  0  0  0
 43 46  1  0  0  0  0
 44 53  1  0  0  0  0
 45 67  1  0  0  0  0
 46 48  1  0  0  0  0
 47 49  1  0  0  0  0
 47 50  1  0  0  0  0
 48 52  1  0  0  0  0
 49 54  1  0  0  0  0
 50 66  1  0  0  0  0
 51 54  1  0  0  0  0
 51 66  1  0  0  0  0
 52 72  1  0  0  0  0
 53 67  1  0  0  0  0
 54 65  1  0  0  0  0
 55 61  1  0  0  0  0
 56 62  1  0  0  0  0
 57 62  1  0  0  0  0
 58 62  1  0  0  0  0
 59 74  1  0  0  0  0
 60 62  1  0  0  0  0
 60 73  1  0  0  0  0
 61 74  1  0  0  0  0
 63 65  1  0  0  0  0
M  CHG  1  74   1
M  ISO  4  34 101  35 100  38 100  83 101
M  END
> <Batch ID>
0092

> <Smiles>
CNC(C)C(=O)NC(C(=O)N1Cc2cc([101O:1][101CH2:1]C(=O)C(=O)Nc3ccc(N)c([100C:0](=N)[100C:0](=O)N4CCCC(n5nc(-c6ccc(Oc7ccc(F)cc7F)cc6)c(C(N)=O)c5N)C4)c3)ccc2CC1C(=O)NC1CCCc2ccccc21)C(C)(C)C

> <Shape>
0.248

> <Color>
0.091

> <Negative vol penalty>
0.000

$$$$

  -OEChem-04052300343D

 85 94  0     1  0  0  0  0  0999 V2000
  -20.9800  -34.7316   22.8047 C   0  0  0  0  0  0  0  0  0  0  0  0
  -22.1888  -34.1343   22.4620 C   0  0  0  0  0  0  0  0  0  0  0  0
  -31.2453  -23.0073   14.2328 C   0  0  0  0  0  0  0  0  0  0  0  0
  -26.1619  -13.4888   21.1138 C   0  0  0  0  0  0  0  0  0  0  0  0
  -27.4212  -12.8678   19.1477 C   0  0  0  0  0  0  0  0  0  0  0  0
  -19.9767  -33.9753   23.4091 C   0  0  0  0  0  0  0  0  0  0  0  0
  -22.3954  -32.7805   22.7245 C   0  0  0  0  0  0  0  0  0  0  0  0
  -25.6171  -28.8235   19.3379 C   0  0  0  0  0  0  0  0  0  0  0  0
  -31.2971  -23.8592   15.3360 C   0  0  0  0  0  0  0  0  0  0  0  0
  -30.3463  -21.9408   14.2167 C   0  0  0  0  0  0  0  0  0  0  0  0
  -25.8077  -12.1538   21.3087 C   0  0  0  0  0  0  0  0  0  0  0  0
  -27.0670  -11.5328   19.3426 C   0  0  0  0  0  0  0  0  0  0  0  0
  -26.9185  -28.3361   19.4493 C   0  0  0  0  0  0  0  0  0  0  0  0
  -24.2763   -8.9565   22.1182 C   0  0  0  0  0  0  0  0  0  0  0  0
  -22.9456   -8.6755   22.4279 C   0  0  0  0  0  0  0  0  0  0  0  0
  -26.0840  -26.3889   20.6031 C   0  0  0  0  0  0  0  0  0  0  0  0
  -29.5511  -22.5782   16.4073 C   0  0  0  0  0  0  0  0  0  0  0  0
  -22.2492   -9.6724   20.3402 C   0  0  0  0  0  0  0  0  0  0  0  0
  -26.9686  -13.8458   20.0333 C   0  0  0  0  0  0  0  0  0  0  0  0
  -28.4644  -15.8886   20.3450 C   0  0  0  0  0  0  0  0  0  0  0  0
  -20.1674  -32.6093   23.6703 C   0  0  0  0  0  0  0  0  0  0  0  0
  -24.5386  -28.1013   19.8688 C   0  0  0  0  0  0  0  0  0  0  0  0
  -21.3941  -32.0055   23.3342 C   0  0  0  0  0  0  0  0  0  0  0  0
  -24.7696  -26.8681   20.4948 C   0  0  0  0  0  0  0  0  0  0  0  0
  -30.4501  -23.6446   16.4233 C   0  0  0  0  0  0  0  0  0  0  0  0
  -29.4993  -21.7263   15.3040 C   0  0  0  0  0  0  0  0  0  0  0  0
  -26.2603  -11.1758   20.4231 C   0  0  0  0  0  0  0  0  0  0  0  0
  -27.1525  -27.1200   20.0845 C   0  0  0  0  0  0  0  0  0  0  0  0
  -24.5934   -9.5955   20.9195 C   0  0  0  0  0  0  0  0  0  0  0  0
  -21.9321   -9.0335   21.5389 C   0  0  0  0  0  0  0  0  0  0  0  0
  -23.5799   -9.9534   20.0305 C   0  0  0  0  0  0  0  0  0  0  0  0
  -27.3343  -15.2247   19.8312 C   0  0  0  0  0  0  0  0  0  0  0  0
  -28.3548  -17.1721   19.8684 C   0  0  0  0  0  0  0  0  0  0  0  0
  -29.8017  -24.4991   18.6748 C   0  0  0  0  0  0  0  0  0  0  0  0
  -30.0696  -18.9765   14.4173 C   0  0  0  0  0  0  0  0  0  0  0  0
  -28.8330  -19.4437   14.6031 C   0  0  0  0  0  0  0  0  0  0  0  0
  -29.5189  -15.3897   21.1786 C   0  0  0  0  0  0  0  0  0  0  0  0
  -22.3572  -28.6535   22.1139 C   0  0  0  0  0  0  0  0  0  0  0  0
  -21.1294  -25.8409   21.0629 C   0  0  0  0  0  0  0  0  0  0  0  0
  -21.6565  -22.8537   19.4991 C   0  0  0  0  0  0  0  0  0  0  0  0
  -27.2777  -20.8014   15.8533 C   0  0  0  0  0  0  0  0  0  0  0  0
  -19.0714  -31.8438   24.3684 C   0  0  0  0  0  0  0  0  0  0  0  0
  -23.1379  -28.6279   19.7168 C   0  0  0  0  0  0  0  0  0  0  0  0
  -23.6442  -26.0444   21.0636 C   0  0  0  0  0  0  0  0  0  0  0  0
  -19.2298  -30.3286   24.2714 C   0  0  0  0  0  0  0  0  0  0  0  0
  -24.5211  -19.5270   17.5755 C   0  0  0  0  0  0  0  0  0  0  0  0
  -20.6655  -29.9207   24.5866 C   0  0  0  0  0  0  0  0  0  0  0  0
  -25.0895  -18.3430   18.3571 C   0  0  0  0  0  0  0  0  0  0  0  0
  -25.1288  -19.6034   16.1796 C   0  0  0  0  0  0  0  0  0  0  0  0
  -31.1145  -25.7982   17.6714 C   0  0  0  0  0  0  0  0  0  0  0  0
  -27.2047  -18.5014   16.9540 C   0  0  0  0  0  0  0  0  0  0  0  0
  -21.6467  -30.5339   23.5802 C   0  0  1  0  0  0  0  0  0  0  0  0
  -30.3691  -25.8918   19.0272 C   0  0  1  0  0  0  0  0  0  0  0  0
  -22.1696  -28.0564   20.7479 C   0  0  1  0  0  0  0  0  0  0  0  0
  -26.6277  -18.3829   18.3790 C   0  0  2  0  0  0  0  0  0  0  0  0
  -20.4705  -20.7483   18.8222 C   0  0  0  0  0  0  0  0  0  0  0  0
  -21.2081  -24.8699   23.9544 C   0  0  0  0  0  0  0  0  0  0  0  0
  -20.9353  -22.5312   23.1032 C   0  0  0  0  0  0  0  0  0  0  0  0
  -19.1484  -24.2226   22.6923 C   0  0  0  0  0  0  0  0  0  0  0  0
  -22.2016  -23.3314   16.6297 C   0  0  0  0  0  0  0  0  0  0  0  0
  -29.3423  -26.9991   19.1647 C   0  0  0  0  0  0  0  0  0  1  0  0
  -21.3274  -24.3878   21.4208 C   0  0  1  0  0  0  0  0  0  0  0  0
  -20.8917  -22.1459   18.3953 C   0  0  2  0  0  0  0  0  0  0  0  0
  -20.6764  -24.0191   22.7838 C   0  0  0  0  0  0  0  0  0  0  0  0
  -26.5635  -16.0207   19.0854 N   0  0  0  0  0  0  0  0  0  0  0  0
  -27.2102  -17.1981   19.1272 N   0  0  0  0  0  0  0  0  0  0  0  0
  -30.5015  -24.4858   17.5112 N   0  0  0  0  0  0  0  0  0  0  0  0
  -22.2932  -26.6048   20.8957 N   0  0  0  0  0  0  0  0  0  0  0  0
  -26.5905  -19.6346   16.2429 N   0  0  0  0  0  0  0  0  0  0  0  0
  -29.1269  -18.2697   20.0153 N   0  0  0  0  0  0  0  0  0  0  0  0
  -29.4770  -14.0466   21.5769 N   0  0  0  0  0  0  0  0  0  0  0  0
  -21.6170  -29.7994   22.3336 N   0  0  0  0  0  0  0  0  0  0  0  0
  -20.8232  -23.6165   20.2897 N   0  0  0  0  0  0  0  0  0  0  0  0
  -28.5659  -20.6188   15.2867 N   0  0  0  0  0  0  0  0  0  0  0  0
  -21.7359  -22.0294   17.1727 N   0  3  0  0  0  0  0  0  0  0  0  0
  -29.0213  -23.7233   19.1779 O   0  0  0  0  0  0  0  0  0  0  0  0
  -30.4615  -16.1177   21.5724 O   0  0  0  0  0  0  0  0  0  0  0  0
  -23.1163  -28.1136   22.9101 O   0  0  0  0  0  0  0  0  0  0  0  0
  -19.9845  -26.2803   20.9294 O   0  0  0  0  0  0  0  0  0  0  0  0
  -22.8711  -22.7384   19.6476 O   0  0  0  0  0  0  0  0  0  0  0  0
  -26.7752  -21.9257   15.9791 O   0  0  0  0  0  0  0  0  0  0  0  0
  -25.9151   -9.8730   20.6130 O   0  0  0  0  0  0  0  0  0  0  0  0
  -28.4219  -26.6423   20.1952 O   0  0  0  0  0  0  0  0  0  1  0  0
  -20.6544   -8.7622   21.8358 F   0  0  0  0  0  0  0  0  0  0  0  0
  -23.8785  -10.5664   18.8769 F   0  0  0  0  0  0  0  0  0  0  0  0
  1  2  1  0  0  0  0
  1  6  2  0  0  0  0
  2  7  2  0  0  0  0
  3  9  1  0  0  0  0
  3 10  2  0  0  0  0
  4 11  2  0  0  0  0
  4 19  1  0  0  0  0
  5 12  1  0  0  0  0
  5 19  2  0  0  0  0
  6 21  1  0  0  0  0
  7 23  1  0  0  0  0
  8 13  2  0  0  0  0
  8 22  1  0  0  0  0
  9 25  2  0  0  0  0
 10 26  1  0  0  0  0
 11 27  1  0  0  0  0
 12 27  2  0  0  0  0
 13 28  1  0  0  0  0
 14 15  2  0  0  0  0
 14 29  1  0  0  0  0
 15 30  1  0  0  0  0
 16 24  1  0  0  0  0
 16 28  2  0  0  0  0
 17 25  1  0  0  0  0
 17 26  2  0  0  0  0
 18 30  2  0  0  0  0
 18 31  1  0  0  0  0
 19 32  1  0  0  0  0
 20 32  1  0  0  0  0
 20 33  2  0  0  0  0
 20 37  1  0  0  0  0
 21 23  2  0  0  0  0
 21 42  1  0  0  0  0
 22 24  2  0  0  0  0
 22 43  1  0  0  0  0
 23 52  1  0  0  0  0
 24 44  1  0  0  0  0
 25 67  1  0  0  0  0
 26 74  1  0  0  0  0
 27 82  1  0  0  0  0
 28 83  1  0  0  0  0
 29 31  2  0  0  0  0
 29 82  1  0  0  0  0
 30 84  1  0  0  0  0
 31 85  1  0  0  0  0
 32 65  2  0  0  0  0
 33 66  1  0  0  0  0
 33 70  1  0  0  0  0
 34 53  1  0  0  0  0
 34 67  1  0  0  0  0
 34 76  2  0  0  0  0
 35 36  2  0  0  0  0
 36 74  1  0  0  0  0
 37 71  1  0  0  0  0
 37 77  2  0  0  0  0
 38 54  1  0  0  0  0
 38 72  1  0  0  0  0
 38 78  2  0  0  0  0
 39 62  1  0  0  0  0
 39 68  1  0  0  0  0
 39 79  2  0  0  0  0
 40 63  1  0  0  0  0
 40 73  1  0  0  0  0
 40 80  2  0  0  0  0
 41 69  1  0  0  0  0
 41 74  1  0  0  0  0
 41 81  2  0  0  0  0
 42 45  1  0  0  0  0
 43 54  1  0  0  0  0
 44 68  1  0  0  0  0
 45 47  1  0  0  0  0
 46 48  1  0  0  0  0
 46 49  1  0  0  0  0
 47 52  1  0  0  0  0
 48 55  1  0  0  0  0
 49 69  1  0  0  0  0
 50 53  1  0  0  0  0
 50 67  1  0  0  0  0
 51 55  1  0  0  0  0
 51 69  1  0  0  0  0
 52 72  1  0  0  0  0
 53 61  1  0  0  0  0
 54 68  1  0  0  0  0
 55 66  1  0  0  0  0
 56 63  1  0  0  0  0
 57 64  1  0  0  0  0
 58 64  1  0  0  0  0
 59 64  1  0  0  0  0
 60 75  1  0  0  0  0
 61 83  1  0  0  0  0
 62 64  1  0  0  0  0
 62 73  1  0  0  0  0
 63 75  1  0  0  0  0
 65 66  1  0  0  0  0
M  CHG  1  75   1
M  ISO  4  41 100  61 101  74 100  83 101
M  END
> <Batch ID>
0092

> <Smiles>
C=C[100N:0](c1cccc(N2CC([101CH2:1][101O:1]c3ccc4c(c3)CN(C(=O)C(NC(=O)C(C)NC)C(C)(C)C)C(C(=O)NC3CCCc5ccccc53)C4)C2=O)c1)[100C:0](=O)N1CCCC(n2nc(-c3ccc(Oc4ccc(F)cc4F)cc3)c(C(N)=O)c2N)C1

> <Shape>
0.222

> <Color>
0.094

> <Negative vol penalty>
0.000

$$$$

  -OEChem-04052300343D

 87 96  0     1  0  0  0  0  0999 V2000
  -30.1424  -32.8986   28.6641 C   0  0  0  0  0  0  0  0  0  0  0  0
  -30.6467  -31.6022   28.6463 C   0  0  0  0  0  0  0  0  0  0  0  0
  -23.3028   -9.8927   19.7476 C   0  0  0  0  0  0  0  0  0  0  0  0
  -23.7426   -9.8018   22.1215 C   0  0  0  0  0  0  0  0  0  0  0  0
  -29.1407  -33.2681   27.7674 C   0  0  0  0  0  0  0  0  0  0  0  0
  -30.1487  -30.6741   27.7324 C   0  0  0  0  0  0  0  0  0  0  0  0
  -33.2778  -26.2074   24.9461 C   0  0  0  0  0  0  0  0  0  0  0  0
  -30.5867  -14.7200   25.2785 C   0  0  0  0  0  0  0  0  0  0  0  0
  -30.5817  -16.0252   25.7704 C   0  0  0  0  0  0  0  0  0  0  0  0
  -22.5832   -8.7010   19.8353 C   0  0  0  0  0  0  0  0  0  0  0  0
  -23.0229   -8.6101   22.2092 C   0  0  0  0  0  0  0  0  0  0  0  0
  -33.4054  -24.8448   25.2122 C   0  0  0  0  0  0  0  0  0  0  0  0
  -19.7810   -7.6624   22.3200 C   0  0  0  0  0  0  0  0  0  0  0  0
  -18.8743   -7.5305   23.3717 C   0  0  0  0  0  0  0  0  0  0  0  0
  -31.6636  -24.3752   23.6107 C   0  0  0  0  0  0  0  0  0  0  0  0
  -32.6910  -15.1455   24.1705 C   0  0  0  0  0  0  0  0  0  0  0  0
  -20.0879   -5.6026   24.1762 C   0  0  0  0  0  0  0  0  0  0  0  0
  -23.8825  -10.4431   20.8907 C   0  0  0  0  0  0  0  0  0  0  0  0
  -24.1263  -12.9818   20.9437 C   0  0  0  0  0  0  0  0  0  0  0  0
  -28.6370  -32.3468   26.8357 C   0  0  0  0  0  0  0  0  0  0  0  0
  -32.3330  -26.6658   24.0168 C   0  0  0  0  0  0  0  0  0  0  0  0
  -29.1384  -31.0312   26.8233 C   0  0  0  0  0  0  0  0  0  0  0  0
  -31.5278  -25.7439   23.3328 C   0  0  0  0  0  0  0  0  0  0  0  0
  -31.6414  -14.2801   24.4786 C   0  0  0  0  0  0  0  0  0  0  0  0
  -31.6313  -16.8907   25.4623 C   0  0  0  0  0  0  0  0  0  0  0  0
  -32.6860  -16.4508   24.6623 C   0  0  0  0  0  0  0  0  0  0  0  0
  -22.4432   -8.0597   21.0661 C   0  0  0  0  0  0  0  0  0  0  0  0
  -32.5963  -23.9287   24.5465 C   0  0  0  0  0  0  0  0  0  0  0  0
  -20.8411   -6.7643   22.1963 C   0  0  0  0  0  0  0  0  0  0  0  0
  -19.0278   -6.5007   24.2998 C   0  0  0  0  0  0  0  0  0  0  0  0
  -20.9946   -5.7344   23.1244 C   0  0  0  0  0  0  0  0  0  0  0  0
  -24.6265  -11.6737   20.8007 C   0  0  0  0  0  0  0  0  0  0  0  0
  -25.2237  -13.7897   20.7721 C   0  0  0  0  0  0  0  0  0  0  0  0
  -31.6036  -19.3424   25.1680 C   0  0  0  0  0  0  0  0  0  0  0  0
  -31.6173  -20.6200   25.5740 C   0  0  0  0  0  0  0  0  0  0  0  0
  -31.7248  -20.8572   27.0411 C   0  0  0  0  0  0  0  0  0  0  0  0
  -22.7892  -13.4269   21.2080 C   0  0  0  0  0  0  0  0  0  0  0  0
  -29.7784  -28.5519   24.1595 C   0  0  0  0  0  0  0  0  0  0  0  0
  -29.8055  -28.1779   20.9374 C   0  0  0  0  0  0  0  0  0  0  0  0
  -30.7355  -26.2955   18.2469 C   0  0  0  0  0  0  0  0  0  0  0  0
  -31.0966  -12.9057   21.5332 C   0  0  0  0  0  0  0  0  0  0  0  0
  -27.5210  -32.7791   25.9179 C   0  0  0  0  0  0  0  0  0  0  0  0
  -32.2263  -28.1367   23.7215 C   0  0  0  0  0  0  0  0  0  0  0  0
  -30.5121  -26.1831   22.3110 C   0  0  0  0  0  0  0  0  0  0  0  0
  -32.0204  -19.6670   27.9292 C   0  0  0  0  0  0  0  0  0  0  0  0
  -27.3110  -31.8423   24.7310 C   0  0  0  0  0  0  0  0  0  0  0  0
  -29.4559  -13.9338   18.5452 C   0  0  0  0  0  0  0  0  0  0  0  0
  -27.3008  -30.3888   25.1935 C   0  0  0  0  0  0  0  0  0  0  0  0
  -27.9870  -13.5892   18.7974 C   0  0  0  0  0  0  0  0  0  0  0  0
  -31.3882  -18.3741   27.4207 C   0  0  0  0  0  0  0  0  0  0  0  0
  -30.3925  -12.8950   19.1582 C   0  0  0  0  0  0  0  0  0  0  0  0
  -28.7013  -12.2856   20.8441 C   0  0  0  0  0  0  0  0  0  0  0  0
  -28.6413  -30.0030   25.8304 C   0  0  1  0  0  0  0  0  0  0  0  0
  -30.8754  -28.5315   23.1328 C   0  0  1  0  0  0  0  0  0  0  0  0
  -27.7197  -13.3338   20.2929 C   0  0  2  0  0  0  0  0  0  0  0  0
  -30.5825  -26.2273   15.7431 C   0  0  0  0  0  0  0  0  0  0  0  0
  -26.8946  -27.2863   21.1420 C   0  0  0  0  0  0  0  0  0  0  0  0
  -27.0925  -26.3470   18.8297 C   0  0  0  0  0  0  0  0  0  0  0  0
  -27.3904  -28.7944   19.2095 C   0  0  0  0  0  0  0  0  0  0  0  0
  -33.6782  -26.3976   17.9485 C   0  0  0  0  0  0  0  0  0  0  0  0
  -31.6468  -12.8844   23.9531 C   0  0  0  0  0  0  0  0  0  0  0  0
  -31.5455  -21.7982   24.6598 C   0  0  0  0  0  0  0  0  0  1  0  0
  -29.1933  -27.1936   19.9702 C   0  0  1  0  0  0  0  0  0  0  0  0
  -31.4097  -26.6709   16.9396 C   0  0  2  0  0  0  0  0  0  0  0  0
  -27.6604  -27.3969   19.8085 C   0  0  0  0  0  0  0  0  0  0  0  0
  -25.9395  -11.6475   20.5570 N   0  0  0  0  0  0  0  0  0  0  0  0
  -26.2736  -12.9492   20.5453 N   0  0  0  0  0  0  0  0  0  0  0  0
  -31.6062  -18.2145   25.9749 N   0  0  0  0  0  0  0  0  0  0  0  0
  -30.4411  -27.6323   22.0618 N   0  0  0  0  0  0  0  0  0  0  0  0
  -30.0875  -12.7008   20.5777 N   0  0  0  0  0  0  0  0  0  0  0  0
  -33.7594  -17.3105   24.3392 N   0  0  0  0  0  0  0  0  0  0  0  0
  -25.3834  -15.1300   20.7946 N   0  0  0  0  0  0  0  0  0  0  0  0
  -21.7817  -12.4640   21.3570 N   0  0  0  0  0  0  0  0  0  0  0  0
  -29.6368  -29.7641   24.8074 N   0  0  0  0  0  0  0  0  0  0  0  0
  -29.9473  -27.3197   18.7276 N   0  0  0  0  0  0  0  0  0  0  0  0
  -30.7216  -12.7063   22.8562 N   0  0  0  0  0  0  0  0  0  0  0  0
  -32.7521  -26.0304   16.8465 N   0  3  0  0  0  0  0  0  0  0  0  0
  -31.6477  -21.9945   27.5022 O   0  0  0  0  0  0  0  0  0  0  0  0
  -22.4935  -14.6430   21.2927 O   0  0  0  0  0  0  0  0  0  0  0  0
  -29.1092  -27.5429   24.3487 O   0  0  0  0  0  0  0  0  0  0  0  0
  -29.7289  -29.3860   20.7003 O   0  0  0  0  0  0  0  0  0  0  0  0
  -30.8896  -25.2017   18.7858 O   0  0  0  0  0  0  0  0  0  0  0  0
  -32.2450  -13.2465   21.2300 O   0  0  0  0  0  0  0  0  0  0  0  0
  -21.7409   -6.8970   21.1521 O   0  0  0  0  0  0  0  0  0  0  0  0
  -32.7183  -22.5981   24.8048 O   0  0  0  0  0  0  0  0  0  1  0  0
  -18.1579   -6.3751   25.3106 F   0  0  0  0  0  0  0  0  0  0  0  0
  -22.0117   -4.8693   23.0115 F   0  0  0  0  0  0  0  0  0  0  0  0
  1  2  1  0  0  0  0
  1  5  2  0  0  0  0
  2  6  2  0  0  0  0
  3 10  2  0  0  0  0
  3 18  1  0  0  0  0
  4 11  1  0  0  0  0
  4 18  2  0  0  0  0
  5 20  1  0  0  0  0
  6 22  1  0  0  0  0
  7 12  2  0  0  0  0
  7 21  1  0  0  0  0
  8  9  2  0  0  0  0
  8 24  1  0  0  0  0
  9 25  1  0  0  0  0
 10 27  1  0  0  0  0
 11 27  2  0  0  0  0
 12 28  1  0  0  0  0
 13 14  2  0  0  0  0
 13 29  1  0  0  0  0
 14 30  1  0  0  0  0
 15 23  1  0  0  0  0
 15 28  2  0  0  0  0
 16 24  2  0  0  0  0
 16 26  1  0  0  0  0
 17 30  2  0  0  0  0
 17 31  1  0  0  0  0
 18 32  1  0  0  0  0
 19 32  1  0  0  0  0
 19 33  2  0  0  0  0
 19 37  1  0  0  0  0
 20 22  2  0  0  0  0
 20 42  1  0  0  0  0
 21 23  2  0  0  0  0
 21 43  1  0  0  0  0
 22 53  1  0  0  0  0
 23 44  1  0  0  0  0
 24 61  1  0  0  0  0
 25 26  2  0  0  0  0
 25 68  1  0  0  0  0
 26 71  1  0  0  0  0
 27 84  1  0  0  0  0
 28 85  1  0  0  0  0
 29 31  2  0  0  0  0
 29 84  1  0  0  0  0
 30 86  1  0  0  0  0
 31 87  1  0  0  0  0
 32 66  2  0  0  0  0
 33 67  1  0  0  0  0
 33 72  1  0  0  0  0
 34 35  2  0  0  0  0
 34 68  1  0  0  0  0
 35 36  1  0  0  0  0
 35 62  1  0  0  0  0
 36 45  1  0  0  0  0
 36 78  2  0  0  0  0
 37 73  1  0  0  0  0
 37 79  2  0  0  0  0
 38 54  1  0  0  0  0
 38 74  1  0  0  0  0
 38 80  2  0  0  0  0
 39 63  1  0  0  0  0
 39 69  1  0  0  0  0
 39 81  2  0  0  0  0
 40 64  1  0  0  0  0
 40 75  1  0  0  0  0
 40 82  2  0  0  0  0
 41 70  1  0  0  0  0
 41 76  1  0  0  0  0
 41 83  2  0  0  0  0
 42 46  1  0  0  0  0
 43 54  1  0  0  0  0
 44 69  1  0  0  0  0
 45 50  1  0  0  0  0
 46 48  1  0  0  0  0
 47 49  1  0  0  0  0
 47 51  1  0  0  0  0
 48 53  1  0  0  0  0
 49 55  1  0  0  0  0
 50 68  1  0  0  0  0
 51 70  1  0  0  0  0
 52 55  1  0  0  0  0
 52 70  1  0  0  0  0
 53 74  1  0  0  0  0
 54 69  1  0  0  0  0
 55 67  1  0  0  0  0
 56 64  1  0  0  0  0
 57 65  1  0  0  0  0
 58 65  1  0  0  0  0
 59 65  1  0  0  0  0
 60 77  1  0  0  0  0
 61 76  1  0  0  0  0
 62 85  1  0  0  0  0
 63 65  1  0  0  0  0
 63 75  1  0  0  0  0
 64 77  1  0  0  0  0
 66 67  1  0  0  0  0
M  CHG  1  77   1
M  ISO  4  41 100  62 101  76 100  85 101
M  END
> <Batch ID>
0092

> <Smiles>
CNC(C)C(=O)NC(C(=O)N1Cc2cc([101O:1][101CH2:1]C3=CN(c4ccc(C[100NH:0][100C:0](=O)N5CCCC(n6nc(-c7ccc(Oc8ccc(F)cc8F)cc7)c(C(N)=O)c6N)C5)cc4N)CCC3=O)ccc2CC1C(=O)NC1CCCc2ccccc21)C(C)(C)C

> <Shape>
0.217

> <Color>
0.167

> <Negative vol penalty>
0.000

$$$$

  -OEChem-04052300343D

 86 95  0     1  0  0  0  0  0999 V2000
  -17.6365  -31.3676   24.4895 C   0  0  0  0  0  0  0  0  0  0  0  0
  -18.3982  -30.3589   25.0707 C   0  0  0  0  0  0  0  0  0  0  0  0
  -23.4879   -9.5171   20.3787 C   0  0  0  0  0  0  0  0  0  0  0  0
  -24.0612  -10.0477   22.6649 C   0  0  0  0  0  0  0  0  0  0  0  0
  -17.6861  -31.5707   23.1111 C   0  0  0  0  0  0  0  0  0  0  0  0
  -19.2092  -29.5519   24.2735 C   0  0  0  0  0  0  0  0  0  0  0  0
  -24.6471  -27.1700   25.7772 C   0  0  0  0  0  0  0  0  0  0  0  0
  -22.8923   -8.3295   20.8037 C   0  0  0  0  0  0  0  0  0  0  0  0
  -23.4656   -8.8602   23.0899 C   0  0  0  0  0  0  0  0  0  0  0  0
  -25.0241  -25.9086   26.2359 C   0  0  0  0  0  0  0  0  0  0  0  0
  -20.3408   -7.7110   23.6693 C   0  0  0  0  0  0  0  0  0  0  0  0
  -19.5089   -7.7690   24.7874 C   0  0  0  0  0  0  0  0  0  0  0  0
  -25.5667  -25.2562   23.9778 C   0  0  0  0  0  0  0  0  0  0  0  0
  -30.6613  -19.8455   23.4003 C   0  0  0  0  0  0  0  0  0  0  0  0
  -28.9188  -18.4844   22.4269 C   0  0  0  0  0  0  0  0  0  0  0  0
  -31.2376  -17.8796   22.1196 C   0  0  0  0  0  0  0  0  0  0  0  0
  -20.9442   -6.2018   25.9366 C   0  0  0  0  0  0  0  0  0  0  0  0
  -24.0724  -10.3762   21.3093 C   0  0  0  0  0  0  0  0  0  0  0  0
  -24.0727  -12.8613   20.7333 C   0  0  0  0  0  0  0  0  0  0  0  0
  -18.5055  -30.7721   22.2978 C   0  0  0  0  0  0  0  0  0  0  0  0
  -24.7169  -27.4810   24.4116 C   0  0  0  0  0  0  0  0  0  0  0  0
  -19.2688  -29.7437   22.8827 C   0  0  0  0  0  0  0  0  0  0  0  0
  -25.1925  -26.5232   23.5046 C   0  0  0  0  0  0  0  0  0  0  0  0
  -29.3076  -19.5934   23.1782 C   0  0  0  0  0  0  0  0  0  0  0  0
  -31.6264  -18.9887   22.8710 C   0  0  0  0  0  0  0  0  0  0  0  0
  -29.8838  -17.6275   21.8975 C   0  0  0  0  0  0  0  0  0  0  0  0
  -22.8811   -8.0011   22.1593 C   0  0  0  0  0  0  0  0  0  0  0  0
  -25.4812  -24.9505   25.3358 C   0  0  0  0  0  0  0  0  0  0  0  0
  -21.4745   -6.8984   23.6849 C   0  0  0  0  0  0  0  0  0  0  0  0
  -19.8105   -7.0144   25.9210 C   0  0  0  0  0  0  0  0  0  0  0  0
  -21.7761   -6.1438   24.8185 C   0  0  0  0  0  0  0  0  0  0  0  0
  -24.6883  -11.6028   20.8708 C   0  0  0  0  0  0  0  0  0  0  0  0
  -25.0763  -13.6879   20.2906 C   0  0  0  0  0  0  0  0  0  0  0  0
  -27.3793  -22.2122   24.8405 C   0  0  0  0  0  0  0  0  0  0  0  0
  -26.3159  -21.3727   24.2432 C   0  0  0  0  0  0  0  0  0  0  0  0
  -22.7150  -13.2486   20.9834 C   0  0  0  0  0  0  0  0  0  0  0  0
  -27.1356  -23.3125   25.5611 C   0  0  0  0  0  0  0  0  0  1  0  0
  -22.6007  -28.3055   22.1878 C   0  0  0  0  0  0  0  0  0  0  0  0
  -25.2547  -28.7092   20.3668 C   0  0  0  0  0  0  0  0  0  0  0  0
  -28.5260  -27.9202   19.7987 C   0  0  0  0  0  0  0  0  0  0  0  0
  -30.3176  -15.5508   20.5390 C   0  0  0  0  0  0  0  0  0  0  0  0
  -18.4900  -30.9986   20.8067 C   0  0  0  0  0  0  0  0  0  0  0  0
  -24.3318  -28.8551   23.9362 C   0  0  0  0  0  0  0  0  0  0  0  0
  -25.3056  -26.8137   22.0311 C   0  0  0  0  0  0  0  0  0  0  0  0
  -28.7011  -21.6113   24.4918 C   0  0  0  0  0  0  0  0  0  0  0  0
  -26.9327  -20.2210   23.5034 C   0  0  0  0  0  0  0  0  0  0  0  0
  -19.6611  -30.3435   20.0789 C   0  0  0  0  0  0  0  0  0  0  0  0
  -29.7301  -12.6132   18.6147 C   0  0  0  0  0  0  0  0  0  0  0  0
  -19.8510  -28.9075   20.5572 C   0  0  0  0  0  0  0  0  0  0  0  0
  -28.3154  -12.1920   19.0188 C   0  0  0  0  0  0  0  0  0  0  0  0
  -30.5102  -13.1873   19.7961 C   0  0  0  0  0  0  0  0  0  0  0  0
  -28.4215  -13.8549   20.9190 C   0  0  0  0  0  0  0  0  0  0  0  0
  -20.1796  -28.8636   22.0544 C   0  0  1  0  0  0  0  0  0  0  0  0
  -23.9572  -28.8927   22.4578 C   0  0  1  0  0  0  0  0  0  0  0  0
  -27.5750  -13.3305   19.7476 C   0  0  2  0  0  0  0  0  0  0  0  0
  -28.2080  -24.1610   26.1647 C   0  0  0  0  0  0  0  0  0  0  0  0
  -30.4160  -28.3781   18.2127 C   0  0  0  0  0  0  0  0  0  0  0  0
  -23.9687  -26.8635   18.3054 C   0  0  0  0  0  0  0  0  0  0  0  0
  -26.2188  -26.6012   17.2393 C   0  0  0  0  0  0  0  0  0  0  0  0
  -25.1424  -28.8493   17.3393 C   0  0  0  0  0  0  0  0  0  0  0  0
  -30.2014  -29.0775   21.9464 C   0  0  0  0  0  0  0  0  0  0  0  0
  -26.0709  -27.8244   19.4558 C   0  0  1  0  0  0  0  0  0  0  0  0
  -29.7363  -28.7897   19.5093 C   0  0  2  0  0  0  0  0  0  0  0  0
  -25.3464  -27.5282   18.1124 C   0  0  0  0  0  0  0  0  0  0  0  0
  -25.9827  -11.6232   20.5420 N   0  0  0  0  0  0  0  0  0  0  0  0
  -26.1886  -12.9047   20.1934 N   0  0  0  0  0  0  0  0  0  0  0  0
  -28.3678  -20.4278   23.6935 N   0  0  3  0  0  0  0  0  0  0  0  0
  -24.9111  -28.1695   21.6144 N   0  0  0  0  0  0  0  0  0  0  0  0
  -29.7493  -14.2635   20.4346 N   0  0  0  0  0  0  0  0  0  0  0  0
  -32.9953  -19.2438   23.0953 N   0  0  0  0  0  0  0  0  0  0  0  0
  -25.1070  -15.0010   19.9789 N   0  0  0  0  0  0  0  0  0  0  0  0
  -21.8146  -12.2740   21.4347 N   0  0  0  0  0  0  0  0  0  0  0  0
  -29.4885  -16.5004   21.1352 N   0  0  0  0  0  0  0  0  0  0  0  0
  -21.5653  -29.2162   22.2782 N   0  0  0  0  0  0  0  0  0  0  0  0
  -27.3661  -28.4786   19.3046 N   0  0  0  0  0  0  0  0  0  0  0  0
  -30.7289  -28.6806   20.6156 N   0  3  0  0  0  0  0  0  0  0  0  0
  -25.1172  -21.5833   24.3376 O   0  0  0  0  0  0  0  0  0  0  0  0
  -22.3084  -14.4204   20.7962 O   0  0  0  0  0  0  0  0  0  0  0  0
  -22.5010  -27.1148   21.9159 O   0  0  0  0  0  0  0  0  0  0  0  0
  -24.9399  -29.8403   19.9884 O   0  0  0  0  0  0  0  0  0  0  0  0
  -28.6025  -26.8508   20.3996 O   0  0  0  0  0  0  0  0  0  0  0  0
  -31.4454  -15.7994   20.1052 O   0  0  0  0  0  0  0  0  0  0  0  0
  -22.2999   -6.8425   22.5743 O   0  0  0  0  0  0  0  0  0  0  0  0
  -25.8492  -23.7183   25.7809 O   0  0  0  0  0  0  0  0  0  1  0  0
  -19.0124   -7.0714   26.9952 F   0  0  0  0  0  0  0  0  0  0  0  0
  -22.8644   -5.3621   24.8398 F   0  0  0  0  0  0  0  0  0  0  0  0
  1  2  1  0  0  0  0
  1  5  2  0  0  0  0
  2  6  2  0  0  0  0
  3  8  2  0  0  0  0
  3 18  1  0  0  0  0
  4  9  1  0  0  0  0
  4 18  2  0  0  0  0
  5 20  1  0  0  0  0
  6 22  1  0  0  0  0
  7 10  2  0  0  0  0
  7 21  1  0  0  0  0
  8 27  1  0  0  0  0
  9 27  2  0  0  0  0
 10 28  1  0  0  0  0
 11 12  2  0  0  0  0
 11 29  1  0  0  0  0
 12 30  1  0  0  0  0
 13 23  1  0  0  0  0
 13 28  2  0  0  0  0
 14 24  1  0  0  0  0
 14 25  2  0  0  0  0
 15 24  2  0  0  0  0
 15 26  1  0  0  0  0
 16 25  1  0  0  0  0
 16 26  2  0  0  0  0
 17 30  2  0  0  0  0
 17 31  1  0  0  0  0
 18 32  1  0  0  0  0
 19 32  1  0  0  0  0
 19 33  2  0  0  0  0
 19 36  1  0  0  0  0
 20 22  2  0  0  0  0
 20 42  1  0  0  0  0
 21 23  2  0  0  0  0
 21 43  1  0  0  0  0
 22 53  1  0  0  0  0
 23 44  1  0  0  0  0
 24 67  1  0  0  0  0
 25 70  1  0  0  0  0
 26 73  1  0  0  0  0
 27 83  1  0  0  0  0
 28 84  1  0  0  0  0
 29 31  2  0  0  0  0
 29 83  1  0  0  0  0
 30 85  1  0  0  0  0
 31 86  1  0  0  0  0
 32 65  2  0  0  0  0
 33 66  1  0  0  0  0
 33 71  1  0  0  0  0
 34 35  1  0  0  0  0
 34 37  2  0  0  0  0
 34 45  1  0  0  0  0
 35 46  1  0  0  0  0
 35 77  2  0  0  0  0
 36 72  1  0  0  0  0
 36 78  2  0  0  0  0
 37 56  1  0  0  0  0
 37 84  1  0  0  0  0
 38 54  1  0  0  0  0
 38 74  1  0  0  0  0
 38 79  2  0  0  0  0
 39 62  1  0  0  0  0
 39 68  1  0  0  0  0
 39 80  2  0  0  0  0
 40 63  1  0  0  0  0
 40 75  1  0  0  0  0
 40 81  2  0  0  0  0
 41 69  1  0  0  0  0
 41 73  1  0  0  0  0
 41 82  2  0  0  0  0
 42 47  1  0  0  0  0
 43 54  1  0  0  0  0
 44 68  1  0  0  0  0
 45 67  1  0  0  0  0
 46 67  1  0  0  0  0
 47 49  1  0  0  0  0
 48 50  1  0  0  0  0
 48 51  1  0  0  0  0
 49 53  1  0  0  0  0
 50 55  1  0  0  0  0
 51 69  1  0  0  0  0
 52 55  1  0  0  0  0
 52 69  1  0  0  0  0
 53 74  1  0  0  0  0
 54 68  1  0  0  0  0
 55 66  1  0  0  0  0
 57 63  1  0  0  0  0
 58 64  1  0  0  0  0
 59 64  1  0  0  0  0
 60 64  1  0  0  0  0
 61 76  1  0  0  0  0
 62 64  1  0  0  0  0
 62 75  1  0  0  0  0
 63 76  1  0  0  0  0
 65 66  1  0  0  0  0
M  CHG  1  76   1
M  ISO  4  37 101  41 100  73 100  84 101
M  END
> <Batch ID>
0092

> <Smiles>
CNC(C)C(=O)NC(C(=O)N1Cc2cc([101O:1][101C:1](C)=C3CN(c4cc(N)cc([100NH:0][100C:0](=O)N5CCCC(n6nc(-c7ccc(Oc8ccc(F)cc8F)cc7)c(C(N)=O)c6N)C5)c4)CC3=O)ccc2CC1C(=O)NC1CCCc2ccccc21)C(C)(C)C

> <Shape>
0.274

> <Color>
0.177

> <Negative vol penalty>
0.000

$$$$

  -OEChem-04052300343D

 85 93  0     1  0  0  0  0  0999 V2000
  -29.7976  -32.5587   24.6726 C   0  0  0  0  0  0  0  0  0  0  0  0
  -29.5767  -31.3564   24.0085 C   0  0  0  0  0  0  0  0  0  0  0  0
  -23.5117  -12.4535   15.7459 C   0  0  0  0  0  0  0  0  0  0  0  0
  -22.7877  -10.9689   17.5091 C   0  0  0  0  0  0  0  0  0  0  0  0
  -28.7760  -33.1358   25.4256 C   0  0  0  0  0  0  0  0  0  0  0  0
  -28.3342  -30.7298   24.0981 C   0  0  0  0  0  0  0  0  0  0  0  0
  -26.6750  -29.0558   19.6159 C   0  0  0  0  0  0  0  0  0  0  0  0
  -22.7120  -11.7625   14.8356 C   0  0  0  0  0  0  0  0  0  0  0  0
  -21.9880  -10.2779   16.5988 C   0  0  0  0  0  0  0  0  0  0  0  0
  -27.2297  -27.8711   19.1336 C   0  0  0  0  0  0  0  0  0  0  0  0
  -21.1373  -10.1649   11.9735 C   0  0  0  0  0  0  0  0  0  0  0  0
  -21.6912   -9.8443   10.7342 C   0  0  0  0  0  0  0  0  0  0  0  0
  -25.2850  -26.6602   19.8895 C   0  0  0  0  0  0  0  0  0  0  0  0
  -29.5199  -20.8537   19.5585 C   0  0  0  0  0  0  0  0  0  0  0  0
  -27.7446  -19.8270   20.8359 C   0  0  0  0  0  0  0  0  0  0  0  0
  -23.4130   -8.5570   11.8369 C   0  0  0  0  0  0  0  0  0  0  0  0
  -23.5495  -12.0567   17.0826 C   0  0  0  0  0  0  0  0  0  0  0  0
  -29.7667  -18.5906   20.3674 C   0  0  0  0  0  0  0  0  0  0  0  0
  -24.0079  -13.8798   18.8071 C   0  0  0  0  0  0  0  0  0  0  0  0
  -27.5173  -32.5208   25.5166 C   0  0  0  0  0  0  0  0  0  0  0  0
  -25.4240  -29.0499   20.2493 C   0  0  0  0  0  0  0  0  0  0  0  0
  -27.2952  -31.2985   24.8542 C   0  0  0  0  0  0  0  0  0  0  0  0
  -24.7156  -27.8466   20.3766 C   0  0  0  0  0  0  0  0  0  0  0  0
  -30.2762  -19.6872   19.6720 C   0  0  0  0  0  0  0  0  0  0  0  0
  -28.2541  -20.9236   20.1405 C   0  0  0  0  0  0  0  0  0  0  0  0
  -28.5009  -18.6605   20.9493 C   0  0  0  0  0  0  0  0  0  0  0  0
  -21.9502  -10.6747   15.2621 C   0  0  0  0  0  0  0  0  0  0  0  0
  -26.5360  -26.6726   19.2730 C   0  0  0  0  0  0  0  0  0  0  0  0
  -21.7212   -9.6817   13.1446 C   0  0  0  0  0  0  0  0  0  0  0  0
  -22.8291   -9.0403   10.6659 C   0  0  0  0  0  0  0  0  0  0  0  0
  -22.8590   -8.8777   13.0762 C   0  0  0  0  0  0  0  0  0  0  0  0
  -24.3758  -12.7698   18.0233 C   0  0  0  0  0  0  0  0  0  0  0  0
  -25.1382  -14.1818   19.5267 C   0  0  0  0  0  0  0  0  0  0  0  0
  -30.5763  -17.3507   20.4854 C   0  0  0  0  0  0  0  0  0  0  0  0
  -22.7563  -14.5757   18.8785 C   0  0  0  0  0  0  0  0  0  0  0  0
  -24.3795  -29.7890   23.1591 C   0  0  0  0  0  0  0  0  0  0  0  0
  -21.4704  -29.2605   21.8249 C   0  0  0  0  0  0  0  0  0  0  0  0
  -27.8378  -23.2842   19.3733 C   0  0  0  0  0  0  0  0  0  0  0  0
  -19.6359  -27.7336   19.3856 C   0  0  0  0  0  0  0  0  0  0  0  0
  -30.6126  -14.9436   19.9121 C   0  0  0  0  0  0  0  0  0  0  0  0
  -26.4586  -33.1584   26.3811 C   0  0  0  0  0  0  0  0  0  0  0  0
  -24.8275  -30.3405   20.7402 C   0  0  0  0  0  0  0  0  0  0  0  0
  -23.3601  -27.7896   21.0307 C   0  0  0  0  0  0  0  0  0  0  0  0
  -25.0539  -32.6213   26.1196 C   0  0  0  0  0  0  0  0  0  0  0  0
  -29.4608  -11.6073   20.1106 C   0  0  0  0  0  0  0  0  0  0  0  0
  -25.0682  -31.0973   26.0567 C   0  0  0  0  0  0  0  0  0  0  0  0
  -28.0013  -11.7016   19.6575 C   0  0  0  0  0  0  0  0  0  0  0  0
  -30.3636  -12.5502   19.3163 C   0  0  0  0  0  0  0  0  0  0  0  0
  -28.4678  -14.0409   18.8245 C   0  0  0  0  0  0  0  0  0  0  0  0
  -25.9532  -30.6009   24.9069 C   0  0  1  0  0  0  0  0  0  0  0  0
  -23.7769  -30.1378   21.8276 C   0  0  1  0  0  0  0  0  0  0  0  0
  -27.5071  -13.1621   19.6417 C   0  0  1  0  0  0  0  0  0  0  0  0
  -31.6286  -19.6426   19.0378 C   0  0  0  0  0  0  0  0  0  0  0  0
  -17.2766  -27.4590   18.5758 C   0  0  0  0  0  0  0  0  0  0  0  0
  -20.9159  -27.3138   24.1080 C   0  0  0  0  0  0  0  0  0  0  0  0
  -19.0162  -26.3886   22.7651 C   0  0  0  0  0  0  0  0  0  0  0  0
  -18.9826  -28.7752   23.4904 C   0  0  0  0  0  0  0  0  0  0  0  0
  -20.2682  -28.9624   16.7685 C   0  0  0  0  0  0  0  0  0  0  0  0
  -26.7274  -24.3119   19.4883 C   0  0  0  0  0  0  0  0  0  1  0  0
  -20.5724  -28.0583   21.6598 C   0  0  1  0  0  0  0  0  0  0  0  0
  -18.5616  -28.2631   18.4529 C   0  0  2  0  0  0  0  0  0  0  0  0
  -19.8982  -27.6344   22.9952 C   0  0  0  0  0  0  0  0  0  0  0  0
  -25.6409  -12.3923   18.2256 N   0  0  0  0  0  0  0  0  0  0  0  0
  -26.0779  -13.2701   19.1447 N   0  0  0  0  0  0  0  0  0  0  0  0
  -22.8219  -29.0771   21.5001 N   0  0  0  0  0  0  0  0  0  0  0  0
  -29.8321  -13.9136   19.3587 N   0  0  0  0  0  0  0  0  0  0  0  0
  -27.9647  -17.5623   21.6586 N   0  0  0  0  0  0  0  0  0  0  0  0
  -25.4100  -15.1357   20.4424 N   0  0  0  0  0  0  0  0  0  0  0  0
  -21.6992  -14.1338   18.0713 N   0  0  0  0  0  0  0  0  0  0  0  0
  -27.4869  -22.1072   20.0257 N   0  0  0  0  0  0  0  0  0  0  0  0
  -29.9993  -16.2010   19.9452 N   0  0  0  0  0  0  0  0  0  0  0  0
  -25.2621  -30.7359   23.6426 N   0  0  0  0  0  0  0  0  0  0  0  0
  -19.6322  -28.3941   20.5960 N   0  0  0  0  0  0  0  0  0  0  0  0
  -19.0248  -28.1955   17.0380 N   0  3  0  0  0  0  0  0  0  0  0  0
  -31.6900  -17.4102   20.9992 O   0  0  0  0  0  0  0  0  0  0  0  0
  -22.5856  -15.5703   19.6235 O   0  0  0  0  0  0  0  0  0  0  0  0
  -24.0658  -28.7391   23.7079 O   0  0  0  0  0  0  0  0  0  0  0  0
  -20.9890  -30.3252   22.2204 O   0  0  0  0  0  0  0  0  0  0  0  0
  -28.8784  -23.5273   18.7711 O   0  0  0  0  0  0  0  0  0  0  0  0
  -20.3994  -26.8226   19.0732 O   0  0  0  0  0  0  0  0  0  0  0  0
  -31.7428  -14.7532   20.3721 O   0  0  0  0  0  0  0  0  0  0  0  0
  -21.1696  -10.0002   14.3742 O   0  0  0  0  0  0  0  0  0  0  0  0
  -27.0753  -25.5147   18.8037 O   0  0  0  0  0  0  0  0  0  1  0  0
  -23.3600   -8.7312    9.4756 F   0  0  0  0  0  0  0  0  0  0  0  0
  -23.4237   -8.4095   14.1977 F   0  0  0  0  0  0  0  0  0  0  0  0
  1  2  1  0  0  0  0
  1  5  2  0  0  0  0
  2  6  2  0  0  0  0
  3  8  2  0  0  0  0
  3 17  1  0  0  0  0
  4  9  1  0  0  0  0
  4 17  2  0  0  0  0
  5 20  1  0  0  0  0
  6 22  1  0  0  0  0
  7 10  2  0  0  0  0
  7 21  1  0  0  0  0
  8 27  1  0  0  0  0
  9 27  2  0  0  0  0
 10 28  1  0  0  0  0
 11 12  2  0  0  0  0
 11 29  1  0  0  0  0
 12 30  1  0  0  0  0
 13 23  1  0  0  0  0
 13 28  2  0  0  0  0
 14 24  2  0  0  0  0
 14 25  1  0  0  0  0
 15 25  2  0  0  0  0
 15 26  1  0  0  0  0
 16 30  2  0  0  0  0
 16 31  1  0  0  0  0
 17 32  1  0  0  0  0
 18 24  1  0  0  0  0
 18 26  2  0  0  0  0
 18 34  1  0  0  0  0
 19 32  1  0  0  0  0
 19 33  2  0  0  0  0
 19 35  1  0  0  0  0
 20 22  2  0  0  0  0
 20 41  1  0  0  0  0
 21 23  2  0  0  0  0
 21 42  1  0  0  0  0
 22 50  1  0  0  0  0
 23 43  1  0  0  0  0
 24 53  1  0  0  0  0
 25 70  1  0  0  0  0
 26 67  1  0  0  0  0
 27 82  1  0  0  0  0
 28 83  1  0  0  0  0
 29 31  2  0  0  0  0
 29 82  1  0  0  0  0
 30 84  1  0  0  0  0
 31 85  1  0  0  0  0
 32 63  2  0  0  0  0
 33 64  1  0  0  0  0
 33 68  1  0  0  0  0
 34 71  1  0  0  0  0
 34 75  2  0  0  0  0
 35 69  1  0  0  0  0
 35 76  2  0  0  0  0
 36 51  1  0  0  0  0
 36 72  1  0  0  0  0
 36 77  2  0  0  0  0
 37 60  1  0  0  0  0
 37 65  1  0  0  0  0
 37 78  2  0  0  0  0
 38 59  1  0  0  0  0
 38 70  1  0  0  0  0
 38 79  2  0  0  0  0
 39 61  1  0  0  0  0
 39 73  1  0  0  0  0
 39 80  2  0  0  0  0
 40 66  1  0  0  0  0
 40 71  1  0  0  0  0
 40 81  2  0  0  0  0
 41 44  1  0  0  0  0
 42 51  1  0  0  0  0
 43 65  1  0  0  0  0
 44 46  1  0  0  0  0
 45 47  1  0  0  0  0
 45 48  1  0  0  0  0
 46 50  1  0  0  0  0
 47 52  1  0  0  0  0
 48 66  1  0  0  0  0
 49 52  1  0  0  0  0
 49 66  1  0  0  0  0
 50 72  1  0  0  0  0
 51 65  1  0  0  0  0
 52 64  1  0  0  0  0
 54 61  1  0  0  0  0
 55 62  1  0  0  0  0
 56 62  1  0  0  0  0
 57 62  1  0  0  0  0
 58 74  1  0  0  0  0
 59 83  1  0  0  0  0
 60 62  1  0  0  0  0
 60 73  1  0  0  0  0
 61 74  1  0  0  0  0
 63 64  1  0  0  0  0
M  CHG  1  74   1
M  ISO  4  40 100  59 101  71 100  83 101
M  END
> <Batch ID>
0092

> <Smiles>
CNC(C)C(=O)NC(C(=O)N1Cc2cc([101O:1][101CH2:1]C(=O)Nc3cc(C)c(C(=O)[100NH:0][100C:0](=O)N4CCCC(n5nc(-c6ccc(Oc7ccc(F)cc7F)cc6)c(C(N)=O)c5N)C4)c(N)c3)ccc2CC1C(=O)NC1CCCc2ccccc21)C(C)(C)C

> <Shape>
0.281

> <Color>
0.120

> <Negative vol penalty>
0.000

$$$$

  -OEChem-04052300343D

 82 90  0     1  0  0  0  0  0999 V2000
  -24.2065   -6.7418   23.9062 C   0  0  0  0  0  0  0  0  0  0  0  0
  -25.3780   -7.4862   23.8121 C   0  0  0  0  0  0  0  0  0  0  0  0
  -23.7693  -33.1014   22.1176 C   0  0  0  0  0  0  0  0  0  0  0  0
  -25.7478  -32.3325   23.2715 C   0  0  0  0  0  0  0  0  0  0  0  0
  -23.1209   -7.0460   23.0860 C   0  0  0  0  0  0  0  0  0  0  0  0
  -25.4650   -8.5345   22.8968 C   0  0  0  0  0  0  0  0  0  0  0  0
  -28.4907  -14.9727   22.0531 C   0  0  0  0  0  0  0  0  0  0  0  0
  -27.6724  -23.4196   19.8538 C   0  0  0  0  0  0  0  0  0  0  0  0
  -23.8009  -34.2863   22.8529 C   0  0  0  0  0  0  0  0  0  0  0  0
  -25.7794  -33.5174   24.0068 C   0  0  0  0  0  0  0  0  0  0  0  0
  -29.2749  -15.6836   21.1458 C   0  0  0  0  0  0  0  0  0  0  0  0
  -28.6649  -22.4519   19.6989 C   0  0  0  0  0  0  0  0  0  0  0  0
  -25.5102  -37.2033   22.8042 C   0  0  0  0  0  0  0  0  0  0  0  0
  -25.3127  -38.3996   22.1146 C   0  0  0  0  0  0  0  0  0  0  0  0
  -27.3083  -16.1689   19.8356 C   0  0  0  0  0  0  0  0  0  0  0  0
  -26.4189  -21.9089   21.2622 C   0  0  0  0  0  0  0  0  0  0  0  0
  -23.3737  -38.8656   23.4786 C   0  0  0  0  0  0  0  0  0  0  0  0
  -24.7427  -32.1245   22.3269 C   0  0  0  0  0  0  0  0  0  0  0  0
  -25.3345  -30.6496   20.3313 C   0  0  0  0  0  0  0  0  0  0  0  0
  -23.1912   -8.1048   22.1669 C   0  0  0  0  0  0  0  0  0  0  0  0
  -27.1087  -14.8450   21.8524 C   0  0  0  0  0  0  0  0  0  0  0  0
  -24.3797   -8.8523   22.0625 C   0  0  0  0  0  0  0  0  0  0  0  0
  -26.5084  -15.4579   20.7433 C   0  0  0  0  0  0  0  0  0  0  0  0
  -26.5494  -23.1482   20.6355 C   0  0  0  0  0  0  0  0  0  0  0  0
  -27.4114  -20.9410   21.1073 C   0  0  0  0  0  0  0  0  0  0  0  0
  -24.8060  -34.4943   23.7975 C   0  0  0  0  0  0  0  0  0  0  0  0
  -28.6842  -16.2794   20.0353 C   0  0  0  0  0  0  0  0  0  0  0  0
  -28.5344  -21.2126   20.3256 C   0  0  0  0  0  0  0  0  0  0  0  0
  -24.6394  -36.8381   23.8308 C   0  0  0  0  0  0  0  0  0  0  0  0
  -24.2445  -39.2308   22.4518 C   0  0  0  0  0  0  0  0  0  0  0  0
  -23.5712  -37.6693   24.1681 C   0  0  0  0  0  0  0  0  0  0  0  0
  -24.7103  -30.9001   21.5680 C   0  0  0  0  0  0  0  0  0  0  0  0
  -25.0026  -29.3500   20.0361 C   0  0  0  0  0  0  0  0  0  0  0  0
  -26.1422  -31.5145   19.5218 C   0  0  0  0  0  0  0  0  0  0  0  0
  -25.1268  -12.4056   21.3780 C   0  0  0  0  0  0  0  0  0  0  0  0
  -22.8569  -14.7120   21.6026 C   0  0  0  0  0  0  0  0  0  0  0  0
  -22.0440  -18.0144   21.3188 C   0  0  0  0  0  0  0  0  0  0  0  0
  -24.3653  -24.0251   21.5337 C   0  0  0  0  0  0  0  0  0  0  0  0
  -22.0084   -8.3657   21.2683 C   0  0  0  0  0  0  0  0  0  0  0  0
  -26.2727  -14.0974   22.8547 C   0  0  0  0  0  0  0  0  0  0  0  0
  -25.0260  -15.3676   20.4931 C   0  0  0  0  0  0  0  0  0  0  0  0
  -22.0504   -9.7313   20.5873 C   0  0  0  0  0  0  0  0  0  0  0  0
  -21.6527  -26.2329   22.2004 C   0  0  0  0  0  0  0  0  0  0  0  0
  -23.4340   -9.9931   20.0009 C   0  0  0  0  0  0  0  0  0  0  0  0
  -22.2577  -27.6234   21.9936 C   0  0  0  0  0  0  0  0  0  0  0  0
  -22.6524  -25.2682   22.8358 C   0  0  0  0  0  0  0  0  0  0  0  0
  -24.5490  -26.5586   21.9376 C   0  0  0  0  0  0  0  0  0  0  0  0
  -24.5039  -10.0129   21.0993 C   0  0  1  0  0  0  0  0  0  0  0  0
  -24.9525  -13.5969   22.2769 C   0  0  1  0  0  0  0  0  0  0  0  0
  -23.6003  -27.5474   21.2405 C   0  0  2  0  0  0  0  0  0  0  0  0
  -20.1023  -19.5902   21.5285 C   0  0  0  0  0  0  0  0  0  0  0  0
  -21.7798  -13.7380   18.9191 C   0  0  0  0  0  0  0  0  0  0  0  0
  -20.5007  -15.8822   18.7331 C   0  0  0  0  0  0  0  0  0  0  0  0
  -20.0219  -14.3046   20.6052 C   0  0  0  0  0  0  0  0  0  0  0  0
  -23.3660  -19.5395   23.4834 C   0  0  0  0  0  0  0  0  0  0  0  0
  -30.9300  -18.8497   18.8262 C   0  0  0  0  0  0  0  0  0  0  0  0
  -30.6144  -17.6166   19.6583 C   0  0  0  0  0  0  0  0  0  1  0  0
  -29.7829  -19.8479   18.8308 C   0  0  0  0  0  0  0  0  0  0  0  0
  -22.1711  -15.6359   20.6253 C   0  0  1  0  0  0  0  0  0  0  0  0
  -21.2810  -18.9469   22.2423 C   0  0  2  0  0  0  0  0  0  0  0  0
  -21.1467  -14.8905   19.7241 C   0  0  0  0  0  0  0  0  0  0  0  0
  -24.0329  -29.8443   22.0269 N   0  0  0  0  0  0  0  0  0  0  0  0
  -24.2295  -28.9179   21.0734 N   0  0  0  0  0  0  0  0  0  0  0  0
  -24.2521  -14.6205   21.4983 N   0  0  0  0  0  0  0  0  0  0  0  0
  -23.8982  -25.2453   22.0663 N   0  0  0  0  0  0  0  0  0  0  0  0
  -27.2667  -19.6909   21.7474 N   0  0  0  0  0  0  0  0  0  0  0  0
  -25.2993  -28.5460   18.9930 N   0  0  0  0  0  0  0  0  0  0  0  0
  -26.3846  -32.8188   19.9738 N   0  0  0  0  0  0  0  0  0  0  0  0
  -25.5420  -24.1321   20.7931 N   0  0  0  0  0  0  0  0  0  0  0  0
  -24.4707  -11.2706   21.8146 N   0  0  0  0  0  0  0  0  0  0  0  0
  -21.5941  -16.7149   21.4197 N   0  0  0  0  0  0  0  0  0  0  0  0
  -22.1762  -20.0291   22.7406 N   0  3  0  0  0  0  0  0  0  0  0  0
  -26.6208  -31.1469   18.4221 O   0  0  0  0  0  0  0  0  0  0  0  0
  -25.8051  -12.5090   20.3626 O   0  0  0  0  0  0  0  0  0  0  0  0
  -22.1804  -14.0998   22.4327 O   0  0  0  0  0  0  0  0  0  0  0  0
  -22.9463  -18.4008   20.5791 O   0  0  0  0  0  0  0  0  0  0  0  0
  -23.7509  -22.9679   21.6978 O   0  0  0  0  0  0  0  0  0  0  0  0
  -24.8373  -35.6505   24.5150 O   0  0  0  0  0  0  0  0  0  0  0  0
  -29.4474  -16.9734   19.1477 O   0  0  0  0  0  0  0  0  0  1  0  0
  -29.5206  -20.2751   20.1606 O   0  0  0  0  0  0  0  0  0  0  0  0
  -24.0558  -40.3803   21.7906 F   0  0  0  0  0  0  0  0  0  0  0  0
  -22.7320  -37.3243   25.1543 F   0  0  0  0  0  0  0  0  0  0  0  0
  1  2  1  0  0  0  0
  1  5  2  0  0  0  0
  2  6  2  0  0  0  0
  3  9  2  0  0  0  0
  3 18  1  0  0  0  0
  4 10  1  0  0  0  0
  4 18  2  0  0  0  0
  5 20  1  0  0  0  0
  6 22  1  0  0  0  0
  7 11  2  0  0  0  0
  7 21  1  0  0  0  0
  8 12  2  0  0  0  0
  8 24  1  0  0  0  0
  9 26  1  0  0  0  0
 10 26  2  0  0  0  0
 11 27  1  0  0  0  0
 12 28  1  0  0  0  0
 13 14  2  0  0  0  0
 13 29  1  0  0  0  0
 14 30  1  0  0  0  0
 15 23  1  0  0  0  0
 15 27  2  0  0  0  0
 16 24  2  0  0  0  0
 16 25  1  0  0  0  0
 17 30  2  0  0  0  0
 17 31  1  0  0  0  0
 18 32  1  0  0  0  0
 19 32  1  0  0  0  0
 19 33  2  0  0  0  0
 19 34  1  0  0  0  0
 20 22  2  0  0  0  0
 20 39  1  0  0  0  0
 21 23  2  0  0  0  0
 21 40  1  0  0  0  0
 22 48  1  0  0  0  0
 23 41  1  0  0  0  0
 24 69  1  0  0  0  0
 25 28  2  0  0  0  0
 25 66  1  0  0  0  0
 26 78  1  0  0  0  0
 27 79  1  0  0  0  0
 28 80  1  0  0  0  0
 29 31  2  0  0  0  0
 29 78  1  0  0  0  0
 30 81  1  0  0  0  0
 31 82  1  0  0  0  0
 32 62  2  0  0  0  0
 33 63  1  0  0  0  0
 33 67  1  0  0  0  0
 34 68  1  0  0  0  0
 34 73  2  0  0  0  0
 35 49  1  0  0  0  0
 35 70  1  0  0  0  0
 35 74  2  0  0  0  0
 36 59  1  0  0  0  0
 36 64  1  0  0  0  0
 36 75  2  0  0  0  0
 37 60  1  0  0  0  0
 37 71  1  0  0  0  0
 37 76  2  0  0  0  0
 38 65  1  0  0  0  0
 38 69  1  0  0  0  0
 38 77  2  0  0  0  0
 39 42  1  0  0  0  0
 40 49  1  0  0  0  0
 41 64  1  0  0  0  0
 42 44  1  0  0  0  0
 43 45  1  0  0  0  0
 43 46  1  0  0  0  0
 44 48  1  0  0  0  0
 45 50  1  0  0  0  0
 46 65  1  0  0  0  0
 47 50  1  0  0  0  0
 47 65  1  0  0  0  0
 48 70  1  0  0  0  0
 49 64  1  0  0  0  0
 50 63  1  0  0  0  0
 51 60  1  0  0  0  0
 52 61  1  0  0  0  0
 53 61  1  0  0  0  0
 54 61  1  0  0  0  0
 55 72  1  0  0  0  0
 56 57  1  0  0  0  0
 56 58  1  0  0  0  0
 57 79  1  0  0  0  0
 58 80  1  0  0  0  0
 59 61  1  0  0  0  0
 59 71  1  0  0  0  0
 60 72  1  0  0  0  0
 62 63  1  0  0  0  0
M  CHG  1  72   1
M  ISO  4  38 100  57 101  69 100  79 101
M  END
> <Batch ID>
0092

> <Smiles>
CNC(C)C(=O)NC(C(=O)N1Cc2cc([101O:1][101CH2:1]CCOc3ccc([100NH:0][100C:0](=O)N4CCCC(n5nc(-c6ccc(Oc7ccc(F)cc7F)cc6)c(C(N)=O)c5N)C4)cc3N)ccc2CC1C(=O)NC1CCCc2ccccc21)C(C)(C)C

> <Shape>
0.243

> <Color>
0.067

> <Negative vol penalty>
0.000

$$$$

  -OEChem-04052300343D

 86 94  0     1  0  0  0  0  0999 V2000
  -17.2467  -30.7168   23.8375 C   0  0  0  0  0  0  0  0  0  0  0  0
  -18.5925  -31.0580   23.7492 C   0  0  0  0  0  0  0  0  0  0  0  0
  -19.8738  -16.9360   18.5039 C   0  0  0  0  0  0  0  0  0  0  0  0
  -19.3432  -15.4131   20.3028 C   0  0  0  0  0  0  0  0  0  0  0  0
  -16.8428  -29.4066   23.5842 C   0  0  0  0  0  0  0  0  0  0  0  0
  -19.5354  -30.0888   23.4085 C   0  0  0  0  0  0  0  0  0  0  0  0
  -25.7542  -29.3276   19.9351 C   0  0  0  0  0  0  0  0  0  0  0  0
  -18.5909  -16.7678   17.9830 C   0  0  0  0  0  0  0  0  0  0  0  0
  -18.0602  -15.2449   19.7820 C   0  0  0  0  0  0  0  0  0  0  0  0
  -27.0363  -28.8129   20.1221 C   0  0  0  0  0  0  0  0  0  0  0  0
  -16.9309  -14.4672   16.1456 C   0  0  0  0  0  0  0  0  0  0  0  0
  -16.8115  -14.2688   14.7701 C   0  0  0  0  0  0  0  0  0  0  0  0
  -26.2132  -26.5997   19.6288 C   0  0  0  0  0  0  0  0  0  0  0  0
  -28.2354  -21.2041   21.7309 C   0  0  0  0  0  0  0  0  0  0  0  0
  -29.6576  -21.8151   19.8760 C   0  0  0  0  0  0  0  0  0  0  0  0
  -15.4542  -16.2603   14.6007 C   0  0  0  0  0  0  0  0  0  0  0  0
  -20.2500  -16.2586   19.6638 C   0  0  0  0  0  0  0  0  0  0  0  0
  -29.2618  -19.4853   20.3784 C   0  0  0  0  0  0  0  0  0  0  0  0
  -21.9929  -17.3942   21.1404 C   0  0  0  0  0  0  0  0  0  0  0  0
  -17.7801  -28.4231   23.2308 C   0  0  0  0  0  0  0  0  0  0  0  0
  -24.6880  -28.4793   19.6037 C   0  0  0  0  0  0  0  0  0  0  0  0
  -19.1439  -28.7639   23.1515 C   0  0  0  0  0  0  0  0  0  0  0  0
  -24.9190  -27.1065   19.4357 C   0  0  0  0  0  0  0  0  0  0  0  0
  -28.8414  -22.1844   20.9452 C   0  0  0  0  0  0  0  0  0  0  0  0
  -28.4456  -19.8546   21.4476 C   0  0  0  0  0  0  0  0  0  0  0  0
  -17.6840  -15.9223   18.6221 C   0  0  0  0  0  0  0  0  0  0  0  0
  -27.2654  -27.4483   19.9718 C   0  0  0  0  0  0  0  0  0  0  0  0
  -16.3119  -15.5621   16.7487 C   0  0  0  0  0  0  0  0  0  0  0  0
  -16.0732  -15.1654   13.9977 C   0  0  0  0  0  0  0  0  0  0  0  0
  -29.8679  -20.4656   19.5926 C   0  0  0  0  0  0  0  0  0  0  0  0
  -15.5735  -16.4587   15.9762 C   0  0  0  0  0  0  0  0  0  0  0  0
  -21.5754  -16.4315   20.2020 C   0  0  0  0  0  0  0  0  0  0  0  0
  -23.3306  -17.1401   21.3209 C   0  0  0  0  0  0  0  0  0  0  0  0
  -29.5020  -18.0560   20.0524 C   0  0  0  0  0  0  0  0  0  0  0  0
  -21.2390  -18.4259   21.7907 C   0  0  0  0  0  0  0  0  0  0  0  0
  -21.9386  -27.6863   20.9878 C   0  0  0  0  0  0  0  0  0  0  0  0
  -21.4410  -26.1030   18.2008 C   0  0  0  0  0  0  0  0  0  0  0  0
  -22.7778  -24.6068   15.4401 C   0  0  0  0  0  0  0  0  0  0  0  0
  -29.1444  -24.6531   20.5544 C   0  0  0  0  0  0  0  0  0  0  0  0
  -28.3770  -15.9637   19.3594 C   0  0  0  0  0  0  0  0  0  0  0  0
  -17.3017  -27.0096   23.0124 C   0  0  0  0  0  0  0  0  0  0  0  0
  -23.3162  -29.0540   19.3792 C   0  0  0  0  0  0  0  0  0  0  0  0
  -23.8123  -26.1562   19.0606 C   0  0  0  0  0  0  0  0  0  0  0  0
  -18.3175  -26.1273   22.2913 C   0  0  0  0  0  0  0  0  0  0  0  0
  -26.1778  -13.2330   19.8104 C   0  0  0  0  0  0  0  0  0  0  0  0
  -19.7041  -26.3002   22.9030 C   0  0  0  0  0  0  0  0  0  0  0  0
  -24.8178  -13.8984   20.0381 C   0  0  0  0  0  0  0  0  0  0  0  0
  -27.0089  -13.9821   18.7698 C   0  0  0  0  0  0  0  0  0  0  0  0
  -25.8136  -16.0807   19.2445 C   0  0  0  0  0  0  0  0  0  0  0  0
  -20.1936  -27.7464   22.7605 C   0  0  1  0  0  0  0  0  0  0  0  0
  -22.2024  -28.0252   19.5480 C   0  0  1  0  0  0  0  0  0  0  0  0
  -24.9673  -15.4041   20.3349 C   0  0  1  0  0  0  0  0  0  0  0  0
  -22.1218  -23.3681   13.3586 C   0  0  0  0  0  0  0  0  0  0  0  0
  -29.6696  -26.4783   22.2134 C   0  0  0  0  0  0  0  0  0  0  0  0
  -20.8953  -23.6034   19.8633 C   0  0  0  0  0  0  0  0  0  0  0  0
  -21.1897  -22.2407   17.7837 C   0  0  0  0  0  0  0  0  0  0  0  0
  -19.3521  -23.9220   17.9213 C   0  0  0  0  0  0  0  0  0  0  0  0
  -23.9831  -26.6695   13.6932 C   0  0  0  0  0  0  0  0  0  0  0  0
  -21.7421  -24.7140   17.6918 C   0  0  1  0  0  0  0  0  0  0  0  0
  -22.4376  -24.7263   13.9655 C   0  0  2  0  0  0  0  0  0  0  0  0
  -28.6775  -25.9647   21.1804 C   0  0  1  0  0  0  0  0  0  1  0  0
  -20.8155  -23.6374   18.3240 C   0  0  0  0  0  0  0  0  0  0  0  0
  -22.5675  -15.6260   19.8134 N   0  0  0  0  0  0  0  0  0  0  0  0
  -23.6217  -16.0821   20.5110 N   0  0  0  0  0  0  0  0  0  0  0  0
  -22.4874  -26.7653   18.8581 N   0  0  0  0  0  0  0  0  0  0  0  0
  -27.1110  -15.3978   19.1286 N   0  0  0  0  0  0  0  0  0  0  0  0
  -27.8223  -18.8774   22.2557 N   0  0  0  0  0  0  0  0  0  0  0  0
  -24.2745  -17.7208   22.0919 N   0  0  0  0  0  0  0  0  0  0  0  0
  -19.8755  -18.5473   21.4903 N   0  0  0  0  0  0  0  0  0  0  0  0
  -28.6293  -23.5536   21.2333 N   0  0  0  0  0  0  0  0  0  0  0  0
  -28.3652  -17.3108   19.7378 N   0  0  0  0  0  0  0  0  0  0  0  0
  -20.6596  -27.9917   21.4125 N   0  0  0  0  0  0  0  0  0  0  0  0
  -21.6669  -24.7872   16.2367 N   0  0  0  0  0  0  0  0  0  0  0  0
  -23.5807  -25.3212   13.2168 N   0  3  0  0  0  0  0  0  0  0  0  0
  -30.6540  -17.6311   20.0388 O   0  0  0  0  0  0  0  0  0  0  0  0
  -21.7628  -19.2271   22.6015 O   0  0  0  0  0  0  0  0  0  0  0  0
  -22.8290  -27.1836   21.6632 O   0  0  0  0  0  0  0  0  0  0  0  0
  -20.3209  -26.5854   18.0154 O   0  0  0  0  0  0  0  0  0  0  0  0
  -23.9145  -24.3729   15.8447 O   0  0  0  0  0  0  0  0  0  0  0  0
  -29.8706  -24.6433   19.5647 O   0  0  0  0  0  0  0  0  0  0  0  0
  -29.4250  -15.3161   19.2733 O   0  0  0  0  0  0  0  0  0  0  0  0
  -16.4320  -15.7581   18.1143 O   0  0  0  0  0  0  0  0  0  0  0  0
  -28.5158  -26.9432   20.1544 O   0  0  0  0  0  0  0  0  0  1  0  0
  -15.9599  -14.9756   12.6766 F   0  0  0  0  0  0  0  0  0  0  0  0
  -30.6535  -20.1233   18.5616 F   0  0  0  0  0  0  0  0  0  0  0  0
  -14.9776  -17.5130   16.5498 F   0  0  0  0  0  0  0  0  0  0  0  0
  1  2  1  0  0  0  0
  1  5  2  0  0  0  0
  2  6  2  0  0  0  0
  3  8  2  0  0  0  0
  3 17  1  0  0  0  0
  4  9  1  0  0  0  0
  4 17  2  0  0  0  0
  5 20  1  0  0  0  0
  6 22  1  0  0  0  0
  7 10  2  0  0  0  0
  7 21  1  0  0  0  0
  8 26  1  0  0  0  0
  9 26  2  0  0  0  0
 10 27  1  0  0  0  0
 11 12  2  0  0  0  0
 11 28  1  0  0  0  0
 12 29  1  0  0  0  0
 13 23  1  0  0  0  0
 13 27  2  0  0  0  0
 14 24  1  0  0  0  0
 14 25  2  0  0  0  0
 15 24  2  0  0  0  0
 15 30  1  0  0  0  0
 16 29  2  0  0  0  0
 16 31  1  0  0  0  0
 17 32  1  0  0  0  0
 18 25  1  0  0  0  0
 18 30  2  0  0  0  0
 18 34  1  0  0  0  0
 19 32  1  0  0  0  0
 19 33  2  0  0  0  0
 19 35  1  0  0  0  0
 20 22  2  0  0  0  0
 20 41  1  0  0  0  0
 21 23  2  0  0  0  0
 21 42  1  0  0  0  0
 22 50  1  0  0  0  0
 23 43  1  0  0  0  0
 24 70  1  0  0  0  0
 25 67  1  0  0  0  0
 26 82  1  0  0  0  0
 27 83  1  0  0  0  0
 28 31  2  0  0  0  0
 28 82  1  0  0  0  0
 29 84  1  0  0  0  0
 30 85  1  0  0  0  0
 31 86  1  0  0  0  0
 32 63  2  0  0  0  0
 33 64  1  0  0  0  0
 33 68  1  0  0  0  0
 34 71  1  0  0  0  0
 34 75  2  0  0  0  0
 35 69  1  0  0  0  0
 35 76  2  0  0  0  0
 36 51  1  0  0  0  0
 36 72  1  0  0  0  0
 36 77  2  0  0  0  0
 37 59  1  0  0  0  0
 37 65  1  0  0  0  0
 37 78  2  0  0  0  0
 38 60  1  0  0  0  0
 38 73  1  0  0  0  0
 38 79  2  0  0  0  0
 39 61  1  0  0  0  0
 39 70  1  0  0  0  0
 39 80  2  0  0  0  0
 40 66  1  0  0  0  0
 40 71  1  0  0  0  0
 40 81  2  0  0  0  0
 41 44  1  0  0  0  0
 42 51  1  0  0  0  0
 43 65  1  0  0  0  0
 44 46  1  0  0  0  0
 45 47  1  0  0  0  0
 45 48  1  0  0  0  0
 46 50  1  0  0  0  0
 47 52  1  0  0  0  0
 48 66  1  0  0  0  0
 49 52  1  0  0  0  0
 49 66  1  0  0  0  0
 50 72  1  0  0  0  0
 51 65  1  0  0  0  0
 52 64  1  0  0  0  0
 53 60  1  0  0  0  0
 54 61  1  0  0  0  0
 55 62  1  0  0  0  0
 56 62  1  0  0  0  0
 57 62  1  0  0  0  0
 58 74  1  0  0  0  0
 59 62  1  0  0  0  0
 59 73  1  0  0  0  0
 60 74  1  0  0  0  0
 61 83  1  0  0  0  0
 63 64  1  0  0  0  0
M  CHG  1  74   1
M  ISO  4  40 100  61 101  71 100  83 101
M  END
> <Batch ID>
0092

> <Smiles>
CNC(C)C(=O)NC(C(=O)N1Cc2cc([101O:1][101CH:1](C)C(=O)Nc3cc(N)c(C(=O)[100NH:0][100C:0](=O)N4CCCC(n5nc(-c6ccc(Oc7ccc(F)cc7F)cc6)c(C(N)=O)c5N)C4)c(F)c3)ccc2CC1C(=O)NC1CCCc2ccccc21)C(C)(C)C

> <Shape>
0.208

> <Color>
0.083

> <Negative vol penalty>
0.000

$$$$

  -OEChem-04052300343D

 85 94  0     1  0  0  0  0  0999 V2000
  -23.7733  -35.4992   21.1760 C   0  0  0  0  0  0  0  0  0  0  0  0
  -24.6938  -34.4563   21.1940 C   0  0  0  0  0  0  0  0  0  0  0  0
  -24.4517  -12.0600   19.5732 C   0  0  0  0  0  0  0  0  0  0  0  0
  -25.4097  -12.0624   21.7912 C   0  0  0  0  0  0  0  0  0  0  0  0
  -22.5438  -35.3533   21.8171 C   0  0  0  0  0  0  0  0  0  0  0  0
  -24.3858  -33.2673   21.8542 C   0  0  0  0  0  0  0  0  0  0  0  0
  -25.6123  -29.1677   19.1460 C   0  0  0  0  0  0  0  0  0  0  0  0
  -24.7529  -10.7041   19.4446 C   0  0  0  0  0  0  0  0  0  0  0  0
  -25.7109  -10.7065   21.6626 C   0  0  0  0  0  0  0  0  0  0  0  0
  -26.9565  -28.7984   19.1232 C   0  0  0  0  0  0  0  0  0  0  0  0
  -26.4070   -7.1602   22.0593 C   0  0  0  0  0  0  0  0  0  0  0  0
  -26.1155   -6.3253   23.1379 C   0  0  0  0  0  0  0  0  0  0  0  0
  -29.6233  -22.6794   16.9362 C   0  0  0  0  0  0  0  0  0  0  0  0
  -30.1169  -21.6172   14.8231 C   0  0  0  0  0  0  0  0  0  0  0  0
  -26.5149  -27.1106   20.7891 C   0  0  0  0  0  0  0  0  0  0  0  0
  -31.0395  -23.7926   15.3262 C   0  0  0  0  0  0  0  0  0  0  0  0
  -23.7805   -6.9224   22.9690 C   0  0  0  0  0  0  0  0  0  0  0  0
  -24.7802  -12.7392   20.7465 C   0  0  0  0  0  0  0  0  0  0  0  0
  -29.4803  -21.6002   16.0642 C   0  0  0  0  0  0  0  0  0  0  0  0
  -23.2854  -14.7033   21.3909 C   0  0  0  0  0  0  0  0  0  0  0  0
  -22.2167  -34.1584   22.4772 C   0  0  0  0  0  0  0  0  0  0  0  0
  -24.7099  -28.5174   20.0000 C   0  0  0  0  0  0  0  0  0  0  0  0
  -23.1513  -33.1058   22.5058 C   0  0  0  0  0  0  0  0  0  0  0  0
  -25.1592  -27.4718   20.8191 C   0  0  0  0  0  0  0  0  0  0  0  0
  -30.4029  -23.7757   16.5672 C   0  0  0  0  0  0  0  0  0  0  0  0
  -30.8965  -22.7134   14.4541 C   0  0  0  0  0  0  0  0  0  0  0  0
  -25.3824  -10.0274   20.4893 C   0  0  0  0  0  0  0  0  0  0  0  0
  -27.4085  -27.7716   19.9469 C   0  0  0  0  0  0  0  0  0  0  0  0
  -25.3853   -7.8764   21.4355 C   0  0  0  0  0  0  0  0  0  0  0  0
  -24.8022   -6.2063   23.5928 C   0  0  0  0  0  0  0  0  0  0  0  0
  -24.0721   -7.7574   21.8904 C   0  0  0  0  0  0  0  0  0  0  0  0
  -24.4699  -14.1399   20.8797 C   0  0  0  0  0  0  0  0  0  0  0  0
  -23.4850  -16.0595   21.3042 C   0  0  0  0  0  0  0  0  0  0  0  0
  -30.0432  -25.0700   18.6684 C   0  0  0  0  0  0  0  0  0  0  0  0
  -28.6666  -20.4574   16.4485 C   0  0  0  0  0  0  0  0  0  0  0  0
  -27.7149  -20.4603   17.4061 C   0  0  0  0  0  0  0  0  0  0  0  0
  -22.1099  -14.0585   21.8989 C   0  0  0  0  0  0  0  0  0  0  0  0
  -26.9641  -19.2172   17.6741 C   0  0  0  0  0  0  0  0  0  0  0  0
  -22.8735  -29.4220   22.4316 C   0  0  0  0  0  0  0  0  0  0  0  0
  -21.7772  -26.3758   22.2294 C   0  0  0  0  0  0  0  0  0  0  0  0
  -22.3392  -23.1529   21.2578 C   0  0  0  0  0  0  0  0  0  0  0  0
  -20.8942  -34.0648   23.1963 C   0  0  0  0  0  0  0  0  0  0  0  0
  -23.2578  -28.9097   19.9932 C   0  0  0  0  0  0  0  0  0  0  0  0
  -24.2268  -26.7284   21.7391 C   0  0  0  0  0  0  0  0  0  0  0  0
  -20.4952  -32.6354   23.5539 C   0  0  0  0  0  0  0  0  0  0  0  0
  -26.9319  -19.3569   21.3363 C   0  0  0  0  0  0  0  0  0  0  0  0
  -21.6733  -31.8919   24.1755 C   0  0  0  0  0  0  0  0  0  0  0  0
  -26.2223  -18.0483   21.6738 C   0  0  0  0  0  0  0  0  0  0  0  0
  -27.8007  -19.2301   20.0858 C   0  0  0  0  0  0  0  0  0  0  0  0
  -31.0428  -26.1903   17.1975 C   0  0  0  0  0  0  0  0  0  0  0  0
  -26.3514  -17.4099   19.2333 C   0  0  0  0  0  0  0  0  0  0  0  0
  -22.8440  -31.7915   23.1902 C   0  0  1  0  0  0  0  0  0  0  0  0
  -30.5192  -26.5384   18.6142 C   0  0  1  0  0  0  0  0  0  0  0  0
  -22.5289  -28.5245   21.2769 C   0  0  1  0  0  0  0  0  0  0  0  0
  -25.4348  -17.5276   20.4611 C   0  0  1  0  0  0  0  0  0  0  0  0
  -21.2741  -20.8807   21.2596 C   0  0  0  0  0  0  0  0  0  0  0  0
  -22.4148  -26.0819   25.1987 C   0  0  0  0  0  0  0  0  0  0  0  0
  -22.2416  -23.6000   24.9190 C   0  0  0  0  0  0  0  0  0  0  0  0
  -20.2534  -25.0437   24.4881 C   0  0  0  0  0  0  0  0  0  0  0  0
  -22.3666  -23.0101   18.3018 C   0  0  0  0  0  0  0  0  0  0  0  0
  -29.4233  -27.5832   18.6975 C   0  0  0  0  0  0  0  0  0  1  0  0
  -22.1728  -25.0542   22.8426 C   0  0  1  0  0  0  0  0  0  0  0  0
  -21.4809  -22.1707   20.4812 C   0  0  2  0  0  0  0  0  0  0  0  0
  -21.7889  -24.9600   24.3463 C   0  0  0  0  0  0  0  0  0  0  0  0
  -25.3562  -15.0627   20.4964 N   0  0  0  0  0  0  0  0  0  0  0  0
  -24.7283  -16.2197   20.7669 N   0  0  0  0  0  0  0  0  0  0  0  0
  -30.5448  -24.8402   17.4277 N   0  0  0  0  0  0  0  0  0  0  0  0
  -27.0402  -18.6753   18.9560 N   0  0  0  0  0  0  0  0  0  0  0  0
  -22.8176  -27.1530   21.7011 N   0  0  0  0  0  0  0  0  0  0  0  0
  -31.5404  -22.7306   13.1993 N   0  0  0  0  0  0  0  0  0  0  0  0
  -22.7164  -17.1186   21.6357 N   0  0  0  0  0  0  0  0  0  0  0  0
  -22.0710  -12.6576   21.9164 N   0  0  0  0  0  0  0  0  0  0  0  0
  -22.5925  -30.7567   22.2102 N   0  0  0  0  0  0  0  0  0  0  0  0
  -21.5724  -24.0203   22.0067 N   0  0  0  0  0  0  0  0  0  0  0  0
  -22.1252  -21.8362   19.1797 N   0  3  0  0  0  0  0  0  0  0  0  0
  -29.4343  -24.3797   19.4537 O   0  0  0  0  0  0  0  0  0  0  0  0
  -21.1167  -14.7054   22.3094 O   0  0  0  0  0  0  0  0  0  0  0  0
  -26.3183  -18.7312   16.7439 O   0  0  0  0  0  0  0  0  0  0  0  0
  -23.3571  -28.9391   23.4488 O   0  0  0  0  0  0  0  0  0  0  0  0
  -20.5880  -26.7030   22.2132 O   0  0  0  0  0  0  0  0  0  0  0  0
  -23.5672  -23.1485   21.2082 O   0  0  0  0  0  0  0  0  0  0  0  0
  -25.6762   -8.7043   20.3643 O   0  0  0  0  0  0  0  0  0  0  0  0
  -28.7202  -27.4096   19.9271 O   0  0  0  0  0  0  0  0  0  1  0  0
  -24.5222   -5.4033   24.6276 F   0  0  0  0  0  0  0  0  0  0  0  0
  -23.0861   -8.4419   21.2945 F   0  0  0  0  0  0  0  0  0  0  0  0
  1  2  1  0  0  0  0
  1  5  2  0  0  0  0
  2  6  2  0  0  0  0
  3  8  2  0  0  0  0
  3 18  1  0  0  0  0
  4  9  1  0  0  0  0
  4 18  2  0  0  0  0
  5 21  1  0  0  0  0
  6 23  1  0  0  0  0
  7 10  2  0  0  0  0
  7 22  1  0  0  0  0
  8 27  1  0  0  0  0
  9 27  2  0  0  0  0
 10 28  1  0  0  0  0
 11 12  2  0  0  0  0
 11 29  1  0  0  0  0
 12 30  1  0  0  0  0
 13 19  1  0  0  0  0
 13 25  2  0  0  0  0
 14 19  2  0  0  0  0
 14 26  1  0  0  0  0
 15 24  1  0  0  0  0
 15 28  2  0  0  0  0
 16 25  1  0  0  0  0
 16 26  2  0  0  0  0
 17 30  2  0  0  0  0
 17 31  1  0  0  0  0
 18 32  1  0  0  0  0
 19 35  1  0  0  0  0
 20 32  1  0  0  0  0
 20 33  2  0  0  0  0
 20 37  1  0  0  0  0
 21 23  2  0  0  0  0
 21 42  1  0  0  0  0
 22 24  2  0  0  0  0
 22 43  1  0  0  0  0
 23 52  1  0  0  0  0
 24 44  1  0  0  0  0
 25 67  1  0  0  0  0
 26 70  1  0  0  0  0
 27 82  1  0  0  0  0
 28 83  1  0  0  0  0
 29 31  2  0  0  0  0
 29 82  1  0  0  0  0
 30 84  1  0  0  0  0
 31 85  1  0  0  0  0
 32 65  2  0  0  0  0
 33 66  1  0  0  0  0
 33 71  1  0  0  0  0
 34 53  1  0  0  0  0
 34 67  1  0  0  0  0
 34 76  2  0  0  0  0
 35 36  2  0  0  0  0
 36 38  1  0  0  0  0
 37 72  1  0  0  0  0
 37 77  2  0  0  0  0
 38 68  1  0  0  0  0
 38 78  2  0  0  0  0
 39 54  1  0  0  0  0
 39 73  1  0  0  0  0
 39 79  2  0  0  0  0
 40 62  1  0  0  0  0
 40 69  1  0  0  0  0
 40 80  2  0  0  0  0
 41 63  1  0  0  0  0
 41 74  1  0  0  0  0
 41 81  2  0  0  0  0
 42 45  1  0  0  0  0
 43 54  1  0  0  0  0
 44 69  1  0  0  0  0
 45 47  1  0  0  0  0
 46 48  1  0  0  0  0
 46 49  1  0  0  0  0
 47 52  1  0  0  0  0
 48 55  1  0  0  0  0
 49 68  1  0  0  0  0
 50 53  1  0  0  0  0
 50 67  1  0  0  0  0
 51 55  1  0  0  0  0
 51 68  1  0  0  0  0
 52 73  1  0  0  0  0
 53 61  1  0  0  0  0
 54 69  1  0  0  0  0
 55 66  1  0  0  0  0
 56 63  1  0  0  0  0
 57 64  1  0  0  0  0
 58 64  1  0  0  0  0
 59 64  1  0  0  0  0
 60 75  1  0  0  0  0
 61 83  1  0  0  0  0
 62 64  1  0  0  0  0
 62 74  1  0  0  0  0
 63 75  1  0  0  0  0
 65 66  1  0  0  0  0
M  CHG  1  75   1
M  ISO  4  36 100  38 100  61 101  83 101
M  END
> <Batch ID>
0092

> <Smiles>
CNC(C)C(=O)NC(C(=O)N1Cc2cc([101O:1][101CH2:1]C3CN(c4cc(N)cc(C=[100CH:0][100C:0](=O)N5CCCC(n6nc(-c7ccc(Oc8ccc(F)cc8F)cc7)c(C(N)=O)c6N)C5)c4)C3=O)ccc2CC1C(=O)NC1CCCc2ccccc21)C(C)(C)C

> <Shape>
0.198

> <Color>
0.093

> <Negative vol penalty>
0.000

$$$$

  -OEChem-04052300343D

 85 93  0     1  0  0  0  0  0999 V2000
  -36.5247  -28.8006   18.1718 C   0  0  0  0  0  0  0  0  0  0  0  0
  -35.8057  -27.9178   18.9711 C   0  0  0  0  0  0  0  0  0  0  0  0
  -32.6501  -17.4438   23.4520 C   0  0  0  0  0  0  0  0  0  0  0  0
  -23.0003   -9.8941   19.9813 C   0  0  0  0  0  0  0  0  0  0  0  0
  -23.7254   -9.9454   22.2854 C   0  0  0  0  0  0  0  0  0  0  0  0
  -37.1701  -28.3352   17.0270 C   0  0  0  0  0  0  0  0  0  0  0  0
  -35.7307  -26.5690   18.6254 C   0  0  0  0  0  0  0  0  0  0  0  0
  -36.4544  -23.5038   22.5910 C   0  0  0  0  0  0  0  0  0  0  0  0
  -31.8577  -18.3430   24.1657 C   0  0  0  0  0  0  0  0  0  0  0  0
  -32.0589  -16.5478   22.5613 C   0  0  0  0  0  0  0  0  0  0  0  0
  -22.2335   -8.7598   20.2479 C   0  0  0  0  0  0  0  0  0  0  0  0
  -22.9586   -8.8112   22.5520 C   0  0  0  0  0  0  0  0  0  0  0  0
  -35.3831  -23.3315   23.4665 C   0  0  0  0  0  0  0  0  0  0  0  0
  -23.2021   -5.4721   22.0808 C   0  0  0  0  0  0  0  0  0  0  0  0
  -23.7894   -4.4549   22.8332 C   0  0  0  0  0  0  0  0  0  0  0  0
  -34.8628  -21.2282   22.4062 C   0  0  0  0  0  0  0  0  0  0  0  0
  -22.0655   -4.6986   24.5083 C   0  0  0  0  0  0  0  0  0  0  0  0
  -23.7463  -10.4869   21.0001 C   0  0  0  0  0  0  0  0  0  0  0  0
  -24.1322  -13.0023   20.8235 C   0  0  0  0  0  0  0  0  0  0  0  0
  -37.1111  -26.9782   16.6723 C   0  0  0  0  0  0  0  0  0  0  0  0
  -36.7318  -22.5432   21.6079 C   0  0  0  0  0  0  0  0  0  0  0  0
  -36.3748  -26.0851   17.4740 C   0  0  0  0  0  0  0  0  0  0  0  0
  -35.9398  -21.3894   21.5212 C   0  0  0  0  0  0  0  0  0  0  0  0
  -30.4741  -18.3460   23.9887 C   0  0  0  0  0  0  0  0  0  0  0  0
  -30.6753  -16.5509   22.3843 C   0  0  0  0  0  0  0  0  0  0  0  0
  -22.2126   -8.2184   21.5332 C   0  0  0  0  0  0  0  0  0  0  0  0
  -34.5854  -22.1950   23.3723 C   0  0  0  0  0  0  0  0  0  0  0  0
  -22.0466   -6.1026   22.5422 C   0  0  0  0  0  0  0  0  0  0  0  0
  -23.2211   -4.0681   24.0469 C   0  0  0  0  0  0  0  0  0  0  0  0
  -21.4783   -5.7158   23.7559 C   0  0  0  0  0  0  0  0  0  0  0  0
  -29.8829  -17.4500   23.0980 C   0  0  0  0  0  0  0  0  0  0  0  0
  -24.5390  -11.6582   20.7252 C   0  0  0  0  0  0  0  0  0  0  0  0
  -25.2421  -13.7246   20.4590 C   0  0  0  0  0  0  0  0  0  0  0  0
  -31.1691  -21.7452   24.4079 C   0  0  0  0  0  0  0  0  0  0  0  0
  -32.2853  -21.9151   23.6915 C   0  0  0  0  0  0  0  0  0  1  0  0
  -22.8643  -13.5491   21.2099 C   0  0  0  0  0  0  0  0  0  0  0  0
  -29.8602  -21.6121   23.7065 C   0  0  0  0  0  0  0  0  0  0  0  0
  -36.8031  -22.5417   18.4300 C   0  0  0  0  0  0  0  0  0  0  0  0
  -37.9473  -19.5350   18.8454 C   0  0  0  0  0  0  0  0  0  0  0  0
  -38.1824  -16.7740   20.8376 C   0  0  0  0  0  0  0  0  0  0  0  0
  -30.7218  -14.6845   20.6929 C   0  0  0  0  0  0  0  0  0  0  0  0
  -37.7856  -26.5305   15.3998 C   0  0  0  0  0  0  0  0  0  0  0  0
  -37.9074  -22.7310   20.6885 C   0  0  0  0  0  0  0  0  0  0  0  0
  -36.2079  -20.3186   20.4964 C   0  0  0  0  0  0  0  0  0  0  0  0
  -37.9688  -25.0178   15.3072 C   0  0  0  0  0  0  0  0  0  0  0  0
  -29.6031  -12.2313   18.3675 C   0  0  0  0  0  0  0  0  0  0  0  0
  -36.6804  -24.2993   15.6954 C   0  0  0  0  0  0  0  0  0  0  0  0
  -28.1524  -11.9741   18.7817 C   0  0  0  0  0  0  0  0  0  0  0  0
  -30.5036  -12.4748   19.5773 C   0  0  0  0  0  0  0  0  0  0  0  0
  -28.5884  -13.2644   20.9106 C   0  0  0  0  0  0  0  0  0  0  0  0
  -36.2908  -24.6102   17.1456 C   0  0  1  0  0  0  0  0  0  0  0  0
  -37.7852  -21.9358   19.3923 C   0  0  1  0  0  0  0  0  0  0  0  0
  -27.6307  -13.0780   19.7224 C   0  0  2  0  0  0  0  0  0  0  0  0
  -39.1509  -14.4596   20.8903 C   0  0  0  0  0  0  0  0  0  0  0  0
  -35.7370  -18.5702   16.9763 C   0  0  0  0  0  0  0  0  0  0  0  0
  -36.1458  -16.2440   17.8069 C   0  0  0  0  0  0  0  0  0  0  0  0
  -37.9579  -17.4779   16.6168 C   0  0  0  0  0  0  0  0  0  0  0  0
  -27.8884  -20.2064   23.2455 C   0  0  0  0  0  0  0  0  0  0  0  0
  -39.8595  -17.4041   23.1933 C   0  0  0  0  0  0  0  0  0  0  0  0
  -29.6243  -19.3154   24.7582 C   0  0  0  0  0  0  0  0  0  0  0  0
  -37.3290  -18.1632   18.9678 C   0  0  1  0  0  0  0  0  0  0  0  0
  -39.3720  -15.9224   21.2425 C   0  0  2  0  0  0  0  0  0  0  0  0
  -36.7859  -17.6347   17.6101 C   0  0  0  0  0  0  0  0  0  0  0  0
  -25.8083  -11.5314   20.3291 N   0  0  0  0  0  0  0  0  0  0  0  0
  -26.2086  -12.8050   20.1752 N   0  0  0  0  0  0  0  0  0  0  0  0
  -37.3649  -20.5511   19.6162 N   0  0  0  0  0  0  0  0  0  0  0  0
  -29.9488  -13.5361   20.4203 N   0  0  0  0  0  0  0  0  0  0  0  0
  -25.4759  -15.0502   20.3566 N   0  0  0  0  0  0  0  0  0  0  0  0
  -21.8323  -12.6653   21.5536 N   0  0  0  0  0  0  0  0  0  0  0  0
  -30.0777  -15.6400   21.4783 N   0  0  0  0  0  0  0  0  0  0  0  0
  -37.1026  -23.8399   18.0633 N   0  0  0  0  0  0  0  0  0  0  0  0
  -38.3438  -17.3110   19.5779 N   0  0  0  0  0  0  0  0  0  0  0  0
  -29.1615  -20.4208   23.9217 N   0  0  0  0  0  0  0  0  0  0  0  0
  -39.6046  -16.0223   22.7111 N   0  3  0  0  0  0  0  0  0  0  0  0
  -22.6479  -14.7845   21.2334 O   0  0  0  0  0  0  0  0  0  0  0  0
  -29.4681  -22.5169   22.9680 O   0  0  0  0  0  0  0  0  0  0  0  0
  -35.8454  -21.8799   18.0474 O   0  0  0  0  0  0  0  0  0  0  0  0
  -38.9159  -19.6973   18.0991 O   0  0  0  0  0  0  0  0  0  0  0  0
  -37.2058  -16.9428   21.5645 O   0  0  0  0  0  0  0  0  0  0  0  0
  -31.8605  -14.8230   20.2389 O   0  0  0  0  0  0  0  0  0  0  0  0
  -21.4643   -7.1117   21.7937 O   0  0  0  0  0  0  0  0  0  0  0  0
  -33.5387  -22.0246   24.2251 O   0  0  0  0  0  0  0  0  0  1  0  0
  -23.7843   -3.0903   24.7685 F   0  0  0  0  0  0  0  0  0  0  0  0
  -20.3675   -6.3170   24.2038 F   0  0  0  0  0  0  0  0  0  0  0  0
  -28.5522  -17.4546   22.9273 F   0  0  0  0  0  0  0  0  0  0  0  0
  1  2  1  0  0  0  0
  1  6  2  0  0  0  0
  2  7  2  0  0  0  0
  3  9  2  0  0  0  0
  3 10  1  0  0  0  0
  4 11  2  0  0  0  0
  4 18  1  0  0  0  0
  5 12  1  0  0  0  0
  5 18  2  0  0  0  0
  6 20  1  0  0  0  0
  7 22  1  0  0  0  0
  8 13  2  0  0  0  0
  8 21  1  0  0  0  0
  9 24  1  0  0  0  0
 10 25  2  0  0  0  0
 11 26  1  0  0  0  0
 12 26  2  0  0  0  0
 13 27  1  0  0  0  0
 14 15  2  0  0  0  0
 14 28  1  0  0  0  0
 15 29  1  0  0  0  0
 16 23  1  0  0  0  0
 16 27  2  0  0  0  0
 17 29  2  0  0  0  0
 17 30  1  0  0  0  0
 18 32  1  0  0  0  0
 19 32  1  0  0  0  0
 19 33  2  0  0  0  0
 19 36  1  0  0  0  0
 20 22  2  0  0  0  0
 20 42  1  0  0  0  0
 21 23  2  0  0  0  0
 21 43  1  0  0  0  0
 22 51  1  0  0  0  0
 23 44  1  0  0  0  0
 24 31  2  0  0  0  0
 24 60  1  0  0  0  0
 25 31  1  0  0  0  0
 25 70  1  0  0  0  0
 26 81  1  0  0  0  0
 27 82  1  0  0  0  0
 28 30  2  0  0  0  0
 28 81  1  0  0  0  0
 29 83  1  0  0  0  0
 30 84  1  0  0  0  0
 31 85  1  0  0  0  0
 32 64  2  0  0  0  0
 33 65  1  0  0  0  0
 33 68  1  0  0  0  0
 34 35  2  0  0  0  0
 34 37  1  0  0  0  0
 35 82  1  0  0  0  0
 36 69  1  0  0  0  0
 36 75  2  0  0  0  0
 37 73  1  0  0  0  0
 37 76  2  0  0  0  0
 38 52  1  0  0  0  0
 38 71  1  0  0  0  0
 38 77  2  0  0  0  0
 39 61  1  0  0  0  0
 39 66  1  0  0  0  0
 39 78  2  0  0  0  0
 40 62  1  0  0  0  0
 40 72  1  0  0  0  0
 40 79  2  0  0  0  0
 41 67  1  0  0  0  0
 41 70  1  0  0  0  0
 41 80  2  0  0  0  0
 42 45  1  0  0  0  0
 43 52  1  0  0  0  0
 44 66  1  0  0  0  0
 45 47  1  0  0  0  0
 46 48  1  0  0  0  0
 46 49  1  0  0  0  0
 47 51  1  0  0  0  0
 48 53  1  0  0  0  0
 49 67  1  0  0  0  0
 50 53  1  0  0  0  0
 50 67  1  0  0  0  0
 51 71  1  0  0  0  0
 52 66  1  0  0  0  0
 53 65  1  0  0  0  0
 54 62  1  0  0  0  0
 55 63  1  0  0  0  0
 56 63  1  0  0  0  0
 57 63  1  0  0  0  0
 58 73  1  0  0  0  0
 59 74  1  0  0  0  0
 60 73  1  0  0  0  0
 61 63  1  0  0  0  0
 61 72  1  0  0  0  0
 62 74  1  0  0  0  0
 64 65  1  0  0  0  0
M  CHG  1  74   1
M  ISO  4  35 101  41 100  70 100  82 101
M  END
> <Batch ID>
0092

> <Smiles>
CNC(C)C(=O)NC(C(=O)N1Cc2cc([101O:1][101CH:1]=CC(=O)N(C)Cc3cccc([100NH:0][100C:0](=O)N4CCCC(n5nc(-c6ccc(Oc7ccc(F)cc7F)cc6)c(C(N)=O)c5N)C4)c3F)ccc2CC1C(=O)NC1CCCc2ccccc21)C(C)(C)C

> <Shape>
0.175

> <Color>
0.202

> <Negative vol penalty>
0.000

$$$$

  -OEChem-04052300343D

 84 92  0     1  0  0  0  0  0999 V2000
  -32.4803  -27.1151   16.6341 C   0  0  0  0  0  0  0  0  0  0  0  0
  -31.2251  -26.5369   16.7942 C   0  0  0  0  0  0  0  0  0  0  0  0
  -27.2518  -17.5374   19.2228 C   0  0  0  0  0  0  0  0  0  0  0  0
  -28.2338  -17.0446   21.3745 C   0  0  0  0  0  0  0  0  0  0  0  0
  -33.0261  -27.8884   17.6579 C   0  0  0  0  0  0  0  0  0  0  0  0
  -30.5154  -26.7308   17.9788 C   0  0  0  0  0  0  0  0  0  0  0  0
  -24.4439  -27.2499   18.5899 C   0  0  0  0  0  0  0  0  0  0  0  0
  -20.8302  -17.5096   19.1575 C   0  0  0  0  0  0  0  0  0  0  0  0
  -21.0238  -18.8608   19.4444 C   0  0  0  0  0  0  0  0  0  0  0  0
  -27.9748  -18.7288   19.1657 C   0  0  0  0  0  0  0  0  0  0  0  0
  -28.9569  -18.2361   21.3174 C   0  0  0  0  0  0  0  0  0  0  0  0
  -23.4566  -26.3364   18.9566 C   0  0  0  0  0  0  0  0  0  0  0  0
  -29.2899  -22.0748   18.6186 C   0  0  0  0  0  0  0  0  0  0  0  0
  -28.6158  -23.2252   18.2090 C   0  0  0  0  0  0  0  0  0  0  0  0
  -23.5710  -27.1346   21.2302 C   0  0  0  0  0  0  0  0  0  0  0  0
  -20.0447  -17.1433   21.4127 C   0  0  0  0  0  0  0  0  0  0  0  0
  -27.0872  -22.9905   20.0652 C   0  0  0  0  0  0  0  0  0  0  0  0
  -27.3813  -16.6953   20.3273 C   0  0  0  0  0  0  0  0  0  0  0  0
  -27.0374  -14.2016   19.9141 C   0  0  0  0  0  0  0  0  0  0  0  0
  -32.3185  -28.0998   18.8518 C   0  0  0  0  0  0  0  0  0  0  0  0
  -25.0109  -28.1065   19.5445 C   0  0  0  0  0  0  0  0  0  0  0  0
  -31.0528  -27.5065   19.0200 C   0  0  0  0  0  0  0  0  0  0  0  0
  -24.5635  -28.0598   20.8725 C   0  0  0  0  0  0  0  0  0  0  0  0
  -20.3405  -16.6509   20.1417 C   0  0  0  0  0  0  0  0  0  0  0  0
  -20.7280  -19.3533   20.7155 C   0  0  0  0  0  0  0  0  0  0  0  0
  -20.2384  -18.4945   21.6997 C   0  0  0  0  0  0  0  0  0  0  0  0
  -28.8274  -19.0782   20.2129 C   0  0  0  0  0  0  0  0  0  0  0  0
  -23.0220  -26.2766   20.2775 C   0  0  0  0  0  0  0  0  0  0  0  0
  -28.8625  -21.3821   19.7515 C   0  0  0  0  0  0  0  0  0  0  0  0
  -27.5145  -23.6831   18.9323 C   0  0  0  0  0  0  0  0  0  0  0  0
  -27.7613  -21.8400   20.4748 C   0  0  0  0  0  0  0  0  0  0  0  0
  -26.6342  -15.4647   20.3871 C   0  0  0  0  0  0  0  0  0  0  0  0
  -25.9822  -13.3725   20.2067 C   0  0  0  0  0  0  0  0  0  0  0  0
  -28.2568  -13.8125   19.2680 C   0  0  0  0  0  0  0  0  0  0  0  0
  -27.9353  -28.5429   20.7112 C   0  0  0  0  0  0  0  0  0  0  0  0
  -26.5343  -31.0434   22.2300 C   0  0  0  0  0  0  0  0  0  0  0  0
  -21.4109  -21.7005   20.1088 C   0  0  0  0  0  0  0  0  0  0  0  0
  -23.6793  -32.4632   23.4466 C   0  0  0  0  0  0  0  0  0  0  0  0
  -20.2629  -14.2658   20.8464 C   0  0  0  0  0  0  0  0  0  0  0  0
  -32.9697  -28.9042   19.9488 C   0  0  0  0  0  0  0  0  0  0  0  0
  -26.0560  -29.1047   19.1274 C   0  0  0  0  0  0  0  0  0  0  0  0
  -25.1257  -28.9717   21.9313 C   0  0  0  0  0  0  0  0  0  0  0  0
  -31.9922  -29.3702   21.0247 C   0  0  0  0  0  0  0  0  0  0  0  0
  -22.3884  -12.8238   23.3053 C   0  0  0  0  0  0  0  0  0  0  0  0
  -31.0856  -28.2217   21.4558 C   0  0  0  0  0  0  0  0  0  0  0  0
  -23.7685  -13.2287   22.7886 C   0  0  0  0  0  0  0  0  0  0  0  0
  -21.3587  -13.9392   23.1222 C   0  0  0  0  0  0  0  0  0  0  0  0
  -22.6466  -14.8551   21.2178 C   0  0  0  0  0  0  0  0  0  0  0  0
  -30.2415  -27.7142   20.2805 C   0  0  1  0  0  0  0  0  0  0  0  0
  -26.9293  -29.5750   20.2865 C   0  0  1  0  0  0  0  0  0  0  0  0
  -23.6887  -13.7320   21.3365 C   0  0  1  0  0  0  0  0  0  0  0  0
  -22.8557  -34.4934   24.6703 C   0  0  0  0  0  0  0  0  0  0  0  0
  -27.6388  -29.9148   24.8408 C   0  0  0  0  0  0  0  0  0  0  0  0
  -26.0349  -31.3885   26.0753 C   0  0  0  0  0  0  0  0  0  0  0  0
  -27.7972  -32.4017   24.6296 C   0  0  0  0  0  0  0  0  0  0  0  0
  -19.5684  -14.8883   18.5431 C   0  0  0  0  0  0  0  0  0  0  0  0
  -21.9418  -33.2626   21.1880 C   0  0  0  0  0  0  0  0  0  0  0  0
  -21.4771  -23.0559   20.8035 C   0  0  0  0  0  0  0  0  0  0  0  0
  -21.9935  -24.1657   19.9005 C   0  0  0  0  0  0  0  0  0  1  0  0
  -25.8311  -31.2331   23.5523 C   0  0  1  0  0  0  0  0  0  0  0  0
  -23.1142  -33.8655   23.3096 C   0  0  2  0  0  0  0  0  0  0  0  0
  -26.8161  -31.2159   24.7552 C   0  0  0  0  0  0  0  0  0  0  0  0
  -25.4177  -15.4446   20.9383 N   0  0  0  0  0  0  0  0  0  0  0  0
  -25.0474  -14.1588   20.8133 N   0  0  0  0  0  0  0  0  0  0  0  0
  -26.1498  -29.9260   21.4753 N   0  0  0  0  0  0  0  0  0  0  0  0
  -21.3473  -14.4147   21.7316 N   0  0  0  0  0  0  0  0  0  0  0  0
  -19.9319  -18.9724   22.9937 N   0  0  0  0  0  0  0  0  0  0  0  0
  -25.7721  -12.0548   20.0017 N   0  0  0  0  0  0  0  0  0  0  0  0
  -29.2358  -14.7901   19.0442 N   0  0  0  0  0  0  0  0  0  0  0  0
  -20.9325  -20.7279   20.9827 N   0  0  0  0  0  0  0  0  0  0  0  0
  -29.1347  -28.6118   20.0284 N   0  0  0  0  0  0  0  0  0  0  0  0
  -25.0581  -32.4644   23.4306 N   0  0  0  0  0  0  0  0  0  0  0  0
  -20.1399  -15.2521   19.8442 N   0  0  0  0  0  0  0  0  0  0  0  0
  -21.8298  -33.8348   22.5544 N   0  3  0  0  0  0  0  0  0  0  0  0
  -28.4650  -12.6362   18.8852 O   0  0  0  0  0  0  0  0  0  0  0  0
  -27.6454  -27.7440   21.5941 O   0  0  0  0  0  0  0  0  0  0  0  0
  -27.3880  -31.8606   21.8763 O   0  0  0  0  0  0  0  0  0  0  0  0
  -21.7473  -21.5495   18.9390 O   0  0  0  0  0  0  0  0  0  0  0  0
  -22.9688  -31.4669   23.5605 O   0  0  0  0  0  0  0  0  0  0  0  0
  -19.4804  -13.3114   20.9285 O   0  0  0  0  0  0  0  0  0  0  0  0
  -29.5333  -20.2406   20.1574 O   0  0  0  0  0  0  0  0  0  0  0  0
  -22.0589  -25.3854   20.6382 O   0  0  0  0  0  0  0  0  0  1  0  0
  -26.8683  -24.7887   18.5397 F   0  0  0  0  0  0  0  0  0  0  0  0
  -27.3468  -21.1795   21.5647 F   0  0  0  0  0  0  0  0  0  0  0  0
  1  2  1  0  0  0  0
  1  5  2  0  0  0  0
  2  6  2  0  0  0  0
  3 10  2  0  0  0  0
  3 18  1  0  0  0  0
  4 11  1  0  0  0  0
  4 18  2  0  0  0  0
  5 20  1  0  0  0  0
  6 22  1  0  0  0  0
  7 12  2  0  0  0  0
  7 21  1  0  0  0  0
  8  9  2  0  0  0  0
  8 24  1  0  0  0  0
  9 25  1  0  0  0  0
 10 27  1  0  0  0  0
 11 27  2  0  0  0  0
 12 28  1  0  0  0  0
 13 14  2  0  0  0  0
 13 29  1  0  0  0  0
 14 30  1  0  0  0  0
 15 23  1  0  0  0  0
 15 28  2  0  0  0  0
 16 24  2  0  0  0  0
 16 26  1  0  0  0  0
 17 30  2  0  0  0  0
 17 31  1  0  0  0  0
 18 32  1  0  0  0  0
 19 32  1  0  0  0  0
 19 33  2  0  0  0  0
 19 34  1  0  0  0  0
 20 22  2  0  0  0  0
 20 40  1  0  0  0  0
 21 23  2  0  0  0  0
 21 41  1  0  0  0  0
 22 49  1  0  0  0  0
 23 42  1  0  0  0  0
 24 73  1  0  0  0  0
 25 26  2  0  0  0  0
 25 70  1  0  0  0  0
 26 67  1  0  0  0  0
 27 81  1  0  0  0  0
 28 82  1  0  0  0  0
 29 31  2  0  0  0  0
 29 81  1  0  0  0  0
 30 83  1  0  0  0  0
 31 84  1  0  0  0  0
 32 63  2  0  0  0  0
 33 64  1  0  0  0  0
 33 68  1  0  0  0  0
 34 69  1  0  0  0  0
 34 75  2  0  0  0  0
 35 50  1  0  0  0  0
 35 71  1  0  0  0  0
 35 76  2  0  0  0  0
 36 60  1  0  0  0  0
 36 65  1  0  0  0  0
 36 77  2  0  0  0  0
 37 58  1  0  0  0  0
 37 70  1  0  0  0  0
 37 78  2  0  0  0  0
 38 61  1  0  0  0  0
 38 72  1  0  0  0  0
 38 79  2  0  0  0  0
 39 66  1  0  0  0  0
 39 73  1  0  0  0  0
 39 80  2  0  0  0  0
 40 43  1  0  0  0  0
 41 50  1  0  0  0  0
 42 65  1  0  0  0  0
 43 45  1  0  0  0  0
 44 46  1  0  0  0  0
 44 47  1  0  0  0  0
 45 49  1  0  0  0  0
 46 51  1  0  0  0  0
 47 66  1  0  0  0  0
 48 51  1  0  0  0  0
 48 66  1  0  0  0  0
 49 71  1  0  0  0  0
 50 65  1  0  0  0  0
 51 64  1  0  0  0  0
 52 61  1  0  0  0  0
 53 62  1  0  0  0  0
 54 62  1  0  0  0  0
 55 62  1  0  0  0  0
 56 73  1  0  0  0  0
 57 74  1  0  0  0  0
 58 59  1  0  0  0  0
 59 82  1  0  0  0  0
 60 62  1  0  0  0  0
 60 72  1  0  0  0  0
 61 74  1  0  0  0  0
 63 64  1  0  0  0  0
M  CHG  1  74   1
M  ISO  4  39 100  59 101  73 100  82 101
M  END
> <Batch ID>
0092

> <Smiles>
CNC(C)C(=O)NC(C(=O)N1Cc2cc([101O:1][101CH2:1]CC(=O)Nc3ccc([100N:0](C)[100C:0](=O)N4CCCC(n5nc(-c6ccc(Oc7ccc(F)cc7F)cc6)c(C(N)=O)c5N)C4)cc3N)ccc2CC1C(=O)NC1CCCc2ccccc21)C(C)(C)C

> <Shape>
0.253

> <Color>
0.075

> <Negative vol penalty>
0.000

$$$$

  -OEChem-04052300343D

 84 92  0     1  0  0  0  0  0999 V2000
  -25.4178  -34.5712   19.4412 C   0  0  0  0  0  0  0  0  0  0  0  0
  -26.0394  -33.3770   19.7918 C   0  0  0  0  0  0  0  0  0  0  0  0
  -22.9322  -10.2115   20.2896 C   0  0  0  0  0  0  0  0  0  0  0  0
  -24.2620   -9.3319   22.1048 C   0  0  0  0  0  0  0  0  0  0  0  0
  -24.1688  -34.8881   19.9736 C   0  0  0  0  0  0  0  0  0  0  0  0
  -25.4129  -32.4995   20.6759 C   0  0  0  0  0  0  0  0  0  0  0  0
  -25.6498  -27.6836   19.1280 C   0  0  0  0  0  0  0  0  0  0  0  0
  -32.1344  -17.9516   21.0502 C   0  0  0  0  0  0  0  0  0  0  0  0
  -31.8221  -19.2587   20.6766 C   0  0  0  0  0  0  0  0  0  0  0  0
  -22.1506   -9.0563   20.3024 C   0  0  0  0  0  0  0  0  0  0  0  0
  -23.4804   -8.1767   22.1176 C   0  0  0  0  0  0  0  0  0  0  0  0
  -26.8546  -27.0101   19.3247 C   0  0  0  0  0  0  0  0  0  0  0  0
  -20.4528   -7.2326   23.2851 C   0  0  0  0  0  0  0  0  0  0  0  0
  -20.0299   -6.7518   24.5242 C   0  0  0  0  0  0  0  0  0  0  0  0
  -25.9336  -25.9474   21.2846 C   0  0  0  0  0  0  0  0  0  0  0  0
  -29.9208  -19.2304   22.1669 C   0  0  0  0  0  0  0  0  0  0  0  0
  -21.1862   -4.6709   24.1115 C   0  0  0  0  0  0  0  0  0  0  0  0
  -23.9880  -10.3493   21.1908 C   0  0  0  0  0  0  0  0  0  0  0  0
  -24.5785  -12.7244   21.9102 C   0  0  0  0  0  0  0  0  0  0  0  0
  -23.5223  -34.0095   20.8573 C   0  0  0  0  0  0  0  0  0  0  0  0
  -24.5797  -27.5021   20.0159 C   0  0  0  0  0  0  0  0  0  0  0  0
  -24.1546  -32.8055   21.2218 C   0  0  0  0  0  0  0  0  0  0  0  0
  -24.7154  -26.6178   21.0956 C   0  0  0  0  0  0  0  0  0  0  0  0
  -31.3399  -17.2839   21.9821 C   0  0  0  0  0  0  0  0  0  0  0  0
  -30.7153  -19.8981   21.2350 C   0  0  0  0  0  0  0  0  0  0  0  0
  -22.4247   -8.0389   21.2164 C   0  0  0  0  0  0  0  0  0  0  0  0
  -26.9976  -26.1441   20.4047 C   0  0  0  0  0  0  0  0  0  0  0  0
  -21.2423   -6.4325   22.4590 C   0  0  0  0  0  0  0  0  0  0  0  0
  -20.3966   -5.4710   24.9375 C   0  0  0  0  0  0  0  0  0  0  0  0
  -30.2331  -17.9233   22.5405 C   0  0  0  0  0  0  0  0  0  0  0  0
  -21.6091   -5.1517   22.8722 C   0  0  0  0  0  0  0  0  0  0  0  0
  -24.7961  -11.5421   21.1777 C   0  0  0  0  0  0  0  0  0  0  0  0
  -25.6170  -13.5478   21.5495 C   0  0  0  0  0  0  0  0  0  0  0  0
  -23.5314  -13.0493   22.8342 C   0  0  0  0  0  0  0  0  0  0  0  0
  -22.9462  -29.3964   21.9772 C   0  0  0  0  0  0  0  0  0  0  0  0
  -29.2446  -23.3192   20.7713 C   0  0  0  0  0  0  0  0  0  0  0  0
  -21.1152  -26.7493   22.3798 C   0  0  0  0  0  0  0  0  0  0  0  0
  -20.8696  -23.3481   22.2430 C   0  0  0  0  0  0  0  0  0  0  0  0
  -31.0384  -14.3759   20.5164 C   0  0  0  0  0  0  0  0  0  0  0  0
  -22.1939  -34.4171   21.4439 C   0  0  0  0  0  0  0  0  0  0  0  0
  -23.2777  -28.2155   19.7746 C   0  0  0  0  0  0  0  0  0  0  0  0
  -23.5900  -26.3725   22.0660 C   0  0  0  0  0  0  0  0  0  0  0  0
  -21.4293  -33.2603   22.0821 C   0  0  0  0  0  0  0  0  0  0  0  0
  -29.0449  -13.0989   17.8571 C   0  0  0  0  0  0  0  0  0  0  0  0
  -22.3537  -32.4361   22.9727 C   0  0  0  0  0  0  0  0  0  0  0  0
  -27.7471  -12.6721   18.5452 C   0  0  0  0  0  0  0  0  0  0  0  0
  -30.2640  -12.8350   18.7381 C   0  0  0  0  0  0  0  0  0  0  0  0
  -28.8909  -12.9918   20.7787 C   0  0  0  0  0  0  0  0  0  0  0  0
  -23.4958  -31.8163   22.1585 C   0  0  1  0  0  0  0  0  0  0  0  0
  -22.4269  -28.3485   21.0339 C   0  0  1  0  0  0  0  0  0  0  0  0
  -27.6287  -13.2899   19.9515 C   0  0  2  0  0  0  0  0  0  0  0  0
  -19.2591  -21.4708   22.6665 C   0  0  0  0  0  0  0  0  0  0  0  0
  -21.5446  -27.0619   25.3844 C   0  0  0  0  0  0  0  0  0  0  0  0
  -20.7525  -24.7043   25.6724 C   0  0  0  0  0  0  0  0  0  0  0  0
  -19.2177  -26.4268   24.7237 C   0  0  0  0  0  0  0  0  0  0  0  0
  -20.9702  -22.4701   19.4185 C   0  0  0  0  0  0  0  0  0  0  0  0
  -31.6766  -15.8863   22.3794 C   0  0  0  0  0  0  0  0  0  0  0  0
  -29.2842  -21.9364   21.3863 C   0  0  0  0  0  0  0  0  0  0  0  0
  -28.1045  -24.2076   21.2299 C   0  0  0  0  0  0  0  0  0  1  0  0
  -21.1361  -25.5675   23.3189 C   0  0  1  0  0  0  0  0  0  0  0  0
  -19.8182  -22.4378   21.6345 C   0  0  2  0  0  0  0  0  0  0  0  0
  -20.6848  -25.9460   24.7578 C   0  0  0  0  0  0  0  0  0  0  0  0
  -25.8869  -11.6049   20.4095 N   0  0  0  0  0  0  0  0  0  0  0  0
  -26.3641  -12.8365   20.6573 N   0  0  0  0  0  0  0  0  0  0  0  0
  -22.3389  -27.0983   21.7912 N   0  0  0  0  0  0  0  0  0  0  0  0
  -30.0888  -13.4486   20.0567 N   0  0  0  0  0  0  0  0  0  0  0  0
  -25.9547  -14.8037   21.9116 N   0  0  0  0  0  0  0  0  0  0  0  0
  -22.5444  -12.0878   23.0905 N   0  0  0  0  0  0  0  0  0  0  0  0
  -30.4053  -21.1985   20.8632 N   0  0  0  0  0  0  0  0  0  0  0  0
  -23.0247  -30.6609   21.4254 N   0  0  0  0  0  0  0  0  0  0  0  0
  -20.3228  -24.5322   22.6905 N   0  0  0  0  0  0  0  0  0  0  0  0
  -30.7935  -14.9147   21.7735 N   0  0  0  0  0  0  0  0  0  0  0  0
  -20.4037  -21.6452   20.5165 N   0  3  0  0  0  0  0  0  0  0  0  0
  -23.4637  -14.1653   23.4029 O   0  0  0  0  0  0  0  0  0  0  0  0
  -23.2516  -29.0814   23.1214 O   0  0  0  0  0  0  0  0  0  0  0  0
  -30.0768  -23.7073   19.9524 O   0  0  0  0  0  0  0  0  0  0  0  0
  -20.0508  -27.3365   22.1704 O   0  0  0  0  0  0  0  0  0  0  0  0
  -22.0566  -23.0382   22.3176 O   0  0  0  0  0  0  0  0  0  0  0  0
  -32.0282  -14.7037   19.8531 O   0  0  0  0  0  0  0  0  0  0  0  0
  -21.6620   -6.9116   21.2294 O   0  0  0  0  0  0  0  0  0  0  0  0
  -28.1727  -25.4860   20.5994 O   0  0  0  0  0  0  0  0  0  1  0  0
  -19.9918   -5.0100   26.1282 F   0  0  0  0  0  0  0  0  0  0  0  0
  -29.4630  -17.2893   23.4359 F   0  0  0  0  0  0  0  0  0  0  0  0
  -22.3684   -4.3790   22.0835 F   0  0  0  0  0  0  0  0  0  0  0  0
  1  2  1  0  0  0  0
  1  5  2  0  0  0  0
  2  6  2  0  0  0  0
  3 10  2  0  0  0  0
  3 18  1  0  0  0  0
  4 11  1  0  0  0  0
  4 18  2  0  0  0  0
  5 20  1  0  0  0  0
  6 22  1  0  0  0  0
  7 12  2  0  0  0  0
  7 21  1  0  0  0  0
  8  9  2  0  0  0  0
  8 24  1  0  0  0  0
  9 25  1  0  0  0  0
 10 26  1  0  0  0  0
 11 26  2  0  0  0  0
 12 27  1  0  0  0  0
 13 14  2  0  0  0  0
 13 28  1  0  0  0  0
 14 29  1  0  0  0  0
 15 23  1  0  0  0  0
 15 27  2  0  0  0  0
 16 25  2  0  0  0  0
 16 30  1  0  0  0  0
 17 29  2  0  0  0  0
 17 31  1  0  0  0  0
 18 32  1  0  0  0  0
 19 32  1  0  0  0  0
 19 33  2  0  0  0  0
 19 34  1  0  0  0  0
 20 22  2  0  0  0  0
 20 40  1  0  0  0  0
 21 23  2  0  0  0  0
 21 41  1  0  0  0  0
 22 49  1  0  0  0  0
 23 42  1  0  0  0  0
 24 30  2  0  0  0  0
 24 57  1  0  0  0  0
 25 69  1  0  0  0  0
 26 80  1  0  0  0  0
 27 81  1  0  0  0  0
 28 31  2  0  0  0  0
 28 80  1  0  0  0  0
 29 82  1  0  0  0  0
 30 83  1  0  0  0  0
 31 84  1  0  0  0  0
 32 63  2  0  0  0  0
 33 64  1  0  0  0  0
 33 67  1  0  0  0  0
 34 68  1  0  0  0  0
 34 74  2  0  0  0  0
 35 50  1  0  0  0  0
 35 70  1  0  0  0  0
 35 75  2  0  0  0  0
 36 58  1  0  0  0  0
 36 59  1  0  0  0  0
 36 76  2  0  0  0  0
 37 60  1  0  0  0  0
 37 65  1  0  0  0  0
 37 77  2  0  0  0  0
 38 61  1  0  0  0  0
 38 71  1  0  0  0  0
 38 78  2  0  0  0  0
 39 66  1  0  0  0  0
 39 72  1  0  0  0  0
 39 79  2  0  0  0  0
 40 43  1  0  0  0  0
 41 50  1  0  0  0  0
 42 65  1  0  0  0  0
 43 45  1  0  0  0  0
 44 46  1  0  0  0  0
 44 47  1  0  0  0  0
 45 49  1  0  0  0  0
 46 51  1  0  0  0  0
 47 66  1  0  0  0  0
 48 51  1  0  0  0  0
 48 66  1  0  0  0  0
 49 70  1  0  0  0  0
 50 65  1  0  0  0  0
 51 64  1  0  0  0  0
 52 61  1  0  0  0  0
 53 62  1  0  0  0  0
 54 62  1  0  0  0  0
 55 62  1  0  0  0  0
 56 73  1  0  0  0  0
 57 72  1  0  0  0  0
 58 69  1  0  0  0  0
 59 81  1  0  0  0  0
 60 62  1  0  0  0  0
 60 71  1  0  0  0  0
 61 73  1  0  0  0  0
 63 64  1  0  0  0  0
M  CHG  1  73   1
M  ISO  4  39 100  59 101  72 100  81 101
M  END
> <Batch ID>
0092

> <Smiles>
CNC(C)C(=O)NC(C(=O)N1Cc2cc([101O:1][101CH2:1]C(=O)CNc3ccc(C[100NH:0][100C:0](=O)N4CCCC(n5nc(-c6ccc(Oc7ccc(F)cc7F)cc6)c(C(N)=O)c5N)C4)c(F)c3)ccc2CC1C(=O)NC1CCCc2ccccc21)C(C)(C)C

> <Shape>
0.300

> <Color>
0.148

> <Negative vol penalty>
0.000

$$$$

  -OEChem-04052300343D

 86 95  0     1  0  0  0  0  0999 V2000
  -32.4059  -13.3794   21.2171 C   0  0  0  0  0  0  0  0  0  0  0  0
  -31.6397  -14.4700   21.6156 C   0  0  0  0  0  0  0  0  0  0  0  0
  -22.1351  -28.6930   20.8202 C   0  0  0  0  0  0  0  0  0  0  0  0
  -22.9416  -27.1068   22.4544 C   0  0  0  0  0  0  0  0  0  0  0  0
  -31.8531  -12.4078   20.3838 C   0  0  0  0  0  0  0  0  0  0  0  0
  -30.3205  -14.5903   21.1802 C   0  0  0  0  0  0  0  0  0  0  0  0
  -27.1581  -15.9176   24.9061 C   0  0  0  0  0  0  0  0  0  0  0  0
  -28.1449  -23.0861   21.1627 C   0  0  0  0  0  0  0  0  0  0  0  0
  -30.0885  -23.5745   22.5122 C   0  0  0  0  0  0  0  0  0  0  0  0
  -28.7555  -23.6912   20.0642 C   0  0  0  0  0  0  0  0  0  0  0  0
  -30.6991  -24.1796   21.4137 C   0  0  0  0  0  0  0  0  0  0  0  0
  -20.8502  -28.5882   21.3526 C   0  0  0  0  0  0  0  0  0  0  0  0
  -21.6566  -27.0021   22.9869 C   0  0  0  0  0  0  0  0  0  0  0  0
  -27.1479  -17.2593   25.2848 C   0  0  0  0  0  0  0  0  0  0  0  0
  -17.4306  -29.0122   22.5111 C   0  0  0  0  0  0  0  0  0  0  0  0
  -16.7156  -30.1921   22.7165 C   0  0  0  0  0  0  0  0  0  0  0  0
  -25.1557  -17.6089   23.9702 C   0  0  0  0  0  0  0  0  0  0  0  0
  -18.4359  -30.9722   24.2229 C   0  0  0  0  0  0  0  0  0  0  0  0
  -23.1809  -27.9522   21.3710 C   0  0  0  0  0  0  0  0  0  0  0  0
  -25.5161  -28.9652   21.2031 C   0  0  0  0  0  0  0  0  0  0  0  0
  -30.5234  -12.5113   19.9457 C   0  0  0  0  0  0  0  0  0  0  0  0
  -26.1718  -15.4131   24.0464 C   0  0  0  0  0  0  0  0  0  0  0  0
  -29.7498  -13.6199   20.3391 C   0  0  0  0  0  0  0  0  0  0  0  0
  -25.1542  -16.2598   23.5841 C   0  0  0  0  0  0  0  0  0  0  0  0
  -28.8114  -23.0278   22.3867 C   0  0  0  0  0  0  0  0  0  0  0  0
  -30.0326  -24.2379   20.1897 C   0  0  0  0  0  0  0  0  0  0  0  0
  -20.6109  -27.7429   22.4360 C   0  0  0  0  0  0  0  0  0  0  0  0
  -26.1482  -18.1059   24.8146 C   0  0  0  0  0  0  0  0  0  0  0  0
  -18.6482  -28.8122   23.1616 C   0  0  0  0  0  0  0  0  0  0  0  0
  -17.2182  -31.1721   23.5724 C   0  0  0  0  0  0  0  0  0  0  0  0
  -19.1508  -29.7923   24.0175 C   0  0  0  0  0  0  0  0  0  0  0  0
  -24.5083  -28.0595   20.8211 C   0  0  0  0  0  0  0  0  0  0  0  0
  -26.5778  -28.6621   20.3862 C   0  0  0  0  0  0  0  0  0  0  0  0
  -26.9906  -21.8273   23.6302 C   0  0  0  0  0  0  0  0  0  0  0  0
  -28.6396  -22.1934   24.7483 C   0  0  0  0  0  0  0  0  0  0  0  0
  -32.5359  -26.0055   18.0885 C   0  0  0  0  0  0  0  0  0  0  0  0
  -31.9335  -25.4222   19.1272 C   0  0  0  0  0  0  0  0  0  0  0  0
  -25.4944  -29.9889   22.2067 C   0  0  0  0  0  0  0  0  0  0  0  0
  -26.1774  -14.1001   21.1516 C   0  0  0  0  0  0  0  0  0  0  0  0
  -23.0280  -13.6423   21.7795 C   0  0  0  0  0  0  0  0  0  0  0  0
  -20.2526  -14.5961   23.5214 C   0  0  0  0  0  0  0  0  0  0  0  0
  -29.9092  -25.0570   17.8645 C   0  0  0  0  0  0  0  0  0  0  0  0
  -29.9844  -11.4607   19.0074 C   0  0  0  0  0  0  0  0  0  0  0  0
  -26.1816  -13.9572   23.6687 C   0  0  0  0  0  0  0  0  0  0  0  0
  -24.0608  -15.7628   22.6754 C   0  0  0  0  0  0  0  0  0  0  0  0
  -28.4621  -11.4686   18.8940 C   0  0  0  0  0  0  0  0  0  0  0  0
  -26.8605  -25.7146   16.2955 C   0  0  0  0  0  0  0  0  0  0  0  0
  -27.9483  -12.8924   18.7048 C   0  0  0  0  0  0  0  0  0  0  0  0
  -26.0494  -26.4529   17.3600 C   0  0  0  0  0  0  0  0  0  0  0  0
  -27.6676  -24.5784   16.9132 C   0  0  0  0  0  0  0  0  0  0  0  0
  -27.7820  -25.7562   19.0865 C   0  0  0  0  0  0  0  0  0  0  0  0
  -28.3073  -13.7729   19.9078 C   0  0  1  0  0  0  0  0  0  0  0  0
  -27.3115  -21.4972   25.1000 C   0  0  0  0  0  0  0  0  0  0  0  0
  -25.4221  -13.6699   22.3772 C   0  0  1  0  0  0  0  0  0  0  0  0
  -26.9517  -26.9228   18.5146 C   0  0  2  0  0  0  0  0  0  0  0  0
  -17.8164  -14.0591   23.7931 C   0  0  0  0  0  0  0  0  0  0  0  0
  -22.4256  -15.0516   19.1412 C   0  0  0  0  0  0  0  0  0  0  0  0
  -20.0595  -15.3306   19.9107 C   0  0  0  0  0  0  0  0  0  0  0  0
  -21.0065  -13.0439   19.5993 C   0  0  0  0  0  0  0  0  0  0  0  0
  -20.6036  -13.9093   26.3787 C   0  0  0  0  0  0  0  0  0  0  0  0
  -27.3972  -20.0256   25.4554 C   0  0  0  0  0  0  0  0  0  1  0  0
  -21.7671  -14.4436   21.5625 C   0  0  1  0  0  0  0  0  0  0  0  0
  -19.2257  -13.7925   24.2987 C   0  0  2  0  0  0  0  0  0  0  0  0
  -21.3362  -14.4776   20.0690 C   0  0  0  0  0  0  0  0  0  0  0  0
  -24.8951  -27.2424   19.8379 N   0  0  0  0  0  0  0  0  0  0  0  0
  -26.1577  -27.6335   19.5951 N   0  0  0  0  0  0  0  0  0  0  0  0
  -28.2095  -22.4318   23.4697 N   0  0  0  0  0  0  0  0  0  0  0  0
  -24.1173  -14.3329   22.3294 N   0  0  0  0  0  0  0  0  0  0  0  0
  -28.5075  -25.0643   18.0085 N   0  0  0  0  0  0  0  0  0  0  0  0
  -27.8204  -29.1777   20.2745 N   0  0  0  0  0  0  0  0  0  0  0  0
  -24.3229  -30.1659   22.9555 N   0  0  0  0  0  0  0  0  0  0  0  0
  -27.4160  -13.5029   21.0156 N   0  0  0  0  0  0  0  0  0  0  0  0
  -20.7654  -13.8796   22.4607 N   0  0  0  0  0  0  0  0  0  0  0  0
  -30.6669  -24.8662   19.0492 N   0  0  0  0  0  0  0  0  0  0  0  0
  -19.2802  -14.1441   25.7458 N   0  3  0  0  0  0  0  0  0  0  0  0
  -26.0631  -21.6361   22.8763 O   0  0  0  0  0  0  0  0  0  0  0  0
  -29.6743  -22.4384   25.3266 O   0  0  0  0  0  0  0  0  0  0  0  0
  -26.4791  -30.7358   22.4216 O   0  0  0  0  0  0  0  0  0  0  0  0
  -25.6731  -14.9126   20.3854 O   0  0  0  0  0  0  0  0  0  0  0  0
  -23.0435  -12.4460   21.4791 O   0  0  0  0  0  0  0  0  0  0  0  0
  -20.5656  -15.7458   23.8226 O   0  0  0  0  0  0  0  0  0  0  0  0
  -30.4510  -25.1888   16.7593 O   0  0  0  0  0  0  0  0  0  0  0  0
  -19.3572  -27.6406   22.9560 O   0  0  0  0  0  0  0  0  0  0  0  0
  -26.1362  -19.4161   25.1822 O   0  0  0  0  0  0  0  0  0  1  0  0
  -16.5323  -32.3058   23.7684 F   0  0  0  0  0  0  0  0  0  0  0  0
  -20.3206  -29.6064   24.6443 F   0  0  0  0  0  0  0  0  0  0  0  0
  1  2  1  0  0  0  0
  1  5  2  0  0  0  0
  2  6  2  0  0  0  0
  3 12  2  0  0  0  0
  3 19  1  0  0  0  0
  4 13  1  0  0  0  0
  4 19  2  0  0  0  0
  5 21  1  0  0  0  0
  6 23  1  0  0  0  0
  7 14  2  0  0  0  0
  7 22  1  0  0  0  0
  8 10  2  0  0  0  0
  8 25  1  0  0  0  0
  9 11  1  0  0  0  0
  9 25  2  0  0  0  0
 10 26  1  0  0  0  0
 11 26  2  0  0  0  0
 12 27  1  0  0  0  0
 13 27  2  0  0  0  0
 14 28  1  0  0  0  0
 15 16  2  0  0  0  0
 15 29  1  0  0  0  0
 16 30  1  0  0  0  0
 17 24  1  0  0  0  0
 17 28  2  0  0  0  0
 18 30  2  0  0  0  0
 18 31  1  0  0  0  0
 19 32  1  0  0  0  0
 20 32  1  0  0  0  0
 20 33  2  0  0  0  0
 20 38  1  0  0  0  0
 21 23  2  0  0  0  0
 21 43  1  0  0  0  0
 22 24  2  0  0  0  0
 22 44  1  0  0  0  0
 23 52  1  0  0  0  0
 24 45  1  0  0  0  0
 25 67  1  0  0  0  0
 26 74  1  0  0  0  0
 27 83  1  0  0  0  0
 28 84  1  0  0  0  0
 29 31  2  0  0  0  0
 29 83  1  0  0  0  0
 30 85  1  0  0  0  0
 31 86  1  0  0  0  0
 32 65  2  0  0  0  0
 33 66  1  0  0  0  0
 33 70  1  0  0  0  0
 34 53  1  0  0  0  0
 34 67  1  0  0  0  0
 34 76  2  0  0  0  0
 35 53  1  0  0  0  0
 35 67  1  0  0  0  0
 35 77  2  0  0  0  0
 36 37  2  0  0  0  0
 37 74  1  0  0  0  0
 38 71  1  0  0  0  0
 38 78  2  0  0  0  0
 39 54  1  0  0  0  0
 39 72  1  0  0  0  0
 39 79  2  0  0  0  0
 40 62  1  0  0  0  0
 40 68  1  0  0  0  0
 40 80  2  0  0  0  0
 41 63  1  0  0  0  0
 41 73  1  0  0  0  0
 41 81  2  0  0  0  0
 42 69  1  0  0  0  0
 42 74  1  0  0  0  0
 42 82  2  0  0  0  0
 43 46  1  0  0  0  0
 44 54  1  0  0  0  0
 45 68  1  0  0  0  0
 46 48  1  0  0  0  0
 47 49  1  0  0  0  0
 47 50  1  0  0  0  0
 48 52  1  0  0  0  0
 49 55  1  0  0  0  0
 50 69  1  0  0  0  0
 51 55  1  0  0  0  0
 51 69  1  0  0  0  0
 52 72  1  0  0  0  0
 53 61  1  0  0  0  0
 54 68  1  0  0  0  0
 55 66  1  0  0  0  0
 56 63  1  0  0  0  0
 57 64  1  0  0  0  0
 58 64  1  0  0  0  0
 59 64  1  0  0  0  0
 60 75  1  0  0  0  0
 61 84  1  0  0  0  0
 62 64  1  0  0  0  0
 62 73  1  0  0  0  0
 63 75  1  0  0  0  0
 65 66  1  0  0  0  0
M  CHG  1  75   1
M  ISO  4  42 100  61 101  74 100  84 101
M  END
> <Batch ID>
0092

> <Smiles>
C=C[100N:0](c1ccc(N2C(=O)C([101CH2:1][101O:1]c3ccc4c(c3)CN(C(=O)C(NC(=O)C(C)NC)C(C)(C)C)C(C(=O)NC3CCCc5ccccc53)C4)C2=O)cc1)[100C:0](=O)N1CCCC(n2nc(-c3ccc(Oc4ccc(F)cc4F)cc3)c(C(N)=O)c2N)C1

> <Shape>
0.252

> <Color>
0.061

> <Negative vol penalty>
0.000

$$$$

  -OEChem-04052300343D

 85 93  0     1  0  0  0  0  0999 V2000
  -29.0737  -36.7861   24.2216 C   0  0  0  0  0  0  0  0  0  0  0  0
  -28.9669  -35.4213   24.4691 C   0  0  0  0  0  0  0  0  0  0  0  0
  -24.5358   -9.4249   21.4165 C   0  0  0  0  0  0  0  0  0  0  0  0
  -24.8502  -10.4986   23.5579 C   0  0  0  0  0  0  0  0  0  0  0  0
  -27.9298  -37.5363   23.9524 C   0  0  0  0  0  0  0  0  0  0  0  0
  -27.7157  -34.8060   24.4486 C   0  0  0  0  0  0  0  0  0  0  0  0
  -27.7487  -30.4203   21.9168 C   0  0  0  0  0  0  0  0  0  0  0  0
  -24.2560   -8.2203   22.0617 C   0  0  0  0  0  0  0  0  0  0  0  0
  -24.5704   -9.2940   24.2030 C   0  0  0  0  0  0  0  0  0  0  0  0
  -28.2761  -29.3097   22.5741 C   0  0  0  0  0  0  0  0  0  0  0  0
  -21.6375   -6.8018   23.6630 C   0  0  0  0  0  0  0  0  0  0  0  0
  -20.5445   -6.0627   23.2105 C   0  0  0  0  0  0  0  0  0  0  0  0
  -26.0417  -28.5656   23.0968 C   0  0  0  0  0  0  0  0  0  0  0  0
  -29.7306  -19.7207   21.4944 C   0  0  0  0  0  0  0  0  0  0  0  0
  -27.3769  -21.0259   22.2288 C   0  0  0  0  0  0  0  0  0  0  0  0
  -22.0086   -4.2097   22.7008 C   0  0  0  0  0  0  0  0  0  0  0  0
  -24.8330  -10.5641   22.1646 C   0  0  0  0  0  0  0  0  0  0  0  0
  -24.2041  -12.8102   21.1316 C   0  0  0  0  0  0  0  0  0  0  0  0
  -26.6650  -36.9281   23.9190 C   0  0  0  0  0  0  0  0  0  0  0  0
  -26.3618  -30.6181   21.8539 C   0  0  0  0  0  0  0  0  0  0  0  0
  -26.5536  -35.5490   24.1800 C   0  0  0  0  0  0  0  0  0  0  0  0
  -25.4992  -29.6783   22.4359 C   0  0  0  0  0  0  0  0  0  0  0  0
  -29.7838  -21.0115   22.0202 C   0  0  0  0  0  0  0  0  0  0  0  0
  -28.5005  -19.0824   21.3357 C   0  0  0  0  0  0  0  0  0  0  0  0
  -28.6070  -21.6641   22.3874 C   0  0  0  0  0  0  0  0  0  0  0  0
  -24.2732   -8.1548   23.4549 C   0  0  0  0  0  0  0  0  0  0  0  0
  -27.4227  -28.3836   23.1667 C   0  0  0  0  0  0  0  0  0  0  0  0
  -22.9160   -6.2448   23.6344 C   0  0  0  0  0  0  0  0  0  0  0  0
  -20.7300   -4.7667   22.7294 C   0  0  0  0  0  0  0  0  0  0  0  0
  -27.3236  -19.7350   21.7029 C   0  0  0  0  0  0  0  0  0  0  0  0
  -23.1016   -4.9488   23.1533 C   0  0  0  0  0  0  0  0  0  0  0  0
  -25.1227  -11.8086   21.4988 C   0  0  0  0  0  0  0  0  0  0  0  0
  -24.9729  -13.7788   20.5340 C   0  0  0  0  0  0  0  0  0  0  0  0
  -22.7830  -12.8606   21.3145 C   0  0  0  0  0  0  0  0  0  0  0  0
  -27.9758  -25.0719   23.8380 C   0  0  0  0  0  0  0  0  0  0  0  0
  -27.5542  -23.7276   23.3231 C   0  0  0  0  0  0  0  0  0  0  0  0
  -24.3662  -32.8613   22.8975 C   0  0  0  0  0  0  0  0  0  0  0  0
  -22.1801  -31.1439   21.2261 C   0  0  0  0  0  0  0  0  0  0  0  0
  -21.2660  -28.1429   19.8823 C   0  0  0  0  0  0  0  0  0  0  0  0
  -29.5235  -16.9841   20.3888 C   0  0  0  0  0  0  0  0  0  0  0  0
  -25.4519  -37.7889   23.6703 C   0  0  0  0  0  0  0  0  0  0  0  0
  -25.8080  -31.8073   21.1181 C   0  0  0  0  0  0  0  0  0  0  0  0
  -24.0022  -29.8339   22.3790 C   0  0  0  0  0  0  0  0  0  0  0  0
  -24.2050  -36.9912   23.2973 C   0  0  0  0  0  0  0  0  0  0  0  0
  -29.8133  -13.6954   19.0556 C   0  0  0  0  0  0  0  0  0  0  0  0
  -24.0284  -35.8050   24.2400 C   0  0  0  0  0  0  0  0  0  0  0  0
  -28.5433  -12.9937   19.5422 C   0  0  0  0  0  0  0  0  0  0  0  0
  -30.3631  -14.6629   20.1021 C   0  0  0  0  0  0  0  0  0  0  0  0
  -28.1260  -14.9436   21.0949 C   0  0  0  0  0  0  0  0  0  0  0  0
  -25.2167  -34.8408   24.1421 C   0  0  1  0  0  0  0  0  0  0  0  0
  -24.3956  -32.1783   21.5595 C   0  0  1  0  0  0  0  0  0  0  0  0
  -27.4986  -14.0072   20.0493 C   0  0  2  0  0  0  0  0  0  0  0  0
  -28.8984  -25.0911   25.0220 C   0  0  0  0  0  0  0  0  0  0  0  0
  -19.4070  -27.0396   18.6079 C   0  0  0  0  0  0  0  0  0  0  0  0
  -20.4990  -31.0430   23.7704 C   0  0  0  0  0  0  0  0  0  0  0  0
  -19.1765  -29.1838   22.7397 C   0  0  0  0  0  0  0  0  0  0  0  0
  -19.1949  -31.4389   21.6735 C   0  0  0  0  0  0  0  0  0  0  0  0
  -23.0489  -27.5025   17.6085 C   0  0  0  0  0  0  0  0  0  0  0  0
  -21.2613  -29.9881   21.5406 C   0  0  1  0  0  0  0  0  0  0  0  0
  -20.7349  -27.7742   18.5089 C   0  0  2  0  0  0  0  0  0  0  0  0
  -20.0611  -30.4112   22.4340 C   0  0  0  0  0  0  0  0  0  0  0  0
  -26.3790  -12.1127   21.1624 N   0  0  0  0  0  0  0  0  0  0  0  0
  -27.4872  -26.1021   23.2248 N   0  0  0  0  0  0  0  0  0  1  0  0
  -26.2553  -13.3163   20.5775 N   0  0  0  0  0  0  0  0  0  0  0  0
  -23.5093  -31.0165   21.6536 N   0  0  0  0  0  0  0  0  0  0  0  0
  -29.3191  -15.5955   20.5325 N   0  0  0  0  0  0  0  0  0  0  0  0
  -31.0404  -21.6399   22.1710 N   0  0  0  0  0  0  0  0  0  0  0  0
  -24.6704  -14.9724   19.9807 N   0  0  0  0  0  0  0  0  0  0  0  0
  -22.1521  -11.7810   21.9477 N   0  0  0  0  0  0  0  0  0  0  0  0
  -28.6355  -22.9732   22.9214 N   0  0  0  0  0  0  0  0  0  0  0  0
  -28.4489  -17.7709   20.8018 N   0  0  0  0  0  0  0  0  0  0  0  0
  -25.1090  -34.0252   22.9514 N   0  0  0  0  0  0  0  0  0  0  0  0
  -20.8765  -29.4115   20.2569 N   0  0  0  0  0  0  0  0  0  0  0  0
  -21.7058  -26.8960   17.7967 N   0  3  0  0  0  0  0  0  0  0  0  0
  -22.0908  -13.8267   20.9133 O   0  0  0  0  0  0  0  0  0  0  0  0
  -26.3598  -23.4818   23.3388 O   0  0  0  0  0  0  0  0  0  0  0  0
  -23.7165  -32.3695   23.8128 O   0  0  0  0  0  0  0  0  0  0  0  0
  -21.7366  -32.1206   20.6170 O   0  0  0  0  0  0  0  0  0  0  0  0
  -21.9543  -27.3804   20.5572 O   0  0  0  0  0  0  0  0  0  0  0  0
  -30.5638  -17.4405   19.9075 O   0  0  0  0  0  0  0  0  0  0  0  0
  -24.0000   -6.9796   24.0847 O   0  0  0  0  0  0  0  0  0  0  0  0
  -27.9349  -27.2990   23.8095 O   0  0  0  0  0  0  0  0  0  1  0  0
  -19.6802   -4.0565   22.2963 F   0  0  0  0  0  0  0  0  0  0  0  0
  -26.1357  -19.1313   21.5548 F   0  0  0  0  0  0  0  0  0  0  0  0
  -24.3273   -4.4079   23.1245 F   0  0  0  0  0  0  0  0  0  0  0  0
  1  2  1  0  0  0  0
  1  5  2  0  0  0  0
  2  6  2  0  0  0  0
  3  8  2  0  0  0  0
  3 17  1  0  0  0  0
  4  9  1  0  0  0  0
  4 17  2  0  0  0  0
  5 19  1  0  0  0  0
  6 21  1  0  0  0  0
  7 10  2  0  0  0  0
  7 20  1  0  0  0  0
  8 26  1  0  0  0  0
  9 26  2  0  0  0  0
 10 27  1  0  0  0  0
 11 12  2  0  0  0  0
 11 28  1  0  0  0  0
 12 29  1  0  0  0  0
 13 22  1  0  0  0  0
 13 27  2  0  0  0  0
 14 23  1  0  0  0  0
 14 24  2  0  0  0  0
 15 25  1  0  0  0  0
 15 30  2  0  0  0  0
 16 29  2  0  0  0  0
 16 31  1  0  0  0  0
 17 32  1  0  0  0  0
 18 32  1  0  0  0  0
 18 33  2  0  0  0  0
 18 34  1  0  0  0  0
 19 21  2  0  0  0  0
 19 41  1  0  0  0  0
 20 22  2  0  0  0  0
 20 42  1  0  0  0  0
 21 50  1  0  0  0  0
 22 43  1  0  0  0  0
 23 25  2  0  0  0  0
 23 67  1  0  0  0  0
 24 30  1  0  0  0  0
 24 71  1  0  0  0  0
 25 70  1  0  0  0  0
 26 81  1  0  0  0  0
 27 82  1  0  0  0  0
 28 31  2  0  0  0  0
 28 81  1  0  0  0  0
 29 83  1  0  0  0  0
 30 84  1  0  0  0  0
 31 85  1  0  0  0  0
 32 62  2  0  0  0  0
 33 64  1  0  0  0  0
 33 68  1  0  0  0  0
 34 69  1  0  0  0  0
 34 75  2  0  0  0  0
 35 36  1  0  0  0  0
 35 53  1  0  0  0  0
 35 63  2  0  0  0  0
 36 70  1  0  0  0  0
 36 76  2  0  0  0  0
 37 51  1  0  0  0  0
 37 72  1  0  0  0  0
 37 77  2  0  0  0  0
 38 59  1  0  0  0  0
 38 65  1  0  0  0  0
 38 78  2  0  0  0  0
 39 60  1  0  0  0  0
 39 73  1  0  0  0  0
 39 79  2  0  0  0  0
 40 66  1  0  0  0  0
 40 71  1  0  0  0  0
 40 80  2  0  0  0  0
 41 44  1  0  0  0  0
 42 51  1  0  0  0  0
 43 65  1  0  0  0  0
 44 46  1  0  0  0  0
 45 47  1  0  0  0  0
 45 48  1  0  0  0  0
 46 50  1  0  0  0  0
 47 52  1  0  0  0  0
 48 66  1  0  0  0  0
 49 52  1  0  0  0  0
 49 66  1  0  0  0  0
 50 72  1  0  0  0  0
 51 65  1  0  0  0  0
 52 64  1  0  0  0  0
 54 60  1  0  0  0  0
 55 61  1  0  0  0  0
 56 61  1  0  0  0  0
 57 61  1  0  0  0  0
 58 74  1  0  0  0  0
 59 61  1  0  0  0  0
 59 73  1  0  0  0  0
 60 74  1  0  0  0  0
 62 64  1  0  0  0  0
 63 82  1  0  0  0  0
M  CHG  1  74   1
M  ISO  4  40 100  63 101  71 100  82 101
M  END
> <Batch ID>
0092

> <Smiles>
CNC(C)C(=O)NC(C(=O)N1Cc2cc([101O:1][101N:1]=C(C)C(=O)Nc3cc(F)c([100NH:0][100C:0](=O)N4CCCC(n5nc(-c6ccc(Oc7ccc(F)cc7F)cc6)c(C(N)=O)c5N)C4)cc3N)ccc2CC1C(=O)NC1CCCc2ccccc21)C(C)(C)C

> <Shape>
0.298

> <Color>
0.119

> <Negative vol penalty>
0.000

$$$$

  -OEChem-04052300343D

 86 95  0     1  0  0  0  0  0999 V2000
  -28.8403  -36.6095   22.3717 C   0  0  0  0  0  0  0  0  0  0  0  0
  -29.1557  -35.3629   21.8407 C   0  0  0  0  0  0  0  0  0  0  0  0
  -23.2678   -9.7815   20.1291 C   0  0  0  0  0  0  0  0  0  0  0  0
  -23.8372  -10.1356   22.4502 C   0  0  0  0  0  0  0  0  0  0  0  0
  -27.9206  -36.7091   23.4148 C   0  0  0  0  0  0  0  0  0  0  0  0
  -28.5525  -34.2150   22.3535 C   0  0  0  0  0  0  0  0  0  0  0  0
  -26.9611  -29.1878   19.2388 C   0  0  0  0  0  0  0  0  0  0  0  0
  -22.5773   -8.6202   20.4757 C   0  0  0  0  0  0  0  0  0  0  0  0
  -23.1467   -8.9743   22.7968 C   0  0  0  0  0  0  0  0  0  0  0  0
  -27.5836  -27.9515   19.0719 C   0  0  0  0  0  0  0  0  0  0  0  0
  -19.9345   -8.0340   23.2643 C   0  0  0  0  0  0  0  0  0  0  0  0
  -19.0889   -8.0909   24.3721 C   0  0  0  0  0  0  0  0  0  0  0  0
  -26.2477  -27.0437   20.8636 C   0  0  0  0  0  0  0  0  0  0  0  0
  -29.1293  -19.8840   21.7156 C   0  0  0  0  0  0  0  0  0  0  0  0
  -20.3814   -6.3562   25.4479 C   0  0  0  0  0  0  0  0  0  0  0  0
  -30.7726  -18.1681   20.3240 C   0  0  0  0  0  0  0  0  0  0  0  0
  -23.8978  -10.5392   21.1164 C   0  0  0  0  0  0  0  0  0  0  0  0
  -24.0947  -13.0460   20.6866 C   0  0  0  0  0  0  0  0  0  0  0  0
  -27.2985  -35.5628   23.9341 C   0  0  0  0  0  0  0  0  0  0  0  0
  -25.9834  -29.3645   20.2283 C   0  0  0  0  0  0  0  0  0  0  0  0
  -27.6246  -34.2993   23.4055 C   0  0  0  0  0  0  0  0  0  0  0  0
  -25.6125  -28.2825   21.0394 C   0  0  0  0  0  0  0  0  0  0  0  0
  -29.0150  -18.5107   21.9099 C   0  0  0  0  0  0  0  0  0  0  0  0
  -29.8433  -17.6397   21.2087 C   0  0  0  0  0  0  0  0  0  0  0  0
  -22.5167   -8.2165   21.8095 C   0  0  0  0  0  0  0  0  0  0  0  0
  -27.2290  -26.8800   19.8862 C   0  0  0  0  0  0  0  0  0  0  0  0
  -21.0037   -7.1382   23.2483 C   0  0  0  0  0  0  0  0  0  0  0  0
  -19.3123   -7.2520   25.4639 C   0  0  0  0  0  0  0  0  0  0  0  0
  -21.2271   -6.2993   24.3400 C   0  0  0  0  0  0  0  0  0  0  0  0
  -24.6118  -11.7386   20.7590 C   0  0  0  0  0  0  0  0  0  0  0  0
  -25.1654  -13.8181   20.3070 C   0  0  0  0  0  0  0  0  0  0  0  0
  -30.0768  -20.3555   20.8181 C   0  0  0  0  0  0  0  0  0  0  0  0
  -29.1001  -22.6272   20.7580 C   0  0  0  0  0  0  0  0  0  0  0  0
  -29.1645  -23.9681   20.7535 C   0  0  0  0  0  0  0  0  0  0  0  0
  -31.4531  -22.3486   20.2718 C   0  0  0  0  0  0  0  0  0  0  0  0
  -22.7655  -13.5201   20.9399 C   0  0  0  0  0  0  0  0  0  0  0  0
  -25.7147  -31.1917   22.8154 C   0  0  0  0  0  0  0  0  0  0  0  0
  -22.7194  -29.9498   22.9045 C   0  0  0  0  0  0  0  0  0  0  0  0
  -20.6083  -27.4120   22.0385 C   0  0  0  0  0  0  0  0  0  0  0  0
  -30.5259  -15.2611   20.7371 C   0  0  0  0  0  0  0  0  0  0  0  0
  -26.3463  -35.7159   25.0937 C   0  0  0  0  0  0  0  0  0  0  0  0
  -25.3022  -30.6972   20.3779 C   0  0  0  0  0  0  0  0  0  0  0  0
  -24.5541  -28.4147   22.1028 C   0  0  0  0  0  0  0  0  0  0  0  0
  -31.3708  -23.7873   19.8159 C   0  0  0  0  0  0  0  0  0  0  0  0
  -25.4708  -34.4878   25.3290 C   0  0  0  0  0  0  0  0  0  0  0  0
  -29.7557  -12.4914   18.6365 C   0  0  0  0  0  0  0  0  0  0  0  0
  -26.3128  -33.2164   25.2902 C   0  0  0  0  0  0  0  0  0  0  0  0
  -28.3062  -12.1562   18.9955 C   0  0  0  0  0  0  0  0  0  0  0  0
  -30.5547  -12.9362   19.8603 C   0  0  0  0  0  0  0  0  0  0  0  0
  -28.5016  -13.6949   20.9908 C   0  0  0  0  0  0  0  0  0  0  0  0
  -26.9727  -33.0335   23.9182 C   0  0  1  0  0  0  0  0  0  0  0  0
  -24.6866  -30.9020   21.7587 C   0  0  1  0  0  0  0  0  0  0  0  0
  -27.6398  -13.3040   19.7791 C   0  0  2  0  0  0  0  0  0  0  0  0
  -18.2273  -26.6590   22.2863 C   0  0  0  0  0  0  0  0  0  0  0  0
  -23.2845  -29.1190   25.7855 C   0  0  0  0  0  0  0  0  0  0  0  0
  -21.3106  -27.5843   25.6567 C   0  0  0  0  0  0  0  0  0  0  0  0
  -20.9941  -30.0450   25.3970 C   0  0  0  0  0  0  0  0  0  0  0  0
  -20.1674  -27.4581   19.1124 C   0  0  0  0  0  0  0  0  0  0  0  0
  -27.9651  -24.8515   20.8859 C   0  0  0  0  0  0  0  0  0  1  0  0
  -22.0852  -28.7321   23.5321 C   0  0  1  0  0  0  0  0  0  0  0  0
  -19.2205  -27.4218   21.4234 C   0  0  2  0  0  0  0  0  0  0  0  0
  -21.9399  -28.8678   25.0742 C   0  0  0  0  0  0  0  0  0  0  0  0
  -25.9099  -11.6797   20.4501 N   0  0  0  0  0  0  0  0  0  0  0  0
  -26.2175  -12.9597   20.1798 N   0  0  0  0  0  0  0  0  0  0  0  0
  -30.8616  -19.4945   20.1560 N   0  3  0  0  0  0  0  0  0  0  0  0
  -30.2021  -21.7839   20.6139 N   0  0  0  0  0  0  0  0  0  0  0  0
  -23.9217  -29.7395   22.2145 N   0  0  0  0  0  0  0  0  0  0  0  0
  -29.8650  -14.0287   20.5498 N   0  0  0  0  0  0  0  0  0  0  0  0
  -28.0536  -18.0226   22.8227 N   0  0  0  0  0  0  0  0  0  0  0  0
  -25.3000  -15.1408   20.0729 N   0  0  0  0  0  0  0  0  0  0  0  0
  -21.7865  -12.5924   21.3208 N   0  0  0  0  0  0  0  0  0  0  0  0
  -29.7595  -16.2352   21.3760 N   0  0  0  0  0  0  0  0  0  0  0  0
  -26.0122  -32.5336   22.9580 N   0  0  0  0  0  0  0  0  0  0  0  0
  -20.8242  -28.5206   22.8295 N   0  0  0  0  0  0  0  0  0  0  0  0
  -30.4528  -24.5712   20.6837 N   0  3  0  0  0  0  0  0  0  0  0  0
  -19.2484  -26.7938   20.0722 N   0  3  0  0  0  0  0  0  0  0  0  0
  -32.5453  -21.7810   20.2796 O   0  0  0  0  0  0  0  0  0  0  0  0
  -22.4513  -14.7282   20.8157 O   0  0  0  0  0  0  0  0  0  0  0  0
  -26.2009  -30.2665   23.4551 O   0  0  0  0  0  0  0  0  0  0  0  0
  -22.1647  -31.0459   23.0160 O   0  0  0  0  0  0  0  0  0  0  0  0
  -21.4184  -26.5092   21.8404 O   0  0  0  0  0  0  0  0  0  0  0  0
  -31.6770  -15.4479   20.3344 O   0  0  0  0  0  0  0  0  0  0  0  0
  -21.8428   -7.0835   22.1480 O   0  0  0  0  0  0  0  0  0  0  0  0
  -27.8355  -25.6724   19.7258 O   0  0  0  0  0  0  0  0  0  1  0  0
  -18.5010   -7.3078   26.5283 F   0  0  0  0  0  0  0  0  0  0  0  0
  -22.2533   -5.4375   24.3309 F   0  0  0  0  0  0  0  0  0  0  0  0
  1  2  1  0  0  0  0
  1  5  2  0  0  0  0
  2  6  2  0  0  0  0
  3  8  2  0  0  0  0
  3 17  1  0  0  0  0
  4  9  1  0  0  0  0
  4 17  2  0  0  0  0
  5 19  1  0  0  0  0
  6 21  1  0  0  0  0
  7 10  2  0  0  0  0
  7 20  1  0  0  0  0
  8 25  1  0  0  0  0
  9 25  2  0  0  0  0
 10 26  1  0  0  0  0
 11 12  2  0  0  0  0
 11 27  1  0  0  0  0
 12 28  1  0  0  0  0
 13 22  1  0  0  0  0
 13 26  2  0  0  0  0
 14 23  2  0  0  0  0
 14 32  1  0  0  0  0
 15 28  2  0  0  0  0
 15 29  1  0  0  0  0
 16 24  2  0  0  0  0
 16 65  1  0  0  0  0
 17 30  1  0  0  0  0
 18 30  1  0  0  0  0
 18 31  2  0  0  0  0
 18 36  1  0  0  0  0
 19 21  2  0  0  0  0
 19 41  1  0  0  0  0
 20 22  2  0  0  0  0
 20 42  1  0  0  0  0
 21 51  1  0  0  0  0
 22 43  1  0  0  0  0
 23 24  1  0  0  0  0
 23 69  1  0  0  0  0
 24 72  1  0  0  0  0
 25 83  1  0  0  0  0
 26 84  1  0  0  0  0
 27 29  2  0  0  0  0
 27 83  1  0  0  0  0
 28 85  1  0  0  0  0
 29 86  1  0  0  0  0
 30 63  2  0  0  0  0
 31 64  1  0  0  0  0
 31 70  1  0  0  0  0
 32 65  2  0  0  0  0
 32 66  1  0  0  0  0
 33 34  2  0  0  0  0
 33 66  1  0  0  0  0
 34 59  1  0  0  0  0
 34 75  1  0  0  0  0
 35 44  1  0  0  0  0
 35 66  1  0  0  0  0
 35 77  2  0  0  0  0
 36 71  1  0  0  0  0
 36 78  2  0  0  0  0
 37 52  1  0  0  0  0
 37 73  1  0  0  0  0
 37 79  2  0  0  0  0
 38 60  1  0  0  0  0
 38 67  1  0  0  0  0
 38 80  2  0  0  0  0
 39 61  1  0  0  0  0
 39 74  1  0  0  0  0
 39 81  2  0  0  0  0
 40 68  1  0  0  0  0
 40 72  1  0  0  0  0
 40 82  2  0  0  0  0
 41 45  1  0  0  0  0
 42 52  1  0  0  0  0
 43 67  1  0  0  0  0
 44 75  1  0  0  0  0
 45 47  1  0  0  0  0
 46 48  1  0  0  0  0
 46 49  1  0  0  0  0
 47 51  1  0  0  0  0
 48 53  1  0  0  0  0
 49 68  1  0  0  0  0
 50 53  1  0  0  0  0
 50 68  1  0  0  0  0
 51 73  1  0  0  0  0
 52 67  1  0  0  0  0
 53 64  1  0  0  0  0
 54 61  1  0  0  0  0
 55 62  1  0  0  0  0
 56 62  1  0  0  0  0
 57 62  1  0  0  0  0
 58 76  1  0  0  0  0
 59 84  1  0  0  0  0
 60 62  1  0  0  0  0
 60 74  1  0  0  0  0
 61 76  1  0  0  0  0
 63 64  1  0  0  0  0
M  CHG  3  65   1  75   1  76   1
M  ISO  4  40 100  59 101  72 100  84 101
M  END
> <Batch ID>
0092

> <Smiles>
CNC(C)C(=O)NC(C(=O)N1Cc2cc([101O:1][101CH2:1]C3=CN(c4cc(N)c([100NH:0][100C:0](=O)N5CCCC(n6nc(-c7ccc(Oc8ccc(F)cc8F)cc7)c(C(N)=O)c6N)C5)cn4)C(=O)CN3)ccc2CC1C(=O)NC1CCCc2ccccc21)C(C)(C)C

> <Shape>
0.399

> <Color>
0.195

> <Negative vol penalty>
0.000

$$$$
