
  -OEChem-04052300373D

 85 93  0     1  0  0  0  0  0999 V2000
  -27.8352  -26.4535   38.9014 C   0  0  0  0  0  0  0  0  0  0  0  0
  -27.6625  -25.9848   37.6030 C   0  0  0  0  0  0  0  0  0  0  0  0
  -23.0723   -9.8698   19.9429 C   0  0  0  0  0  0  0  0  0  0  0  0
  -23.8348   -9.8778   22.2354 C   0  0  0  0  0  0  0  0  0  0  0  0
  -29.1138  -26.5193   39.4533 C   0  0  0  0  0  0  0  0  0  0  0  0
  -28.7687  -25.5825   36.8553 C   0  0  0  0  0  0  0  0  0  0  0  0
  -28.9848  -21.0406   32.7528 C   0  0  0  0  0  0  0  0  0  0  0  0
  -29.0696  -17.7036   23.4963 C   0  0  0  0  0  0  0  0  0  0  0  0
  -28.6763  -18.1084   24.7719 C   0  0  0  0  0  0  0  0  0  0  0  0
  -22.3289   -8.7166   20.1941 C   0  0  0  0  0  0  0  0  0  0  0  0
  -23.0914   -8.7246   22.4866 C   0  0  0  0  0  0  0  0  0  0  0  0
  -28.9060  -21.0294   31.3609 C   0  0  0  0  0  0  0  0  0  0  0  0
  -19.3825   -7.9200   21.6491 C   0  0  0  0  0  0  0  0  0  0  0  0
  -18.0751   -7.8733   21.1654 C   0  0  0  0  0  0  0  0  0  0  0  0
  -31.3147  -21.0175   31.2305 C   0  0  0  0  0  0  0  0  0  0  0  0
  -18.6336   -5.9299   19.8432 C   0  0  0  0  0  0  0  0  0  0  0  0
  -23.8253  -10.4504   20.9635 C   0  0  0  0  0  0  0  0  0  0  0  0
  -24.1665  -12.9756   20.8422 C   0  0  0  0  0  0  0  0  0  0  0  0
  -30.2352  -26.1085   38.7155 C   0  0  0  0  0  0  0  0  0  0  0  0
  -30.2313  -21.0514   33.3950 C   0  0  0  0  0  0  0  0  0  0  0  0
  -30.0637  -25.6440   37.3974 C   0  0  0  0  0  0  0  0  0  0  0  0
  -31.4067  -21.0262   32.6307 C   0  0  0  0  0  0  0  0  0  0  0  0
  -30.3923  -17.3286   23.2604 C   0  0  0  0  0  0  0  0  0  0  0  0
  -29.6057  -18.1383   25.8115 C   0  0  0  0  0  0  0  0  0  0  0  0
  -30.9285  -17.7634   25.5757 C   0  0  0  0  0  0  0  0  0  0  0  0
  -22.3385   -8.1440   21.4660 C   0  0  0  0  0  0  0  0  0  0  0  0
  -30.0710  -21.0207   30.5995 C   0  0  0  0  0  0  0  0  0  0  0  0
  -20.3156   -6.9717   21.2298 C   0  0  0  0  0  0  0  0  0  0  0  0
  -17.7006   -6.8783   20.2625 C   0  0  0  0  0  0  0  0  0  0  0  0
  -19.9411   -5.9766   20.3269 C   0  0  0  0  0  0  0  0  0  0  0  0
  -31.3217  -17.3586   24.3001 C   0  0  0  0  0  0  0  0  0  0  0  0
  -24.5938  -11.6413   20.7045 C   0  0  0  0  0  0  0  0  0  0  0  0
  -25.2581  -13.7251   20.4774 C   0  0  0  0  0  0  0  0  0  0  0  0
  -29.2851  -19.8156   27.3313 C   0  0  0  0  0  0  0  0  0  0  0  0
  -22.8964  -13.4913   21.2624 C   0  0  0  0  0  0  0  0  0  0  0  0
  -31.7316  -23.0619   35.3471 C   0  0  0  0  0  0  0  0  0  0  0  0
  -33.9231  -20.6746   35.4895 C   0  0  0  0  0  0  0  0  0  0  0  0
  -35.3132  -17.9263   34.0192 C   0  0  0  0  0  0  0  0  0  0  0  0
  -30.7418  -14.7453   20.6590 C   0  0  0  0  0  0  0  0  0  0  0  0
  -31.6025  -26.2423   39.3378 C   0  0  0  0  0  0  0  0  0  0  0  0
  -30.2993  -21.0365   34.8975 C   0  0  0  0  0  0  0  0  0  0  0  0
  -32.7695  -21.0167   33.2719 C   0  0  0  0  0  0  0  0  0  0  0  0
  -32.6828  -25.4445   38.6121 C   0  0  0  0  0  0  0  0  0  0  0  0
  -29.6019  -12.3597   18.2744 C   0  0  0  0  0  0  0  0  0  0  0  0
  -32.5856  -25.6621   37.1054 C   0  0  0  0  0  0  0  0  0  0  0  0
  -28.1650  -12.0659   18.7091 C   0  0  0  0  0  0  0  0  0  0  0  0
  -30.5204  -12.5812   19.4741 C   0  0  0  0  0  0  0  0  0  0  0  0
  -28.6201  -13.3124   20.8627 C   0  0  0  0  0  0  0  0  0  0  0  0
  -31.2363  -25.1751   36.5636 C   0  0  1  0  0  0  0  0  0  0  0  0
  -31.6227  -21.5663   35.4411 C   0  0  1  0  0  0  0  0  0  0  0  0
  -27.6446  -13.1372   19.6863 C   0  0  2  0  0  0  0  0  0  0  0  0
  -31.4011  -19.2647   21.1043 C   0  0  0  0  0  0  0  0  0  0  0  0
  -37.1116  -16.2091   34.3569 C   0  0  0  0  0  0  0  0  0  0  0  0
  -36.0338  -22.7348   34.7083 C   0  0  0  0  0  0  0  0  0  0  0  0
  -37.5710  -20.8420   34.1407 C   0  0  0  0  0  0  0  0  0  0  0  0
  -36.7539  -21.1241   36.4807 C   0  0  0  0  0  0  0  0  0  0  0  0
  -33.3536  -15.7085   34.0353 C   0  0  0  0  0  0  0  0  0  0  0  0
  -28.8613  -20.3733   28.6570 C   0  0  0  0  0  0  0  0  0  1  0  0
  -30.5934  -18.0012   20.8336 C   0  0  0  0  0  0  0  0  0  0  0  0
  -30.8087  -16.8963   21.8951 C   0  0  2  0  0  0  0  0  0  0  0  0
  -35.1561  -20.3067   34.7000 C   0  0  1  0  0  0  0  0  0  0  0  0
  -35.6445  -16.5499   34.5671 C   0  0  2  0  0  0  0  0  0  0  0  0
  -36.3532  -21.2541   34.9950 C   0  0  0  0  0  0  0  0  0  0  0  0
  -25.8582  -11.5456   20.2847 N   0  0  0  0  0  0  0  0  0  0  0  0
  -29.1879  -18.5494   27.0886 N   0  0  0  0  0  0  0  0  0  0  0  0
  -26.2347  -12.8292   20.1555 N   0  0  0  0  0  0  0  0  0  0  0  0
  -32.7836  -21.0090   34.7441 N   0  0  0  0  0  0  0  0  0  0  0  0
  -29.9707  -13.6099   20.3604 N   0  0  0  0  0  0  0  0  0  0  0  0
  -31.8815  -17.7883   26.6180 N   0  0  0  0  0  0  0  0  0  0  0  0
  -25.4681  -15.0566   20.4036 N   0  0  0  0  0  0  0  0  0  0  0  0
  -21.8850  -12.5820   21.6012 N   0  0  0  0  0  0  0  0  0  0  0  0
  -31.2297  -23.7327   36.4460 N   0  0  0  0  0  0  0  0  0  0  0  0
  -35.4212  -18.9014   34.9882 N   0  0  0  0  0  0  0  0  0  0  0  0
  -30.1435  -15.6743   21.5014 N   0  0  0  0  0  0  0  0  0  0  0  0
  -34.8188  -15.5104   33.8899 N   0  3  0  0  0  0  0  0  0  0  0  0
  -22.6600  -14.7219   21.3196 O   0  0  0  0  0  0  0  0  0  0  0  0
  -32.2352  -23.5697   34.3520 O   0  0  0  0  0  0  0  0  0  0  0  0
  -33.9672  -20.6586   36.7221 O   0  0  0  0  0  0  0  0  0  0  0  0
  -34.9943  -18.1180   32.8478 O   0  0  0  0  0  0  0  0  0  0  0  0
  -31.8772  -14.9208   20.2040 O   0  0  0  0  0  0  0  0  0  0  0  0
  -21.6130   -7.0189   21.7116 O   0  0  0  0  0  0  0  0  0  0  0  0
  -29.9969  -21.0104   29.2407 O   0  0  0  0  0  0  0  0  0  1  0  0
  -16.4446   -6.8327   19.7992 F   0  0  0  0  0  0  0  0  0  0  0  0
  -20.8327   -5.0621   19.9213 F   0  0  0  0  0  0  0  0  0  0  0  0
  -32.5933  -16.9975   24.0707 F   0  0  0  0  0  0  0  0  0  0  0  0
  1  2  1  0  0  0  0
  1  5  2  0  0  0  0
  2  6  2  0  0  0  0
  3 10  2  0  0  0  0
  3 17  1  0  0  0  0
  4 11  1  0  0  0  0
  4 17  2  0  0  0  0
  5 19  1  0  0  0  0
  6 21  1  0  0  0  0
  7 12  2  0  0  0  0
  7 20  1  0  0  0  0
  8  9  2  0  0  0  0
  8 23  1  0  0  0  0
  9 24  1  0  0  0  0
 10 26  1  0  0  0  0
 11 26  2  0  0  0  0
 12 27  1  0  0  0  0
 13 14  2  0  0  0  0
 13 28  1  0  0  0  0
 14 29  1  0  0  0  0
 15 22  1  0  0  0  0
 15 27  2  0  0  0  0
 16 29  2  0  0  0  0
 16 30  1  0  0  0  0
 17 32  1  0  0  0  0
 18 32  1  0  0  0  0
 18 33  2  0  0  0  0
 18 35  1  0  0  0  0
 19 21  2  0  0  0  0
 19 40  1  0  0  0  0
 20 22  2  0  0  0  0
 20 41  1  0  0  0  0
 21 49  1  0  0  0  0
 22 42  1  0  0  0  0
 23 31  2  0  0  0  0
 23 60  1  0  0  0  0
 24 25  2  0  0  0  0
 24 65  1  0  0  0  0
 25 31  1  0  0  0  0
 25 69  1  0  0  0  0
 26 81  1  0  0  0  0
 27 82  1  0  0  0  0
 28 30  2  0  0  0  0
 28 81  1  0  0  0  0
 29 83  1  0  0  0  0
 30 84  1  0  0  0  0
 31 85  1  0  0  0  0
 32 64  2  0  0  0  0
 33 66  1  0  0  0  0
 33 70  1  0  0  0  0
 34 58  1  0  0  0  0
 34 65  2  0  0  0  0
 35 71  1  0  0  0  0
 35 76  2  0  0  0  0
 36 50  1  0  0  0  0
 36 72  1  0  0  0  0
 36 77  2  0  0  0  0
 37 61  1  0  0  0  0
 37 67  1  0  0  0  0
 37 78  2  0  0  0  0
 38 62  1  0  0  0  0
 38 73  1  0  0  0  0
 38 79  2  0  0  0  0
 39 68  1  0  0  0  0
 39 74  1  0  0  0  0
 39 80  2  0  0  0  0
 40 43  1  0  0  0  0
 41 50  1  0  0  0  0
 42 67  1  0  0  0  0
 43 45  1  0  0  0  0
 44 46  1  0  0  0  0
 44 47  1  0  0  0  0
 45 49  1  0  0  0  0
 46 51  1  0  0  0  0
 47 68  1  0  0  0  0
 48 51  1  0  0  0  0
 48 68  1  0  0  0  0
 49 72  1  0  0  0  0
 50 67  1  0  0  0  0
 51 66  1  0  0  0  0
 52 59  1  0  0  0  0
 53 62  1  0  0  0  0
 54 63  1  0  0  0  0
 55 63  1  0  0  0  0
 56 63  1  0  0  0  0
 57 75  1  0  0  0  0
 58 82  1  0  0  0  0
 59 60  1  0  0  0  0
 60 74  1  0  0  0  0
 61 63  1  0  0  0  0
 61 73  1  0  0  0  0
 62 75  1  0  0  0  0
 64 66  1  0  0  0  0
M  CHG  1  75   1
M  ISO  4  39 100  58 101  74 100  82 101
M  END
> <Batch ID>
0093

> <Smiles>
CCC([100NH:0][100C:0](=O)N1CCCC(n2nc(-c3ccc(Oc4ccc(F)cc4F)cc3)c(C(N)=O)c2N)C1)c1ccc(N=C[101CH2:1][101O:1]c2ccc3c(c2)CN(C(=O)C(NC(=O)C(C)NC)C(C)(C)C)C(C(=O)NC2CCCc4ccccc42)C3)c(N)c1F

> <Shape>
0.151

> <Color>
0.184

> <Negative vol penalty>
0.000

$$$$

  -OEChem-04052300373D

 85 93  0     1  0  0  0  0  0999 V2000
  -21.2077  -20.8552   21.0079 C   0  0  0  0  0  0  0  0  0  0  0  0
  -22.3038  -21.5888   20.5654 C   0  0  0  0  0  0  0  0  0  0  0  0
  -27.8365  -21.6031   14.9337 C   0  0  0  0  0  0  0  0  0  0  0  0
  -25.8996  -12.9377   21.5666 C   0  0  0  0  0  0  0  0  0  0  0  0
  -25.6512  -13.4195   19.2122 C   0  0  0  0  0  0  0  0  0  0  0  0
  -28.0992  -22.9689   15.0400 C   0  0  0  0  0  0  0  0  0  0  0  0
  -19.9571  -21.4635   21.1066 C   0  0  0  0  0  0  0  0  0  0  0  0
  -22.1496  -22.9310   20.2203 C   0  0  0  0  0  0  0  0  0  0  0  0
  -25.8355  -25.8546   22.0942 C   0  0  0  0  0  0  0  0  0  0  0  0
  -27.8064  -20.8075   16.0790 C   0  0  0  0  0  0  0  0  0  0  0  0
  -24.7656  -12.1269   21.5204 C   0  0  0  0  0  0  0  0  0  0  0  0
  -24.5171  -12.6087   19.1659 C   0  0  0  0  0  0  0  0  0  0  0  0
  -27.0631  -25.8333   21.4337 C   0  0  0  0  0  0  0  0  0  0  0  0
  -23.9793   -8.9995   20.5036 C   0  0  0  0  0  0  0  0  0  0  0  0
  -24.0433   -7.7587   21.1375 C   0  0  0  0  0  0  0  0  0  0  0  0
  -28.3017  -22.7434   17.4369 C   0  0  0  0  0  0  0  0  0  0  0  0
  -26.4952  -27.8986   20.3242 C   0  0  0  0  0  0  0  0  0  0  0  0
  -22.2099   -8.3985   22.5750 C   0  0  0  0  0  0  0  0  0  0  0  0
  -26.3424  -13.5841   20.4125 C   0  0  0  0  0  0  0  0  0  0  0  0
  -28.3318  -23.5390   16.2916 C   0  0  0  0  0  0  0  0  0  0  0  0
  -28.8478  -14.0318   20.2389 C   0  0  0  0  0  0  0  0  0  0  0  0
  -19.7895  -22.8165   20.7717 C   0  0  0  0  0  0  0  0  0  0  0  0
  -24.9225  -26.8942   21.8661 C   0  0  0  0  0  0  0  0  0  0  0  0
  -20.8953  -23.5577   20.3133 C   0  0  0  0  0  0  0  0  0  0  0  0
  -25.2578  -27.9322   20.9850 C   0  0  0  0  0  0  0  0  0  0  0  0
  -28.0390  -21.3776   17.3306 C   0  0  0  0  0  0  0  0  0  0  0  0
  -24.0744  -11.9623   20.3201 C   0  0  0  0  0  0  0  0  0  0  0  0
  -27.3919  -26.8538   20.5463 C   0  0  0  0  0  0  0  0  0  0  0  0
  -23.0307   -9.9399   20.9054 C   0  0  0  0  0  0  0  0  0  0  0  0
  -23.1586   -7.4582   22.1732 C   0  0  0  0  0  0  0  0  0  0  0  0
  -22.1460   -9.6394   21.9411 C   0  0  0  0  0  0  0  0  0  0  0  0
  -27.5134  -14.4223   20.4598 C   0  0  0  0  0  0  0  0  0  0  0  0
  -29.5743  -15.1866   20.3977 C   0  0  0  0  0  0  0  0  0  0  0  0
  -28.6114  -24.9938   16.4033 C   0  0  0  0  0  0  0  0  0  0  0  0
  -29.3828  -12.7407   19.9186 C   0  0  0  0  0  0  0  0  0  0  0  0
  -21.9704  -27.0715   20.7009 C   0  0  0  0  0  0  0  0  0  0  0  0
  -31.0925  -26.8970   18.3866 C   0  0  0  0  0  0  0  0  0  0  0  0
  -22.2236  -30.1803   21.5918 C   0  0  0  0  0  0  0  0  0  0  0  0
  -24.2466  -32.8395   22.2864 C   0  0  0  0  0  0  0  0  0  0  0  0
  -28.2172  -20.9762   19.8112 C   0  0  0  0  0  0  0  0  0  0  0  0
  -18.4086  -23.4179   20.8496 C   0  0  0  0  0  0  0  0  0  0  0  0
  -23.6135  -26.9167   22.6068 C   0  0  0  0  0  0  0  0  0  0  0  0
  -24.3210  -29.0816   20.7206 C   0  0  0  0  0  0  0  0  0  0  0  0
  -18.4065  -24.9441   20.8215 C   0  0  0  0  0  0  0  0  0  0  0  0
  -29.4924  -19.3723   22.7230 C   0  0  0  0  0  0  0  0  0  0  0  0
  -19.3225  -25.4590   19.7158 C   0  0  0  0  0  0  0  0  0  0  0  0
  -29.2566  -17.8850   22.4503 C   0  0  0  0  0  0  0  0  0  0  0  0
  -28.3555  -20.2358   22.1793 C   0  0  0  0  0  0  0  0  0  0  0  0
  -27.7978  -18.5311   20.4904 C   0  0  0  0  0  0  0  0  0  0  0  0
  -20.7732  -25.0225   19.9533 C   0  0  1  0  0  0  0  0  0  0  0  0
  -22.5465  -27.7545   21.9090 C   0  0  1  0  0  0  0  0  0  0  0  0
  -28.9480  -17.6268   20.9625 C   0  0  2  0  0  0  0  0  0  0  0  0
  -31.9480  -28.0909   18.0446 C   0  0  0  0  0  0  0  0  0  0  0  0
  -24.1626  -35.2585   22.9491 C   0  0  0  0  0  0  0  0  0  0  0  0
  -21.4343  -30.9312   18.7416 C   0  0  0  0  0  0  0  0  0  0  0  0
  -22.2789  -33.2448   19.1916 C   0  0  0  0  0  0  0  0  0  0  0  0
  -20.3751  -32.3333   20.5212 C   0  0  0  0  0  0  0  0  0  0  0  0
  -25.7187  -32.3217   24.8011 C   0  0  0  0  0  0  0  0  0  0  0  0
  -28.6388  -27.4377   18.6072 C   0  0  0  0  0  0  0  0  0  1  0  0
  -29.7081  -26.7622   17.7545 C   0  0  2  0  0  0  0  0  0  0  0  0
  -22.7076  -31.4467   20.9277 C   0  0  1  0  0  0  0  0  0  0  0  0
  -24.2560  -33.8231   23.4427 C   0  0  2  0  0  0  0  0  0  0  0  0
  -21.7161  -31.9664   19.8488 C   0  0  0  0  0  0  0  0  0  0  0  0
  -27.3962  -15.7234   20.7379 N   0  0  0  0  0  0  0  0  0  0  0  0
  -28.6663  -16.1605   20.6929 N   0  0  0  0  0  0  0  0  0  0  0  0
  -23.0506  -29.0553   21.4642 N   0  0  0  0  0  0  0  0  0  0  0  0
  -28.1227  -19.9398   20.7640 N   0  0  0  0  0  0  0  0  0  0  0  0
  -30.8948  -15.4537   20.3122 N   0  0  0  0  0  0  0  0  0  0  0  0
  -28.4961  -11.6626   19.7923 N   0  0  0  0  0  0  0  0  0  0  0  0
  -28.0081  -20.5692   18.4940 N   0  0  0  0  0  0  0  0  0  0  0  0
  -29.3741  -25.3867   17.4959 N   0  0  0  0  0  0  0  0  0  0  0  0
  -21.3891  -25.8472   20.9706 N   0  0  0  0  0  0  0  0  0  0  0  0
  -22.9720  -32.3962   22.0033 N   0  0  0  0  0  0  0  0  0  0  0  0
  -25.5101  -33.6792   24.2349 N   0  3  0  0  0  0  0  0  0  0  0  0
  -28.1512  -25.7597   15.5605 O   0  0  0  0  0  0  0  0  0  0  0  0
  -30.6124  -12.5454   19.7657 O   0  0  0  0  0  0  0  0  0  0  0  0
  -22.0463  -27.6157   19.6056 O   0  0  0  0  0  0  0  0  0  0  0  0
  -31.4998  -26.0539   19.1903 O   0  0  0  0  0  0  0  0  0  0  0  0
  -21.1546  -30.1908   22.2072 O   0  0  0  0  0  0  0  0  0  0  0  0
  -25.2674  -32.5014   21.6912 O   0  0  0  0  0  0  0  0  0  0  0  0
  -28.4923  -22.1339   20.1368 O   0  0  0  0  0  0  0  0  0  0  0  0
  -22.9679  -11.1710   20.2745 O   0  0  0  0  0  0  0  0  0  0  0  0
  -28.5892  -26.8351   19.8997 O   0  0  0  0  0  0  0  0  0  1  0  0
  -23.2192   -6.2660   22.7808 F   0  0  0  0  0  0  0  0  0  0  0  0
  -21.2317  -10.5383   22.3307 F   0  0  0  0  0  0  0  0  0  0  0  0
  1  2  1  0  0  0  0
  1  7  2  0  0  0  0
  2  8  2  0  0  0  0
  3  6  2  0  0  0  0
  3 10  1  0  0  0  0
  4 11  2  0  0  0  0
  4 19  1  0  0  0  0
  5 12  1  0  0  0  0
  5 19  2  0  0  0  0
  6 20  1  0  0  0  0
  7 22  1  0  0  0  0
  8 24  1  0  0  0  0
  9 13  2  0  0  0  0
  9 23  1  0  0  0  0
 10 26  2  0  0  0  0
 11 27  1  0  0  0  0
 12 27  2  0  0  0  0
 13 28  1  0  0  0  0
 14 15  2  0  0  0  0
 14 29  1  0  0  0  0
 15 30  1  0  0  0  0
 16 20  2  0  0  0  0
 16 26  1  0  0  0  0
 17 25  1  0  0  0  0
 17 28  2  0  0  0  0
 18 30  2  0  0  0  0
 18 31  1  0  0  0  0
 19 32  1  0  0  0  0
 20 34  1  0  0  0  0
 21 32  1  0  0  0  0
 21 33  2  0  0  0  0
 21 35  1  0  0  0  0
 22 24  2  0  0  0  0
 22 41  1  0  0  0  0
 23 25  2  0  0  0  0
 23 42  1  0  0  0  0
 24 50  1  0  0  0  0
 25 43  1  0  0  0  0
 26 70  1  0  0  0  0
 27 82  1  0  0  0  0
 28 83  1  0  0  0  0
 29 31  2  0  0  0  0
 29 82  1  0  0  0  0
 30 84  1  0  0  0  0
 31 85  1  0  0  0  0
 32 64  2  0  0  0  0
 33 65  1  0  0  0  0
 33 68  1  0  0  0  0
 34 71  1  0  0  0  0
 34 75  2  0  0  0  0
 35 69  1  0  0  0  0
 35 76  2  0  0  0  0
 36 51  1  0  0  0  0
 36 72  1  0  0  0  0
 36 77  2  0  0  0  0
 37 53  1  0  0  0  0
 37 60  1  0  0  0  0
 37 78  2  0  0  0  0
 38 61  1  0  0  0  0
 38 66  1  0  0  0  0
 38 79  2  0  0  0  0
 39 62  1  0  0  0  0
 39 73  1  0  0  0  0
 39 80  2  0  0  0  0
 40 67  1  0  0  0  0
 40 70  1  0  0  0  0
 40 81  2  0  0  0  0
 41 44  1  0  0  0  0
 42 51  1  0  0  0  0
 43 66  1  0  0  0  0
 44 46  1  0  0  0  0
 45 47  1  0  0  0  0
 45 48  1  0  0  0  0
 46 50  1  0  0  0  0
 47 52  1  0  0  0  0
 48 67  1  0  0  0  0
 49 52  1  0  0  0  0
 49 67  1  0  0  0  0
 50 72  1  0  0  0  0
 51 66  1  0  0  0  0
 52 65  1  0  0  0  0
 54 62  1  0  0  0  0
 55 63  1  0  0  0  0
 56 63  1  0  0  0  0
 57 63  1  0  0  0  0
 58 74  1  0  0  0  0
 59 60  1  0  0  0  0
 59 83  1  0  0  0  0
 60 71  1  0  0  0  0
 61 63  1  0  0  0  0
 61 73  1  0  0  0  0
 62 74  1  0  0  0  0
 64 65  1  0  0  0  0
M  CHG  1  74   1
M  ISO  4  40 100  59 101  70 100  83 101
M  END
> <Batch ID>
0093

> <Smiles>
CNC(C)C(=O)NC(C(=O)N1Cc2cc([101O:1][101CH2:1]C(NC(=O)c3cccc([100NH:0][100C:0](=O)N4CCCC(n5nc(-c6ccc(Oc7ccc(F)cc7F)cc6)c(C(N)=O)c5N)C4)c3)C(C)=O)ccc2CC1C(=O)NC1CCCc2ccccc21)C(C)(C)C

> <Shape>
0.268

> <Color>
0.079

> <Negative vol penalty>
0.000

$$$$

  -OEChem-04052300373D

 90 99  0     1  0  0  0  0  0999 V2000
  -18.3425  -25.7969   19.7822 C   0  0  0  0  0  0  0  0  0  0  0  0
  -19.7011  -25.8625   19.4900 C   0  0  0  0  0  0  0  0  0  0  0  0
  -23.2229   -9.6788   19.8249 C   0  0  0  0  0  0  0  0  0  0  0  0
  -24.6240   -9.2547   21.7470 C   0  0  0  0  0  0  0  0  0  0  0  0
  -17.8237  -26.5305   20.8482 C   0  0  0  0  0  0  0  0  0  0  0  0
  -20.5415  -26.6627   20.2631 C   0  0  0  0  0  0  0  0  0  0  0  0
  -24.8611  -24.3232   21.4931 C   0  0  0  0  0  0  0  0  0  0  0  0
  -29.4476  -20.3650   18.9541 C   0  0  0  0  0  0  0  0  0  0  0  0
  -29.3260  -18.9757   18.9766 C   0  0  0  0  0  0  0  0  0  0  0  0
  -22.7705   -8.3600   19.8637 C   0  0  0  0  0  0  0  0  0  0  0  0
  -24.1715   -7.9358   21.7858 C   0  0  0  0  0  0  0  0  0  0  0  0
  -25.8473  -24.2493   20.5104 C   0  0  0  0  0  0  0  0  0  0  0  0
  -21.4302   -6.2752   22.8573 C   0  0  0  0  0  0  0  0  0  0  0  0
  -21.0733   -5.7504   24.0994 C   0  0  0  0  0  0  0  0  0  0  0  0
  -26.9956  -26.1088   21.5316 C   0  0  0  0  0  0  0  0  0  0  0  0
  -31.5196  -18.7676   17.9857 C   0  0  0  0  0  0  0  0  0  0  0  0
  -22.7551   -4.0329   23.8569 C   0  0  0  0  0  0  0  0  0  0  0  0
  -24.1497  -10.1262   20.7666 C   0  0  0  0  0  0  0  0  0  0  0  0
  -23.8428  -12.6575   20.8448 C   0  0  0  0  0  0  0  0  0  0  0  0
  -18.6598  -27.3326   21.6408 C   0  0  0  0  0  0  0  0  0  0  0  0
  -24.9291  -25.2991   22.4978 C   0  0  0  0  0  0  0  0  0  0  0  0
  -20.0332  -27.4089   21.3399 C   0  0  0  0  0  0  0  0  0  0  0  0
  -26.0103  -26.1914   22.5273 C   0  0  0  0  0  0  0  0  0  0  0  0
  -30.6052  -20.9557   18.4474 C   0  0  0  0  0  0  0  0  0  0  0  0
  -30.3620  -18.1770   18.4924 C   0  0  0  0  0  0  0  0  0  0  0  0
  -23.2447   -7.4885   20.8441 C   0  0  0  0  0  0  0  0  0  0  0  0
  -26.9133  -25.1441   20.5279 C   0  0  0  0  0  0  0  0  0  0  0  0
  -22.4496   -5.6789   22.1150 C   0  0  0  0  0  0  0  0  0  0  0  0
  -21.7358   -4.6292   24.5992 C   0  0  0  0  0  0  0  0  0  0  0  0
  -31.6412  -20.1570   17.9632 C   0  0  0  0  0  0  0  0  0  0  0  0
  -23.1120   -4.5577   22.6148 C   0  0  0  0  0  0  0  0  0  0  0  0
  -24.6179  -11.4883   20.7267 C   0  0  0  0  0  0  0  0  0  0  0  0
  -24.7506  -13.6831   20.7431 C   0  0  0  0  0  0  0  0  0  0  0  0
  -31.1584  -24.2706   16.9091 C   0  0  0  0  0  0  0  0  0  0  0  0
  -30.0852  -23.1893   19.3973 C   0  0  0  0  0  0  0  0  0  0  0  0
  -22.4285  -12.8034   21.0300 C   0  0  0  0  0  0  0  0  0  0  0  0
  -23.0949  -27.7400   23.3818 C   0  0  0  0  0  0  0  0  0  0  0  0
  -25.2064  -27.9319   25.8368 C   0  0  0  0  0  0  0  0  0  0  0  0
  -28.7787  -27.6625   26.2647 C   0  0  0  0  0  0  0  0  0  0  0  0
  -28.9754  -16.1127   18.4060 C   0  0  0  0  0  0  0  0  0  0  0  0
  -18.0452  -28.1445   22.7534 C   0  0  0  0  0  0  0  0  0  0  0  0
  -23.8713  -25.3485   23.5660 C   0  0  0  0  0  0  0  0  0  0  0  0
  -26.1404  -27.2446   23.5961 C   0  0  0  0  0  0  0  0  0  0  0  0
  -30.0269  -24.9474   17.6370 C   0  0  0  0  0  0  0  0  0  0  0  0
  -31.7097  -22.9994   17.5191 C   0  0  0  0  0  0  0  0  0  0  0  0
  -19.0667  -28.6759   23.7556 C   0  0  0  0  0  0  0  0  0  0  0  0
  -29.7999  -13.6436   20.8281 C   0  0  0  0  0  0  0  0  0  0  0  0
  -20.2577  -29.2917   23.0282 C   0  0  0  0  0  0  0  0  0  0  0  0
  -28.4538  -12.9462   21.0208 C   0  0  0  0  0  0  0  0  0  0  0  0
  -30.0495  -14.0121   19.3653 C   0  0  0  0  0  0  0  0  0  0  0  0
  -27.6128  -14.1073   18.9434 C   0  0  0  0  0  0  0  0  0  0  0  0
  -20.9811  -28.2463   22.1708 C   0  0  1  0  0  0  0  0  0  0  0  0
  -30.2102  -24.6905   19.1300 C   0  0  1  0  0  0  0  0  0  0  0  0
  -23.7701  -26.7113   24.2441 C   0  0  1  0  0  0  0  0  0  0  0  0
  -27.3096  -13.7766   20.4131 C   0  0  1  0  0  0  0  0  0  0  0  0
  -33.5911  -15.1864   19.5573 C   0  0  0  0  0  0  0  0  0  0  0  0
  -30.1357  -26.9803   28.2624 C   0  0  0  0  0  0  0  0  0  0  0  0
  -25.3373  -30.9264   26.4079 C   0  0  0  0  0  0  0  0  0  0  0  0
  -27.7065  -30.6101   27.1527 C   0  0  0  0  0  0  0  0  0  0  0  0
  -25.8546  -29.4663   28.3713 C   0  0  0  0  0  0  0  0  0  0  0  0
  -30.1737  -25.5446   24.7391 C   0  0  0  0  0  0  0  0  0  0  0  0
  -29.1916  -25.4887   19.9392 C   0  0  0  0  0  0  0  0  0  1  0  0
  -32.3121  -16.0046   19.6673 C   0  0  0  0  0  0  0  0  0  0  0  0
  -31.4535  -15.9276   18.4105 C   0  0  0  0  0  0  0  0  0  0  0  0
  -26.5124  -28.6524   26.0698 C   0  0  1  0  0  0  0  0  0  0  0  0
  -29.5301  -26.5305   26.9419 C   0  0  2  0  0  0  0  0  0  0  0  0
  -26.3445  -29.9059   26.9743 C   0  0  0  0  0  0  0  0  0  0  0  0
  -25.9181  -11.7461   20.5623 N   0  0  0  0  0  0  0  0  0  0  0  0
  -25.9670  -13.0891   20.5764 N   0  0  0  0  0  0  0  0  0  0  0  0
  -30.7281  -22.3915   18.4253 N   0  0  0  0  0  0  0  0  0  0  0  0
  -25.0775  -27.2566   24.6148 N   0  0  0  0  0  0  0  0  0  0  0  0
  -28.9143  -14.7679   18.8174 N   0  0  0  0  0  0  0  0  0  0  0  0
  -24.6191  -15.0261   20.7808 N   0  0  0  0  0  0  0  0  0  0  0  0
  -21.9275  -12.8527   22.3380 N   0  0  0  0  0  0  0  0  0  0  0  0
  -21.8113  -27.3991   23.0000 N   0  0  0  0  0  0  0  0  0  0  0  0
  -27.4400  -27.6564   26.5950 N   0  0  0  0  0  0  0  0  0  0  0  0
  -30.2358  -16.7386   18.5158 N   0  0  0  0  0  0  0  0  0  0  0  0
  -30.6294  -26.0400   26.0634 N   0  3  0  0  0  0  0  0  0  0  0  0
  -31.6614  -24.7680   15.9020 O   0  0  0  0  0  0  0  0  0  0  0  0
  -29.5046  -22.7737   20.4001 O   0  0  0  0  0  0  0  0  0  0  0  0
  -21.6309  -12.8710   20.0641 O   0  0  0  0  0  0  0  0  0  0  0  0
  -23.6935  -28.7675   23.0860 O   0  0  0  0  0  0  0  0  0  0  0  0
  -24.3355  -27.9611   26.7099 O   0  0  0  0  0  0  0  0  0  0  0  0
  -29.3255  -28.4734   25.5204 O   0  0  0  0  0  0  0  0  0  0  0  0
  -27.9871  -16.7011   17.9511 O   0  0  0  0  0  0  0  0  0  0  0  0
  -22.8033   -6.2016   20.8824 O   0  0  0  0  0  0  0  0  0  0  0  0
  -27.8769  -25.0746   19.5696 O   0  0  0  0  0  0  0  0  0  1  0  0
  -21.3940   -4.1263   25.7927 F   0  0  0  0  0  0  0  0  0  0  0  0
  -32.7582  -20.7138   17.4732 F   0  0  0  0  0  0  0  0  0  0  0  0
  -24.0929   -3.9812   21.9068 F   0  0  0  0  0  0  0  0  0  0  0  0
  1  2  1  0  0  0  0
  1  5  2  0  0  0  0
  2  6  2  0  0  0  0
  3 10  2  0  0  0  0
  3 18  1  0  0  0  0
  4 11  1  0  0  0  0
  4 18  2  0  0  0  0
  5 20  1  0  0  0  0
  6 22  1  0  0  0  0
  7 12  2  0  0  0  0
  7 21  1  0  0  0  0
  8  9  2  0  0  0  0
  8 24  1  0  0  0  0
  9 25  1  0  0  0  0
 10 26  1  0  0  0  0
 11 26  2  0  0  0  0
 12 27  1  0  0  0  0
 13 14  2  0  0  0  0
 13 28  1  0  0  0  0
 14 29  1  0  0  0  0
 15 23  1  0  0  0  0
 15 27  2  0  0  0  0
 16 25  2  0  0  0  0
 16 30  1  0  0  0  0
 17 29  2  0  0  0  0
 17 31  1  0  0  0  0
 18 32  1  0  0  0  0
 19 32  1  0  0  0  0
 19 33  2  0  0  0  0
 19 36  1  0  0  0  0
 20 22  2  0  0  0  0
 20 41  1  0  0  0  0
 21 23  2  0  0  0  0
 21 42  1  0  0  0  0
 22 52  1  0  0  0  0
 23 43  1  0  0  0  0
 24 30  2  0  0  0  0
 24 70  1  0  0  0  0
 25 77  1  0  0  0  0
 26 86  1  0  0  0  0
 27 87  1  0  0  0  0
 28 31  2  0  0  0  0
 28 86  1  0  0  0  0
 29 88  1  0  0  0  0
 30 89  1  0  0  0  0
 31 90  1  0  0  0  0
 32 68  2  0  0  0  0
 33 69  1  0  0  0  0
 33 73  1  0  0  0  0
 34 44  1  0  0  0  0
 34 45  1  0  0  0  0
 34 79  2  0  0  0  0
 35 53  1  0  0  0  0
 35 70  1  0  0  0  0
 35 80  2  0  0  0  0
 36 74  1  0  0  0  0
 36 81  2  0  0  0  0
 37 54  1  0  0  0  0
 37 75  1  0  0  0  0
 37 82  2  0  0  0  0
 38 65  1  0  0  0  0
 38 71  1  0  0  0  0
 38 83  2  0  0  0  0
 39 66  1  0  0  0  0
 39 76  1  0  0  0  0
 39 84  2  0  0  0  0
 40 72  1  0  0  0  0
 40 77  1  0  0  0  0
 40 85  2  0  0  0  0
 41 46  1  0  0  0  0
 42 54  1  0  0  0  0
 43 71  1  0  0  0  0
 44 53  1  0  0  0  0
 45 70  1  0  0  0  0
 46 48  1  0  0  0  0
 47 49  1  0  0  0  0
 47 50  1  0  0  0  0
 48 52  1  0  0  0  0
 49 55  1  0  0  0  0
 50 72  1  0  0  0  0
 51 55  1  0  0  0  0
 51 72  1  0  0  0  0
 52 75  1  0  0  0  0
 53 62  1  0  0  0  0
 54 71  1  0  0  0  0
 55 69  1  0  0  0  0
 56 63  1  0  0  0  0
 57 66  1  0  0  0  0
 58 67  1  0  0  0  0
 59 67  1  0  0  0  0
 60 67  1  0  0  0  0
 61 78  1  0  0  0  0
 62 87  1  0  0  0  0
 63 64  1  0  0  0  0
 64 77  1  0  0  0  0
 65 67  1  0  0  0  0
 65 76  1  0  0  0  0
 66 78  1  0  0  0  0
 68 69  1  0  0  0  0
M  CHG  1  78   1
M  ISO  4  40 100  62 101  77 100  87 101
M  END
> <Batch ID>
0093

> <Smiles>
CCC[100N:0](c1ccc(N2CC(=O)CC([101CH2:1][101O:1]c3ccc4c(c3)CN(C(=O)C(NC(=O)C(C)NC)C(C)(C)C)C(C(=O)NC3CCCc5ccccc53)C4)C2=O)c(F)c1)[100C:0](=O)N1CCCC(n2nc(-c3ccc(Oc4ccc(F)cc4F)cc3)c(C(N)=O)c2N)C1

> <Shape>
0.287

> <Color>
0.143

> <Negative vol penalty>
0.000

$$$$

  -OEChem-04052300373D

 87 96  0     1  0  0  0  0  0999 V2000
  -26.2659  -35.2057   15.1571 C   0  0  0  0  0  0  0  0  0  0  0  0
  -26.0550  -33.8352   15.2699 C   0  0  0  0  0  0  0  0  0  0  0  0
  -24.0746   -8.2645   19.4938 C   0  0  0  0  0  0  0  0  0  0  0  0
  -23.2410  -10.0597   20.8792 C   0  0  0  0  0  0  0  0  0  0  0  0
  -26.8018  -35.9180   16.2292 C   0  0  0  0  0  0  0  0  0  0  0  0
  -26.3809  -33.1760   16.4546 C   0  0  0  0  0  0  0  0  0  0  0  0
  -23.4375  -28.4214   18.9518 C   0  0  0  0  0  0  0  0  0  0  0  0
  -28.7673  -19.2806   19.8218 C   0  0  0  0  0  0  0  0  0  0  0  0
  -27.5742  -18.0620   18.1104 C   0  0  0  0  0  0  0  0  0  0  0  0
  -27.7329  -20.2146   19.8779 C   0  0  0  0  0  0  0  0  0  0  0  0
  -26.5397  -18.9960   18.1666 C   0  0  0  0  0  0  0  0  0  0  0  0
  -23.1874   -7.3796   20.1065 C   0  0  0  0  0  0  0  0  0  0  0  0
  -22.3537   -9.1748   21.4919 C   0  0  0  0  0  0  0  0  0  0  0  0
  -23.6833  -27.0492   18.9293 C   0  0  0  0  0  0  0  0  0  0  0  0
  -22.9960   -5.6538   23.0063 C   0  0  0  0  0  0  0  0  0  0  0  0
  -23.4888   -4.4081   23.3948 C   0  0  0  0  0  0  0  0  0  0  0  0
  -24.8217  -27.2244   21.0489 C   0  0  0  0  0  0  0  0  0  0  0  0
  -23.5656  -21.9018   19.3710 C   0  0  0  0  0  0  0  0  0  0  0  0
  -21.8870   -3.3231   21.9477 C   0  0  0  0  0  0  0  0  0  0  0  0
  -24.1015   -9.6045   19.8802 C   0  0  0  0  0  0  0  0  0  0  0  0
  -24.7849  -11.2978   18.0988 C   0  0  0  0  0  0  0  0  0  0  0  0
  -27.1254  -35.2688   17.4310 C   0  0  0  0  0  0  0  0  0  0  0  0
  -23.8923  -29.2085   20.0196 C   0  0  0  0  0  0  0  0  0  0  0  0
  -26.9229  -33.8800   17.5434 C   0  0  0  0  0  0  0  0  0  0  0  0
  -24.5782  -28.6059   21.0838 C   0  0  0  0  0  0  0  0  0  0  0  0
  -28.6880  -18.2043   18.9380 C   0  0  0  0  0  0  0  0  0  0  0  0
  -24.4711  -22.9294   19.0085 C   0  0  0  0  0  0  0  0  0  0  0  0
  -26.6191  -20.0723   19.0504 C   0  0  0  0  0  0  0  0  0  0  0  0
  -22.3269   -7.8348   21.1055 C   0  0  0  0  0  0  0  0  0  0  0  0
  -24.3780  -26.4510   19.9765 C   0  0  0  0  0  0  0  0  0  0  0  0
  -21.9485   -5.7342   22.0886 C   0  0  0  0  0  0  0  0  0  0  0  0
  -22.9344   -3.2428   22.8654 C   0  0  0  0  0  0  0  0  0  0  0  0
  -21.3941   -4.5689   21.5593 C   0  0  0  0  0  0  0  0  0  0  0  0
  -25.0182  -10.5189   19.2480 C   0  0  0  0  0  0  0  0  0  0  0  0
  -25.7102  -22.3490   18.8507 C   0  0  0  0  0  0  0  0  0  0  0  0
  -25.9564  -11.9893   17.9091 C   0  0  0  0  0  0  0  0  0  0  0  0
  -24.2791  -20.7247   19.4237 C   0  0  0  0  0  0  0  0  0  0  0  0
  -23.6140  -11.3882   17.2763 C   0  0  0  0  0  0  0  0  0  0  0  0
  -25.9095  -31.6480   20.3081 C   0  0  0  0  0  0  0  0  0  0  0  0
  -24.8472  -31.6581   23.3730 C   0  0  0  0  0  0  0  0  0  0  0  0
  -23.4399  -29.9295   25.9573 C   0  0  0  0  0  0  0  0  0  0  0  0
  -30.2161  -14.9886   19.9102 C   0  0  0  0  0  0  0  0  0  0  0  0
  -27.7464  -36.0727   18.5459 C   0  0  0  0  0  0  0  0  0  0  0  0
  -23.5957  -30.6829   20.0419 C   0  0  0  0  0  0  0  0  0  0  0  0
  -25.0698  -29.4033   22.2632 C   0  0  0  0  0  0  0  0  0  0  0  0
  -27.7156  -35.3643   19.8978 C   0  0  0  0  0  0  0  0  0  0  0  0
  -30.4910  -11.4430   20.0830 C   0  0  0  0  0  0  0  0  0  0  0  0
  -28.1737  -33.9166   19.7524 C   0  0  0  0  0  0  0  0  0  0  0  0
  -29.0718  -10.9515   19.7927 C   0  0  0  0  0  0  0  0  0  0  0  0
  -30.4853  -12.7335   20.8994 C   0  0  0  0  0  0  0  0  0  0  0  0
  -28.2562  -13.3335   20.0366 C   0  0  0  0  0  0  0  0  0  0  0  0
  -27.2406  -33.1336   18.8209 C   0  0  1  0  0  0  0  0  0  0  0  0
  -24.5532  -31.4716   20.9300 C   0  0  1  0  0  0  0  0  0  0  0  0
  -28.2096  -12.0649   19.1679 C   0  0  2  0  0  0  0  0  0  0  0  0
  -27.0023  -22.9678   18.4777 C   0  0  0  0  0  0  0  0  0  0  0  0
  -30.4508  -17.1255   17.4921 C   0  0  0  0  0  0  0  0  0  0  0  0
  -22.7297  -30.1949   28.3495 C   0  0  0  0  0  0  0  0  0  0  0  0
  -27.7651  -31.5120   24.2530 C   0  0  0  0  0  0  0  0  0  0  0  0
  -26.9723  -30.8297   26.5277 C   0  0  0  0  0  0  0  0  0  0  0  0
  -26.3435  -33.0612   25.6070 C   0  0  0  0  0  0  0  0  0  0  0  0
  -20.6175  -29.3202   25.3082 C   0  0  0  0  0  0  0  0  0  0  0  0
  -24.1332  -24.3807   18.8321 C   0  0  0  0  0  0  0  0  0  1  0  0
  -29.7940  -17.2056   18.8779 C   0  0  2  0  0  0  0  0  0  0  0  0
  -25.2706  -30.9799   24.6535 C   0  0  1  0  0  0  0  0  0  0  0  0
  -22.2957  -30.2727   26.8940 C   0  0  2  0  0  0  0  0  0  0  0  0
  -26.5804  -31.5807   25.2373 C   0  0  0  0  0  0  0  0  0  0  0  0
  -26.2418  -10.6982   19.7528 N   0  0  0  0  0  0  0  0  0  0  0  0
  -25.5816  -21.0087   19.1059 N   0  0  0  0  0  0  0  0  0  0  0  0
  -26.7879  -11.5976   18.9167 N   0  0  0  0  0  0  0  0  0  0  0  0
  -24.7607  -30.8424   22.2359 N   0  0  0  0  0  0  0  0  0  0  0  0
  -29.6512  -13.7487   20.2518 N   0  0  0  0  0  0  0  0  0  0  0  0
  -26.3461  -12.8880   16.9802 N   0  0  0  0  0  0  0  0  0  0  0  0
  -22.4988  -10.6091   17.6136 N   0  0  0  0  0  0  0  0  0  0  0  0
  -26.0220  -32.7725   19.5131 N   0  0  0  0  0  0  0  0  0  0  0  0
  -24.1252  -31.0560   25.5538 N   0  0  0  0  0  0  0  0  0  0  0  0
  -29.3580  -15.8913   19.2941 N   0  0  0  0  0  0  0  0  0  0  0  0
  -21.1597  -29.3297   26.6913 N   0  3  0  0  0  0  0  0  0  0  0  0
  -23.5640  -12.1254   16.2626 O   0  0  0  0  0  0  0  0  0  0  0  0
  -26.7894  -30.8255   20.5341 O   0  0  0  0  0  0  0  0  0  0  0  0
  -24.5953  -32.8656   23.3829 O   0  0  0  0  0  0  0  0  0  0  0  0
  -23.7021  -28.7770   25.6203 O   0  0  0  0  0  0  0  0  0  0  0  0
  -31.3990  -15.2682   20.1326 O   0  0  0  0  0  0  0  0  0  0  0  0
  -23.8845  -19.4911   19.7155 O   0  0  0  0  0  0  0  0  0  0  0  0
  -21.4608   -6.9717   21.7034 O   0  0  0  0  0  0  0  0  0  0  0  0
  -24.6198  -25.1120   19.9567 O   0  0  0  0  0  0  0  0  0  1  0  0
  -23.4088   -2.0466   23.2374 F   0  0  0  0  0  0  0  0  0  0  0  0
  -20.3885   -4.6398   20.6764 F   0  0  0  0  0  0  0  0  0  0  0  0
  1  2  1  0  0  0  0
  1  5  2  0  0  0  0
  2  6  2  0  0  0  0
  3 12  2  0  0  0  0
  3 20  1  0  0  0  0
  4 13  1  0  0  0  0
  4 20  2  0  0  0  0
  5 22  1  0  0  0  0
  6 24  1  0  0  0  0
  7 14  2  0  0  0  0
  7 23  1  0  0  0  0
  8 10  2  0  0  0  0
  8 26  1  0  0  0  0
  9 11  1  0  0  0  0
  9 26  2  0  0  0  0
 10 28  1  0  0  0  0
 11 28  2  0  0  0  0
 12 29  1  0  0  0  0
 13 29  2  0  0  0  0
 14 30  1  0  0  0  0
 15 16  2  0  0  0  0
 15 31  1  0  0  0  0
 16 32  1  0  0  0  0
 17 25  1  0  0  0  0
 17 30  2  0  0  0  0
 18 27  1  0  0  0  0
 18 37  2  0  0  0  0
 19 32  2  0  0  0  0
 19 33  1  0  0  0  0
 20 34  1  0  0  0  0
 21 34  1  0  0  0  0
 21 36  2  0  0  0  0
 21 38  1  0  0  0  0
 22 24  2  0  0  0  0
 22 43  1  0  0  0  0
 23 25  2  0  0  0  0
 23 44  1  0  0  0  0
 24 52  1  0  0  0  0
 25 45  1  0  0  0  0
 26 63  1  0  0  0  0
 27 35  2  0  0  0  0
 27 62  1  0  0  0  0
 28 68  1  0  0  0  0
 29 84  1  0  0  0  0
 30 85  1  0  0  0  0
 31 33  2  0  0  0  0
 31 84  1  0  0  0  0
 32 86  1  0  0  0  0
 33 87  1  0  0  0  0
 34 67  2  0  0  0  0
 35 55  1  0  0  0  0
 35 68  1  0  0  0  0
 36 69  1  0  0  0  0
 36 72  1  0  0  0  0
 37 68  1  0  0  0  0
 37 83  1  0  0  0  0
 38 73  1  0  0  0  0
 38 78  2  0  0  0  0
 39 53  1  0  0  0  0
 39 74  1  0  0  0  0
 39 79  2  0  0  0  0
 40 64  1  0  0  0  0
 40 70  1  0  0  0  0
 40 80  2  0  0  0  0
 41 65  1  0  0  0  0
 41 75  1  0  0  0  0
 41 81  2  0  0  0  0
 42 71  1  0  0  0  0
 42 76  1  0  0  0  0
 42 82  2  0  0  0  0
 43 46  1  0  0  0  0
 44 53  1  0  0  0  0
 45 70  1  0  0  0  0
 46 48  1  0  0  0  0
 47 49  1  0  0  0  0
 47 50  1  0  0  0  0
 48 52  1  0  0  0  0
 49 54  1  0  0  0  0
 50 71  1  0  0  0  0
 51 54  1  0  0  0  0
 51 71  1  0  0  0  0
 52 74  1  0  0  0  0
 53 70  1  0  0  0  0
 54 69  1  0  0  0  0
 56 63  1  0  0  0  0
 57 65  1  0  0  0  0
 58 66  1  0  0  0  0
 59 66  1  0  0  0  0
 60 66  1  0  0  0  0
 61 77  1  0  0  0  0
 62 85  1  0  0  0  0
 63 76  1  0  0  0  0
 64 66  1  0  0  0  0
 64 75  1  0  0  0  0
 65 77  1  0  0  0  0
 67 69  1  0  0  0  0
M  CHG  1  77   1
M  ISO  4  42 100  62 101  76 100  85 101
M  END
> <Batch ID>
0093

> <Smiles>
CNC(C)C(=O)NC(C(=O)N1Cc2cc([101O:1][101CH2:1]C3=C(C)N(c4ccc(C(C)[100NH:0][100C:0](=O)N5CCCC(n6nc(-c7ccc(Oc8ccc(F)cc8F)cc7)c(C(N)=O)c6N)C5)cc4)C(=O)C3)ccc2CC1C(=O)NC1CCCc2ccccc21)C(C)(C)C

> <Shape>
0.234

> <Color>
0.091

> <Negative vol penalty>
0.000

$$$$

  -OEChem-04052300373D

 83 91  0     1  0  0  0  0  0999 V2000
  -27.4411  -20.8548   27.6778 C   0  0  0  0  0  0  0  0  0  0  0  0
  -27.7071  -21.9100   26.8126 C   0  0  0  0  0  0  0  0  0  0  0  0
  -27.5266  -12.3393   19.3258 C   0  0  0  0  0  0  0  0  0  0  0  0
  -26.5076  -12.8177   21.4635 C   0  0  0  0  0  0  0  0  0  0  0  0
  -30.7714  -21.0292   21.0962 C   0  0  0  0  0  0  0  0  0  0  0  0
  -26.1355  -20.3909   27.8246 C   0  0  0  0  0  0  0  0  0  0  0  0
  -26.6661  -22.5095   26.1028 C   0  0  0  0  0  0  0  0  0  0  0  0
  -27.7607  -26.5472   23.5140 C   0  0  0  0  0  0  0  0  0  0  0  0
  -27.0231  -11.0395   19.3767 C   0  0  0  0  0  0  0  0  0  0  0  0
  -26.0041  -11.5179   21.5144 C   0  0  0  0  0  0  0  0  0  0  0  0
  -30.3903  -21.8033   20.0003 C   0  0  0  0  0  0  0  0  0  0  0  0
  -28.5119  -26.5093   22.3401 C   0  0  0  0  0  0  0  0  0  0  0  0
  -23.4289   -9.7915   20.1695 C   0  0  0  0  0  0  0  0  0  0  0  0
  -22.0998   -9.6278   20.5596 C   0  0  0  0  0  0  0  0  0  0  0  0
  -28.7878  -21.7325   22.2828 C   0  0  0  0  0  0  0  0  0  0  0  0
  -26.4953  -26.7949   21.0475 C   0  0  0  0  0  0  0  0  0  0  0  0
  -22.8150   -8.2740   22.4285 C   0  0  0  0  0  0  0  0  0  0  0  0
  -27.2688  -13.2285   20.3693 C   0  0  0  0  0  0  0  0  0  0  0  0
  -29.9701  -20.9937   22.2375 C   0  0  0  0  0  0  0  0  0  0  0  0
  -27.1629  -15.7048   19.7656 C   0  0  0  0  0  0  0  0  0  0  0  0
  -25.0804  -20.9774   27.1064 C   0  0  0  0  0  0  0  0  0  0  0  0
  -26.3675  -26.6986   23.4629 C   0  0  0  0  0  0  0  0  0  0  0  0
  -25.3382  -22.0713   26.2553 C   0  0  0  0  0  0  0  0  0  0  0  0
  -25.7290  -26.8370   22.2222 C   0  0  0  0  0  0  0  0  0  0  0  0
  -28.4068  -22.5067   21.1868 C   0  0  0  0  0  0  0  0  0  0  0  0
  -26.2619  -10.6288   20.4710 C   0  0  0  0  0  0  0  0  0  0  0  0
  -27.8789  -26.6302   21.1065 C   0  0  0  0  0  0  0  0  0  0  0  0
  -29.2081  -22.5421   20.0456 C   0  0  0  0  0  0  0  0  0  0  0  0
  -24.4511   -9.1964   20.9089 C   0  0  0  0  0  0  0  0  0  0  0  0
  -21.7928   -8.8691   21.6891 C   0  0  0  0  0  0  0  0  0  0  0  0
  -24.1442   -8.4377   22.0384 C   0  0  0  0  0  0  0  0  0  0  0  0
  -27.7891  -14.5711   20.3175 C   0  0  0  0  0  0  0  0  0  0  0  0
  -28.0607  -16.7247   19.9662 C   0  0  0  0  0  0  0  0  0  0  0  0
  -30.3681  -20.1860   23.3796 C   0  0  0  0  0  0  0  0  0  0  0  0
  -25.8841  -15.8251   19.1286 C   0  0  0  0  0  0  0  0  0  0  0  0
  -31.6169  -19.3901   23.3634 C   0  0  0  0  0  0  0  0  0  0  0  0
  -23.8846  -24.9312   24.3657 C   0  0  0  0  0  0  0  0  0  0  0  0
  -22.1940  -27.5582   23.4921 C   0  0  0  0  0  0  0  0  0  0  0  0
  -22.0274  -30.4049   21.6171 C   0  0  0  0  0  0  0  0  0  0  0  0
  -23.6853  -20.4409   27.3092 C   0  0  0  0  0  0  0  0  0  0  0  0
  -25.5745  -26.7644   24.7393 C   0  0  0  0  0  0  0  0  0  0  0  0
  -24.2381  -27.0218   22.1139 C   0  0  0  0  0  0  0  0  0  0  0  0
  -22.7266  -20.8401   26.1921 C   0  0  0  0  0  0  0  0  0  0  0  0
  -32.8860  -16.6341   21.4527 C   0  0  0  0  0  0  0  0  0  0  0  0
  -22.8223  -22.3366   25.9352 C   0  0  0  0  0  0  0  0  0  0  0  0
  -31.6203  -15.9232   20.9749 C   0  0  0  0  0  0  0  0  0  0  0  0
  -32.6967  -17.2386   22.8402 C   0  0  0  0  0  0  0  0  0  0  0  0
  -30.2559  -17.4571   22.4618 C   0  0  0  0  0  0  0  0  0  0  0  0
  -24.2263  -22.7188   25.4499 C   0  0  1  0  0  0  0  0  0  0  0  0
  -24.1039  -26.4064   24.5482 C   0  0  1  0  0  0  0  0  0  0  0  0
  -30.3997  -16.8574   21.0521 C   0  0  2  0  0  0  0  0  0  0  0  0
  -20.5041  -32.3269   21.0850 C   0  0  0  0  0  0  0  0  0  0  0  0
  -20.5167  -25.7332   21.7128 C   0  0  0  0  0  0  0  0  0  0  0  0
  -19.6827  -27.7734   20.5253 C   0  0  0  0  0  0  0  0  0  0  0  0
  -19.2104  -27.4664   22.9554 C   0  0  0  0  0  0  0  0  0  0  0  0
  -23.9668  -32.3818   22.6606 C   0  0  0  0  0  0  0  0  0  0  0  0
  -28.9991  -25.4414   17.8749 C   0  0  0  0  0  0  0  0  0  0  0  0
  -27.9670  -26.0722   18.7964 C   0  0  0  0  0  0  0  0  0  1  0  0
  -29.7576  -24.3139   18.5575 C   0  0  0  0  0  0  0  0  0  0  0  0
  -21.5572  -28.0428   22.2120 C   0  0  1  0  0  0  0  0  0  0  0  0
  -21.6302  -31.8254   21.9757 C   0  0  2  0  0  0  0  0  0  0  0  0
  -20.2697  -27.2485   21.8530 C   0  0  0  0  0  0  0  0  0  0  0  0
  -28.9918  -14.8447   20.8301 N   0  0  0  0  0  0  0  0  0  0  0  0
  -29.6693  -20.1070   24.4797 N   0  0  0  0  0  0  0  0  0  0  0  0
  -29.1286  -16.1618   20.6011 N   0  0  0  0  0  0  0  0  0  0  0  0
  -31.5101  -18.0905   22.8883 N   0  0  0  0  0  0  0  0  0  0  0  0
  -23.5057  -27.0735   23.3900 N   0  0  0  0  0  0  0  0  0  0  0  0
  -27.2070  -23.2489   21.2457 N   0  0  0  0  0  0  0  0  0  0  0  0
  -28.0330  -18.0391   19.6597 N   0  0  0  0  0  0  0  0  0  0  0  0
  -25.0885  -14.6779   19.0053 N   0  0  0  0  0  0  0  0  0  0  0  0
  -24.3389  -24.1604   25.4188 N   0  0  0  0  0  0  0  0  0  0  0  0
  -21.3478  -29.4770   22.3777 N   0  0  0  0  0  0  0  0  0  0  0  0
  -22.7944  -32.7431   21.8228 N   0  3  0  0  0  0  0  0  0  0  0  0
  -25.4665  -16.9143   18.6674 O   0  0  0  0  0  0  0  0  0  0  0  0
  -32.6154  -19.9671   23.7737 O   0  0  0  0  0  0  0  0  0  0  0  0
  -23.3419  -24.5227   23.3458 O   0  0  0  0  0  0  0  0  0  0  0  0
  -21.5539  -27.6146   24.5450 O   0  0  0  0  0  0  0  0  0  0  0  0
  -22.8548  -30.1442   20.7464 O   0  0  0  0  0  0  0  0  0  0  0  0
  -25.7703   -9.3606   20.5208 O   0  0  0  0  0  0  0  0  0  0  0  0
  -28.6097  -26.5929   19.9592 O   0  0  0  0  0  0  0  0  0  1  0  0
  -28.8507  -23.2956   18.9578 O   0  0  0  0  0  0  0  0  0  0  0  0
  -20.5165   -8.7132   22.0644 F   0  0  0  0  0  0  0  0  0  0  0  0
  -25.1220   -7.8645   22.7534 F   0  0  0  0  0  0  0  0  0  0  0  0
  1  2  1  0  0  0  0
  1  6  2  0  0  0  0
  2  7  2  0  0  0  0
  3  9  2  0  0  0  0
  3 18  1  0  0  0  0
  4 10  1  0  0  0  0
  4 18  2  0  0  0  0
  5 11  2  0  0  0  0
  5 19  1  0  0  0  0
  6 21  1  0  0  0  0
  7 23  1  0  0  0  0
  8 12  2  0  0  0  0
  8 22  1  0  0  0  0
  9 26  1  0  0  0  0
 10 26  2  0  0  0  0
 11 28  1  0  0  0  0
 12 27  1  0  0  0  0
 13 14  2  0  0  0  0
 13 29  1  0  0  0  0
 14 30  1  0  0  0  0
 15 19  2  0  0  0  0
 15 25  1  0  0  0  0
 16 24  1  0  0  0  0
 16 27  2  0  0  0  0
 17 30  2  0  0  0  0
 17 31  1  0  0  0  0
 18 32  1  0  0  0  0
 19 34  1  0  0  0  0
 20 32  1  0  0  0  0
 20 33  2  0  0  0  0
 20 35  1  0  0  0  0
 21 23  2  0  0  0  0
 21 40  1  0  0  0  0
 22 24  2  0  0  0  0
 22 41  1  0  0  0  0
 23 49  1  0  0  0  0
 24 42  1  0  0  0  0
 25 28  2  0  0  0  0
 25 68  1  0  0  0  0
 26 79  1  0  0  0  0
 27 80  1  0  0  0  0
 28 81  1  0  0  0  0
 29 31  2  0  0  0  0
 29 79  1  0  0  0  0
 30 82  1  0  0  0  0
 31 83  1  0  0  0  0
 32 63  2  0  0  0  0
 33 65  1  0  0  0  0
 33 69  1  0  0  0  0
 34 36  1  0  0  0  0
 34 64  2  0  0  0  0
 35 70  1  0  0  0  0
 35 74  2  0  0  0  0
 36 66  1  0  0  0  0
 36 75  2  0  0  0  0
 37 50  1  0  0  0  0
 37 71  1  0  0  0  0
 37 76  2  0  0  0  0
 38 60  1  0  0  0  0
 38 67  1  0  0  0  0
 38 77  2  0  0  0  0
 39 61  1  0  0  0  0
 39 72  1  0  0  0  0
 39 78  2  0  0  0  0
 40 43  1  0  0  0  0
 41 50  1  0  0  0  0
 42 67  1  0  0  0  0
 43 45  1  0  0  0  0
 44 46  1  0  0  0  0
 44 47  1  0  0  0  0
 45 49  1  0  0  0  0
 46 51  1  0  0  0  0
 47 66  1  0  0  0  0
 48 51  1  0  0  0  0
 48 66  1  0  0  0  0
 49 71  1  0  0  0  0
 50 67  1  0  0  0  0
 51 65  1  0  0  0  0
 52 61  1  0  0  0  0
 53 62  1  0  0  0  0
 54 62  1  0  0  0  0
 55 62  1  0  0  0  0
 56 73  1  0  0  0  0
 57 58  1  0  0  0  0
 57 59  1  0  0  0  0
 58 80  1  0  0  0  0
 59 81  1  0  0  0  0
 60 62  1  0  0  0  0
 60 72  1  0  0  0  0
 61 73  1  0  0  0  0
 63 65  1  0  0  0  0
M  CHG  1  73   1
M  ISO  4  34 100  36 100  58 101  80 101
M  END
> <Batch ID>
0093

> <Smiles>
CNC(C)C(=O)NC(C(=O)N1Cc2cc([101O:1][101CH2:1]CCOc3ccc([100C:0](=N)[100C:0](=O)N4CCCC(n5nc(-c6ccc(Oc7ccc(F)cc7F)cc6)c(C(N)=O)c5N)C4)cc3N)ccc2CC1C(=O)NC1CCCc2ccccc21)C(C)(C)C

> <Shape>
0.230

> <Color>
0.072

> <Negative vol penalty>
0.000

$$$$

  -OEChem-04052300373D

 86 95  0     1  0  0  0  0  0999 V2000
  -29.3888  -34.8591   26.4254 C   0  0  0  0  0  0  0  0  0  0  0  0
  -29.7766  -34.1915   25.2681 C   0  0  0  0  0  0  0  0  0  0  0  0
  -24.4653   -8.9572   21.7365 C   0  0  0  0  0  0  0  0  0  0  0  0
  -23.0260  -10.3648   20.4008 C   0  0  0  0  0  0  0  0  0  0  0  0
  -28.4179  -34.3031   27.2574 C   0  0  0  0  0  0  0  0  0  0  0  0
  -29.1945  -32.9669   24.9427 C   0  0  0  0  0  0  0  0  0  0  0  0
  -27.2371  -29.0463   19.2758 C   0  0  0  0  0  0  0  0  0  0  0  0
  -23.3925   -8.6565   22.5756 C   0  0  0  0  0  0  0  0  0  0  0  0
  -21.9531  -10.0640   21.2400 C   0  0  0  0  0  0  0  0  0  0  0  0
  -27.3993  -27.7685   18.7424 C   0  0  0  0  0  0  0  0  0  0  0  0
  -20.6910   -6.6235   22.5339 C   0  0  0  0  0  0  0  0  0  0  0  0
  -20.5094   -5.2902   22.9014 C   0  0  0  0  0  0  0  0  0  0  0  0
  -25.6751  -26.9421   20.2133 C   0  0  0  0  0  0  0  0  0  0  0  0
  -25.7150  -19.7170   17.2822 C   0  0  0  0  0  0  0  0  0  0  0  0
  -25.7063  -17.3067   17.1173 C   0  0  0  0  0  0  0  0  0  0  0  0
  -27.5114  -18.4326   18.2622 C   0  0  0  0  0  0  0  0  0  0  0  0
  -20.7656   -5.8963   25.2261 C   0  0  0  0  0  0  0  0  0  0  0  0
  -24.2821   -9.8114   20.6490 C   0  0  0  0  0  0  0  0  0  0  0  0
  -25.7846   -9.4273   18.6235 C   0  0  0  0  0  0  0  0  0  0  0  0
  -27.8167  -33.0757   26.9370 C   0  0  0  0  0  0  0  0  0  0  0  0
  -26.2987  -29.2798   20.2914 C   0  0  0  0  0  0  0  0  0  0  0  0
  -28.2157  -32.3933   25.7719 C   0  0  0  0  0  0  0  0  0  0  0  0
  -25.5012  -28.2243   20.7562 C   0  0  0  0  0  0  0  0  0  0  0  0
  -25.1104  -18.5383   16.8456 C   0  0  0  0  0  0  0  0  0  0  0  0
  -26.9156  -19.6642   17.9905 C   0  0  0  0  0  0  0  0  0  0  0  0
  -26.9068  -17.2539   17.8256 C   0  0  0  0  0  0  0  0  0  0  0  0
  -22.1364   -9.2099   22.3274 C   0  0  0  0  0  0  0  0  0  0  0  0
  -26.6203  -26.7155   19.2131 C   0  0  0  0  0  0  0  0  0  0  0  0
  -20.9100   -7.5931   23.5124 C   0  0  0  0  0  0  0  0  0  0  0  0
  -20.5467   -4.9266   24.2475 C   0  0  0  0  0  0  0  0  0  0  0  0
  -20.9472   -7.2295   24.8585 C   0  0  0  0  0  0  0  0  0  0  0  0
  -25.3900  -10.1229   19.7821 C   0  0  0  0  0  0  0  0  0  0  0  0
  -26.8813  -10.1162   18.1662 C   0  0  0  0  0  0  0  0  0  0  0  0
  -26.8180  -22.0077   18.7631 C   0  0  0  0  0  0  0  0  0  0  0  0
  -27.3254  -23.1856   19.1535 C   0  0  0  0  0  0  0  0  0  0  0  0
  -28.8104  -23.3072   19.1622 C   0  0  0  0  0  0  0  0  0  0  0  0
  -25.2109   -8.2626   18.0151 C   0  0  0  0  0  0  0  0  0  0  0  0
  -26.4566  -30.2784   23.3050 C   0  0  0  0  0  0  0  0  0  0  0  0
  -23.2209  -30.2305   23.0809 C   0  0  0  0  0  0  0  0  0  0  0  0
  -20.4412  -28.9778   21.5477 C   0  0  0  0  0  0  0  0  0  0  0  0
  -28.7012  -15.7732   18.7921 C   0  0  0  0  0  0  0  0  0  0  0  0
  -26.8058  -32.4914   27.8917 C   0  0  0  0  0  0  0  0  0  0  0  0
  -26.1172  -30.6694   20.8376 C   0  0  0  0  0  0  0  0  0  0  0  0
  -24.4655  -28.4267   21.8309 C   0  0  0  0  0  0  0  0  0  0  0  0
  -29.6146  -22.1863   18.5380 C   0  0  0  0  0  0  0  0  0  0  0  0
  -25.9681  -31.3709   27.2811 C   0  0  0  0  0  0  0  0  0  0  0  0
  -30.5026  -12.8427   19.7110 C   0  0  0  0  0  0  0  0  0  0  0  0
  -26.8593  -30.3859   26.5312 C   0  0  0  0  0  0  0  0  0  0  0  0
  -29.4330  -11.7482   19.7221 C   0  0  0  0  0  0  0  0  0  0  0  0
  -28.9711  -20.8154   18.7286 C   0  0  0  0  0  0  0  0  0  0  0  0
  -29.9564  -14.1747   20.2219 C   0  0  0  0  0  0  0  0  0  0  0  0
  -27.6664  -13.5485   19.5639 C   0  0  0  0  0  0  0  0  0  0  0  0
  -27.5896  -31.0749   25.3721 C   0  0  1  0  0  0  0  0  0  0  0  0
  -25.4913  -30.6876   22.2288 C   0  0  1  0  0  0  0  0  0  0  0  0
  -28.1520  -12.2046   18.9966 C   0  0  2  0  0  0  0  0  0  0  0  0
  -23.8269  -18.5950   16.0884 C   0  0  0  0  0  0  0  0  0  0  0  0
  -17.9353  -29.0986   21.6074 C   0  0  0  0  0  0  0  0  0  0  0  0
  -23.1986  -28.4814   25.5808 C   0  0  0  0  0  0  0  0  0  0  0  0
  -20.8321  -27.8652   25.0439 C   0  0  0  0  0  0  0  0  0  0  0  0
  -21.4224  -30.2410   25.5229 C   0  0  0  0  0  0  0  0  0  0  0  0
  -20.3084  -29.9968   18.7723 C   0  0  0  0  0  0  0  0  0  0  0  0
  -26.5063  -24.3656   19.5604 C   0  0  0  0  0  0  0  0  0  1  0  0
  -22.1468  -29.2008   23.3354 C   0  0  1  0  0  0  0  0  0  0  0  0
  -19.2058  -29.6598   20.9881 C   0  0  2  0  0  0  0  0  0  0  0  0
  -21.9208  -28.9426   24.8518 C   0  0  0  0  0  0  0  0  0  0  0  0
  -26.1725  -11.1730   20.0447 N   0  0  0  0  0  0  0  0  0  0  0  0
  -27.0698  -11.1423   19.0447 N   0  0  0  0  0  0  0  0  0  0  0  0
  -27.5308  -20.8643   18.4347 N   0  0  0  0  0  0  0  0  0  0  0  0
  -24.3300  -29.8023   22.3376 N   0  0  0  0  0  0  0  0  0  0  0  0
  -28.7458  -14.5453   19.4857 N   0  0  0  0  0  0  0  0  0  0  0  0
  -27.6931   -9.9382   17.1025 N   0  0  0  0  0  0  0  0  0  0  0  0
  -24.0861   -7.6806   18.6152 N   0  0  0  0  0  0  0  0  0  0  0  0
  -27.5114  -16.0025   18.1018 N   0  0  0  0  0  0  0  0  0  0  0  0
  -26.6952  -31.2587   24.2492 N   0  0  0  0  0  0  0  0  0  0  0  0
  -20.9600  -29.6647   22.6249 N   0  0  0  0  0  0  0  0  0  0  0  0
  -19.1329  -29.4692   19.5118 N   0  3  0  0  0  0  0  0  0  0  0  0
  -29.3566  -24.3194   19.5972 O   0  0  0  0  0  0  0  0  0  0  0  0
  -25.6918   -7.7435   16.9793 O   0  0  0  0  0  0  0  0  0  0  0  0
  -26.9475  -29.1558   23.2814 O   0  0  0  0  0  0  0  0  0  0  0  0
  -23.0778  -31.3747   23.5191 O   0  0  0  0  0  0  0  0  0  0  0  0
  -20.8979  -27.9376   21.0788 O   0  0  0  0  0  0  0  0  0  0  0  0
  -29.6590  -16.5507   18.7869 O   0  0  0  0  0  0  0  0  0  0  0  0
  -21.0893   -8.9164   23.1459 O   0  0  0  0  0  0  0  0  0  0  0  0
  -26.7770  -25.4672   18.6946 O   0  0  0  0  0  0  0  0  0  1  0  0
  -20.3708   -3.6465   24.6005 F   0  0  0  0  0  0  0  0  0  0  0  0
  -21.1560   -8.1568   25.8032 F   0  0  0  0  0  0  0  0  0  0  0  0
  1  2  1  0  0  0  0
  1  5  2  0  0  0  0
  2  6  2  0  0  0  0
  3  8  2  0  0  0  0
  3 18  1  0  0  0  0
  4  9  1  0  0  0  0
  4 18  2  0  0  0  0
  5 20  1  0  0  0  0
  6 22  1  0  0  0  0
  7 10  2  0  0  0  0
  7 21  1  0  0  0  0
  8 27  1  0  0  0  0
  9 27  2  0  0  0  0
 10 28  1  0  0  0  0
 11 12  2  0  0  0  0
 11 29  1  0  0  0  0
 12 30  1  0  0  0  0
 13 23  1  0  0  0  0
 13 28  2  0  0  0  0
 14 24  2  0  0  0  0
 14 25  1  0  0  0  0
 15 24  1  0  0  0  0
 15 26  2  0  0  0  0
 16 25  2  0  0  0  0
 16 26  1  0  0  0  0
 17 30  2  0  0  0  0
 17 31  1  0  0  0  0
 18 32  1  0  0  0  0
 19 32  1  0  0  0  0
 19 33  2  0  0  0  0
 19 37  1  0  0  0  0
 20 22  2  0  0  0  0
 20 42  1  0  0  0  0
 21 23  2  0  0  0  0
 21 43  1  0  0  0  0
 22 53  1  0  0  0  0
 23 44  1  0  0  0  0
 24 56  1  0  0  0  0
 25 68  1  0  0  0  0
 26 73  1  0  0  0  0
 27 83  1  0  0  0  0
 28 84  1  0  0  0  0
 29 31  2  0  0  0  0
 29 83  1  0  0  0  0
 30 85  1  0  0  0  0
 31 86  1  0  0  0  0
 32 66  2  0  0  0  0
 33 67  1  0  0  0  0
 33 71  1  0  0  0  0
 34 35  2  0  0  0  0
 34 68  1  0  0  0  0
 35 36  1  0  0  0  0
 35 62  1  0  0  0  0
 36 45  1  0  0  0  0
 36 77  2  0  0  0  0
 37 72  1  0  0  0  0
 37 78  2  0  0  0  0
 38 54  1  0  0  0  0
 38 74  1  0  0  0  0
 38 79  2  0  0  0  0
 39 63  1  0  0  0  0
 39 69  1  0  0  0  0
 39 80  2  0  0  0  0
 40 64  1  0  0  0  0
 40 75  1  0  0  0  0
 40 81  2  0  0  0  0
 41 70  1  0  0  0  0
 41 73  1  0  0  0  0
 41 82  2  0  0  0  0
 42 46  1  0  0  0  0
 43 54  1  0  0  0  0
 44 69  1  0  0  0  0
 45 50  1  0  0  0  0
 46 48  1  0  0  0  0
 47 49  1  0  0  0  0
 47 51  1  0  0  0  0
 48 53  1  0  0  0  0
 49 55  1  0  0  0  0
 50 68  1  0  0  0  0
 51 70  1  0  0  0  0
 52 55  1  0  0  0  0
 52 70  1  0  0  0  0
 53 74  1  0  0  0  0
 54 69  1  0  0  0  0
 55 67  1  0  0  0  0
 57 64  1  0  0  0  0
 58 65  1  0  0  0  0
 59 65  1  0  0  0  0
 60 65  1  0  0  0  0
 61 76  1  0  0  0  0
 62 84  1  0  0  0  0
 63 65  1  0  0  0  0
 63 75  1  0  0  0  0
 64 76  1  0  0  0  0
 66 67  1  0  0  0  0
M  CHG  1  76   1
M  ISO  4  41 100  62 101  73 100  84 101
M  END
> <Batch ID>
0093

> <Smiles>
CNC(C)C(=O)NC(C(=O)N1Cc2cc([101O:1][101CH2:1]C3=CN(c4cc(C)cc([100NH:0][100C:0](=O)N5CCCC(n6nc(-c7ccc(Oc8ccc(F)cc8F)cc7)c(C(N)=O)c6N)C5)c4)CCC3=O)ccc2CC1C(=O)NC1CCCc2ccccc21)C(C)(C)C

> <Shape>
0.272

> <Color>
0.093

> <Negative vol penalty>
0.000

$$$$

  -OEChem-04052300373D

 84 92  0     1  0  0  0  0  0999 V2000
  -15.5250  -27.2504   23.2166 C   0  0  0  0  0  0  0  0  0  0  0  0
  -16.6480  -26.8216   22.5163 C   0  0  0  0  0  0  0  0  0  0  0  0
  -23.0670  -10.3561   20.4613 C   0  0  0  0  0  0  0  0  0  0  0  0
  -24.2082   -9.2019   22.2509 C   0  0  0  0  0  0  0  0  0  0  0  0
  -28.5418  -19.7851   18.6021 C   0  0  0  0  0  0  0  0  0  0  0  0
  -15.3836  -28.5974   23.5476 C   0  0  0  0  0  0  0  0  0  0  0  0
  -17.6298  -27.7399   22.1456 C   0  0  0  0  0  0  0  0  0  0  0  0
  -22.3155  -26.0453   23.0498 C   0  0  0  0  0  0  0  0  0  0  0  0
  -27.6011  -20.7211   19.0318 C   0  0  0  0  0  0  0  0  0  0  0  0
  -22.1235   -9.3306   20.4016 C   0  0  0  0  0  0  0  0  0  0  0  0
  -23.2646   -8.1764   22.1912 C   0  0  0  0  0  0  0  0  0  0  0  0
  -22.8452  -25.1251   22.1462 C   0  0  0  0  0  0  0  0  0  0  0  0
  -22.6347   -5.4805   20.2506 C   0  0  0  0  0  0  0  0  0  0  0  0
  -23.1024   -4.1668   20.2825 C   0  0  0  0  0  0  0  0  0  0  0  0
  -24.0894  -26.8962   21.0812 C   0  0  0  0  0  0  0  0  0  0  0  0
  -26.6772  -19.0919   20.5580 C   0  0  0  0  0  0  0  0  0  0  0  0
  -21.8321   -3.7634   22.2975 C   0  0  0  0  0  0  0  0  0  0  0  0
  -24.1094  -10.2918   21.3860 C   0  0  0  0  0  0  0  0  0  0  0  0
  -28.5501  -18.5025   19.1502 C   0  0  0  0  0  0  0  0  0  0  0  0
  -25.0263  -12.5152   22.2365 C   0  0  0  0  0  0  0  0  0  0  0  0
  -16.3687  -29.5310   23.1892 C   0  0  0  0  0  0  0  0  0  0  0  0
  -22.6609  -27.4019   22.9689 C   0  0  0  0  0  0  0  0  0  0  0  0
  -17.5007  -29.1008   22.4709 C   0  0  0  0  0  0  0  0  0  0  0  0
  -23.5647  -27.8311   21.9865 C   0  0  0  0  0  0  0  0  0  0  0  0
  -26.6689  -20.3745   20.0098 C   0  0  0  0  0  0  0  0  0  0  0  0
  -22.2222   -8.2408   21.2665 C   0  0  0  0  0  0  0  0  0  0  0  0
  -23.7300  -25.5509   21.1599 C   0  0  0  0  0  0  0  0  0  0  0  0
  -21.7657   -5.9357   21.2422 C   0  0  0  0  0  0  0  0  0  0  0  0
  -22.7011   -3.3083   21.3059 C   0  0  0  0  0  0  0  0  0  0  0  0
  -27.6179  -18.1559   20.1282 C   0  0  0  0  0  0  0  0  0  0  0  0
  -21.3643   -5.0772   22.2656 C   0  0  0  0  0  0  0  0  0  0  0  0
  -25.0848  -11.3506   21.4478 C   0  0  0  0  0  0  0  0  0  0  0  0
  -26.1833  -13.1917   21.9361 C   0  0  0  0  0  0  0  0  0  0  0  0
  -29.5520  -17.5081   18.6874 C   0  0  0  0  0  0  0  0  0  0  0  0
  -24.0165  -12.9469   23.1582 C   0  0  0  0  0  0  0  0  0  0  0  0
  -21.0587  -30.0973   22.4477 C   0  0  0  0  0  0  0  0  0  0  0  0
  -23.9224  -31.4697   23.1097 C   0  0  0  0  0  0  0  0  0  0  0  0
  -25.5649  -22.6362   20.0094 C   0  0  0  0  0  0  0  0  0  0  0  0
  -27.3200  -31.1710   23.2277 C   0  0  0  0  0  0  0  0  0  0  0  0
  -29.9189  -15.0899   18.3112 C   0  0  0  0  0  0  0  0  0  0  0  0
  -16.1491  -30.9842   23.5277 C   0  0  0  0  0  0  0  0  0  0  0  0
  -22.1016  -28.3775   23.9678 C   0  0  0  0  0  0  0  0  0  0  0  0
  -23.9833  -29.2732   21.8698 C   0  0  0  0  0  0  0  0  0  0  0  0
  -17.4147  -31.8315   23.4252 C   0  0  0  0  0  0  0  0  0  0  0  0
  -30.2798  -11.7277   19.3419 C   0  0  0  0  0  0  0  0  0  0  0  0
  -18.1556  -31.5294   22.1265 C   0  0  0  0  0  0  0  0  0  0  0  0
  -28.9590  -11.4248   20.0546 C   0  0  0  0  0  0  0  0  0  0  0  0
  -30.0734  -12.6230   18.1209 C   0  0  0  0  0  0  0  0  0  0  0  0
  -28.0095  -13.5557   19.0844 C   0  0  0  0  0  0  0  0  0  0  0  0
  -18.5992  -30.0625   22.0728 C   0  0  1  0  0  0  0  0  0  0  0  0
  -22.1233  -29.8198   23.4711 C   0  0  1  0  0  0  0  0  0  0  0  0
  -28.1727  -12.7152   20.3611 C   0  0  1  0  0  0  0  0  0  0  0  0
  -29.3943  -32.4740   23.7726 C   0  0  0  0  0  0  0  0  0  0  0  0
  -23.6806  -32.9589   20.4576 C   0  0  0  0  0  0  0  0  0  0  0  0
  -26.1264  -33.4737   20.6035 C   0  0  0  0  0  0  0  0  0  0  0  0
  -24.5662  -34.3342   22.3493 C   0  0  0  0  0  0  0  0  0  0  0  0
  -28.0655  -29.3001   25.3963 C   0  0  0  0  0  0  0  0  0  0  0  0
  -24.4175  -23.3143   20.7348 C   0  0  0  0  0  0  0  0  0  1  0  0
  -25.1295  -31.8701   22.2963 C   0  0  1  0  0  0  0  0  0  0  0  0
  -28.3261  -31.5320   24.3057 C   0  0  2  0  0  0  0  0  0  0  0  0
  -24.8665  -33.1323   21.4274 C   0  0  0  0  0  0  0  0  0  0  0  0
  -26.1912  -11.2876   20.7023 N   0  0  0  0  0  0  0  0  0  0  0  0
  -26.8387  -12.4213   21.0211 N   0  0  0  0  0  0  0  0  0  0  0  0
  -23.4043  -30.1899   22.8658 N   0  0  0  0  0  0  0  0  0  0  0  0
  -29.3301  -13.8269   18.4970 N   0  0  0  0  0  0  0  0  0  0  0  0
  -26.6938  -14.3644   22.3679 N   0  0  0  0  0  0  0  0  0  0  0  0
  -22.8925  -12.1315   23.3480 N   0  0  0  0  0  0  0  0  0  0  0  0
  -25.7147  -21.3242   20.4457 N   0  0  0  0  0  0  0  0  0  0  0  0
  -29.1461  -16.1744   18.7410 N   0  0  0  0  0  0  0  0  0  0  0  0
  -19.7730  -29.8591   22.8946 N   0  0  0  0  0  0  0  0  0  0  0  0
  -26.2299  -32.0152   23.2432 N   0  0  0  0  0  0  0  0  0  0  0  0
  -28.9964  -30.3046   24.8206 N   0  3  0  0  0  0  0  0  0  0  0  0
  -30.6330  -17.9031   18.2591 O   0  0  0  0  0  0  0  0  0  0  0  0
  -24.1004  -14.0318   23.7823 O   0  0  0  0  0  0  0  0  0  0  0  0
  -21.3799  -30.4993   21.3355 O   0  0  0  0  0  0  0  0  0  0  0  0
  -23.4607  -32.2604   23.9362 O   0  0  0  0  0  0  0  0  0  0  0  0
  -26.2287  -23.2265   19.1635 O   0  0  0  0  0  0  0  0  0  0  0  0
  -27.4864  -30.2362   22.4474 O   0  0  0  0  0  0  0  0  0  0  0  0
  -31.0504  -15.2376   17.8388 O   0  0  0  0  0  0  0  0  0  0  0  0
  -21.3015   -7.2400   21.2087 O   0  0  0  0  0  0  0  0  0  0  0  0
  -24.2480  -24.6549   20.2763 O   0  0  0  0  0  0  0  0  0  1  0  0
  -23.1492   -2.0463   21.3356 F   0  0  0  0  0  0  0  0  0  0  0  0
  -27.6163  -16.9259   20.6617 F   0  0  0  0  0  0  0  0  0  0  0  0
  -20.5287   -5.5084   23.2204 F   0  0  0  0  0  0  0  0  0  0  0  0
  1  2  1  0  0  0  0
  1  6  2  0  0  0  0
  2  7  2  0  0  0  0
  3 10  2  0  0  0  0
  3 18  1  0  0  0  0
  4 11  1  0  0  0  0
  4 18  2  0  0  0  0
  5  9  2  0  0  0  0
  5 19  1  0  0  0  0
  6 21  1  0  0  0  0
  7 23  1  0  0  0  0
  8 12  2  0  0  0  0
  8 22  1  0  0  0  0
  9 25  1  0  0  0  0
 10 26  1  0  0  0  0
 11 26  2  0  0  0  0
 12 27  1  0  0  0  0
 13 14  2  0  0  0  0
 13 28  1  0  0  0  0
 14 29  1  0  0  0  0
 15 24  1  0  0  0  0
 15 27  2  0  0  0  0
 16 25  2  0  0  0  0
 16 30  1  0  0  0  0
 17 29  2  0  0  0  0
 17 31  1  0  0  0  0
 18 32  1  0  0  0  0
 19 30  2  0  0  0  0
 19 34  1  0  0  0  0
 20 32  1  0  0  0  0
 20 33  2  0  0  0  0
 20 35  1  0  0  0  0
 21 23  2  0  0  0  0
 21 41  1  0  0  0  0
 22 24  2  0  0  0  0
 22 42  1  0  0  0  0
 23 50  1  0  0  0  0
 24 43  1  0  0  0  0
 25 68  1  0  0  0  0
 26 80  1  0  0  0  0
 27 81  1  0  0  0  0
 28 31  2  0  0  0  0
 28 80  1  0  0  0  0
 29 82  1  0  0  0  0
 30 83  1  0  0  0  0
 31 84  1  0  0  0  0
 32 62  2  0  0  0  0
 33 63  1  0  0  0  0
 33 66  1  0  0  0  0
 34 69  1  0  0  0  0
 34 73  2  0  0  0  0
 35 67  1  0  0  0  0
 35 74  2  0  0  0  0
 36 51  1  0  0  0  0
 36 70  1  0  0  0  0
 36 75  2  0  0  0  0
 37 59  1  0  0  0  0
 37 64  1  0  0  0  0
 37 76  2  0  0  0  0
 38 58  1  0  0  0  0
 38 68  1  0  0  0  0
 38 77  2  0  0  0  0
 39 60  1  0  0  0  0
 39 71  1  0  0  0  0
 39 78  2  0  0  0  0
 40 65  1  0  0  0  0
 40 69  1  0  0  0  0
 40 79  2  0  0  0  0
 41 44  1  0  0  0  0
 42 51  1  0  0  0  0
 43 64  1  0  0  0  0
 44 46  1  0  0  0  0
 45 47  1  0  0  0  0
 45 48  1  0  0  0  0
 46 50  1  0  0  0  0
 47 52  1  0  0  0  0
 48 65  1  0  0  0  0
 49 52  1  0  0  0  0
 49 65  1  0  0  0  0
 50 70  1  0  0  0  0
 51 64  1  0  0  0  0
 52 63  1  0  0  0  0
 53 60  1  0  0  0  0
 54 61  1  0  0  0  0
 55 61  1  0  0  0  0
 56 61  1  0  0  0  0
 57 72  1  0  0  0  0
 58 81  1  0  0  0  0
 59 61  1  0  0  0  0
 59 71  1  0  0  0  0
 60 72  1  0  0  0  0
 62 63  1  0  0  0  0
M  CHG  1  72   1
M  ISO  4  40 100  58 101  69 100  81 101
M  END
> <Batch ID>
0093

> <Smiles>
CNC(C)C(=O)NC(C(=O)N1Cc2cc([101O:1][101CH2:1]C(=O)Nc3ccc(C(=O)[100NH:0][100C:0](=O)N4CCCC(n5nc(-c6ccc(Oc7ccc(F)cc7F)cc6)c(C(N)=O)c5N)C4)c(F)c3)ccc2CC1C(=O)NC1CCCc2ccccc21)C(C)(C)C

> <Shape>
0.294

> <Color>
0.095

> <Negative vol penalty>
0.000

$$$$

  -OEChem-04052300373D

 89 98  0     1  0  0  0  0  0999 V2000
  -17.0752  -27.4467   25.2557 C   0  0  0  0  0  0  0  0  0  0  0  0
  -18.2059  -27.2790   26.0486 C   0  0  0  0  0  0  0  0  0  0  0  0
  -24.6478   -9.6730   20.6273 C   0  0  0  0  0  0  0  0  0  0  0  0
  -24.8253  -10.4551   22.9063 C   0  0  0  0  0  0  0  0  0  0  0  0
  -29.6011  -21.1512   23.0514 C   0  0  0  0  0  0  0  0  0  0  0  0
  -17.2104  -27.8392   23.9247 C   0  0  0  0  0  0  0  0  0  0  0  0
  -19.4728  -27.5026   25.5105 C   0  0  0  0  0  0  0  0  0  0  0  0
  -25.9797  -29.8702   27.3466 C   0  0  0  0  0  0  0  0  0  0  0  0
  -29.6032  -19.9411   22.3577 C   0  0  0  0  0  0  0  0  0  0  0  0
  -24.3611   -8.3889   21.0903 C   0  0  0  0  0  0  0  0  0  0  0  0
  -24.5385   -9.1710   23.3693 C   0  0  0  0  0  0  0  0  0  0  0  0
  -27.3199  -29.4905   27.2887 C   0  0  0  0  0  0  0  0  0  0  0  0
  -21.8062   -7.2246   23.7776 C   0  0  0  0  0  0  0  0  0  0  0  0
  -20.8839   -7.1031   24.8169 C   0  0  0  0  0  0  0  0  0  0  0  0
  -27.1867  -21.1037   23.1268 C   0  0  0  0  0  0  0  0  0  0  0  0
  -27.4279  -30.2424   24.9991 C   0  0  0  0  0  0  0  0  0  0  0  0
  -22.5724   -6.0581   26.1931 C   0  0  0  0  0  0  0  0  0  0  0  0
  -24.8800  -10.7061   21.5353 C   0  0  0  0  0  0  0  0  0  0  0  0
  -28.3928  -21.7325   23.4360 C   0  0  0  0  0  0  0  0  0  0  0  0
  -24.2570  -13.0607   20.7766 C   0  0  0  0  0  0  0  0  0  0  0  0
  -18.4791  -28.0771   23.3727 C   0  0  0  0  0  0  0  0  0  0  0  0
  -25.3495  -30.4298   26.2258 C   0  0  0  0  0  0  0  0  0  0  0  0
  -19.6252  -27.8974   24.1705 C   0  0  0  0  0  0  0  0  0  0  0  0
  -26.0803  -30.6307   25.0461 C   0  0  0  0  0  0  0  0  0  0  0  0
  -28.3971  -19.3123   22.0485 C   0  0  0  0  0  0  0  0  0  0  0  0
  -24.3064   -8.1379   22.4613 C   0  0  0  0  0  0  0  0  0  0  0  0
  -28.0435  -29.6739   26.1140 C   0  0  0  0  0  0  0  0  0  0  0  0
  -23.1116   -6.7629   23.9460 C   0  0  0  0  0  0  0  0  0  0  0  0
  -21.2670   -6.5199   26.0246 C   0  0  0  0  0  0  0  0  0  0  0  0
  -27.1889  -19.8936   22.4330 C   0  0  0  0  0  0  0  0  0  0  0  0
  -23.4947   -6.1797   25.1538 C   0  0  0  0  0  0  0  0  0  0  0  0
  -25.1768  -12.0327   21.0576 C   0  0  0  0  0  0  0  0  0  0  0  0
  -25.0347  -14.1119   20.3562 C   0  0  0  0  0  0  0  0  0  0  0  0
  -30.9946  -24.5203   26.4263 C   0  0  0  0  0  0  0  0  0  0  0  0
  -28.3906  -23.0215   24.1747 C   0  0  0  0  0  0  0  0  0  0  0  0
  -22.8274  -13.0651   20.8860 C   0  0  0  0  0  0  0  0  0  0  0  0
  -22.9007  -29.5946   24.3793 C   0  0  0  0  0  0  0  0  0  0  0  0
  -23.4124  -32.5093   23.0507 C   0  0  0  0  0  0  0  0  0  0  0  0
  -25.5802  -35.0720   22.4341 C   0  0  0  0  0  0  0  0  0  0  0  0
  -29.5147  -17.3750   20.8891 C   0  0  0  0  0  0  0  0  0  0  0  0
  -18.5777  -28.4541   21.9157 C   0  0  0  0  0  0  0  0  0  0  0  0
  -23.9104  -30.8588   26.3127 C   0  0  0  0  0  0  0  0  0  0  0  0
  -25.4558  -31.2459   23.8214 C   0  0  0  0  0  0  0  0  0  0  0  0
  -31.5969  -25.8981   26.3713 C   0  0  0  0  0  0  0  0  0  0  0  0
  -19.9353  -29.0340   21.5272 C   0  0  0  0  0  0  0  0  0  0  0  0
  -29.9469  -14.2989   19.1490 C   0  0  0  0  0  0  0  0  0  0  0  0
  -21.0635  -28.1803   22.0975 C   0  0  0  0  0  0  0  0  0  0  0  0
  -28.6687  -13.5196   19.4673 C   0  0  0  0  0  0  0  0  0  0  0  0
  -30.4193  -15.1257   20.3435 C   0  0  0  0  0  0  0  0  0  0  0  0
  -28.1273  -15.2378   21.2399 C   0  0  0  0  0  0  0  0  0  0  0  0
  -29.7055  -25.7516   24.8807 C   0  0  0  0  0  0  0  0  0  0  0  0
  -21.0152  -28.1544   23.6300 C   0  0  1  0  0  0  0  0  0  0  0  0
  -29.6587  -24.4864   25.7247 C   0  0  1  0  0  0  0  0  0  0  0  0
  -23.2293  -30.9450   24.9504 C   0  0  1  0  0  0  0  0  0  0  0  0
  -27.5767  -14.4405   20.0462 C   0  0  2  0  0  0  0  0  0  0  0  0
  -25.7205  -37.3017   21.2912 C   0  0  0  0  0  0  0  0  0  0  0  0
  -23.5689  -31.1094   20.3441 C   0  0  0  0  0  0  0  0  0  0  0  0
  -24.6297  -33.1776   19.4139 C   0  0  0  0  0  0  0  0  0  0  0  0
  -22.3111  -33.2709   20.3294 C   0  0  0  0  0  0  0  0  0  0  0  0
  -26.2011  -36.4636   24.9712 C   0  0  0  0  0  0  0  0  0  0  0  0
  -31.0003  -27.9189   24.9835 C   0  0  0  0  0  0  0  0  0  0  0  0
  -29.8522  -28.8886   24.7844 C   0  0  0  0  0  0  0  0  0  1  0  0
  -24.2628  -33.0340   21.9190 C   0  0  1  0  0  0  0  0  0  0  0  0
  -25.4359  -36.5745   22.5961 C   0  0  2  0  0  0  0  0  0  0  0  0
  -23.7047  -32.6346   20.5239 C   0  0  0  0  0  0  0  0  0  0  0  0
  -26.4421  -12.3977   20.8344 N   0  0  0  0  0  0  0  0  0  0  0  0
  -26.3228  -13.6668   20.4086 N   0  0  0  0  0  0  0  0  0  0  0  0
  -24.0444  -31.6431   23.9541 N   0  0  0  0  0  0  0  0  0  0  0  0
  -29.3337  -15.9767   20.8357 N   0  0  0  0  0  0  0  0  0  0  0  0
  -24.7354  -15.3642   19.9505 N   0  0  0  0  0  0  0  0  0  0  0  0
  -22.1881  -11.9012   21.3344 N   0  0  0  0  0  0  0  0  0  0  0  0
  -28.4027  -18.0834   21.3431 N   0  0  0  0  0  0  0  0  0  0  0  0
  -29.5227  -23.2993   24.9399 N   0  0  0  0  0  0  0  0  0  0  0  0
  -21.5506  -29.3843   24.1734 N   0  0  0  0  0  0  0  0  0  0  0  0
  -24.3765  -34.4735   22.1273 N   0  0  0  0  0  0  0  0  0  0  0  0
  -30.5091  -26.7190   25.7235 N   0  3  2  0  0  0  0  0  0  0  0  0
  -26.3835  -37.0772   23.6306 N   0  3  0  0  0  0  0  0  0  0  0  0
  -31.5212  -23.5666   26.9831 O   0  0  0  0  0  0  0  0  0  0  0  0
  -27.4092  -23.7559   24.0969 O   0  0  0  0  0  0  0  0  0  0  0  0
  -22.1362  -14.0658   20.5790 O   0  0  0  0  0  0  0  0  0  0  0  0
  -23.8052  -28.8028   24.1415 O   0  0  0  0  0  0  0  0  0  0  0  0
  -22.2330  -32.8609   23.1342 O   0  0  0  0  0  0  0  0  0  0  0  0
  -26.6541  -34.4882   22.5628 O   0  0  0  0  0  0  0  0  0  0  0  0
  -30.5686  -17.9071   20.5309 O   0  0  0  0  0  0  0  0  0  0  0  0
  -24.0263   -6.8850   22.9135 O   0  0  0  0  0  0  0  0  0  0  0  0
  -29.3516  -29.3035   26.0547 O   0  0  0  0  0  0  0  0  0  1  0  0
  -20.3816   -6.4046   27.0231 F   0  0  0  0  0  0  0  0  0  0  0  0
  -26.0233  -19.2987   22.1408 F   0  0  0  0  0  0  0  0  0  0  0  0
  -24.7478   -5.7353   25.3219 F   0  0  0  0  0  0  0  0  0  0  0  0
  1  2  1  0  0  0  0
  1  6  2  0  0  0  0
  2  7  2  0  0  0  0
  3 10  2  0  0  0  0
  3 18  1  0  0  0  0
  4 11  1  0  0  0  0
  4 18  2  0  0  0  0
  5  9  2  0  0  0  0
  5 19  1  0  0  0  0
  6 21  1  0  0  0  0
  7 23  1  0  0  0  0
  8 12  2  0  0  0  0
  8 22  1  0  0  0  0
  9 25  1  0  0  0  0
 10 26  1  0  0  0  0
 11 26  2  0  0  0  0
 12 27  1  0  0  0  0
 13 14  2  0  0  0  0
 13 28  1  0  0  0  0
 14 29  1  0  0  0  0
 15 19  2  0  0  0  0
 15 30  1  0  0  0  0
 16 24  1  0  0  0  0
 16 27  2  0  0  0  0
 17 29  2  0  0  0  0
 17 31  1  0  0  0  0
 18 32  1  0  0  0  0
 19 35  1  0  0  0  0
 20 32  1  0  0  0  0
 20 33  2  0  0  0  0
 20 36  1  0  0  0  0
 21 23  2  0  0  0  0
 21 41  1  0  0  0  0
 22 24  2  0  0  0  0
 22 42  1  0  0  0  0
 23 52  1  0  0  0  0
 24 43  1  0  0  0  0
 25 30  2  0  0  0  0
 25 72  1  0  0  0  0
 26 85  1  0  0  0  0
 27 86  1  0  0  0  0
 28 31  2  0  0  0  0
 28 85  1  0  0  0  0
 29 87  1  0  0  0  0
 30 88  1  0  0  0  0
 31 89  1  0  0  0  0
 32 66  2  0  0  0  0
 33 67  1  0  0  0  0
 33 70  1  0  0  0  0
 34 44  1  0  0  0  0
 34 53  1  0  0  0  0
 34 78  2  0  0  0  0
 35 73  1  0  0  0  0
 35 79  2  0  0  0  0
 36 71  1  0  0  0  0
 36 80  2  0  0  0  0
 37 54  1  0  0  0  0
 37 74  1  0  0  0  0
 37 81  2  0  0  0  0
 38 63  1  0  0  0  0
 38 68  1  0  0  0  0
 38 82  2  0  0  0  0
 39 64  1  0  0  0  0
 39 75  1  0  0  0  0
 39 83  2  0  0  0  0
 40 69  1  0  0  0  0
 40 72  1  0  0  0  0
 40 84  2  0  0  0  0
 41 45  1  0  0  0  0
 42 54  1  0  0  0  0
 43 68  1  0  0  0  0
 44 76  1  0  0  0  0
 45 47  1  0  0  0  0
 46 48  1  0  0  0  0
 46 49  1  0  0  0  0
 47 52  1  0  0  0  0
 48 55  1  0  0  0  0
 49 69  1  0  0  0  0
 50 55  1  0  0  0  0
 50 69  1  0  0  0  0
 51 53  1  0  0  0  0
 51 76  1  0  0  0  0
 52 74  1  0  0  0  0
 53 73  1  0  0  0  0
 54 68  1  0  0  0  0
 55 67  1  0  0  0  0
 56 64  1  0  0  0  0
 57 65  1  0  0  0  0
 58 65  1  0  0  0  0
 59 65  1  0  0  0  0
 60 77  1  0  0  0  0
 61 62  1  0  0  0  0
 61 76  1  0  0  0  0
 62 86  1  0  0  0  0
 63 65  1  0  0  0  0
 63 75  1  0  0  0  0
 64 77  1  0  0  0  0
 66 67  1  0  0  0  0
M  CHG  2  76   1  77   1
M  ISO  4  40 100  62 101  72 100  86 101
M  END
> <Batch ID>
0093

> <Smiles>
CNC(C)C(=O)NC(C(=O)N1Cc2cc([101O:1][101CH2:1]CN3CC(=O)C(NC(=O)c4ccc([100NH:0][100C:0](=O)N5CCCC(n6nc(-c7ccc(Oc8ccc(F)cc8F)cc7)c(C(N)=O)c6N)C5)c(F)c4)C3)ccc2CC1C(=O)NC1CCCc2ccccc21)C(C)(C)C

> <Shape>
0.267

> <Color>
0.145

> <Negative vol penalty>
0.000

$$$$

  -OEChem-04052300372D

  0  0  0     0  0  0  0  0  0999 V2000
M  END
$$$$

  -OEChem-04052300373D

 86 95  0     1  0  0  0  0  0999 V2000
  -22.9887   -7.6968   22.0873 C   0  0  0  0  0  0  0  0  0  0  0  0
  -23.9347   -8.5956   21.6049 C   0  0  0  0  0  0  0  0  0  0  0  0
  -20.6263  -26.8738   23.1515 C   0  0  0  0  0  0  0  0  0  0  0  0
  -19.4153  -27.9784   21.3766 C   0  0  0  0  0  0  0  0  0  0  0  0
  -30.4609  -24.7816   18.2140 C   0  0  0  0  0  0  0  0  0  0  0  0
  -28.7272  -24.4563   19.8649 C   0  0  0  0  0  0  0  0  0  0  0  0
  -21.6495   -8.0752   22.1730 C   0  0  0  0  0  0  0  0  0  0  0  0
  -23.5418   -9.8730   21.2069 C   0  0  0  0  0  0  0  0  0  0  0  0
  -26.7506  -15.0576   21.7807 C   0  0  0  0  0  0  0  0  0  0  0  0
  -30.6124  -23.3997   18.1007 C   0  0  0  0  0  0  0  0  0  0  0  0
  -28.8787  -23.0743   19.7516 C   0  0  0  0  0  0  0  0  0  0  0  0
  -19.5069  -26.9740   23.9777 C   0  0  0  0  0  0  0  0  0  0  0  0
  -18.2959  -28.0786   22.2027 C   0  0  0  0  0  0  0  0  0  0  0  0
  -27.5450  -15.7730   20.8857 C   0  0  0  0  0  0  0  0  0  0  0  0
  -18.0097  -29.3439   25.8661 C   0  0  0  0  0  0  0  0  0  0  0  0
  -18.2106  -29.7664   27.1802 C   0  0  0  0  0  0  0  0  0  0  0  0
  -25.6708  -17.2034   20.3751 C   0  0  0  0  0  0  0  0  0  0  0  0
  -17.2870  -27.6860   27.9903 C   0  0  0  0  0  0  0  0  0  0  0  0
  -20.5805  -27.3760   21.8510 C   0  0  0  0  0  0  0  0  0  0  0  0
  -29.5184  -25.3099   19.0962 C   0  0  0  0  0  0  0  0  0  0  0  0
  -22.0563  -26.2179   20.1222 C   0  0  0  0  0  0  0  0  0  0  0  0
  -21.2415   -9.3611   21.7848 C   0  0  0  0  0  0  0  0  0  0  0  0
  -25.4052  -15.4035   21.9718 C   0  0  0  0  0  0  0  0  0  0  0  0
  -22.1957  -10.2684   21.2862 C   0  0  0  0  0  0  0  0  0  0  0  0
  -24.8622  -16.4924   21.2749 C   0  0  0  0  0  0  0  0  0  0  0  0
  -29.8213  -22.5460   18.8695 C   0  0  0  0  0  0  0  0  0  0  0  0
  -18.3417  -27.5764   23.5033 C   0  0  0  0  0  0  0  0  0  0  0  0
  -27.0043  -16.8442   20.1806 C   0  0  0  0  0  0  0  0  0  0  0  0
  -17.4473  -28.0925   25.6142 C   0  0  0  0  0  0  0  0  0  0  0  0
  -17.8494  -28.9375   28.2423 C   0  0  0  0  0  0  0  0  0  0  0  0
  -17.0860  -27.2636   26.6763 C   0  0  0  0  0  0  0  0  0  0  0  0
  -21.7367  -27.2733   20.9973 C   0  0  0  0  0  0  0  0  0  0  0  0
  -23.2442  -26.5970   19.5465 C   0  0  0  0  0  0  0  0  0  0  0  0
  -29.7358  -18.8760   19.0303 C   0  0  0  0  0  0  0  0  0  0  0  0
  -30.6918  -19.0917   18.1184 C   0  0  0  0  0  0  0  0  0  0  0  0
  -29.2449  -20.2086   19.4671 C   0  0  0  0  0  0  0  0  0  0  0  0
  -29.3584  -26.7700   19.2160 C   0  0  0  0  0  0  0  0  0  0  0  0
  -21.3429  -25.0035   19.8538 C   0  0  0  0  0  0  0  0  0  0  0  0
  -22.6246  -13.9309   21.5202 C   0  0  0  0  0  0  0  0  0  0  0  0
  -21.4313  -16.5799   22.9630 C   0  0  0  0  0  0  0  0  0  0  0  0
  -21.8267  -19.8768   23.7506 C   0  0  0  0  0  0  0  0  0  0  0  0
  -28.3976  -28.6731   20.0800 C   0  0  0  0  0  0  0  0  0  0  0  0
  -19.7753   -9.7084   21.8512 C   0  0  0  0  0  0  0  0  0  0  0  0
  -24.5689  -14.6385   22.9607 C   0  0  0  0  0  0  0  0  0  0  0  0
  -23.4289  -16.9168   21.4592 C   0  0  0  0  0  0  0  0  0  0  0  0
  -30.9249  -20.5438   17.8654 C   0  0  0  0  0  0  0  0  0  0  0  0
  -19.4998  -11.2071   21.7610 C   0  0  0  0  0  0  0  0  0  0  0  0
  -25.6930  -31.0142   19.6225 C   0  0  0  0  0  0  0  0  0  0  0  0
  -20.3065  -11.8310   20.6266 C   0  0  0  0  0  0  0  0  0  0  0  0
  -24.4509  -30.1685   19.9027 C   0  0  0  0  0  0  0  0  0  0  0  0
  -26.8658  -30.5959   20.5041 C   0  0  0  0  0  0  0  0  0  0  0  0
  -25.9637  -28.2934   20.6872 C   0  0  0  0  0  0  0  0  0  0  0  0
  -21.8124  -11.6714   20.8680 C   0  0  1  0  0  0  0  0  0  0  0  0
  -23.0714  -14.7558   22.6939 C   0  0  1  0  0  0  0  0  0  0  0  0
  -24.7685  -28.6665   19.7935 C   0  0  1  0  0  0  0  0  0  0  0  0
  -31.4994  -18.0866   17.3732 C   0  0  0  0  0  0  0  0  0  0  0  0
  -20.6660  -21.7797   24.9036 C   0  0  0  0  0  0  0  0  0  0  0  0
  -19.5730  -16.8968   20.5638 C   0  0  0  0  0  0  0  0  0  0  0  0
  -19.1443  -19.2525   21.2953 C   0  0  0  0  0  0  0  0  0  0  0  0
  -18.5041  -17.3518   22.7785 C   0  0  0  0  0  0  0  0  0  0  0  0
  -24.0059  -20.1572   25.7334 C   0  0  0  0  0  0  0  0  0  0  0  0
  -29.1735  -17.6208   19.5909 C   0  0  0  0  0  0  0  0  0  1  0  0
  -20.9484  -17.9295   22.4893 C   0  0  1  0  0  0  0  0  0  0  0  0
  -21.6482  -20.6288   25.0572 C   0  0  2  0  0  0  0  0  0  0  0  0
  -19.5690  -17.8487   21.7766 C   0  0  0  0  0  0  0  0  0  0  0  0
  -22.6482  -28.2495   20.9822 N   0  0  0  0  0  0  0  0  0  0  0  0
  -28.4937  -27.2960   20.0204 N   0  0  0  0  0  0  0  0  0  0  0  0
  -23.5522  -27.8090   20.0907 N   0  0  0  0  0  0  0  0  0  0  0  0
  -29.9729  -21.1694   18.7558 N   0  0  0  0  0  0  0  0  0  0  0  0
  -22.6501  -16.1336   22.4326 N   0  0  0  0  0  0  0  0  0  0  0  0
  -27.1160  -29.1577   20.3993 N   0  0  0  0  0  0  0  0  0  0  0  0
  -24.0450  -26.0084   18.6328 N   0  0  0  0  0  0  0  0  0  0  0  0
  -20.1387  -24.7720   20.5324 N   0  0  0  0  0  0  0  0  0  0  0  0
  -22.2726  -12.6347   21.8450 N   0  0  0  0  0  0  0  0  0  0  0  0
  -20.9670  -18.8028   23.6578 N   0  0  0  0  0  0  0  0  0  0  0  0
  -22.9525  -21.1825   25.5186 N   0  3  0  0  0  0  0  0  0  0  0  0
  -28.3661  -20.3802   20.2971 O   0  0  0  0  0  0  0  0  0  0  0  0
  -21.7694  -24.1414   19.0485 O   0  0  0  0  0  0  0  0  0  0  0  0
  -22.5996  -14.4337   20.4030 O   0  0  0  0  0  0  0  0  0  0  0  0
  -20.7557  -15.9481   23.7791 O   0  0  0  0  0  0  0  0  0  0  0  0
  -22.6443  -20.2112   22.8960 O   0  0  0  0  0  0  0  0  0  0  0  0
  -29.3444  -29.4376   19.8795 O   0  0  0  0  0  0  0  0  0  0  0  0
  -17.2491  -27.6741   24.3090 O   0  0  0  0  0  0  0  0  0  0  0  0
  -27.7773  -17.5438   19.3059 O   0  0  0  0  0  0  0  0  0  1  0  0
  -18.0438  -29.3427   29.5041 F   0  0  0  0  0  0  0  0  0  0  0  0
  -16.5465  -26.0598   26.4405 F   0  0  0  0  0  0  0  0  0  0  0  0
  1  2  1  0  0  0  0
  1  7  2  0  0  0  0
  2  8  2  0  0  0  0
  3 12  2  0  0  0  0
  3 19  1  0  0  0  0
  4 13  1  0  0  0  0
  4 19  2  0  0  0  0
  5 10  2  0  0  0  0
  5 20  1  0  0  0  0
  6 11  1  0  0  0  0
  6 20  2  0  0  0  0
  7 22  1  0  0  0  0
  8 24  1  0  0  0  0
  9 14  2  0  0  0  0
  9 23  1  0  0  0  0
 10 26  1  0  0  0  0
 11 26  2  0  0  0  0
 12 27  1  0  0  0  0
 13 27  2  0  0  0  0
 14 28  1  0  0  0  0
 15 16  2  0  0  0  0
 15 29  1  0  0  0  0
 16 30  1  0  0  0  0
 17 25  1  0  0  0  0
 17 28  2  0  0  0  0
 18 30  2  0  0  0  0
 18 31  1  0  0  0  0
 19 32  1  0  0  0  0
 20 37  1  0  0  0  0
 21 32  1  0  0  0  0
 21 33  2  0  0  0  0
 21 38  1  0  0  0  0
 22 24  2  0  0  0  0
 22 43  1  0  0  0  0
 23 25  2  0  0  0  0
 23 44  1  0  0  0  0
 24 53  1  0  0  0  0
 25 45  1  0  0  0  0
 26 69  1  0  0  0  0
 27 83  1  0  0  0  0
 28 84  1  0  0  0  0
 29 31  2  0  0  0  0
 29 83  1  0  0  0  0
 30 85  1  0  0  0  0
 31 86  1  0  0  0  0
 32 66  2  0  0  0  0
 33 68  1  0  0  0  0
 33 72  1  0  0  0  0
 34 35  2  0  0  0  0
 34 36  1  0  0  0  0
 34 62  1  0  0  0  0
 35 46  1  0  0  0  0
 35 56  1  0  0  0  0
 36 69  1  0  0  0  0
 36 77  2  0  0  0  0
 37 67  2  0  0  0  0
 38 73  1  0  0  0  0
 38 78  2  0  0  0  0
 39 54  1  0  0  0  0
 39 74  1  0  0  0  0
 39 79  2  0  0  0  0
 40 63  1  0  0  0  0
 40 70  1  0  0  0  0
 40 80  2  0  0  0  0
 41 64  1  0  0  0  0
 41 75  1  0  0  0  0
 41 81  2  0  0  0  0
 42 67  1  0  0  0  0
 42 71  1  0  0  0  0
 42 82  2  0  0  0  0
 43 47  1  0  0  0  0
 44 54  1  0  0  0  0
 45 70  1  0  0  0  0
 46 69  1  0  0  0  0
 47 49  1  0  0  0  0
 48 50  1  0  0  0  0
 48 51  1  0  0  0  0
 49 53  1  0  0  0  0
 50 55  1  0  0  0  0
 51 71  1  0  0  0  0
 52 55  1  0  0  0  0
 52 71  1  0  0  0  0
 53 74  1  0  0  0  0
 54 70  1  0  0  0  0
 55 68  1  0  0  0  0
 57 64  1  0  0  0  0
 58 65  1  0  0  0  0
 59 65  1  0  0  0  0
 60 65  1  0  0  0  0
 61 76  1  0  0  0  0
 62 84  1  0  0  0  0
 63 65  1  0  0  0  0
 63 75  1  0  0  0  0
 64 76  1  0  0  0  0
 66 68  1  0  0  0  0
M  CHG  1  76   1
M  ISO  4  42 100  62 101  67 100  84 101
M  END
> <Batch ID>
0093

> <Smiles>
CNC(C)C(=O)NC(C(=O)N1Cc2cc([101O:1][101CH2:1]C3=C(C)CN(c4ccc(C=[100N:0][100C:0](=O)N5CCCC(n6nc(-c7ccc(Oc8ccc(F)cc8F)cc7)c(C(N)=O)c6N)C5)cc4)C3=O)ccc2CC1C(=O)NC1CCCc2ccccc21)C(C)(C)C

> <Shape>
0.224

> <Color>
0.088

> <Negative vol penalty>
0.000

$$$$

  -OEChem-04052300373D

 86 95  0     1  0  0  0  0  0999 V2000
  -28.9854  -12.5377   22.4922 C   0  0  0  0  0  0  0  0  0  0  0  0
  -29.0998  -13.8486   22.0408 C   0  0  0  0  0  0  0  0  0  0  0  0
  -18.3281  -29.0370   22.5573 C   0  0  0  0  0  0  0  0  0  0  0  0
  -27.1379  -23.3067   19.1537 C   0  0  0  0  0  0  0  0  0  0  0  0
  -28.8232  -24.9111   19.8036 C   0  0  0  0  0  0  0  0  0  0  0  0
  -27.9399  -11.7343   22.0389 C   0  0  0  0  0  0  0  0  0  0  0  0
  -28.1693  -14.3566   21.1350 C   0  0  0  0  0  0  0  0  0  0  0  0
  -23.6028  -20.6724   21.6682 C   0  0  0  0  0  0  0  0  0  0  0  0
  -17.7810  -27.7558   22.4879 C   0  0  0  0  0  0  0  0  0  0  0  0
  -19.7127  -29.2032   22.5906 C   0  0  0  0  0  0  0  0  0  0  0  0
  -27.9982  -22.2638   19.4971 C   0  0  0  0  0  0  0  0  0  0  0  0
  -29.6835  -23.8683   20.1471 C   0  0  0  0  0  0  0  0  0  0  0  0
  -22.6330  -21.6742   21.7142 C   0  0  0  0  0  0  0  0  0  0  0  0
  -30.6630  -20.6854   18.1437 C   0  0  0  0  0  0  0  0  0  0  0  0
  -30.7721  -19.6167   17.2541 C   0  0  0  0  0  0  0  0  0  0  0  0
  -21.2308  -20.4007   20.2110 C   0  0  0  0  0  0  0  0  0  0  0  0
  -29.9936  -18.1070   18.9722 C   0  0  0  0  0  0  0  0  0  0  0  0
  -27.5504  -24.6303   19.3069 C   0  0  0  0  0  0  0  0  0  0  0  0
  -26.1017  -25.9656   17.6864 C   0  0  0  0  0  0  0  0  0  0  0  0
  -26.9906  -12.2357   21.1345 C   0  0  0  0  0  0  0  0  0  0  0  0
  -23.3833  -19.5226   20.9046 C   0  0  0  0  0  0  0  0  0  0  0  0
  -27.1109  -13.5587   20.6681 C   0  0  0  0  0  0  0  0  0  0  0  0
  -22.1931  -19.3883   20.1709 C   0  0  0  0  0  0  0  0  0  0  0  0
  -18.6184  -26.6408   22.4520 C   0  0  0  0  0  0  0  0  0  0  0  0
  -20.5500  -28.0883   22.5547 C   0  0  0  0  0  0  0  0  0  0  0  0
  -29.2710  -22.5446   19.9939 C   0  0  0  0  0  0  0  0  0  0  0  0
  -21.4501  -21.5388   20.9872 C   0  0  0  0  0  0  0  0  0  0  0  0
  -30.2192  -20.4650   19.4476 C   0  0  0  0  0  0  0  0  0  0  0  0
  -30.4375  -18.3275   17.6683 C   0  0  0  0  0  0  0  0  0  0  0  0
  -29.8845  -19.1758   19.8619 C   0  0  0  0  0  0  0  0  0  0  0  0
  -20.0029  -26.8071   22.4854 C   0  0  0  0  0  0  0  0  0  0  0  0
  -26.6624  -25.7080   18.9517 C   0  0  0  0  0  0  0  0  0  0  0  0
  -25.3378  -27.0918   17.8721 C   0  0  0  0  0  0  0  0  0  0  0  0
  -18.2576  -23.0712   21.6012 C   0  0  0  0  0  0  0  0  0  0  0  0
  -16.6071  -23.6098   23.2734 C   0  0  0  0  0  0  0  0  0  0  0  0
  -19.2634  -22.1892   21.5053 C   0  0  0  0  0  0  0  0  0  1  0  0
  -26.2573  -25.2506   16.4534 C   0  0  0  0  0  0  0  0  0  0  0  0
  -24.6835  -16.1935   19.7633 C   0  0  0  0  0  0  0  0  0  0  0  0
  -21.6904  -15.8339   20.3316 C   0  0  0  0  0  0  0  0  0  0  0  0
  -18.9399  -15.7454   21.8579 C   0  0  0  0  0  0  0  0  0  0  0  0
  -22.6583  -29.4635   22.6576 C   0  0  0  0  0  0  0  0  0  0  0  0
  -25.9051  -11.3147   20.6364 C   0  0  0  0  0  0  0  0  0  0  0  0
  -24.4265  -18.4459   20.7768 C   0  0  0  0  0  0  0  0  0  0  0  0
  -22.0150  -18.1498   19.3358 C   0  0  0  0  0  0  0  0  0  0  0  0
  -16.9035  -22.6893   22.1136 C   0  0  0  0  0  0  0  0  0  0  0  0
  -18.4134  -24.5204   21.2227 C   0  0  0  0  0  0  0  0  0  0  0  0
  -16.7830  -25.0970   23.0432 C   0  0  0  0  0  0  0  0  0  0  0  0
  -24.7458  -12.0465   19.9652 C   0  0  0  0  0  0  0  0  0  0  0  0
  -25.0788  -31.0373   20.5741 C   0  0  0  0  0  0  0  0  0  0  0  0
  -25.2698  -13.0901   18.9839 C   0  0  0  0  0  0  0  0  0  0  0  0
  -25.7044  -29.8734   19.8020 C   0  0  0  0  0  0  0  0  0  0  0  0
  -24.7450  -30.6490   22.0133 C   0  0  0  0  0  0  0  0  0  0  0  0
  -24.5505  -28.2752   21.3836 C   0  0  0  0  0  0  0  0  0  0  0  0
  -26.1071  -14.1537   19.7045 C   0  0  1  0  0  0  0  0  0  0  0  0
  -23.8253  -17.0336   20.6629 C   0  0  1  0  0  0  0  0  0  0  0  0
  -24.8444  -28.5988   19.9097 C   0  0  2  0  0  0  0  0  0  0  0  0
  -16.6968  -15.2976   22.8901 C   0  0  0  0  0  0  0  0  0  0  0  0
  -21.1215  -16.0253   17.3410 C   0  0  0  0  0  0  0  0  0  0  0  0
  -18.7661  -15.3223   17.8161 C   0  0  0  0  0  0  0  0  0  0  0  0
  -20.6565  -13.7849   18.3505 C   0  0  0  0  0  0  0  0  0  0  0  0
  -20.1302  -14.1035   24.0134 C   0  0  0  0  0  0  0  0  0  0  0  0
  -20.2881  -15.8392   19.7776 C   0  0  1  0  0  0  0  0  0  0  0  0
  -18.1176  -14.7888   22.7025 C   0  0  2  0  0  0  0  0  0  0  0  0
  -20.2192  -15.2659   18.3340 C   0  0  0  0  0  0  0  0  0  0  0  0
  -26.2869  -26.5990   19.8732 N   0  0  0  0  0  0  0  0  0  0  0  0
  -25.4821  -27.4275   19.1862 N   0  0  0  0  0  0  0  0  0  0  0  0
  -18.0658  -25.3550   22.3820 N   0  0  2  0  0  0  0  0  0  0  0  0
  -22.4723  -16.9689   20.0847 N   0  0  0  0  0  0  0  0  0  0  0  0
  -23.9250  -29.4358   22.0368 N   0  0  0  0  0  0  0  0  0  0  0  0
  -24.5636  -27.8179   17.0380 N   0  0  0  0  0  0  0  0  0  0  0  0
  -25.3605  -24.2129   16.1649 N   0  0  0  0  0  0  0  0  0  0  0  0
  -21.9561  -28.2607   22.5889 N   0  0  0  0  0  0  0  0  0  0  0  0
  -25.2473  -15.0968   20.3870 N   0  0  0  0  0  0  0  0  0  0  0  0
  -19.4643  -15.1226   20.7451 N   0  0  0  0  0  0  0  0  0  0  0  0
  -18.7380  -14.6207   24.0471 N   0  3  0  0  0  0  0  0  0  0  0  0
  -16.1411  -23.1775   24.3281 O   0  0  0  0  0  0  0  0  0  0  0  0
  -27.1749  -25.5131   15.6393 O   0  0  0  0  0  0  0  0  0  0  0  0
  -24.8233  -16.5147   18.5891 O   0  0  0  0  0  0  0  0  0  0  0  0
  -22.0863  -14.8493   20.9617 O   0  0  0  0  0  0  0  0  0  0  0  0
  -19.0979  -16.9278   22.1537 O   0  0  0  0  0  0  0  0  0  0  0  0
  -22.2166  -30.4872   23.1857 O   0  0  0  0  0  0  0  0  0  0  0  0
  -30.1106  -21.5273   20.3294 O   0  0  0  0  0  0  0  0  0  0  0  0
  -20.5056  -22.5186   21.0403 O   0  0  0  0  0  0  0  0  0  1  0  0
  -30.5409  -17.3015   16.8135 F   0  0  0  0  0  0  0  0  0  0  0  0
  -29.4565  -18.9581   21.1129 F   0  0  0  0  0  0  0  0  0  0  0  0
  -20.8081  -25.7341   22.4506 F   0  0  0  0  0  0  0  0  0  0  0  0
  1  2  1  0  0  0  0
  1  6  2  0  0  0  0
  2  7  2  0  0  0  0
  3  9  2  0  0  0  0
  3 10  1  0  0  0  0
  4 11  2  0  0  0  0
  4 18  1  0  0  0  0
  5 12  1  0  0  0  0
  5 18  2  0  0  0  0
  6 20  1  0  0  0  0
  7 22  1  0  0  0  0
  8 13  2  0  0  0  0
  8 21  1  0  0  0  0
  9 24  1  0  0  0  0
 10 25  2  0  0  0  0
 11 26  1  0  0  0  0
 12 26  2  0  0  0  0
 13 27  1  0  0  0  0
 14 15  2  0  0  0  0
 14 28  1  0  0  0  0
 15 29  1  0  0  0  0
 16 23  1  0  0  0  0
 16 27  2  0  0  0  0
 17 29  2  0  0  0  0
 17 30  1  0  0  0  0
 18 32  1  0  0  0  0
 19 32  1  0  0  0  0
 19 33  2  0  0  0  0
 19 37  1  0  0  0  0
 20 22  2  0  0  0  0
 20 42  1  0  0  0  0
 21 23  2  0  0  0  0
 21 43  1  0  0  0  0
 22 54  1  0  0  0  0
 23 44  1  0  0  0  0
 24 31  2  0  0  0  0
 24 67  1  0  0  0  0
 25 31  1  0  0  0  0
 25 72  1  0  0  0  0
 26 82  1  0  0  0  0
 27 83  1  0  0  0  0
 28 30  2  0  0  0  0
 28 82  1  0  0  0  0
 29 84  1  0  0  0  0
 30 85  1  0  0  0  0
 31 86  1  0  0  0  0
 32 65  2  0  0  0  0
 33 66  1  0  0  0  0
 33 70  1  0  0  0  0
 34 36  2  0  0  0  0
 34 45  1  0  0  0  0
 34 46  1  0  0  0  0
 35 45  1  0  0  0  0
 35 47  1  0  0  0  0
 35 76  2  0  0  0  0
 36 83  1  0  0  0  0
 37 71  1  0  0  0  0
 37 77  2  0  0  0  0
 38 55  1  0  0  0  0
 38 73  1  0  0  0  0
 38 78  2  0  0  0  0
 39 62  1  0  0  0  0
 39 68  1  0  0  0  0
 39 79  2  0  0  0  0
 40 63  1  0  0  0  0
 40 74  1  0  0  0  0
 40 80  2  0  0  0  0
 41 69  1  0  0  0  0
 41 72  1  0  0  0  0
 41 81  2  0  0  0  0
 42 48  1  0  0  0  0
 43 55  1  0  0  0  0
 44 68  1  0  0  0  0
 46 67  1  0  0  0  0
 47 67  1  0  0  0  0
 48 50  1  0  0  0  0
 49 51  1  0  0  0  0
 49 52  1  0  0  0  0
 50 54  1  0  0  0  0
 51 56  1  0  0  0  0
 52 69  1  0  0  0  0
 53 56  1  0  0  0  0
 53 69  1  0  0  0  0
 54 73  1  0  0  0  0
 55 68  1  0  0  0  0
 56 66  1  0  0  0  0
 57 63  1  0  0  0  0
 58 64  1  0  0  0  0
 59 64  1  0  0  0  0
 60 64  1  0  0  0  0
 61 75  1  0  0  0  0
 62 64  1  0  0  0  0
 62 74  1  0  0  0  0
 63 75  1  0  0  0  0
 65 66  1  0  0  0  0
M  CHG  1  75   1
M  ISO  4  36 101  41 100  72 100  83 101
M  END
> <Batch ID>
0093

> <Smiles>
CNC(C)C(=O)NC(C(=O)N1Cc2cc([101O:1][101CH:1]=C3CC(=O)CN(c4cccc([100NH:0][100C:0](=O)N5CCCC(n6nc(-c7ccc(Oc8ccc(F)cc8F)cc7)c(C(N)=O)c6N)C5)c4F)C3)ccc2CC1C(=O)NC1CCCc2ccccc21)C(C)(C)C

> <Shape>
0.212

> <Color>
0.083

> <Negative vol penalty>
0.000

$$$$

  -OEChem-04052300373D

 86 95  0     1  0  0  0  0  0999 V2000
  -17.7740  -30.8933   22.6806 C   0  0  0  0  0  0  0  0  0  0  0  0
  -18.9320  -30.1419   22.5079 C   0  0  0  0  0  0  0  0  0  0  0  0
  -23.2802   -9.6545   21.2611 C   0  0  0  0  0  0  0  0  0  0  0  0
  -23.9183  -10.5404   23.4163 C   0  0  0  0  0  0  0  0  0  0  0  0
  -16.8747  -30.5631   23.6935 C   0  0  0  0  0  0  0  0  0  0  0  0
  -19.1919  -29.0604   23.3489 C   0  0  0  0  0  0  0  0  0  0  0  0
  -21.9692  -23.8129   21.8468 C   0  0  0  0  0  0  0  0  0  0  0  0
  -22.6044   -8.6093   21.8907 C   0  0  0  0  0  0  0  0  0  0  0  0
  -23.2425   -9.4952   24.0460 C   0  0  0  0  0  0  0  0  0  0  0  0
  -23.2802  -23.3664   22.0065 C   0  0  0  0  0  0  0  0  0  0  0  0
  -23.3849   -5.6711   23.3680 C   0  0  0  0  0  0  0  0  0  0  0  0
  -23.5699   -4.3838   22.8639 C   0  0  0  0  0  0  0  0  0  0  0  0
  -22.6408  -22.2348   24.0388 C   0  0  0  0  0  0  0  0  0  0  0  0
  -28.0630  -22.3669   23.6162 C   0  0  0  0  0  0  0  0  0  0  0  0
  -31.2343  -19.7948   22.3902 C   0  0  0  0  0  0  0  0  0  0  0  0
  -31.6426  -17.5918   21.4864 C   0  0  0  0  0  0  0  0  0  0  0  0
  -21.2010   -4.2175   22.4192 C   0  0  0  0  0  0  0  0  0  0  0  0
  -27.7654  -20.8521   21.9770 C   0  0  0  0  0  0  0  0  0  0  0  0
  -23.9372  -10.6200   22.0238 C   0  0  0  0  0  0  0  0  0  0  0  0
  -24.1126  -12.9556   21.0128 C   0  0  0  0  0  0  0  0  0  0  0  0
  -17.1190  -29.4712   24.5412 C   0  0  0  0  0  0  0  0  0  0  0  0
  -20.9848  -23.4823   22.7893 C   0  0  0  0  0  0  0  0  0  0  0  0
  -18.2957  -28.7161   24.3750 C   0  0  0  0  0  0  0  0  0  0  0  0
  -21.3175  -22.6763   23.8874 C   0  0  0  0  0  0  0  0  0  0  0  0
  -27.1766  -21.9297   22.6012 C   0  0  0  0  0  0  0  0  0  0  0  0
  -29.8625  -19.6115   22.2174 C   0  0  0  0  0  0  0  0  0  0  0  0
  -32.1245  -18.7850   22.0246 C   0  0  0  0  0  0  0  0  0  0  0  0
  -30.2707  -17.4084   21.3136 C   0  0  0  0  0  0  0  0  0  0  0  0
  -22.5855   -8.5297   23.2832 C   0  0  0  0  0  0  0  0  0  0  0  0
  -23.6169  -22.5796   23.1042 C   0  0  0  0  0  0  0  0  0  0  0  0
  -22.1079   -6.2317   23.3979 C   0  0  0  0  0  0  0  0  0  0  0  0
  -22.4780   -3.6570   22.3894 C   0  0  0  0  0  0  0  0  0  0  0  0
  -21.0160   -5.5049   22.9234 C   0  0  0  0  0  0  0  0  0  0  0  0
  -29.3806  -18.4183   21.6791 C   0  0  0  0  0  0  0  0  0  0  0  0
  -24.6360  -11.6996   21.3739 C   0  0  0  0  0  0  0  0  0  0  0  0
  -25.1686  -13.6132   20.4308 C   0  0  0  0  0  0  0  0  0  0  0  0
  -29.1666  -21.5433   23.5812 C   0  0  0  0  0  0  0  0  0  0  0  0
  -22.7901  -13.4809   21.1879 C   0  0  0  0  0  0  0  0  0  0  0  0
  -19.1276  -25.1375   24.7678 C   0  0  0  0  0  0  0  0  0  0  0  0
  -17.8057  -22.2301   25.3355 C   0  0  0  0  0  0  0  0  0  0  0  0
  -18.1532  -18.8352   25.3126 C   0  0  0  0  0  0  0  0  0  0  0  0
  -30.5349  -15.0963   20.3488 C   0  0  0  0  0  0  0  0  0  0  0  0
  -16.1409  -29.1816   25.6522 C   0  0  0  0  0  0  0  0  0  0  0  0
  -19.5693  -23.9496   22.5884 C   0  0  0  0  0  0  0  0  0  0  0  0
  -20.2933  -22.2765   24.9168 C   0  0  0  0  0  0  0  0  0  0  0  0
  -16.3057  -27.7919   26.2619 C   0  0  0  0  0  0  0  0  0  0  0  0
  -29.7108  -11.9144   18.9800 C   0  0  0  0  0  0  0  0  0  0  0  0
  -17.7767  -27.5040   26.5446 C   0  0  0  0  0  0  0  0  0  0  0  0
  -28.2740  -11.6782   19.4510 C   0  0  0  0  0  0  0  0  0  0  0  0
  -30.5449  -12.6305   20.0407 C   0  0  0  0  0  0  0  0  0  0  0  0
  -28.5244  -13.6409   21.0234 C   0  0  0  0  0  0  0  0  0  0  0  0
  -18.6005  -27.5206   25.2513 C   0  0  1  0  0  0  0  0  0  0  0  0
  -18.7611  -23.9805   23.8819 C   0  0  1  0  0  0  0  0  0  0  0  0
  -27.6277  -12.9802   19.9636 C   0  0  2  0  0  0  0  0  0  0  0  0
  -16.9146  -16.7245   25.8677 C   0  0  0  0  0  0  0  0  0  0  0  0
  -18.2975  -22.7257   28.3058 C   0  0  0  0  0  0  0  0  0  0  0  0
  -17.9424  -20.2791   28.7015 C   0  0  0  0  0  0  0  0  0  0  0  0
  -16.0922  -21.6724   27.7750 C   0  0  0  0  0  0  0  0  0  0  0  0
  -18.2892  -17.8819   22.5141 C   0  0  0  0  0  0  0  0  0  0  0  0
  -25.8421  -22.5285   22.2666 C   0  0  0  0  0  0  0  0  0  1  0  0
  -18.0717  -21.1063   26.3077 C   0  0  1  0  0  0  0  0  0  0  0  0
  -17.2530  -17.7341   24.7819 C   0  0  2  0  0  0  0  0  0  0  0  0
  -17.6209  -21.4548   27.7543 C   0  0  0  0  0  0  0  0  0  0  0  0
  -25.9243  -11.5649   21.0484 N   0  0  0  0  0  0  0  0  0  0  0  0
  -28.9748  -20.6265   22.5808 N   0  0  0  0  0  0  0  0  0  0  0  0
  -26.2194  -12.7448   20.4765 N   0  0  0  0  0  0  0  0  0  0  0  0
  -18.9243  -22.7635   24.6796 N   0  0  0  0  0  0  0  0  0  0  0  0
  -29.8727  -13.8569   20.4755 N   0  0  0  0  0  0  0  0  0  0  0  0
  -33.5118  -18.9694   22.1999 N   0  0  0  0  0  0  0  0  0  0  0  0
  -25.2917  -14.8436   19.8893 N   0  0  0  0  0  0  0  0  0  0  0  0
  -21.8261  -12.6720   21.8050 N   0  0  0  0  0  0  0  0  0  0  0  0
  -29.7848  -16.1959   20.7645 N   0  0  0  0  0  0  0  0  0  0  0  0
  -18.4088  -26.2901   24.5141 N   0  0  0  0  0  0  0  0  0  0  0  0
  -17.4267  -19.9226   25.7497 N   0  0  0  0  0  0  0  0  0  0  0  0
  -17.9214  -17.0133   23.6618 N   0  3  0  0  0  0  0  0  0  0  0  0
  -22.4682  -14.6274   20.7937 O   0  0  0  0  0  0  0  0  0  0  0  0
  -19.9970  -24.9946   25.6194 O   0  0  0  0  0  0  0  0  0  0  0  0
  -16.6474  -22.6157   25.1591 O   0  0  0  0  0  0  0  0  0  0  0  0
  -19.3781  -18.7387   25.3404 O   0  0  0  0  0  0  0  0  0  0  0  0
  -31.6726  -15.1792   19.8790 O   0  0  0  0  0  0  0  0  0  0  0  0
  -30.2666  -21.5440   24.3245 O   0  0  0  0  0  0  0  0  0  0  0  0
  -21.9260   -7.5101   23.8980 O   0  0  0  0  0  0  0  0  0  0  0  0
  -24.8960  -22.1430   23.2628 O   0  0  0  0  0  0  0  0  0  1  0  0
  -22.6560   -2.4214   21.9038 F   0  0  0  0  0  0  0  0  0  0  0  0
  -19.7870   -6.0385   22.9484 F   0  0  0  0  0  0  0  0  0  0  0  0
  -28.0610  -18.2396   21.5114 F   0  0  0  0  0  0  0  0  0  0  0  0
  1  2  1  0  0  0  0
  1  5  2  0  0  0  0
  2  6  2  0  0  0  0
  3  8  2  0  0  0  0
  3 19  1  0  0  0  0
  4  9  1  0  0  0  0
  4 19  2  0  0  0  0
  5 21  1  0  0  0  0
  6 23  1  0  0  0  0
  7 10  2  0  0  0  0
  7 22  1  0  0  0  0
  8 29  1  0  0  0  0
  9 29  2  0  0  0  0
 10 30  1  0  0  0  0
 11 12  2  0  0  0  0
 11 31  1  0  0  0  0
 12 32  1  0  0  0  0
 13 24  1  0  0  0  0
 13 30  2  0  0  0  0
 14 25  1  0  0  0  0
 14 37  2  0  0  0  0
 15 26  1  0  0  0  0
 15 27  2  0  0  0  0
 16 27  1  0  0  0  0
 16 28  2  0  0  0  0
 17 32  2  0  0  0  0
 17 33  1  0  0  0  0
 18 25  2  0  0  0  0
 18 65  1  0  0  0  0
 19 35  1  0  0  0  0
 20 35  1  0  0  0  0
 20 36  2  0  0  0  0
 20 38  1  0  0  0  0
 21 23  2  0  0  0  0
 21 43  1  0  0  0  0
 22 24  2  0  0  0  0
 22 44  1  0  0  0  0
 23 52  1  0  0  0  0
 24 45  1  0  0  0  0
 25 60  1  0  0  0  0
 26 34  2  0  0  0  0
 26 65  1  0  0  0  0
 27 69  1  0  0  0  0
 28 34  1  0  0  0  0
 28 72  1  0  0  0  0
 29 82  1  0  0  0  0
 30 83  1  0  0  0  0
 31 33  2  0  0  0  0
 31 82  1  0  0  0  0
 32 84  1  0  0  0  0
 33 85  1  0  0  0  0
 34 86  1  0  0  0  0
 35 64  2  0  0  0  0
 36 66  1  0  0  0  0
 36 70  1  0  0  0  0
 37 65  1  0  0  0  0
 37 81  1  0  0  0  0
 38 71  1  0  0  0  0
 38 76  2  0  0  0  0
 39 53  1  0  0  0  0
 39 73  1  0  0  0  0
 39 77  2  0  0  0  0
 40 61  1  0  0  0  0
 40 67  1  0  0  0  0
 40 78  2  0  0  0  0
 41 62  1  0  0  0  0
 41 74  1  0  0  0  0
 41 79  2  0  0  0  0
 42 68  1  0  0  0  0
 42 72  1  0  0  0  0
 42 80  2  0  0  0  0
 43 46  1  0  0  0  0
 44 53  1  0  0  0  0
 45 67  1  0  0  0  0
 46 48  1  0  0  0  0
 47 49  1  0  0  0  0
 47 50  1  0  0  0  0
 48 52  1  0  0  0  0
 49 54  1  0  0  0  0
 50 68  1  0  0  0  0
 51 54  1  0  0  0  0
 51 68  1  0  0  0  0
 52 73  1  0  0  0  0
 53 67  1  0  0  0  0
 54 66  1  0  0  0  0
 55 62  1  0  0  0  0
 56 63  1  0  0  0  0
 57 63  1  0  0  0  0
 58 63  1  0  0  0  0
 59 75  1  0  0  0  0
 60 83  1  0  0  0  0
 61 63  1  0  0  0  0
 61 74  1  0  0  0  0
 62 75  1  0  0  0  0
 64 66  1  0  0  0  0
M  CHG  1  75   1
M  ISO  4  42 100  60 101  72 100  83 101
M  END
> <Batch ID>
0093

> <Smiles>
CNC(C)C(=O)NC(C(=O)N1Cc2cc([101O:1][101CH2:1]C3=CN(c4cc(N)cc([100NH:0][100C:0](=O)N5CCCC(n6nc(-c7ccc(Oc8ccc(F)cc8F)cc7)c(C(N)=O)c6N)C5)c4F)C(=O)C3)ccc2CC1C(=O)NC1CCCc2ccccc21)C(C)(C)C

> <Shape>
0.200

> <Color>
0.153

> <Negative vol penalty>
0.000

$$$$

  -OEChem-04052300373D

 83 91  0     1  0  0  0  0  0999 V2000
  -29.7641  -25.4098   17.1991 C   0  0  0  0  0  0  0  0  0  0  0  0
  -28.3824  -25.4864   17.3422 C   0  0  0  0  0  0  0  0  0  0  0  0
  -26.9241  -13.7583   21.7706 C   0  0  0  0  0  0  0  0  0  0  0  0
  -25.8900  -15.0509   20.0109 C   0  0  0  0  0  0  0  0  0  0  0  0
  -22.6429  -23.5843   20.6560 C   0  0  0  0  0  0  0  0  0  0  0  0
  -22.0858  -24.2450   22.9122 C   0  0  0  0  0  0  0  0  0  0  0  0
  -30.5956  -25.8328   18.2352 C   0  0  0  0  0  0  0  0  0  0  0  0
  -27.8314  -25.9850   18.5222 C   0  0  0  0  0  0  0  0  0  0  0  0
  -22.7033  -29.2855   19.0834 C   0  0  0  0  0  0  0  0  0  0  0  0
  -23.6859  -22.7973   21.1440 C   0  0  0  0  0  0  0  0  0  0  0  0
  -23.1288  -23.4579   23.4002 C   0  0  0  0  0  0  0  0  0  0  0  0
  -26.2283  -12.6258   21.3477 C   0  0  0  0  0  0  0  0  0  0  0  0
  -25.1942  -13.9184   19.5879 C   0  0  0  0  0  0  0  0  0  0  0  0
  -21.3986  -28.9395   19.4323 C   0  0  0  0  0  0  0  0  0  0  0  0
  -26.4836  -10.3194   18.8883 C   0  0  0  0  0  0  0  0  0  0  0  0
  -27.1927   -9.1224   18.7892 C   0  0  0  0  0  0  0  0  0  0  0  0
  -21.8450  -29.5811   21.7144 C   0  0  0  0  0  0  0  0  0  0  0  0
  -25.7102   -8.1103   20.4063 C   0  0  0  0  0  0  0  0  0  0  0  0
  -26.7549  -14.9709   21.1022 C   0  0  0  0  0  0  0  0  0  0  0  0
  -21.8428  -24.3082   21.5401 C   0  0  0  0  0  0  0  0  0  0  0  0
  -28.7426  -16.5699   21.1075 C   0  0  0  0  0  0  0  0  0  0  0  0
  -30.0547  -26.3458   19.4247 C   0  0  0  0  0  0  0  0  0  0  0  0
  -23.5935  -29.7725   20.0513 C   0  0  0  0  0  0  0  0  0  0  0  0
  -28.6565  -26.4140   19.5757 C   0  0  0  0  0  0  0  0  0  0  0  0
  -23.1597  -29.9350   21.3748 C   0  0  0  0  0  0  0  0  0  0  0  0
  -23.9289  -22.7340   22.5161 C   0  0  0  0  0  0  0  0  0  0  0  0
  -25.3634  -12.7058   20.2563 C   0  0  0  0  0  0  0  0  0  0  0  0
  -20.9701  -29.0845   20.7485 C   0  0  0  0  0  0  0  0  0  0  0  0
  -25.3878  -10.4120   19.7465 C   0  0  0  0  0  0  0  0  0  0  0  0
  -26.8060   -8.0178   19.5482 C   0  0  0  0  0  0  0  0  0  0  0  0
  -25.0011   -9.3074   20.5054 C   0  0  0  0  0  0  0  0  0  0  0  0
  -27.4730  -16.1412   21.5390 C   0  0  0  0  0  0  0  0  0  0  0  0
  -28.9750  -17.7229   21.8167 C   0  0  0  0  0  0  0  0  0  0  0  0
  -20.7319  -25.1466   21.0204 C   0  0  0  0  0  0  0  0  0  0  0  0
  -29.6322  -15.9787   20.1511 C   0  0  0  0  0  0  0  0  0  0  0  0
  -26.3667  -28.7827   21.2487 C   0  0  0  0  0  0  0  0  0  0  0  0
  -26.2813  -31.6416   22.7790 C   0  0  0  0  0  0  0  0  0  0  0  0
  -24.4090  -34.2282   23.9835 C   0  0  0  0  0  0  0  0  0  0  0  0
  -25.3653  -21.7600   24.3421 C   0  0  0  0  0  0  0  0  0  0  0  0
  -30.9930  -26.7466   20.5353 C   0  0  0  0  0  0  0  0  0  0  0  0
  -24.9895  -30.1665   19.6535 C   0  0  0  0  0  0  0  0  0  0  0  0
  -24.0702  -30.4726   22.4474 C   0  0  0  0  0  0  0  0  0  0  0  0
  -30.3343  -27.6115   21.6069 C   0  0  0  0  0  0  0  0  0  0  0  0
  -27.8905  -19.8484   25.9689 C   0  0  0  0  0  0  0  0  0  0  0  0
  -28.9899  -27.0198   22.0186 C   0  0  0  0  0  0  0  0  0  0  0  0
  -28.1899  -18.7233   24.9756 C   0  0  0  0  0  0  0  0  0  0  0  0
  -26.4068  -20.2121   25.9836 C   0  0  0  0  0  0  0  0  0  0  0  0
  -26.1298  -19.3963   23.6756 C   0  0  0  0  0  0  0  0  0  0  0  0
  -28.0212  -26.9720   20.8308 C   0  0  1  0  0  0  0  0  0  0  0  0
  -25.9668  -30.1678   20.8249 C   0  0  1  0  0  0  0  0  0  0  0  0
  -27.6221  -19.0395   23.5781 C   0  0  2  0  0  0  0  0  0  0  0  0
  -24.6170  -36.4023   25.2195 C   0  0  0  0  0  0  0  0  0  0  0  0
  -26.6956  -30.1156   25.3886 C   0  0  0  0  0  0  0  0  0  0  0  0
  -25.9535  -32.1636   26.6228 C   0  0  0  0  0  0  0  0  0  0  0  0
  -28.0032  -32.2394   25.2031 C   0  0  0  0  0  0  0  0  0  0  0  0
  -23.2769  -35.7584   21.7173 C   0  0  0  0  0  0  0  0  0  0  0  0
  -18.2991  -27.3272   22.4291 C   0  0  0  0  0  0  0  0  0  0  0  0
  -18.5064  -26.1225   21.5210 C   0  0  0  0  0  0  0  0  0  0  0  0
  -19.4853  -28.2839   22.4249 C   0  0  0  0  0  0  0  0  0  1  0  0
  -25.7323  -32.1329   24.0967 C   0  0  1  0  0  0  0  0  0  0  0  0
  -24.5684  -35.7324   23.8551 C   0  0  2  0  0  0  0  0  0  0  0  0
  -26.5793  -31.6509   25.3082 C   0  0  0  0  0  0  0  0  0  0  0  0
  -26.9365  -16.9555   22.4518 N   0  0  0  0  0  0  0  0  0  0  0  0
  -27.8736  -17.9074   22.5997 N   0  0  0  0  0  0  0  0  0  0  0  0
  -25.4277  -30.8379   22.0101 N   0  0  0  0  0  0  0  0  0  0  0  0
  -25.9400  -20.5031   24.6263 N   0  0  0  0  0  0  0  0  0  0  0  0
  -30.0121  -18.5868   21.8409 N   0  0  0  0  0  0  0  0  0  0  0  0
  -29.2373  -14.7944   19.5142 N   0  0  0  0  0  0  0  0  0  0  0  0
  -24.9887  -21.9340   23.0108 N   0  0  0  0  0  0  0  0  0  0  0  0
  -19.6647  -25.3551   21.8868 N   0  0  0  0  0  0  0  0  0  0  0  0
  -27.4671  -28.2847   20.5774 N   0  0  0  0  0  0  0  0  0  0  0  0
  -25.6278  -33.5833   23.9800 N   0  0  0  0  0  0  0  0  0  0  0  0
  -23.4288  -36.3104   23.0881 N   0  3  0  0  0  0  0  0  0  0  0  0
  -20.7971  -25.5865   19.8755 O   0  0  0  0  0  0  0  0  0  0  0  0
  -30.7515  -16.4769   19.8817 O   0  0  0  0  0  0  0  0  0  0  0  0
  -25.7253  -28.2090   22.1211 O   0  0  0  0  0  0  0  0  0  0  0  0
  -27.4227  -31.9651   22.4411 O   0  0  0  0  0  0  0  0  0  0  0  0
  -23.3132  -33.6804   24.0813 O   0  0  0  0  0  0  0  0  0  0  0  0
  -25.2432  -22.6287   25.2095 O   0  0  0  0  0  0  0  0  0  0  0  0
  -24.6844  -11.6009   19.8432 O   0  0  0  0  0  0  0  0  0  0  0  0
  -19.6973  -28.7468   21.0918 O   0  0  0  0  0  0  0  0  0  1  0  0
  -27.4861   -6.8679   19.4517 F   0  0  0  0  0  0  0  0  0  0  0  0
  -23.9485   -9.3899   21.3307 F   0  0  0  0  0  0  0  0  0  0  0  0
  1  2  1  0  0  0  0
  1  7  2  0  0  0  0
  2  8  2  0  0  0  0
  3 12  2  0  0  0  0
  3 19  1  0  0  0  0
  4 13  1  0  0  0  0
  4 19  2  0  0  0  0
  5 10  2  0  0  0  0
  5 20  1  0  0  0  0
  6 11  1  0  0  0  0
  6 20  2  0  0  0  0
  7 22  1  0  0  0  0
  8 24  1  0  0  0  0
  9 14  2  0  0  0  0
  9 23  1  0  0  0  0
 10 26  1  0  0  0  0
 11 26  2  0  0  0  0
 12 27  1  0  0  0  0
 13 27  2  0  0  0  0
 14 28  1  0  0  0  0
 15 16  2  0  0  0  0
 15 29  1  0  0  0  0
 16 30  1  0  0  0  0
 17 25  1  0  0  0  0
 17 28  2  0  0  0  0
 18 30  2  0  0  0  0
 18 31  1  0  0  0  0
 19 32  1  0  0  0  0
 20 34  1  0  0  0  0
 21 32  1  0  0  0  0
 21 33  2  0  0  0  0
 21 35  1  0  0  0  0
 22 24  2  0  0  0  0
 22 40  1  0  0  0  0
 23 25  2  0  0  0  0
 23 41  1  0  0  0  0
 24 49  1  0  0  0  0
 25 42  1  0  0  0  0
 26 69  1  0  0  0  0
 27 80  1  0  0  0  0
 28 81  1  0  0  0  0
 29 31  2  0  0  0  0
 29 80  1  0  0  0  0
 30 82  1  0  0  0  0
 31 83  1  0  0  0  0
 32 63  2  0  0  0  0
 33 64  1  0  0  0  0
 33 67  1  0  0  0  0
 34 70  1  0  0  0  0
 34 74  2  0  0  0  0
 35 68  1  0  0  0  0
 35 75  2  0  0  0  0
 36 50  1  0  0  0  0
 36 71  1  0  0  0  0
 36 76  2  0  0  0  0
 37 60  1  0  0  0  0
 37 65  1  0  0  0  0
 37 77  2  0  0  0  0
 38 61  1  0  0  0  0
 38 72  1  0  0  0  0
 38 78  2  0  0  0  0
 39 66  1  0  0  0  0
 39 69  1  0  0  0  0
 39 79  2  0  0  0  0
 40 43  1  0  0  0  0
 41 50  1  0  0  0  0
 42 65  1  0  0  0  0
 43 45  1  0  0  0  0
 44 46  1  0  0  0  0
 44 47  1  0  0  0  0
 45 49  1  0  0  0  0
 46 51  1  0  0  0  0
 47 66  1  0  0  0  0
 48 51  1  0  0  0  0
 48 66  1  0  0  0  0
 49 71  1  0  0  0  0
 50 65  1  0  0  0  0
 51 64  1  0  0  0  0
 52 61  1  0  0  0  0
 53 62  1  0  0  0  0
 54 62  1  0  0  0  0
 55 62  1  0  0  0  0
 56 73  1  0  0  0  0
 57 58  1  0  0  0  0
 57 59  1  0  0  0  0
 58 70  1  0  0  0  0
 59 81  1  0  0  0  0
 60 62  1  0  0  0  0
 60 72  1  0  0  0  0
 61 73  1  0  0  0  0
 63 64  1  0  0  0  0
M  CHG  1  73   1
M  ISO  4  39 100  59 101  69 100  81 101
M  END
> <Batch ID>
0093

> <Smiles>
CNC(C)C(=O)NC(C(=O)N1Cc2cc([101O:1][101CH2:1]CCNC(=O)c3ccc([100NH:0][100C:0](=O)N4CCCC(n5nc(-c6ccc(Oc7ccc(F)cc7F)cc6)c(C(N)=O)c5N)C4)cc3)ccc2CC1C(=O)NC1CCCc2ccccc21)C(C)(C)C

> <Shape>
0.292

> <Color>
0.062

> <Negative vol penalty>
0.000

$$$$

  -OEChem-04052300373D

 85 93  0     1  0  0  0  0  0999 V2000
  -28.3371  -35.2561   24.3313 C   0  0  0  0  0  0  0  0  0  0  0  0
  -28.5172  -33.9197   23.9894 C   0  0  0  0  0  0  0  0  0  0  0  0
  -23.6222  -12.6309   23.4946 C   0  0  0  0  0  0  0  0  0  0  0  0
  -22.7022  -14.1339   21.8419 C   0  0  0  0  0  0  0  0  0  0  0  0
  -27.0791  -35.7104   24.7249 C   0  0  0  0  0  0  0  0  0  0  0  0
  -27.4395  -33.0364   24.0420 C   0  0  0  0  0  0  0  0  0  0  0  0
  -27.1858  -30.0366   19.9699 C   0  0  0  0  0  0  0  0  0  0  0  0
  -27.9759  -19.0454   17.5366 C   0  0  0  0  0  0  0  0  0  0  0  0
  -28.1310  -20.3613   17.9722 C   0  0  0  0  0  0  0  0  0  0  0  0
  -22.7318  -13.1306   24.4448 C   0  0  0  0  0  0  0  0  0  0  0  0
  -21.8116  -14.6336   22.7921 C   0  0  0  0  0  0  0  0  0  0  0  0
  -28.0620  -28.9532   19.9216 C   0  0  0  0  0  0  0  0  0  0  0  0
  -19.4711  -12.7408   25.2506 C   0  0  0  0  0  0  0  0  0  0  0  0
  -18.8042  -11.8216   26.0605 C   0  0  0  0  0  0  0  0  0  0  0  0
  -26.2862  -27.4922   20.6503 C   0  0  0  0  0  0  0  0  0  0  0  0
  -30.2441  -19.0534   16.7046 C   0  0  0  0  0  0  0  0  0  0  0  0
  -19.7873  -12.8354   28.0208 C   0  0  0  0  0  0  0  0  0  0  0  0
  -23.6075  -13.1326   22.1932 C   0  0  0  0  0  0  0  0  0  0  0  0
  -24.3202  -11.5317   20.3393 C   0  0  0  0  0  0  0  0  0  0  0  0
  -25.9832  -34.8343   24.7730 C   0  0  0  0  0  0  0  0  0  0  0  0
  -25.8537  -29.8574   20.3700 C   0  0  0  0  0  0  0  0  0  0  0  0
  -26.1659  -33.4791   24.4379 C   0  0  0  0  0  0  0  0  0  0  0  0
  -25.3944  -28.5745   20.7004 C   0  0  0  0  0  0  0  0  0  0  0  0
  -29.0325  -18.3914   16.9028 C   0  0  0  0  0  0  0  0  0  0  0  0
  -29.3426  -21.0234   17.7740 C   0  0  0  0  0  0  0  0  0  0  0  0
  -30.3992  -20.3694   17.1402 C   0  0  0  0  0  0  0  0  0  0  0  0
  -21.8264  -14.1319   24.0936 C   0  0  0  0  0  0  0  0  0  0  0  0
  -27.6130  -27.6813   20.2646 C   0  0  0  0  0  0  0  0  0  0  0  0
  -20.2963  -13.7073   25.8258 C   0  0  0  0  0  0  0  0  0  0  0  0
  -18.9622  -11.8689   27.4455 C   0  0  0  0  0  0  0  0  0  0  0  0
  -20.4543  -13.7546   27.2109 C   0  0  0  0  0  0  0  0  0  0  0  0
  -24.5275  -12.6173   21.2113 C   0  0  0  0  0  0  0  0  0  0  0  0
  -25.4833  -11.4472   19.6136 C   0  0  0  0  0  0  0  0  0  0  0  0
  -23.1783  -10.6764   20.1978 C   0  0  0  0  0  0  0  0  0  0  0  0
  -24.0652  -30.9422   22.7633 C   0  0  0  0  0  0  0  0  0  0  0  0
  -28.9111  -24.4561   19.2274 C   0  0  0  0  0  0  0  0  0  0  0  0
  -21.6917  -29.4114   21.1678 C   0  0  0  0  0  0  0  0  0  0  0  0
  -20.7902  -26.9640   18.9668 C   0  0  0  0  0  0  0  0  0  0  0  0
  -29.7058  -15.4493   18.1978 C   0  0  0  0  0  0  0  0  0  0  0  0
  -24.6530  -35.3612   25.2500 C   0  0  0  0  0  0  0  0  0  0  0  0
  -24.9142  -31.0318   20.3911 C   0  0  0  0  0  0  0  0  0  0  0  0
  -23.9685  -28.3256   21.1170 C   0  0  0  0  0  0  0  0  0  0  0  0
  -23.4798  -34.4425   24.9190 C   0  0  0  0  0  0  0  0  0  0  0  0
  -30.1673  -12.3710   19.9264 C   0  0  0  0  0  0  0  0  0  0  0  0
  -23.8170  -32.9974   25.2726 C   0  0  0  0  0  0  0  0  0  0  0  0
  -28.7555  -11.9871   20.3730 C   0  0  0  0  0  0  0  0  0  0  0  0
  -30.3882  -13.8807   19.9895 C   0  0  0  0  0  0  0  0  0  0  0  0
  -27.9759  -14.3001   19.7089 C   0  0  0  0  0  0  0  0  0  0  0  0
  -25.0158  -32.4957   24.4585 C   0  0  1  0  0  0  0  0  0  0  0  0
  -23.7132  -30.8197   21.3077 C   0  0  1  0  0  0  0  0  0  0  0  0
  -27.6873  -12.7925   19.6091 C   0  0  2  0  0  0  0  0  0  0  0  0
  -27.7440  -16.8268   15.4016 C   0  0  0  0  0  0  0  0  0  0  0  0
  -18.7740  -25.9284   17.8897 C   0  0  0  0  0  0  0  0  0  0  0  0
  -21.0546  -27.9512   23.7701 C   0  0  0  0  0  0  0  0  0  0  0  0
  -19.7266  -26.2997   22.4368 C   0  0  0  0  0  0  0  0  0  0  0  0
  -19.0497  -28.7003   22.4763 C   0  0  0  0  0  0  0  0  0  0  0  0
  -21.7212  -27.6931   16.2537 C   0  0  0  0  0  0  0  0  0  0  0  0
  -28.4270  -23.0647   18.8787 C   0  0  0  0  0  0  0  0  0  0  0  0
  -27.9011  -25.3449   19.9269 C   0  0  0  0  0  0  0  0  0  1  0  0
  -28.8667  -16.9842   16.4374 C   0  0  2  0  0  0  0  0  0  0  0  0
  -21.1158  -28.0161   21.1897 C   0  0  1  0  0  0  0  0  0  0  0  0
  -19.8636  -26.9820   17.7645 C   0  0  2  0  0  0  0  0  0  0  0  0
  -20.2641  -27.7465   22.4623 C   0  0  0  0  0  0  0  0  0  0  0  0
  -25.7280  -13.1817   21.0556 N   0  0  0  0  0  0  0  0  0  0  0  0
  -26.2855  -12.4480   20.0773 N   0  0  0  0  0  0  0  0  0  0  0  0
  -23.0900  -29.5069   21.1281 N   0  0  0  0  0  0  0  0  0  0  0  0
  -29.3425  -14.5857   19.2443 N   0  0  0  0  0  0  0  0  0  0  0  0
  -31.6349  -21.0210   16.9305 N   0  0  0  0  0  0  0  0  0  0  0  0
  -25.8879  -10.6151   18.6306 N   0  0  0  0  0  0  0  0  0  0  0  0
  -22.0679  -10.9023   21.0225 N   0  0  0  0  0  0  0  0  0  0  0  0
  -29.4755  -22.3317   18.2165 N   0  0  0  0  0  0  0  0  0  0  0  0
  -24.6080  -32.1647   23.1099 N   0  0  0  0  0  0  0  0  0  0  0  0
  -20.3854  -27.8562   19.9370 N   0  0  0  0  0  0  0  0  0  0  0  0
  -28.6530  -16.0726   17.5393 N   0  0  0  0  0  0  0  0  0  0  0  0
  -20.6314  -26.7178   16.5148 N   0  3  0  0  0  0  0  0  0  0  0  0
  -23.1499   -9.7291   19.3759 O   0  0  0  0  0  0  0  0  0  0  0  0
  -23.8581  -29.9980   23.5165 O   0  0  0  0  0  0  0  0  0  0  0  0
  -30.0467  -24.8506   18.9652 O   0  0  0  0  0  0  0  0  0  0  0  0
  -20.9289  -30.3807   21.1780 O   0  0  0  0  0  0  0  0  0  0  0  0
  -21.7726  -26.2290   19.0397 O   0  0  0  0  0  0  0  0  0  0  0  0
  -30.8811  -15.6458   17.8708 O   0  0  0  0  0  0  0  0  0  0  0  0
  -20.9571  -14.6196   25.0205 O   0  0  0  0  0  0  0  0  0  0  0  0
  -28.4663  -26.6222   20.2189 O   0  0  0  0  0  0  0  0  0  1  0  0
  -18.3204  -10.9872   28.2232 F   0  0  0  0  0  0  0  0  0  0  0  0
  -21.2447  -14.6815   27.7693 F   0  0  0  0  0  0  0  0  0  0  0  0
  1  2  1  0  0  0  0
  1  5  2  0  0  0  0
  2  6  2  0  0  0  0
  3 10  2  0  0  0  0
  3 18  1  0  0  0  0
  4 11  1  0  0  0  0
  4 18  2  0  0  0  0
  5 20  1  0  0  0  0
  6 22  1  0  0  0  0
  7 12  2  0  0  0  0
  7 21  1  0  0  0  0
  8  9  2  0  0  0  0
  8 24  1  0  0  0  0
  9 25  1  0  0  0  0
 10 27  1  0  0  0  0
 11 27  2  0  0  0  0
 12 28  1  0  0  0  0
 13 14  2  0  0  0  0
 13 29  1  0  0  0  0
 14 30  1  0  0  0  0
 15 23  1  0  0  0  0
 15 28  2  0  0  0  0
 16 24  2  0  0  0  0
 16 26  1  0  0  0  0
 17 30  2  0  0  0  0
 17 31  1  0  0  0  0
 18 32  1  0  0  0  0
 19 32  1  0  0  0  0
 19 33  2  0  0  0  0
 19 34  1  0  0  0  0
 20 22  2  0  0  0  0
 20 40  1  0  0  0  0
 21 23  2  0  0  0  0
 21 41  1  0  0  0  0
 22 49  1  0  0  0  0
 23 42  1  0  0  0  0
 24 60  1  0  0  0  0
 25 26  2  0  0  0  0
 25 71  1  0  0  0  0
 26 68  1  0  0  0  0
 27 82  1  0  0  0  0
 28 83  1  0  0  0  0
 29 31  2  0  0  0  0
 29 82  1  0  0  0  0
 30 84  1  0  0  0  0
 31 85  1  0  0  0  0
 32 64  2  0  0  0  0
 33 65  1  0  0  0  0
 33 69  1  0  0  0  0
 34 70  1  0  0  0  0
 34 76  2  0  0  0  0
 35 50  1  0  0  0  0
 35 72  1  0  0  0  0
 35 77  2  0  0  0  0
 36 58  1  0  0  0  0
 36 59  1  0  0  0  0
 36 78  2  0  0  0  0
 37 61  1  0  0  0  0
 37 66  1  0  0  0  0
 37 79  2  0  0  0  0
 38 62  1  0  0  0  0
 38 73  1  0  0  0  0
 38 80  2  0  0  0  0
 39 67  1  0  0  0  0
 39 74  1  0  0  0  0
 39 81  2  0  0  0  0
 40 43  1  0  0  0  0
 41 50  1  0  0  0  0
 42 66  1  0  0  0  0
 43 45  1  0  0  0  0
 44 46  1  0  0  0  0
 44 47  1  0  0  0  0
 45 49  1  0  0  0  0
 46 51  1  0  0  0  0
 47 67  1  0  0  0  0
 48 51  1  0  0  0  0
 48 67  1  0  0  0  0
 49 72  1  0  0  0  0
 50 66  1  0  0  0  0
 51 65  1  0  0  0  0
 52 60  1  0  0  0  0
 53 62  1  0  0  0  0
 54 63  1  0  0  0  0
 55 63  1  0  0  0  0
 56 63  1  0  0  0  0
 57 75  1  0  0  0  0
 58 71  1  0  0  0  0
 59 83  1  0  0  0  0
 60 74  1  0  0  0  0
 61 63  1  0  0  0  0
 61 73  1  0  0  0  0
 62 75  1  0  0  0  0
 64 65  1  0  0  0  0
M  CHG  1  75   1
M  ISO  4  39 100  59 101  74 100  83 101
M  END
> <Batch ID>
0093

> <Smiles>
CNC(C)C(=O)NC(C(=O)N1Cc2cc([101O:1][101CH2:1]C(=O)CNc3ccc(C(C)[100NH:0][100C:0](=O)N4CCCC(n5nc(-c6ccc(Oc7ccc(F)cc7F)cc6)c(C(N)=O)c5N)C4)cc3N)ccc2CC1C(=O)NC1CCCc2ccccc21)C(C)(C)C

> <Shape>
0.274

> <Color>
0.082

> <Negative vol penalty>
0.000

$$$$

  -OEChem-04052300373D

 88 97  0     1  0  0  0  0  0999 V2000
  -28.7963  -37.0854   22.9828 C   0  0  0  0  0  0  0  0  0  0  0  0
  -29.1337  -35.8215   22.5093 C   0  0  0  0  0  0  0  0  0  0  0  0
  -32.6782  -20.1785   21.1297 C   0  0  0  0  0  0  0  0  0  0  0  0
  -26.9487  -12.8516   20.7657 C   0  0  0  0  0  0  0  0  0  0  0  0
  -26.0976  -13.7915   18.7092 C   0  0  0  0  0  0  0  0  0  0  0  0
  -27.7215  -37.2367   23.8579 C   0  0  0  0  0  0  0  0  0  0  0  0
  -28.3970  -34.7080   22.9114 C   0  0  0  0  0  0  0  0  0  0  0  0
  -27.1001  -29.7466   19.5635 C   0  0  0  0  0  0  0  0  0  0  0  0
  -32.0162  -21.1304   20.3544 C   0  0  0  0  0  0  0  0  0  0  0  0
  -32.1829  -19.8372   22.3883 C   0  0  0  0  0  0  0  0  0  0  0  0
  -26.1871  -11.7021   20.5555 C   0  0  0  0  0  0  0  0  0  0  0  0
  -25.3360  -12.6420   18.4990 C   0  0  0  0  0  0  0  0  0  0  0  0
  -27.6795  -28.4801   19.5001 C   0  0  0  0  0  0  0  0  0  0  0  0
  -24.1898   -8.6690   20.7420 C   0  0  0  0  0  0  0  0  0  0  0  0
  -23.4799   -8.1524   21.8258 C   0  0  0  0  0  0  0  0  0  0  0  0
  -26.0197  -27.6503   21.0414 C   0  0  0  0  0  0  0  0  0  0  0  0
  -29.1082  -23.6441   18.3703 C   0  0  0  0  0  0  0  0  0  0  0  0
  -22.2552  -10.2267   22.0122 C   0  0  0  0  0  0  0  0  0  0  0  0
  -26.9039  -13.8964   19.8425 C   0  0  0  0  0  0  0  0  0  0  0  0
  -29.0070  -15.3235   19.6234 C   0  0  0  0  0  0  0  0  0  0  0  0
  -26.9653  -36.1257   24.2635 C   0  0  0  0  0  0  0  0  0  0  0  0
  -25.9809  -29.9774   20.3761 C   0  0  0  0  0  0  0  0  0  0  0  0
  -27.3119  -34.8444   23.7939 C   0  0  0  0  0  0  0  0  0  0  0  0
  -25.4265  -28.9200   21.1114 C   0  0  0  0  0  0  0  0  0  0  0  0
  -29.3008  -24.6125   19.3862 C   0  0  0  0  0  0  0  0  0  0  0  0
  -30.8590  -21.7412   20.8375 C   0  0  0  0  0  0  0  0  0  0  0  0
  -31.0257  -20.4480   22.8715 C   0  0  0  0  0  0  0  0  0  0  0  0
  -25.3808  -11.5972   19.4222 C   0  0  0  0  0  0  0  0  0  0  0  0
  -27.1411  -27.4324   20.2414 C   0  0  0  0  0  0  0  0  0  0  0  0
  -23.9325   -9.9645   20.2933 C   0  0  0  0  0  0  0  0  0  0  0  0
  -22.5125   -8.9313   22.4609 C   0  0  0  0  0  0  0  0  0  0  0  0
  -22.9652  -10.7433   20.9284 C   0  0  0  0  0  0  0  0  0  0  0  0
  -30.3637  -21.4000   22.0961 C   0  0  0  0  0  0  0  0  0  0  0  0
  -27.6899  -15.0843   20.0593 C   0  0  0  0  0  0  0  0  0  0  0  0
  -29.9778  -23.9986   20.4168 C   0  0  0  0  0  0  0  0  0  0  0  0
  -29.2958  -16.5863   20.0800 C   0  0  0  0  0  0  0  0  0  0  0  0
  -29.6732  -22.4677   18.8111 C   0  0  0  0  0  0  0  0  0  0  0  0
  -29.8903  -14.4798   18.8727 C   0  0  0  0  0  0  0  0  0  0  0  0
  -25.3752  -31.8314   22.8861 C   0  0  0  0  0  0  0  0  0  0  0  0
  -22.3491  -30.7394   22.4707 C   0  0  0  0  0  0  0  0  0  0  0  0
  -20.2887  -28.3038   21.2585 C   0  0  0  0  0  0  0  0  0  0  0  0
  -29.1485  -20.1367   24.5056 C   0  0  0  0  0  0  0  0  0  0  0  0
  -25.8416  -36.3326   25.2480 C   0  0  0  0  0  0  0  0  0  0  0  0
  -25.3514  -31.3430   20.4128 C   0  0  0  0  0  0  0  0  0  0  0  0
  -24.2133  -29.1108   21.9834 C   0  0  0  0  0  0  0  0  0  0  0  0
  -24.8791  -35.1507   25.3310 C   0  0  0  0  0  0  0  0  0  0  0  0
  -26.3470  -20.1555   22.0881 C   0  0  0  0  0  0  0  0  0  0  0  0
  -25.6516  -33.8392   25.4306 C   0  0  0  0  0  0  0  0  0  0  0  0
  -26.5095  -18.8170   21.3701 C   0  0  0  0  0  0  0  0  0  0  0  0
  -26.8814  -20.1007   23.5161 C   0  0  0  0  0  0  0  0  0  0  0  0
  -28.4650  -18.3023   22.8843 C   0  0  0  0  0  0  0  0  0  0  0  0
  -26.5214  -33.6154   24.1876 C   0  0  1  0  0  0  0  0  0  0  0  0
  -24.5248  -31.5863   21.6718 C   0  0  1  0  0  0  0  0  0  0  0  0
  -27.9710  -18.3430   21.4304 C   0  0  1  0  0  0  0  0  0  0  0  0
  -30.4290  -24.5531   21.7131 C   0  0  0  0  0  0  0  0  0  0  0  0
  -31.9217  -21.2690   25.8196 C   0  0  0  0  0  0  0  0  0  0  0  0
  -17.8654  -27.6708   21.1034 C   0  0  0  0  0  0  0  0  0  0  0  0
  -22.3832  -29.8994   25.4038 C   0  0  0  0  0  0  0  0  0  0  0  0
  -20.3847  -28.4633   24.9435 C   0  0  0  0  0  0  0  0  0  0  0  0
  -20.2387  -30.9350   24.6401 C   0  0  0  0  0  0  0  0  0  0  0  0
  -20.3454  -28.3538   18.3000 C   0  0  0  0  0  0  0  0  0  0  0  0
  -28.8467  -26.0418   19.3395 C   0  0  0  0  0  0  0  0  0  1  0  0
  -31.4755  -19.9318   25.2635 C   0  0  0  0  0  0  0  0  0  0  0  0
  -21.5592  -29.5584   22.9808 C   0  0  1  0  0  0  0  0  0  0  0  0
  -19.0253  -28.3783   20.4202 C   0  0  2  0  0  0  0  0  0  0  0  0
  -21.1655  -29.7105   24.4772 C   0  0  0  0  0  0  0  0  0  0  0  0
  -27.1776  -16.1125   20.7407 N   0  0  0  0  0  0  0  0  0  0  0  0
  -30.1985  -22.6949   20.0563 N   0  0  0  0  0  0  0  0  0  0  0  0
  -28.1778  -17.0100   20.7365 N   0  0  0  0  0  0  0  0  0  0  0  0
  -23.6377  -30.4658   21.9908 N   0  0  0  0  0  0  0  0  0  0  0  0
  -28.2527  -19.5910   23.5633 N   0  0  0  0  0  0  0  0  0  0  0  0
  -30.3944  -17.3644   19.9801 N   0  0  0  0  0  0  0  0  0  0  0  0
  -29.4340  -13.2130   18.4835 N   0  0  0  0  0  0  0  0  0  0  0  0
  -25.7110  -33.1578   23.0794 N   0  0  0  0  0  0  0  0  0  0  0  0
  -20.4243  -29.4052   22.0769 N   0  0  0  0  0  0  0  0  0  0  0  0
  -30.5160  -20.0931   24.1734 N   0  0  0  0  0  0  0  0  0  0  0  0
  -19.2472  -27.7415   19.0913 N   0  3  0  0  0  0  0  0  0  0  0  0
  -31.0557  -14.8320   18.5706 O   0  0  0  0  0  0  0  0  0  0  0  0
  -25.7012  -30.8872   23.5959 O   0  0  0  0  0  0  0  0  0  0  0  0
  -21.8387  -31.8623   22.4904 O   0  0  0  0  0  0  0  0  0  0  0  0
  -21.0746  -27.3609   21.1965 O   0  0  0  0  0  0  0  0  0  0  0  0
  -28.7628  -20.5822   25.5934 O   0  0  0  0  0  0  0  0  0  0  0  0
  -29.7527  -21.2785   18.2260 O   0  0  0  0  0  0  0  0  0  0  0  0
  -24.6377  -10.4756   19.2166 O   0  0  0  0  0  0  0  0  0  0  0  0
  -27.7051  -26.1953   20.1819 O   0  0  0  0  0  0  0  0  0  1  0  0
  -21.8297   -8.4345   23.5007 F   0  0  0  0  0  0  0  0  0  0  0  0
  -22.7128  -11.9881   20.5011 F   0  0  0  0  0  0  0  0  0  0  0  0
  -29.2499  -21.9860   22.5627 F   0  0  0  0  0  0  0  0  0  0  0  0
  1  2  1  0  0  0  0
  1  6  2  0  0  0  0
  2  7  2  0  0  0  0
  3  9  1  0  0  0  0
  3 10  2  0  0  0  0
  4 11  2  0  0  0  0
  4 19  1  0  0  0  0
  5 12  1  0  0  0  0
  5 19  2  0  0  0  0
  6 21  1  0  0  0  0
  7 23  1  0  0  0  0
  8 13  2  0  0  0  0
  8 22  1  0  0  0  0
  9 26  2  0  0  0  0
 10 27  1  0  0  0  0
 11 28  1  0  0  0  0
 12 28  2  0  0  0  0
 13 29  1  0  0  0  0
 14 15  2  0  0  0  0
 14 30  1  0  0  0  0
 15 31  1  0  0  0  0
 16 24  1  0  0  0  0
 16 29  2  0  0  0  0
 17 25  1  0  0  0  0
 17 37  2  0  0  0  0
 18 31  2  0  0  0  0
 18 32  1  0  0  0  0
 19 34  1  0  0  0  0
 20 34  1  0  0  0  0
 20 36  2  0  0  0  0
 20 38  1  0  0  0  0
 21 23  2  0  0  0  0
 21 43  1  0  0  0  0
 22 24  2  0  0  0  0
 22 44  1  0  0  0  0
 23 52  1  0  0  0  0
 24 45  1  0  0  0  0
 25 35  2  0  0  0  0
 25 62  1  0  0  0  0
 26 33  1  0  0  0  0
 26 68  1  0  0  0  0
 27 33  2  0  0  0  0
 27 76  1  0  0  0  0
 28 84  1  0  0  0  0
 29 85  1  0  0  0  0
 30 32  2  0  0  0  0
 30 84  1  0  0  0  0
 31 86  1  0  0  0  0
 32 87  1  0  0  0  0
 33 88  1  0  0  0  0
 34 67  2  0  0  0  0
 35 55  1  0  0  0  0
 35 68  1  0  0  0  0
 36 69  1  0  0  0  0
 36 72  1  0  0  0  0
 37 68  1  0  0  0  0
 37 83  1  0  0  0  0
 38 73  1  0  0  0  0
 38 78  2  0  0  0  0
 39 53  1  0  0  0  0
 39 74  1  0  0  0  0
 39 79  2  0  0  0  0
 40 64  1  0  0  0  0
 40 70  1  0  0  0  0
 40 80  2  0  0  0  0
 41 65  1  0  0  0  0
 41 75  1  0  0  0  0
 41 81  2  0  0  0  0
 42 71  1  0  0  0  0
 42 76  1  0  0  0  0
 42 82  2  0  0  0  0
 43 46  1  0  0  0  0
 44 53  1  0  0  0  0
 45 70  1  0  0  0  0
 46 48  1  0  0  0  0
 47 49  1  0  0  0  0
 47 50  1  0  0  0  0
 48 52  1  0  0  0  0
 49 54  1  0  0  0  0
 50 71  1  0  0  0  0
 51 54  1  0  0  0  0
 51 71  1  0  0  0  0
 52 74  1  0  0  0  0
 53 70  1  0  0  0  0
 54 69  1  0  0  0  0
 56 63  1  0  0  0  0
 57 65  1  0  0  0  0
 58 66  1  0  0  0  0
 59 66  1  0  0  0  0
 60 66  1  0  0  0  0
 61 77  1  0  0  0  0
 62 85  1  0  0  0  0
 63 76  1  0  0  0  0
 64 66  1  0  0  0  0
 64 75  1  0  0  0  0
 65 77  1  0  0  0  0
 67 69  1  0  0  0  0
M  CHG  1  77   1
M  ISO  4  42 100  62 101  76 100  85 101
M  END
> <Batch ID>
0093

> <Smiles>
CC[100N:0](c1cccc(N2C(=O)CC([101CH2:1][101O:1]c3ccc4c(c3)CN(C(=O)C(NC(=O)C(C)NC)C(C)(C)C)C(C(=O)NC3CCCc5ccccc53)C4)=C2C)c1F)[100C:0](=O)N1CCCC(n2nc(-c3ccc(Oc4ccc(F)cc4F)cc3)c(C(N)=O)c2N)C1

> <Shape>
0.293

> <Color>
0.089

> <Negative vol penalty>
0.000

$$$$

  -OEChem-04052300373D

 86 95  0     1  0  0  0  0  0999 V2000
  -30.3796  -32.1183   28.6897 C   0  0  0  0  0  0  0  0  0  0  0  0
  -30.3077  -32.2050   27.3031 C   0  0  0  0  0  0  0  0  0  0  0  0
  -23.0073   -9.8945   19.9682 C   0  0  0  0  0  0  0  0  0  0  0  0
  -23.6302   -9.9561   22.3017 C   0  0  0  0  0  0  0  0  0  0  0  0
  -31.3653  -31.3344   29.2879 C   0  0  0  0  0  0  0  0  0  0  0  0
  -31.2222  -31.5085   26.5138 C   0  0  0  0  0  0  0  0  0  0  0  0
  -31.2222  -18.3652   20.6909 C   0  0  0  0  0  0  0  0  0  0  0  0
  -29.1569  -17.8721   21.8437 C   0  0  0  0  0  0  0  0  0  0  0  0
  -29.0035  -26.6566   21.6735 C   0  0  0  0  0  0  0  0  0  0  0  0
  -30.5851  -19.3866   19.9864 C   0  0  0  0  0  0  0  0  0  0  0  0
  -28.5198  -18.8936   21.1392 C   0  0  0  0  0  0  0  0  0  0  0  0
  -22.2039   -8.7806   20.2120 C   0  0  0  0  0  0  0  0  0  0  0  0
  -22.8267   -8.8423   22.5456 C   0  0  0  0  0  0  0  0  0  0  0  0
  -28.6478  -25.8674   20.5796 C   0  0  0  0  0  0  0  0  0  0  0  0
  -23.0154   -5.4934   22.1207 C   0  0  0  0  0  0  0  0  0  0  0  0
  -23.5455   -4.4722   22.9092 C   0  0  0  0  0  0  0  0  0  0  0  0
  -30.9815  -25.4232   20.1276 C   0  0  0  0  0  0  0  0  0  0  0  0
  -21.7548   -4.7732   24.5029 C   0  0  0  0  0  0  0  0  0  0  0  0
  -23.7205  -10.4822   21.0130 C   0  0  0  0  0  0  0  0  0  0  0  0
  -24.1706  -12.9864   20.8276 C   0  0  0  0  0  0  0  0  0  0  0  0
  -30.5081  -17.6079   21.6195 C   0  0  0  0  0  0  0  0  0  0  0  0
  -32.2863  -30.6202   28.5053 C   0  0  0  0  0  0  0  0  0  0  0  0
  -30.3506  -26.8198   22.0083 C   0  0  0  0  0  0  0  0  0  0  0  0
  -32.2219  -30.7153   27.1020 C   0  0  0  0  0  0  0  0  0  0  0  0
  -31.3433  -26.2024   21.2298 C   0  0  0  0  0  0  0  0  0  0  0  0
  -29.2339  -19.6509   20.2105 C   0  0  0  0  0  0  0  0  0  0  0  0
  -22.1136   -8.2545   21.5007 C   0  0  0  0  0  0  0  0  0  0  0  0
  -29.6344  -25.2525   19.8084 C   0  0  0  0  0  0  0  0  0  0  0  0
  -21.8551   -6.1546   22.5233 C   0  0  0  0  0  0  0  0  0  0  0  0
  -22.9152   -4.1120   24.1002 C   0  0  0  0  0  0  0  0  0  0  0  0
  -21.2247   -5.7944   23.7144 C   0  0  0  0  0  0  0  0  0  0  0  0
  -24.5509  -11.6325   20.7616 C   0  0  0  0  0  0  0  0  0  0  0  0
  -25.3117  -13.6796   20.5055 C   0  0  0  0  0  0  0  0  0  0  0  0
  -22.8995  -13.5655   21.1511 C   0  0  0  0  0  0  0  0  0  0  0  0
  -32.8633  -28.3511   24.3358 C   0  0  0  0  0  0  0  0  0  0  0  0
  -33.8321  -25.5050   23.7261 C   0  0  0  0  0  0  0  0  0  0  0  0
  -29.1428  -21.5345   18.5410 C   0  0  0  0  0  0  0  0  0  0  0  0
  -34.3281  -22.1817   23.1371 C   0  0  0  0  0  0  0  0  0  0  0  0
  -30.7534  -14.5232   20.9198 C   0  0  0  0  0  0  0  0  0  0  0  0
  -33.3635  -29.8235   29.1978 C   0  0  0  0  0  0  0  0  0  0  0  0
  -30.7826  -27.7107   23.1412 C   0  0  0  0  0  0  0  0  0  0  0  0
  -32.7811  -26.4341   21.6065 C   0  0  0  0  0  0  0  0  0  0  0  0
  -34.0608  -28.8190   28.2841 C   0  0  0  0  0  0  0  0  0  0  0  0
  -31.1330  -15.2791   24.4459 C   0  0  0  0  0  0  0  0  0  0  0  0
  -29.7168  -12.1097   18.6111 C   0  0  0  0  0  0  0  0  0  0  0  0
  -31.1262  -16.7023   23.9024 C   0  0  0  0  0  0  0  0  0  0  0  0
  -34.4309  -29.4724   26.9564 C   0  0  0  0  0  0  0  0  0  0  0  0
  -28.2539  -11.8573   18.9707 C   0  0  0  0  0  0  0  0  0  0  0  0
  -30.5602  -12.2936   19.8665 C   0  0  0  0  0  0  0  0  0  0  0  0
  -30.2961  -14.5241   23.4250 C   0  0  0  0  0  0  0  0  0  0  0  0
  -28.6142  -13.1724   21.1209 C   0  0  0  0  0  0  0  0  0  0  0  0
  -31.1987  -16.5007   22.3831 C   0  0  1  0  0  0  0  0  0  0  0  0
  -33.1805  -29.9549   26.2114 C   0  0  1  0  0  0  0  0  0  0  0  0
  -32.0311  -27.1904   23.8758 C   0  0  1  0  0  0  0  0  0  0  0  0
  -27.7159  -12.9720   19.8832 C   0  0  2  0  0  0  0  0  0  0  0  0
  -35.9130  -20.3052   23.6513 C   0  0  0  0  0  0  0  0  0  0  0  0
  -35.8208  -26.6369   21.7093 C   0  0  0  0  0  0  0  0  0  0  0  0
  -36.8499  -24.3599   21.5530 C   0  0  0  0  0  0  0  0  0  0  0  0
  -36.8628  -25.5861   23.7253 C   0  0  0  0  0  0  0  0  0  0  0  0
  -32.2170  -20.6173   24.4990 C   0  0  0  0  0  0  0  0  0  0  0  0
  -28.0942  -22.5103   18.0190 C   0  0  0  0  0  0  0  0  0  0  0  0
  -28.0278  -23.8014   18.8207 C   0  0  0  0  0  0  0  0  0  1  0  0
  -34.6925  -24.6199   22.8603 C   0  0  1  0  0  0  0  0  0  0  0  0
  -34.6435  -21.0287   24.0729 C   0  0  2  0  0  0  0  0  0  0  0  0
  -36.0288  -25.3045   22.4565 C   0  0  0  0  0  0  0  0  0  0  0  0
  -25.8334  -11.4731   20.4240 N   0  0  0  0  0  0  0  0  0  0  0  0
  -26.2688  -12.7357   20.2749 N   0  0  0  0  0  0  0  0  0  0  0  0
  -32.9365  -26.3562   23.0675 N   0  0  0  0  0  0  0  0  0  0  0  0
  -30.0185  -13.3467   20.7262 N   0  0  0  0  0  0  0  0  0  0  0  0
  -30.6137  -15.1711   22.1506 N   0  0  0  0  0  0  0  0  0  0  0  0
  -25.5798  -14.9985   20.3999 N   0  0  0  0  0  0  0  0  0  0  0  0
  -21.8335  -12.7087   21.4575 N   0  0  0  0  0  0  0  0  0  0  0  0
  -28.5965  -20.6727   19.5062 N   0  0  0  0  0  0  0  0  0  0  0  0
  -32.5080  -28.8408   25.5781 N   0  0  0  0  0  0  0  0  0  0  0  0
  -34.8593  -23.3696   23.5933 N   0  0  0  0  0  0  0  0  0  0  0  0
  -33.5230  -20.0462   24.0802 N   0  3  0  0  0  0  0  0  0  0  0  0
  -22.7103  -14.8055   21.1520 O   0  0  0  0  0  0  0  0  0  0  0  0
  -33.7631  -28.7714   23.6179 O   0  0  0  0  0  0  0  0  0  0  0  0
  -33.9527  -25.4493   24.9532 O   0  0  0  0  0  0  0  0  0  0  0  0
  -30.3009  -21.5433   18.1373 O   0  0  0  0  0  0  0  0  0  0  0  0
  -33.6790  -22.0418   22.1030 O   0  0  0  0  0  0  0  0  0  0  0  0
  -31.5129  -14.9621   20.0466 O   0  0  0  0  0  0  0  0  0  0  0  0
  -21.3296   -7.1677   21.7391 O   0  0  0  0  0  0  0  0  0  0  0  0
  -29.2774  -24.4742   18.7369 O   0  0  0  0  0  0  0  0  0  1  0  0
  -23.4235   -3.1303   24.8565 F   0  0  0  0  0  0  0  0  0  0  0  0
  -20.1090   -6.4252   24.1058 F   0  0  0  0  0  0  0  0  0  0  0  0
  1  2  1  0  0  0  0
  1  5  2  0  0  0  0
  2  6  2  0  0  0  0
  3 12  2  0  0  0  0
  3 19  1  0  0  0  0
  4 13  1  0  0  0  0
  4 19  2  0  0  0  0
  5 22  1  0  0  0  0
  6 24  1  0  0  0  0
  7 10  2  0  0  0  0
  7 21  1  0  0  0  0
  8 11  1  0  0  0  0
  8 21  2  0  0  0  0
  9 14  2  0  0  0  0
  9 23  1  0  0  0  0
 10 26  1  0  0  0  0
 11 26  2  0  0  0  0
 12 27  1  0  0  0  0
 13 27  2  0  0  0  0
 14 28  1  0  0  0  0
 15 16  2  0  0  0  0
 15 29  1  0  0  0  0
 16 30  1  0  0  0  0
 17 25  1  0  0  0  0
 17 28  2  0  0  0  0
 18 30  2  0  0  0  0
 18 31  1  0  0  0  0
 19 32  1  0  0  0  0
 20 32  1  0  0  0  0
 20 33  2  0  0  0  0
 20 34  1  0  0  0  0
 21 52  1  0  0  0  0
 22 24  2  0  0  0  0
 22 40  1  0  0  0  0
 23 25  2  0  0  0  0
 23 41  1  0  0  0  0
 24 53  1  0  0  0  0
 25 42  1  0  0  0  0
 26 73  1  0  0  0  0
 27 83  1  0  0  0  0
 28 84  1  0  0  0  0
 29 31  2  0  0  0  0
 29 83  1  0  0  0  0
 30 85  1  0  0  0  0
 31 86  1  0  0  0  0
 32 66  2  0  0  0  0
 33 67  1  0  0  0  0
 33 71  1  0  0  0  0
 34 72  1  0  0  0  0
 34 77  2  0  0  0  0
 35 54  1  0  0  0  0
 35 74  1  0  0  0  0
 35 78  2  0  0  0  0
 36 63  1  0  0  0  0
 36 68  1  0  0  0  0
 36 79  2  0  0  0  0
 37 61  1  0  0  0  0
 37 73  1  0  0  0  0
 37 80  2  0  0  0  0
 38 64  1  0  0  0  0
 38 75  1  0  0  0  0
 38 81  2  0  0  0  0
 39 69  1  0  0  0  0
 39 70  1  0  0  0  0
 39 82  2  0  0  0  0
 40 43  1  0  0  0  0
 41 54  1  0  0  0  0
 42 68  1  0  0  0  0
 43 47  1  0  0  0  0
 44 46  1  0  0  0  0
 44 50  1  0  0  0  0
 45 48  1  0  0  0  0
 45 49  1  0  0  0  0
 46 52  1  0  0  0  0
 47 53  1  0  0  0  0
 48 55  1  0  0  0  0
 49 69  1  0  0  0  0
 50 70  1  0  0  0  0
 51 55  1  0  0  0  0
 51 69  1  0  0  0  0
 52 70  1  0  0  0  0
 53 74  1  0  0  0  0
 54 68  1  0  0  0  0
 55 67  1  0  0  0  0
 56 64  1  0  0  0  0
 57 65  1  0  0  0  0
 58 65  1  0  0  0  0
 59 65  1  0  0  0  0
 60 76  1  0  0  0  0
 61 62  1  0  0  0  0
 62 84  1  0  0  0  0
 63 65  1  0  0  0  0
 63 75  1  0  0  0  0
 64 76  1  0  0  0  0
 66 67  1  0  0  0  0
M  CHG  1  76   1
M  ISO  4  39 100  62 101  70 100  84 101
M  END
> <Batch ID>
0093

> <Smiles>
CNC(C)C(=O)NC(C(=O)N1Cc2cc([101O:1][101CH2:1]CC(=O)Nc3ccc(C4CCC[100N:0]4[100C:0](=O)N4CCCC(n5nc(-c6ccc(Oc7ccc(F)cc7F)cc6)c(C(N)=O)c5N)C4)cc3)ccc2CC1C(=O)NC1CCCc2ccccc21)C(C)(C)C

> <Shape>
0.251

> <Color>
0.198

> <Negative vol penalty>
0.000

$$$$

  -OEChem-04052300373D

 84 92  0     1  0  0  0  0  0999 V2000
  -27.1861  -23.8544   17.1659 C   0  0  0  0  0  0  0  0  0  0  0  0
  -26.0201  -24.2861   17.7900 C   0  0  0  0  0  0  0  0  0  0  0  0
  -28.5009  -19.0381   20.5119 C   0  0  0  0  0  0  0  0  0  0  0  0
  -27.2075  -17.4771   21.8262 C   0  0  0  0  0  0  0  0  0  0  0  0
  -28.4280  -24.1791   17.7103 C   0  0  0  0  0  0  0  0  0  0  0  0
  -26.0953  -25.0418   18.9595 C   0  0  0  0  0  0  0  0  0  0  0  0
  -22.9470  -29.0081   18.9153 C   0  0  0  0  0  0  0  0  0  0  0  0
  -29.4014  -18.0222   20.1915 C   0  0  0  0  0  0  0  0  0  0  0  0
  -28.1079  -16.4612   21.5058 C   0  0  0  0  0  0  0  0  0  0  0  0
  -21.6005  -28.7552   19.1738 C   0  0  0  0  0  0  0  0  0  0  0  0
  -29.8675  -13.3732   20.7401 C   0  0  0  0  0  0  0  0  0  0  0  0
  -29.3439  -12.1367   20.3625 C   0  0  0  0  0  0  0  0  0  0  0  0
  -20.2785  -23.0184   24.3998 C   0  0  0  0  0  0  0  0  0  0  0  0
  -22.0093  -24.7037   24.3802 C   0  0  0  0  0  0  0  0  0  0  0  0
  -21.9053  -29.4929   21.4502 C   0  0  0  0  0  0  0  0  0  0  0  0
  -28.2093  -13.1846   18.5047 C   0  0  0  0  0  0  0  0  0  0  0  0
  -27.4040  -18.7656   21.3293 C   0  0  0  0  0  0  0  0  0  0  0  0
  -21.4596  -23.5431   24.9244 C   0  0  0  0  0  0  0  0  0  0  0  0
  -25.3136  -20.1781   20.9513 C   0  0  0  0  0  0  0  0  0  0  0  0
  -28.5186  -24.9473   18.8817 C   0  0  0  0  0  0  0  0  0  0  0  0
  -23.7866  -29.4959   19.9269 C   0  0  0  0  0  0  0  0  0  0  0  0
  -27.3395  -25.3759   19.5207 C   0  0  0  0  0  0  0  0  0  0  0  0
  -23.2615  -29.7536   21.2012 C   0  0  0  0  0  0  0  0  0  0  0  0
  -19.6471  -23.6543   23.3308 C   0  0  0  0  0  0  0  0  0  0  0  0
  -21.3780  -25.3397   23.3112 C   0  0  0  0  0  0  0  0  0  0  0  0
  -29.2049  -16.7337   20.6884 C   0  0  0  0  0  0  0  0  0  0  0  0
  -21.0802  -28.9948   20.4422 C   0  0  0  0  0  0  0  0  0  0  0  0
  -29.5620  -14.5154   20.0001 C   0  0  0  0  0  0  0  0  0  0  0  0
  -20.1969  -24.8150   22.7865 C   0  0  0  0  0  0  0  0  0  0  0  0
  -28.5148  -12.0424   19.2448 C   0  0  0  0  0  0  0  0  0  0  0  0
  -28.7329  -14.4211   18.8823 C   0  0  0  0  0  0  0  0  0  0  0  0
  -26.4737  -19.8147   21.6611 C   0  0  0  0  0  0  0  0  0  0  0  0
  -24.7837  -21.2214   21.6704 C   0  0  0  0  0  0  0  0  0  0  0  0
  -22.1170  -22.8808   26.0397 C   0  0  0  0  0  0  0  0  0  0  0  0
  -24.7640  -19.6221   19.7493 C   0  0  0  0  0  0  0  0  0  0  0  0
  -23.3719  -23.4113   26.6204 C   0  0  0  0  0  0  0  0  0  0  0  0
  -26.3932  -28.4180   21.3924 C   0  0  0  0  0  0  0  0  0  0  0  0
  -26.3611  -31.3555   22.7680 C   0  0  0  0  0  0  0  0  0  0  0  0
  -24.5598  -34.1044   23.6878 C   0  0  0  0  0  0  0  0  0  0  0  0
  -29.8825  -25.2331   19.4587 C   0  0  0  0  0  0  0  0  0  0  0  0
  -25.2307  -29.7888   19.6246 C   0  0  0  0  0  0  0  0  0  0  0  0
  -24.1162  -30.2963   22.3163 C   0  0  0  0  0  0  0  0  0  0  0  0
  -29.8829  -26.3549   20.4940 C   0  0  0  0  0  0  0  0  0  0  0  0
  -26.7208  -23.9453   25.4558 C   0  0  0  0  0  0  0  0  0  0  0  0
  -28.7393  -26.1665   21.4857 C   0  0  0  0  0  0  0  0  0  0  0  0
  -26.8715  -22.9204   24.3321 C   0  0  0  0  0  0  0  0  0  0  0  0
  -25.8350  -23.4161   26.5790 C   0  0  0  0  0  0  0  0  0  0  0  0
  -24.6307  -21.9375   24.9941 C   0  0  0  0  0  0  0  0  0  0  0  0
  -27.3804  -26.2185   20.7771 C   0  0  1  0  0  0  0  0  0  0  0  0
  -26.1118  -29.7984   20.8699 C   0  0  1  0  0  0  0  0  0  0  0  0
  -25.4964  -22.4470   23.8285 C   0  0  2  0  0  0  0  0  0  0  0  0
  -18.3843  -23.0759   22.7820 C   0  0  0  0  0  0  0  0  0  0  0  0
  -24.8014  -36.3269   24.8278 C   0  0  0  0  0  0  0  0  0  0  0  0
  -26.4778  -29.9518   25.4746 C   0  0  0  0  0  0  0  0  0  0  0  0
  -25.7664  -32.1018   26.5421 C   0  0  0  0  0  0  0  0  0  0  0  0
  -27.9215  -31.9856   25.2912 C   0  0  0  0  0  0  0  0  0  0  0  0
  -23.7023  -35.5712   21.2645 C   0  0  0  0  0  0  0  0  0  0  0  0
  -18.0556  -27.0491   20.7880 C   0  0  0  0  0  0  0  0  0  0  0  0
  -19.1452  -27.7020   19.9519 C   0  0  0  0  0  0  0  0  0  1  0  0
  -18.6097  -26.4310   22.0620 C   0  0  0  0  0  0  0  0  0  0  0  0
  -25.7416  -31.9473   24.0110 C   0  0  1  0  0  0  0  0  0  0  0  0
  -24.8191  -35.5881   23.4986 C   0  0  2  0  0  0  0  0  0  0  0  0
  -26.4609  -31.4845   25.3095 C   0  0  0  0  0  0  0  0  0  0  0  0
  -26.6700  -20.5662   22.7477 N   0  0  0  0  0  0  0  0  0  0  0  0
  -21.6578  -21.7944   26.5999 N   0  0  0  0  0  0  0  0  0  0  0  0
  -25.6260  -21.4123   22.7260 N   0  0  0  0  0  0  0  0  0  0  0  0
  -24.5527  -22.9420   26.0622 N   0  0  0  0  0  0  0  0  0  0  0  0
  -25.5233  -30.5607   21.9730 N   0  0  0  0  0  0  0  0  0  0  0  0
  -21.9473  -26.5137   22.7705 N   0  0  0  0  0  0  0  0  0  0  0  0
  -23.6841  -21.9850   21.4964 N   0  0  0  0  0  0  0  0  0  0  0  0
  -25.4354  -18.5536   19.1396 N   0  0  0  0  0  0  0  0  0  0  0  0
  -27.0170  -27.5877   20.4809 N   0  0  0  0  0  0  0  0  0  0  0  0
  -25.7341  -33.3929   23.8148 N   0  0  0  0  0  0  0  0  0  0  0  0
  -23.7798  -36.1870   22.6142 N   0  3  0  0  0  0  0  0  0  0  0  0
  -23.7178  -20.0707   19.2224 O   0  0  0  0  0  0  0  0  0  0  0  0
  -23.2323  -24.2112   27.5363 O   0  0  0  0  0  0  0  0  0  0  0  0
  -26.0698  -28.1281   22.5383 O   0  0  0  0  0  0  0  0  0  0  0  0
  -27.5428  -31.5957   22.5081 O   0  0  0  0  0  0  0  0  0  0  0  0
  -23.4287  -33.6251   23.7233 O   0  0  0  0  0  0  0  0  0  0  0  0
  -30.0833  -15.7421   20.3758 O   0  0  0  0  0  0  0  0  0  0  0  0
  -19.7664  -28.7482   20.6975 O   0  0  0  0  0  0  0  0  0  1  0  0
  -19.5735  -25.4384   21.7371 O   0  0  0  0  0  0  0  0  0  0  0  0
  -28.0133  -10.8547   18.8814 F   0  0  0  0  0  0  0  0  0  0  0  0
  -28.4368  -15.5147   18.1667 F   0  0  0  0  0  0  0  0  0  0  0  0
  1  2  1  0  0  0  0
  1  5  2  0  0  0  0
  2  6  2  0  0  0  0
  3  8  2  0  0  0  0
  3 17  1  0  0  0  0
  4  9  1  0  0  0  0
  4 17  2  0  0  0  0
  5 20  1  0  0  0  0
  6 22  1  0  0  0  0
  7 10  2  0  0  0  0
  7 21  1  0  0  0  0
  8 26  1  0  0  0  0
  9 26  2  0  0  0  0
 10 27  1  0  0  0  0
 11 12  2  0  0  0  0
 11 28  1  0  0  0  0
 12 30  1  0  0  0  0
 13 18  1  0  0  0  0
 13 24  2  0  0  0  0
 14 18  2  0  0  0  0
 14 25  1  0  0  0  0
 15 23  1  0  0  0  0
 15 27  2  0  0  0  0
 16 30  2  0  0  0  0
 16 31  1  0  0  0  0
 17 32  1  0  0  0  0
 18 34  1  0  0  0  0
 19 32  1  0  0  0  0
 19 33  2  0  0  0  0
 19 35  1  0  0  0  0
 20 22  2  0  0  0  0
 20 40  1  0  0  0  0
 21 23  2  0  0  0  0
 21 41  1  0  0  0  0
 22 49  1  0  0  0  0
 23 42  1  0  0  0  0
 24 29  1  0  0  0  0
 24 52  1  0  0  0  0
 25 29  2  0  0  0  0
 25 69  1  0  0  0  0
 26 80  1  0  0  0  0
 27 81  1  0  0  0  0
 28 31  2  0  0  0  0
 28 80  1  0  0  0  0
 29 82  1  0  0  0  0
 30 83  1  0  0  0  0
 31 84  1  0  0  0  0
 32 64  2  0  0  0  0
 33 66  1  0  0  0  0
 33 70  1  0  0  0  0
 34 36  1  0  0  0  0
 34 65  2  0  0  0  0
 35 71  1  0  0  0  0
 35 75  2  0  0  0  0
 36 67  1  0  0  0  0
 36 76  2  0  0  0  0
 37 50  1  0  0  0  0
 37 72  1  0  0  0  0
 37 77  2  0  0  0  0
 38 61  1  0  0  0  0
 38 68  1  0  0  0  0
 38 78  2  0  0  0  0
 39 62  1  0  0  0  0
 39 73  1  0  0  0  0
 39 79  2  0  0  0  0
 40 43  1  0  0  0  0
 41 50  1  0  0  0  0
 42 68  1  0  0  0  0
 43 45  1  0  0  0  0
 44 46  1  0  0  0  0
 44 47  1  0  0  0  0
 45 49  1  0  0  0  0
 46 51  1  0  0  0  0
 47 67  1  0  0  0  0
 48 51  1  0  0  0  0
 48 67  1  0  0  0  0
 49 72  1  0  0  0  0
 50 68  1  0  0  0  0
 51 66  1  0  0  0  0
 53 62  1  0  0  0  0
 54 63  1  0  0  0  0
 55 63  1  0  0  0  0
 56 63  1  0  0  0  0
 57 74  1  0  0  0  0
 58 59  1  0  0  0  0
 58 60  1  0  0  0  0
 59 81  1  0  0  0  0
 60 82  1  0  0  0  0
 61 63  1  0  0  0  0
 61 73  1  0  0  0  0
 62 74  1  0  0  0  0
 64 66  1  0  0  0  0
M  CHG  1  74   1
M  ISO  4  34 100  36 100  59 101  81 101
M  END
> <Batch ID>
0093

> <Smiles>
CNC(C)C(=O)NC(C(=O)N1Cc2cc([101O:1][101CH2:1]CCOc3c(C)cc([100C:0](=N)[100C:0](=O)N4CCCC(n5nc(-c6ccc(Oc7ccc(F)cc7F)cc6)c(C(N)=O)c5N)C4)cc3N)ccc2CC1C(=O)NC1CCCc2ccccc21)C(C)(C)C

> <Shape>
0.263

> <Color>
0.063

> <Negative vol penalty>
0.000

$$$$

  -OEChem-04052300373D

 87 95  0     1  0  0  0  0  0999 V2000
  -18.1124  -32.3466   20.8888 C   0  0  0  0  0  0  0  0  0  0  0  0
  -19.4384  -32.2603   20.4767 C   0  0  0  0  0  0  0  0  0  0  0  0
  -25.0417  -14.4404   21.1200 C   0  0  0  0  0  0  0  0  0  0  0  0
  -26.0207  -12.3325   20.4603 C   0  0  0  0  0  0  0  0  0  0  0  0
  -17.6977  -31.6828   22.0426 C   0  0  0  0  0  0  0  0  0  0  0  0
  -20.3506  -31.5110   21.2188 C   0  0  0  0  0  0  0  0  0  0  0  0
  -25.0603  -28.2495   19.0538 C   0  0  0  0  0  0  0  0  0  0  0  0
  -30.7218  -22.2606   19.2438 C   0  0  0  0  0  0  0  0  0  0  0  0
  -30.7666  -23.6528   19.1707 C   0  0  0  0  0  0  0  0  0  0  0  0
  -23.7896  -13.8319   21.2062 C   0  0  0  0  0  0  0  0  0  0  0  0
  -24.7686  -11.7239   20.5466 C   0  0  0  0  0  0  0  0  0  0  0  0
  -26.4228  -28.5256   18.9485 C   0  0  0  0  0  0  0  0  0  0  0  0
  -20.3986  -12.7535   21.9499 C   0  0  0  0  0  0  0  0  0  0  0  0
  -19.6130  -13.0415   23.0660 C   0  0  0  0  0  0  0  0  0  0  0  0
  -26.8121  -27.3670   21.0283 C   0  0  0  0  0  0  0  0  0  0  0  0
  -29.3435  -22.2007   17.2605 C   0  0  0  0  0  0  0  0  0  0  0  0
  -21.3350  -12.1510   24.5078 C   0  0  0  0  0  0  0  0  0  0  0  0
  -26.1573  -13.6907   20.7470 C   0  0  0  0  0  0  0  0  0  0  0  0
  -28.4087  -14.4429   21.6815 C   0  0  0  0  0  0  0  0  0  0  0  0
  -18.6032  -30.9172   22.7940 C   0  0  0  0  0  0  0  0  0  0  0  0
  -24.5612  -27.5383   20.1545 C   0  0  0  0  0  0  0  0  0  0  0  0
  -19.9479  -30.8375   22.3845 C   0  0  0  0  0  0  0  0  0  0  0  0
  -25.4432  -27.0810   21.1439 C   0  0  0  0  0  0  0  0  0  0  0  0
  -30.0103  -21.5345   18.2887 C   0  0  0  0  0  0  0  0  0  0  0  0
  -30.0997  -24.3190   18.1425 C   0  0  0  0  0  0  0  0  0  0  0  0
  -29.3882  -23.5929   17.1873 C   0  0  0  0  0  0  0  0  0  0  0  0
  -23.6530  -12.4737   20.9195 C   0  0  0  0  0  0  0  0  0  0  0  0
  -27.2986  -28.0869   19.9373 C   0  0  0  0  0  0  0  0  0  0  0  0
  -21.6523  -12.1641   22.1128 C   0  0  0  0  0  0  0  0  0  0  0  0
  -20.0813  -12.7403   24.3449 C   0  0  0  0  0  0  0  0  0  0  0  0
  -22.1205  -11.8629   23.3917 C   0  0  0  0  0  0  0  0  0  0  0  0
  -27.4510  -14.3188   20.6572 C   0  0  0  0  0  0  0  0  0  0  0  0
  -29.4548  -15.1115   21.0943 C   0  0  0  0  0  0  0  0  0  0  0  0
  -29.2048  -19.3138   21.9388 C   0  0  0  0  0  0  0  0  0  0  0  0
  -29.2074  -19.8892   20.7322 C   0  0  0  0  0  0  0  0  0  0  0  0
  -28.3573  -13.9937   23.0421 C   0  0  0  0  0  0  0  0  0  0  0  0
  -30.0405  -19.4103   19.5883 C   0  0  0  0  0  0  0  0  0  0  0  0
  -22.5143  -28.1817   22.4998 C   0  0  0  0  0  0  0  0  0  0  0  0
  -22.9521  -25.0482   23.2152 C   0  0  0  0  0  0  0  0  0  0  0  0
  -30.8250  -26.5869   18.9638 C   0  0  0  0  0  0  0  0  0  0  0  0
  -24.9417  -22.2824   23.0199 C   0  0  0  0  0  0  0  0  0  0  0  0
  -30.1974  -19.3798   17.1619 C   0  0  0  0  0  0  0  0  0  0  0  0
  -18.1189  -30.2561   24.0602 C   0  0  0  0  0  0  0  0  0  0  0  0
  -23.0924  -27.2255   20.2398 C   0  0  0  0  0  0  0  0  0  0  0  0
  -24.9605  -26.2961   22.3353 C   0  0  0  0  0  0  0  0  0  0  0  0
  -19.0635  -29.1772   24.5836 C   0  0  0  0  0  0  0  0  0  0  0  0
  -30.9613  -15.8793   16.4482 C   0  0  0  0  0  0  0  0  0  0  0  0
  -20.5042  -29.6783   24.5737 C   0  0  0  0  0  0  0  0  0  0  0  0
  -30.1858  -15.1266   17.5301 C   0  0  0  0  0  0  0  0  0  0  0  0
  -30.2561  -17.1695   16.0359 C   0  0  0  0  0  0  0  0  0  0  0  0
  -29.1613  -17.3198   18.2442 C   0  0  0  0  0  0  0  0  0  0  0  0
  -20.9617  -30.0143   23.1492 C   0  0  1  0  0  0  0  0  0  0  0  0
  -22.6243  -26.9385   21.6631 C   0  0  1  0  0  0  0  0  0  0  0  0
  -29.8711  -16.0459   18.7241 C   0  0  1  0  0  0  0  0  0  0  0  0
  -25.0489  -19.8786   23.7324 C   0  0  0  0  0  0  0  0  0  0  0  0
  -23.6530  -25.9231   26.0531 C   0  0  0  0  0  0  0  0  0  0  0  0
  -24.6479  -23.6570   26.4313 C   0  0  0  0  0  0  0  0  0  0  0  0
  -22.2174  -23.8799   25.9159 C   0  0  0  0  0  0  0  0  0  0  0  0
  -25.0324  -21.3351   20.2176 C   0  0  0  0  0  0  0  0  0  0  0  0
  -30.6317  -28.0387   18.5408 C   0  0  0  0  0  0  0  0  0  0  0  0
  -29.1721  -28.4665   18.5224 C   0  0  0  0  0  0  0  0  0  1  0  0
  -23.9142  -24.2742   24.0836 C   0  0  1  0  0  0  0  0  0  0  0  0
  -24.6354  -20.8463   22.6346 C   0  0  2  0  0  0  0  0  0  0  0  0
  -23.6173  -24.4500   25.5996 C   0  0  0  0  0  0  0  0  0  0  0  0
  -27.8529  -14.8651   19.5066 N   0  0  0  0  0  0  0  0  0  0  0  0
  -29.0748  -15.3389   19.8043 N   0  0  0  0  0  0  0  0  0  0  0  0
  -23.5148  -26.0209   22.3768 N   0  0  0  0  0  0  0  0  0  0  0  0
  -29.9459  -17.9954   17.2035 N   0  0  0  0  0  0  0  0  0  0  0  0
  -28.7058  -24.2475   16.1373 N   0  0  0  0  0  0  0  0  0  0  0  0
  -30.6535  -15.5215   21.5607 N   0  0  0  0  0  0  0  0  0  0  0  0
  -27.2076  -13.3231   23.4814 N   0  0  0  0  0  0  0  0  0  0  0  0
  -30.1599  -25.7319   18.0890 N   0  0  0  0  0  0  0  0  0  0  0  0
  -21.2831  -28.8044   22.4231 N   0  0  0  0  0  0  0  0  0  0  0  0
  -23.8605  -22.8917   23.6206 N   0  0  0  0  0  0  0  0  0  0  0  0
  -29.9644  -20.0910   18.3647 N   0  0  0  0  0  0  0  0  0  0  0  0
  -25.3615  -20.4789   21.3861 N   0  3  0  0  0  0  0  0  0  0  0  0
  -29.2961  -14.1959   23.8491 O   0  0  0  0  0  0  0  0  0  0  0  0
  -30.7732  -18.4369   19.7831 O   0  0  0  0  0  0  0  0  0  0  0  0
  -23.4749  -28.5481   23.1667 O   0  0  0  0  0  0  0  0  0  0  0  0
  -21.7464  -24.7941   23.2733 O   0  0  0  0  0  0  0  0  0  0  0  0
  -31.4859  -26.2766   19.9492 O   0  0  0  0  0  0  0  0  0  0  0  0
  -26.0324  -22.8095   22.8125 O   0  0  0  0  0  0  0  0  0  0  0  0
  -30.6767  -19.9326   16.1639 O   0  0  0  0  0  0  0  0  0  0  0  0
  -22.4313  -11.8795   21.0038 O   0  0  0  0  0  0  0  0  0  0  0  0
  -28.6289  -28.3556   19.8373 O   0  0  0  0  0  0  0  0  0  1  0  0
  -19.3275  -13.0183   25.4166 F   0  0  0  0  0  0  0  0  0  0  0  0
  -23.3247  -11.2978   23.5545 F   0  0  0  0  0  0  0  0  0  0  0  0
  1  2  1  0  0  0  0
  1  5  2  0  0  0  0
  2  6  2  0  0  0  0
  3 10  2  0  0  0  0
  3 18  1  0  0  0  0
  4 11  1  0  0  0  0
  4 18  2  0  0  0  0
  5 20  1  0  0  0  0
  6 22  1  0  0  0  0
  7 12  2  0  0  0  0
  7 21  1  0  0  0  0
  8  9  2  0  0  0  0
  8 24  1  0  0  0  0
  9 25  1  0  0  0  0
 10 27  1  0  0  0  0
 11 27  2  0  0  0  0
 12 28  1  0  0  0  0
 13 14  2  0  0  0  0
 13 29  1  0  0  0  0
 14 30  1  0  0  0  0
 15 23  1  0  0  0  0
 15 28  2  0  0  0  0
 16 24  2  0  0  0  0
 16 26  1  0  0  0  0
 17 30  2  0  0  0  0
 17 31  1  0  0  0  0
 18 32  1  0  0  0  0
 19 32  1  0  0  0  0
 19 33  2  0  0  0  0
 19 36  1  0  0  0  0
 20 22  2  0  0  0  0
 20 43  1  0  0  0  0
 21 23  2  0  0  0  0
 21 44  1  0  0  0  0
 22 52  1  0  0  0  0
 23 45  1  0  0  0  0
 24 75  1  0  0  0  0
 25 26  2  0  0  0  0
 25 72  1  0  0  0  0
 26 69  1  0  0  0  0
 27 84  1  0  0  0  0
 28 85  1  0  0  0  0
 29 31  2  0  0  0  0
 29 84  1  0  0  0  0
 30 86  1  0  0  0  0
 31 87  1  0  0  0  0
 32 65  2  0  0  0  0
 33 66  1  0  0  0  0
 33 70  1  0  0  0  0
 34 35  2  0  0  0  0
 35 37  1  0  0  0  0
 36 71  1  0  0  0  0
 36 77  2  0  0  0  0
 37 75  1  0  0  0  0
 37 78  2  0  0  0  0
 38 53  1  0  0  0  0
 38 73  1  0  0  0  0
 38 79  2  0  0  0  0
 39 62  1  0  0  0  0
 39 67  1  0  0  0  0
 39 80  2  0  0  0  0
 40 60  1  0  0  0  0
 40 72  1  0  0  0  0
 40 81  2  0  0  0  0
 41 63  1  0  0  0  0
 41 74  1  0  0  0  0
 41 82  2  0  0  0  0
 42 68  1  0  0  0  0
 42 75  1  0  0  0  0
 42 83  2  0  0  0  0
 43 46  1  0  0  0  0
 44 53  1  0  0  0  0
 45 67  1  0  0  0  0
 46 48  1  0  0  0  0
 47 49  1  0  0  0  0
 47 50  1  0  0  0  0
 48 52  1  0  0  0  0
 49 54  1  0  0  0  0
 50 68  1  0  0  0  0
 51 54  1  0  0  0  0
 51 68  1  0  0  0  0
 52 73  1  0  0  0  0
 53 67  1  0  0  0  0
 54 66  1  0  0  0  0
 55 63  1  0  0  0  0
 56 64  1  0  0  0  0
 57 64  1  0  0  0  0
 58 64  1  0  0  0  0
 59 76  1  0  0  0  0
 60 61  1  0  0  0  0
 61 85  1  0  0  0  0
 62 64  1  0  0  0  0
 62 74  1  0  0  0  0
 63 76  1  0  0  0  0
 65 66  1  0  0  0  0
M  CHG  1  76   1
M  ISO  4  42 100  61 101  75 100  85 101
M  END
> <Batch ID>
0093

> <Smiles>
C=CC(=O)[100N:0](c1ccc(NC(=O)C[101CH2:1][101O:1]c2ccc3c(c2)CN(C(=O)C(NC(=O)C(C)NC)C(C)(C)C)C(C(=O)NC2CCCc4ccccc42)C3)c(N)c1)[100C:0](=O)N1CCCC(n2nc(-c3ccc(Oc4ccc(F)cc4F)cc3)c(C(N)=O)c2N)C1

> <Shape>
0.224

> <Color>
0.071

> <Negative vol penalty>
0.000

$$$$

  -OEChem-04052300373D

 86 95  0     1  0  0  0  0  0999 V2000
  -30.1046  -35.6885   20.5315 C   0  0  0  0  0  0  0  0  0  0  0  0
  -30.0018  -34.3223   20.2899 C   0  0  0  0  0  0  0  0  0  0  0  0
  -24.5159   -9.1444   22.2279 C   0  0  0  0  0  0  0  0  0  0  0  0
  -23.8797   -9.2807   19.9012 C   0  0  0  0  0  0  0  0  0  0  0  0
  -31.0435  -20.0103   17.2112 C   0  0  0  0  0  0  0  0  0  0  0  0
  -29.4204  -36.2590   21.6040 C   0  0  0  0  0  0  0  0  0  0  0  0
  -29.2154  -33.5256   21.1214 C   0  0  0  0  0  0  0  0  0  0  0  0
  -26.3159  -30.2821   18.5297 C   0  0  0  0  0  0  0  0  0  0  0  0
  -31.1241  -21.3988   17.3175 C   0  0  0  0  0  0  0  0  0  0  0  0
  -23.3394   -8.4498   22.5089 C   0  0  0  0  0  0  0  0  0  0  0  0
  -22.7032   -8.5860   20.1822 C   0  0  0  0  0  0  0  0  0  0  0  0
  -26.9331  -29.1369   18.0283 C   0  0  0  0  0  0  0  0  0  0  0  0
  -22.1703   -5.2943   22.1786 C   0  0  0  0  0  0  0  0  0  0  0  0
  -22.2628   -4.1654   22.9925 C   0  0  0  0  0  0  0  0  0  0  0  0
  -28.6451  -20.1683   16.9666 C   0  0  0  0  0  0  0  0  0  0  0  0
  -26.0596  -27.8623   19.8808 C   0  0  0  0  0  0  0  0  0  0  0  0
  -20.7674   -5.1929   24.5878 C   0  0  0  0  0  0  0  0  0  0  0  0
  -24.7860   -9.5599   20.9240 C   0  0  0  0  0  0  0  0  0  0  0  0
  -29.8040  -19.3951   17.0357 C   0  0  0  0  0  0  0  0  0  0  0  0
  -27.2435   -9.7309   20.2612 C   0  0  0  0  0  0  0  0  0  0  0  0
  -28.6175  -35.4706   22.4433 C   0  0  0  0  0  0  0  0  0  0  0  0
  -25.5737  -30.2282   19.7183 C   0  0  0  0  0  0  0  0  0  0  0  0
  -28.5209  -34.0859   22.2070 C   0  0  0  0  0  0  0  0  0  0  0  0
  -25.4318  -29.0077   20.3938 C   0  0  0  0  0  0  0  0  0  0  0  0
  -29.9653  -22.1720   17.2484 C   0  0  0  0  0  0  0  0  0  0  0  0
  -22.4331   -8.1706   21.4861 C   0  0  0  0  0  0  0  0  0  0  0  0
  -26.8074  -27.9274   18.7054 C   0  0  0  0  0  0  0  0  0  0  0  0
  -21.3764   -6.3727   22.5694 C   0  0  0  0  0  0  0  0  0  0  0  0
  -21.5613   -4.1146   24.1971 C   0  0  0  0  0  0  0  0  0  0  0  0
  -28.7257  -21.5568   17.0729 C   0  0  0  0  0  0  0  0  0  0  0  0
  -20.6750   -6.3220   23.7739 C   0  0  0  0  0  0  0  0  0  0  0  0
  -26.0009  -10.2780   20.6332 C   0  0  0  0  0  0  0  0  0  0  0  0
  -28.0639  -10.8205   20.0998 C   0  0  0  0  0  0  0  0  0  0  0  0
  -29.4641  -25.7761   17.6102 C   0  0  0  0  0  0  0  0  0  0  0  0
  -28.7687  -26.8182   18.0779 C   0  0  0  0  0  0  0  0  0  1  0  0
  -29.7182  -17.9240   16.9230 C   0  0  0  0  0  0  0  0  0  0  0  0
  -27.6222   -8.3602   20.0779 C   0  0  0  0  0  0  0  0  0  0  0  0
  -25.8113  -31.6009   22.5754 C   0  0  0  0  0  0  0  0  0  0  0  0
  -22.9585  -30.1423   23.0815 C   0  0  0  0  0  0  0  0  0  0  0  0
  -20.8070  -27.6230   22.2623 C   0  0  0  0  0  0  0  0  0  0  0  0
  -28.7833  -15.8324   17.8862 C   0  0  0  0  0  0  0  0  0  0  0  0
  -27.9346  -36.1244   23.6183 C   0  0  0  0  0  0  0  0  0  0  0  0
  -24.8919  -31.4667   20.2317 C   0  0  0  0  0  0  0  0  0  0  0  0
  -24.6291  -28.8924   21.6630 C   0  0  0  0  0  0  0  0  0  0  0  0
  -30.9497  -25.7402   17.4390 C   0  0  0  0  0  0  0  0  0  0  0  0
  -28.8860  -24.4301   17.2913 C   0  0  0  0  0  0  0  0  0  0  0  0
  -26.8237  -35.2732   24.2280 C   0  0  0  0  0  0  0  0  0  0  0  0
  -27.4241  -15.6591   21.3330 C   0  0  0  0  0  0  0  0  0  0  0  0
  -27.2954  -33.8349   24.4163 C   0  0  0  0  0  0  0  0  0  0  0  0
  -26.9657  -14.2059   21.3861 C   0  0  0  0  0  0  0  0  0  0  0  0
  -31.2815  -24.2669   17.6592 C   0  0  0  0  0  0  0  0  0  0  0  0
  -27.3099  -16.2499   19.9283 C   0  0  0  0  0  0  0  0  0  0  0  0
  -27.5554  -13.9811   18.9444 C   0  0  0  0  0  0  0  0  0  0  0  0
  -27.6580  -33.1928   23.0718 C   0  0  1  0  0  0  0  0  0  0  0  0
  -24.5877  -31.4057   21.7254 C   0  0  1  0  0  0  0  0  0  0  0  0
  -27.7186  -13.3681   20.3427 C   0  0  2  0  0  0  0  0  0  0  0  0
  -18.5693  -26.6663   22.8747 C   0  0  0  0  0  0  0  0  0  0  0  0
  -24.1748  -28.9130   25.5954 C   0  0  0  0  0  0  0  0  0  0  0  0
  -22.2809  -27.2758   25.6269 C   0  0  0  0  0  0  0  0  0  0  0  0
  -21.8214  -29.7165   25.8607 C   0  0  0  0  0  0  0  0  0  0  0  0
  -19.7317  -28.0958   19.5458 C   0  0  0  0  0  0  0  0  0  0  0  0
  -22.5248  -28.7975   23.6129 C   0  0  1  0  0  0  0  0  0  0  0  0
  -19.3185  -27.6266   21.9641 C   0  0  2  0  0  0  0  0  0  0  0  0
  -22.7173  -28.6780   25.1511 C   0  0  0  0  0  0  0  0  0  0  0  0
  -26.0251  -11.6116   20.7041 N   0  0  0  0  0  0  0  0  0  0  0  0
  -27.2930  -11.9115   20.3746 N   0  0  0  0  0  0  0  0  0  0  0  0
  -30.0478  -23.5467   17.3531 N   0  0  3  0  0  0  0  0  0  0  0  0
  -23.9867  -30.1326   22.1283 N   0  0  0  0  0  0  0  0  0  0  0  0
  -27.9451  -15.3950   18.9161 N   0  0  0  0  0  0  0  0  0  0  0  0
  -29.3624  -10.9422   19.7512 N   0  0  0  0  0  0  0  0  0  0  0  0
  -26.6557   -7.3666   20.2848 N   0  0  0  0  0  0  0  0  0  0  0  0
  -28.9847  -17.2644   17.8330 N   0  0  0  0  0  0  0  0  0  0  0  0
  -26.4607  -32.8014   22.3593 N   0  0  0  0  0  0  0  0  0  0  0  0
  -21.1491  -28.6064   23.1662 N   0  0  0  0  0  0  0  0  0  0  0  0
  -30.3816  -17.3423   15.9241 N   0  3  0  0  0  0  0  0  0  0  0  0
  -19.0724  -27.2227   20.5508 N   0  3  0  0  0  0  0  0  0  0  0  0
  -28.7877   -8.0256   19.7566 O   0  0  0  0  0  0  0  0  0  0  0  0
  -26.1409  -30.7278   23.3695 O   0  0  0  0  0  0  0  0  0  0  0  0
  -22.4005  -31.1631   23.4916 O   0  0  0  0  0  0  0  0  0  0  0  0
  -21.5874  -26.8250   21.7478 O   0  0  0  0  0  0  0  0  0  0  0  0
  -29.3116  -15.1154   17.0432 O   0  0  0  0  0  0  0  0  0  0  0  0
  -21.2851   -7.4925   21.7599 O   0  0  0  0  0  0  0  0  0  0  0  0
  -27.4093  -26.8083   18.2184 O   0  0  0  0  0  0  0  0  0  1  0  0
  -21.6489   -3.0297   24.9778 F   0  0  0  0  0  0  0  0  0  0  0  0
  -27.6056  -22.2903   17.0054 F   0  0  0  0  0  0  0  0  0  0  0  0
  -19.9098   -7.3544   24.1541 F   0  0  0  0  0  0  0  0  0  0  0  0
  1  2  1  0  0  0  0
  1  6  2  0  0  0  0
  2  7  2  0  0  0  0
  3 10  2  0  0  0  0
  3 18  1  0  0  0  0
  4 11  1  0  0  0  0
  4 18  2  0  0  0  0
  5  9  2  0  0  0  0
  5 19  1  0  0  0  0
  6 21  1  0  0  0  0
  7 23  1  0  0  0  0
  8 12  2  0  0  0  0
  8 22  1  0  0  0  0
  9 25  1  0  0  0  0
 10 26  1  0  0  0  0
 11 26  2  0  0  0  0
 12 27  1  0  0  0  0
 13 14  2  0  0  0  0
 13 28  1  0  0  0  0
 14 29  1  0  0  0  0
 15 19  2  0  0  0  0
 15 30  1  0  0  0  0
 16 24  1  0  0  0  0
 16 27  2  0  0  0  0
 17 29  2  0  0  0  0
 17 31  1  0  0  0  0
 18 32  1  0  0  0  0
 19 36  1  0  0  0  0
 20 32  1  0  0  0  0
 20 33  2  0  0  0  0
 20 37  1  0  0  0  0
 21 23  2  0  0  0  0
 21 42  1  0  0  0  0
 22 24  2  0  0  0  0
 22 43  1  0  0  0  0
 23 54  1  0  0  0  0
 24 44  1  0  0  0  0
 25 30  2  0  0  0  0
 25 67  1  0  0  0  0
 26 82  1  0  0  0  0
 27 83  1  0  0  0  0
 28 31  2  0  0  0  0
 28 82  1  0  0  0  0
 29 84  1  0  0  0  0
 30 85  1  0  0  0  0
 31 86  1  0  0  0  0
 32 65  2  0  0  0  0
 33 66  1  0  0  0  0
 33 70  1  0  0  0  0
 34 35  2  0  0  0  0
 34 45  1  0  0  0  0
 34 46  1  0  0  0  0
 35 83  1  0  0  0  0
 36 72  1  0  0  0  0
 36 75  2  0  0  0  0
 37 71  1  0  0  0  0
 37 77  2  0  0  0  0
 38 55  1  0  0  0  0
 38 73  1  0  0  0  0
 38 78  2  0  0  0  0
 39 62  1  0  0  0  0
 39 68  1  0  0  0  0
 39 79  2  0  0  0  0
 40 63  1  0  0  0  0
 40 74  1  0  0  0  0
 40 80  2  0  0  0  0
 41 69  1  0  0  0  0
 41 72  1  0  0  0  0
 41 81  2  0  0  0  0
 42 47  1  0  0  0  0
 43 55  1  0  0  0  0
 44 68  1  0  0  0  0
 45 51  1  0  0  0  0
 46 67  1  0  0  0  0
 47 49  1  0  0  0  0
 48 50  1  0  0  0  0
 48 52  1  0  0  0  0
 49 54  1  0  0  0  0
 50 56  1  0  0  0  0
 51 67  1  0  0  0  0
 52 69  1  0  0  0  0
 53 56  1  0  0  0  0
 53 69  1  0  0  0  0
 54 73  1  0  0  0  0
 55 68  1  0  0  0  0
 56 66  1  0  0  0  0
 57 63  1  0  0  0  0
 58 64  1  0  0  0  0
 59 64  1  0  0  0  0
 60 64  1  0  0  0  0
 61 76  1  0  0  0  0
 62 64  1  0  0  0  0
 62 74  1  0  0  0  0
 63 76  1  0  0  0  0
 65 66  1  0  0  0  0
M  CHG  2  75   1  76   1
M  ISO  4  35 101  41 100  72 100  83 101
M  END
> <Batch ID>
0093

> <Smiles>
CNC(C)C(=O)NC(C(=O)N1Cc2cc([101O:1][101CH:1]=C3CCN(c4ccc(C(=N)[100NH:0][100C:0](=O)N5CCCC(n6nc(-c7ccc(Oc8ccc(F)cc8F)cc7)c(C(N)=O)c6N)C5)cc4F)C3)ccc2CC1C(=O)NC1CCCc2ccccc21)C(C)(C)C

> <Shape>
0.279

> <Color>
0.093

> <Negative vol penalty>
0.000

$$$$

  -OEChem-04052300373D

 87 96  0     1  0  0  0  0  0999 V2000
  -22.5951  -30.1694   23.8068 C   0  0  0  0  0  0  0  0  0  0  0  0
  -22.0837  -28.9753   23.3086 C   0  0  0  0  0  0  0  0  0  0  0  0
  -20.1224  -15.4537   21.6396 C   0  0  0  0  0  0  0  0  0  0  0  0
  -20.9847  -16.1043   23.8006 C   0  0  0  0  0  0  0  0  0  0  0  0
  -23.6438  -30.8070   23.1454 C   0  0  0  0  0  0  0  0  0  0  0  0
  -22.6200  -28.4188   22.1480 C   0  0  0  0  0  0  0  0  0  0  0  0
  -25.6594  -21.3234   20.9459 C   0  0  0  0  0  0  0  0  0  0  0  0
  -28.7499  -13.8643   18.7199 C   0  0  0  0  0  0  0  0  0  0  0  0
  -28.0801  -12.6467   18.8396 C   0  0  0  0  0  0  0  0  0  0  0  0
  -18.8330  -15.7882   22.0533 C   0  0  0  0  0  0  0  0  0  0  0  0
  -19.6953  -16.4389   24.2144 C   0  0  0  0  0  0  0  0  0  0  0  0
  -26.3630  -20.1555   20.6512 C   0  0  0  0  0  0  0  0  0  0  0  0
  -17.5372  -19.0070   23.8040 C   0  0  0  0  0  0  0  0  0  0  0  0
  -17.3691  -20.2130   24.4844 C   0  0  0  0  0  0  0  0  0  0  0  0
  -27.5878  -21.3175   18.9198 C   0  0  0  0  0  0  0  0  0  0  0  0
  -28.9892  -12.3648   21.0602 C   0  0  0  0  0  0  0  0  0  0  0  0
  -16.5129  -19.0136   26.3989 C   0  0  0  0  0  0  0  0  0  0  0  0
  -21.1982  -15.6117   22.5132 C   0  0  0  0  0  0  0  0  0  0  0  0
  -23.2473  -15.8166   21.0076 C   0  0  0  0  0  0  0  0  0  0  0  0
  -24.1998  -30.2530   21.9815 C   0  0  0  0  0  0  0  0  0  0  0  0
  -25.9285  -22.4982   20.2382 C   0  0  0  0  0  0  0  0  0  0  0  0
  -23.6763  -29.0503   21.4697 C   0  0  0  0  0  0  0  0  0  0  0  0
  -26.8950  -22.4936   19.2190 C   0  0  0  0  0  0  0  0  0  0  0  0
  -29.5395  -14.3322   19.7703 C   0  0  0  0  0  0  0  0  0  0  0  0
  -28.1997  -11.8970   20.0097 C   0  0  0  0  0  0  0  0  0  0  0  0
  -18.6195  -16.2809   23.3407 C   0  0  0  0  0  0  0  0  0  0  0  0
  -27.3247  -20.1525   19.6405 C   0  0  0  0  0  0  0  0  0  0  0  0
  -17.1932  -17.8043   24.4211 C   0  0  0  0  0  0  0  0  0  0  0  0
  -16.8569  -20.2163   25.7818 C   0  0  0  0  0  0  0  0  0  0  0  0
  -29.6591  -13.5825   20.9404 C   0  0  0  0  0  0  0  0  0  0  0  0
  -16.6810  -17.8076   25.7186 C   0  0  0  0  0  0  0  0  0  0  0  0
  -22.5303  -15.2657   22.0866 C   0  0  0  0  0  0  0  0  0  0  0  0
  -24.4515  -15.1562   21.0228 C   0  0  0  0  0  0  0  0  0  0  0  0
  -30.1466  -17.9663   19.2441 C   0  0  0  0  0  0  0  0  0  0  0  0
  -31.6188  -18.0923   19.4169 C   0  0  0  0  0  0  0  0  0  0  0  0
  -29.3714  -19.0292   19.4916 C   0  0  0  0  0  0  0  0  0  1  0  0
  -22.8596  -16.8343   20.0751 C   0  0  0  0  0  0  0  0  0  0  0  0
  -25.1529  -26.1356   19.7443 C   0  0  0  0  0  0  0  0  0  0  0  0
  -28.1955  -25.8318   19.4974 C   0  0  0  0  0  0  0  0  0  0  0  0
  -31.5286  -25.1388   19.7150 C   0  0  0  0  0  0  0  0  0  0  0  0
  -27.0532  -10.1234   21.3629 C   0  0  0  0  0  0  0  0  0  0  0  0
  -25.3010  -31.0031   21.2749 C   0  0  0  0  0  0  0  0  0  0  0  0
  -25.1516  -23.7638   20.4801 C   0  0  0  0  0  0  0  0  0  0  0  0
  -27.1267  -23.7719   18.4606 C   0  0  0  0  0  0  0  0  0  0  0  0
  -29.6441  -16.6192   18.8140 C   0  0  0  0  0  0  0  0  0  0  0  0
  -32.3568  -16.7990   19.6550 C   0  0  0  0  0  0  0  0  0  0  0  0
  -26.0625  -30.1541   20.2602 C   0  0  0  0  0  0  0  0  0  0  0  0
  -26.5234  -12.0890   24.4530 C   0  0  0  0  0  0  0  0  0  0  0  0
  -25.0909  -29.3682   19.3855 C   0  0  0  0  0  0  0  0  0  0  0  0
  -25.4344  -13.0788   24.0430 C   0  0  0  0  0  0  0  0  0  0  0  0
  -31.4747  -15.7710   20.3593 C   0  0  0  0  0  0  0  0  0  0  0  0
  -26.4313  -10.7866   23.6637 C   0  0  0  0  0  0  0  0  0  0  0  0
  -25.3620  -11.9766   21.7711 C   0  0  0  0  0  0  0  0  0  0  0  0
  -24.2480  -28.4025   20.2273 C   0  0  1  0  0  0  0  0  0  0  0  0
  -26.0019  -25.0356   20.3105 C   0  0  1  0  0  0  0  0  0  0  0  0
  -25.4580  -13.3123   22.5234 C   0  0  1  0  0  0  0  0  0  0  0  0
  -33.7820  -26.2320   19.5592 C   0  0  0  0  0  0  0  0  0  0  0  0
  -27.9367  -25.9239   16.4596 C   0  0  0  0  0  0  0  0  0  0  0  0
  -30.4311  -26.0896   16.3231 C   0  0  0  0  0  0  0  0  0  0  0  0
  -29.1245  -27.8813   17.4656 C   0  0  0  0  0  0  0  0  0  0  0  0
  -27.5044   -9.7417   18.9791 C   0  0  0  0  0  0  0  0  0  0  0  0
  -32.2011  -24.4155   22.5049 C   0  0  0  0  0  0  0  0  0  0  0  0
  -29.3761  -25.6270   18.5823 C   0  0  1  0  0  0  0  0  0  0  0  0
  -32.6498  -25.8136   20.4843 C   0  0  2  0  0  0  0  0  0  0  0  0
  -29.2048  -26.3586   17.2211 C   0  0  0  0  0  0  0  0  0  0  0  0
  -23.2213  -14.3275   22.7395 N   0  0  0  0  0  0  0  0  0  0  0  0
  -24.3851  -14.2837   22.0689 N   0  0  0  0  0  0  0  0  0  0  0  0
  -30.2104  -15.5515   19.6468 N   0  0  3  0  0  0  0  0  0  0  0  0
  -27.1455  -24.9116   19.3908 N   0  0  0  0  0  0  0  0  0  0  0  0
  -26.3941  -11.0281   22.2204 N   0  0  0  0  0  0  0  0  0  0  0  0
  -25.5502  -15.2425   20.2431 N   0  0  0  0  0  0  0  0  0  0  0  0
  -23.1424  -18.1707   20.3888 N   0  0  0  0  0  0  0  0  0  0  0  0
  -25.0212  -27.2302   20.5773 N   0  0  0  0  0  0  0  0  0  0  0  0
  -30.5544  -26.0387   19.3378 N   0  0  0  0  0  0  0  0  0  0  0  0
  -27.5069  -10.6378   20.1333 N   0  0  0  0  0  0  0  0  0  0  0  0
  -33.2017  -24.8881   21.5138 N   0  3  0  0  0  0  0  0  0  0  0  0
  -32.2037  -19.1680   19.3295 O   0  0  0  0  0  0  0  0  0  0  0  0
  -22.2648  -16.5679   19.0033 O   0  0  0  0  0  0  0  0  0  0  0  0
  -24.6546  -26.0028   18.6326 O   0  0  0  0  0  0  0  0  0  0  0  0
  -28.1989  -26.7841   20.2825 O   0  0  0  0  0  0  0  0  0  0  0  0
  -31.5198  -23.9345   19.4697 O   0  0  0  0  0  0  0  0  0  0  0  0
  -27.1801   -8.9261   21.6476 O   0  0  0  0  0  0  0  0  0  0  0  0
  -17.3615  -16.6077   23.7447 O   0  0  0  0  0  0  0  0  0  0  0  0
  -28.0111  -19.0099   19.3610 O   0  0  0  0  0  0  0  0  0  1  0  0
  -16.6969  -21.3744   26.4355 F   0  0  0  0  0  0  0  0  0  0  0  0
  -30.4165  -14.0224   21.9554 F   0  0  0  0  0  0  0  0  0  0  0  0
  -16.3498  -16.6552   26.3170 F   0  0  0  0  0  0  0  0  0  0  0  0
  1  2  1  0  0  0  0
  1  5  2  0  0  0  0
  2  6  2  0  0  0  0
  3 10  2  0  0  0  0
  3 18  1  0  0  0  0
  4 11  1  0  0  0  0
  4 18  2  0  0  0  0
  5 20  1  0  0  0  0
  6 22  1  0  0  0  0
  7 12  2  0  0  0  0
  7 21  1  0  0  0  0
  8  9  2  0  0  0  0
  8 24  1  0  0  0  0
  9 25  1  0  0  0  0
 10 26  1  0  0  0  0
 11 26  2  0  0  0  0
 12 27  1  0  0  0  0
 13 14  2  0  0  0  0
 13 28  1  0  0  0  0
 14 29  1  0  0  0  0
 15 23  1  0  0  0  0
 15 27  2  0  0  0  0
 16 25  2  0  0  0  0
 16 30  1  0  0  0  0
 17 29  2  0  0  0  0
 17 31  1  0  0  0  0
 18 32  1  0  0  0  0
 19 32  1  0  0  0  0
 19 33  2  0  0  0  0
 19 37  1  0  0  0  0
 20 22  2  0  0  0  0
 20 42  1  0  0  0  0
 21 23  2  0  0  0  0
 21 43  1  0  0  0  0
 22 54  1  0  0  0  0
 23 44  1  0  0  0  0
 24 30  2  0  0  0  0
 24 68  1  0  0  0  0
 25 75  1  0  0  0  0
 26 83  1  0  0  0  0
 27 84  1  0  0  0  0
 28 31  2  0  0  0  0
 28 83  1  0  0  0  0
 29 85  1  0  0  0  0
 30 86  1  0  0  0  0
 31 87  1  0  0  0  0
 32 66  2  0  0  0  0
 33 67  1  0  0  0  0
 33 71  1  0  0  0  0
 34 35  1  0  0  0  0
 34 36  2  0  0  0  0
 34 45  1  0  0  0  0
 35 46  1  0  0  0  0
 35 77  2  0  0  0  0
 36 84  1  0  0  0  0
 37 72  1  0  0  0  0
 37 78  2  0  0  0  0
 38 55  1  0  0  0  0
 38 73  1  0  0  0  0
 38 79  2  0  0  0  0
 39 63  1  0  0  0  0
 39 69  1  0  0  0  0
 39 80  2  0  0  0  0
 40 64  1  0  0  0  0
 40 74  1  0  0  0  0
 40 81  2  0  0  0  0
 41 70  1  0  0  0  0
 41 75  1  0  0  0  0
 41 82  2  0  0  0  0
 42 47  1  0  0  0  0
 43 55  1  0  0  0  0
 44 69  1  0  0  0  0
 45 68  1  0  0  0  0
 46 51  1  0  0  0  0
 47 49  1  0  0  0  0
 48 50  1  0  0  0  0
 48 52  1  0  0  0  0
 49 54  1  0  0  0  0
 50 56  1  0  0  0  0
 51 68  1  0  0  0  0
 52 70  1  0  0  0  0
 53 56  1  0  0  0  0
 53 70  1  0  0  0  0
 54 73  1  0  0  0  0
 55 69  1  0  0  0  0
 56 67  1  0  0  0  0
 57 64  1  0  0  0  0
 58 65  1  0  0  0  0
 59 65  1  0  0  0  0
 60 65  1  0  0  0  0
 61 75  1  0  0  0  0
 62 76  1  0  0  0  0
 63 65  1  0  0  0  0
 63 74  1  0  0  0  0
 64 76  1  0  0  0  0
 66 67  1  0  0  0  0
M  CHG  1  76   1
M  ISO  4  36 101  41 100  75 100  84 101
M  END
> <Batch ID>
0093

> <Smiles>
CNC(C)C(=O)NC(C(=O)N1Cc2cc([101O:1][101CH:1]=C3CN(c4ccc([100N:0](C)[100C:0](=O)N5CCCC(n6nc(-c7ccc(Oc8ccc(F)cc8F)cc7)c(C(N)=O)c6N)C5)cc4F)CCC3=O)ccc2CC1C(=O)NC1CCCc2ccccc21)C(C)(C)C

> <Shape>
0.200

> <Color>
0.089

> <Negative vol penalty>
0.000

$$$$

  -OEChem-04052300373D

 87 95  0     1  0  0  0  0  0999 V2000
  -27.9946  -25.2764   13.1376 C   0  0  0  0  0  0  0  0  0  0  0  0
  -27.0400  -25.1955   14.1464 C   0  0  0  0  0  0  0  0  0  0  0  0
  -16.8813  -19.9884   19.4934 C   0  0  0  0  0  0  0  0  0  0  0  0
  -29.7931  -18.3974   21.5326 C   0  0  0  0  0  0  0  0  0  0  0  0
  -28.8127  -17.7479   19.4221 C   0  0  0  0  0  0  0  0  0  0  0  0
  -29.3236  -25.5513   13.4575 C   0  0  0  0  0  0  0  0  0  0  0  0
  -27.4140  -25.3884   15.4758 C   0  0  0  0  0  0  0  0  0  0  0  0
  -24.1982  -28.3918   17.9824 C   0  0  0  0  0  0  0  0  0  0  0  0
  -17.8066  -18.9451   19.5222 C   0  0  0  0  0  0  0  0  0  0  0  0
  -17.3075  -21.3040   19.6755 C   0  0  0  0  0  0  0  0  0  0  0  0
  -30.8093  -17.4597   21.3491 C   0  0  0  0  0  0  0  0  0  0  0  0
  -29.8290  -16.8103   19.2386 C   0  0  0  0  0  0  0  0  0  0  0  0
  -22.9986  -27.8242   18.4098 C   0  0  0  0  0  0  0  0  0  0  0  0
  -31.9632  -13.9954   18.3834 C   0  0  0  0  0  0  0  0  0  0  0  0
  -31.5995  -12.7230   17.9426 C   0  0  0  0  0  0  0  0  0  0  0  0
  -23.9139  -27.5745   20.6277 C   0  0  0  0  0  0  0  0  0  0  0  0
  -19.5846  -20.5330   19.9154 C   0  0  0  0  0  0  0  0  0  0  0  0
  -30.2244  -12.4351   19.9081 C   0  0  0  0  0  0  0  0  0  0  0  0
  -28.7947  -18.5414   20.5691 C   0  0  0  0  0  0  0  0  0  0  0  0
  -27.7437  -20.8550   20.3445 C   0  0  0  0  0  0  0  0  0  0  0  0
  -29.7123  -25.7572   14.7906 C   0  0  0  0  0  0  0  0  0  0  0  0
  -25.2702  -28.5452   18.8733 C   0  0  0  0  0  0  0  0  0  0  0  0
  -28.7496  -25.6650   15.8139 C   0  0  0  0  0  0  0  0  0  0  0  0
  -25.1252  -28.1466   20.2098 C   0  0  0  0  0  0  0  0  0  0  0  0
  -19.1583  -19.2174   19.7332 C   0  0  0  0  0  0  0  0  0  0  0  0
  -18.6592  -21.5763   19.8865 C   0  0  0  0  0  0  0  0  0  0  0  0
  -30.8273  -16.6662   20.2021 C   0  0  0  0  0  0  0  0  0  0  0  0
  -22.8573  -27.4128   19.7319 C   0  0  0  0  0  0  0  0  0  0  0  0
  -31.4576  -14.4876   19.5867 C   0  0  0  0  0  0  0  0  0  0  0  0
  -30.7301  -11.9428   18.7049 C   0  0  0  0  0  0  0  0  0  0  0  0
  -30.5881  -13.7075   20.3490 C   0  0  0  0  0  0  0  0  0  0  0  0
  -27.7444  -19.5094   20.7584 C   0  0  0  0  0  0  0  0  0  0  0  0
  -26.5277  -21.3410   20.7588 C   0  0  0  0  0  0  0  0  0  0  0  0
  -20.6593  -16.6637   17.6654 C   0  0  0  0  0  0  0  0  0  0  0  0
  -20.7220  -17.8041   18.3650 C   0  0  0  0  0  0  0  0  0  0  0  0
  -21.5473  -25.5020   20.0537 C   0  0  0  0  0  0  0  0  0  1  0  0
  -28.7520  -21.5989   19.6477 C   0  0  0  0  0  0  0  0  0  0  0  0
  -20.4416  -24.8517   20.4359 C   0  0  0  0  0  0  0  0  0  0  0  0
  -20.3870  -23.3605   20.2883 C   0  0  0  0  0  0  0  0  0  0  0  0
  -28.2392  -27.4201   19.0252 C   0  0  0  0  0  0  0  0  0  0  0  0
  -28.4637  -29.4497   21.5456 C   0  0  0  0  0  0  0  0  0  0  0  0
  -26.8744  -31.1967   24.0091 C   0  0  0  0  0  0  0  0  0  0  0  0
  -21.2624  -18.7249   21.8916 C   0  0  0  0  0  0  0  0  0  0  0  0
  -31.1692  -26.0050   15.0919 C   0  0  0  0  0  0  0  0  0  0  0  0
  -26.5484  -29.1838   18.4033 C   0  0  0  0  0  0  0  0  0  0  0  0
  -26.2389  -28.3080   21.2108 C   0  0  0  0  0  0  0  0  0  0  0  0
  -31.4150  -26.5673   16.4897 C   0  0  0  0  0  0  0  0  0  0  0  0
  -23.1939  -20.7070   24.1315 C   0  0  0  0  0  0  0  0  0  0  0  0
  -30.6187  -25.7834   17.5281 C   0  0  0  0  0  0  0  0  0  0  0  0
  -24.5791  -20.7462   23.4836 C   0  0  0  0  0  0  0  0  0  0  0  0
  -22.5165  -19.3528   23.9335 C   0  0  0  0  0  0  0  0  0  0  0  0
  -23.8218  -18.9384   21.8846 C   0  0  0  0  0  0  0  0  0  0  0  0
  -29.1119  -25.8927   17.2655 C   0  0  1  0  0  0  0  0  0  0  0  0
  -27.7512  -28.8203   19.2684 C   0  0  1  0  0  0  0  0  0  0  0  0
  -24.5215  -20.3027   22.0095 C   0  0  2  0  0  0  0  0  0  0  0  0
  -27.3271  -32.7365   25.9382 C   0  0  0  0  0  0  0  0  0  0  0  0
  -19.5128  -16.8415   20.4259 C   0  0  0  0  0  0  0  0  0  0  0  0
  -29.4287  -27.0798   23.2076 C   0  0  0  0  0  0  0  0  0  0  0  0
  -28.9531  -28.4205   25.2679 C   0  0  0  0  0  0  0  0  0  0  0  0
  -30.6559  -29.2179   23.6286 C   0  0  0  0  0  0  0  0  0  0  0  0
  -25.2804  -33.3748   22.7950 C   0  0  0  0  0  0  0  0  0  0  0  0
  -28.2031  -29.3452   23.0289 C   0  0  1  0  0  0  0  0  0  0  0  0
  -26.9948  -32.6421   24.4572 C   0  0  2  0  0  0  0  0  0  0  0  0
  -20.1472  -18.1016   19.7639 C   0  0  2  0  0  0  0  0  0  0  0  0
  -29.2897  -28.5109   23.7642 C   0  0  0  0  0  0  0  0  0  0  0  0
  -26.6183  -19.1629   21.3876 N   0  0  0  0  0  0  0  0  0  0  0  0
  -25.8986  -20.2978   21.3721 N   0  0  0  0  0  0  0  0  0  0  0  0
  -27.4712  -28.9320   20.7013 N   0  0  0  0  0  0  0  0  0  0  0  0
  -22.4930  -18.9915   22.5141 N   0  0  0  0  0  0  0  0  0  0  0  0
  -25.9459  -22.5547   20.6547 N   0  0  0  0  0  0  0  0  0  0  0  0
  -29.9415  -20.9459   19.2970 N   0  0  0  0  0  0  0  0  0  0  0  0
  -19.0916  -22.9118   20.0707 N   0  0  0  0  0  0  0  0  0  0  0  0
  -28.6116  -27.1733   17.7176 N   0  0  0  0  0  0  0  0  0  0  0  0
  -28.0683  -30.7134   23.5170 N   0  0  0  0  0  0  0  0  0  0  0  0
  -21.3290  -18.3963   20.5432 N   0  0  0  0  0  0  0  0  0  0  0  0
  -25.7157  -33.3677   24.2154 N   0  3  0  0  0  0  0  0  0  0  0  0
  -28.6093  -22.8114   19.3596 O   0  0  0  0  0  0  0  0  0  0  0  0
  -21.4061  -22.6824   20.3624 O   0  0  0  0  0  0  0  0  0  0  0  0
  -28.2765  -26.6231   19.9553 O   0  0  0  0  0  0  0  0  0  0  0  0
  -29.5061  -29.9779   21.1505 O   0  0  0  0  0  0  0  0  0  0  0  0
  -25.8269  -30.5590   24.0911 O   0  0  0  0  0  0  0  0  0  0  0  0
  -20.1836  -18.7811   22.4918 O   0  0  0  0  0  0  0  0  0  0  0  0
  -19.3442  -25.5005   20.9645 O   0  0  0  0  0  0  0  0  0  0  0  0
  -31.8190  -15.7514   20.0226 O   0  0  0  0  0  0  0  0  0  0  0  0
  -21.6877  -26.8579   20.1515 O   0  0  0  0  0  0  0  0  0  1  0  0
  -30.3797  -10.7216   18.2807 F   0  0  0  0  0  0  0  0  0  0  0  0
  -30.0982  -14.1755   21.5052 F   0  0  0  0  0  0  0  0  0  0  0  0
  1  2  1  0  0  0  0
  1  6  2  0  0  0  0
  2  7  2  0  0  0  0
  3  9  2  0  0  0  0
  3 10  1  0  0  0  0
  4 11  2  0  0  0  0
  4 19  1  0  0  0  0
  5 12  1  0  0  0  0
  5 19  2  0  0  0  0
  6 21  1  0  0  0  0
  7 23  1  0  0  0  0
  8 13  2  0  0  0  0
  8 22  1  0  0  0  0
  9 25  1  0  0  0  0
 10 26  2  0  0  0  0
 11 27  1  0  0  0  0
 12 27  2  0  0  0  0
 13 28  1  0  0  0  0
 14 15  2  0  0  0  0
 14 29  1  0  0  0  0
 15 30  1  0  0  0  0
 16 24  1  0  0  0  0
 16 28  2  0  0  0  0
 17 25  2  0  0  0  0
 17 26  1  0  0  0  0
 18 30  2  0  0  0  0
 18 31  1  0  0  0  0
 19 32  1  0  0  0  0
 20 32  1  0  0  0  0
 20 33  2  0  0  0  0
 20 37  1  0  0  0  0
 21 23  2  0  0  0  0
 21 44  1  0  0  0  0
 22 24  2  0  0  0  0
 22 45  1  0  0  0  0
 23 53  1  0  0  0  0
 24 46  1  0  0  0  0
 25 64  1  0  0  0  0
 26 72  1  0  0  0  0
 27 84  1  0  0  0  0
 28 85  1  0  0  0  0
 29 31  2  0  0  0  0
 29 84  1  0  0  0  0
 30 86  1  0  0  0  0
 31 87  1  0  0  0  0
 32 66  2  0  0  0  0
 33 67  1  0  0  0  0
 33 70  1  0  0  0  0
 34 35  2  0  0  0  0
 35 64  1  0  0  0  0
 36 38  2  0  0  0  0
 36 85  1  0  0  0  0
 37 71  1  0  0  0  0
 37 77  2  0  0  0  0
 38 39  1  0  0  0  0
 38 83  1  0  0  0  0
 39 72  1  0  0  0  0
 39 78  2  0  0  0  0
 40 54  1  0  0  0  0
 40 73  1  0  0  0  0
 40 79  2  0  0  0  0
 41 62  1  0  0  0  0
 41 68  1  0  0  0  0
 41 80  2  0  0  0  0
 42 63  1  0  0  0  0
 42 74  1  0  0  0  0
 42 81  2  0  0  0  0
 43 69  1  0  0  0  0
 43 75  1  0  0  0  0
 43 82  2  0  0  0  0
 44 47  1  0  0  0  0
 45 54  1  0  0  0  0
 46 68  1  0  0  0  0
 47 49  1  0  0  0  0
 48 50  1  0  0  0  0
 48 51  1  0  0  0  0
 49 53  1  0  0  0  0
 50 55  1  0  0  0  0
 51 69  1  0  0  0  0
 52 55  1  0  0  0  0
 52 69  1  0  0  0  0
 53 73  1  0  0  0  0
 54 68  1  0  0  0  0
 55 67  1  0  0  0  0
 56 63  1  0  0  0  0
 57 64  1  0  0  0  0
 58 65  1  0  0  0  0
 59 65  1  0  0  0  0
 60 65  1  0  0  0  0
 61 76  1  0  0  0  0
 62 65  1  0  0  0  0
 62 74  1  0  0  0  0
 63 76  1  0  0  0  0
 64 75  1  0  0  0  0
 66 67  1  0  0  0  0
M  CHG  1  76   1
M  ISO  4  36 101  43 100  75 100  85 101
M  END
> <Batch ID>
0093

> <Smiles>
C=CC(C)([100NH:0][100C:0](=O)N1CCCC(n2nc(-c3ccc(Oc4ccc(F)cc4F)cc3)c(C(N)=O)c2N)C1)c1cccc(NC(=O)C(=O)[101CH2:1][101O:1]c2ccc3c(c2)CN(C(=O)C(NC(=O)C(C)NC)C(C)(C)C)C(C(=O)NC2CCCc4ccccc42)C3)c1

> <Shape>
0.197

> <Color>
0.062

> <Negative vol penalty>
0.000

$$$$

  -OEChem-04052300373D

 88 97  0     1  0  0  0  0  0999 V2000
  -20.7018  -29.7661   14.9868 C   0  0  0  0  0  0  0  0  0  0  0  0
  -21.9943  -29.4573   15.3985 C   0  0  0  0  0  0  0  0  0  0  0  0
  -24.8585   -8.9535   21.7987 C   0  0  0  0  0  0  0  0  0  0  0  0
  -23.2309  -10.6802   21.3442 C   0  0  0  0  0  0  0  0  0  0  0  0
  -19.9643  -30.7299   15.6732 C   0  0  0  0  0  0  0  0  0  0  0  0
  -22.5505  -30.1131   16.4963 C   0  0  0  0  0  0  0  0  0  0  0  0
  -24.9335  -26.9461   19.6485 C   0  0  0  0  0  0  0  0  0  0  0  0
  -29.2103  -21.4214   20.5956 C   0  0  0  0  0  0  0  0  0  0  0  0
  -28.6758  -20.1792   20.2538 C   0  0  0  0  0  0  0  0  0  0  0  0
  -23.8543   -7.9881   21.7275 C   0  0  0  0  0  0  0  0  0  0  0  0
  -22.2266   -9.7148   21.2730 C   0  0  0  0  0  0  0  0  0  0  0  0
  -26.2040  -26.5110   19.2738 C   0  0  0  0  0  0  0  0  0  0  0  0
  -21.6570   -5.1056   22.0216 C   0  0  0  0  0  0  0  0  0  0  0  0
  -21.6321   -4.1196   23.0079 C   0  0  0  0  0  0  0  0  0  0  0  0
  -27.1916  -28.1391   20.7548 C   0  0  0  0  0  0  0  0  0  0  0  0
  -30.4473  -19.8603   18.6422 C   0  0  0  0  0  0  0  0  0  0  0  0
  -21.3612   -5.8209   24.7018 C   0  0  0  0  0  0  0  0  0  0  0  0
  -24.5469  -10.2996   21.6071 C   0  0  0  0  0  0  0  0  0  0  0  0
  -26.4113  -11.5833   22.7834 C   0  0  0  0  0  0  0  0  0  0  0  0
  -20.5082  -31.3908   16.7858 C   0  0  0  0  0  0  0  0  0  0  0  0
  -24.7824  -27.9901   20.5725 C   0  0  0  0  0  0  0  0  0  0  0  0
  -21.8201  -31.0876   17.1974 C   0  0  0  0  0  0  0  0  0  0  0  0
  -25.9181  -28.5838   21.1414 C   0  0  0  0  0  0  0  0  0  0  0  0
  -30.3633  -21.8832   19.9606 C   0  0  0  0  0  0  0  0  0  0  0  0
  -29.2943  -19.3986   19.2772 C   0  0  0  0  0  0  0  0  0  0  0  0
  -30.9818  -21.1026   18.9839 C   0  0  0  0  0  0  0  0  0  0  0  0
  -22.5383   -8.3687   21.4647 C   0  0  0  0  0  0  0  0  0  0  0  0
  -27.3333  -27.1094   19.8248 C   0  0  0  0  0  0  0  0  0  0  0  0
  -21.5341   -6.4493   22.3754 C   0  0  0  0  0  0  0  0  0  0  0  0
  -21.4842   -4.4772   24.3480 C   0  0  0  0  0  0  0  0  0  0  0  0
  -21.3862   -6.8069   23.7155 C   0  0  0  0  0  0  0  0  0  0  0  0
  -25.5837  -11.2974   21.6810 C   0  0  0  0  0  0  0  0  0  0  0  0
  -27.2215  -12.6037   22.3489 C   0  0  0  0  0  0  0  0  0  0  0  0
  -32.1983  -23.2935   20.8515 C   0  0  0  0  0  0  0  0  0  0  0  0
  -26.4446  -10.9805   24.0838 C   0  0  0  0  0  0  0  0  0  0  0  0
  -23.5019  -30.8979   20.4819 C   0  0  0  0  0  0  0  0  0  0  0  0
  -24.1551  -30.8601   23.6591 C   0  0  0  0  0  0  0  0  0  0  0  0
  -26.8643  -29.7696   25.7777 C   0  0  0  0  0  0  0  0  0  0  0  0
  -28.0338  -17.3360   19.8671 C   0  0  0  0  0  0  0  0  0  0  0  0
  -19.6900  -32.4591   17.4670 C   0  0  0  0  0  0  0  0  0  0  0  0
  -23.4048  -28.4297   20.9863 C   0  0  0  0  0  0  0  0  0  0  0  0
  -25.8098  -29.6946   22.1528 C   0  0  0  0  0  0  0  0  0  0  0  0
  -32.7763  -24.6948   20.9128 C   0  0  0  0  0  0  0  0  0  0  0  0
  -20.2148  -32.8397   18.8490 C   0  0  0  0  0  0  0  0  0  0  0  0
  -31.7632  -25.7752   21.2212 C   0  0  0  0  0  0  0  0  0  0  0  0
  -27.9523  -14.4989   17.7252 C   0  0  0  0  0  0  0  0  0  0  0  0
  -21.7253  -33.0481   18.8077 C   0  0  0  0  0  0  0  0  0  0  0  0
  -27.3821  -13.4309   18.6578 C   0  0  0  0  0  0  0  0  0  0  0  0
  -27.2828  -15.8577   17.9338 C   0  0  0  0  0  0  0  0  0  0  0  0
  -29.9635  -24.3165   20.3399 C   0  0  0  0  0  0  0  0  0  0  0  0
  -26.7324  -15.2599   20.2714 C   0  0  0  0  0  0  0  0  0  0  0  0
  -22.4490  -31.7595   18.3987 C   0  0  1  0  0  0  0  0  0  0  0  0
  -23.3738  -29.8475   21.5486 C   0  0  1  0  0  0  0  0  0  0  0  0
  -30.6286  -25.6864   20.2139 C   0  0  1  0  0  0  0  0  0  0  0  0
  -27.4266  -13.8970   20.1237 C   0  0  1  0  0  0  0  0  0  0  0  0
  -27.5602  -18.3844   16.7739 C   0  0  0  0  0  0  0  0  0  0  0  0
  -26.8628  -29.0223   28.1733 C   0  0  0  0  0  0  0  0  0  0  0  0
  -24.8184  -33.7757   24.2666 C   0  0  0  0  0  0  0  0  0  0  0  0
  -26.3586  -32.9766   26.0715 C   0  0  0  0  0  0  0  0  0  0  0  0
  -23.9170  -32.4843   26.2093 C   0  0  0  0  0  0  0  0  0  0  0  0
  -28.1710  -27.2025   25.0987 C   0  0  0  0  0  0  0  0  0  0  0  0
  -29.6123  -26.8052   20.4327 C   0  0  0  0  0  0  0  0  0  1  0  0
  -28.7116  -17.7281   17.5086 C   0  0  0  0  0  0  0  0  0  0  0  0
  -25.3348  -31.2580   24.5128 C   0  0  1  0  0  0  0  0  0  0  0  0
  -26.8592  -28.5785   26.7187 C   0  0  2  0  0  0  0  0  0  0  0  0
  -25.1106  -32.6148   25.2382 C   0  0  0  0  0  0  0  0  0  0  0  0
  -25.8442  -12.0735   20.6256 N   0  0  0  0  0  0  0  0  0  0  0  0
  -26.8445  -12.8572   21.0629 N   0  0  0  0  0  0  0  0  0  0  0  0
  -30.8980  -23.1762   20.3308 N   0  0  0  0  0  0  0  0  0  0  0  0
  -24.4412  -30.0936   22.5205 N   0  0  0  0  0  0  0  0  0  0  0  0
  -27.3138  -16.2414   19.3523 N   0  0  0  0  0  0  0  0  0  0  0  0
  -32.1497  -21.5515   18.3271 N   0  0  0  0  0  0  0  0  0  0  0  0
  -28.2126  -13.2998   22.9452 N   0  0  0  0  0  0  0  0  0  0  0  0
  -25.6381  -11.5239   25.0930 N   0  0  0  0  0  0  0  0  0  0  0  0
  -22.5161  -30.8412   19.5152 N   0  0  0  0  0  0  0  0  0  0  0  0
  -25.5867  -30.1354   25.4098 N   0  0  0  0  0  0  0  0  0  0  0  0
  -28.7412  -18.1123   18.9240 N   0  0  0  0  0  0  0  0  0  0  0  0
  -28.0600  -27.7277   26.4839 N   0  3  0  0  0  0  0  0  0  0  0  0
  -32.9176  -22.3539   21.2017 O   0  0  0  0  0  0  0  0  0  0  0  0
  -27.1805   -9.9994   24.3475 O   0  0  0  0  0  0  0  0  0  0  0  0
  -24.4258  -31.7014   20.5329 O   0  0  0  0  0  0  0  0  0  0  0  0
  -23.0207  -31.2103   23.9941 O   0  0  0  0  0  0  0  0  0  0  0  0
  -27.8980  -30.3229   25.4090 O   0  0  0  0  0  0  0  0  0  0  0  0
  -28.0245  -17.6140   21.0723 O   0  0  0  0  0  0  0  0  0  0  0  0
  -21.5582   -7.4270   21.3950 O   0  0  0  0  0  0  0  0  0  0  0  0
  -28.5746  -26.6871   19.4603 O   0  0  0  0  0  0  0  0  0  1  0  0
  -21.4587   -3.5302   25.2949 F   0  0  0  0  0  0  0  0  0  0  0  0
  -21.2664   -8.0960   24.0614 F   0  0  0  0  0  0  0  0  0  0  0  0
  1  2  1  0  0  0  0
  1  5  2  0  0  0  0
  2  6  2  0  0  0  0
  3 10  2  0  0  0  0
  3 18  1  0  0  0  0
  4 11  1  0  0  0  0
  4 18  2  0  0  0  0
  5 20  1  0  0  0  0
  6 22  1  0  0  0  0
  7 12  2  0  0  0  0
  7 21  1  0  0  0  0
  8  9  2  0  0  0  0
  8 24  1  0  0  0  0
  9 25  1  0  0  0  0
 10 27  1  0  0  0  0
 11 27  2  0  0  0  0
 12 28  1  0  0  0  0
 13 14  2  0  0  0  0
 13 29  1  0  0  0  0
 14 30  1  0  0  0  0
 15 23  1  0  0  0  0
 15 28  2  0  0  0  0
 16 25  2  0  0  0  0
 16 26  1  0  0  0  0
 17 30  2  0  0  0  0
 17 31  1  0  0  0  0
 18 32  1  0  0  0  0
 19 32  1  0  0  0  0
 19 33  2  0  0  0  0
 19 35  1  0  0  0  0
 20 22  2  0  0  0  0
 20 40  1  0  0  0  0
 21 23  2  0  0  0  0
 21 41  1  0  0  0  0
 22 52  1  0  0  0  0
 23 42  1  0  0  0  0
 24 26  2  0  0  0  0
 24 69  1  0  0  0  0
 25 77  1  0  0  0  0
 26 72  1  0  0  0  0
 27 85  1  0  0  0  0
 28 86  1  0  0  0  0
 29 31  2  0  0  0  0
 29 85  1  0  0  0  0
 30 87  1  0  0  0  0
 31 88  1  0  0  0  0
 32 67  2  0  0  0  0
 33 68  1  0  0  0  0
 33 73  1  0  0  0  0
 34 43  1  0  0  0  0
 34 69  1  0  0  0  0
 34 79  2  0  0  0  0
 35 74  1  0  0  0  0
 35 80  2  0  0  0  0
 36 53  1  0  0  0  0
 36 75  1  0  0  0  0
 36 81  2  0  0  0  0
 37 64  1  0  0  0  0
 37 70  1  0  0  0  0
 37 82  2  0  0  0  0
 38 65  1  0  0  0  0
 38 76  1  0  0  0  0
 38 83  2  0  0  0  0
 39 71  1  0  0  0  0
 39 77  1  0  0  0  0
 39 84  2  0  0  0  0
 40 44  1  0  0  0  0
 41 53  1  0  0  0  0
 42 70  1  0  0  0  0
 43 45  1  0  0  0  0
 44 47  1  0  0  0  0
 45 54  1  0  0  0  0
 46 48  1  0  0  0  0
 46 49  1  0  0  0  0
 47 52  1  0  0  0  0
 48 55  1  0  0  0  0
 49 71  1  0  0  0  0
 50 54  1  0  0  0  0
 50 69  1  0  0  0  0
 51 55  1  0  0  0  0
 51 71  1  0  0  0  0
 52 75  1  0  0  0  0
 53 70  1  0  0  0  0
 54 62  1  0  0  0  0
 55 68  1  0  0  0  0
 56 63  1  0  0  0  0
 57 65  1  0  0  0  0
 58 66  1  0  0  0  0
 59 66  1  0  0  0  0
 60 66  1  0  0  0  0
 61 78  1  0  0  0  0
 62 86  1  0  0  0  0
 63 77  1  0  0  0  0
 64 66  1  0  0  0  0
 64 76  1  0  0  0  0
 65 78  1  0  0  0  0
 67 68  1  0  0  0  0
M  CHG  1  78   1
M  ISO  4  39 100  62 101  77 100  86 101
M  END
> <Batch ID>
0093

> <Smiles>
CC[100N:0](c1ccc(N2CC([101CH2:1][101O:1]c3ccc4c(c3)CN(C(=O)C(NC(=O)C(C)NC)C(C)(C)C)C(C(=O)NC3CCCc5ccccc53)C4)CCC2=O)c(N)c1)[100C:0](=O)N1CCCC(n2nc(-c3ccc(Oc4ccc(F)cc4F)cc3)c(C(N)=O)c2N)C1

> <Shape>
0.312

> <Color>
0.101

> <Negative vol penalty>
0.000

$$$$

  -OEChem-04052300373D

 84 92  0     1  0  0  0  0  0999 V2000
  -23.8152  -32.3007   24.8960 C   0  0  0  0  0  0  0  0  0  0  0  0
  -24.4542  -31.4337   24.0154 C   0  0  0  0  0  0  0  0  0  0  0  0
  -23.0594   -9.9455   19.9088 C   0  0  0  0  0  0  0  0  0  0  0  0
  -23.8436   -9.8773   22.1929 C   0  0  0  0  0  0  0  0  0  0  0  0
  -22.9315  -31.7974   25.8497 C   0  0  0  0  0  0  0  0  0  0  0  0
  -24.2107  -30.0627   24.0888 C   0  0  0  0  0  0  0  0  0  0  0  0
  -24.0154  -26.1032   19.4208 C   0  0  0  0  0  0  0  0  0  0  0  0
  -22.3060   -8.7933   20.1329 C   0  0  0  0  0  0  0  0  0  0  0  0
  -23.0901   -8.7250   22.4171 C   0  0  0  0  0  0  0  0  0  0  0  0
  -24.9554  -25.2101   18.9084 C   0  0  0  0  0  0  0  0  0  0  0  0
  -19.3650   -7.9848   21.5924 C   0  0  0  0  0  0  0  0  0  0  0  0
  -18.0526   -7.9663   21.1203 C   0  0  0  0  0  0  0  0  0  0  0  0
  -23.9741  -23.4364   20.2163 C   0  0  0  0  0  0  0  0  0  0  0  0
  -31.6901  -18.3483   20.1784 C   0  0  0  0  0  0  0  0  0  0  0  0
  -30.2717  -20.0897   19.2882 C   0  0  0  0  0  0  0  0  0  0  0  0
  -18.5776   -6.0573   19.7357 C   0  0  0  0  0  0  0  0  0  0  0  0
  -23.8282  -10.4875   20.9387 C   0  0  0  0  0  0  0  0  0  0  0  0
  -24.1956  -13.0115   20.8890 C   0  0  0  0  0  0  0  0  0  0  0  0
  -22.6696  -30.4205   25.9285 C   0  0  0  0  0  0  0  0  0  0  0  0
  -23.0529  -25.6713   20.3446 C   0  0  0  0  0  0  0  0  0  0  0  0
  -23.3236  -29.5403   25.0453 C   0  0  0  0  0  0  0  0  0  0  0  0
  -23.0214  -24.3255   20.7369 C   0  0  0  0  0  0  0  0  0  0  0  0
  -31.4900  -19.4104   19.2967 C   0  0  0  0  0  0  0  0  0  0  0  0
  -30.6719  -17.9652   21.0514 C   0  0  0  0  0  0  0  0  0  0  0  0
  -29.2535  -19.7067   20.1613 C   0  0  0  0  0  0  0  0  0  0  0  0
  -22.3213   -8.1830   21.3871 C   0  0  0  0  0  0  0  0  0  0  0  0
  -24.9367  -23.8771   19.3084 C   0  0  0  0  0  0  0  0  0  0  0  0
  -20.2837   -7.0396   21.1361 C   0  0  0  0  0  0  0  0  0  0  0  0
  -17.6589   -7.0026   20.1920 C   0  0  0  0  0  0  0  0  0  0  0  0
  -19.8900   -6.0758   20.2078 C   0  0  0  0  0  0  0  0  0  0  0  0
  -29.4536  -18.6444   21.0429 C   0  0  0  0  0  0  0  0  0  0  0  0
  -24.6071  -11.6775   20.7076 C   0  0  0  0  0  0  0  0  0  0  0  0
  -25.2917  -13.7600   20.5359 C   0  0  0  0  0  0  0  0  0  0  0  0
  -22.9352  -13.5278   21.3367 C   0  0  0  0  0  0  0  0  0  0  0  0
  -22.3483  -26.4018   23.3568 C   0  0  0  0  0  0  0  0  0  0  0  0
  -19.8252  -24.4310   22.8349 C   0  0  0  0  0  0  0  0  0  0  0  0
  -27.6548  -21.4694   19.3423 C   0  0  0  0  0  0  0  0  0  0  0  0
  -18.4899  -21.8432   21.0552 C   0  0  0  0  0  0  0  0  0  0  0  0
  -30.7877  -14.7165   20.6941 C   0  0  0  0  0  0  0  0  0  0  0  0
  -21.7426  -29.9184   27.0070 C   0  0  0  0  0  0  0  0  0  0  0  0
  -22.0291  -26.6413   20.8675 C   0  0  0  0  0  0  0  0  0  0  0  0
  -21.9960  -23.8071   21.7107 C   0  0  0  0  0  0  0  0  0  0  0  0
  -21.2532  -28.4914   26.7739 C   0  0  0  0  0  0  0  0  0  0  0  0
  -29.5995  -12.4150   18.2511 C   0  0  0  0  0  0  0  0  0  0  0  0
  -22.4169  -27.5845   26.3864 C   0  0  0  0  0  0  0  0  0  0  0  0
  -28.1637  -12.1235   18.6909 C   0  0  0  0  0  0  0  0  0  0  0  0
  -30.5316  -12.5910   19.4479 C   0  0  0  0  0  0  0  0  0  0  0  0
  -28.6526  -13.3005   20.8760 C   0  0  0  0  0  0  0  0  0  0  0  0
  -23.0665  -28.0494   25.0774 C   0  0  1  0  0  0  0  0  0  0  0  0
  -21.4162  -26.2054   22.1948 C   0  0  1  0  0  0  0  0  0  0  0  0
  -27.6642  -13.1707   19.7044 C   0  0  2  0  0  0  0  0  0  0  0  0
  -32.5786  -19.8199   18.3633 C   0  0  0  0  0  0  0  0  0  0  0  0
  -16.4231  -20.4304   20.8828 C   0  0  0  0  0  0  0  0  0  0  0  0
  -20.6740  -22.8893   25.3274 C   0  0  0  0  0  0  0  0  0  0  0  0
  -19.2076  -21.0043   24.5759 C   0  0  0  0  0  0  0  0  0  0  0  0
  -18.2066  -23.2283   25.1002 C   0  0  0  0  0  0  0  0  0  0  0  0
  -17.9793  -22.7241   18.2763 C   0  0  0  0  0  0  0  0  0  0  0  0
  -30.8895  -16.8289   21.9927 C   0  0  0  0  0  0  0  0  0  0  0  0
  -26.2378  -21.9160   19.6507 C   0  0  0  0  0  0  0  0  0  1  0  0
  -19.5744  -22.9507   22.9921 C   0  0  1  0  0  0  0  0  0  0  0  0
  -17.1399  -21.6746   20.3817 C   0  0  2  0  0  0  0  0  0  0  0  0
  -19.4363  -22.5280   24.4820 C   0  0  0  0  0  0  0  0  0  0  0  0
  -25.8664  -11.5809   20.2729 N   0  0  0  0  0  0  0  0  0  0  0  0
  -26.2555  -12.8638   20.1781 N   0  0  0  0  0  0  0  0  0  0  0  0
  -21.0202  -24.7957   22.1986 N   0  0  0  0  0  0  0  0  0  0  0  0
  -30.0015  -13.5986   20.3696 N   0  0  0  0  0  0  0  0  0  0  0  0
  -25.5155  -15.0908   20.4996 N   0  0  0  0  0  0  0  0  0  0  0  0
  -21.9173  -12.6196   21.6582 N   0  0  0  0  0  0  0  0  0  0  0  0
  -28.0186  -20.3976   20.1503 N   0  0  0  0  0  0  0  0  0  0  0  0
  -22.2607  -27.6498   23.9436 N   0  0  0  0  0  0  0  0  0  0  0  0
  -18.4060  -22.6453   22.1736 N   0  0  0  0  0  0  0  0  0  0  0  0
  -30.2074  -15.6262   21.5695 N   0  0  0  0  0  0  0  0  0  0  0  0
  -17.3085  -21.5575   18.9057 N   0  3  0  0  0  0  0  0  0  0  0  0
  -22.7126  -14.7586   21.4326 O   0  0  0  0  0  0  0  0  0  0  0  0
  -23.0908  -25.4881   23.6969 O   0  0  0  0  0  0  0  0  0  0  0  0
  -18.9882  -25.2341   23.2545 O   0  0  0  0  0  0  0  0  0  0  0  0
  -28.3308  -22.0251   18.4828 O   0  0  0  0  0  0  0  0  0  0  0  0
  -19.5155  -21.3131   20.6336 O   0  0  0  0  0  0  0  0  0  0  0  0
  -31.9205  -14.8935   20.2335 O   0  0  0  0  0  0  0  0  0  0  0  0
  -21.5861   -7.0588   21.6063 O   0  0  0  0  0  0  0  0  0  0  0  0
  -25.8534  -23.0034   18.8103 O   0  0  0  0  0  0  0  0  0  1  0  0
  -16.3982   -6.9840   19.7399 F   0  0  0  0  0  0  0  0  0  0  0  0
  -20.7678   -5.1644   19.7666 F   0  0  0  0  0  0  0  0  0  0  0  0
  -28.4755  -18.2746   21.8834 F   0  0  0  0  0  0  0  0  0  0  0  0
  1  2  1  0  0  0  0
  1  5  2  0  0  0  0
  2  6  2  0  0  0  0
  3  8  2  0  0  0  0
  3 17  1  0  0  0  0
  4  9  1  0  0  0  0
  4 17  2  0  0  0  0
  5 19  1  0  0  0  0
  6 21  1  0  0  0  0
  7 10  2  0  0  0  0
  7 20  1  0  0  0  0
  8 26  1  0  0  0  0
  9 26  2  0  0  0  0
 10 27  1  0  0  0  0
 11 12  2  0  0  0  0
 11 28  1  0  0  0  0
 12 29  1  0  0  0  0
 13 22  1  0  0  0  0
 13 27  2  0  0  0  0
 14 23  1  0  0  0  0
 14 24  2  0  0  0  0
 15 23  2  0  0  0  0
 15 25  1  0  0  0  0
 16 29  2  0  0  0  0
 16 30  1  0  0  0  0
 17 32  1  0  0  0  0
 18 32  1  0  0  0  0
 18 33  2  0  0  0  0
 18 34  1  0  0  0  0
 19 21  2  0  0  0  0
 19 40  1  0  0  0  0
 20 22  2  0  0  0  0
 20 41  1  0  0  0  0
 21 49  1  0  0  0  0
 22 42  1  0  0  0  0
 23 52  1  0  0  0  0
 24 31  1  0  0  0  0
 24 58  1  0  0  0  0
 25 31  2  0  0  0  0
 25 69  1  0  0  0  0
 26 80  1  0  0  0  0
 27 81  1  0  0  0  0
 28 30  2  0  0  0  0
 28 80  1  0  0  0  0
 29 82  1  0  0  0  0
 30 83  1  0  0  0  0
 31 84  1  0  0  0  0
 32 63  2  0  0  0  0
 33 64  1  0  0  0  0
 33 67  1  0  0  0  0
 34 68  1  0  0  0  0
 34 74  2  0  0  0  0
 35 50  1  0  0  0  0
 35 70  1  0  0  0  0
 35 75  2  0  0  0  0
 36 60  1  0  0  0  0
 36 65  1  0  0  0  0
 36 76  2  0  0  0  0
 37 59  1  0  0  0  0
 37 69  1  0  0  0  0
 37 77  2  0  0  0  0
 38 61  1  0  0  0  0
 38 71  1  0  0  0  0
 38 78  2  0  0  0  0
 39 66  1  0  0  0  0
 39 72  1  0  0  0  0
 39 79  2  0  0  0  0
 40 43  1  0  0  0  0
 41 50  1  0  0  0  0
 42 65  1  0  0  0  0
 43 45  1  0  0  0  0
 44 46  1  0  0  0  0
 44 47  1  0  0  0  0
 45 49  1  0  0  0  0
 46 51  1  0  0  0  0
 47 66  1  0  0  0  0
 48 51  1  0  0  0  0
 48 66  1  0  0  0  0
 49 70  1  0  0  0  0
 50 65  1  0  0  0  0
 51 64  1  0  0  0  0
 53 61  1  0  0  0  0
 54 62  1  0  0  0  0
 55 62  1  0  0  0  0
 56 62  1  0  0  0  0
 57 73  1  0  0  0  0
 58 72  1  0  0  0  0
 59 81  1  0  0  0  0
 60 62  1  0  0  0  0
 60 71  1  0  0  0  0
 61 73  1  0  0  0  0
 63 64  1  0  0  0  0
M  CHG  1  73   1
M  ISO  4  39 100  59 101  72 100  81 101
M  END
> <Batch ID>
0093

> <Smiles>
CNC(C)C(=O)NC(C(=O)N1Cc2cc([101O:1][101CH2:1]C(=O)Nc3cc(C)cc(C[100NH:0][100C:0](=O)N4CCCC(n5nc(-c6ccc(Oc7ccc(F)cc7F)cc6)c(C(N)=O)c5N)C4)c3F)ccc2CC1C(=O)NC1CCCc2ccccc21)C(C)(C)C

> <Shape>
0.224

> <Color>
0.196

> <Negative vol penalty>
0.000

$$$$

  -OEChem-04052300373D

 87 96  0     1  0  0  0  0  0999 V2000
  -24.0650  -29.0385   13.8859 C   0  0  0  0  0  0  0  0  0  0  0  0
  -25.1948  -28.5670   14.5467 C   0  0  0  0  0  0  0  0  0  0  0  0
  -24.9150  -10.4121   23.6602 C   0  0  0  0  0  0  0  0  0  0  0  0
  -24.5720   -9.2145   21.5902 C   0  0  0  0  0  0  0  0  0  0  0  0
  -23.3501  -30.1143   14.4107 C   0  0  0  0  0  0  0  0  0  0  0  0
  -25.6111  -29.1719   15.7321 C   0  0  0  0  0  0  0  0  0  0  0  0
  -26.8583  -25.8010   19.2995 C   0  0  0  0  0  0  0  0  0  0  0  0
  -24.6043   -9.2581   24.3794 C   0  0  0  0  0  0  0  0  0  0  0  0
  -24.2613   -8.0604   22.3094 C   0  0  0  0  0  0  0  0  0  0  0  0
  -28.1035  -25.1844   19.1854 C   0  0  0  0  0  0  0  0  0  0  0  0
  -21.6080   -6.8127   23.9928 C   0  0  0  0  0  0  0  0  0  0  0  0
  -20.4963   -6.0751   23.5859 C   0  0  0  0  0  0  0  0  0  0  0  0
  -28.9999  -26.7038   20.8307 C   0  0  0  0  0  0  0  0  0  0  0  0
  -30.0448  -19.7714   21.0860 C   0  0  0  0  0  0  0  0  0  0  0  0
  -31.4098  -17.9938   19.4248 C   0  0  0  0  0  0  0  0  0  0  0  0
  -21.9122   -4.1570   23.1943 C   0  0  0  0  0  0  0  0  0  0  0  0
  -24.8988  -10.3903   22.2656 C   0  0  0  0  0  0  0  0  0  0  0  0
  -24.5503  -12.8201   21.5709 C   0  0  0  0  0  0  0  0  0  0  0  0
  -23.7522  -30.7265   15.6082 C   0  0  0  0  0  0  0  0  0  0  0  0
  -26.6770  -26.8825   20.1736 C   0  0  0  0  0  0  0  0  0  0  0  0
  -24.9017  -30.2579   16.2727 C   0  0  0  0  0  0  0  0  0  0  0  0
  -27.7508  -27.3308   20.9560 C   0  0  0  0  0  0  0  0  0  0  0  0
  -31.3533  -20.0503   20.6915 C   0  0  0  0  0  0  0  0  0  0  0  0
  -32.0358  -19.1616   19.8609 C   0  0  0  0  0  0  0  0  0  0  0  0
  -30.1013  -17.7149   19.8193 C   0  0  0  0  0  0  0  0  0  0  0  0
  -24.2775   -8.0822   23.7040 C   0  0  0  0  0  0  0  0  0  0  0  0
  -29.1753  -25.6376   19.9489 C   0  0  0  0  0  0  0  0  0  0  0  0
  -22.8719   -6.2225   24.0004 C   0  0  0  0  0  0  0  0  0  0  0  0
  -20.6483   -4.7473   23.1867 C   0  0  0  0  0  0  0  0  0  0  0  0
  -29.4188  -18.6036   20.6499 C   0  0  0  0  0  0  0  0  0  0  0  0
  -23.0239   -4.8946   23.6012 C   0  0  0  0  0  0  0  0  0  0  0  0
  -25.2191  -11.5823   21.5221 C   0  0  0  0  0  0  0  0  0  0  0  0
  -25.2368  -13.6163   20.6871 C   0  0  0  0  0  0  0  0  0  0  0  0
  -33.1573  -21.2202   21.9273 C   0  0  0  0  0  0  0  0  0  0  0  0
  -23.4105  -13.2148   22.3460 C   0  0  0  0  0  0  0  0  0  0  0  0
  -25.8615  -29.9351   19.8262 C   0  0  0  0  0  0  0  0  0  0  0  0
  -25.8656  -29.9010   23.0698 C   0  0  0  0  0  0  0  0  0  0  0  0
  -27.9247  -28.5107   25.6861 C   0  0  0  0  0  0  0  0  0  0  0  0
  -30.0079  -15.5380   18.5548 C   0  0  0  0  0  0  0  0  0  0  0  0
  -22.9748  -31.9168   16.1117 C   0  0  0  0  0  0  0  0  0  0  0  0
  -25.3208  -27.5196   20.3048 C   0  0  0  0  0  0  0  0  0  0  0  0
  -27.6033  -28.4751   21.9241 C   0  0  0  0  0  0  0  0  0  0  0  0
  -33.9033  -22.5298   22.1002 C   0  0  0  0  0  0  0  0  0  0  0  0
  -23.2660  -32.2619   17.5700 C   0  0  0  0  0  0  0  0  0  0  0  0
  -33.0117  -23.7480   22.1995 C   0  0  0  0  0  0  0  0  0  0  0  0
  -28.7873  -12.4483   17.2737 C   0  0  0  0  0  0  0  0  0  0  0  0
  -24.7691  -32.2591   17.8293 C   0  0  0  0  0  0  0  0  0  0  0  0
  -27.6952  -12.0494   18.2688 C   0  0  0  0  0  0  0  0  0  0  0  0
  -29.9685  -13.1235   17.9685 C   0  0  0  0  0  0  0  0  0  0  0  0
  -31.2333  -22.5256   20.9804 C   0  0  0  0  0  0  0  0  0  0  0  0
  -28.5238  -13.8627   19.8220 C   0  0  0  0  0  0  0  0  0  0  0  0
  -25.3704  -30.8718   17.5740 C   0  0  1  0  0  0  0  0  0  0  0  0
  -25.3798  -28.9440   20.8477 C   0  0  1  0  0  0  0  0  0  0  0  0
  -32.0962  -23.7866   20.9871 C   0  0  1  0  0  0  0  0  0  0  0  0
  -27.2846  -13.2372   19.1610 C   0  0  2  0  0  0  0  0  0  0  0  0
  -27.3474  -27.8414   28.0347 C   0  0  0  0  0  0  0  0  0  0  0  0
  -26.8002  -32.7141   23.7929 C   0  0  0  0  0  0  0  0  0  0  0  0
  -27.8275  -31.7639   25.8689 C   0  0  0  0  0  0  0  0  0  0  0  0
  -25.3620  -31.6166   25.5196 C   0  0  0  0  0  0  0  0  0  0  0  0
  -28.9648  -25.7693   25.2840 C   0  0  0  0  0  0  0  0  0  0  0  0
  -31.2244  -25.0406   20.9980 C   0  0  0  0  0  0  0  0  0  1  0  0
  -26.8986  -30.1576   24.1404 C   0  0  1  0  0  0  0  0  0  0  0  0
  -27.5672  -27.3597   26.6091 C   0  0  2  0  0  0  0  0  0  0  0  0
  -26.7294  -31.5531   24.8048 C   0  0  0  0  0  0  0  0  0  0  0  0
  -26.2511  -11.5869   20.6742 N   0  0  0  0  0  0  0  0  0  0  0  0
  -26.2359  -12.8373   20.1820 N   0  0  0  0  0  0  0  0  0  0  0  0
  -31.9814  -21.2678   21.1588 N   0  0  0  0  0  0  0  0  0  0  0  0
  -26.2591  -29.0692   22.0119 N   0  0  0  0  0  0  0  0  0  0  0  0
  -29.5039  -14.2417   18.7923 N   0  0  0  0  0  0  0  0  0  0  0  0
  -33.3628  -19.4229   19.4521 N   0  0  0  0  0  0  0  0  0  0  0  0
  -25.0772  -14.8999   20.3004 N   0  0  0  0  0  0  0  0  0  0  0  0
  -22.1338  -13.0318   21.7976 N   0  0  0  0  0  0  0  0  0  0  0  0
  -29.4690  -16.5260   19.3782 N   0  0  0  0  0  0  0  0  0  0  0  0
  -25.0869  -29.9862   18.6830 N   0  0  0  0  0  0  0  0  0  0  0  0
  -26.8088  -29.0378   25.0711 N   0  0  0  0  0  0  0  0  0  0  0  0
  -28.6588  -26.3453   26.6188 N   0  3  0  0  0  0  0  0  0  0  0  0
  -33.6542  -20.2013   22.4147 O   0  0  0  0  0  0  0  0  0  0  0  0
  -23.5217  -13.7302   23.4842 O   0  0  0  0  0  0  0  0  0  0  0  0
  -26.8610  -30.6048   20.0586 O   0  0  0  0  0  0  0  0  0  0  0  0
  -24.7483  -30.4136   23.1722 O   0  0  0  0  0  0  0  0  0  0  0  0
  -29.0780  -28.9053   25.5293 O   0  0  0  0  0  0  0  0  0  0  0  0
  -30.8351  -15.7601   17.6668 O   0  0  0  0  0  0  0  0  0  0  0  0
  -23.9745   -6.9558   24.4055 O   0  0  0  0  0  0  0  0  0  0  0  0
  -30.3919  -25.0380   19.8389 O   0  0  0  0  0  0  0  0  0  1  0  0
  -19.5804   -4.0386   22.7974 F   0  0  0  0  0  0  0  0  0  0  0  0
  -28.1611  -18.3456   21.0359 F   0  0  0  0  0  0  0  0  0  0  0  0
  -24.2354   -4.3218   23.6076 F   0  0  0  0  0  0  0  0  0  0  0  0
  1  2  1  0  0  0  0
  1  5  2  0  0  0  0
  2  6  2  0  0  0  0
  3  8  2  0  0  0  0
  3 17  1  0  0  0  0
  4  9  1  0  0  0  0
  4 17  2  0  0  0  0
  5 19  1  0  0  0  0
  6 21  1  0  0  0  0
  7 10  2  0  0  0  0
  7 20  1  0  0  0  0
  8 26  1  0  0  0  0
  9 26  2  0  0  0  0
 10 27  1  0  0  0  0
 11 12  2  0  0  0  0
 11 28  1  0  0  0  0
 12 29  1  0  0  0  0
 13 22  1  0  0  0  0
 13 27  2  0  0  0  0
 14 23  1  0  0  0  0
 14 30  2  0  0  0  0
 15 24  1  0  0  0  0
 15 25  2  0  0  0  0
 16 29  2  0  0  0  0
 16 31  1  0  0  0  0
 17 32  1  0  0  0  0
 18 32  1  0  0  0  0
 18 33  2  0  0  0  0
 18 35  1  0  0  0  0
 19 21  2  0  0  0  0
 19 40  1  0  0  0  0
 20 22  2  0  0  0  0
 20 41  1  0  0  0  0
 21 52  1  0  0  0  0
 22 42  1  0  0  0  0
 23 24  2  0  0  0  0
 23 67  1  0  0  0  0
 24 70  1  0  0  0  0
 25 30  1  0  0  0  0
 25 73  1  0  0  0  0
 26 83  1  0  0  0  0
 27 84  1  0  0  0  0
 28 31  2  0  0  0  0
 28 83  1  0  0  0  0
 29 85  1  0  0  0  0
 30 86  1  0  0  0  0
 31 87  1  0  0  0  0
 32 65  2  0  0  0  0
 33 66  1  0  0  0  0
 33 71  1  0  0  0  0
 34 43  1  0  0  0  0
 34 67  1  0  0  0  0
 34 77  2  0  0  0  0
 35 72  1  0  0  0  0
 35 78  2  0  0  0  0
 36 53  1  0  0  0  0
 36 74  1  0  0  0  0
 36 79  2  0  0  0  0
 37 62  1  0  0  0  0
 37 68  1  0  0  0  0
 37 80  2  0  0  0  0
 38 63  1  0  0  0  0
 38 75  1  0  0  0  0
 38 81  2  0  0  0  0
 39 69  1  0  0  0  0
 39 73  1  0  0  0  0
 39 82  2  0  0  0  0
 40 44  1  0  0  0  0
 41 53  1  0  0  0  0
 42 68  1  0  0  0  0
 43 45  1  0  0  0  0
 44 47  1  0  0  0  0
 45 54  1  0  0  0  0
 46 48  1  0  0  0  0
 46 49  1  0  0  0  0
 47 52  1  0  0  0  0
 48 55  1  0  0  0  0
 49 69  1  0  0  0  0
 50 54  1  0  0  0  0
 50 67  1  0  0  0  0
 51 55  1  0  0  0  0
 51 69  1  0  0  0  0
 52 74  1  0  0  0  0
 53 68  1  0  0  0  0
 54 61  1  0  0  0  0
 55 66  1  0  0  0  0
 56 63  1  0  0  0  0
 57 64  1  0  0  0  0
 58 64  1  0  0  0  0
 59 64  1  0  0  0  0
 60 76  1  0  0  0  0
 61 84  1  0  0  0  0
 62 64  1  0  0  0  0
 62 75  1  0  0  0  0
 63 76  1  0  0  0  0
 65 66  1  0  0  0  0
M  CHG  1  76   1
M  ISO  4  39 100  61 101  73 100  84 101
M  END
> <Batch ID>
0093

> <Smiles>
CNC(C)C(=O)NC(C(=O)N1Cc2cc([101O:1][101CH2:1]C3CCC(=O)N(c4cc(F)c([100NH:0][100C:0](=O)N5CCCC(n6nc(-c7ccc(Oc8ccc(F)cc8F)cc7)c(C(N)=O)c6N)C5)cc4N)C3)ccc2CC1C(=O)NC1CCCc2ccccc21)C(C)(C)C

> <Shape>
0.263

> <Color>
0.141

> <Negative vol penalty>
0.000

$$$$

  -OEChem-04052300373D

 87 95  0     1  0  0  0  0  0999 V2000
  -17.3467  -11.1039   21.3554 C   0  0  0  0  0  0  0  0  0  0  0  0
  -17.7099  -12.4336   21.1671 C   0  0  0  0  0  0  0  0  0  0  0  0
  -27.6096  -24.7382   21.1534 C   0  0  0  0  0  0  0  0  0  0  0  0
  -28.7583  -25.8661   19.3519 C   0  0  0  0  0  0  0  0  0  0  0  0
  -18.2067  -10.2359   22.0270 C   0  0  0  0  0  0  0  0  0  0  0  0
  -18.9329  -12.8964   21.6514 C   0  0  0  0  0  0  0  0  0  0  0  0
  -22.5446  -17.1261   19.0881 C   0  0  0  0  0  0  0  0  0  0  0  0
  -22.2053  -25.8169   23.7266 C   0  0  0  0  0  0  0  0  0  0  0  0
  -22.4548  -24.6666   22.9783 C   0  0  0  0  0  0  0  0  0  0  0  0
  -27.9425  -23.5048   20.5934 C   0  0  0  0  0  0  0  0  0  0  0  0
  -29.0913  -24.6327   18.7919 C   0  0  0  0  0  0  0  0  0  0  0  0
  -22.7152  -18.4878   19.3343 C   0  0  0  0  0  0  0  0  0  0  0  0
  -30.6486  -21.4824   20.4519 C   0  0  0  0  0  0  0  0  0  0  0  0
  -31.1296  -20.4910   21.3070 C   0  0  0  0  0  0  0  0  0  0  0  0
  -24.6072  -17.9895   20.7454 C   0  0  0  0  0  0  0  0  0  0  0  0
  -20.0268  -26.0121   22.7003 C   0  0  0  0  0  0  0  0  0  0  0  0
  -29.2822  -19.0618   20.6890 C   0  0  0  0  0  0  0  0  0  0  0  0
  -28.0175  -25.9188   20.5325 C   0  0  0  0  0  0  0  0  0  0  0  0
  -28.4203  -27.9310   22.0480 C   0  0  0  0  0  0  0  0  0  0  0  0
  -19.4451  -10.6860   22.5112 C   0  0  0  0  0  0  0  0  0  0  0  0
  -23.3989  -16.1836   19.6784 C   0  0  0  0  0  0  0  0  0  0  0  0
  -19.8097  -12.0340   22.3312 C   0  0  0  0  0  0  0  0  0  0  0  0
  -24.4470  -16.6167   20.5031 C   0  0  0  0  0  0  0  0  0  0  0  0
  -20.9913  -26.4897   23.5877 C   0  0  0  0  0  0  0  0  0  0  0  0
  -21.4904  -24.1890   22.0909 C   0  0  0  0  0  0  0  0  0  0  0  0
  -28.6833  -23.4520   19.4128 C   0  0  0  0  0  0  0  0  0  0  0  0
  -23.7448  -18.9195   20.1653 C   0  0  0  0  0  0  0  0  0  0  0  0
  -29.4844  -21.2636   19.7154 C   0  0  0  0  0  0  0  0  0  0  0  0
  -30.4464  -19.2806   21.4255 C   0  0  0  0  0  0  0  0  0  0  0  0
  -20.2764  -24.8617   21.9519 C   0  0  0  0  0  0  0  0  0  0  0  0
  -28.8012  -20.0533   19.8339 C   0  0  0  0  0  0  0  0  0  0  0  0
  -27.6734  -27.1932   21.1101 C   0  0  0  0  0  0  0  0  0  0  0  0
  -27.6696  -29.0587   22.2743 C   0  0  0  0  0  0  0  0  0  0  0  0
  -29.6802  -27.6243   22.6600 C   0  0  0  0  0  0  0  0  0  0  0  0
  -23.0129  -13.7664   21.7062 C   0  0  0  0  0  0  0  0  0  0  0  0
  -26.1481  -13.2372   21.0635 C   0  0  0  0  0  0  0  0  0  0  0  0
  -22.8936  -22.2360   21.3488 C   0  0  0  0  0  0  0  0  0  0  0  0
  -20.5493  -28.9490   23.4716 C   0  0  0  0  0  0  0  0  0  0  0  0
  -29.1445  -14.4955   20.0218 C   0  0  0  0  0  0  0  0  0  0  0  0
  -21.7879  -30.1802   21.7137 C   0  0  0  0  0  0  0  0  0  0  0  0
  -20.3205   -9.7222   23.2725 C   0  0  0  0  0  0  0  0  0  0  0  0
  -23.2181  -14.7202   19.3815 C   0  0  0  0  0  0  0  0  0  0  0  0
  -25.4038  -15.6466   21.1448 C   0  0  0  0  0  0  0  0  0  0  0  0
  -21.7623  -10.1998   23.4258 C   0  0  0  0  0  0  0  0  0  0  0  0
  -24.4912  -31.9398   20.1767 C   0  0  0  0  0  0  0  0  0  0  0  0
  -21.7970  -11.6599   23.8663 C   0  0  0  0  0  0  0  0  0  0  0  0
  -25.6758  -30.9832   20.2958 C   0  0  0  0  0  0  0  0  0  0  0  0
  -23.1914  -31.1810   19.9340 C   0  0  0  0  0  0  0  0  0  0  0  0
  -24.0734  -29.1861   21.1061 C   0  0  0  0  0  0  0  0  0  0  0  0
  -21.1387  -12.5675   22.8201 C   0  0  1  0  0  0  0  0  0  0  0  0
  -23.8297  -13.8146   20.4459 C   0  0  1  0  0  0  0  0  0  0  0  0
  -25.4080  -29.9110   21.3650 C   0  0  1  0  0  0  0  0  0  0  0  0
  -19.6141  -26.4597   26.3181 C   0  0  0  0  0  0  0  0  0  0  0  0
  -31.5335  -13.8306   19.6370 C   0  0  0  0  0  0  0  0  0  0  0  0
  -26.6451  -13.2902   24.0735 C   0  0  0  0  0  0  0  0  0  0  0  0
  -29.0857  -13.5778   23.5951 C   0  0  0  0  0  0  0  0  0  0  0  0
  -27.9030  -11.5155   22.8395 C   0  0  0  0  0  0  0  0  0  0  0  0
  -28.9845  -15.1518   17.1404 C   0  0  0  0  0  0  0  0  0  0  0  0
  -22.7599  -21.0732   20.3831 C   0  0  0  0  0  0  0  0  0  1  0  0
  -19.4989  -27.6229   25.3391 C   0  0  0  0  0  0  0  0  0  0  0  0
  -20.7192  -27.7457   24.4033 C   0  0  1  0  0  0  0  0  0  0  0  0
  -27.4549  -13.7049   21.6572 C   0  0  1  0  0  0  0  0  0  0  0  0
  -30.1556  -13.9835   19.0119 C   0  0  2  0  0  0  0  0  0  0  0  0
  -27.7531  -13.0405   23.0309 C   0  0  0  0  0  0  0  0  0  0  0  0
  -26.5354  -27.8011   20.7644 N   0  0  0  0  0  0  0  0  0  0  0  0
  -26.5616  -28.9326   21.4890 N   0  0  0  0  0  0  0  0  0  0  0  0
  -25.1819  -14.2258   20.8290 N   0  0  0  0  0  0  0  0  0  0  0  0
  -22.9735  -30.1542   20.9559 N   0  0  0  0  0  0  0  0  0  0  0  0
  -27.8557  -30.1358   23.0664 N   0  0  0  0  0  0  0  0  0  0  0  0
  -30.3160  -26.4239   22.3148 N   0  0  0  0  0  0  0  0  0  0  0  0
  -21.7428  -23.0383   21.3432 N   0  0  0  0  0  0  0  0  0  0  0  0
  -22.0363  -12.7889   21.7066 N   0  0  0  0  0  0  0  0  0  0  0  0
  -21.6540  -29.1402   22.6386 N   0  0  0  0  0  0  0  0  0  0  0  0
  -28.4744  -13.4624   20.6423 N   0  0  0  0  0  0  0  0  0  0  0  0
  -30.2629  -14.9264   17.8628 N   0  3  0  0  0  0  0  0  0  0  0  0
  -30.2180  -28.3843   23.5006 O   0  0  0  0  0  0  0  0  0  0  0  0
  -23.2521  -14.5566   22.6117 O   0  0  0  0  0  0  0  0  0  0  0  0
  -25.9930  -12.0400   20.8102 O   0  0  0  0  0  0  0  0  0  0  0  0
  -23.9062  -22.3993   22.0214 O   0  0  0  0  0  0  0  0  0  0  0  0
  -19.5532  -29.6696   23.4992 O   0  0  0  0  0  0  0  0  0  0  0  0
  -28.9695  -15.6920   20.2413 O   0  0  0  0  0  0  0  0  0  0  0  0
  -20.9104  -31.0353   21.5596 O   0  0  0  0  0  0  0  0  0  0  0  0
  -29.0086  -22.2486   18.8662 O   0  0  0  0  0  0  0  0  0  0  0  0
  -23.9149  -20.2617   20.4103 O   0  0  0  0  0  0  0  0  0  1  0  0
  -30.9093  -18.3280   22.2456 F   0  0  0  0  0  0  0  0  0  0  0  0
  -19.3428  -24.4125   21.1010 F   0  0  0  0  0  0  0  0  0  0  0  0
  -27.6829  -19.8368   19.1280 F   0  0  0  0  0  0  0  0  0  0  0  0
  1  2  1  0  0  0  0
  1  5  2  0  0  0  0
  2  6  2  0  0  0  0
  3 10  2  0  0  0  0
  3 18  1  0  0  0  0
  4 11  1  0  0  0  0
  4 18  2  0  0  0  0
  5 20  1  0  0  0  0
  6 22  1  0  0  0  0
  7 12  2  0  0  0  0
  7 21  1  0  0  0  0
  8  9  2  0  0  0  0
  8 24  1  0  0  0  0
  9 25  1  0  0  0  0
 10 26  1  0  0  0  0
 11 26  2  0  0  0  0
 12 27  1  0  0  0  0
 13 14  2  0  0  0  0
 13 28  1  0  0  0  0
 14 29  1  0  0  0  0
 15 23  1  0  0  0  0
 15 27  2  0  0  0  0
 16 24  2  0  0  0  0
 16 30  1  0  0  0  0
 17 29  2  0  0  0  0
 17 31  1  0  0  0  0
 18 32  1  0  0  0  0
 19 32  1  0  0  0  0
 19 33  2  0  0  0  0
 19 34  1  0  0  0  0
 20 22  2  0  0  0  0
 20 41  1  0  0  0  0
 21 23  2  0  0  0  0
 21 42  1  0  0  0  0
 22 50  1  0  0  0  0
 23 43  1  0  0  0  0
 24 61  1  0  0  0  0
 25 30  2  0  0  0  0
 25 71  1  0  0  0  0
 26 83  1  0  0  0  0
 27 84  1  0  0  0  0
 28 31  2  0  0  0  0
 28 83  1  0  0  0  0
 29 85  1  0  0  0  0
 30 86  1  0  0  0  0
 31 87  1  0  0  0  0
 32 65  2  0  0  0  0
 33 66  1  0  0  0  0
 33 69  1  0  0  0  0
 34 70  1  0  0  0  0
 34 76  2  0  0  0  0
 35 51  1  0  0  0  0
 35 72  1  0  0  0  0
 35 77  2  0  0  0  0
 36 62  1  0  0  0  0
 36 67  1  0  0  0  0
 36 78  2  0  0  0  0
 37 59  1  0  0  0  0
 37 71  1  0  0  0  0
 37 79  2  0  0  0  0
 38 61  1  0  0  0  0
 38 73  1  0  0  0  0
 38 80  2  0  0  0  0
 39 63  1  0  0  0  0
 39 74  1  0  0  0  0
 39 81  2  0  0  0  0
 40 68  1  0  0  0  0
 40 73  1  0  0  0  0
 40 82  2  0  0  0  0
 41 44  1  0  0  0  0
 42 51  1  0  0  0  0
 43 67  1  0  0  0  0
 44 46  1  0  0  0  0
 45 47  1  0  0  0  0
 45 48  1  0  0  0  0
 46 50  1  0  0  0  0
 47 52  1  0  0  0  0
 48 68  1  0  0  0  0
 49 52  1  0  0  0  0
 49 68  1  0  0  0  0
 50 72  1  0  0  0  0
 51 67  1  0  0  0  0
 52 66  1  0  0  0  0
 53 60  1  0  0  0  0
 54 63  1  0  0  0  0
 55 64  1  0  0  0  0
 56 64  1  0  0  0  0
 57 64  1  0  0  0  0
 58 75  1  0  0  0  0
 59 84  1  0  0  0  0
 60 61  1  0  0  0  0
 62 64  1  0  0  0  0
 62 74  1  0  0  0  0
 63 75  1  0  0  0  0
 65 66  1  0  0  0  0
M  CHG  1  75   1
M  ISO  4  40 100  59 101  73 100  84 101
M  END
> <Batch ID>
0093

> <Smiles>
CCC(C(=O)[100NH:0][100C:0](=O)N1CCCC(n2nc(-c3ccc(Oc4ccc(F)cc4F)cc3)c(C(N)=O)c2N)C1)c1ccc(NC(=O)[101CH2:1][101O:1]c2ccc3c(c2)CN(C(=O)C(NC(=O)C(C)NC)C(C)(C)C)C(C(=O)NC2CCCc4ccccc42)C3)c(F)c1

> <Shape>
0.247

> <Color>
0.070

> <Negative vol penalty>
0.000

$$$$

  -OEChem-04052300373D

 87 96  0     1  0  0  0  0  0999 V2000
  -29.7695  -33.1028   24.5486 C   0  0  0  0  0  0  0  0  0  0  0  0
  -29.5466  -31.8145   24.0732 C   0  0  0  0  0  0  0  0  0  0  0  0
  -23.0428  -10.0108   19.8545 C   0  0  0  0  0  0  0  0  0  0  0  0
  -24.0416   -9.6288   22.0210 C   0  0  0  0  0  0  0  0  0  0  0  0
  -28.7009  -33.8667   25.0161 C   0  0  0  0  0  0  0  0  0  0  0  0
  -28.2550  -31.2890   24.0659 C   0  0  0  0  0  0  0  0  0  0  0  0
  -27.1438  -28.9254   19.7273 C   0  0  0  0  0  0  0  0  0  0  0  0
  -31.4169  -18.6298   20.6647 C   0  0  0  0  0  0  0  0  0  0  0  0
  -31.1178  -19.8027   19.9716 C   0  0  0  0  0  0  0  0  0  0  0  0
  -22.3482   -8.8060   19.9623 C   0  0  0  0  0  0  0  0  0  0  0  0
  -23.3469   -8.4240   22.1288 C   0  0  0  0  0  0  0  0  0  0  0  0
  -27.6592  -27.6420   19.5512 C   0  0  0  0  0  0  0  0  0  0  0  0
  -20.2141   -7.4173   22.8985 C   0  0  0  0  0  0  0  0  0  0  0  0
  -19.5864   -7.1393   24.1127 C   0  0  0  0  0  0  0  0  0  0  0  0
  -25.5260  -26.7059   20.1776 C   0  0  0  0  0  0  0  0  0  0  0  0
  -28.9592  -19.8913   21.0533 C   0  0  0  0  0  0  0  0  0  0  0  0
  -29.2163  -23.0333   17.8075 C   0  0  0  0  0  0  0  0  0  0  0  0
  -20.9298   -5.1453   24.3506 C   0  0  0  0  0  0  0  0  0  0  0  0
  -23.8896  -10.4222   20.8839 C   0  0  0  0  0  0  0  0  0  0  0  0
  -24.1763  -12.9377   21.1962 C   0  0  0  0  0  0  0  0  0  0  0  0
  -27.3942  -33.3538   25.0056 C   0  0  0  0  0  0  0  0  0  0  0  0
  -25.8165  -29.1088   20.1410 C   0  0  0  0  0  0  0  0  0  0  0  0
  -27.1681  -32.0462   24.5349 C   0  0  0  0  0  0  0  0  0  0  0  0
  -24.9954  -27.9927   20.3556 C   0  0  0  0  0  0  0  0  0  0  0  0
  -30.4872  -18.0876   21.5520 C   0  0  0  0  0  0  0  0  0  0  0  0
  -29.2584  -18.7183   21.7463 C   0  0  0  0  0  0  0  0  0  0  0  0
  -29.0665  -23.7237   19.0356 C   0  0  0  0  0  0  0  0  0  0  0  0
  -29.8889  -20.4335   20.1660 C   0  0  0  0  0  0  0  0  0  0  0  0
  -22.5002   -8.0126   21.0994 C   0  0  0  0  0  0  0  0  0  0  0  0
  -26.8512  -26.5319   19.7792 C   0  0  0  0  0  0  0  0  0  0  0  0
  -21.1996   -6.5593   22.4102 C   0  0  0  0  0  0  0  0  0  0  0  0
  -19.9442   -6.0033   24.8388 C   0  0  0  0  0  0  0  0  0  0  0  0
  -21.5574   -5.4233   23.1363 C   0  0  0  0  0  0  0  0  0  0  0  0
  -24.6078  -11.6663   20.7729 C   0  0  0  0  0  0  0  0  0  0  0  0
  -29.3036  -22.8195   20.0473 C   0  0  0  0  0  0  0  0  0  0  0  0
  -25.2117  -13.7785   20.8681 C   0  0  0  0  0  0  0  0  0  0  0  0
  -29.5402  -21.7282   18.1062 C   0  0  0  0  0  0  0  0  0  0  0  0
  -22.9494  -13.3241   21.8295 C   0  0  0  0  0  0  0  0  0  0  0  0
  -24.4180  -30.4268   22.6729 C   0  0  0  0  0  0  0  0  0  0  0  0
  -21.7055  -29.8357   20.9949 C   0  0  0  0  0  0  0  0  0  0  0  0
  -20.1298  -27.9997   18.5881 C   0  0  0  0  0  0  0  0  0  0  0  0
  -30.6674  -14.9385   20.6836 C   0  0  0  0  0  0  0  0  0  0  0  0
  -26.2779  -34.1997   25.5649 C   0  0  0  0  0  0  0  0  0  0  0  0
  -25.2678  -30.5001   20.3005 C   0  0  0  0  0  0  0  0  0  0  0  0
  -23.5577  -28.1359   20.7813 C   0  0  0  0  0  0  0  0  0  0  0  0
  -24.8865  -33.7074   25.1749 C   0  0  0  0  0  0  0  0  0  0  0  0
  -29.3212  -12.9876   18.0269 C   0  0  0  0  0  0  0  0  0  0  0  0
  -24.7778  -32.1993   25.3768 C   0  0  0  0  0  0  0  0  0  0  0  0
  -27.9427  -12.5699   18.5419 C   0  0  0  0  0  0  0  0  0  0  0  0
  -30.3570  -13.0192   19.1486 C   0  0  0  0  0  0  0  0  0  0  0  0
  -28.6017  -13.4196   20.8316 C   0  0  0  0  0  0  0  0  0  0  0  0
  -25.7779  -31.4502   24.4878 C   0  0  1  0  0  0  0  0  0  0  0  0
  -24.0532  -30.5615   21.2216 C   0  0  1  0  0  0  0  0  0  0  0  0
  -27.5109  -13.4272   19.7469 C   0  0  2  0  0  0  0  0  0  0  0  0
  -28.2475  -18.1548   22.6904 C   0  0  0  0  0  0  0  0  0  0  0  0
  -29.2784  -23.0157   21.5144 C   0  0  0  0  0  0  0  0  0  0  0  0
  -17.9028  -27.7210   17.4655 C   0  0  0  0  0  0  0  0  0  0  0  0
  -20.6500  -28.3746   23.4568 C   0  0  0  0  0  0  0  0  0  0  0  0
  -18.8988  -27.3331   22.0019 C   0  0  0  0  0  0  0  0  0  0  0  0
  -18.9647  -29.8097   22.2931 C   0  0  0  0  0  0  0  0  0  0  0  0
  -21.2495  -28.6906   15.9371 C   0  0  0  0  0  0  0  0  0  0  0  0
  -30.8298  -16.8303   22.2817 C   0  0  0  0  0  0  0  0  0  0  0  0
  -28.7136  -25.1733   19.1950 C   0  0  0  0  0  0  0  0  0  1  0  0
  -20.7413  -28.6785   20.8946 C   0  0  1  0  0  0  0  0  0  0  0  0
  -19.2566  -28.4121   17.4169 C   0  0  2  0  0  0  0  0  0  0  0  0
  -19.8413  -28.5459   22.1555 C   0  0  0  0  0  0  0  0  0  0  0  0
  -25.8225  -11.6923   20.2180 N   0  0  0  0  0  0  0  0  0  0  0  0
  -29.5902  -21.6097   19.4706 N   0  0  0  0  0  0  0  0  0  0  0  0
  -26.1631  -12.9904   20.2904 N   0  0  0  0  0  0  0  0  0  0  0  0
  -23.0693  -29.5169   20.9299 N   0  0  0  0  0  0  0  0  0  0  0  0
  -29.8872  -13.8501   20.2598 N   0  0  0  0  0  0  0  0  0  0  0  0
  -25.3918  -15.1077   21.0203 N   0  0  0  0  0  0  0  0  0  0  0  0
  -21.9936  -12.3338   22.0947 N   0  0  0  0  0  0  0  0  0  0  0  0
  -25.2974  -31.3925   23.1240 N   0  0  0  0  0  0  0  0  0  0  0  0
  -20.0030  -28.8691   19.6508 N   0  0  0  0  0  0  0  0  0  0  0  0
  -30.1463  -15.6778   21.7384 N   0  0  0  0  0  0  0  0  0  0  0  0
  -19.9179  -28.0602   16.1285 N   0  3  0  0  0  0  0  0  0  0  0  0
  -22.7009  -14.5148   22.1358 O   0  0  0  0  0  0  0  0  0  0  0  0
  -23.9361  -29.5151   23.3350 O   0  0  0  0  0  0  0  0  0  0  0  0
  -21.2648  -30.9811   21.1191 O   0  0  0  0  0  0  0  0  0  0  0  0
  -20.8494  -27.0036   18.5642 O   0  0  0  0  0  0  0  0  0  0  0  0
  -31.7459  -15.2331   20.1572 O   0  0  0  0  0  0  0  0  0  0  0  0
  -29.7803  -20.6961   17.3063 O   0  0  0  0  0  0  0  0  0  0  0  0
  -21.8223   -6.8371   21.2050 O   0  0  0  0  0  0  0  0  0  0  0  0
  -27.3519  -25.2781   19.6087 O   0  0  0  0  0  0  0  0  0  1  0  0
  -19.3425   -5.7372   26.0055 F   0  0  0  0  0  0  0  0  0  0  0  0
  -22.5043   -4.5959   22.6729 F   0  0  0  0  0  0  0  0  0  0  0  0
  1  2  1  0  0  0  0
  1  5  2  0  0  0  0
  2  6  2  0  0  0  0
  3 10  2  0  0  0  0
  3 19  1  0  0  0  0
  4 11  1  0  0  0  0
  4 19  2  0  0  0  0
  5 21  1  0  0  0  0
  6 23  1  0  0  0  0
  7 12  2  0  0  0  0
  7 22  1  0  0  0  0
  8  9  2  0  0  0  0
  8 25  1  0  0  0  0
  9 28  1  0  0  0  0
 10 29  1  0  0  0  0
 11 29  2  0  0  0  0
 12 30  1  0  0  0  0
 13 14  2  0  0  0  0
 13 31  1  0  0  0  0
 14 32  1  0  0  0  0
 15 24  1  0  0  0  0
 15 30  2  0  0  0  0
 16 26  1  0  0  0  0
 16 28  2  0  0  0  0
 17 27  1  0  0  0  0
 17 37  2  0  0  0  0
 18 32  2  0  0  0  0
 18 33  1  0  0  0  0
 19 34  1  0  0  0  0
 20 34  1  0  0  0  0
 20 36  2  0  0  0  0
 20 38  1  0  0  0  0
 21 23  2  0  0  0  0
 21 43  1  0  0  0  0
 22 24  2  0  0  0  0
 22 44  1  0  0  0  0
 23 52  1  0  0  0  0
 24 45  1  0  0  0  0
 25 26  2  0  0  0  0
 25 62  1  0  0  0  0
 26 55  1  0  0  0  0
 27 35  2  0  0  0  0
 27 63  1  0  0  0  0
 28 68  1  0  0  0  0
 29 84  1  0  0  0  0
 30 85  1  0  0  0  0
 31 33  2  0  0  0  0
 31 84  1  0  0  0  0
 32 86  1  0  0  0  0
 33 87  1  0  0  0  0
 34 67  2  0  0  0  0
 35 56  1  0  0  0  0
 35 68  1  0  0  0  0
 36 69  1  0  0  0  0
 36 72  1  0  0  0  0
 37 68  1  0  0  0  0
 37 83  1  0  0  0  0
 38 73  1  0  0  0  0
 38 78  2  0  0  0  0
 39 53  1  0  0  0  0
 39 74  1  0  0  0  0
 39 79  2  0  0  0  0
 40 64  1  0  0  0  0
 40 70  1  0  0  0  0
 40 80  2  0  0  0  0
 41 65  1  0  0  0  0
 41 75  1  0  0  0  0
 41 81  2  0  0  0  0
 42 71  1  0  0  0  0
 42 76  1  0  0  0  0
 42 82  2  0  0  0  0
 43 46  1  0  0  0  0
 44 53  1  0  0  0  0
 45 70  1  0  0  0  0
 46 48  1  0  0  0  0
 47 49  1  0  0  0  0
 47 50  1  0  0  0  0
 48 52  1  0  0  0  0
 49 54  1  0  0  0  0
 50 71  1  0  0  0  0
 51 54  1  0  0  0  0
 51 71  1  0  0  0  0
 52 74  1  0  0  0  0
 53 70  1  0  0  0  0
 54 69  1  0  0  0  0
 57 65  1  0  0  0  0
 58 66  1  0  0  0  0
 59 66  1  0  0  0  0
 60 66  1  0  0  0  0
 61 77  1  0  0  0  0
 62 76  1  0  0  0  0
 63 85  1  0  0  0  0
 64 66  1  0  0  0  0
 64 75  1  0  0  0  0
 65 77  1  0  0  0  0
 67 69  1  0  0  0  0
M  CHG  1  77   1
M  ISO  4  42 100  63 101  76 100  85 101
M  END
> <Batch ID>
0093

> <Smiles>
CNC(C)C(=O)NC(C(=O)N1Cc2cc([101O:1][101CH2:1]C3=C(C)N(c4ccc(C[100NH:0][100C:0](=O)N5CCCC(n6nc(-c7ccc(Oc8ccc(F)cc8F)cc7)c(C(N)=O)c6N)C5)c(C)c4)C(=O)C3)ccc2CC1C(=O)NC1CCCc2ccccc21)C(C)(C)C

> <Shape>
0.423

> <Color>
0.195

> <Negative vol penalty>
0.000

$$$$

  -OEChem-04052300373D

 87 96  0     1  0  0  0  0  0999 V2000
  -25.2515  -31.2562   27.6340 C   0  0  0  0  0  0  0  0  0  0  0  0
  -25.3959  -30.1815   26.7624 C   0  0  0  0  0  0  0  0  0  0  0  0
  -23.0017  -10.0375   19.8618 C   0  0  0  0  0  0  0  0  0  0  0  0
  -24.0000   -9.6790   22.0325 C   0  0  0  0  0  0  0  0  0  0  0  0
  -24.2699  -32.2175   27.3969 C   0  0  0  0  0  0  0  0  0  0  0  0
  -24.5579  -30.0670   25.6537 C   0  0  0  0  0  0  0  0  0  0  0  0
  -27.0757  -28.8447   21.4334 C   0  0  0  0  0  0  0  0  0  0  0  0
  -29.3707  -18.6035   21.6689 C   0  0  0  0  0  0  0  0  0  0  0  0
  -29.0289  -19.7820   21.0056 C   0  0  0  0  0  0  0  0  0  0  0  0
  -22.2795   -8.8521   19.9981 C   0  0  0  0  0  0  0  0  0  0  0  0
  -23.2777   -8.4935   22.1688 C   0  0  0  0  0  0  0  0  0  0  0  0
  -27.4501  -27.5106   21.2791 C   0  0  0  0  0  0  0  0  0  0  0  0
  -20.1253   -7.5776   22.9713 C   0  0  0  0  0  0  0  0  0  0  0  0
  -19.4962   -7.3408   24.1934 C   0  0  0  0  0  0  0  0  0  0  0  0
  -25.5657  -27.1572   19.8151 C   0  0  0  0  0  0  0  0  0  0  0  0
  -31.4700  -18.5403   20.4746 C   0  0  0  0  0  0  0  0  0  0  0  0
  -20.7934   -5.3213   24.4697 C   0  0  0  0  0  0  0  0  0  0  0  0
  -23.8621  -10.4510   20.8790 C   0  0  0  0  0  0  0  0  0  0  0  0
  -24.2090  -12.9652   21.1357 C   0  0  0  0  0  0  0  0  0  0  0  0
  -23.4258  -32.1199   26.2795 C   0  0  0  0  0  0  0  0  0  0  0  0
  -25.9353  -29.3431   20.7872 C   0  0  0  0  0  0  0  0  0  0  0  0
  -23.5632  -31.0272   25.4022 C   0  0  0  0  0  0  0  0  0  0  0  0
  -25.1804  -28.4987   19.9608 C   0  0  0  0  0  0  0  0  0  0  0  0
  -30.5913  -17.9827   21.4034 C   0  0  0  0  0  0  0  0  0  0  0  0
  -29.9075  -20.3396   20.0768 C   0  0  0  0  0  0  0  0  0  0  0  0
  -31.1281  -19.7188   19.8113 C   0  0  0  0  0  0  0  0  0  0  0  0
  -22.4175   -8.0800   21.1516 C   0  0  0  0  0  0  0  0  0  0  0  0
  -26.6934  -26.6659   20.4723 C   0  0  0  0  0  0  0  0  0  0  0  0
  -21.0884   -6.6863   22.4983 C   0  0  0  0  0  0  0  0  0  0  0  0
  -19.8302   -6.2126   24.9427 C   0  0  0  0  0  0  0  0  0  0  0  0
  -21.4225   -5.5582   23.2475 C   0  0  0  0  0  0  0  0  0  0  0  0
  -24.6089  -11.6752   20.7385 C   0  0  0  0  0  0  0  0  0  0  0  0
  -25.2624  -13.7741   20.7858 C   0  0  0  0  0  0  0  0  0  0  0  0
  -29.2724  -22.7279   20.1258 C   0  0  0  0  0  0  0  0  0  0  0  0
  -28.7634  -23.8488   19.5918 C   0  0  0  0  0  0  0  0  0  0  0  0
  -29.3770  -21.5678   17.9931 C   0  0  0  0  0  0  0  0  0  0  0  0
  -22.9941  -13.3940   21.7648 C   0  0  0  0  0  0  0  0  0  0  0  0
  -23.1801  -30.6007   21.7520 C   0  0  0  0  0  0  0  0  0  0  0  0
  -22.7459  -31.1038   18.5770 C   0  0  0  0  0  0  0  0  0  0  0  0
  -23.5071  -30.2130   15.3717 C   0  0  0  0  0  0  0  0  0  0  0  0
  -30.7431  -14.8012   20.5568 C   0  0  0  0  0  0  0  0  0  0  0  0
  -22.3483  -33.1582   26.0908 C   0  0  0  0  0  0  0  0  0  0  0  0
  -25.5601  -30.7914   20.9426 C   0  0  0  0  0  0  0  0  0  0  0  0
  -23.9590  -28.9899   19.2291 C   0  0  0  0  0  0  0  0  0  0  0  0
  -28.4653  -23.9238   18.1276 C   0  0  0  0  0  0  0  0  0  0  0  0
  -29.3339  -22.9464   17.3585 C   0  0  0  0  0  0  0  0  0  0  0  0
  -21.7473  -33.1642   24.6875 C   0  0  0  0  0  0  0  0  0  0  0  0
  -29.3408  -12.8256   17.9478 C   0  0  0  0  0  0  0  0  0  0  0  0
  -21.4225  -31.7427   24.2397 C   0  0  0  0  0  0  0  0  0  0  0  0
  -27.9549  -12.4517   18.4767 C   0  0  0  0  0  0  0  0  0  0  0  0
  -30.3815  -12.8570   19.0649 C   0  0  0  0  0  0  0  0  0  0  0  0
  -28.6429  -13.3349   20.7450 C   0  0  0  0  0  0  0  0  0  0  0  0
  -22.6896  -30.8815   24.1751 C   0  0  1  0  0  0  0  0  0  0  0  0
  -24.0880  -31.0622   20.6474 C   0  0  1  0  0  0  0  0  0  0  0  0
  -27.5483  -13.3447   19.6643 C   0  0  2  0  0  0  0  0  0  0  0  0
  -22.9662  -30.7810   12.9880 C   0  0  0  0  0  0  0  0  0  0  0  0
  -20.0755  -29.6511   18.8393 C   0  0  0  0  0  0  0  0  0  0  0  0
  -20.0401  -29.4119   16.3474 C   0  0  0  0  0  0  0  0  0  0  0  0
  -20.0194  -31.6821   17.3812 C   0  0  0  0  0  0  0  0  0  0  0  0
  -26.3135  -30.9503   14.7889 C   0  0  0  0  0  0  0  0  0  0  0  0
  -30.9563  -16.7227   22.1129 C   0  0  0  0  0  0  0  0  0  0  0  0
  -28.4480  -25.0615   20.4133 C   0  0  0  0  0  0  0  0  0  1  0  0
  -22.1433  -30.3120   17.4417 C   0  0  1  0  0  0  0  0  0  0  0  0
  -23.8976  -31.0421   14.1615 C   0  0  2  0  0  0  0  0  0  0  0  0
  -20.5914  -30.2542   17.5176 C   0  0  0  0  0  0  0  0  0  0  0  0
  -25.8216  -11.6607   20.1789 N   0  0  0  0  0  0  0  0  0  0  0  0
  -26.1928  -12.9516   20.2219 N   0  0  0  0  0  0  0  0  0  0  0  0
  -29.5295  -21.5649   19.4002 N   0  0  0  0  0  0  0  0  0  0  0  0
  -23.6293  -30.4123   19.4180 N   0  0  0  0  0  0  0  0  0  0  0  0
  -29.9358  -13.7226   20.1595 N   0  0  0  0  0  0  0  0  0  0  0  0
  -32.0330  -20.2662   18.8742 N   0  0  0  0  0  0  0  0  0  0  0  0
  -25.4743  -15.1017   20.9084 N   0  0  0  0  0  0  0  0  0  0  0  0
  -22.0164  -12.4325   22.0547 N   0  0  0  0  0  0  0  0  0  0  0  0
  -23.4444  -31.1820   22.9774 N   0  0  0  0  0  0  0  0  0  0  0  0
  -22.6598  -30.9036   16.2122 N   0  0  0  0  0  0  0  0  0  0  0  0
  -30.2437  -15.5751   21.5972 N   0  0  0  0  0  0  0  0  0  0  0  0
  -25.2892  -30.7175   13.7384 N   0  3  0  0  0  0  0  0  0  0  0  0
  -29.3236  -20.5745   17.2656 O   0  0  0  0  0  0  0  0  0  0  0  0
  -22.7748  -14.5966   22.0461 O   0  0  0  0  0  0  0  0  0  0  0  0
  -22.3035  -29.7791   21.5101 O   0  0  0  0  0  0  0  0  0  0  0  0
  -22.4493  -32.2939   18.7085 O   0  0  0  0  0  0  0  0  0  0  0  0
  -23.9103  -29.0659   15.5515 O   0  0  0  0  0  0  0  0  0  0  0  0
  -31.8261  -15.0589   20.0203 O   0  0  0  0  0  0  0  0  0  0  0  0
  -21.7127   -6.9233   21.2851 O   0  0  0  0  0  0  0  0  0  0  0  0
  -27.0563  -25.3631   20.3205 O   0  0  0  0  0  0  0  0  0  1  0  0
  -19.2272   -5.9861   26.1170 F   0  0  0  0  0  0  0  0  0  0  0  0
  -22.3478   -4.6990   22.7988 F   0  0  0  0  0  0  0  0  0  0  0  0
  1  2  1  0  0  0  0
  1  5  2  0  0  0  0
  2  6  2  0  0  0  0
  3 10  2  0  0  0  0
  3 18  1  0  0  0  0
  4 11  1  0  0  0  0
  4 18  2  0  0  0  0
  5 20  1  0  0  0  0
  6 22  1  0  0  0  0
  7 12  2  0  0  0  0
  7 21  1  0  0  0  0
  8  9  2  0  0  0  0
  8 24  1  0  0  0  0
  9 25  1  0  0  0  0
 10 27  1  0  0  0  0
 11 27  2  0  0  0  0
 12 28  1  0  0  0  0
 13 14  2  0  0  0  0
 13 29  1  0  0  0  0
 14 30  1  0  0  0  0
 15 23  1  0  0  0  0
 15 28  2  0  0  0  0
 16 24  2  0  0  0  0
 16 26  1  0  0  0  0
 17 30  2  0  0  0  0
 17 31  1  0  0  0  0
 18 32  1  0  0  0  0
 19 32  1  0  0  0  0
 19 33  2  0  0  0  0
 19 37  1  0  0  0  0
 20 22  2  0  0  0  0
 20 42  1  0  0  0  0
 21 23  2  0  0  0  0
 21 43  1  0  0  0  0
 22 53  1  0  0  0  0
 23 44  1  0  0  0  0
 24 61  1  0  0  0  0
 25 26  2  0  0  0  0
 25 68  1  0  0  0  0
 26 71  1  0  0  0  0
 27 84  1  0  0  0  0
 28 85  1  0  0  0  0
 29 31  2  0  0  0  0
 29 84  1  0  0  0  0
 30 86  1  0  0  0  0
 31 87  1  0  0  0  0
 32 66  2  0  0  0  0
 33 67  1  0  0  0  0
 33 72  1  0  0  0  0
 34 35  2  0  0  0  0
 34 68  1  0  0  0  0
 35 45  1  0  0  0  0
 35 62  1  0  0  0  0
 36 46  1  0  0  0  0
 36 68  1  0  0  0  0
 36 78  2  0  0  0  0
 37 73  1  0  0  0  0
 37 79  2  0  0  0  0
 38 54  1  0  0  0  0
 38 74  1  0  0  0  0
 38 80  2  0  0  0  0
 39 63  1  0  0  0  0
 39 69  1  0  0  0  0
 39 81  2  0  0  0  0
 40 64  1  0  0  0  0
 40 75  1  0  0  0  0
 40 82  2  0  0  0  0
 41 70  1  0  0  0  0
 41 76  1  0  0  0  0
 41 83  2  0  0  0  0
 42 47  1  0  0  0  0
 43 54  1  0  0  0  0
 44 69  1  0  0  0  0
 45 46  1  0  0  0  0
 47 49  1  0  0  0  0
 48 50  1  0  0  0  0
 48 51  1  0  0  0  0
 49 53  1  0  0  0  0
 50 55  1  0  0  0  0
 51 70  1  0  0  0  0
 52 55  1  0  0  0  0
 52 70  1  0  0  0  0
 53 74  1  0  0  0  0
 54 69  1  0  0  0  0
 55 67  1  0  0  0  0
 56 64  1  0  0  0  0
 57 65  1  0  0  0  0
 58 65  1  0  0  0  0
 59 65  1  0  0  0  0
 60 77  1  0  0  0  0
 61 76  1  0  0  0  0
 62 85  1  0  0  0  0
 63 65  1  0  0  0  0
 63 75  1  0  0  0  0
 64 77  1  0  0  0  0
 66 67  1  0  0  0  0
M  CHG  1  77   1
M  ISO  4  41 100  62 101  76 100  85 101
M  END
> <Batch ID>
0093

> <Smiles>
CNC(C)C(=O)NC(C(=O)N1Cc2cc([101O:1][101CH2:1]C3=CN(c4ccc(C[100NH:0][100C:0](=O)N5CCCC(n6nc(-c7ccc(Oc8ccc(F)cc8F)cc7)c(C(N)=O)c6N)C5)cc4N)C(=O)CC3)ccc2CC1C(=O)NC1CCCc2ccccc21)C(C)(C)C

> <Shape>
0.342

> <Color>
0.190

> <Negative vol penalty>
0.000

$$$$

  -OEChem-04052300373D

 86 94  0     1  0  0  0  0  0999 V2000
  -30.5662  -26.0239   16.4575 C   0  0  0  0  0  0  0  0  0  0  0  0
  -29.1858  -25.9207   16.5962 C   0  0  0  0  0  0  0  0  0  0  0  0
  -22.8831  -13.8048   19.1258 C   0  0  0  0  0  0  0  0  0  0  0  0
  -23.7946  -12.5650   20.9884 C   0  0  0  0  0  0  0  0  0  0  0  0
  -24.6342  -22.5229   20.3858 C   0  0  0  0  0  0  0  0  0  0  0  0
  -31.3446  -26.4429   17.5357 C   0  0  0  0  0  0  0  0  0  0  0  0
  -28.5830  -26.2355   17.8136 C   0  0  0  0  0  0  0  0  0  0  0  0
  -23.0983  -28.8306   18.6439 C   0  0  0  0  0  0  0  0  0  0  0  0
  -23.3732  -23.0674   20.6281 C   0  0  0  0  0  0  0  0  0  0  0  0
  -22.3494  -12.6269   18.6029 C   0  0  0  0  0  0  0  0  0  0  0  0
  -23.2607  -11.3871   20.4656 C   0  0  0  0  0  0  0  0  0  0  0  0
  -21.8457  -28.2994   18.9479 C   0  0  0  0  0  0  0  0  0  0  0  0
  -20.2494   -9.8584   20.3435 C   0  0  0  0  0  0  0  0  0  0  0  0
  -19.5938   -8.9986   21.2247 C   0  0  0  0  0  0  0  0  0  0  0  0
  -25.6375  -24.2304   21.7695 C   0  0  0  0  0  0  0  0  0  0  0  0
  -22.2197  -28.7700   21.2841 C   0  0  0  0  0  0  0  0  0  0  0  0
  -21.1735   -7.2495   20.6935 C   0  0  0  0  0  0  0  0  0  0  0  0
  -23.6058  -13.7738   20.3185 C   0  0  0  0  0  0  0  0  0  0  0  0
  -25.7664  -23.1043   20.9565 C   0  0  0  0  0  0  0  0  0  0  0  0
  -23.5374  -15.8806   21.7553 C   0  0  0  0  0  0  0  0  0  0  0  0
  -30.7501  -26.7721   18.7640 C   0  0  0  0  0  0  0  0  0  0  0  0
  -23.9270  -29.3263   19.6607 C   0  0  0  0  0  0  0  0  0  0  0  0
  -29.3543  -26.6579   18.9096 C   0  0  0  0  0  0  0  0  0  0  0  0
  -23.4814  -29.3093   20.9901 C   0  0  0  0  0  0  0  0  0  0  0  0
  -23.2442  -24.1935   21.4411 C   0  0  0  0  0  0  0  0  0  0  0  0
  -24.3764  -24.7750   22.0118 C   0  0  0  0  0  0  0  0  0  0  0  0
  -22.5381  -11.4181   19.2728 C   0  0  0  0  0  0  0  0  0  0  0  0
  -21.4074  -28.2664   20.2684 C   0  0  0  0  0  0  0  0  0  0  0  0
  -21.3670   -9.4136   19.6371 C   0  0  0  0  0  0  0  0  0  0  0  0
  -20.0558   -7.6942   21.3998 C   0  0  0  0  0  0  0  0  0  0  0  0
  -21.8290   -8.1092   19.8121 C   0  0  0  0  0  0  0  0  0  0  0  0
  -24.1579  -14.9901   20.8588 C   0  0  0  0  0  0  0  0  0  0  0  0
  -24.4695  -16.8688   21.9581 C   0  0  0  0  0  0  0  0  0  0  0  0
  -27.1092  -22.5238   20.6983 C   0  0  0  0  0  0  0  0  0  0  0  0
  -22.2350  -15.8198   22.3517 C   0  0  0  0  0  0  0  0  0  0  0  0
  -26.8029  -28.5660   20.7810 C   0  0  0  0  0  0  0  0  0  0  0  0
  -26.3807  -31.2357   22.5747 C   0  0  0  0  0  0  0  0  0  0  0  0
  -20.7404  -24.2602   21.1787 C   0  0  0  0  0  0  0  0  0  0  0  0
  -24.2162  -33.4536   24.0038 C   0  0  0  0  0  0  0  0  0  0  0  0
  -28.2818  -20.4304   20.0929 C   0  0  0  0  0  0  0  0  0  0  0  0
  -31.6374  -27.1749   19.9152 C   0  0  0  0  0  0  0  0  0  0  0  0
  -25.2644  -29.9205   19.3132 C   0  0  0  0  0  0  0  0  0  0  0  0
  -24.3246  -29.8475   22.1160 C   0  0  0  0  0  0  0  0  0  0  0  0
  -30.8834  -27.8491   21.0585 C   0  0  0  0  0  0  0  0  0  0  0  0
  -29.3571  -17.1094   20.6511 C   0  0  0  0  0  0  0  0  0  0  0  0
  -29.6211  -27.0644   21.4015 C   0  0  0  0  0  0  0  0  0  0  0  0
  -28.0504  -16.3332   20.8372 C   0  0  0  0  0  0  0  0  0  0  0  0
  -29.2251  -18.1950   19.5840 C   0  0  0  0  0  0  0  0  0  0  0  0
  -26.7959  -18.3400   19.9523 C   0  0  0  0  0  0  0  0  0  0  0  0
  -28.6610  -27.0142   20.2068 C   0  0  1  0  0  0  0  0  0  0  0  0
  -26.2385  -29.9272   20.4873 C   0  0  1  0  0  0  0  0  0  0  0  0
  -26.8566  -17.2819   21.0658 C   0  0  1  0  0  0  0  0  0  0  0  0
  -24.1664  -35.5095   25.4418 C   0  0  0  0  0  0  0  0  0  0  0  0
  -26.9838  -29.5292   25.0311 C   0  0  0  0  0  0  0  0  0  0  0  0
  -26.0058  -31.3471   26.4479 C   0  0  0  0  0  0  0  0  0  0  0  0
  -28.0268  -31.8020   25.0582 C   0  0  0  0  0  0  0  0  0  0  0  0
  -22.9012  -35.0457   21.8837 C   0  0  0  0  0  0  0  0  0  0  0  0
  -19.5921  -25.1280   21.6747 C   0  0  0  0  0  0  0  0  0  0  0  0
  -18.8140  -25.7793   20.5366 C   0  0  0  0  0  0  0  0  0  0  0  0
  -19.6925  -26.7135   19.7173 C   0  0  0  0  0  0  0  0  0  1  0  0
  -25.7814  -31.5303   23.9285 C   0  0  1  0  0  0  0  0  0  0  0  0
  -24.1937  -34.9714   24.0197 C   0  0  2  0  0  0  0  0  0  0  0  0
  -26.6841  -31.0402   25.0957 C   0  0  0  0  0  0  0  0  0  0  0  0
  -25.3889  -15.3784   20.5155 N   0  0  0  0  0  0  0  0  0  0  0  0
  -25.5495  -16.5238   21.1999 N   0  0  0  0  0  0  0  0  0  0  0  0
  -25.6270  -30.4124   21.7262 N   0  0  0  0  0  0  0  0  0  0  0  0
  -28.0783  -19.0561   19.8782 N   0  0  0  0  0  0  0  0  0  0  0  0
  -24.2696  -25.9153   22.8394 N   0  0  0  0  0  0  0  0  0  0  0  0
  -24.4625  -17.9905   22.7091 N   0  0  0  0  0  0  0  0  0  0  0  0
  -21.4051  -14.7357   22.0351 N   0  0  0  0  0  0  0  0  0  0  0  0
  -21.9546  -24.7276   21.6738 N   0  0  0  0  0  0  0  0  0  0  0  0
  -27.1298  -21.1591   20.4092 N   0  0  0  0  0  0  0  0  0  0  0  0
  -27.9527  -28.2693   20.0745 N   0  0  0  0  0  0  0  0  0  0  0  0
  -25.5034  -32.9624   23.9490 N   0  0  0  0  0  0  0  0  0  0  0  0
  -22.9905  -35.4792   23.3019 N   0  3  0  0  0  0  0  0  0  0  0  0
  -28.0920  -23.2599   20.7134 O   0  0  0  0  0  0  0  0  0  0  0  0
  -21.8131  -16.7094   23.1290 O   0  0  0  0  0  0  0  0  0  0  0  0
  -26.2378  -27.8394   21.5900 O   0  0  0  0  0  0  0  0  0  0  0  0
  -27.4740  -31.7240   22.2781 O   0  0  0  0  0  0  0  0  0  0  0  0
  -20.5571  -23.2948   20.4446 O   0  0  0  0  0  0  0  0  0  0  0  0
  -23.1942  -32.7719   24.0404 O   0  0  0  0  0  0  0  0  0  0  0  0
  -29.3980  -20.9569   20.0451 O   0  0  0  0  0  0  0  0  0  0  0  0
  -22.0172  -10.2686   18.7631 O   0  0  0  0  0  0  0  0  0  0  0  0
  -20.1854  -27.7478   20.5680 O   0  0  0  0  0  0  0  0  0  1  0  0
  -19.4271   -6.8692   22.2473 F   0  0  0  0  0  0  0  0  0  0  0  0
  -22.9029   -7.6767   19.1372 F   0  0  0  0  0  0  0  0  0  0  0  0
  1  2  1  0  0  0  0
  1  6  2  0  0  0  0
  2  7  2  0  0  0  0
  3 10  2  0  0  0  0
  3 18  1  0  0  0  0
  4 11  1  0  0  0  0
  4 18  2  0  0  0  0
  5  9  2  0  0  0  0
  5 19  1  0  0  0  0
  6 21  1  0  0  0  0
  7 23  1  0  0  0  0
  8 12  2  0  0  0  0
  8 22  1  0  0  0  0
  9 25  1  0  0  0  0
 10 27  1  0  0  0  0
 11 27  2  0  0  0  0
 12 28  1  0  0  0  0
 13 14  2  0  0  0  0
 13 29  1  0  0  0  0
 14 30  1  0  0  0  0
 15 19  2  0  0  0  0
 15 26  1  0  0  0  0
 16 24  1  0  0  0  0
 16 28  2  0  0  0  0
 17 30  2  0  0  0  0
 17 31  1  0  0  0  0
 18 32  1  0  0  0  0
 19 34  1  0  0  0  0
 20 32  1  0  0  0  0
 20 33  2  0  0  0  0
 20 35  1  0  0  0  0
 21 23  2  0  0  0  0
 21 41  1  0  0  0  0
 22 24  2  0  0  0  0
 22 42  1  0  0  0  0
 23 50  1  0  0  0  0
 24 43  1  0  0  0  0
 25 26  2  0  0  0  0
 25 71  1  0  0  0  0
 26 68  1  0  0  0  0
 27 83  1  0  0  0  0
 28 84  1  0  0  0  0
 29 31  2  0  0  0  0
 29 83  1  0  0  0  0
 30 85  1  0  0  0  0
 31 86  1  0  0  0  0
 32 64  2  0  0  0  0
 33 65  1  0  0  0  0
 33 69  1  0  0  0  0
 34 72  1  0  0  0  0
 34 76  2  0  0  0  0
 35 70  1  0  0  0  0
 35 77  2  0  0  0  0
 36 51  1  0  0  0  0
 36 73  1  0  0  0  0
 36 78  2  0  0  0  0
 37 61  1  0  0  0  0
 37 66  1  0  0  0  0
 37 79  2  0  0  0  0
 38 58  1  0  0  0  0
 38 71  1  0  0  0  0
 38 80  2  0  0  0  0
 39 62  1  0  0  0  0
 39 74  1  0  0  0  0
 39 81  2  0  0  0  0
 40 67  1  0  0  0  0
 40 72  1  0  0  0  0
 40 82  2  0  0  0  0
 41 44  1  0  0  0  0
 42 51  1  0  0  0  0
 43 66  1  0  0  0  0
 44 46  1  0  0  0  0
 45 47  1  0  0  0  0
 45 48  1  0  0  0  0
 46 50  1  0  0  0  0
 47 52  1  0  0  0  0
 48 67  1  0  0  0  0
 49 52  1  0  0  0  0
 49 67  1  0  0  0  0
 50 73  1  0  0  0  0
 51 66  1  0  0  0  0
 52 65  1  0  0  0  0
 53 62  1  0  0  0  0
 54 63  1  0  0  0  0
 55 63  1  0  0  0  0
 56 63  1  0  0  0  0
 57 75  1  0  0  0  0
 58 59  1  0  0  0  0
 59 60  1  0  0  0  0
 60 84  1  0  0  0  0
 61 63  1  0  0  0  0
 61 74  1  0  0  0  0
 62 75  1  0  0  0  0
 64 65  1  0  0  0  0
M  CHG  1  75   1
M  ISO  4  40 100  60 101  72 100  84 101
M  END
> <Batch ID>
0093

> <Smiles>
CNC(C)C(=O)NC(C(=O)N1Cc2cc([101O:1][101CH2:1]CCC(=O)Nc3ccc(C(=O)[100NH:0][100C:0](=O)N4CCCC(n5nc(-c6ccc(Oc7ccc(F)cc7F)cc6)c(C(N)=O)c5N)C4)cc3N)ccc2CC1C(=O)NC1CCCc2ccccc21)C(C)(C)C

> <Shape>
0.289

> <Color>
0.077

> <Negative vol penalty>
0.000

$$$$

  -OEChem-04052300373D

 82 90  0     1  0  0  0  0  0999 V2000
  -32.3691  -22.5650   24.6799 C   0  0  0  0  0  0  0  0  0  0  0  0
  -31.3893  -22.5604   23.6922 C   0  0  0  0  0  0  0  0  0  0  0  0
  -21.9999  -27.4538   19.8568 C   0  0  0  0  0  0  0  0  0  0  0  0
  -22.6442  -28.2587   22.0417 C   0  0  0  0  0  0  0  0  0  0  0  0
  -33.0888  -21.4022   24.9516 C   0  0  0  0  0  0  0  0  0  0  0  0
  -31.1294  -21.3933   22.9749 C   0  0  0  0  0  0  0  0  0  0  0  0
  -26.1730  -20.4841   22.4734 C   0  0  0  0  0  0  0  0  0  0  0  0
  -20.7001  -27.2441   20.3173 C   0  0  0  0  0  0  0  0  0  0  0  0
  -21.3444  -28.0491   22.5023 C   0  0  0  0  0  0  0  0  0  0  0  0
  -25.4847  -21.2206   21.5103 C   0  0  0  0  0  0  0  0  0  0  0  0
  -18.1062  -28.0650   24.1552 C   0  0  0  0  0  0  0  0  0  0  0  0
  -17.5197  -29.0703   24.9240 C   0  0  0  0  0  0  0  0  0  0  0  0
  -25.6054  -19.3448   19.9983 C   0  0  0  0  0  0  0  0  0  0  0  0
  -25.2336  -26.5375   16.2980 C   0  0  0  0  0  0  0  0  0  0  0  0
  -27.4497  -25.6502   16.6701 C   0  0  0  0  0  0  0  0  0  0  0  0
  -17.7659  -30.6193   23.0863 C   0  0  0  0  0  0  0  0  0  0  0  0
  -22.9720  -27.9610   20.7190 C   0  0  0  0  0  0  0  0  0  0  0  0
  -25.5087  -24.3037   17.1765 C   0  0  0  0  0  0  0  0  0  0  0  0
  -24.8318  -29.3493   19.6601 C   0  0  0  0  0  0  0  0  0  0  0  0
  -32.8309  -20.2176   24.2439 C   0  0  0  0  0  0  0  0  0  0  0  0
  -26.5928  -19.1739   22.2018 C   0  0  0  0  0  0  0  0  0  0  0  0
  -31.8473  -20.2139   23.2365 C   0  0  0  0  0  0  0  0  0  0  0  0
  -26.2965  -18.5929   20.9606 C   0  0  0  0  0  0  0  0  0  0  0  0
  -26.6193  -26.6906   16.2533 C   0  0  0  0  0  0  0  0  0  0  0  0
  -24.6783  -25.3441   16.7597 C   0  0  0  0  0  0  0  0  0  0  0  0
  -26.8944  -24.4568   17.1317 C   0  0  0  0  0  0  0  0  0  0  0  0
  -20.3723  -27.5418   21.6400 C   0  0  0  0  0  0  0  0  0  0  0  0
  -25.2034  -20.6521   20.2715 C   0  0  0  0  0  0  0  0  0  0  0  0
  -18.5226  -28.3369   22.8519 C   0  0  0  0  0  0  0  0  0  0  0  0
  -17.3496  -30.3474   24.3895 C   0  0  0  0  0  0  0  0  0  0  0  0
  -18.3524  -29.6140   22.3175 C   0  0  0  0  0  0  0  0  0  0  0  0
  -24.3151  -28.1773   20.2441 C   0  0  0  0  0  0  0  0  0  0  0  0
  -26.1432  -29.0469   19.3858 C   0  0  0  0  0  0  0  0  0  0  0  0
  -24.9222  -23.0436   17.6632 C   0  0  0  0  0  0  0  0  0  0  0  0
  -25.0908  -22.5368   18.8910 C   0  0  0  0  0  0  0  0  0  1  0  0
  -24.1844  -30.5998   19.3899 C   0  0  0  0  0  0  0  0  0  0  0  0
  -29.4093  -17.7098   22.0370 C   0  0  0  0  0  0  0  0  0  0  0  0
  -27.5727  -15.0599   21.6801 C   0  0  0  0  0  0  0  0  0  0  0  0
  -24.5782  -13.7143   20.7477 C   0  0  0  0  0  0  0  0  0  0  0  0
  -28.7131  -23.5467   18.5998 C   0  0  0  0  0  0  0  0  0  0  0  0
  -33.6674  -18.9981   24.5404 C   0  0  0  0  0  0  0  0  0  0  0  0
  -27.3107  -18.3834   23.2611 C   0  0  0  0  0  0  0  0  0  0  0  0
  -26.7075  -17.1829   20.6267 C   0  0  0  0  0  0  0  0  0  0  0  0
  -33.0721  -17.7034   23.9929 C   0  0  0  0  0  0  0  0  0  0  0  0
  -29.7606  -26.2885   20.8533 C   0  0  0  0  0  0  0  0  0  0  0  0
  -32.6164  -17.8938   22.5497 C   0  0  0  0  0  0  0  0  0  0  0  0
  -28.4951  -27.1364   20.9670 C   0  0  0  0  0  0  0  0  0  0  0  0
  -29.4372  -24.8203   20.5932 C   0  0  0  0  0  0  0  0  0  0  0  0
  -27.3005  -25.4541   19.5095 C   0  0  0  0  0  0  0  0  0  0  0  0
  -31.5193  -18.9609   22.4538 C   0  0  1  0  0  0  0  0  0  0  0  0
  -28.1417  -17.2378   22.6913 C   0  0  1  0  0  0  0  0  0  0  0  0
  -27.6005  -26.9441   19.7313 C   0  0  1  0  0  0  0  0  0  0  0  0
  -23.3887  -11.5154   20.5313 C   0  0  0  0  0  0  0  0  0  0  0  0
  -29.1620  -14.4520   19.1474 C   0  0  0  0  0  0  0  0  0  0  0  0
  -27.3612  -12.8429   18.4872 C   0  0  0  0  0  0  0  0  0  0  0  0
  -28.6712  -12.4580   20.5748 C   0  0  0  0  0  0  0  0  0  0  0  0
  -27.9034  -22.2248   16.6949 C   0  0  0  0  0  0  0  0  0  0  0  0
  -22.4943  -14.5188   22.6890 C   0  0  0  0  0  0  0  0  0  0  0  0
  -26.9700  -14.3270   20.5060 C   0  0  1  0  0  0  0  0  0  0  0  0
  -23.6692  -12.7088   21.4311 C   0  0  2  0  0  0  0  0  0  0  0  0
  -28.0349  -13.5473   19.6841 C   0  0  0  0  0  0  0  0  0  0  0  0
  -25.2239  -27.2028   20.3356 N   0  0  0  0  0  0  0  0  0  0  0  0
  -26.3250  -27.7619   19.8054 N   0  0  0  0  0  0  0  0  0  0  0  0
  -27.4127  -16.4528   21.6931 N   0  0  0  0  0  0  0  0  0  0  0  0
  -28.5367  -24.6570   19.4508 N   0  0  0  0  0  0  0  0  0  0  0  0
  -27.1817  -27.8971   15.7871 N   0  0  0  0  0  0  0  0  0  0  0  0
  -23.2702  -25.2197   16.7935 N   0  0  0  0  0  0  0  0  0  0  0  0
  -27.1470  -29.7573   18.8289 N   0  0  0  0  0  0  0  0  0  0  0  0
  -22.8335  -30.7410   19.7354 N   0  0  0  0  0  0  0  0  0  0  0  0
  -30.2470  -18.4171   22.8781 N   0  0  0  0  0  0  0  0  0  0  0  0
  -25.9050  -13.4911   21.0495 N   0  0  0  0  0  0  0  0  0  0  0  0
  -27.7828  -23.4013   17.5531 N   0  0  0  0  0  0  0  0  0  0  0  0
  -22.3693  -13.3444   21.7878 N   0  3  0  0  0  0  0  0  0  0  0  0
  -24.7816  -31.5577   18.8429 O   0  0  0  0  0  0  0  0  0  0  0  0
  -29.6131  -17.4501   20.8569 O   0  0  0  0  0  0  0  0  0  0  0  0
  -28.1575  -14.4194   22.5573 O   0  0  0  0  0  0  0  0  0  0  0  0
  -24.1541  -14.6061   20.0160 O   0  0  0  0  0  0  0  0  0  0  0  0
  -29.6045  -22.7104   18.7914 O   0  0  0  0  0  0  0  0  0  0  0  0
  -19.1040  -27.3376   22.0897 O   0  0  0  0  0  0  0  0  0  0  0  0
  -24.5324  -21.3690   19.3294 O   0  0  0  0  0  0  0  0  0  1  0  0
  -16.7849  -31.3123   25.1274 F   0  0  0  0  0  0  0  0  0  0  0  0
  -18.7494  -29.8809   21.0657 F   0  0  0  0  0  0  0  0  0  0  0  0
  1  2  1  0  0  0  0
  1  5  2  0  0  0  0
  2  6  2  0  0  0  0
  3  8  2  0  0  0  0
  3 17  1  0  0  0  0
  4  9  1  0  0  0  0
  4 17  2  0  0  0  0
  5 20  1  0  0  0  0
  6 22  1  0  0  0  0
  7 10  2  0  0  0  0
  7 21  1  0  0  0  0
  8 27  1  0  0  0  0
  9 27  2  0  0  0  0
 10 28  1  0  0  0  0
 11 12  2  0  0  0  0
 11 29  1  0  0  0  0
 12 30  1  0  0  0  0
 13 23  1  0  0  0  0
 13 28  2  0  0  0  0
 14 24  1  0  0  0  0
 14 25  2  0  0  0  0
 15 24  2  0  0  0  0
 15 26  1  0  0  0  0
 16 30  2  0  0  0  0
 16 31  1  0  0  0  0
 17 32  1  0  0  0  0
 18 25  1  0  0  0  0
 18 26  2  0  0  0  0
 18 34  1  0  0  0  0
 19 32  1  0  0  0  0
 19 33  2  0  0  0  0
 19 36  1  0  0  0  0
 20 22  2  0  0  0  0
 20 41  1  0  0  0  0
 21 23  2  0  0  0  0
 21 42  1  0  0  0  0
 22 50  1  0  0  0  0
 23 43  1  0  0  0  0
 24 66  1  0  0  0  0
 25 67  1  0  0  0  0
 26 72  1  0  0  0  0
 27 79  1  0  0  0  0
 28 80  1  0  0  0  0
 29 31  2  0  0  0  0
 29 79  1  0  0  0  0
 30 81  1  0  0  0  0
 31 82  1  0  0  0  0
 32 62  2  0  0  0  0
 33 63  1  0  0  0  0
 33 68  1  0  0  0  0
 34 35  2  0  0  0  0
 35 80  1  0  0  0  0
 36 69  1  0  0  0  0
 36 74  2  0  0  0  0
 37 51  1  0  0  0  0
 37 70  1  0  0  0  0
 37 75  2  0  0  0  0
 38 59  1  0  0  0  0
 38 64  1  0  0  0  0
 38 76  2  0  0  0  0
 39 60  1  0  0  0  0
 39 71  1  0  0  0  0
 39 77  2  0  0  0  0
 40 65  1  0  0  0  0
 40 72  1  0  0  0  0
 40 78  2  0  0  0  0
 41 44  1  0  0  0  0
 42 51  1  0  0  0  0
 43 64  1  0  0  0  0
 44 46  1  0  0  0  0
 45 47  1  0  0  0  0
 45 48  1  0  0  0  0
 46 50  1  0  0  0  0
 47 52  1  0  0  0  0
 48 65  1  0  0  0  0
 49 52  1  0  0  0  0
 49 65  1  0  0  0  0
 50 70  1  0  0  0  0
 51 64  1  0  0  0  0
 52 63  1  0  0  0  0
 53 60  1  0  0  0  0
 54 61  1  0  0  0  0
 55 61  1  0  0  0  0
 56 61  1  0  0  0  0
 57 72  1  0  0  0  0
 58 73  1  0  0  0  0
 59 61  1  0  0  0  0
 59 71  1  0  0  0  0
 60 73  1  0  0  0  0
 62 63  1  0  0  0  0
M  CHG  1  73   1
M  ISO  4  35 101  40 100  72 100  80 101
M  END
> <Batch ID>
0093

> <Smiles>
CNC(C)C(=O)NC(C(=O)N1Cc2cc([101O:1][101CH:1]=Cc3c(N)cc(N)cc3[100N:0](C)[100C:0](=O)N3CCCC(n4nc(-c5ccc(Oc6ccc(F)cc6F)cc5)c(C(N)=O)c4N)C3)ccc2CC1C(=O)NC1CCCc2ccccc21)C(C)(C)C

> <Shape>
0.223

> <Color>
0.061

> <Negative vol penalty>
0.000

$$$$

  -OEChem-04052300373D

 88 97  0     1  0  0  0  0  0999 V2000
  -21.2402  -32.5179   15.0012 C   0  0  0  0  0  0  0  0  0  0  0  0
  -22.2694  -31.6423   15.3321 C   0  0  0  0  0  0  0  0  0  0  0  0
  -22.6264  -11.0905   19.0691 C   0  0  0  0  0  0  0  0  0  0  0  0
  -22.9573  -13.1622   20.2674 C   0  0  0  0  0  0  0  0  0  0  0  0
  -21.1010  -33.7210   15.6920 C   0  0  0  0  0  0  0  0  0  0  0  0
  -23.1607  -31.9697   16.3532 C   0  0  0  0  0  0  0  0  0  0  0  0
  -24.0469  -28.0291   19.5435 C   0  0  0  0  0  0  0  0  0  0  0  0
  -21.4540  -10.8613   19.7892 C   0  0  0  0  0  0  0  0  0  0  0  0
  -21.7848  -12.9330   20.9874 C   0  0  0  0  0  0  0  0  0  0  0  0
  -24.9222  -27.0259   19.1300 C   0  0  0  0  0  0  0  0  0  0  0  0
  -18.4565  -13.2350   20.4859 C   0  0  0  0  0  0  0  0  0  0  0  0
  -17.5743  -14.3040   20.6420 C   0  0  0  0  0  0  0  0  0  0  0  0
  -30.0471  -19.8301   22.3839 C   0  0  0  0  0  0  0  0  0  0  0  0
  -28.8369  -18.4584   20.8057 C   0  0  0  0  0  0  0  0  0  0  0  0
  -26.6945  -28.0569   20.4004 C   0  0  0  0  0  0  0  0  0  0  0  0
  -30.8032  -17.5859   21.9054 C   0  0  0  0  0  0  0  0  0  0  0  0
  -17.8044  -14.1434   23.0417 C   0  0  0  0  0  0  0  0  0  0  0  0
  -23.3781  -12.2409   19.3083 C   0  0  0  0  0  0  0  0  0  0  0  0
  -28.9883  -19.6637   21.4913 C   0  0  0  0  0  0  0  0  0  0  0  0
  -24.7188  -12.6104   17.1697 C   0  0  0  0  0  0  0  0  0  0  0  0
  -21.9852  -34.0590   16.7286 C   0  0  0  0  0  0  0  0  0  0  0  0
  -24.4918  -29.0616   20.3818 C   0  0  0  0  0  0  0  0  0  0  0  0
  -23.0340  -33.1791   17.0576 C   0  0  0  0  0  0  0  0  0  0  0  0
  -25.8216  -29.0693   20.8270 C   0  0  0  0  0  0  0  0  0  0  0  0
  -30.9546  -18.7912   22.5909 C   0  0  0  0  0  0  0  0  0  0  0  0
  -29.7444  -17.4195   21.0127 C   0  0  0  0  0  0  0  0  0  0  0  0
  -21.0332  -11.7825   20.7483 C   0  0  0  0  0  0  0  0  0  0  0  0
  -26.2468  -27.0409   19.5566 C   0  0  0  0  0  0  0  0  0  0  0  0
  -19.0127  -12.6201   21.6076 C   0  0  0  0  0  0  0  0  0  0  0  0
  -17.2482  -14.7582   21.9199 C   0  0  0  0  0  0  0  0  0  0  0  0
  -18.6866  -13.0743   22.8855 C   0  0  0  0  0  0  0  0  0  0  0  0
  -24.5897  -12.4780   18.5652 C   0  0  0  0  0  0  0  0  0  0  0  0
  -26.0607  -12.8226   16.9677 C   0  0  0  0  0  0  0  0  0  0  0  0
  -27.4084  -22.7281   20.0350 C   0  0  0  0  0  0  0  0  0  0  0  0
  -27.5667  -23.7148   19.1411 C   0  0  0  0  0  0  0  0  0  0  0  0
  -28.8445  -23.7911   18.3811 C   0  0  0  0  0  0  0  0  0  0  0  0
  -28.0313  -20.7596   21.2730 C   0  0  0  0  0  0  0  0  0  0  0  0
  -23.7155  -12.5475   16.1474 C   0  0  0  0  0  0  0  0  0  0  0  0
  -24.7117  -32.2506   20.2161 C   0  0  0  0  0  0  0  0  0  0  0  0
  -25.6434  -31.8306   23.3798 C   0  0  0  0  0  0  0  0  0  0  0  0
  -25.2797  -35.1858   23.8797 C   0  0  0  0  0  0  0  0  0  0  0  0
  -30.4024  -15.0644   20.4070 C   0  0  0  0  0  0  0  0  0  0  0  0
  -21.8234  -35.3921   17.4150 C   0  0  0  0  0  0  0  0  0  0  0  0
  -23.5234  -30.1179   20.8410 C   0  0  0  0  0  0  0  0  0  0  0  0
  -26.3466  -30.1527   21.7298 C   0  0  0  0  0  0  0  0  0  0  0  0
  -29.9699  -22.8971   18.8324 C   0  0  0  0  0  0  0  0  0  0  0  0
  -22.5833  -35.4938   18.7350 C   0  0  0  0  0  0  0  0  0  0  0  0
  -30.3373  -11.8447   18.8883 C   0  0  0  0  0  0  0  0  0  0  0  0
  -24.0063  -34.9685   18.5737 C   0  0  0  0  0  0  0  0  0  0  0  0
  -28.8689  -11.6563   18.5006 C   0  0  0  0  0  0  0  0  0  0  0  0
  -29.4453  -21.5627   19.3322 C   0  0  0  0  0  0  0  0  0  0  0  0
  -30.4828  -12.5882   20.2149 C   0  0  0  0  0  0  0  0  0  0  0  0
  -28.2951  -13.6777   19.9048 C   0  0  0  0  0  0  0  0  0  0  0  0
  -24.0059  -33.4875   18.1759 C   0  0  1  0  0  0  0  0  0  0  0  0
  -24.2016  -31.3925   21.3390 C   0  0  1  0  0  0  0  0  0  0  0  0
  -28.0991  -12.9909   18.5434 C   0  0  2  0  0  0  0  0  0  0  0  0
  -32.0871  -18.9689   23.5453 C   0  0  0  0  0  0  0  0  0  0  0  0
  -25.2665  -36.9167   25.6967 C   0  0  0  0  0  0  0  0  0  0  0  0
  -22.8496  -30.9314   24.2115 C   0  0  0  0  0  0  0  0  0  0  0  0
  -22.5232  -33.1720   25.2797 C   0  0  0  0  0  0  0  0  0  0  0  0
  -24.3204  -31.6501   26.1021 C   0  0  0  0  0  0  0  0  0  0  0  0
  -27.5898  -36.6103   22.6992 C   0  0  0  0  0  0  0  0  0  0  0  0
  -26.5431  -24.7765   18.8928 C   0  0  0  0  0  0  0  0  0  1  0  0
  -24.5969  -32.8009   23.8680 C   0  0  1  0  0  0  0  0  0  0  0  0
  -26.1110  -36.1832   24.6663 C   0  0  2  0  0  0  0  0  0  0  0  0
  -23.5792  -32.1365   24.8377 C   0  0  0  0  0  0  0  0  0  0  0  0
  -25.7564  -12.5958   19.2046 N   0  0  0  0  0  0  0  0  0  0  0  0
  -26.6315  -12.8046   18.2062 N   0  0  0  0  0  0  0  0  0  0  0  0
  -28.3050  -21.6901   20.2545 N   0  0  0  0  0  0  0  0  0  0  0  0
  -25.3445  -31.1098   22.2165 N   0  0  0  0  0  0  0  0  0  0  0  0
  -29.7308  -13.8444   20.1802 N   0  0  0  0  0  0  0  0  0  0  0  0
  -26.7963  -13.0208   15.8532 N   0  0  0  0  0  0  0  0  0  0  0  0
  -23.0709  -13.7334   15.7700 N   0  0  0  0  0  0  0  0  0  0  0  0
  -29.5908  -16.1948   20.3168 N   0  0  0  0  0  0  0  0  0  0  0  0
  -23.7335  -32.6549   19.3278 N   0  0  0  0  0  0  0  0  0  0  0  0
  -25.3223  -33.9282   24.4435 N   0  0  0  0  0  0  0  0  0  0  0  0
  -26.7147  -37.1913   23.7497 N   0  3  0  0  0  0  0  0  0  0  0  0
  -28.9961  -24.6066   17.4741 O   0  0  0  0  0  0  0  0  0  0  0  0
  -27.0482  -20.7697   22.0139 O   0  0  0  0  0  0  0  0  0  0  0  0
  -23.3884  -11.4689   15.5968 O   0  0  0  0  0  0  0  0  0  0  0  0
  -25.9043  -32.5269   20.1606 O   0  0  0  0  0  0  0  0  0  0  0  0
  -26.6945  -31.7076   24.0148 O   0  0  0  0  0  0  0  0  0  0  0  0
  -24.6521  -35.4926   22.8685 O   0  0  0  0  0  0  0  0  0  0  0  0
  -31.6140  -15.1054   20.6356 O   0  0  0  0  0  0  0  0  0  0  0  0
  -19.8890  -11.5593   21.4509 O   0  0  0  0  0  0  0  0  0  0  0  0
  -27.1032  -26.0626   19.1549 O   0  0  0  0  0  0  0  0  0  1  0  0
  -16.4022  -15.7859   22.0697 F   0  0  0  0  0  0  0  0  0  0  0  0
  -19.2187  -12.4883   23.9669 F   0  0  0  0  0  0  0  0  0  0  0  0
  1  2  1  0  0  0  0
  1  5  2  0  0  0  0
  2  6  2  0  0  0  0
  3  8  2  0  0  0  0
  3 18  1  0  0  0  0
  4  9  1  0  0  0  0
  4 18  2  0  0  0  0
  5 21  1  0  0  0  0
  6 23  1  0  0  0  0
  7 10  2  0  0  0  0
  7 22  1  0  0  0  0
  8 27  1  0  0  0  0
  9 27  2  0  0  0  0
 10 28  1  0  0  0  0
 11 12  2  0  0  0  0
 11 29  1  0  0  0  0
 12 30  1  0  0  0  0
 13 19  1  0  0  0  0
 13 25  2  0  0  0  0
 14 19  2  0  0  0  0
 14 26  1  0  0  0  0
 15 24  1  0  0  0  0
 15 28  2  0  0  0  0
 16 25  1  0  0  0  0
 16 26  2  0  0  0  0
 17 30  2  0  0  0  0
 17 31  1  0  0  0  0
 18 32  1  0  0  0  0
 19 37  1  0  0  0  0
 20 32  1  0  0  0  0
 20 33  2  0  0  0  0
 20 38  1  0  0  0  0
 21 23  2  0  0  0  0
 21 43  1  0  0  0  0
 22 24  2  0  0  0  0
 22 44  1  0  0  0  0
 23 54  1  0  0  0  0
 24 45  1  0  0  0  0
 25 57  1  0  0  0  0
 26 74  1  0  0  0  0
 27 85  1  0  0  0  0
 28 86  1  0  0  0  0
 29 31  2  0  0  0  0
 29 85  1  0  0  0  0
 30 87  1  0  0  0  0
 31 88  1  0  0  0  0
 32 67  2  0  0  0  0
 33 68  1  0  0  0  0
 33 72  1  0  0  0  0
 34 35  2  0  0  0  0
 34 69  1  0  0  0  0
 35 36  1  0  0  0  0
 35 63  1  0  0  0  0
 36 46  1  0  0  0  0
 36 78  2  0  0  0  0
 37 69  1  0  0  0  0
 37 79  2  0  0  0  0
 38 73  1  0  0  0  0
 38 80  2  0  0  0  0
 39 55  1  0  0  0  0
 39 75  1  0  0  0  0
 39 81  2  0  0  0  0
 40 64  1  0  0  0  0
 40 70  1  0  0  0  0
 40 82  2  0  0  0  0
 41 65  1  0  0  0  0
 41 76  1  0  0  0  0
 41 83  2  0  0  0  0
 42 71  1  0  0  0  0
 42 74  1  0  0  0  0
 42 84  2  0  0  0  0
 43 47  1  0  0  0  0
 44 55  1  0  0  0  0
 45 70  1  0  0  0  0
 46 51  1  0  0  0  0
 47 49  1  0  0  0  0
 48 50  1  0  0  0  0
 48 52  1  0  0  0  0
 49 54  1  0  0  0  0
 50 56  1  0  0  0  0
 51 69  1  0  0  0  0
 52 71  1  0  0  0  0
 53 56  1  0  0  0  0
 53 71  1  0  0  0  0
 54 75  1  0  0  0  0
 55 70  1  0  0  0  0
 56 68  1  0  0  0  0
 58 65  1  0  0  0  0
 59 66  1  0  0  0  0
 60 66  1  0  0  0  0
 61 66  1  0  0  0  0
 62 77  1  0  0  0  0
 63 86  1  0  0  0  0
 64 66  1  0  0  0  0
 64 76  1  0  0  0  0
 65 77  1  0  0  0  0
 67 68  1  0  0  0  0
M  CHG  1  77   1
M  ISO  4  42 100  63 101  74 100  86 101
M  END
> <Batch ID>
0093

> <Smiles>
CNC(C)C(=O)NC(C(=O)N1Cc2cc([101O:1][101CH2:1]C3=CN(C(=O)c4cc(C)cc([100NH:0][100C:0](=O)N5CCCC(n6nc(-c7ccc(Oc8ccc(F)cc8F)cc7)c(C(N)=O)c6N)C5)c4)CCC3=O)ccc2CC1C(=O)NC1CCCc2ccccc21)C(C)(C)C

> <Shape>
0.282

> <Color>
0.113

> <Negative vol penalty>
0.000

$$$$

  -OEChem-04052300373D

 79 87  0     1  0  0  0  0  0999 V2000
  -37.7745  -28.4121   27.0280 C   0  0  0  0  0  0  0  0  0  0  0  0
  -36.7251  -27.5012   26.9612 C   0  0  0  0  0  0  0  0  0  0  0  0
  -23.1416   -9.7938   19.9600 C   0  0  0  0  0  0  0  0  0  0  0  0
  -23.7437   -9.9695   22.2931 C   0  0  0  0  0  0  0  0  0  0  0  0
  -37.5064  -29.7783   27.1028 C   0  0  0  0  0  0  0  0  0  0  0  0
  -35.4070  -27.9559   26.9704 C   0  0  0  0  0  0  0  0  0  0  0  0
  -32.5303  -25.6445   23.5024 C   0  0  0  0  0  0  0  0  0  0  0  0
  -22.4164   -8.6344   20.2344 C   0  0  0  0  0  0  0  0  0  0  0  0
  -23.0184   -8.8101   22.5676 C   0  0  0  0  0  0  0  0  0  0  0  0
  -32.0814  -24.3590   23.8018 C   0  0  0  0  0  0  0  0  0  0  0  0
  -21.6235   -5.6973   23.8223 C   0  0  0  0  0  0  0  0  0  0  0  0
  -22.2167   -4.7414   24.6470 C   0  0  0  0  0  0  0  0  0  0  0  0
  -31.5008  -19.1616   22.3795 C   0  0  0  0  0  0  0  0  0  0  0  0
  -31.4951  -17.8613   21.7970 C   0  0  0  0  0  0  0  0  0  0  0  0
  -29.9376  -25.2628   24.4396 C   0  0  0  0  0  0  0  0  0  0  0  0
  -24.0367   -4.5143   23.0744 C   0  0  0  0  0  0  0  0  0  0  0  0
  -23.8053  -10.4614   20.9893 C   0  0  0  0  0  0  0  0  0  0  0  0
  -24.0809  -12.9841   20.7291 C   0  0  0  0  0  0  0  0  0  0  0  0
  -36.1844  -30.2505   27.1032 C   0  0  0  0  0  0  0  0  0  0  0  0
  -31.6885  -26.7518   23.6800 C   0  0  0  0  0  0  0  0  0  0  0  0
  -35.1209  -29.3296   27.0467 C   0  0  0  0  0  0  0  0  0  0  0  0
  -30.3775  -26.5610   24.1393 C   0  0  0  0  0  0  0  0  0  0  0  0
  -22.3548   -8.1425   21.5382 C   0  0  0  0  0  0  0  0  0  0  0  0
  -30.7858  -24.1682   24.2732 C   0  0  0  0  0  0  0  0  0  0  0  0
  -22.2368   -6.0616   22.6237 C   0  0  0  0  0  0  0  0  0  0  0  0
  -23.4233   -4.1500   24.2730 C   0  0  0  0  0  0  0  0  0  0  0  0
  -23.4434   -5.4702   22.2497 C   0  0  0  0  0  0  0  0  0  0  0  0
  -24.5551  -11.6588   20.7064 C   0  0  0  0  0  0  0  0  0  0  0  0
  -30.3000  -19.4635   22.9833 C   0  0  0  0  0  0  0  0  0  0  0  0
  -25.1729  -13.7454   20.3909 C   0  0  0  0  0  0  0  0  0  0  0  0
  -30.2900  -17.2187   21.9779 C   0  0  0  0  0  0  0  0  0  0  0  0
  -22.7704  -13.4824   21.0293 C   0  0  0  0  0  0  0  0  0  0  0  0
  -29.8998  -20.7084   23.7000 C   0  0  0  0  0  0  0  0  0  0  0  0
  -31.7721  -29.3665   25.4857 C   0  0  0  0  0  0  0  0  0  0  0  0
  -29.1308  -30.1587   23.7774 C   0  0  0  0  0  0  0  0  0  0  0  0
  -26.4707  -29.1215   21.9079 C   0  0  0  0  0  0  0  0  0  0  0  0
  -30.5819  -14.9815   20.8571 C   0  0  0  0  0  0  0  0  0  0  0  0
  -35.9434  -31.7337   27.2333 C   0  0  0  0  0  0  0  0  0  0  0  0
  -32.1790  -28.1292   23.3270 C   0  0  0  0  0  0  0  0  0  0  0  0
  -29.4275  -27.7145   24.3280 C   0  0  0  0  0  0  0  0  0  0  0  0
  -34.5245  -32.1552   26.8600 C   0  0  0  0  0  0  0  0  0  0  0  0
  -29.7013  -12.3887   18.5814 C   0  0  0  0  0  0  0  0  0  0  0  0
  -33.5033  -31.2298   27.5138 C   0  0  0  0  0  0  0  0  0  0  0  0
  -28.2449  -12.0767   18.9332 C   0  0  0  0  0  0  0  0  0  0  0  0
  -30.5258  -12.7225   19.8234 C   0  0  0  0  0  0  0  0  0  0  0  0
  -28.5093  -13.4678   21.0265 C   0  0  0  0  0  0  0  0  0  0  0  0
  -33.6780  -29.7854   27.0293 C   0  0  1  0  0  0  0  0  0  0  0  0
  -31.4059  -29.2382   24.0341 C   0  0  1  0  0  0  0  0  0  0  0  0
  -27.6241  -13.1890   19.8009 C   0  0  2  0  0  0  0  0  0  0  0  0
  -24.4648  -29.9971   20.6803 C   0  0  0  0  0  0  0  0  0  0  0  0
  -27.6921  -30.5816   26.4347 C   0  0  0  0  0  0  0  0  0  0  0  0
  -25.5207  -30.5133   25.1903 C   0  0  0  0  0  0  0  0  0  0  0  0
  -27.1873  -32.3007   24.6899 C   0  0  0  0  0  0  0  0  0  0  0  0
  -27.4436  -28.0576   19.3232 C   0  0  0  0  0  0  0  0  0  0  0  0
  -30.9050  -21.8373   23.8170 C   0  0  0  0  0  0  0  0  0  1  0  0
  -27.6468  -29.9315   23.9364 C   0  0  1  0  0  0  0  0  0  0  0  0
  -25.9293  -29.6013   20.5733 C   0  0  2  0  0  0  0  0  0  0  0  0
  -27.0300  -30.8101   25.0612 C   0  0  0  0  0  0  0  0  0  0  0  0
  -25.8477  -11.5793   20.3793 N   0  0  0  0  0  0  0  0  0  0  0  0
  -26.1949  -12.8641   20.1934 N   0  0  0  0  0  0  0  0  0  0  0  0
  -29.9560  -29.0425   23.9751 N   0  0  0  0  0  0  0  0  0  0  0  0
  -29.8789  -13.7869   20.5937 N   0  0  0  0  0  0  0  0  0  0  0  0
  -25.3489  -15.0760   20.2460 N   0  0  0  0  0  0  0  0  0  0  0  0
  -21.7649  -12.5628   21.3573 N   0  0  0  0  0  0  0  0  0  0  0  0
  -29.8539  -15.9338   21.5697 N   0  0  0  0  0  0  0  0  0  0  0  0
  -33.1116  -29.6236   25.7074 N   0  0  0  0  0  0  0  0  0  0  0  0
  -27.0575  -30.1466   22.6193 N   0  0  0  0  0  0  0  0  0  0  0  0
  -26.0520  -28.5267   19.5480 N   0  3  0  0  0  0  0  0  0  0  0  0
  -22.4951  -14.7056   20.9913 O   0  0  0  0  0  0  0  0  0  0  0  0
  -28.7713  -20.7969   24.1784 O   0  0  0  0  0  0  0  0  0  0  0  0
  -30.9034  -29.2428   26.3411 O   0  0  0  0  0  0  0  0  0  0  0  0
  -29.5421  -31.2833   23.4814 O   0  0  0  0  0  0  0  0  0  0  0  0
  -26.3787  -27.9549   22.2835 O   0  0  0  0  0  0  0  0  0  0  0  0
  -31.7347  -15.1583   20.4549 O   0  0  0  0  0  0  0  0  0  0  0  0
  -21.6470   -7.0113   21.8064 O   0  0  0  0  0  0  0  0  0  0  0  0
  -30.3453  -22.9146   24.5669 O   0  0  0  0  0  0  0  0  0  1  0  0
  -23.9937   -3.2332   25.0657 F   0  0  0  0  0  0  0  0  0  0  0  0
  -24.0380   -5.8170   21.0999 F   0  0  0  0  0  0  0  0  0  0  0  0
  -29.1722  -18.1821   22.8467 S   0  0  0  0  0  0  0  0  0  0  0  0
  1  2  1  0  0  0  0
  1  5  2  0  0  0  0
  2  6  2  0  0  0  0
  3  8  2  0  0  0  0
  3 17  1  0  0  0  0
  4  9  1  0  0  0  0
  4 17  2  0  0  0  0
  5 19  1  0  0  0  0
  6 21  1  0  0  0  0
  7 10  2  0  0  0  0
  7 20  1  0  0  0  0
  8 23  1  0  0  0  0
  9 23  2  0  0  0  0
 10 24  1  0  0  0  0
 11 12  2  0  0  0  0
 11 25  1  0  0  0  0
 12 26  1  0  0  0  0
 13 14  1  0  0  0  0
 13 29  2  0  0  0  0
 14 31  2  0  0  0  0
 15 22  1  0  0  0  0
 15 24  2  0  0  0  0
 16 26  2  0  0  0  0
 16 27  1  0  0  0  0
 17 28  1  0  0  0  0
 18 28  1  0  0  0  0
 18 30  2  0  0  0  0
 18 32  1  0  0  0  0
 19 21  2  0  0  0  0
 19 38  1  0  0  0  0
 20 22  2  0  0  0  0
 20 39  1  0  0  0  0
 21 47  1  0  0  0  0
 22 40  1  0  0  0  0
 23 75  1  0  0  0  0
 24 76  1  0  0  0  0
 25 27  2  0  0  0  0
 25 75  1  0  0  0  0
 26 77  1  0  0  0  0
 27 78  1  0  0  0  0
 28 59  2  0  0  0  0
 29 33  1  0  0  0  0
 29 79  1  0  0  0  0
 30 60  1  0  0  0  0
 30 63  1  0  0  0  0
 31 65  1  0  0  0  0
 31 79  1  0  0  0  0
 32 64  1  0  0  0  0
 32 69  2  0  0  0  0
 33 55  1  0  0  0  0
 33 70  2  0  0  0  0
 34 48  1  0  0  0  0
 34 66  1  0  0  0  0
 34 71  2  0  0  0  0
 35 56  1  0  0  0  0
 35 61  1  0  0  0  0
 35 72  2  0  0  0  0
 36 57  1  0  0  0  0
 36 67  1  0  0  0  0
 36 73  2  0  0  0  0
 37 62  1  0  0  0  0
 37 65  1  0  0  0  0
 37 74  2  0  0  0  0
 38 41  1  0  0  0  0
 39 48  1  0  0  0  0
 40 61  1  0  0  0  0
 41 43  1  0  0  0  0
 42 44  1  0  0  0  0
 42 45  1  0  0  0  0
 43 47  1  0  0  0  0
 44 49  1  0  0  0  0
 45 62  1  0  0  0  0
 46 49  1  0  0  0  0
 46 62  1  0  0  0  0
 47 66  1  0  0  0  0
 48 61  1  0  0  0  0
 49 60  1  0  0  0  0
 50 57  1  0  0  0  0
 51 58  1  0  0  0  0
 52 58  1  0  0  0  0
 53 58  1  0  0  0  0
 54 68  1  0  0  0  0
 55 76  1  0  0  0  0
 56 58  1  0  0  0  0
 56 67  1  0  0  0  0
 57 68  1  0  0  0  0
 59 60  1  0  0  0  0
M  CHG  1  68   1
M  ISO  4  37 100  55 101  65 100  76 101
M  END
> <Batch ID>
0093

> <Smiles>
CNC(C)C(=O)NC(C(=O)N1Cc2cc([101O:1][101CH2:1]C(=O)c3ccc([100NH:0][100C:0](=O)N4CCCC(n5nc(-c6ccc(Oc7ccc(F)cc7F)cc6)c(C(N)=O)c5N)C4)s3)ccc2CC1C(=O)NC1CCCc2ccccc21)C(C)(C)C

> <Shape>
0.246

> <Color>
0.216

> <Negative vol penalty>
0.000

$$$$

  -OEChem-04052300373D

 84 92  0     1  0  0  0  0  0999 V2000
  -28.4102  -38.0831   16.0935 C   0  0  0  0  0  0  0  0  0  0  0  0
  -28.7332  -36.7301   16.0724 C   0  0  0  0  0  0  0  0  0  0  0  0
  -24.1681   -9.2903   22.5367 C   0  0  0  0  0  0  0  0  0  0  0  0
  -24.2678   -9.0958   20.1306 C   0  0  0  0  0  0  0  0  0  0  0  0
  -29.3231  -20.5759   18.8563 C   0  0  0  0  0  0  0  0  0  0  0  0
  -27.9824  -38.6782   17.2796 C   0  0  0  0  0  0  0  0  0  0  0  0
  -28.6297  -35.9716   17.2379 C   0  0  0  0  0  0  0  0  0  0  0  0
  -26.9826  -30.0887   17.6672 C   0  0  0  0  0  0  0  0  0  0  0  0
  -29.1663  -21.9600   18.7845 C   0  0  0  0  0  0  0  0  0  0  0  0
  -23.0753   -8.4238   22.5615 C   0  0  0  0  0  0  0  0  0  0  0  0
  -23.1751   -8.2292   20.1554 C   0  0  0  0  0  0  0  0  0  0  0  0
  -27.7232  -28.9138   17.7903 C   0  0  0  0  0  0  0  0  0  0  0  0
  -22.5327   -5.0926   22.3585 C   0  0  0  0  0  0  0  0  0  0  0  0
  -22.5313   -4.0782   23.3158 C   0  0  0  0  0  0  0  0  0  0  0  0
  -29.0486  -20.4204   16.4610 C   0  0  0  0  0  0  0  0  0  0  0  0
  -27.4246  -28.9835   20.1831 C   0  0  0  0  0  0  0  0  0  0  0  0
  -20.4852   -4.9614   24.2488 C   0  0  0  0  0  0  0  0  0  0  0  0
  -24.7643   -9.6263   21.3213 C   0  0  0  0  0  0  0  0  0  0  0  0
  -29.2643  -19.8061   17.6946 C   0  0  0  0  0  0  0  0  0  0  0  0
  -27.2548  -10.1758   21.3792 C   0  0  0  0  0  0  0  0  0  0  0  0
  -27.8644  -37.9243   18.4579 C   0  0  0  0  0  0  0  0  0  0  0  0
  -26.4659  -30.7267   18.8040 C   0  0  0  0  0  0  0  0  0  0  0  0
  -28.2012  -36.5574   18.4412 C   0  0  0  0  0  0  0  0  0  0  0  0
  -26.6757  -30.1649   20.0715 C   0  0  0  0  0  0  0  0  0  0  0  0
  -28.9506  -22.5744   17.5509 C   0  0  0  0  0  0  0  0  0  0  0  0
  -28.8917  -21.8046   16.3891 C   0  0  0  0  0  0  0  0  0  0  0  0
  -22.5788   -7.8933   21.3709 C   0  0  0  0  0  0  0  0  0  0  0  0
  -27.9467  -28.3626   19.0486 C   0  0  0  0  0  0  0  0  0  0  0  0
  -21.5103   -6.0415   22.3463 C   0  0  0  0  0  0  0  0  0  0  0  0
  -21.5076   -4.0125   24.2610 C   0  0  0  0  0  0  0  0  0  0  0  0
  -20.4866   -5.9758   23.2914 C   0  0  0  0  0  0  0  0  0  0  0  0
  -25.8928  -10.5218   21.2950 C   0  0  0  0  0  0  0  0  0  0  0  0
  -27.9190  -11.3759   21.3088 C   0  0  0  0  0  0  0  0  0  0  0  0
  -29.4304  -18.3396   17.7716 C   0  0  0  0  0  0  0  0  0  0  0  0
  -27.8650   -8.8849   21.5093 C   0  0  0  0  0  0  0  0  0  0  0  0
  -26.8858  -33.5671   20.1677 C   0  0  0  0  0  0  0  0  0  0  0  0
  -24.4922  -32.5545   22.1088 C   0  0  0  0  0  0  0  0  0  0  0  0
  -28.8281  -24.8728   18.5689 C   0  0  0  0  0  0  0  0  0  0  0  0
  -22.7718  -29.9369   23.4635 C   0  0  0  0  0  0  0  0  0  0  0  0
  -28.5558  -16.2110   18.7102 C   0  0  0  0  0  0  0  0  0  0  0  0
  -27.4430  -38.6221   19.7269 C   0  0  0  0  0  0  0  0  0  0  0  0
  -25.6464  -31.9788   18.6520 C   0  0  0  0  0  0  0  0  0  0  0  0
  -26.1253  -30.7999   21.3214 C   0  0  0  0  0  0  0  0  0  0  0  0
  -27.0016  -37.6645   20.8307 C   0  0  0  0  0  0  0  0  0  0  0  0
  -26.2397  -16.1124   21.6057 C   0  0  0  0  0  0  0  0  0  0  0  0
  -27.9967  -36.5170   20.9715 C   0  0  0  0  0  0  0  0  0  0  0  0
  -26.0018  -14.6115   21.7296 C   0  0  0  0  0  0  0  0  0  0  0  0
  -26.4804  -16.5416   20.1590 C   0  0  0  0  0  0  0  0  0  0  0  0
  -27.3417  -14.2737   19.6199 C   0  0  0  0  0  0  0  0  0  0  0  0
  -28.0780  -35.6956   19.6791 C   0  0  1  0  0  0  0  0  0  0  0  0
  -25.6038  -32.8229   19.9221 C   0  0  1  0  0  0  0  0  0  0  0  0
  -27.1522  -13.8310   21.0779 C   0  0  2  0  0  0  0  0  0  0  0  0
  -20.8922  -29.4223   25.0446 C   0  0  0  0  0  0  0  0  0  0  0  0
  -26.3128  -33.1858   24.4747 C   0  0  0  0  0  0  0  0  0  0  0  0
  -24.8056  -31.7992   25.9149 C   0  0  0  0  0  0  0  0  0  0  0  0
  -23.9214  -33.8446   24.7936 C   0  0  0  0  0  0  0  0  0  0  0  0
  -21.2031  -28.5924   21.3444 C   0  0  0  0  0  0  0  0  0  0  0  0
  -28.6162  -26.2947   18.0835 C   0  0  0  0  0  0  0  0  0  1  0  0
  -24.4208  -31.7895   23.4083 C   0  0  1  0  0  0  0  0  0  0  0  0
  -21.2832  -29.6707   23.5960 C   0  0  2  0  0  0  0  0  0  0  0  0
  -24.8773  -32.6436   24.6247 C   0  0  0  0  0  0  0  0  0  0  0  0
  -25.7016  -11.8387   21.1801 N   0  0  0  0  0  0  0  0  0  0  0  0
  -26.9522  -12.3307   21.1917 N   0  0  0  0  0  0  0  0  0  0  0  0
  -25.3359  -32.0265   21.1213 N   0  0  0  0  0  0  0  0  0  0  0  0
  -27.5131  -15.7260   19.5052 N   0  0  0  0  0  0  0  0  0  0  0  0
  -28.6732  -22.4064   15.1294 N   0  0  0  0  0  0  0  0  0  0  0  0
  -29.2299  -11.6971   21.3365 N   0  0  0  0  0  0  0  0  0  0  0  0
  -27.0356   -7.7565   21.5669 N   0  0  0  0  0  0  0  0  0  0  0  0
  -28.7939  -23.9800   17.5032 N   0  0  0  0  0  0  0  0  0  0  0  0
  -28.5552  -17.6449   18.5150 N   0  0  0  0  0  0  0  0  0  0  0  0
  -26.9374  -34.8116   19.5695 N   0  0  0  0  0  0  0  0  0  0  0  0
  -23.0556  -31.2854   23.5107 N   0  0  0  0  0  0  0  0  0  0  0  0
  -30.4461  -17.7978   17.0999 N   0  3  0  0  0  0  0  0  0  0  0  0
  -20.8972  -28.4757   22.7935 N   0  3  0  0  0  0  0  0  0  0  0  0
  -29.1082   -8.7377   21.5891 O   0  0  0  0  0  0  0  0  0  0  0  0
  -27.7626  -33.0510   20.8507 O   0  0  0  0  0  0  0  0  0  0  0  0
  -23.8186  -33.5789   21.9723 O   0  0  0  0  0  0  0  0  0  0  0  0
  -29.0001  -24.6182   19.7564 O   0  0  0  0  0  0  0  0  0  0  0  0
  -23.6003  -29.0383   23.3349 O   0  0  0  0  0  0  0  0  0  0  0  0
  -29.4159  -15.5267   18.1662 O   0  0  0  0  0  0  0  0  0  0  0  0
  -21.5127   -7.0475   21.3947 O   0  0  0  0  0  0  0  0  0  0  0  0
  -28.6698  -27.2164   19.1716 O   0  0  0  0  0  0  0  0  0  1  0  0
  -21.5056   -3.0374   25.1793 F   0  0  0  0  0  0  0  0  0  0  0  0
  -19.5011   -6.8839   23.2840 F   0  0  0  0  0  0  0  0  0  0  0  0
  1  2  1  0  0  0  0
  1  6  2  0  0  0  0
  2  7  2  0  0  0  0
  3 10  2  0  0  0  0
  3 18  1  0  0  0  0
  4 11  1  0  0  0  0
  4 18  2  0  0  0  0
  5  9  2  0  0  0  0
  5 19  1  0  0  0  0
  6 21  1  0  0  0  0
  7 23  1  0  0  0  0
  8 12  2  0  0  0  0
  8 22  1  0  0  0  0
  9 25  1  0  0  0  0
 10 27  1  0  0  0  0
 11 27  2  0  0  0  0
 12 28  1  0  0  0  0
 13 14  2  0  0  0  0
 13 29  1  0  0  0  0
 14 30  1  0  0  0  0
 15 19  2  0  0  0  0
 15 26  1  0  0  0  0
 16 24  1  0  0  0  0
 16 28  2  0  0  0  0
 17 30  2  0  0  0  0
 17 31  1  0  0  0  0
 18 32  1  0  0  0  0
 19 34  1  0  0  0  0
 20 32  1  0  0  0  0
 20 33  2  0  0  0  0
 20 35  1  0  0  0  0
 21 23  2  0  0  0  0
 21 41  1  0  0  0  0
 22 24  2  0  0  0  0
 22 42  1  0  0  0  0
 23 50  1  0  0  0  0
 24 43  1  0  0  0  0
 25 26  2  0  0  0  0
 25 69  1  0  0  0  0
 26 66  1  0  0  0  0
 27 81  1  0  0  0  0
 28 82  1  0  0  0  0
 29 31  2  0  0  0  0
 29 81  1  0  0  0  0
 30 83  1  0  0  0  0
 31 84  1  0  0  0  0
 32 62  2  0  0  0  0
 33 63  1  0  0  0  0
 33 67  1  0  0  0  0
 34 70  1  0  0  0  0
 34 73  2  0  0  0  0
 35 68  1  0  0  0  0
 35 75  2  0  0  0  0
 36 51  1  0  0  0  0
 36 71  1  0  0  0  0
 36 76  2  0  0  0  0
 37 59  1  0  0  0  0
 37 64  1  0  0  0  0
 37 77  2  0  0  0  0
 38 58  1  0  0  0  0
 38 69  1  0  0  0  0
 38 78  2  0  0  0  0
 39 60  1  0  0  0  0
 39 72  1  0  0  0  0
 39 79  2  0  0  0  0
 40 65  1  0  0  0  0
 40 70  1  0  0  0  0
 40 80  2  0  0  0  0
 41 44  1  0  0  0  0
 42 51  1  0  0  0  0
 43 64  1  0  0  0  0
 44 46  1  0  0  0  0
 45 47  1  0  0  0  0
 45 48  1  0  0  0  0
 46 50  1  0  0  0  0
 47 52  1  0  0  0  0
 48 65  1  0  0  0  0
 49 52  1  0  0  0  0
 49 65  1  0  0  0  0
 50 71  1  0  0  0  0
 51 64  1  0  0  0  0
 52 63  1  0  0  0  0
 53 60  1  0  0  0  0
 54 61  1  0  0  0  0
 55 61  1  0  0  0  0
 56 61  1  0  0  0  0
 57 74  1  0  0  0  0
 58 82  1  0  0  0  0
 59 61  1  0  0  0  0
 59 72  1  0  0  0  0
 60 74  1  0  0  0  0
 62 63  1  0  0  0  0
M  CHG  2  73   1  74   1
M  ISO  4  40 100  58 101  70 100  82 101
M  END
> <Batch ID>
0093

> <Smiles>
CNC(C)C(=O)NC(C(=O)N1Cc2cc([101O:1][101CH2:1]C(=O)Nc3ccc(C(=N)[100NH:0][100C:0](=O)N4CCCC(n5nc(-c6ccc(Oc7ccc(F)cc7F)cc6)c(C(N)=O)c5N)C4)cc3N)ccc2CC1C(=O)NC1CCCc2ccccc21)C(C)(C)C

> <Shape>
0.239

> <Color>
0.088

> <Negative vol penalty>
0.000

$$$$

  -OEChem-04052300373D

 85 94  0     1  0  0  0  0  0999 V2000
  -29.3680  -31.2891   26.6875 C   0  0  0  0  0  0  0  0  0  0  0  0
  -29.0734  -30.2721   25.7852 C   0  0  0  0  0  0  0  0  0  0  0  0
  -24.3360   -8.7725   21.4327 C   0  0  0  0  0  0  0  0  0  0  0  0
  -24.5243  -10.2691   23.3200 C   0  0  0  0  0  0  0  0  0  0  0  0
  -28.3402  -32.0657   27.2208 C   0  0  0  0  0  0  0  0  0  0  0  0
  -27.7505  -30.0303   25.4164 C   0  0  0  0  0  0  0  0  0  0  0  0
  -27.2187  -29.3451   20.4272 C   0  0  0  0  0  0  0  0  0  0  0  0
  -29.8049  -20.0107   18.2625 C   0  0  0  0  0  0  0  0  0  0  0  0
  -29.8187  -18.6536   18.5846 C   0  0  0  0  0  0  0  0  0  0  0  0
  -23.9449   -7.7427   22.2882 C   0  0  0  0  0  0  0  0  0  0  0  0
  -24.1330   -9.2393   24.1756 C   0  0  0  0  0  0  0  0  0  0  0  0
  -27.5818  -28.1011   19.9131 C   0  0  0  0  0  0  0  0  0  0  0  0
  -21.1361   -6.7795   23.9056 C   0  0  0  0  0  0  0  0  0  0  0  0
  -20.0494   -5.9944   23.5205 C   0  0  0  0  0  0  0  0  0  0  0  0
  -25.2606  -27.4454   19.8766 C   0  0  0  0  0  0  0  0  0  0  0  0
  -28.8219  -24.0165   16.9898 C   0  0  0  0  0  0  0  0  0  0  0  0
  -27.5199  -18.8031   19.3128 C   0  0  0  0  0  0  0  0  0  0  0  0
  -21.4579   -4.0316   23.5479 C   0  0  0  0  0  0  0  0  0  0  0  0
  -28.4309  -23.1376   19.0256 C   0  0  0  0  0  0  0  0  0  0  0  0
  -24.6258  -10.0357   21.9485 C   0  0  0  0  0  0  0  0  0  0  0  0
  -24.1959  -12.0273   20.4134 C   0  0  0  0  0  0  0  0  0  0  0  0
  -27.0049  -31.8396   26.8510 C   0  0  0  0  0  0  0  0  0  0  0  0
  -25.8725  -29.6452   20.6805 C   0  0  0  0  0  0  0  0  0  0  0  0
  -26.7037  -30.8037   25.9463 C   0  0  0  0  0  0  0  0  0  0  0  0
  -24.8828  -28.6949   20.3915 C   0  0  0  0  0  0  0  0  0  0  0  0
  -28.5246  -24.3283   18.3395 C   0  0  0  0  0  0  0  0  0  0  0  0
  -28.6487  -20.7640   18.4656 C   0  0  0  0  0  0  0  0  0  0  0  0
  -28.6762  -18.0498   19.1097 C   0  0  0  0  0  0  0  0  0  0  0  0
  -27.5061  -20.1602   18.9907 C   0  0  0  0  0  0  0  0  0  0  0  0
  -23.8433   -7.9761   23.6597 C   0  0  0  0  0  0  0  0  0  0  0  0
  -26.6030  -27.1500   19.6404 C   0  0  0  0  0  0  0  0  0  0  0  0
  -22.3837   -6.1907   24.1118 C   0  0  0  0  0  0  0  0  0  0  0  0
  -20.2103   -4.6204   23.3417 C   0  0  0  0  0  0  0  0  0  0  0  0
  -22.5446   -4.8168   23.9329 C   0  0  0  0  0  0  0  0  0  0  0  0
  -25.0305  -11.0998   21.0653 C   0  0  0  0  0  0  0  0  0  0  0  0
  -25.0583  -12.8219   19.6984 C   0  0  0  0  0  0  0  0  0  0  0  0
  -28.9006  -22.6448   16.8922 C   0  0  0  0  0  0  0  0  0  0  0  0
  -22.7686  -12.1587   20.4509 C   0  0  0  0  0  0  0  0  0  0  0  0
  -24.1875  -30.3790   23.2740 C   0  0  0  0  0  0  0  0  0  0  0  0
  -21.8094  -30.8519   21.1192 C   0  0  0  0  0  0  0  0  0  0  0  0
  -20.5127  -30.1650   18.0381 C   0  0  0  0  0  0  0  0  0  0  0  0
  -29.7572  -15.7823   19.2994 C   0  0  0  0  0  0  0  0  0  0  0  0
  -25.9234  -32.6741   27.4902 C   0  0  0  0  0  0  0  0  0  0  0  0
  -25.4948  -31.0014   21.2102 C   0  0  0  0  0  0  0  0  0  0  0  0
  -23.4217  -28.9750   20.6266 C   0  0  0  0  0  0  0  0  0  0  0  0
  -24.5844  -32.5980   26.7612 C   0  0  0  0  0  0  0  0  0  0  0  0
  -29.9946  -12.2773   18.7195 C   0  0  0  0  0  0  0  0  0  0  0  0
  -24.2362  -31.1493   26.4341 C   0  0  0  0  0  0  0  0  0  0  0  0
  -28.6556  -11.7348   19.2245 C   0  0  0  0  0  0  0  0  0  0  0  0
  -30.5026  -13.4290   19.5851 C   0  0  0  0  0  0  0  0  0  0  0  0
  -28.2074  -13.9832   20.2878 C   0  0  0  0  0  0  0  0  0  0  0  0
  -25.2835  -30.5269   25.5028 C   0  0  1  0  0  0  0  0  0  0  0  0
  -24.1406  -31.0127   21.9124 C   0  0  1  0  0  0  0  0  0  0  0  0
  -27.6236  -12.8645   19.4096 C   0  0  2  0  0  0  0  0  0  0  0  0
  -18.5371  -30.6694   16.5752 C   0  0  0  0  0  0  0  0  0  0  0  0
  -20.0982  -28.9457   22.7770 C   0  0  0  0  0  0  0  0  0  0  0  0
  -18.5483  -28.7470   20.8209 C   0  0  0  0  0  0  0  0  0  0  0  0
  -18.8867  -30.9595   21.9221 C   0  0  0  0  0  0  0  0  0  0  0  0
  -22.2204  -31.3968   15.9583 C   0  0  0  0  0  0  0  0  0  0  0  0
  -28.3448  -25.7015   18.9168 C   0  0  0  0  0  0  0  0  0  1  0  0
  -20.7380  -29.9857   20.5021 C   0  0  1  0  0  0  0  0  0  0  0  0
  -19.9537  -31.0708   16.9557 C   0  0  2  0  0  0  0  0  0  0  0  0
  -19.5954  -29.6532   21.5028 C   0  0  0  0  0  0  0  0  0  0  0  0
  -26.3238  -11.2867   20.7888 N   0  0  0  0  0  0  0  0  0  0  0  0
  -28.6609  -22.1210   18.1358 N   0  0  0  0  0  0  0  0  0  0  0  0
  -26.3083  -12.3407   19.9552 N   0  0  0  0  0  0  0  0  0  0  0  0
  -23.1034  -30.3132   21.1514 N   0  0  0  0  0  0  0  0  0  0  0  0
  -29.4736  -14.4633   19.7125 N   0  0  0  0  0  0  0  0  0  0  0  0
  -26.3219  -20.9016   19.2066 N   0  0  0  0  0  0  0  0  0  0  0  0
  -24.8617  -13.8783   18.8812 N   0  0  0  0  0  0  0  0  0  0  0  0
  -22.0352  -11.2591   21.2364 N   0  0  0  0  0  0  0  0  0  0  0  0
  -28.6920  -16.6715   19.4378 N   0  0  0  0  0  0  0  0  0  0  0  0
  -25.0810  -30.9767   24.1423 N   0  0  0  0  0  0  0  0  0  0  0  0
  -20.2946  -30.6804   19.2983 N   0  0  0  0  0  0  0  0  0  0  0  0
  -20.8050  -31.0047   15.7343 N   0  3  0  0  0  0  0  0  0  0  0  0
  -22.1604  -13.0374   19.7939 O   0  0  0  0  0  0  0  0  0  0  0  0
  -23.4654  -29.4197   23.5192 O   0  0  0  0  0  0  0  0  0  0  0  0
  -21.5105  -31.9685   21.5502 O   0  0  0  0  0  0  0  0  0  0  0  0
  -21.0822  -29.1044   17.7906 O   0  0  0  0  0  0  0  0  0  0  0  0
  -30.8549  -16.0935   18.8302 O   0  0  0  0  0  0  0  0  0  0  0  0
  -29.1526  -21.8681   15.8455 O   0  0  0  0  0  0  0  0  0  0  0  0
  -23.4614   -6.9714   24.4948 O   0  0  0  0  0  0  0  0  0  0  0  0
  -26.9547  -25.9347   19.1391 O   0  0  0  0  0  0  0  0  0  1  0  0
  -19.1663   -3.8664   22.9734 F   0  0  0  0  0  0  0  0  0  0  0  0
  -23.7404   -4.2452   24.1307 F   0  0  0  0  0  0  0  0  0  0  0  0
  1  2  1  0  0  0  0
  1  5  2  0  0  0  0
  2  6  2  0  0  0  0
  3 10  2  0  0  0  0
  3 20  1  0  0  0  0
  4 11  1  0  0  0  0
  4 20  2  0  0  0  0
  5 22  1  0  0  0  0
  6 24  1  0  0  0  0
  7 12  2  0  0  0  0
  7 23  1  0  0  0  0
  8  9  2  0  0  0  0
  8 27  1  0  0  0  0
  9 28  1  0  0  0  0
 10 30  1  0  0  0  0
 11 30  2  0  0  0  0
 12 31  1  0  0  0  0
 13 14  2  0  0  0  0
 13 32  1  0  0  0  0
 14 33  1  0  0  0  0
 15 25  1  0  0  0  0
 15 31  2  0  0  0  0
 16 26  1  0  0  0  0
 16 37  2  0  0  0  0
 17 28  2  0  0  0  0
 17 29  1  0  0  0  0
 18 33  2  0  0  0  0
 18 34  1  0  0  0  0
 19 26  2  0  0  0  0
 19 65  1  0  0  0  0
 20 35  1  0  0  0  0
 21 35  1  0  0  0  0
 21 36  2  0  0  0  0
 21 38  1  0  0  0  0
 22 24  2  0  0  0  0
 22 43  1  0  0  0  0
 23 25  2  0  0  0  0
 23 44  1  0  0  0  0
 24 52  1  0  0  0  0
 25 45  1  0  0  0  0
 26 60  1  0  0  0  0
 27 29  2  0  0  0  0
 27 65  1  0  0  0  0
 28 72  1  0  0  0  0
 29 69  1  0  0  0  0
 30 82  1  0  0  0  0
 31 83  1  0  0  0  0
 32 34  2  0  0  0  0
 32 82  1  0  0  0  0
 33 84  1  0  0  0  0
 34 85  1  0  0  0  0
 35 64  2  0  0  0  0
 36 66  1  0  0  0  0
 36 70  1  0  0  0  0
 37 65  1  0  0  0  0
 37 81  1  0  0  0  0
 38 71  1  0  0  0  0
 38 76  2  0  0  0  0
 39 53  1  0  0  0  0
 39 73  1  0  0  0  0
 39 77  2  0  0  0  0
 40 61  1  0  0  0  0
 40 67  1  0  0  0  0
 40 78  2  0  0  0  0
 41 62  1  0  0  0  0
 41 74  1  0  0  0  0
 41 79  2  0  0  0  0
 42 68  1  0  0  0  0
 42 72  1  0  0  0  0
 42 80  2  0  0  0  0
 43 46  1  0  0  0  0
 44 53  1  0  0  0  0
 45 67  1  0  0  0  0
 46 48  1  0  0  0  0
 47 49  1  0  0  0  0
 47 50  1  0  0  0  0
 48 52  1  0  0  0  0
 49 54  1  0  0  0  0
 50 68  1  0  0  0  0
 51 54  1  0  0  0  0
 51 68  1  0  0  0  0
 52 73  1  0  0  0  0
 53 67  1  0  0  0  0
 54 66  1  0  0  0  0
 55 62  1  0  0  0  0
 56 63  1  0  0  0  0
 57 63  1  0  0  0  0
 58 63  1  0  0  0  0
 59 75  1  0  0  0  0
 60 83  1  0  0  0  0
 61 63  1  0  0  0  0
 61 74  1  0  0  0  0
 62 75  1  0  0  0  0
 64 66  1  0  0  0  0
M  CHG  1  75   1
M  ISO  4  42 100  60 101  72 100  83 101
M  END
> <Batch ID>
0093

> <Smiles>
CNC(C)C(=O)NC(C(=O)N1Cc2cc([101O:1][101CH2:1]C3=CN(c4ccc([100NH:0][100C:0](=O)N5CCCC(n6nc(-c7ccc(Oc8ccc(F)cc8F)cc7)c(C(N)=O)c6N)C5)cc4N)C(=O)C3)ccc2CC1C(=O)NC1CCCc2ccccc21)C(C)(C)C

> <Shape>
0.326

> <Color>
0.107

> <Negative vol penalty>
0.000

$$$$

  -OEChem-04052300373D

 82 90  0     1  0  0  0  0  0999 V2000
  -25.3962  -33.0415   28.6148 C   0  0  0  0  0  0  0  0  0  0  0  0
  -26.0999  -32.1493   27.8121 C   0  0  0  0  0  0  0  0  0  0  0  0
  -24.5128  -10.1006   22.4607 C   0  0  0  0  0  0  0  0  0  0  0  0
  -24.5643  -11.6270   24.3327 C   0  0  0  0  0  0  0  0  0  0  0  0
  -24.0154  -33.1683   28.4695 C   0  0  0  0  0  0  0  0  0  0  0  0
  -25.4229  -31.3825   26.8644 C   0  0  0  0  0  0  0  0  0  0  0  0
  -27.4975  -29.6469   21.3699 C   0  0  0  0  0  0  0  0  0  0  0  0
  -24.0998   -9.0736   23.3094 C   0  0  0  0  0  0  0  0  0  0  0  0
  -24.1512  -10.6000   25.1814 C   0  0  0  0  0  0  0  0  0  0  0  0
  -28.0661  -28.4581   20.9146 C   0  0  0  0  0  0  0  0  0  0  0  0
  -21.2306   -8.0662   24.7879 C   0  0  0  0  0  0  0  0  0  0  0  0
  -20.1847   -7.2502   24.3568 C   0  0  0  0  0  0  0  0  0  0  0  0
  -25.9048  -27.7335   20.1256 C   0  0  0  0  0  0  0  0  0  0  0  0
  -27.6495  -21.5711   21.0806 C   0  0  0  0  0  0  0  0  0  0  0  0
  -30.0319  -20.1216   21.0054 C   0  0  0  0  0  0  0  0  0  0  0  0
  -21.6345   -5.3220   24.4893 C   0  0  0  0  0  0  0  0  0  0  0  0
  -24.7451  -11.3773   22.9723 C   0  0  0  0  0  0  0  0  0  0  0  0
  -24.3530  -13.3367   21.3866 C   0  0  0  0  0  0  0  0  0  0  0  0
  -23.3224  -32.4097   27.5129 C   0  0  0  0  0  0  0  0  0  0  0  0
  -26.1239  -29.8836   21.2159 C   0  0  0  0  0  0  0  0  0  0  0  0
  -24.0313  -31.4983   26.7071 C   0  0  0  0  0  0  0  0  0  0  0  0
  -25.3216  -28.9271   20.5775 C   0  0  0  0  0  0  0  0  0  0  0  0
  -28.8683  -22.2222   21.2706 C   0  0  0  0  0  0  0  0  0  0  0  0
  -30.0595  -21.4975   21.2330 C   0  0  0  0  0  0  0  0  0  0  0  0
  -28.8130  -19.4704   20.8154 C   0  0  0  0  0  0  0  0  0  0  0  0
  -23.9189   -9.3233   24.6697 C   0  0  0  0  0  0  0  0  0  0  0  0
  -27.2692  -27.5000   20.2950 C   0  0  0  0  0  0  0  0  0  0  0  0
  -22.4785   -7.5101   25.0695 C   0  0  0  0  0  0  0  0  0  0  0  0
  -20.3866   -5.8781   24.2075 C   0  0  0  0  0  0  0  0  0  0  0  0
  -27.6218  -20.1952   20.8530 C   0  0  0  0  0  0  0  0  0  0  0  0
  -22.6804   -6.1380   24.9203 C   0  0  0  0  0  0  0  0  0  0  0  0
  -25.1723  -12.4384   22.0962 C   0  0  0  0  0  0  0  0  0  0  0  0
  -25.2343  -14.1417   20.7070 C   0  0  0  0  0  0  0  0  0  0  0  0
  -28.9531  -24.3513   20.4426 C   0  0  0  0  0  0  0  0  0  0  0  0
  -22.9232  -13.4347   21.3454 C   0  0  0  0  0  0  0  0  0  0  0  0
  -23.6931  -30.3624   23.2074 C   0  0  0  0  0  0  0  0  0  0  0  0
  -22.0610  -30.9230   20.4607 C   0  0  0  0  0  0  0  0  0  0  0  0
  -21.8016  -30.4332   17.0933 C   0  0  0  0  0  0  0  0  0  0  0  0
  -29.8785  -17.2073   20.5165 C   0  0  0  0  0  0  0  0  0  0  0  0
  -21.8230  -32.5468   27.4250 C   0  0  0  0  0  0  0  0  0  0  0  0
  -25.5306  -31.1825   21.6885 C   0  0  0  0  0  0  0  0  0  0  0  0
  -23.8454  -29.1416   20.3696 C   0  0  0  0  0  0  0  0  0  0  0  0
  -21.2330  -31.9709   26.1403 C   0  0  0  0  0  0  0  0  0  0  0  0
  -30.2275  -13.7014   20.0029 C   0  0  0  0  0  0  0  0  0  0  0  0
  -21.8181  -30.5912   25.8558 C   0  0  0  0  0  0  0  0  0  0  0  0
  -28.8760  -13.1341   20.4433 C   0  0  0  0  0  0  0  0  0  0  0  0
  -30.6613  -14.8766   20.8771 C   0  0  0  0  0  0  0  0  0  0  0  0
  -28.3193  -15.3857   21.4472 C   0  0  0  0  0  0  0  0  0  0  0  0
  -23.3359  -30.6672   25.6508 C   0  0  1  0  0  0  0  0  0  0  0  0
  -24.0284  -31.0967   21.9401 C   0  0  1  0  0  0  0  0  0  0  0  0
  -27.8097  -14.2414   20.5558 C   0  0  2  0  0  0  0  0  0  0  0  0
  -20.3403  -30.9849   15.1292 C   0  0  0  0  0  0  0  0  0  0  0  0
  -20.0320  -28.8417   21.3888 C   0  0  0  0  0  0  0  0  0  0  0  0
  -19.1633  -28.7441   19.0427 C   0  0  0  0  0  0  0  0  0  0  0  0
  -19.0312  -30.8755   20.3321 C   0  0  0  0  0  0  0  0  0  0  0  0
  -23.9920  -31.8745   15.7208 C   0  0  0  0  0  0  0  0  0  0  0  0
  -28.9576  -25.8461   20.5597 C   0  0  0  0  0  0  0  0  0  1  0  0
  -21.2763  -30.0729   19.4909 C   0  0  1  0  0  0  0  0  0  0  0  0
  -21.5504  -31.4009   15.9510 C   0  0  2  0  0  0  0  0  0  0  0  0
  -19.9031  -29.6284   20.0691 C   0  0  0  0  0  0  0  0  0  0  0  0
  -26.4741  -12.6522   21.8868 N   0  0  0  0  0  0  0  0  0  0  0  0
  -28.8728  -23.6089   21.4981 N   0  0  0  0  0  0  0  0  0  0  0  0
  -26.4793  -13.6939   21.0378 N   0  0  0  0  0  0  0  0  0  0  0  0
  -23.3110  -30.4249   20.8547 N   0  0  0  0  0  0  0  0  0  0  0  0
  -29.6034  -15.8878   20.9335 N   0  0  0  0  0  0  0  0  0  0  0  0
  -31.3034  -22.1395   21.4234 N   0  0  0  0  0  0  0  0  0  0  0  0
  -25.0578  -15.1818   19.8647 N   0  0  0  0  0  0  0  0  0  0  0  0
  -22.1693  -12.5287   22.1039 N   0  0  0  0  0  0  0  0  0  0  0  0
  -28.7871  -18.0727   20.5842 N   0  0  0  0  0  0  0  0  0  0  0  0
  -23.6428  -31.1687   24.3284 N   0  0  0  0  0  0  0  0  0  0  0  0
  -21.1833  -30.8433   18.2555 N   0  0  0  0  0  0  0  0  0  0  0  0
  -22.7351  -31.4558   15.0486 N   0  3  0  0  0  0  0  0  0  0  0  0
  -22.3313  -14.2895   20.6436 O   0  0  0  0  0  0  0  0  0  0  0  0
  -23.4933  -29.1539   23.1706 O   0  0  0  0  0  0  0  0  0  0  0  0
  -21.5856  -31.9931   20.8487 O   0  0  0  0  0  0  0  0  0  0  0  0
  -22.4757  -29.4134   16.9662 O   0  0  0  0  0  0  0  0  0  0  0  0
  -30.9925  -17.5381   20.1023 O   0  0  0  0  0  0  0  0  0  0  0  0
  -23.5157   -8.3214   25.4981 O   0  0  0  0  0  0  0  0  0  0  0  0
  -27.8216  -26.3385   19.8503 O   0  0  0  0  0  0  0  0  0  1  0  0
  -19.3817   -5.0944   23.7951 F   0  0  0  0  0  0  0  0  0  0  0  0
  -26.4449  -19.5792   20.6719 F   0  0  0  0  0  0  0  0  0  0  0  0
  -23.8767   -5.5979   25.1905 F   0  0  0  0  0  0  0  0  0  0  0  0
  1  2  1  0  0  0  0
  1  5  2  0  0  0  0
  2  6  2  0  0  0  0
  3  8  2  0  0  0  0
  3 17  1  0  0  0  0
  4  9  1  0  0  0  0
  4 17  2  0  0  0  0
  5 19  1  0  0  0  0
  6 21  1  0  0  0  0
  7 10  2  0  0  0  0
  7 20  1  0  0  0  0
  8 26  1  0  0  0  0
  9 26  2  0  0  0  0
 10 27  1  0  0  0  0
 11 12  2  0  0  0  0
 11 28  1  0  0  0  0
 12 29  1  0  0  0  0
 13 22  1  0  0  0  0
 13 27  2  0  0  0  0
 14 23  1  0  0  0  0
 14 30  2  0  0  0  0
 15 24  1  0  0  0  0
 15 25  2  0  0  0  0
 16 29  2  0  0  0  0
 16 31  1  0  0  0  0
 17 32  1  0  0  0  0
 18 32  1  0  0  0  0
 18 33  2  0  0  0  0
 18 35  1  0  0  0  0
 19 21  2  0  0  0  0
 19 40  1  0  0  0  0
 20 22  2  0  0  0  0
 20 41  1  0  0  0  0
 21 49  1  0  0  0  0
 22 42  1  0  0  0  0
 23 24  2  0  0  0  0
 23 62  1  0  0  0  0
 24 66  1  0  0  0  0
 25 30  1  0  0  0  0
 25 69  1  0  0  0  0
 26 78  1  0  0  0  0
 27 79  1  0  0  0  0
 28 31  2  0  0  0  0
 28 78  1  0  0  0  0
 29 80  1  0  0  0  0
 30 81  1  0  0  0  0
 31 82  1  0  0  0  0
 32 61  2  0  0  0  0
 33 63  1  0  0  0  0
 33 67  1  0  0  0  0
 34 57  1  0  0  0  0
 34 62  2  0  0  0  0
 35 68  1  0  0  0  0
 35 73  2  0  0  0  0
 36 50  1  0  0  0  0
 36 70  1  0  0  0  0
 36 74  2  0  0  0  0
 37 58  1  0  0  0  0
 37 64  1  0  0  0  0
 37 75  2  0  0  0  0
 38 59  1  0  0  0  0
 38 71  1  0  0  0  0
 38 76  2  0  0  0  0
 39 65  1  0  0  0  0
 39 69  1  0  0  0  0
 39 77  2  0  0  0  0
 40 43  1  0  0  0  0
 41 50  1  0  0  0  0
 42 64  1  0  0  0  0
 43 45  1  0  0  0  0
 44 46  1  0  0  0  0
 44 47  1  0  0  0  0
 45 49  1  0  0  0  0
 46 51  1  0  0  0  0
 47 65  1  0  0  0  0
 48 51  1  0  0  0  0
 48 65  1  0  0  0  0
 49 70  1  0  0  0  0
 50 64  1  0  0  0  0
 51 63  1  0  0  0  0
 52 59  1  0  0  0  0
 53 60  1  0  0  0  0
 54 60  1  0  0  0  0
 55 60  1  0  0  0  0
 56 72  1  0  0  0  0
 57 79  1  0  0  0  0
 58 60  1  0  0  0  0
 58 71  1  0  0  0  0
 59 72  1  0  0  0  0
 61 63  1  0  0  0  0
M  CHG  1  72   1
M  ISO  4  39 100  57 101  69 100  79 101
M  END
> <Batch ID>
0093

> <Smiles>
CNC(C)C(=O)NC(C(=O)N1Cc2cc([101O:1][101CH2:1]C=Nc3cc(F)c([100NH:0][100C:0](=O)N4CCCC(n5nc(-c6ccc(Oc7ccc(F)cc7F)cc6)c(C(N)=O)c5N)C4)cc3N)ccc2CC1C(=O)NC1CCCc2ccccc21)C(C)(C)C

> <Shape>
0.270

> <Color>
0.141

> <Negative vol penalty>
0.000

$$$$

  -OEChem-04052300373D

 84 92  0     1  0  0  0  0  0999 V2000
  -26.9172  -23.5225   18.4306 C   0  0  0  0  0  0  0  0  0  0  0  0
  -25.7517  -24.1085   18.9141 C   0  0  0  0  0  0  0  0  0  0  0  0
  -26.7176  -12.0261   20.8352 C   0  0  0  0  0  0  0  0  0  0  0  0
  -24.9800  -11.9498   19.1583 C   0  0  0  0  0  0  0  0  0  0  0  0
  -19.8699  -23.7039   19.6819 C   0  0  0  0  0  0  0  0  0  0  0  0
  -28.1444  -23.8264   19.0183 C   0  0  0  0  0  0  0  0  0  0  0  0
  -25.8127  -24.9979   19.9862 C   0  0  0  0  0  0  0  0  0  0  0  0
  -22.9886  -29.1350   19.2415 C   0  0  0  0  0  0  0  0  0  0  0  0
  -26.5575  -10.6593   21.0633 C   0  0  0  0  0  0  0  0  0  0  0  0
  -24.8199  -10.5831   19.3864 C   0  0  0  0  0  0  0  0  0  0  0  0
  -19.1764  -24.6619   20.4215 C   0  0  0  0  0  0  0  0  0  0  0  0
  -21.6133  -29.0099   19.4329 C   0  0  0  0  0  0  0  0  0  0  0  0
  -23.3196   -8.5982   21.6755 C   0  0  0  0  0  0  0  0  0  0  0  0
  -22.0187   -8.1082   21.7893 C   0  0  0  0  0  0  0  0  0  0  0  0
  -21.7951  -23.9931   21.1127 C   0  0  0  0  0  0  0  0  0  0  0  0
  -21.8332  -30.0047   21.6195 C   0  0  0  0  0  0  0  0  0  0  0  0
  -22.4000   -6.6560   19.8965 C   0  0  0  0  0  0  0  0  0  0  0  0
  -25.9288  -12.6713   19.8827 C   0  0  0  0  0  0  0  0  0  0  0  0
  -21.1792  -23.3695   20.0276 C   0  0  0  0  0  0  0  0  0  0  0  0
  -26.9595  -14.6954   18.7214 C   0  0  0  0  0  0  0  0  0  0  0  0
  -28.2217  -24.7275   20.0920 C   0  0  0  0  0  0  0  0  0  0  0  0
  -23.7994  -29.6867   20.2438 C   0  0  0  0  0  0  0  0  0  0  0  0
  -27.0420  -25.3132   20.5897 C   0  0  0  0  0  0  0  0  0  0  0  0
  -23.2182  -30.1379   21.4374 C   0  0  0  0  0  0  0  0  0  0  0  0
  -21.1016  -24.9511   21.8522 C   0  0  0  0  0  0  0  0  0  0  0  0
  -25.6087   -9.9378   20.3388 C   0  0  0  0  0  0  0  0  0  0  0  0
  -21.0358  -29.4422   20.6231 C   0  0  0  0  0  0  0  0  0  0  0  0
  -19.7922  -25.2855   21.5066 C   0  0  0  0  0  0  0  0  0  0  0  0
  -24.1608   -8.1172   20.6721 C   0  0  0  0  0  0  0  0  0  0  0  0
  -21.5589   -7.1371   20.8999 C   0  0  0  0  0  0  0  0  0  0  0  0
  -23.7010   -7.1461   19.7827 C   0  0  0  0  0  0  0  0  0  0  0  0
  -26.0933  -14.0833   19.6471 C   0  0  0  0  0  0  0  0  0  0  0  0
  -26.7412  -16.0415   18.8852 C   0  0  0  0  0  0  0  0  0  0  0  0
  -21.9133  -22.3543   19.2436 C   0  0  0  0  0  0  0  0  0  0  0  0
  -27.8791  -14.1004   17.7962 C   0  0  0  0  0  0  0  0  0  0  0  0
  -26.2197  -28.6240   22.0092 C   0  0  0  0  0  0  0  0  0  0  0  0
  -26.3296  -31.7061   23.0147 C   0  0  0  0  0  0  0  0  0  0  0  0
  -24.6926  -34.6663   23.4666 C   0  0  0  0  0  0  0  0  0  0  0  0
  -23.0783  -20.1594   19.2879 C   0  0  0  0  0  0  0  0  0  0  0  0
  -29.5653  -24.9887   20.7252 C   0  0  0  0  0  0  0  0  0  0  0  0
  -25.2776  -29.8391   20.0112 C   0  0  0  0  0  0  0  0  0  0  0  0
  -24.0419  -30.7560   22.5365 C   0  0  0  0  0  0  0  0  0  0  0  0
  -29.5886  -26.2287   21.6152 C   0  0  0  0  0  0  0  0  0  0  0  0
  -24.2388  -18.5823   22.4382 C   0  0  0  0  0  0  0  0  0  0  0  0
  -28.3748  -26.2456   22.5390 C   0  0  0  0  0  0  0  0  0  0  0  0
  -24.8271  -17.2805   21.9055 C   0  0  0  0  0  0  0  0  0  0  0  0
  -23.0605  -19.0707   21.5966 C   0  0  0  0  0  0  0  0  0  0  0  0
  -23.9788  -17.8923   19.6107 C   0  0  0  0  0  0  0  0  0  0  0  0
  -27.0703  -26.3019   21.7350 C   0  0  1  0  0  0  0  0  0  0  0  0
  -26.0785  -29.9440   21.3055 C   0  0  1  0  0  0  0  0  0  0  0  0
  -25.1962  -17.4266   20.4224 C   0  0  2  0  0  0  0  0  0  0  0  0
  -25.0342  -36.9922   24.3445 C   0  0  0  0  0  0  0  0  0  0  0  0
  -26.1705  -30.6483   25.8723 C   0  0  0  0  0  0  0  0  0  0  0  0
  -25.5627  -32.9592   26.6198 C   0  0  0  0  0  0  0  0  0  0  0  0
  -27.7754  -32.5386   25.5475 C   0  0  0  0  0  0  0  0  0  0  0  0
  -24.1019  -35.8731   20.8296 C   0  0  0  0  0  0  0  0  0  0  0  0
  -17.9464  -28.3402   22.1571 C   0  0  0  0  0  0  0  0  0  0  0  0
  -19.2411  -29.1378   22.1536 C   0  0  0  0  0  0  0  0  0  1  0  0
  -18.1179  -26.9744   21.5109 C   0  0  0  0  0  0  0  0  0  0  0  0
  -25.6822  -32.4904   24.1304 C   0  0  1  0  0  0  0  0  0  0  0  0
  -25.0768  -36.0931   23.1187 C   0  0  2  0  0  0  0  0  0  0  0  0
  -26.2822  -32.1457   25.5227 C   0  0  0  0  0  0  0  0  0  0  0  0
  -25.3783  -14.9679   20.3472 N   0  0  0  0  0  0  0  0  0  0  0  0
  -25.7947  -16.1496   19.8612 N   0  0  0  0  0  0  0  0  0  0  0  0
  -25.4836  -30.8775   22.2641 N   0  0  0  0  0  0  0  0  0  0  0  0
  -23.3850  -19.1141   20.1642 N   0  0  0  0  0  0  0  0  0  0  0  0
  -21.7366  -25.5740   22.9490 N   0  0  0  0  0  0  0  0  0  0  0  0
  -27.2686  -17.1314   18.2881 N   0  0  0  0  0  0  0  0  0  0  0  0
  -27.9782  -12.7028   17.7581 N   0  0  0  0  0  0  0  0  0  0  0  0
  -22.3461  -21.2566   19.8830 N   0  0  0  0  0  0  0  0  0  0  0  0
  -26.8326  -27.6449   21.2508 N   0  0  0  0  0  0  0  0  0  0  0  0
  -25.7984  -33.8970   23.7613 N   0  0  0  0  0  0  0  0  0  0  0  0
  -22.1049  -22.5964   17.9470 N   0  3  0  0  0  0  0  0  0  0  0  0
  -24.1433  -36.6465   22.0973 N   0  3  0  0  0  0  0  0  0  0  0  0
  -28.6037  -14.7881   17.0376 O   0  0  0  0  0  0  0  0  0  0  0  0
  -25.8048  -28.5032   23.1559 O   0  0  0  0  0  0  0  0  0  0  0  0
  -27.5401  -31.8297   22.8120 O   0  0  0  0  0  0  0  0  0  0  0  0
  -23.5278  -34.2744   23.4796 O   0  0  0  0  0  0  0  0  0  0  0  0
  -23.3511  -20.1917   18.0928 O   0  0  0  0  0  0  0  0  0  0  0  0
  -25.4524   -8.6041   20.5610 O   0  0  0  0  0  0  0  0  0  0  0  0
  -19.6937  -29.3207   20.8127 O   0  0  0  0  0  0  0  0  0  1  0  0
  -19.0938  -26.2239   22.2209 O   0  0  0  0  0  0  0  0  0  0  0  0
  -20.3100   -6.6655   21.0102 F   0  0  0  0  0  0  0  0  0  0  0  0
  -24.5049   -6.6793   18.8174 F   0  0  0  0  0  0  0  0  0  0  0  0
  1  2  1  0  0  0  0
  1  6  2  0  0  0  0
  2  7  2  0  0  0  0
  3  9  2  0  0  0  0
  3 18  1  0  0  0  0
  4 10  1  0  0  0  0
  4 18  2  0  0  0  0
  5 11  2  0  0  0  0
  5 19  1  0  0  0  0
  6 21  1  0  0  0  0
  7 23  1  0  0  0  0
  8 12  2  0  0  0  0
  8 22  1  0  0  0  0
  9 26  1  0  0  0  0
 10 26  2  0  0  0  0
 11 28  1  0  0  0  0
 12 27  1  0  0  0  0
 13 14  2  0  0  0  0
 13 29  1  0  0  0  0
 14 30  1  0  0  0  0
 15 19  2  0  0  0  0
 15 25  1  0  0  0  0
 16 24  1  0  0  0  0
 16 27  2  0  0  0  0
 17 30  2  0  0  0  0
 17 31  1  0  0  0  0
 18 32  1  0  0  0  0
 19 34  1  0  0  0  0
 20 32  1  0  0  0  0
 20 33  2  0  0  0  0
 20 35  1  0  0  0  0
 21 23  2  0  0  0  0
 21 40  1  0  0  0  0
 22 24  2  0  0  0  0
 22 41  1  0  0  0  0
 23 49  1  0  0  0  0
 24 42  1  0  0  0  0
 25 28  2  0  0  0  0
 25 67  1  0  0  0  0
 26 80  1  0  0  0  0
 27 81  1  0  0  0  0
 28 82  1  0  0  0  0
 29 31  2  0  0  0  0
 29 80  1  0  0  0  0
 30 83  1  0  0  0  0
 31 84  1  0  0  0  0
 32 63  2  0  0  0  0
 33 64  1  0  0  0  0
 33 68  1  0  0  0  0
 34 70  1  0  0  0  0
 34 73  2  0  0  0  0
 35 69  1  0  0  0  0
 35 75  2  0  0  0  0
 36 50  1  0  0  0  0
 36 71  1  0  0  0  0
 36 76  2  0  0  0  0
 37 60  1  0  0  0  0
 37 65  1  0  0  0  0
 37 77  2  0  0  0  0
 38 61  1  0  0  0  0
 38 72  1  0  0  0  0
 38 78  2  0  0  0  0
 39 66  1  0  0  0  0
 39 70  1  0  0  0  0
 39 79  2  0  0  0  0
 40 43  1  0  0  0  0
 41 50  1  0  0  0  0
 42 65  1  0  0  0  0
 43 45  1  0  0  0  0
 44 46  1  0  0  0  0
 44 47  1  0  0  0  0
 45 49  1  0  0  0  0
 46 51  1  0  0  0  0
 47 66  1  0  0  0  0
 48 51  1  0  0  0  0
 48 66  1  0  0  0  0
 49 71  1  0  0  0  0
 50 65  1  0  0  0  0
 51 64  1  0  0  0  0
 52 61  1  0  0  0  0
 53 62  1  0  0  0  0
 54 62  1  0  0  0  0
 55 62  1  0  0  0  0
 56 74  1  0  0  0  0
 57 58  1  0  0  0  0
 57 59  1  0  0  0  0
 58 81  1  0  0  0  0
 59 82  1  0  0  0  0
 60 62  1  0  0  0  0
 60 72  1  0  0  0  0
 61 74  1  0  0  0  0
 63 64  1  0  0  0  0
M  CHG  2  73   1  74   1
M  ISO  4  39 100  58 101  70 100  81 101
M  END
> <Batch ID>
0093

> <Smiles>
CNC(C)C(=O)NC(C(=O)N1Cc2cc([101O:1][101CH2:1]CCOc3ccc(C(=N)[100NH:0][100C:0](=O)N4CCCC(n5nc(-c6ccc(Oc7ccc(F)cc7F)cc6)c(C(N)=O)c5N)C4)cc3N)ccc2CC1C(=O)NC1CCCc2ccccc21)C(C)(C)C

> <Shape>
0.262

> <Color>
0.060

> <Negative vol penalty>
0.000

$$$$

  -OEChem-04052300373D

 84 92  0     1  0  0  0  0  0999 V2000
  -16.9755  -29.8078   24.4201 C   0  0  0  0  0  0  0  0  0  0  0  0
  -17.4449  -28.5136   24.2201 C   0  0  0  0  0  0  0  0  0  0  0  0
  -29.6133  -21.4821   20.9400 C   0  0  0  0  0  0  0  0  0  0  0  0
  -27.3423  -21.2146   20.1603 C   0  0  0  0  0  0  0  0  0  0  0  0
  -17.4756  -30.8564   23.6492 C   0  0  0  0  0  0  0  0  0  0  0  0
  -18.4139  -28.2670   23.2482 C   0  0  0  0  0  0  0  0  0  0  0  0
  -22.9212  -24.1291   23.5099 C   0  0  0  0  0  0  0  0  0  0  0  0
  -29.7810  -22.5670   20.0795 C   0  0  0  0  0  0  0  0  0  0  0  0
  -27.5099  -22.2996   19.2998 C   0  0  0  0  0  0  0  0  0  0  0  0
  -23.0495  -22.8470   22.9776 C   0  0  0  0  0  0  0  0  0  0  0  0
  -30.9221  -25.1833   17.8264 C   0  0  0  0  0  0  0  0  0  0  0  0
  -32.0996  -25.2463   17.0814 C   0  0  0  0  0  0  0  0  0  0  0  0
  -24.2411  -23.7574   21.0880 C   0  0  0  0  0  0  0  0  0  0  0  0
  -31.5561  -23.1332   16.0438 C   0  0  0  0  0  0  0  0  0  0  0  0
  -28.3940  -20.8058   20.9803 C   0  0  0  0  0  0  0  0  0  0  0  0
  -27.7598  -19.7170   23.1984 C   0  0  0  0  0  0  0  0  0  0  0  0
  -18.4582  -30.6241   22.6740 C   0  0  0  0  0  0  0  0  0  0  0  0
  -23.4432  -25.2382   22.8288 C   0  0  0  0  0  0  0  0  0  0  0  0
  -18.9266  -29.3132   22.4626 C   0  0  0  0  0  0  0  0  0  0  0  0
  -24.1203  -25.0522   21.6151 C   0  0  0  0  0  0  0  0  0  0  0  0
  -28.7293  -22.9758   19.2595 C   0  0  0  0  0  0  0  0  0  0  0  0
  -23.7070  -22.6613   21.7650 C   0  0  0  0  0  0  0  0  0  0  0  0
  -30.0616  -24.0953   17.6802 C   0  0  0  0  0  0  0  0  0  0  0  0
  -32.4166  -24.2212   16.1901 C   0  0  0  0  0  0  0  0  0  0  0  0
  -30.3785  -23.0703   16.7888 C   0  0  0  0  0  0  0  0  0  0  0  0
  -28.2204  -19.6846   21.8685 C   0  0  0  0  0  0  0  0  0  0  0  0
  -23.4244  -14.6813   20.8005 C   0  0  0  0  0  0  0  0  0  0  0  0
  -27.7759  -18.4035   23.5994 C   0  0  0  0  0  0  0  0  0  0  0  0
  -22.7414  -14.2750   21.9277 C   0  0  0  0  0  0  0  0  0  0  0  0
  -23.2958  -16.6169   21.8238 C   0  0  0  0  0  0  0  0  0  0  0  0
  -27.3536  -20.8345   23.9996 C   0  0  0  0  0  0  0  0  0  0  0  0
  -22.2056  -27.8733   21.5527 C   0  0  0  0  0  0  0  0  0  0  0  0
  -25.3222  -28.6452   21.0912 C   0  0  0  0  0  0  0  0  0  0  0  0
  -25.0543  -12.9431   19.9648 C   0  0  0  0  0  0  0  0  0  0  0  0
  -24.0063  -18.9998   21.4352 C   0  0  0  0  0  0  0  0  0  0  0  0
  -28.5454  -27.5860   20.7228 C   0  0  0  0  0  0  0  0  0  0  0  0
  -27.4240  -13.2267   20.6388 C   0  0  0  0  0  0  0  0  0  0  0  0
  -18.9342  -31.7819   21.8328 C   0  0  0  0  0  0  0  0  0  0  0  0
  -23.3198  -26.6116   23.4296 C   0  0  0  0  0  0  0  0  0  0  0  0
  -24.7164  -26.2075   20.8545 C   0  0  0  0  0  0  0  0  0  0  0  0
  -20.2313  -31.4956   21.0806 C   0  0  0  0  0  0  0  0  0  0  0  0
  -30.0517  -14.2689   22.7944 C   0  0  0  0  0  0  0  0  0  0  0  0
  -20.1652  -30.1307   20.4026 C   0  0  0  0  0  0  0  0  0  0  0  0
  -29.8369  -15.7783   22.9260 C   0  0  0  0  0  0  0  0  0  0  0  0
  -29.7231  -13.7709   21.3883 C   0  0  0  0  0  0  0  0  0  0  0  0
  -28.1752  -15.6526   21.0251 C   0  0  0  0  0  0  0  0  0  0  0  0
  -19.9952  -29.0096   21.4349 C   0  0  1  0  0  0  0  0  0  0  0  0
  -23.4399  -27.7283   22.3972 C   0  0  1  0  0  0  0  0  0  0  0  0
  -28.4331  -16.1910   22.4421 C   0  0  2  0  0  0  0  0  0  0  0  0
  -30.8683  -28.4470   20.3224 C   0  0  0  0  0  0  0  0  0  0  0  0
  -24.6449  -29.0981   18.1508 C   0  0  0  0  0  0  0  0  0  0  0  0
  -27.0956  -29.0149   17.6455 C   0  0  0  0  0  0  0  0  0  0  0  0
  -26.1916  -30.7970   19.1387 C   0  0  0  0  0  0  0  0  0  0  0  0
  -29.5189  -26.4929   23.2951 C   0  0  0  0  0  0  0  0  0  0  0  0
  -23.8455  -13.8050   19.6506 C   0  0  0  0  0  0  0  0  0  0  0  0
  -23.9016  -20.3253   22.1664 C   0  0  0  0  0  0  0  0  0  1  0  0
  -26.3275  -28.4195   19.9878 C   0  0  1  0  0  0  0  0  0  0  0  0
  -29.8384  -28.0504   21.3687 C   0  0  2  0  0  0  0  0  0  0  0  0
  -26.0521  -29.3106   18.7438 C   0  0  0  0  0  0  0  0  0  0  0  0
  -28.5083  -18.4485   21.4525 N   0  0  0  0  0  0  0  0  0  0  0  0
  -23.7428  -16.0240   20.7391 N   0  0  0  0  0  0  0  0  0  0  0  0
  -28.2279  -17.6919   22.5272 N   0  0  0  0  0  0  0  0  0  0  0  0
  -24.5642  -27.5316   21.4799 N   0  0  0  0  0  0  0  0  0  0  0  0
  -28.3773  -14.1957   20.9973 N   0  0  0  0  0  0  0  0  0  0  0  0
  -27.4475  -17.7992   24.7610 N   0  0  0  0  0  0  0  0  0  0  0  0
  -22.3098  -13.0289   22.2398 N   0  0  0  0  0  0  0  0  0  0  0  0
  -27.3985  -22.1151   23.4318 N   0  0  0  0  0  0  0  0  0  0  0  0
  -23.4030  -17.9848   22.1700 N   0  0  0  0  0  0  0  0  0  0  0  0
  -21.2567  -28.7254   22.0847 N   0  0  0  0  0  0  0  0  0  0  0  0
  -26.1582  -13.7266   20.3162 N   0  0  0  0  0  0  0  0  0  0  0  0
  -27.6427  -28.6193   20.5867 N   0  0  0  0  0  0  0  0  0  0  0  0
  -30.4167  -26.9642   22.2094 N   0  3  0  0  0  0  0  0  0  0  0  0
  -26.9780  -20.7032   25.1892 O   0  0  0  0  0  0  0  0  0  0  0  0
  -22.1210  -27.2587   20.4959 O   0  0  0  0  0  0  0  0  0  0  0  0
  -25.2186  -29.7665   21.5948 O   0  0  0  0  0  0  0  0  0  0  0  0
  -25.0476  -11.7171   19.8924 O   0  0  0  0  0  0  0  0  0  0  0  0
  -24.5624  -18.9092   20.3456 O   0  0  0  0  0  0  0  0  0  0  0  0
  -28.3567  -26.4237   20.3707 O   0  0  0  0  0  0  0  0  0  0  0  0
  -27.6690  -12.0162   20.6371 O   0  0  0  0  0  0  0  0  0  0  0  0
  -28.8925  -24.0346   18.4199 O   0  0  0  0  0  0  0  0  0  0  0  0
  -23.8331  -21.4110   21.2428 O   0  0  0  0  0  0  0  0  0  1  0  0
  -33.5467  -24.2825   15.4736 F   0  0  0  0  0  0  0  0  0  0  0  0
  -29.5552  -22.0230   16.6432 F   0  0  0  0  0  0  0  0  0  0  0  0
  -22.4835  -15.6199   22.9602 S   0  0  0  0  0  0  0  0  0  0  0  0
  1  2  1  0  0  0  0
  1  5  2  0  0  0  0
  2  6  2  0  0  0  0
  3  8  2  0  0  0  0
  3 15  1  0  0  0  0
  4  9  1  0  0  0  0
  4 15  2  0  0  0  0
  5 17  1  0  0  0  0
  6 19  1  0  0  0  0
  7 10  2  0  0  0  0
  7 18  1  0  0  0  0
  8 21  1  0  0  0  0
  9 21  2  0  0  0  0
 10 22  1  0  0  0  0
 11 12  2  0  0  0  0
 11 23  1  0  0  0  0
 12 24  1  0  0  0  0
 13 20  1  0  0  0  0
 13 22  2  0  0  0  0
 14 24  2  0  0  0  0
 14 25  1  0  0  0  0
 15 26  1  0  0  0  0
 16 26  1  0  0  0  0
 16 28  2  0  0  0  0
 16 31  1  0  0  0  0
 17 19  2  0  0  0  0
 17 38  1  0  0  0  0
 18 20  2  0  0  0  0
 18 39  1  0  0  0  0
 19 47  1  0  0  0  0
 20 40  1  0  0  0  0
 21 80  1  0  0  0  0
 22 81  1  0  0  0  0
 23 25  2  0  0  0  0
 23 80  1  0  0  0  0
 24 82  1  0  0  0  0
 25 83  1  0  0  0  0
 26 60  2  0  0  0  0
 27 29  2  0  0  0  0
 27 55  1  0  0  0  0
 27 61  1  0  0  0  0
 28 62  1  0  0  0  0
 28 65  1  0  0  0  0
 29 66  1  0  0  0  0
 29 84  1  0  0  0  0
 30 61  2  0  0  0  0
 30 68  1  0  0  0  0
 30 84  1  0  0  0  0
 31 67  1  0  0  0  0
 31 73  2  0  0  0  0
 32 48  1  0  0  0  0
 32 69  1  0  0  0  0
 32 74  2  0  0  0  0
 33 57  1  0  0  0  0
 33 63  1  0  0  0  0
 33 75  2  0  0  0  0
 34 55  1  0  0  0  0
 34 70  1  0  0  0  0
 34 76  2  0  0  0  0
 35 56  1  0  0  0  0
 35 68  1  0  0  0  0
 35 77  2  0  0  0  0
 36 58  1  0  0  0  0
 36 71  1  0  0  0  0
 36 78  2  0  0  0  0
 37 64  1  0  0  0  0
 37 70  1  0  0  0  0
 37 79  2  0  0  0  0
 38 41  1  0  0  0  0
 39 48  1  0  0  0  0
 40 63  1  0  0  0  0
 41 43  1  0  0  0  0
 42 44  1  0  0  0  0
 42 45  1  0  0  0  0
 43 47  1  0  0  0  0
 44 49  1  0  0  0  0
 45 64  1  0  0  0  0
 46 49  1  0  0  0  0
 46 64  1  0  0  0  0
 47 69  1  0  0  0  0
 48 63  1  0  0  0  0
 49 62  1  0  0  0  0
 50 58  1  0  0  0  0
 51 59  1  0  0  0  0
 52 59  1  0  0  0  0
 53 59  1  0  0  0  0
 54 72  1  0  0  0  0
 56 81  1  0  0  0  0
 57 59  1  0  0  0  0
 57 71  1  0  0  0  0
 58 72  1  0  0  0  0
 60 62  1  0  0  0  0
M  CHG  1  72   1
M  ISO  4  37 100  56 101  70 100  81 101
M  END
> <Batch ID>
0093

> <Smiles>
CNC(C)C(=O)NC(C(=O)N1Cc2cc([101O:1][101CH2:1]C(=O)Nc3nc(CC(=O)[100NH:0][100C:0](=O)N4CCCC(n5nc(-c6ccc(Oc7ccc(F)cc7F)cc6)c(C(N)=O)c5N)C4)c(N)s3)ccc2CC1C(=O)NC1CCCc2ccccc21)C(C)(C)C

> <Shape>
0.229

> <Color>
0.070

> <Negative vol penalty>
0.000

$$$$

  -OEChem-04052300373D

 85 93  0     1  0  0  0  0  0999 V2000
  -32.0424  -28.2526   21.5981 C   0  0  0  0  0  0  0  0  0  0  0  0
  -30.8635  -27.5815   21.2895 C   0  0  0  0  0  0  0  0  0  0  0  0
  -23.0604  -10.2136   19.9752 C   0  0  0  0  0  0  0  0  0  0  0  0
  -24.0250   -9.4898   22.0687 C   0  0  0  0  0  0  0  0  0  0  0  0
  -27.6889  -20.2226   18.6807 C   0  0  0  0  0  0  0  0  0  0  0  0
  -32.0483  -29.2262   22.5960 C   0  0  0  0  0  0  0  0  0  0  0  0
  -29.6899  -27.8830   21.9796 C   0  0  0  0  0  0  0  0  0  0  0  0
  -25.6916  -28.3399   18.9054 C   0  0  0  0  0  0  0  0  0  0  0  0
  -26.5705  -21.0438   18.8237 C   0  0  0  0  0  0  0  0  0  0  0  0
  -22.2887   -9.0526   19.9294 C   0  0  0  0  0  0  0  0  0  0  0  0
  -23.2532   -8.3288   22.0229 C   0  0  0  0  0  0  0  0  0  0  0  0
  -25.1076  -27.1622   18.4412 C   0  0  0  0  0  0  0  0  0  0  0  0
  -20.0590   -7.4361   22.6716 C   0  0  0  0  0  0  0  0  0  0  0  0
  -19.4105   -7.0442   23.8426 C   0  0  0  0  0  0  0  0  0  0  0  0
  -26.2571  -18.3828   18.0467 C   0  0  0  0  0  0  0  0  0  0  0  0
  -23.3797  -27.3675   20.1120 C   0  0  0  0  0  0  0  0  0  0  0  0
  -20.6207   -4.9533   23.8132 C   0  0  0  0  0  0  0  0  0  0  0  0
  -23.9286  -10.4322   21.0448 C   0  0  0  0  0  0  0  0  0  0  0  0
  -27.5322  -18.8921   18.2922 C   0  0  0  0  0  0  0  0  0  0  0  0
  -24.3771  -12.8620   21.6792 C   0  0  0  0  0  0  0  0  0  0  0  0
  -30.8720  -29.5466   23.2920 C   0  0  0  0  0  0  0  0  0  0  0  0
  -25.1293  -29.0356   19.9854 C   0  0  0  0  0  0  0  0  0  0  0  0
  -29.6803  -28.8609   22.9887 C   0  0  0  0  0  0  0  0  0  0  0  0
  -23.9571  -28.5552   20.5864 C   0  0  0  0  0  0  0  0  0  0  0  0
  -25.2953  -20.5344   18.5782 C   0  0  0  0  0  0  0  0  0  0  0  0
  -25.1386  -19.2039   18.1897 C   0  0  0  0  0  0  0  0  0  0  0  0
  -22.3850   -8.1103   20.9532 C   0  0  0  0  0  0  0  0  0  0  0  0
  -23.9531  -26.6742   19.0463 C   0  0  0  0  0  0  0  0  0  0  0  0
  -20.9883   -6.5866   22.0712 C   0  0  0  0  0  0  0  0  0  0  0  0
  -19.6913   -5.8029   24.4135 C   0  0  0  0  0  0  0  0  0  0  0  0
  -21.2692   -5.3452   22.6420 C   0  0  0  0  0  0  0  0  0  0  0  0
  -24.7266  -11.6310   21.0924 C   0  0  0  0  0  0  0  0  0  0  0  0
  -25.4660  -13.6693   21.4577 C   0  0  0  0  0  0  0  0  0  0  0  0
  -28.7238  -18.0182   18.1397 C   0  0  0  0  0  0  0  0  0  0  0  0
  -23.1758  -13.2417   22.3635 C   0  0  0  0  0  0  0  0  0  0  0  0
  -26.1140  -29.8238   22.9030 C   0  0  0  0  0  0  0  0  0  0  0  0
  -23.3210  -31.4717   22.9775 C   0  0  0  0  0  0  0  0  0  0  0  0
  -24.1733  -22.7269   19.1055 C   0  0  0  0  0  0  0  0  0  0  0  0
  -20.1451  -31.8457   21.7856 C   0  0  0  0  0  0  0  0  0  0  0  0
  -29.4736  -15.6604   18.1908 C   0  0  0  0  0  0  0  0  0  0  0  0
  -30.9379  -30.5730   24.3951 C   0  0  0  0  0  0  0  0  0  0  0  0
  -25.7564  -30.3189   20.4570 C   0  0  0  0  0  0  0  0  0  0  0  0
  -23.3027  -29.2755   21.7359 C   0  0  0  0  0  0  0  0  0  0  0  0
  -29.5693  -31.0979   24.8213 C   0  0  0  0  0  0  0  0  0  0  0  0
  -30.1052  -12.5551   19.7576 C   0  0  0  0  0  0  0  0  0  0  0  0
  -28.5899  -29.9437   25.0096 C   0  0  0  0  0  0  0  0  0  0  0  0
  -28.7355  -12.1398   20.3014 C   0  0  0  0  0  0  0  0  0  0  0  0
  -29.9910  -13.2449   18.3989 C   0  0  0  0  0  0  0  0  0  0  0  0
  -27.6858  -13.9540   18.8904 C   0  0  0  0  0  0  0  0  0  0  0  0
  -28.3814  -29.1774   23.6978 C   0  0  1  0  0  0  0  0  0  0  0  0
  -25.3888  -30.6702   21.8954 C   0  0  1  0  0  0  0  0  0  0  0  0
  -27.7409  -13.3180   20.2888 C   0  0  1  0  0  0  0  0  0  0  0  0
  -18.0897  -33.2581   22.0651 C   0  0  0  0  0  0  0  0  0  0  0  0
  -22.6712  -30.0078   25.5746 C   0  0  0  0  0  0  0  0  0  0  0  0
  -20.2859  -30.7151   25.2949 C   0  0  0  0  0  0  0  0  0  0  0  0
  -22.0714  -32.4357   25.5674 C   0  0  0  0  0  0  0  0  0  0  0  0
  -20.2542  -32.7663   18.9750 C   0  0  0  0  0  0  0  0  0  0  0  0
  -22.7487  -23.2680   19.1438 C   0  0  0  0  0  0  0  0  0  0  0  0
  -22.6762  -24.7321   19.5501 C   0  0  0  0  0  0  0  0  0  1  0  0
  -21.9044  -31.1564   23.3931 C   0  0  1  0  0  0  0  0  0  0  0  0
  -19.3895  -33.0690   21.2986 C   0  0  2  0  0  0  0  0  0  0  0  0
  -21.7464  -31.0639   24.9371 C   0  0  0  0  0  0  0  0  0  0  0  0
  -25.9423  -11.6500   20.5395 N   0  0  0  0  0  0  0  0  0  0  0  0
  -26.3662  -12.9028   20.7778 N   0  0  0  0  0  0  0  0  0  0  0  0
  -23.9571  -30.5225   22.1650 N   0  0  0  0  0  0  0  0  0  0  0  0
  -29.0383  -14.3540   18.4739 N   0  0  0  0  0  0  0  0  0  0  0  0
  -23.8568  -18.6669   17.9348 N   0  0  0  0  0  0  0  0  0  0  0  0
  -25.7316  -14.9531   21.7799 N   0  0  0  0  0  0  0  0  0  0  0  0
  -22.1568  -12.2895   22.5029 N   0  0  0  0  0  0  0  0  0  0  0  0
  -24.1755  -21.3866   18.7285 N   0  0  0  0  0  0  0  0  0  0  0  0
  -28.4990  -16.6547   18.3317 N   0  0  0  0  0  0  0  0  0  0  0  0
  -27.4909  -29.9080   22.8217 N   0  0  0  0  0  0  0  0  0  0  0  0
  -21.0602  -32.1673   22.7656 N   0  0  0  0  0  0  0  0  0  0  0  0
  -19.0657  -32.9352   19.8501 N   0  3  0  0  0  0  0  0  0  0  0  0
  -29.7983  -18.5217   17.8241 O   0  0  0  0  0  0  0  0  0  0  0  0
  -23.0041  -14.3963   22.8228 O   0  0  0  0  0  0  0  0  0  0  0  0
  -25.4719  -29.1458   23.6966 O   0  0  0  0  0  0  0  0  0  0  0  0
  -23.8414  -32.5249   23.3538 O   0  0  0  0  0  0  0  0  0  0  0  0
  -25.1441  -23.4244   19.3802 O   0  0  0  0  0  0  0  0  0  0  0  0
  -19.9411  -30.7172   21.3437 O   0  0  0  0  0  0  0  0  0  0  0  0
  -30.6385  -15.9242   17.8768 O   0  0  0  0  0  0  0  0  0  0  0  0
  -21.6319   -6.9774   20.9090 O   0  0  0  0  0  0  0  0  0  0  0  0
  -23.3813  -25.5245   18.5955 O   0  0  0  0  0  0  0  0  0  1  0  0
  -19.0696   -5.4273   25.5389 F   0  0  0  0  0  0  0  0  0  0  0  0
  -22.1619   -4.5253   22.0705 F   0  0  0  0  0  0  0  0  0  0  0  0
  1  2  1  0  0  0  0
  1  6  2  0  0  0  0
  2  7  2  0  0  0  0
  3 10  2  0  0  0  0
  3 18  1  0  0  0  0
  4 11  1  0  0  0  0
  4 18  2  0  0  0  0
  5  9  2  0  0  0  0
  5 19  1  0  0  0  0
  6 21  1  0  0  0  0
  7 23  1  0  0  0  0
  8 12  2  0  0  0  0
  8 22  1  0  0  0  0
  9 25  1  0  0  0  0
 10 27  1  0  0  0  0
 11 27  2  0  0  0  0
 12 28  1  0  0  0  0
 13 14  2  0  0  0  0
 13 29  1  0  0  0  0
 14 30  1  0  0  0  0
 15 19  2  0  0  0  0
 15 26  1  0  0  0  0
 16 24  1  0  0  0  0
 16 28  2  0  0  0  0
 17 30  2  0  0  0  0
 17 31  1  0  0  0  0
 18 32  1  0  0  0  0
 19 34  1  0  0  0  0
 20 32  1  0  0  0  0
 20 33  2  0  0  0  0
 20 35  1  0  0  0  0
 21 23  2  0  0  0  0
 21 41  1  0  0  0  0
 22 24  2  0  0  0  0
 22 42  1  0  0  0  0
 23 50  1  0  0  0  0
 24 43  1  0  0  0  0
 25 26  2  0  0  0  0
 25 70  1  0  0  0  0
 26 67  1  0  0  0  0
 27 82  1  0  0  0  0
 28 83  1  0  0  0  0
 29 31  2  0  0  0  0
 29 82  1  0  0  0  0
 30 84  1  0  0  0  0
 31 85  1  0  0  0  0
 32 63  2  0  0  0  0
 33 64  1  0  0  0  0
 33 68  1  0  0  0  0
 34 71  1  0  0  0  0
 34 75  2  0  0  0  0
 35 69  1  0  0  0  0
 35 76  2  0  0  0  0
 36 51  1  0  0  0  0
 36 72  1  0  0  0  0
 36 77  2  0  0  0  0
 37 60  1  0  0  0  0
 37 65  1  0  0  0  0
 37 78  2  0  0  0  0
 38 58  1  0  0  0  0
 38 70  1  0  0  0  0
 38 79  2  0  0  0  0
 39 61  1  0  0  0  0
 39 73  1  0  0  0  0
 39 80  2  0  0  0  0
 40 66  1  0  0  0  0
 40 71  1  0  0  0  0
 40 81  2  0  0  0  0
 41 44  1  0  0  0  0
 42 51  1  0  0  0  0
 43 65  1  0  0  0  0
 44 46  1  0  0  0  0
 45 47  1  0  0  0  0
 45 48  1  0  0  0  0
 46 50  1  0  0  0  0
 47 52  1  0  0  0  0
 48 66  1  0  0  0  0
 49 52  1  0  0  0  0
 49 66  1  0  0  0  0
 50 72  1  0  0  0  0
 51 65  1  0  0  0  0
 52 64  1  0  0  0  0
 53 61  1  0  0  0  0
 54 62  1  0  0  0  0
 55 62  1  0  0  0  0
 56 62  1  0  0  0  0
 57 74  1  0  0  0  0
 58 59  1  0  0  0  0
 59 83  1  0  0  0  0
 60 62  1  0  0  0  0
 60 73  1  0  0  0  0
 61 74  1  0  0  0  0
 63 64  1  0  0  0  0
M  CHG  1  74   1
M  ISO  4  40 100  59 101  71 100  83 101
M  END
> <Batch ID>
0093

> <Smiles>
CNC(C)C(=O)NC(C(=O)N1Cc2cc([101O:1][101CH2:1]CC(=O)Nc3ccc(C(=O)[100NH:0][100C:0](=O)N4CCCC(n5nc(-c6ccc(Oc7ccc(F)cc7F)cc6)c(C(N)=O)c5N)C4)cc3N)ccc2CC1C(=O)NC1CCCc2ccccc21)C(C)(C)C

> <Shape>
0.248

> <Color>
0.128

> <Negative vol penalty>
0.000

$$$$

  -OEChem-04052300373D

 88 97  0     1  0  0  0  0  0999 V2000
  -16.9189  -30.0724   24.1626 C   0  0  0  0  0  0  0  0  0  0  0  0
  -16.9524  -28.6928   24.3383 C   0  0  0  0  0  0  0  0  0  0  0  0
  -25.2667  -12.0810   21.5634 C   0  0  0  0  0  0  0  0  0  0  0  0
  -29.0350  -23.3991   19.6925 C   0  0  0  0  0  0  0  0  0  0  0  0
  -29.8616  -22.1917   17.7700 C   0  0  0  0  0  0  0  0  0  0  0  0
  -17.7873  -30.6799   23.2567 C   0  0  0  0  0  0  0  0  0  0  0  0
  -17.8537  -27.9197   23.6072 C   0  0  0  0  0  0  0  0  0  0  0  0
  -21.8278  -21.9831   24.1360 C   0  0  0  0  0  0  0  0  0  0  0  0
  -26.2859  -11.9401   20.6215 C   0  0  0  0  0  0  0  0  0  0  0  0
  -24.4819  -13.2341   21.5745 C   0  0  0  0  0  0  0  0  0  0  0  0
  -29.7632  -24.5222   19.3002 C   0  0  0  0  0  0  0  0  0  0  0  0
  -30.5898  -23.3148   17.3777 C   0  0  0  0  0  0  0  0  0  0  0  0
  -22.0794  -20.7914   23.4575 C   0  0  0  0  0  0  0  0  0  0  0  0
  -29.4651  -27.0197   17.0405 C   0  0  0  0  0  0  0  0  0  0  0  0
  -28.8218  -28.2566   17.0826 C   0  0  0  0  0  0  0  0  0  0  0  0
  -23.5864  -21.9584   21.9789 C   0  0  0  0  0  0  0  0  0  0  0  0
  -22.5295  -17.0026   20.0160 C   0  0  0  0  0  0  0  0  0  0  0  0
  -30.4742  -29.0627   18.6500 C   0  0  0  0  0  0  0  0  0  0  0  0
  -29.0842  -22.2338   18.9274 C   0  0  0  0  0  0  0  0  0  0  0  0
  -27.0123  -20.7461   18.9698 C   0  0  0  0  0  0  0  0  0  0  0  0
  -18.7063  -29.9150   22.5212 C   0  0  0  0  0  0  0  0  0  0  0  0
  -22.4463  -23.1755   23.7335 C   0  0  0  0  0  0  0  0  0  0  0  0
  -18.7342  -28.5174   22.6896 C   0  0  0  0  0  0  0  0  0  0  0  0
  -23.3429  -23.1634   22.6555 C   0  0  0  0  0  0  0  0  0  0  0  0
  -26.5203  -12.9523   19.6909 C   0  0  0  0  0  0  0  0  0  0  0  0
  -22.9518  -17.2763   21.3403 C   0  0  0  0  0  0  0  0  0  0  0  0
  -24.7163  -14.2463   20.6439 C   0  0  0  0  0  0  0  0  0  0  0  0
  -30.5405  -24.4801   18.1428 C   0  0  0  0  0  0  0  0  0  0  0  0
  -22.9566  -20.7795   22.3769 C   0  0  0  0  0  0  0  0  0  0  0  0
  -30.6130  -26.8043   17.8032 C   0  0  0  0  0  0  0  0  0  0  0  0
  -29.3263  -29.2781   17.8874 C   0  0  0  0  0  0  0  0  0  0  0  0
  -31.1176  -27.8258   18.6079 C   0  0  0  0  0  0  0  0  0  0  0  0
  -25.7355  -14.1055   19.7021 C   0  0  0  0  0  0  0  0  0  0  0  0
  -28.3327  -21.0730   19.3324 C   0  0  0  0  0  0  0  0  0  0  0  0
  -23.8161  -16.2704   21.7126 C   0  0  0  0  0  0  0  0  0  0  0  0
  -26.7651  -19.5563   19.6097 C   0  0  0  0  0  0  0  0  0  0  0  0
  -23.1484  -15.8377   19.6194 C   0  0  0  0  0  0  0  0  0  0  0  0
  -26.0917  -21.4547   18.1295 C   0  0  0  0  0  0  0  0  0  0  0  0
  -21.4182  -25.9783   22.6420 C   0  0  0  0  0  0  0  0  0  0  0  0
  -24.5500  -26.7848   22.8938 C   0  0  0  0  0  0  0  0  0  0  0  0
  -27.8055  -25.7655   22.9910 C   0  0  0  0  0  0  0  0  0  0  0  0
  -29.4450  -14.6512   21.1173 C   0  0  0  0  0  0  0  0  0  0  0  0
  -19.5926  -30.6111   21.5189 C   0  0  0  0  0  0  0  0  0  0  0  0
  -22.1849  -24.4475   24.4926 C   0  0  0  0  0  0  0  0  0  0  0  0
  -24.0482  -24.4126   22.1966 C   0  0  0  0  0  0  0  0  0  0  0  0
  -20.7746  -29.7622   21.0580 C   0  0  0  0  0  0  0  0  0  0  0  0
  -28.7380  -17.2108   23.4890 C   0  0  0  0  0  0  0  0  0  0  0  0
  -20.3141  -28.3505   20.7092 C   0  0  0  0  0  0  0  0  0  0  0  0
  -28.4387  -18.4373   22.6252 C   0  0  0  0  0  0  0  0  0  0  0  0
  -29.8398  -16.3467   22.8796 C   0  0  0  0  0  0  0  0  0  0  0  0
  -29.3066  -17.1666   20.6175 C   0  0  0  0  0  0  0  0  0  0  0  0
  -19.7147  -27.6475   21.9331 C   0  0  1  0  0  0  0  0  0  0  0  0
  -22.4745  -25.7020   23.6743 C   0  0  1  0  0  0  0  0  0  0  0  0
  -28.1632  -18.0394   21.1627 C   0  0  2  0  0  0  0  0  0  0  0  0
  -24.5410  -16.0720   22.9880 C   0  0  0  0  0  0  0  0  0  0  0  0
  -30.1447  -26.6574   23.1651 C   0  0  0  0  0  0  0  0  0  0  0  0
  -24.4283  -27.6673   19.9755 C   0  0  0  0  0  0  0  0  0  0  0  0
  -26.9314  -27.6396   19.9352 C   0  0  0  0  0  0  0  0  0  0  0  0
  -25.7276  -29.1917   21.4730 C   0  0  0  0  0  0  0  0  0  0  0  0
  -28.3000  -24.3011   25.5149 C   0  0  0  0  0  0  0  0  0  0  0  0
  -27.6115  -12.7984   18.6858 C   0  0  0  0  0  0  0  0  0  0  0  0
  -22.5294  -18.4486   22.1761 C   0  0  0  0  0  0  0  0  0  1  0  0
  -29.0101  -13.0747   19.2505 C   0  0  0  0  0  0  0  0  0  0  0  0
  -25.7489  -26.7147   21.9791 C   0  0  1  0  0  0  0  0  0  0  0  0
  -28.9446  -26.1204   23.9296 C   0  0  2  0  0  0  0  0  0  0  0  0
  -25.6945  -27.7800   20.8479 C   0  0  0  0  0  0  0  0  0  0  0  0
  -28.8856  -20.1643   20.1402 N   0  0  0  0  0  0  0  0  0  0  0  0
  -23.9278  -15.4014   20.6588 N   0  0  0  0  0  0  0  0  0  0  0  0
  -27.9078  -19.2547   20.2905 N   0  0  0  0  0  0  0  0  0  0  0  0
  -23.7548  -25.6324   22.9670 N   0  0  0  0  0  0  0  0  0  0  0  0
  -29.5166  -16.0028   21.4928 N   0  0  0  0  0  0  0  0  0  0  0  0
  -25.6838  -18.7490   19.6509 N   0  0  0  0  0  0  0  0  0  0  0  0
  -26.5078  -22.6617   17.5513 N   0  0  0  0  0  0  0  0  0  0  0  0
  -20.7649  -27.1837   22.8143 N   0  0  0  0  0  0  0  0  0  0  0  0
  -26.9240  -26.8147   22.8379 N   0  0  0  0  0  0  0  0  0  0  0  0
  -29.1269  -14.4129   19.7858 N   0  0  0  0  0  0  0  0  0  0  0  0
  -29.3762  -24.9187   24.6980 N   0  3  0  0  0  0  0  0  0  0  0  0
  -24.9286  -21.0383   17.9115 O   0  0  0  0  0  0  0  0  0  0  0  0
  -21.2122  -25.1592   21.7541 O   0  0  0  0  0  0  0  0  0  0  0  0
  -24.3313  -27.8214   23.5257 O   0  0  0  0  0  0  0  0  0  0  0  0
  -27.7095  -24.6686   22.4450 O   0  0  0  0  0  0  0  0  0  0  0  0
  -29.6442  -13.7253   21.9111 O   0  0  0  0  0  0  0  0  0  0  0  0
  -23.0774  -15.1724   18.4726 O   0  0  0  0  0  0  0  0  0  0  0  0
  -31.2510  -25.5760   17.7596 O   0  0  0  0  0  0  0  0  0  0  0  0
  -23.2034  -19.6178   21.7125 O   0  0  0  0  0  0  0  0  0  1  0  0
  -28.7093  -30.4663   17.9266 F   0  0  0  0  0  0  0  0  0  0  0  0
  -32.2206  -27.6251   19.3419 F   0  0  0  0  0  0  0  0  0  0  0  0
  -25.9646  -15.0774   18.8056 F   0  0  0  0  0  0  0  0  0  0  0  0
  1  2  1  0  0  0  0
  1  6  2  0  0  0  0
  2  7  2  0  0  0  0
  3  9  1  0  0  0  0
  3 10  2  0  0  0  0
  4 11  2  0  0  0  0
  4 19  1  0  0  0  0
  5 12  1  0  0  0  0
  5 19  2  0  0  0  0
  6 21  1  0  0  0  0
  7 23  1  0  0  0  0
  8 13  2  0  0  0  0
  8 22  1  0  0  0  0
  9 25  2  0  0  0  0
 10 27  1  0  0  0  0
 11 28  1  0  0  0  0
 12 28  2  0  0  0  0
 13 29  1  0  0  0  0
 14 15  2  0  0  0  0
 14 30  1  0  0  0  0
 15 31  1  0  0  0  0
 16 24  1  0  0  0  0
 16 29  2  0  0  0  0
 17 26  1  0  0  0  0
 17 37  2  0  0  0  0
 18 31  2  0  0  0  0
 18 32  1  0  0  0  0
 19 34  1  0  0  0  0
 20 34  1  0  0  0  0
 20 36  2  0  0  0  0
 20 38  1  0  0  0  0
 21 23  2  0  0  0  0
 21 43  1  0  0  0  0
 22 24  2  0  0  0  0
 22 44  1  0  0  0  0
 23 52  1  0  0  0  0
 24 45  1  0  0  0  0
 25 33  1  0  0  0  0
 25 61  1  0  0  0  0
 26 35  2  0  0  0  0
 26 62  1  0  0  0  0
 27 33  2  0  0  0  0
 27 68  1  0  0  0  0
 28 84  1  0  0  0  0
 29 85  1  0  0  0  0
 30 32  2  0  0  0  0
 30 84  1  0  0  0  0
 31 86  1  0  0  0  0
 32 87  1  0  0  0  0
 33 88  1  0  0  0  0
 34 67  2  0  0  0  0
 35 55  1  0  0  0  0
 35 68  1  0  0  0  0
 36 69  1  0  0  0  0
 36 72  1  0  0  0  0
 37 68  1  0  0  0  0
 37 83  1  0  0  0  0
 38 73  1  0  0  0  0
 38 78  2  0  0  0  0
 39 53  1  0  0  0  0
 39 74  1  0  0  0  0
 39 79  2  0  0  0  0
 40 64  1  0  0  0  0
 40 70  1  0  0  0  0
 40 80  2  0  0  0  0
 41 65  1  0  0  0  0
 41 75  1  0  0  0  0
 41 81  2  0  0  0  0
 42 71  1  0  0  0  0
 42 76  1  0  0  0  0
 42 82  2  0  0  0  0
 43 46  1  0  0  0  0
 44 53  1  0  0  0  0
 45 70  1  0  0  0  0
 46 48  1  0  0  0  0
 47 49  1  0  0  0  0
 47 50  1  0  0  0  0
 48 52  1  0  0  0  0
 49 54  1  0  0  0  0
 50 71  1  0  0  0  0
 51 54  1  0  0  0  0
 51 71  1  0  0  0  0
 52 74  1  0  0  0  0
 53 70  1  0  0  0  0
 54 69  1  0  0  0  0
 56 65  1  0  0  0  0
 57 66  1  0  0  0  0
 58 66  1  0  0  0  0
 59 66  1  0  0  0  0
 60 77  1  0  0  0  0
 61 63  1  0  0  0  0
 62 85  1  0  0  0  0
 63 76  1  0  0  0  0
 64 66  1  0  0  0  0
 64 75  1  0  0  0  0
 65 77  1  0  0  0  0
 67 69  1  0  0  0  0
M  CHG  1  77   1
M  ISO  4  42 100  62 101  76 100  85 101
M  END
> <Batch ID>
0093

> <Smiles>
CNC(C)C(=O)NC(C(=O)N1Cc2cc([101O:1][101CH2:1]C3=C(C)N(c4cccc(CC[100NH:0][100C:0](=O)N5CCCC(n6nc(-c7ccc(Oc8ccc(F)cc8F)cc7)c(C(N)=O)c6N)C5)c4F)C(=O)C3)ccc2CC1C(=O)NC1CCCc2ccccc21)C(C)(C)C

> <Shape>
0.235

> <Color>
0.050

> <Negative vol penalty>
0.000

$$$$

  -OEChem-04052300373D

 79 88  0     1  0  0  0  0  0999 V2000
  -16.8199  -29.6830   24.3544 C   0  0  0  0  0  0  0  0  0  0  0  0
  -17.1912  -28.6324   23.5215 C   0  0  0  0  0  0  0  0  0  0  0  0
  -26.4709  -17.0808   19.8711 C   0  0  0  0  0  0  0  0  0  0  0  0
  -28.8796  -16.8952   19.8498 C   0  0  0  0  0  0  0  0  0  0  0  0
  -17.5515  -30.8699   24.3458 C   0  0  0  0  0  0  0  0  0  0  0  0
  -18.2937  -28.7684   22.6787 C   0  0  0  0  0  0  0  0  0  0  0  0
  -22.2570  -24.3873   21.0651 C   0  0  0  0  0  0  0  0  0  0  0  0
  -26.3821  -15.8541   20.5291 C   0  0  0  0  0  0  0  0  0  0  0  0
  -28.7909  -15.6685   20.5077 C   0  0  0  0  0  0  0  0  0  0  0  0
  -22.3569  -23.5847   19.9295 C   0  0  0  0  0  0  0  0  0  0  0  0
  -25.5064  -12.5996   21.8946 C   0  0  0  0  0  0  0  0  0  0  0  0
  -24.5559  -11.6855   21.4402 C   0  0  0  0  0  0  0  0  0  0  0  0
  -23.9569  -25.1254   18.9886 C   0  0  0  0  0  0  0  0  0  0  0  0
  -25.6177  -11.6602   19.2701 C   0  0  0  0  0  0  0  0  0  0  0  0
  -27.7196  -17.6014   19.5314 C   0  0  0  0  0  0  0  0  0  0  0  0
  -27.9156  -20.1432   19.4392 C   0  0  0  0  0  0  0  0  0  0  0  0
  -18.6693  -31.0171   23.5095 C   0  0  0  0  0  0  0  0  0  0  0  0
  -22.9994  -25.5726   21.1665 C   0  0  0  0  0  0  0  0  0  0  0  0
  -19.0401  -29.9589   22.6579 C   0  0  0  0  0  0  0  0  0  0  0  0
  -23.8666  -25.9400   20.1276 C   0  0  0  0  0  0  0  0  0  0  0  0
  -27.5422  -15.1479   20.8474 C   0  0  0  0  0  0  0  0  0  0  0  0
  -23.2047  -23.9552   18.8898 C   0  0  0  0  0  0  0  0  0  0  0  0
  -26.5126  -13.0440   21.0367 C   0  0  0  0  0  0  0  0  0  0  0  0
  -24.6115  -11.2157   20.1280 C   0  0  0  0  0  0  0  0  0  0  0  0
  -26.5682  -12.5743   19.7245 C   0  0  0  0  0  0  0  0  0  0  0  0
  -27.8119  -18.8682   18.8513 C   0  0  0  0  0  0  0  0  0  0  0  0
  -23.1996  -21.7198   14.0112 C   0  0  0  0  0  0  0  0  0  0  0  0
  -24.5045  -21.3647   14.0642 C   0  0  0  0  0  0  0  0  0  0  0  0
  -27.9737  -21.0086   18.3743 C   0  0  0  0  0  0  0  0  0  0  0  0
  -24.1448  -22.7113   15.5981 C   0  0  0  0  0  0  0  0  0  0  0  0
  -27.9558  -20.5121   20.8241 C   0  0  0  0  0  0  0  0  0  0  0  0
  -22.2763  -28.6558   21.4406 C   0  0  0  0  0  0  0  0  0  0  0  0
  -25.4843  -28.9760   21.7992 C   0  0  0  0  0  0  0  0  0  0  0  0
  -28.6032  -27.7111   21.2346 C   0  0  0  0  0  0  0  0  0  0  0  0
  -26.0353  -20.0360   12.6349 C   0  0  0  0  0  0  0  0  0  0  0  0
  -19.4006  -32.3360   23.5006 C   0  0  0  0  0  0  0  0  0  0  0  0
  -22.9007  -26.4136   22.4096 C   0  0  0  0  0  0  0  0  0  0  0  0
  -24.7004  -27.1924   20.1962 C   0  0  0  0  0  0  0  0  0  0  0  0
  -22.4033  -21.1756   12.9135 C   0  0  0  0  0  0  0  0  0  0  0  0
  -20.7801  -32.2633   22.8509 C   0  0  0  0  0  0  0  0  0  0  0  0
  -29.3369  -21.2733   13.8043 C   0  0  0  0  0  0  0  0  0  0  0  0
  -20.7084  -31.5046   21.5295 C   0  0  0  0  0  0  0  0  0  0  0  0
  -29.3580  -20.8174   15.2620 C   0  0  0  0  0  0  0  0  0  0  0  0
  -23.5494  -20.3915   12.1640 C   0  0  0  0  0  0  0  0  0  0  0  0
  -28.4537  -20.3759   12.9432 C   0  0  0  0  0  0  0  0  0  0  0  0
  -27.0832  -19.7784   14.9123 C   0  0  0  0  0  0  0  0  0  0  0  0
  -20.2448  -30.0592   21.7476 C   0  0  1  0  0  0  0  0  0  0  0  0
  -23.3150  -27.8644   22.1840 C   0  0  1  0  0  0  0  0  0  0  0  0
  -27.9273  -20.6931   15.8124 C   0  0  1  0  0  0  0  0  0  0  0  0
  -31.0320  -28.2162   21.6129 C   0  0  0  0  0  0  0  0  0  0  0  0
  -25.4046  -31.0335   19.5475 C   0  0  0  0  0  0  0  0  0  0  0  0
  -27.8869  -30.7893   19.3306 C   0  0  0  0  0  0  0  0  0  0  0  0
  -26.9000  -31.6365   21.4592 C   0  0  0  0  0  0  0  0  0  0  0  0
  -28.9785  -25.2652   22.8580 C   0  0  0  0  0  0  0  0  0  0  0  0
  -24.1962  -23.6215   16.7541 C   0  0  0  0  0  0  0  0  0  1  0  0
  -26.6484  -29.1925   20.8628 C   0  0  1  0  0  0  0  0  0  0  0  0
  -29.7944  -27.5191   22.1559 C   0  0  2  0  0  0  0  0  0  0  0  0
  -26.6929  -30.6403   20.2976 C   0  0  0  0  0  0  0  0  0  0  0  0
  -27.8042  -18.9150   17.5165 N   0  0  0  0  0  0  0  0  0  0  0  0
  -25.1368  -22.0041   15.0684 N   0  0  0  0  0  0  0  0  0  0  0  0
  -27.9036  -20.2299   17.2568 N   0  0  0  0  0  0  0  0  0  0  0  0
  -24.7936  -20.5161   13.0159 N   0  0  0  0  0  0  0  0  0  0  0  0
  -24.5642  -27.9847   21.4296 N   0  0  0  0  0  0  0  0  0  0  0  0
  -27.1133  -20.2250   13.5115 N   0  0  0  0  0  0  0  0  0  0  0  0
  -28.0772  -22.3522   18.2941 N   0  0  0  0  0  0  0  0  0  0  0  0
  -27.8854  -19.4973   21.7882 N   0  0  0  0  0  0  0  0  0  0  0  0
  -21.3325  -29.2509   22.2557 N   0  0  0  0  0  0  0  0  0  0  0  0
  -27.8445  -28.8024   21.6014 N   0  0  0  0  0  0  0  0  0  0  0  0
  -30.1014  -26.0690   22.3102 N   0  3  0  0  0  0  0  0  0  0  0  0
  -28.0349  -21.7076   21.1957 O   0  0  0  0  0  0  0  0  0  0  0  0
  -22.3283  -28.7227   20.2181 O   0  0  0  0  0  0  0  0  0  0  0  0
  -25.3984  -29.6562   22.8247 O   0  0  0  0  0  0  0  0  0  0  0  0
  -28.3714  -26.9695   20.2823 O   0  0  0  0  0  0  0  0  0  0  0  0
  -26.1810  -19.4665   11.5449 O   0  0  0  0  0  0  0  0  0  0  0  0
  -22.9107  -22.5947   14.9853 O   0  0  0  0  0  0  0  0  0  0  0  0
  -27.4560  -13.9510   21.4896 O   0  0  0  0  0  0  0  0  0  0  0  0
  -23.3040  -23.1702   17.7747 O   0  0  0  0  0  0  0  0  0  1  0  0
  -23.6996  -10.3367   19.6922 F   0  0  0  0  0  0  0  0  0  0  0  0
  -27.5331  -12.9968   18.8961 F   0  0  0  0  0  0  0  0  0  0  0  0
  1  2  1  0  0  0  0
  1  5  2  0  0  0  0
  2  6  2  0  0  0  0
  3  8  2  0  0  0  0
  3 15  1  0  0  0  0
  4  9  1  0  0  0  0
  4 15  2  0  0  0  0
  5 17  1  0  0  0  0
  6 19  1  0  0  0  0
  7 10  2  0  0  0  0
  7 18  1  0  0  0  0
  8 21  1  0  0  0  0
  9 21  2  0  0  0  0
 10 22  1  0  0  0  0
 11 12  2  0  0  0  0
 11 23  1  0  0  0  0
 12 24  1  0  0  0  0
 13 20  1  0  0  0  0
 13 22  2  0  0  0  0
 14 24  2  0  0  0  0
 14 25  1  0  0  0  0
 15 26  1  0  0  0  0
 16 26  1  0  0  0  0
 16 29  2  0  0  0  0
 16 31  1  0  0  0  0
 17 19  2  0  0  0  0
 17 36  1  0  0  0  0
 18 20  2  0  0  0  0
 18 37  1  0  0  0  0
 19 47  1  0  0  0  0
 20 38  1  0  0  0  0
 21 76  1  0  0  0  0
 22 77  1  0  0  0  0
 23 25  2  0  0  0  0
 23 76  1  0  0  0  0
 24 78  1  0  0  0  0
 25 79  1  0  0  0  0
 26 59  2  0  0  0  0
 27 28  2  0  0  0  0
 27 39  1  0  0  0  0
 27 75  1  0  0  0  0
 28 60  1  0  0  0  0
 28 62  1  0  0  0  0
 29 61  1  0  0  0  0
 29 65  1  0  0  0  0
 30 55  1  0  0  0  0
 30 60  2  0  0  0  0
 30 75  1  0  0  0  0
 31 66  1  0  0  0  0
 31 70  2  0  0  0  0
 32 48  1  0  0  0  0
 32 67  1  0  0  0  0
 32 71  2  0  0  0  0
 33 56  1  0  0  0  0
 33 63  1  0  0  0  0
 33 72  2  0  0  0  0
 34 57  1  0  0  0  0
 34 68  1  0  0  0  0
 34 73  2  0  0  0  0
 35 62  1  0  0  0  0
 35 64  1  0  0  0  0
 35 74  2  0  0  0  0
 36 40  1  0  0  0  0
 37 48  1  0  0  0  0
 38 63  1  0  0  0  0
 39 44  1  0  0  0  0
 40 42  1  0  0  0  0
 41 43  1  0  0  0  0
 41 45  1  0  0  0  0
 42 47  1  0  0  0  0
 43 49  1  0  0  0  0
 44 62  1  0  0  0  0
 45 64  1  0  0  0  0
 46 49  1  0  0  0  0
 46 64  1  0  0  0  0
 47 67  1  0  0  0  0
 48 63  1  0  0  0  0
 49 61  1  0  0  0  0
 50 57  1  0  0  0  0
 51 58  1  0  0  0  0
 52 58  1  0  0  0  0
 53 58  1  0  0  0  0
 54 69  1  0  0  0  0
 55 77  1  0  0  0  0
 56 58  1  0  0  0  0
 56 68  1  0  0  0  0
 57 69  1  0  0  0  0
 59 61  1  0  0  0  0
M  CHG  1  69   1
M  ISO  4  35 100  55 101  62 100  77 101
M  END
> <Batch ID>
0093

> <Smiles>
CNC(C)C(=O)NC(C(=O)N1Cc2cc([101O:1][101CH2:1]c3nc4c(o3)CC[100N:0]4[100C:0](=O)N3CCCC(n4nc(-c5ccc(Oc6ccc(F)cc6F)cc5)c(C(N)=O)c4N)C3)ccc2CC1C(=O)NC1CCCc2ccccc21)C(C)(C)C

> <Shape>
0.200

> <Color>
0.070

> <Negative vol penalty>
0.000

$$$$

  -OEChem-04052300373D

 87 96  0     1  0  0  0  0  0999 V2000
  -31.6962  -35.9365   17.1886 C   0  0  0  0  0  0  0  0  0  0  0  0
  -31.8937  -34.6025   17.5306 C   0  0  0  0  0  0  0  0  0  0  0  0
  -24.6844   -8.8625   20.9378 C   0  0  0  0  0  0  0  0  0  0  0  0
  -22.9039  -10.4413   20.5206 C   0  0  0  0  0  0  0  0  0  0  0  0
  -30.9825  -36.7757   18.0431 C   0  0  0  0  0  0  0  0  0  0  0  0
  -31.3785  -34.1073   18.7279 C   0  0  0  0  0  0  0  0  0  0  0  0
  -26.7401  -28.5959   18.7711 C   0  0  0  0  0  0  0  0  0  0  0  0
  -26.7245  -19.2082   20.6127 C   0  0  0  0  0  0  0  0  0  0  0  0
  -27.7188  -18.2713   20.8940 C   0  0  0  0  0  0  0  0  0  0  0  0
  -23.7438   -7.8950   21.2910 C   0  0  0  0  0  0  0  0  0  0  0  0
  -21.9632   -9.4737   20.8737 C   0  0  0  0  0  0  0  0  0  0  0  0
  -26.0128  -27.4101   18.8762 C   0  0  0  0  0  0  0  0  0  0  0  0
  -21.8376   -7.1386   23.9777 C   0  0  0  0  0  0  0  0  0  0  0  0
  -22.0843   -6.3841   25.1246 C   0  0  0  0  0  0  0  0  0  0  0  0
  -25.8819  -27.6905   21.2746 C   0  0  0  0  0  0  0  0  0  0  0  0
  -27.4676  -20.5560   22.4750 C   0  0  0  0  0  0  0  0  0  0  0  0
  -22.0745   -4.3647   23.7984 C   0  0  0  0  0  0  0  0  0  0  0  0
  -24.2645  -10.1357   20.5527 C   0  0  0  0  0  0  0  0  0  0  0  0
  -26.1784  -11.0650   19.1452 C   0  0  0  0  0  0  0  0  0  0  0  0
  -30.4500  -36.2881   19.2470 C   0  0  0  0  0  0  0  0  0  0  0  0
  -27.0282  -29.3424   19.9170 C   0  0  0  0  0  0  0  0  0  0  0  0
  -30.6581  -34.9411   19.6000 C   0  0  0  0  0  0  0  0  0  0  0  0
  -26.5993  -28.8855   21.1741 C   0  0  0  0  0  0  0  0  0  0  0  0
  -26.5989  -20.3506   21.4031 C   0  0  0  0  0  0  0  0  0  0  0  0
  -28.5874  -18.4767   21.9659 C   0  0  0  0  0  0  0  0  0  0  0  0
  -22.3832   -8.2006   21.2589 C   0  0  0  0  0  0  0  0  0  0  0  0
  -25.5850  -26.9584   20.1249 C   0  0  0  0  0  0  0  0  0  0  0  0
  -21.7092   -6.5061   22.7411 C   0  0  0  0  0  0  0  0  0  0  0  0
  -22.2028   -4.9972   25.0350 C   0  0  0  0  0  0  0  0  0  0  0  0
  -28.4619  -19.6191   22.7564 C   0  0  0  0  0  0  0  0  0  0  0  0
  -21.8277   -5.1192   22.6514 C   0  0  0  0  0  0  0  0  0  0  0  0
  -25.2357  -11.1357   20.1883 C   0  0  0  0  0  0  0  0  0  0  0  0
  -26.8582  -12.2564   19.2153 C   0  0  0  0  0  0  0  0  0  0  0  0
  -25.7155  -22.6598   21.3851 C   0  0  0  0  0  0  0  0  0  0  0  0
  -24.7817  -23.5948   21.1467 C   0  0  0  0  0  0  0  0  0  0  0  0
  -23.2210  -21.7264   20.6295 C   0  0  0  0  0  0  0  0  0  0  0  0
  -26.4181  -10.0161   18.1975 C   0  0  0  0  0  0  0  0  0  0  0  0
  -28.6322  -32.4074   21.3690 C   0  0  0  0  0  0  0  0  0  0  0  0
  -25.9806  -31.9997   22.8567 C   0  0  0  0  0  0  0  0  0  0  0  0
  -23.0617  -32.3853   24.5795 C   0  0  0  0  0  0  0  0  0  0  0  0
  -29.4326  -16.1364   21.9598 C   0  0  0  0  0  0  0  0  0  0  0  0
  -29.7261  -37.2449   20.1609 C   0  0  0  0  0  0  0  0  0  0  0  0
  -27.8616  -30.5936   19.8581 C   0  0  0  0  0  0  0  0  0  0  0  0
  -26.9621  -29.7033   22.3834 C   0  0  0  0  0  0  0  0  0  0  0  0
  -23.4453  -23.2255   20.5750 C   0  0  0  0  0  0  0  0  0  0  0  0
  -24.4081  -20.8169   20.3836 C   0  0  0  0  0  0  0  0  0  0  0  0
  -28.8918  -36.5494   21.2334 C   0  0  0  0  0  0  0  0  0  0  0  0
  -25.8933  -16.4584   21.8453 C   0  0  0  0  0  0  0  0  0  0  0  0
  -29.6960  -35.4359   21.8968 C   0  0  0  0  0  0  0  0  0  0  0  0
  -25.4801  -15.0822   21.3248 C   0  0  0  0  0  0  0  0  0  0  0  0
  -27.0533  -16.3705   22.8377 C   0  0  0  0  0  0  0  0  0  0  0  0
  -27.8173  -14.2568   21.8017 C   0  0  0  0  0  0  0  0  0  0  0  0
  -30.0936  -34.3606   20.8785 C   0  0  1  0  0  0  0  0  0  0  0  0
  -27.4274  -31.6568   20.8829 C   0  0  1  0  0  0  0  0  0  0  0  0
  -26.6909  -14.3196   20.7584 C   0  0  1  0  0  0  0  0  0  0  0  0
  -22.1360  -33.3815   26.6885 C   0  0  0  0  0  0  0  0  0  0  0  0
  -27.1675  -29.6938   24.4624 C   0  0  0  0  0  0  0  0  0  0  0  0
  -25.4938  -30.1778   26.2604 C   0  0  0  0  0  0  0  0  0  0  0  0
  -27.1858  -31.9016   25.6370 C   0  0  0  0  0  0  0  0  0  0  0  0
  -30.9477  -17.9868   22.6347 C   0  0  0  0  0  0  0  0  0  0  0  0
  -21.2648  -34.1925   23.0748 C   0  0  0  0  0  0  0  0  0  0  0  0
  -25.0139  -25.0494   21.4237 C   0  0  0  0  0  0  0  0  0  1  0  0
  -25.2792  -31.4062   24.0522 C   0  0  1  0  0  0  0  0  0  0  0  0
  -22.4184  -33.6066   25.2113 C   0  0  2  0  0  0  0  0  0  0  0  0
  -26.2731  -30.7892   25.0764 C   0  0  0  0  0  0  0  0  0  0  0  0
  -25.3073  -12.2814   20.8712 N   0  0  0  0  0  0  0  0  0  0  0  0
  -26.3031  -12.9415   20.2559 N   0  0  0  0  0  0  0  0  0  0  0  0
  -25.5856  -21.3061   21.1158 N   0  0  0  0  0  0  0  0  0  0  0  0
  -26.7765  -31.1343   22.0963 N   0  0  0  0  0  0  0  0  0  0  0  0
  -28.1683  -15.6001   22.2689 N   0  0  0  0  0  0  0  0  0  0  0  0
  -27.8706  -12.7743   18.4879 N   0  0  0  0  0  0  0  0  0  0  0  0
  -25.7153  -10.0375   16.9852 N   0  0  0  0  0  0  0  0  0  0  0  0
  -28.9683  -33.4977   20.5893 N   0  0  0  0  0  0  0  0  0  0  0  0
  -24.4381  -32.4652   24.5992 N   0  0  0  0  0  0  0  0  0  0  0  0
  -29.6154  -17.5045   22.2548 N   0  0  0  0  0  0  0  0  0  0  0  0
  -21.1318  -33.9252   24.5300 N   0  3  0  0  0  0  0  0  0  0  0  0
  -22.0853  -21.2641   20.7530 O   0  0  0  0  0  0  0  0  0  0  0  0
  -27.2194   -9.0784   18.4262 O   0  0  0  0  0  0  0  0  0  0  0  0
  -29.2143  -32.0273   22.3782 O   0  0  0  0  0  0  0  0  0  0  0  0
  -25.8333  -33.1989   22.6049 O   0  0  0  0  0  0  0  0  0  0  0  0
  -22.4085  -31.4519   24.1182 O   0  0  0  0  0  0  0  0  0  0  0  0
  -30.3368  -15.4408   21.4817 O   0  0  0  0  0  0  0  0  0  0  0  0
  -21.4651   -7.2566   21.6032 O   0  0  0  0  0  0  0  0  0  0  0  0
  -24.8715  -25.8023   20.2199 O   0  0  0  0  0  0  0  0  0  1  0  0
  -22.4412   -4.2730   26.1363 F   0  0  0  0  0  0  0  0  0  0  0  0
  -29.2910  -19.8264   23.7893 F   0  0  0  0  0  0  0  0  0  0  0  0
  -21.7066   -4.5061   21.4660 F   0  0  0  0  0  0  0  0  0  0  0  0
  1  2  1  0  0  0  0
  1  5  2  0  0  0  0
  2  6  2  0  0  0  0
  3 10  2  0  0  0  0
  3 18  1  0  0  0  0
  4 11  1  0  0  0  0
  4 18  2  0  0  0  0
  5 20  1  0  0  0  0
  6 22  1  0  0  0  0
  7 12  2  0  0  0  0
  7 21  1  0  0  0  0
  8  9  2  0  0  0  0
  8 24  1  0  0  0  0
  9 25  1  0  0  0  0
 10 26  1  0  0  0  0
 11 26  2  0  0  0  0
 12 27  1  0  0  0  0
 13 14  2  0  0  0  0
 13 28  1  0  0  0  0
 14 29  1  0  0  0  0
 15 23  1  0  0  0  0
 15 27  2  0  0  0  0
 16 24  2  0  0  0  0
 16 30  1  0  0  0  0
 17 29  2  0  0  0  0
 17 31  1  0  0  0  0
 18 32  1  0  0  0  0
 19 32  1  0  0  0  0
 19 33  2  0  0  0  0
 19 37  1  0  0  0  0
 20 22  2  0  0  0  0
 20 42  1  0  0  0  0
 21 23  2  0  0  0  0
 21 43  1  0  0  0  0
 22 53  1  0  0  0  0
 23 44  1  0  0  0  0
 24 68  1  0  0  0  0
 25 30  2  0  0  0  0
 25 75  1  0  0  0  0
 26 83  1  0  0  0  0
 27 84  1  0  0  0  0
 28 31  2  0  0  0  0
 28 83  1  0  0  0  0
 29 85  1  0  0  0  0
 30 86  1  0  0  0  0
 31 87  1  0  0  0  0
 32 66  2  0  0  0  0
 33 67  1  0  0  0  0
 33 71  1  0  0  0  0
 34 35  2  0  0  0  0
 34 68  1  0  0  0  0
 35 45  1  0  0  0  0
 35 62  1  0  0  0  0
 36 45  1  0  0  0  0
 36 46  1  0  0  0  0
 36 77  2  0  0  0  0
 37 72  1  0  0  0  0
 37 78  2  0  0  0  0
 38 54  1  0  0  0  0
 38 73  1  0  0  0  0
 38 79  2  0  0  0  0
 39 63  1  0  0  0  0
 39 69  1  0  0  0  0
 39 80  2  0  0  0  0
 40 64  1  0  0  0  0
 40 74  1  0  0  0  0
 40 81  2  0  0  0  0
 41 70  1  0  0  0  0
 41 75  1  0  0  0  0
 41 82  2  0  0  0  0
 42 47  1  0  0  0  0
 43 54  1  0  0  0  0
 44 69  1  0  0  0  0
 46 68  1  0  0  0  0
 47 49  1  0  0  0  0
 48 50  1  0  0  0  0
 48 51  1  0  0  0  0
 49 53  1  0  0  0  0
 50 55  1  0  0  0  0
 51 70  1  0  0  0  0
 52 55  1  0  0  0  0
 52 70  1  0  0  0  0
 53 73  1  0  0  0  0
 54 69  1  0  0  0  0
 55 67  1  0  0  0  0
 56 64  1  0  0  0  0
 57 65  1  0  0  0  0
 58 65  1  0  0  0  0
 59 65  1  0  0  0  0
 60 75  1  0  0  0  0
 61 76  1  0  0  0  0
 62 84  1  0  0  0  0
 63 65  1  0  0  0  0
 63 74  1  0  0  0  0
 64 76  1  0  0  0  0
 66 67  1  0  0  0  0
M  CHG  1  76   1
M  ISO  4  41 100  62 101  75 100  84 101
M  END
> <Batch ID>
0093

> <Smiles>
CNC(C)C(=O)NC(C(=O)N1Cc2cc([101O:1][101CH2:1]C3=CN(c4ccc([100N:0](C)[100C:0](=O)N5CCCC(n6nc(-c7ccc(Oc8ccc(F)cc8F)cc7)c(C(N)=O)c6N)C5)c(F)c4)CC(=O)C3)ccc2CC1C(=O)NC1CCCc2ccccc21)C(C)(C)C

> <Shape>
0.241

> <Color>
0.093

> <Negative vol penalty>
0.000

$$$$

  -OEChem-04052300373D

 86 94  0     1  0  0  0  0  0999 V2000
  -28.6307  -32.7344   27.7433 C   0  0  0  0  0  0  0  0  0  0  0  0
  -28.8095  -31.8049   26.7238 C   0  0  0  0  0  0  0  0  0  0  0  0
  -24.3909   -8.9913   22.3359 C   0  0  0  0  0  0  0  0  0  0  0  0
  -24.2389   -8.7887   19.9332 C   0  0  0  0  0  0  0  0  0  0  0  0
  -27.6786  -19.9123   18.8154 C   0  0  0  0  0  0  0  0  0  0  0  0
  -27.3432  -33.1045   28.1298 C   0  0  0  0  0  0  0  0  0  0  0  0
  -27.7008  -31.2441   26.0908 C   0  0  0  0  0  0  0  0  0  0  0  0
  -27.2469  -29.6390   20.1982 C   0  0  0  0  0  0  0  0  0  0  0  0
  -27.5394  -21.3000   18.7991 C   0  0  0  0  0  0  0  0  0  0  0  0
  -23.2827   -8.1560   22.4764 C   0  0  0  0  0  0  0  0  0  0  0  0
  -23.1307   -7.9534   20.0737 C   0  0  0  0  0  0  0  0  0  0  0  0
  -27.3747  -28.4125   19.5475 C   0  0  0  0  0  0  0  0  0  0  0  0
  -22.6295   -4.8410   22.3467 C   0  0  0  0  0  0  0  0  0  0  0  0
  -22.6977   -3.8291   23.3043 C   0  0  0  0  0  0  0  0  0  0  0  0
  -30.0307  -20.1540   19.3118 C   0  0  0  0  0  0  0  0  0  0  0  0
  -24.9800  -28.1311   19.6204 C   0  0  0  0  0  0  0  0  0  0  0  0
  -20.7830   -4.7718   24.4367 C   0  0  0  0  0  0  0  0  0  0  0  0
  -24.8690   -9.3077   21.0642 C   0  0  0  0  0  0  0  0  0  0  0  0
  -28.9243  -19.3392   19.0718 C   0  0  0  0  0  0  0  0  0  0  0  0
  -27.3667   -9.7867   20.8650 C   0  0  0  0  0  0  0  0  0  0  0  0
  -26.2183  -32.5551   27.4946 C   0  0  0  0  0  0  0  0  0  0  0  0
  -25.9834  -30.1164   20.5752 C   0  0  0  0  0  0  0  0  0  0  0  0
  -26.3970  -31.6061   26.4700 C   0  0  0  0  0  0  0  0  0  0  0  0
  -24.8386  -29.3651   20.2734 C   0  0  0  0  0  0  0  0  0  0  0  0
  -28.6458  -22.1148   19.0391 C   0  0  0  0  0  0  0  0  0  0  0  0
  -29.8915  -21.5418   19.2954 C   0  0  0  0  0  0  0  0  0  0  0  0
  -22.6526   -7.6371   21.3454 C   0  0  0  0  0  0  0  0  0  0  0  0
  -26.2414  -27.6571   19.2612 C   0  0  0  0  0  0  0  0  0  0  0  0
  -21.6381   -5.8183   22.4341 C   0  0  0  0  0  0  0  0  0  0  0  0
  -21.7744   -3.7945   24.3493 C   0  0  0  0  0  0  0  0  0  0  0  0
  -20.7148   -5.7837   23.4791 C   0  0  0  0  0  0  0  0  0  0  0  0
  -26.0135  -10.1709   20.9184 C   0  0  0  0  0  0  0  0  0  0  0  0
  -28.0534  -10.9674   20.7211 C   0  0  0  0  0  0  0  0  0  0  0  0
  -28.2019  -17.5245   15.6173 C   0  0  0  0  0  0  0  0  0  0  0  0
  -28.9414  -17.7817   16.6984 C   0  0  0  0  0  0  0  0  0  0  0  0
  -29.0717  -17.8631   19.0893 C   0  0  0  0  0  0  0  0  0  0  0  0
  -27.9508   -8.4793   20.9387 C   0  0  0  0  0  0  0  0  0  0  0  0
  -24.5904  -30.8346   23.3406 C   0  0  0  0  0  0  0  0  0  0  0  0
  -22.1997  -31.8865   21.4168 C   0  0  0  0  0  0  0  0  0  0  0  0
  -27.3091  -24.2316   18.7816 C   0  0  0  0  0  0  0  0  0  0  0  0
  -20.6346  -31.7254   18.3884 C   0  0  0  0  0  0  0  0  0  0  0  0
  -28.3501  -15.7817   17.8469 C   0  0  0  0  0  0  0  0  0  0  0  0
  -24.8458  -32.9506   27.9790 C   0  0  0  0  0  0  0  0  0  0  0  0
  -25.8602  -31.4537   21.2525 C   0  0  0  0  0  0  0  0  0  0  0  0
  -23.4577  -29.8425   20.6388 C   0  0  0  0  0  0  0  0  0  0  0  0
  -23.7283  -32.5901   27.0034 C   0  0  0  0  0  0  0  0  0  0  0  0
  -26.5543  -15.7529   21.1713 C   0  0  0  0  0  0  0  0  0  0  0  0
  -23.8980  -31.1593   26.5024 C   0  0  0  0  0  0  0  0  0  0  0  0
  -26.2815  -14.2592   21.3182 C   0  0  0  0  0  0  0  0  0  0  0  0
  -26.6773  -16.1692   19.7091 C   0  0  0  0  0  0  0  0  0  0  0  0
  -27.3935  -13.8721   19.0844 C   0  0  0  0  0  0  0  0  0  0  0  0
  -25.2197  -30.9940   25.7425 C   0  0  1  0  0  0  0  0  0  0  0  0
  -24.5680  -31.6030   22.0496 C   0  0  1  0  0  0  0  0  0  0  0  0
  -27.3357  -13.4422   20.5573 C   0  0  2  0  0  0  0  0  0  0  0  0
  -18.6854  -32.6754   17.1254 C   0  0  0  0  0  0  0  0  0  0  0  0
  -20.3019  -30.1094   23.0138 C   0  0  0  0  0  0  0  0  0  0  0  0
  -18.6305  -30.3529   21.1657 C   0  0  0  0  0  0  0  0  0  0  0  0
  -19.3835  -32.3629   22.4368 C   0  0  0  0  0  0  0  0  0  0  0  0
  -22.3962  -32.8830   16.3110 C   0  0  0  0  0  0  0  0  0  0  0  0
  -27.5666  -25.7254   18.8506 C   0  0  0  0  0  0  0  0  0  1  0  0
  -20.9692  -31.2638   20.8028 C   0  0  1  0  0  0  0  0  0  0  0  0
  -20.1677  -32.8120   17.4368 C   0  0  2  0  0  0  0  0  0  0  0  0
  -19.8473  -31.0121   21.8495 C   0  0  0  0  0  0  0  0  0  0  0  0
  -25.8482  -11.4924   20.8169 N   0  0  0  0  0  0  0  0  0  0  0  0
  -27.1067  -11.9489   20.6984 N   0  0  0  0  0  0  0  0  0  0  0  0
  -23.3897  -31.1535   21.3054 N   0  0  0  0  0  0  0  0  0  0  0  0
  -27.6015  -15.3156   18.9489 N   0  0  0  0  0  0  0  0  0  0  0  0
  -31.0256  -22.3476   19.5422 N   0  0  0  0  0  0  0  0  0  0  0  0
  -29.3688  -11.2515   20.6132 N   0  0  0  0  0  0  0  0  0  0  0  0
  -27.1005   -7.3750   21.0863 N   0  0  0  0  0  0  0  0  0  0  0  0
  -28.4802  -23.5200   19.0188 N   0  0  0  0  0  0  0  0  0  0  0  0
  -25.1076  -31.5431   24.4082 N   0  0  0  0  0  0  0  0  0  0  0  0
  -20.5751  -32.1374   19.7029 N   0  0  0  0  0  0  0  0  0  0  0  0
  -28.7525  -17.1407   17.9092 N   0  0  0  0  0  0  0  0  0  0  0  0
  -20.9257  -32.7395   16.1558 N   0  3  0  0  0  0  0  0  0  0  0  0
  -29.4658  -17.3525   20.1385 O   0  0  0  0  0  0  0  0  0  0  0  0
  -29.1910   -8.2973   20.8919 O   0  0  0  0  0  0  0  0  0  0  0  0
  -24.1682  -29.6844   23.3664 O   0  0  0  0  0  0  0  0  0  0  0  0
  -22.1099  -32.9861   21.9685 O   0  0  0  0  0  0  0  0  0  0  0  0
  -26.1927  -23.7824   18.5438 O   0  0  0  0  0  0  0  0  0  0  0  0
  -21.0107  -30.6201   18.0044 O   0  0  0  0  0  0  0  0  0  0  0  0
  -28.6833  -15.0521   16.9056 O   0  0  0  0  0  0  0  0  0  0  0  0
  -21.5713   -6.8218   21.4821 O   0  0  0  0  0  0  0  0  0  0  0  0
  -26.3634  -26.4593   18.6268 O   0  0  0  0  0  0  0  0  0  1  0  0
  -21.8391   -2.8218   25.2679 F   0  0  0  0  0  0  0  0  0  0  0  0
  -19.7594   -6.7192   23.5676 F   0  0  0  0  0  0  0  0  0  0  0  0
  1  2  1  0  0  0  0
  1  6  2  0  0  0  0
  2  7  2  0  0  0  0
  3 10  2  0  0  0  0
  3 18  1  0  0  0  0
  4 11  1  0  0  0  0
  4 18  2  0  0  0  0
  5  9  2  0  0  0  0
  5 19  1  0  0  0  0
  6 21  1  0  0  0  0
  7 23  1  0  0  0  0
  8 12  2  0  0  0  0
  8 22  1  0  0  0  0
  9 25  1  0  0  0  0
 10 27  1  0  0  0  0
 11 27  2  0  0  0  0
 12 28  1  0  0  0  0
 13 14  2  0  0  0  0
 13 29  1  0  0  0  0
 14 30  1  0  0  0  0
 15 19  2  0  0  0  0
 15 26  1  0  0  0  0
 16 24  1  0  0  0  0
 16 28  2  0  0  0  0
 17 30  2  0  0  0  0
 17 31  1  0  0  0  0
 18 32  1  0  0  0  0
 19 36  1  0  0  0  0
 20 32  1  0  0  0  0
 20 33  2  0  0  0  0
 20 37  1  0  0  0  0
 21 23  2  0  0  0  0
 21 43  1  0  0  0  0
 22 24  2  0  0  0  0
 22 44  1  0  0  0  0
 23 52  1  0  0  0  0
 24 45  1  0  0  0  0
 25 26  2  0  0  0  0
 25 71  1  0  0  0  0
 26 68  1  0  0  0  0
 27 83  1  0  0  0  0
 28 84  1  0  0  0  0
 29 31  2  0  0  0  0
 29 83  1  0  0  0  0
 30 85  1  0  0  0  0
 31 86  1  0  0  0  0
 32 64  2  0  0  0  0
 33 65  1  0  0  0  0
 33 69  1  0  0  0  0
 34 35  2  0  0  0  0
 35 74  1  0  0  0  0
 36 74  1  0  0  0  0
 36 76  2  0  0  0  0
 37 70  1  0  0  0  0
 37 77  2  0  0  0  0
 38 53  1  0  0  0  0
 38 72  1  0  0  0  0
 38 78  2  0  0  0  0
 39 61  1  0  0  0  0
 39 66  1  0  0  0  0
 39 79  2  0  0  0  0
 40 60  1  0  0  0  0
 40 71  1  0  0  0  0
 40 80  2  0  0  0  0
 41 62  1  0  0  0  0
 41 73  1  0  0  0  0
 41 81  2  0  0  0  0
 42 67  1  0  0  0  0
 42 74  1  0  0  0  0
 42 82  2  0  0  0  0
 43 46  1  0  0  0  0
 44 53  1  0  0  0  0
 45 66  1  0  0  0  0
 46 48  1  0  0  0  0
 47 49  1  0  0  0  0
 47 50  1  0  0  0  0
 48 52  1  0  0  0  0
 49 54  1  0  0  0  0
 50 67  1  0  0  0  0
 51 54  1  0  0  0  0
 51 67  1  0  0  0  0
 52 72  1  0  0  0  0
 53 66  1  0  0  0  0
 54 65  1  0  0  0  0
 55 62  1  0  0  0  0
 56 63  1  0  0  0  0
 57 63  1  0  0  0  0
 58 63  1  0  0  0  0
 59 75  1  0  0  0  0
 60 84  1  0  0  0  0
 61 63  1  0  0  0  0
 61 73  1  0  0  0  0
 62 75  1  0  0  0  0
 64 65  1  0  0  0  0
M  CHG  1  75   1
M  ISO  4  42 100  60 101  74 100  84 101
M  END
> <Batch ID>
0093

> <Smiles>
C=C[100N:0](C(=O)c1ccc(NC(=O)[101CH2:1][101O:1]c2ccc3c(c2)CN(C(=O)C(NC(=O)C(C)NC)C(C)(C)C)C(C(=O)NC2CCCc4ccccc42)C3)c(N)c1)[100C:0](=O)N1CCCC(n2nc(-c3ccc(Oc4ccc(F)cc4F)cc3)c(C(N)=O)c2N)C1

> <Shape>
0.287

> <Color>
0.099

> <Negative vol penalty>
0.000

$$$$

  -OEChem-04052300373D

 87 96  0     1  0  0  0  0  0999 V2000
  -27.5655  -21.9881   15.9768 C   0  0  0  0  0  0  0  0  0  0  0  0
  -26.5403  -22.5857   16.7029 C   0  0  0  0  0  0  0  0  0  0  0  0
  -26.4053  -13.5722   19.6752 C   0  0  0  0  0  0  0  0  0  0  0  0
  -24.2332  -13.9517   20.6628 C   0  0  0  0  0  0  0  0  0  0  0  0
  -28.8871  -22.1200   16.4010 C   0  0  0  0  0  0  0  0  0  0  0  0
  -26.8359  -23.3145   17.8543 C   0  0  0  0  0  0  0  0  0  0  0  0
  -24.3259  -27.7074   18.0709 C   0  0  0  0  0  0  0  0  0  0  0  0
  -21.5380  -24.3262   23.0488 C   0  0  0  0  0  0  0  0  0  0  0  0
  -22.6432  -23.6484   22.5344 C   0  0  0  0  0  0  0  0  0  0  0  0
  -26.4294  -12.2889   20.2214 C   0  0  0  0  0  0  0  0  0  0  0  0
  -24.2574  -12.6684   21.2089 C   0  0  0  0  0  0  0  0  0  0  0  0
  -22.9866  -27.6572   18.4553 C   0  0  0  0  0  0  0  0  0  0  0  0
  -23.7201   -9.5034   20.1532 C   0  0  0  0  0  0  0  0  0  0  0  0
  -22.5635   -8.7317   20.0423 C   0  0  0  0  0  0  0  0  0  0  0  0
  -23.6085  -28.3272   20.6877 C   0  0  0  0  0  0  0  0  0  0  0  0
  -21.1813  -22.3232   21.1401 C   0  0  0  0  0  0  0  0  0  0  0  0
  -22.4278   -8.5891   22.4503 C   0  0  0  0  0  0  0  0  0  0  0  0
  -25.3072  -14.4036   19.8960 C   0  0  0  0  0  0  0  0  0  0  0  0
  -24.7762  -16.1092   18.0749 C   0  0  0  0  0  0  0  0  0  0  0  0
  -29.2000  -22.8589   17.5528 C   0  0  0  0  0  0  0  0  0  0  0  0
  -25.3193  -28.0579   18.9964 C   0  0  0  0  0  0  0  0  0  0  0  0
  -28.1628  -23.4552   18.2950 C   0  0  0  0  0  0  0  0  0  0  0  0
  -24.9593  -28.3836   20.3119 C   0  0  0  0  0  0  0  0  0  0  0  0
  -20.2544  -24.0025   22.6090 C   0  0  0  0  0  0  0  0  0  0  0  0
  -22.4649  -22.6469   21.5800 C   0  0  0  0  0  0  0  0  0  0  0  0
  -25.3555  -11.8370   20.9882 C   0  0  0  0  0  0  0  0  0  0  0  0
  -22.6281  -27.9643   19.7645 C   0  0  0  0  0  0  0  0  0  0  0  0
  -24.2306   -9.8179   21.4127 C   0  0  0  0  0  0  0  0  0  0  0  0
  -21.9173   -8.2745   21.1909 C   0  0  0  0  0  0  0  0  0  0  0  0
  -20.0761  -23.0010   21.6547 C   0  0  0  0  0  0  0  0  0  0  0  0
  -23.5845   -9.3608   22.5612 C   0  0  0  0  0  0  0  0  0  0  0  0
  -25.2819  -15.7295   19.3326 C   0  0  0  0  0  0  0  0  0  0  0  0
  -24.9854  -17.4654   18.0159 C   0  0  0  0  0  0  0  0  0  0  0  0
  -19.2056  -27.1463   23.8885 C   0  0  0  0  0  0  0  0  0  0  0  0
  -24.1713  -15.3077   17.0514 C   0  0  0  0  0  0  0  0  0  0  0  0
  -27.8602  -26.5932   20.2223 C   0  0  0  0  0  0  0  0  0  0  0  0
  -28.3956  -29.4941   21.5716 C   0  0  0  0  0  0  0  0  0  0  0  0
  -27.1191  -32.4759   22.6327 C   0  0  0  0  0  0  0  0  0  0  0  0
  -24.9279  -22.1535   21.3890 C   0  0  0  0  0  0  0  0  0  0  0  0
  -30.6389  -22.9339   17.9985 C   0  0  0  0  0  0  0  0  0  0  0  0
  -26.7565  -28.1333   18.5591 C   0  0  0  0  0  0  0  0  0  0  0  0
  -25.9855  -28.7855   21.3385 C   0  0  0  0  0  0  0  0  0  0  0  0
  -19.1506  -28.4800   23.1795 C   0  0  0  0  0  0  0  0  0  0  0  0
  -30.9034  -24.0366   19.0204 C   0  0  0  0  0  0  0  0  0  0  0  0
  -27.9784  -20.6349   20.3567 C   0  0  0  0  0  0  0  0  0  0  0  0
  -29.8416  -24.0155   20.1154 C   0  0  0  0  0  0  0  0  0  0  0  0
  -27.5463  -19.2519   19.8640 C   0  0  0  0  0  0  0  0  0  0  0  0
  -27.1642  -21.0851   21.5685 C   0  0  0  0  0  0  0  0  0  0  0  0
  -25.2753  -19.6528   20.8980 C   0  0  0  0  0  0  0  0  0  0  0  0
  -19.0330  -26.6938   21.5733 C   0  0  0  0  0  0  0  0  0  0  0  0
  -28.4458  -24.2746   19.5355 C   0  0  1  0  0  0  0  0  0  0  0  0
  -27.7411  -28.0033   19.7172 C   0  0  1  0  0  0  0  0  0  0  0  0
  -26.0230  -19.1844   19.6389 C   0  0  2  0  0  0  0  0  0  0  0  0
  -19.5065  -28.1436   21.7187 C   0  0  1  0  0  0  0  0  0  0  0  0
  -18.7873  -29.0703   20.7374 C   0  0  0  0  0  0  0  0  0  0  0  0
  -27.7952  -34.6302   23.7277 C   0  0  0  0  0  0  0  0  0  0  0  0
  -28.5520  -28.0722   24.2667 C   0  0  0  0  0  0  0  0  0  0  0  0
  -28.2725  -30.2980   25.3786 C   0  0  0  0  0  0  0  0  0  0  0  0
  -30.2603  -29.8682   23.9341 C   0  0  0  0  0  0  0  0  0  0  0  0
  -26.2692  -34.0692   20.2879 C   0  0  0  0  0  0  0  0  0  0  0  0
  -19.0677  -24.7359   23.1640 C   0  0  0  0  0  0  0  0  0  0  0  0
  -21.0256  -28.2425   21.4996 C   0  0  0  0  0  0  0  0  0  1  0  0
  -27.9898  -30.1643   22.8620 C   0  0  1  0  0  0  0  0  0  0  0  0
  -27.5786  -33.9053   22.4085 C   0  0  2  0  0  0  0  0  0  0  0  0
  -28.7493  -29.5913   24.0917 C   0  0  0  0  0  0  0  0  0  0  0  0
  -25.7754  -16.7611   20.0227 N   0  0  0  0  0  0  0  0  0  0  0  0
  -25.5808  -17.8024   19.1957 N   0  0  0  0  0  0  0  0  0  0  0  0
  -19.1438  -26.1587   22.9113 N   0  0  0  0  0  0  0  0  0  0  0  0
  -27.3782  -28.8384   20.8640 N   0  0  0  0  0  0  0  0  0  0  0  0
  -25.7310  -20.9985   21.2803 N   0  0  0  0  0  0  0  0  0  0  0  0
  -24.7163  -18.3906   17.0703 N   0  0  0  0  0  0  0  0  0  0  0  0
  -24.0333  -13.9310   17.2751 N   0  0  0  0  0  0  0  0  0  0  0  0
  -23.5874  -21.9569   21.0588 N   0  0  0  0  0  0  0  0  0  0  0  0
  -28.2653  -25.6845   19.2634 N   0  0  0  0  0  0  0  0  0  0  0  0
  -28.1804  -31.5959   22.6559 N   0  0  0  0  0  0  0  0  0  0  0  0
  -26.5629  -34.6582   21.6197 N   0  3  0  0  0  0  0  0  0  0  0  0
  -19.2506  -27.0077   25.1019 O   0  0  0  0  0  0  0  0  0  0  0  0
  -23.7801  -15.7952   15.9638 O   0  0  0  0  0  0  0  0  0  0  0  0
  -27.6049  -26.3481   21.3955 O   0  0  0  0  0  0  0  0  0  0  0  0
  -29.5707  -29.5563   21.2013 O   0  0  0  0  0  0  0  0  0  0  0  0
  -25.9372  -32.1710   22.7767 O   0  0  0  0  0  0  0  0  0  0  0  0
  -25.4003  -23.2434   21.7223 O   0  0  0  0  0  0  0  0  0  0  0  0
  -25.3786  -10.5848   21.5211 O   0  0  0  0  0  0  0  0  0  0  0  0
  -21.3217  -27.9155   20.1425 O   0  0  0  0  0  0  0  0  0  1  0  0
  -20.8058   -7.5348   21.0843 F   0  0  0  0  0  0  0  0  0  0  0  0
  -18.8468  -22.6829   21.2258 F   0  0  0  0  0  0  0  0  0  0  0  0
  -24.0695   -9.6607   23.7739 F   0  0  0  0  0  0  0  0  0  0  0  0
  1  2  1  0  0  0  0
  1  5  2  0  0  0  0
  2  6  2  0  0  0  0
  3 10  2  0  0  0  0
  3 18  1  0  0  0  0
  4 11  1  0  0  0  0
  4 18  2  0  0  0  0
  5 20  1  0  0  0  0
  6 22  1  0  0  0  0
  7 12  2  0  0  0  0
  7 21  1  0  0  0  0
  8  9  2  0  0  0  0
  8 24  1  0  0  0  0
  9 25  1  0  0  0  0
 10 26  1  0  0  0  0
 11 26  2  0  0  0  0
 12 27  1  0  0  0  0
 13 14  2  0  0  0  0
 13 28  1  0  0  0  0
 14 29  1  0  0  0  0
 15 23  1  0  0  0  0
 15 27  2  0  0  0  0
 16 25  2  0  0  0  0
 16 30  1  0  0  0  0
 17 29  2  0  0  0  0
 17 31  1  0  0  0  0
 18 32  1  0  0  0  0
 19 32  1  0  0  0  0
 19 33  2  0  0  0  0
 19 35  1  0  0  0  0
 20 22  2  0  0  0  0
 20 40  1  0  0  0  0
 21 23  2  0  0  0  0
 21 41  1  0  0  0  0
 22 51  1  0  0  0  0
 23 42  1  0  0  0  0
 24 30  2  0  0  0  0
 24 61  1  0  0  0  0
 25 73  1  0  0  0  0
 26 83  1  0  0  0  0
 27 84  1  0  0  0  0
 28 31  2  0  0  0  0
 28 83  1  0  0  0  0
 29 85  1  0  0  0  0
 30 86  1  0  0  0  0
 31 87  1  0  0  0  0
 32 66  2  0  0  0  0
 33 67  1  0  0  0  0
 33 71  1  0  0  0  0
 34 43  1  0  0  0  0
 34 68  1  0  0  0  0
 34 77  2  0  0  0  0
 35 72  1  0  0  0  0
 35 78  2  0  0  0  0
 36 52  1  0  0  0  0
 36 74  1  0  0  0  0
 36 79  2  0  0  0  0
 37 63  1  0  0  0  0
 37 69  1  0  0  0  0
 37 80  2  0  0  0  0
 38 64  1  0  0  0  0
 38 75  1  0  0  0  0
 38 81  2  0  0  0  0
 39 70  1  0  0  0  0
 39 73  1  0  0  0  0
 39 82  2  0  0  0  0
 40 44  1  0  0  0  0
 41 52  1  0  0  0  0
 42 69  1  0  0  0  0
 43 54  1  0  0  0  0
 44 46  1  0  0  0  0
 45 47  1  0  0  0  0
 45 48  1  0  0  0  0
 46 51  1  0  0  0  0
 47 53  1  0  0  0  0
 48 70  1  0  0  0  0
 49 53  1  0  0  0  0
 49 70  1  0  0  0  0
 50 54  1  0  0  0  0
 50 68  1  0  0  0  0
 51 74  1  0  0  0  0
 52 69  1  0  0  0  0
 53 67  1  0  0  0  0
 54 55  1  0  0  0  0
 54 62  1  0  0  0  0
 56 64  1  0  0  0  0
 57 65  1  0  0  0  0
 58 65  1  0  0  0  0
 59 65  1  0  0  0  0
 60 76  1  0  0  0  0
 61 68  1  0  0  0  0
 62 84  1  0  0  0  0
 63 65  1  0  0  0  0
 63 75  1  0  0  0  0
 64 76  1  0  0  0  0
 66 67  1  0  0  0  0
M  CHG  1  76   1
M  ISO  4  39 100  62 101  73 100  84 101
M  END
> <Batch ID>
0093

> <Smiles>
CNC(C)C(=O)NC(C(=O)N1Cc2cc([101O:1][101CH2:1]C3(C)CC(=O)N(Cc4ccc([100NH:0][100C:0](=O)N5CCCC(n6nc(-c7ccc(Oc8ccc(F)cc8F)cc7)c(C(N)=O)c6N)C5)cc4F)C3)ccc2CC1C(=O)NC1CCCc2ccccc21)C(C)(C)C

> <Shape>
0.239

> <Color>
0.071

> <Negative vol penalty>
0.000

$$$$

  -OEChem-04052300373D

 85 94  0     1  0  0  0  0  0999 V2000
  -26.5154  -37.9026   26.4054 C   0  0  0  0  0  0  0  0  0  0  0  0
  -26.1762  -36.7113   27.0388 C   0  0  0  0  0  0  0  0  0  0  0  0
  -22.8500  -10.8543   21.7098 C   0  0  0  0  0  0  0  0  0  0  0  0
  -24.4875   -9.0838   21.5651 C   0  0  0  0  0  0  0  0  0  0  0  0
  -26.1833  -38.0974   25.0654 C   0  0  0  0  0  0  0  0  0  0  0  0
  -25.5036  -35.7145   26.3327 C   0  0  0  0  0  0  0  0  0  0  0  0
  -28.3226  -29.1229   25.6293 C   0  0  0  0  0  0  0  0  0  0  0  0
  -28.1415  -19.1369   22.6079 C   0  0  0  0  0  0  0  0  0  0  0  0
  -28.0355  -17.8147   22.1764 C   0  0  0  0  0  0  0  0  0  0  0  0
  -22.1442  -10.1235   22.6655 C   0  0  0  0  0  0  0  0  0  0  0  0
  -23.7818   -8.3530   22.5208 C   0  0  0  0  0  0  0  0  0  0  0  0
  -28.6968  -27.7789   25.6294 C   0  0  0  0  0  0  0  0  0  0  0  0
  -21.0224   -6.4023   22.6276 C   0  0  0  0  0  0  0  0  0  0  0  0
  -20.8190   -5.0439   22.3845 C   0  0  0  0  0  0  0  0  0  0  0  0
  -26.7868  -27.2361   24.2490 C   0  0  0  0  0  0  0  0  0  0  0  0
  -30.3846  -17.8106   21.6121 C   0  0  0  0  0  0  0  0  0  0  0  0
  -22.0137   -4.5020   24.4134 C   0  0  0  0  0  0  0  0  0  0  0  0
  -24.0216  -10.3344   21.1595 C   0  0  0  0  0  0  0  0  0  0  0  0
  -24.2822  -11.5227   18.9172 C   0  0  0  0  0  0  0  0  0  0  0  0
  -25.5148  -37.0987   24.3399 C   0  0  0  0  0  0  0  0  0  0  0  0
  -27.1864  -29.5314   24.9255 C   0  0  0  0  0  0  0  0  0  0  0  0
  -25.1610  -35.8967   24.9821 C   0  0  0  0  0  0  0  0  0  0  0  0
  -26.4141  -28.5828   24.2350 C   0  0  0  0  0  0  0  0  0  0  0  0
  -29.3690  -19.7960   22.5415 C   0  0  0  0  0  0  0  0  0  0  0  0
  -29.1570  -17.1515   21.6785 C   0  0  0  0  0  0  0  0  0  0  0  0
  -22.6101   -8.8728   23.0711 C   0  0  0  0  0  0  0  0  0  0  0  0
  -27.9306  -26.8379   24.9411 C   0  0  0  0  0  0  0  0  0  0  0  0
  -21.7215   -6.8105   23.7635 C   0  0  0  0  0  0  0  0  0  0  0  0
  -21.3146   -4.0938   23.2774 C   0  0  0  0  0  0  0  0  0  0  0  0
  -30.4906  -19.1328   22.0436 C   0  0  0  0  0  0  0  0  0  0  0  0
  -22.2171   -5.8604   24.6564 C   0  0  0  0  0  0  0  0  0  0  0  0
  -24.7507  -11.0886   20.1718 C   0  0  0  0  0  0  0  0  0  0  0  0
  -25.3475  -12.1914   18.3655 C   0  0  0  0  0  0  0  0  0  0  0  0
  -29.5724  -23.8332   23.8516 C   0  0  0  0  0  0  0  0  0  0  0  0
  -29.1405  -25.0982   23.9500 C   0  0  0  0  0  0  0  0  0  1  0  0
  -22.9987  -11.3380   18.3054 C   0  0  0  0  0  0  0  0  0  0  0  0
  -24.9578  -32.3698   23.8993 C   0  0  0  0  0  0  0  0  0  0  0  0
  -25.2547  -30.5412   21.4542 C   0  0  0  0  0  0  0  0  0  0  0  0
  -26.1756  -28.4978   18.8825 C   0  0  0  0  0  0  0  0  0  0  0  0
  -30.0637  -15.0056   20.7198 C   0  0  0  0  0  0  0  0  0  0  0  0
  -25.1349  -37.3739   22.9065 C   0  0  0  0  0  0  0  0  0  0  0  0
  -26.7114  -30.9588   24.9486 C   0  0  0  0  0  0  0  0  0  0  0  0
  -25.1804  -29.0626   23.5204 C   0  0  0  0  0  0  0  0  0  0  0  0
  -30.4918  -23.3669   22.7590 C   0  0  0  0  0  0  0  0  0  0  0  0
  -29.1607  -22.7523   24.8104 C   0  0  0  0  0  0  0  0  0  0  0  0
  -24.7542  -36.1187   22.1256 C   0  0  0  0  0  0  0  0  0  0  0  0
  -30.1351  -12.2947   18.4126 C   0  0  0  0  0  0  0  0  0  0  0  0
  -23.7974  -35.2533   22.9395 C   0  0  0  0  0  0  0  0  0  0  0  0
  -28.7181  -11.7211   18.4832 C   0  0  0  0  0  0  0  0  0  0  0  0
  -29.9035  -22.1597   22.0243 C   0  0  0  0  0  0  0  0  0  0  0  0
  -28.5757  -21.5541   24.0604 C   0  0  0  0  0  0  0  0  0  0  0  0
  -30.6216  -12.7743   19.7790 C   0  0  0  0  0  0  0  0  0  0  0  0
  -28.3052  -13.1376   20.5350 C   0  0  0  0  0  0  0  0  0  0  0  0
  -24.4532  -34.7819   24.2431 C   0  0  1  0  0  0  0  0  0  0  0  0
  -26.0716  -31.4036   23.6212 C   0  0  1  0  0  0  0  0  0  0  0  0
  -27.7471  -12.7009   19.1707 C   0  0  2  0  0  0  0  0  0  0  0  0
  -25.8025  -28.1299   16.4284 C   0  0  0  0  0  0  0  0  0  0  0  0
  -22.5208  -29.3294   22.0553 C   0  0  0  0  0  0  0  0  0  0  0  0
  -22.6278  -28.1672   19.8404 C   0  0  0  0  0  0  0  0  0  0  0  0
  -22.6305  -30.6597   19.9404 C   0  0  0  0  0  0  0  0  0  0  0  0
  -29.0382  -28.9258   18.2649 C   0  0  0  0  0  0  0  0  0  0  0  0
  -24.6933  -29.3881   20.6615 C   0  0  1  0  0  0  0  0  0  0  0  0
  -26.6700  -28.8035   17.4802 C   0  0  2  0  0  0  0  0  0  0  0  0
  -23.1386  -29.3823   20.6438 C   0  0  0  0  0  0  0  0  0  0  0  0
  -26.0153  -11.4510   20.4035 N   0  0  0  0  0  0  0  0  0  0  0  0
  -26.3504  -12.1197   19.2870 N   0  0  0  0  0  0  0  0  0  0  0  0
  -29.4719  -21.1240   22.9741 N   0  0  0  0  0  0  0  0  0  0  0  0
  -25.4639  -30.3261   22.8219 N   0  0  0  0  0  0  0  0  0  0  0  0
  -29.6536  -13.7022   20.3678 N   0  0  0  0  0  0  0  0  0  0  0  0
  -25.5149  -12.8277   17.1867 N   0  0  0  0  0  0  0  0  0  0  0  0
  -22.0185  -10.6267   19.0108 N   0  0  0  0  0  0  0  0  0  0  0  0
  -29.0492  -15.8084   21.2403 N   0  0  0  0  0  0  0  0  0  0  0  0
  -25.3643  -33.6878   23.9836 N   0  0  0  0  0  0  0  0  0  0  0  0
  -25.3056  -29.4650   19.3395 N   0  0  0  0  0  0  0  0  0  0  0  0
  -28.0715  -28.3261   17.3095 N   0  3  0  0  0  0  0  0  0  0  0  0
  -22.7345  -11.7762   17.1601 O   0  0  0  0  0  0  0  0  0  0  0  0
  -23.8130  -31.9517   24.0268 O   0  0  0  0  0  0  0  0  0  0  0  0
  -25.4968  -31.6066   20.8802 O   0  0  0  0  0  0  0  0  0  0  0  0
  -26.5232  -27.4988   19.5084 O   0  0  0  0  0  0  0  0  0  0  0  0
  -31.2227  -15.3905   20.5453 O   0  0  0  0  0  0  0  0  0  0  0  0
  -21.9219   -8.1595   24.0038 O   0  0  0  0  0  0  0  0  0  0  0  0
  -28.3041  -25.5282   24.9416 O   0  0  0  0  0  0  0  0  0  1  0  0
  -21.1179   -2.7894   23.0447 F   0  0  0  0  0  0  0  0  0  0  0  0
  -31.6748  -19.7575   21.9741 F   0  0  0  0  0  0  0  0  0  0  0  0
  -22.8884   -6.2466   25.7500 F   0  0  0  0  0  0  0  0  0  0  0  0
  1  2  1  0  0  0  0
  1  5  2  0  0  0  0
  2  6  2  0  0  0  0
  3 10  2  0  0  0  0
  3 18  1  0  0  0  0
  4 11  1  0  0  0  0
  4 18  2  0  0  0  0
  5 20  1  0  0  0  0
  6 22  1  0  0  0  0
  7 12  2  0  0  0  0
  7 21  1  0  0  0  0
  8  9  2  0  0  0  0
  8 24  1  0  0  0  0
  9 25  1  0  0  0  0
 10 26  1  0  0  0  0
 11 26  2  0  0  0  0
 12 27  1  0  0  0  0
 13 14  2  0  0  0  0
 13 28  1  0  0  0  0
 14 29  1  0  0  0  0
 15 23  1  0  0  0  0
 15 27  2  0  0  0  0
 16 25  2  0  0  0  0
 16 30  1  0  0  0  0
 17 29  2  0  0  0  0
 17 31  1  0  0  0  0
 18 32  1  0  0  0  0
 19 32  1  0  0  0  0
 19 33  2  0  0  0  0
 19 36  1  0  0  0  0
 20 22  2  0  0  0  0
 20 41  1  0  0  0  0
 21 23  2  0  0  0  0
 21 42  1  0  0  0  0
 22 54  1  0  0  0  0
 23 43  1  0  0  0  0
 24 30  2  0  0  0  0
 24 67  1  0  0  0  0
 25 72  1  0  0  0  0
 26 81  1  0  0  0  0
 27 82  1  0  0  0  0
 28 31  2  0  0  0  0
 28 81  1  0  0  0  0
 29 83  1  0  0  0  0
 30 84  1  0  0  0  0
 31 85  1  0  0  0  0
 32 65  2  0  0  0  0
 33 66  1  0  0  0  0
 33 70  1  0  0  0  0
 34 35  2  0  0  0  0
 34 44  1  0  0  0  0
 34 45  1  0  0  0  0
 35 82  1  0  0  0  0
 36 71  1  0  0  0  0
 36 76  2  0  0  0  0
 37 55  1  0  0  0  0
 37 73  1  0  0  0  0
 37 77  2  0  0  0  0
 38 62  1  0  0  0  0
 38 68  1  0  0  0  0
 38 78  2  0  0  0  0
 39 63  1  0  0  0  0
 39 74  1  0  0  0  0
 39 79  2  0  0  0  0
 40 69  1  0  0  0  0
 40 72  1  0  0  0  0
 40 80  2  0  0  0  0
 41 46  1  0  0  0  0
 42 55  1  0  0  0  0
 43 68  1  0  0  0  0
 44 50  1  0  0  0  0
 45 51  1  0  0  0  0
 46 48  1  0  0  0  0
 47 49  1  0  0  0  0
 47 52  1  0  0  0  0
 48 54  1  0  0  0  0
 49 56  1  0  0  0  0
 50 67  1  0  0  0  0
 51 67  1  0  0  0  0
 52 69  1  0  0  0  0
 53 56  1  0  0  0  0
 53 69  1  0  0  0  0
 54 73  1  0  0  0  0
 55 68  1  0  0  0  0
 56 66  1  0  0  0  0
 57 63  1  0  0  0  0
 58 64  1  0  0  0  0
 59 64  1  0  0  0  0
 60 64  1  0  0  0  0
 61 75  1  0  0  0  0
 62 64  1  0  0  0  0
 62 74  1  0  0  0  0
 63 75  1  0  0  0  0
 65 66  1  0  0  0  0
M  CHG  1  75   1
M  ISO  4  35 101  40 100  72 100  82 101
M  END
> <Batch ID>
0093

> <Smiles>
CNC(C)C(=O)NC(C(=O)N1Cc2cc([101O:1][101CH:1]=C3CCN(c4ccc([100NH:0][100C:0](=O)N5CCCC(n6nc(-c7ccc(Oc8ccc(F)cc8F)cc7)c(C(N)=O)c6N)C5)cc4F)CC3)ccc2CC1C(=O)NC1CCCc2ccccc21)C(C)(C)C

> <Shape>
0.311

> <Color>
0.107

> <Negative vol penalty>
0.000

$$$$

  -OEChem-04052300373D

 85 93  0     1  0  0  0  0  0999 V2000
  -20.6635  -31.5258   19.9502 C   0  0  0  0  0  0  0  0  0  0  0  0
  -20.7887  -30.3894   19.1576 C   0  0  0  0  0  0  0  0  0  0  0  0
  -23.3041   -9.8803   19.7547 C   0  0  0  0  0  0  0  0  0  0  0  0
  -23.8111   -9.7056   22.1105 C   0  0  0  0  0  0  0  0  0  0  0  0
  -21.7904  -32.2866   20.2590 C   0  0  0  0  0  0  0  0  0  0  0  0
  -22.0409  -30.0135   18.6726 C   0  0  0  0  0  0  0  0  0  0  0  0
  -22.9074  -25.0491   19.1710 C   0  0  0  0  0  0  0  0  0  0  0  0
  -22.6258   -8.6628   19.8104 C   0  0  0  0  0  0  0  0  0  0  0  0
  -23.1327   -8.4881   22.1662 C   0  0  0  0  0  0  0  0  0  0  0  0
  -22.3020  -24.2009   18.2447 C   0  0  0  0  0  0  0  0  0  0  0  0
  -23.7285   -5.2642   21.3404 C   0  0  0  0  0  0  0  0  0  0  0  0
  -24.3382   -4.2134   22.0257 C   0  0  0  0  0  0  0  0  0  0  0  0
  -24.3772  -24.0646   17.0224 C   0  0  0  0  0  0  0  0  0  0  0  0
  -26.1560  -19.6539   15.6069 C   0  0  0  0  0  0  0  0  0  0  0  0
  -25.4655  -19.3476   17.9017 C   0  0  0  0  0  0  0  0  0  0  0  0
  -22.4554   -4.1060   23.5359 C   0  0  0  0  0  0  0  0  0  0  0  0
  -23.8968  -10.4017   20.9048 C   0  0  0  0  0  0  0  0  0  0  0  0
  -27.5677  -18.4321   17.1403 C   0  0  0  0  0  0  0  0  0  0  0  0
  -24.0604  -12.9428   21.0589 C   0  0  0  0  0  0  0  0  0  0  0  0
  -23.0584  -31.9145   19.7855 C   0  0  0  0  0  0  0  0  0  0  0  0
  -24.2515  -25.4207   19.0236 C   0  0  0  0  0  0  0  0  0  0  0  0
  -23.1856  -30.7707   18.9743 C   0  0  0  0  0  0  0  0  0  0  0  0
  -24.9980  -24.9155   17.9495 C   0  0  0  0  0  0  0  0  0  0  0  0
  -27.3273  -18.9415   15.8642 C   0  0  0  0  0  0  0  0  0  0  0  0
  -25.2251  -19.8570   16.6257 C   0  0  0  0  0  0  0  0  0  0  0  0
  -22.5400   -7.9667   21.0161 C   0  0  0  0  0  0  0  0  0  0  0  0
  -23.0361  -23.7108   17.1686 C   0  0  0  0  0  0  0  0  0  0  0  0
  -22.4823   -5.7360   21.7528 C   0  0  0  0  0  0  0  0  0  0  0  0
  -23.7017   -3.6343   23.1235 C   0  0  0  0  0  0  0  0  0  0  0  0
  -26.6367  -18.6351   18.1591 C   0  0  0  0  0  0  0  0  0  0  0  0
  -21.8458   -5.1568   22.8506 C   0  0  0  0  0  0  0  0  0  0  0  0
  -24.5982  -11.6591   20.8478 C   0  0  0  0  0  0  0  0  0  0  0  0
  -25.1262  -13.7931   20.8934 C   0  0  0  0  0  0  0  0  0  0  0  0
  -28.8081  -17.6708   17.4378 C   0  0  0  0  0  0  0  0  0  0  0  0
  -22.7174  -13.3319   21.3762 C   0  0  0  0  0  0  0  0  0  0  0  0
  -25.7835  -28.1716   18.5890 C   0  0  0  0  0  0  0  0  0  0  0  0
  -28.4176  -26.3118   18.9418 C   0  0  0  0  0  0  0  0  0  0  0  0
  -29.8192  -23.2064   18.7449 C   0  0  0  0  0  0  0  0  0  0  0  0
  -29.6526  -15.4627   18.1691 C   0  0  0  0  0  0  0  0  0  0  0  0
  -24.2403  -32.7947   20.1066 C   0  0  0  0  0  0  0  0  0  0  0  0
  -24.8972  -26.3150   20.0462 C   0  0  0  0  0  0  0  0  0  0  0  0
  -26.4496  -25.2680   17.7574 C   0  0  0  0  0  0  0  0  0  0  0  0
  -25.5871  -32.1187   19.8634 C   0  0  0  0  0  0  0  0  0  0  0  0
  -30.0817  -12.8279   20.4865 C   0  0  0  0  0  0  0  0  0  0  0  0
  -25.5959  -31.4182   18.5083 C   0  0  0  0  0  0  0  0  0  0  0  0
  -28.6491  -12.3971   20.8129 C   0  0  0  0  0  0  0  0  0  0  0  0
  -30.2388  -13.2072   19.0147 C   0  0  0  0  0  0  0  0  0  0  0  0
  -27.8475  -13.7652   18.8457 C   0  0  0  0  0  0  0  0  0  0  0  0
  -24.5306  -30.3168   18.4498 C   0  0  1  0  0  0  0  0  0  0  0  0
  -26.1299  -27.0390   19.5135 C   0  0  1  0  0  0  0  0  0  0  0  0
  -27.6211  -13.4404   20.3311 C   0  0  1  0  0  0  0  0  0  0  0  0
  -28.3073  -18.7388   14.7549 C   0  0  0  0  0  0  0  0  0  0  0  0
  -32.0008  -22.0063   19.0578 C   0  0  0  0  0  0  0  0  0  0  0  0
  -21.2728  -20.9270   15.5835 C   0  0  0  0  0  0  0  0  0  0  0  0
  -29.4156  -27.4392   16.2880 C   0  0  0  0  0  0  0  0  0  0  0  0
  -31.0642  -25.5575   16.1884 C   0  0  0  0  0  0  0  0  0  0  0  0
  -31.1737  -27.2121   18.0521 C   0  0  0  0  0  0  0  0  0  0  0  0
  -28.7009  -21.4883   20.8795 C   0  0  0  0  0  0  0  0  0  0  0  0
  -23.0458  -20.8206   17.3657 C   0  0  0  0  0  0  0  0  0  0  0  0
  -29.2983  -25.5172   18.0079 C   0  0  1  0  0  0  0  0  0  0  0  0
  -30.6969  -22.4341   19.7132 C   0  0  2  0  0  0  0  0  0  0  0  0
  -21.9202  -21.6519   16.7545 C   0  0  1  0  0  0  0  0  0  1  0  0
  -30.2101  -26.4262   17.1364 C   0  0  0  0  0  0  0  0  0  0  0  0
  -25.9042  -11.6866   20.5693 N   0  0  0  0  0  0  0  0  0  0  0  0
  -26.1960  -12.9980   20.6042 N   0  0  0  0  0  0  0  0  0  0  0  0
  -27.0342  -26.1507   18.7804 N   0  0  0  0  0  0  0  0  0  0  0  0
  -29.2356  -14.2056   18.6404 N   0  0  0  0  0  0  0  0  0  0  0  0
  -25.2434  -15.1359   20.9685 N   0  0  0  0  0  0  0  0  0  0  0  0
  -21.7457  -12.3307   21.5103 N   0  0  0  0  0  0  0  0  0  0  0  0
  -24.0621  -20.5642   16.3705 N   0  0  0  0  0  0  0  0  0  0  0  0
  -28.6194  -16.3607   17.8788 N   0  0  0  0  0  0  0  0  0  0  0  0
  -24.9808  -29.1398   19.1615 N   0  0  0  0  0  0  0  0  0  0  0  0
  -30.0249  -24.5663   18.8423 N   0  0  0  0  0  0  0  0  0  0  0  0
  -29.9894  -21.2134   20.1930 N   0  3  0  0  0  0  0  0  0  0  0  0
  -29.8975  -18.2046   17.2477 O   0  0  0  0  0  0  0  0  0  0  0  0
  -22.3852  -14.5329   21.5200 O   0  0  0  0  0  0  0  0  0  0  0  0
  -26.2139  -28.1682   17.4416 O   0  0  0  0  0  0  0  0  0  0  0  0
  -28.9381  -27.0428   19.7882 O   0  0  0  0  0  0  0  0  0  0  0  0
  -29.0327  -22.6578   17.9761 O   0  0  0  0  0  0  0  0  0  0  0  0
  -30.8425  -15.7726   18.0530 O   0  0  0  0  0  0  0  0  0  0  0  0
  -21.8780   -6.7787   21.0709 O   0  0  0  0  0  0  0  0  0  0  0  0
  -22.4475  -22.8834   16.2627 O   0  0  0  0  0  0  0  0  0  1  0  0
  -24.2865   -2.6242   23.7806 F   0  0  0  0  0  0  0  0  0  0  0  0
  -26.8562  -18.1506   19.3898 F   0  0  0  0  0  0  0  0  0  0  0  0
  -20.6479   -5.6050   23.2508 F   0  0  0  0  0  0  0  0  0  0  0  0
  1  2  1  0  0  0  0
  1  5  2  0  0  0  0
  2  6  2  0  0  0  0
  3  8  2  0  0  0  0
  3 17  1  0  0  0  0
  4  9  1  0  0  0  0
  4 17  2  0  0  0  0
  5 20  1  0  0  0  0
  6 22  1  0  0  0  0
  7 10  2  0  0  0  0
  7 21  1  0  0  0  0
  8 26  1  0  0  0  0
  9 26  2  0  0  0  0
 10 27  1  0  0  0  0
 11 12  2  0  0  0  0
 11 28  1  0  0  0  0
 12 29  1  0  0  0  0
 13 23  1  0  0  0  0
 13 27  2  0  0  0  0
 14 24  2  0  0  0  0
 14 25  1  0  0  0  0
 15 25  2  0  0  0  0
 15 30  1  0  0  0  0
 16 29  2  0  0  0  0
 16 31  1  0  0  0  0
 17 32  1  0  0  0  0
 18 24  1  0  0  0  0
 18 30  2  0  0  0  0
 18 34  1  0  0  0  0
 19 32  1  0  0  0  0
 19 33  2  0  0  0  0
 19 35  1  0  0  0  0
 20 22  2  0  0  0  0
 20 40  1  0  0  0  0
 21 23  2  0  0  0  0
 21 41  1  0  0  0  0
 22 49  1  0  0  0  0
 23 42  1  0  0  0  0
 24 52  1  0  0  0  0
 25 70  1  0  0  0  0
 26 81  1  0  0  0  0
 27 82  1  0  0  0  0
 28 31  2  0  0  0  0
 28 81  1  0  0  0  0
 29 83  1  0  0  0  0
 30 84  1  0  0  0  0
 31 85  1  0  0  0  0
 32 64  2  0  0  0  0
 33 65  1  0  0  0  0
 33 68  1  0  0  0  0
 34 71  1  0  0  0  0
 34 75  2  0  0  0  0
 35 69  1  0  0  0  0
 35 76  2  0  0  0  0
 36 50  1  0  0  0  0
 36 72  1  0  0  0  0
 36 77  2  0  0  0  0
 37 60  1  0  0  0  0
 37 66  1  0  0  0  0
 37 78  2  0  0  0  0
 38 61  1  0  0  0  0
 38 73  1  0  0  0  0
 38 79  2  0  0  0  0
 39 67  1  0  0  0  0
 39 71  1  0  0  0  0
 39 80  2  0  0  0  0
 40 43  1  0  0  0  0
 41 50  1  0  0  0  0
 42 66  1  0  0  0  0
 43 45  1  0  0  0  0
 44 46  1  0  0  0  0
 44 47  1  0  0  0  0
 45 49  1  0  0  0  0
 46 51  1  0  0  0  0
 47 67  1  0  0  0  0
 48 51  1  0  0  0  0
 48 67  1  0  0  0  0
 49 72  1  0  0  0  0
 50 66  1  0  0  0  0
 51 65  1  0  0  0  0
 53 61  1  0  0  0  0
 54 62  1  0  0  0  0
 55 63  1  0  0  0  0
 56 63  1  0  0  0  0
 57 63  1  0  0  0  0
 58 74  1  0  0  0  0
 59 62  1  0  0  0  0
 59 70  1  0  0  0  0
 60 63  1  0  0  0  0
 60 73  1  0  0  0  0
 61 74  1  0  0  0  0
 62 82  1  0  0  0  0
 64 65  1  0  0  0  0
M  CHG  1  74   1
M  ISO  4  39 100  62 101  71 100  82 101
M  END
> <Batch ID>
0093

> <Smiles>
CNC(C)C(=O)NC(C(=O)N1Cc2cc([101O:1][101CH:1](C)CNc3cc(C)c(C(=O)[100NH:0][100C:0](=O)N4CCCC(n5nc(-c6ccc(Oc7ccc(F)cc7F)cc6)c(C(N)=O)c5N)C4)c(F)c3)ccc2CC1C(=O)NC1CCCc2ccccc21)C(C)(C)C

> <Shape>
0.245

> <Color>
0.167

> <Negative vol penalty>
0.000

$$$$

  -OEChem-04052300373D

 85 94  0     1  0  0  0  0  0999 V2000
  -29.5517  -35.5893   25.5793 C   0  0  0  0  0  0  0  0  0  0  0  0
  -29.3686  -34.2412   25.2885 C   0  0  0  0  0  0  0  0  0  0  0  0
  -24.5416   -9.6237   21.4538 C   0  0  0  0  0  0  0  0  0  0  0  0
  -24.8437  -10.7037   23.5938 C   0  0  0  0  0  0  0  0  0  0  0  0
  -28.4462  -36.4270   25.7216 C   0  0  0  0  0  0  0  0  0  0  0  0
  -28.0798  -33.7298   25.1408 C   0  0  0  0  0  0  0  0  0  0  0  0
  -27.6476  -30.6834   21.1187 C   0  0  0  0  0  0  0  0  0  0  0  0
  -24.2440   -8.4245   22.1010 C   0  0  0  0  0  0  0  0  0  0  0  0
  -24.5461   -9.5044   24.2410 C   0  0  0  0  0  0  0  0  0  0  0  0
  -28.1401  -29.3855   21.2471 C   0  0  0  0  0  0  0  0  0  0  0  0
  -21.5961   -7.0369   23.6809 C   0  0  0  0  0  0  0  0  0  0  0  0
  -20.5012   -6.3059   23.2201 C   0  0  0  0  0  0  0  0  0  0  0  0
  -25.8995  -28.5799   21.6342 C   0  0  0  0  0  0  0  0  0  0  0  0
  -29.8285  -19.8739   21.5437 C   0  0  0  0  0  0  0  0  0  0  0  0
  -27.4196  -19.9067   21.7253 C   0  0  0  0  0  0  0  0  0  0  0  0
  -21.9533   -4.4374   22.7335 C   0  0  0  0  0  0  0  0  0  0  0  0
  -24.8415  -10.7633   22.2002 C   0  0  0  0  0  0  0  0  0  0  0  0
  -24.2441  -13.0107   21.1513 C   0  0  0  0  0  0  0  0  0  0  0  0
  -27.1435  -35.9275   25.5661 C   0  0  0  0  0  0  0  0  0  0  0  0
  -26.2762  -30.9413   21.2581 C   0  0  0  0  0  0  0  0  0  0  0  0
  -26.9558  -34.5612   25.2825 C   0  0  0  0  0  0  0  0  0  0  0  0
  -25.3917  -29.8816   21.5045 C   0  0  0  0  0  0  0  0  0  0  0  0
  -28.7095  -21.8291   22.4165 C   0  0  0  0  0  0  0  0  0  0  0  0
  -28.5956  -19.2441   21.3739 C   0  0  0  0  0  0  0  0  0  0  0  0
  -29.8855  -21.1665   22.0650 C   0  0  0  0  0  0  0  0  0  0  0  0
  -24.2463   -8.3648   23.4946 C   0  0  0  0  0  0  0  0  0  0  0  0
  -27.2665  -28.3339   21.5078 C   0  0  0  0  0  0  0  0  0  0  0  0
  -22.8697   -6.4681   23.6679 C   0  0  0  0  0  0  0  0  0  0  0  0
  -20.6797   -5.0062   22.7464 C   0  0  0  0  0  0  0  0  0  0  0  0
  -27.4765  -21.1993   22.2467 C   0  0  0  0  0  0  0  0  0  0  0  0
  -23.0483   -5.1684   23.1943 C   0  0  0  0  0  0  0  0  0  0  0  0
  -25.1495  -12.0023   21.5322 C   0  0  0  0  0  0  0  0  0  0  0  0
  -25.0279  -13.9696   20.5577 C   0  0  0  0  0  0  0  0  0  0  0  0
  -28.5985  -25.4160   23.1193 C   0  0  0  0  0  0  0  0  0  0  0  0
  -28.1161  -26.6397   22.8785 C   0  0  0  0  0  0  0  0  0  1  0  0
  -22.8216  -13.0749   21.3192 C   0  0  0  0  0  0  0  0  0  0  0  0
  -24.5110  -32.6712   23.2569 C   0  0  0  0  0  0  0  0  0  0  0  0
  -22.1078  -31.8255   21.2489 C   0  0  0  0  0  0  0  0  0  0  0  0
  -20.9051  -29.6239   18.9351 C   0  0  0  0  0  0  0  0  0  0  0  0
  -29.6091  -17.1324   20.4464 C   0  0  0  0  0  0  0  0  0  0  0  0
  -25.9781  -36.8616   25.7759 C   0  0  0  0  0  0  0  0  0  0  0  0
  -25.7575  -32.3431   21.0902 C   0  0  0  0  0  0  0  0  0  0  0  0
  -23.9083  -30.1026   21.6427 C   0  0  0  0  0  0  0  0  0  0  0  0
  -29.0174  -24.9050   24.4614 C   0  0  0  0  0  0  0  0  0  0  0  0
  -28.6893  -24.3131   22.1079 C   0  0  0  0  0  0  0  0  0  0  0  0
  -24.6580  -36.3197   25.2338 C   0  0  0  0  0  0  0  0  0  0  0  0
  -29.8824  -13.8355   19.1300 C   0  0  0  0  0  0  0  0  0  0  0  0
  -24.4634  -34.8670   25.6564 C   0  0  0  0  0  0  0  0  0  0  0  0
  -28.6009  -13.1476   19.6063 C   0  0  0  0  0  0  0  0  0  0  0  0
  -28.7233  -23.4108   24.3628 C   0  0  0  0  0  0  0  0  0  0  0  0
  -30.4302  -14.8024   20.1782 C   0  0  0  0  0  0  0  0  0  0  0  0
  -28.1856  -15.1078   21.1465 C   0  0  0  0  0  0  0  0  0  0  0  0
  -25.5743  -33.9742   25.0905 C   0  0  1  0  0  0  0  0  0  0  0  0
  -24.4057  -32.5644   21.7618 C   0  0  1  0  0  0  0  0  0  0  0  0
  -27.5605  -14.1728   20.0983 C   0  0  2  0  0  0  0  0  0  0  0  0
  -18.8955  -29.1758   17.5005 C   0  0  0  0  0  0  0  0  0  0  0  0
  -20.5947  -30.8013   23.6926 C   0  0  0  0  0  0  0  0  0  0  0  0
  -19.0837  -29.5428   22.1429 C   0  0  0  0  0  0  0  0  0  0  0  0
  -19.1856  -32.0329   22.0336 C   0  0  0  0  0  0  0  0  0  0  0  0
  -22.4869  -29.8568   16.4446 C   0  0  0  0  0  0  0  0  0  0  0  0
  -21.1351  -30.6736   21.1711 C   0  0  1  0  0  0  0  0  0  0  0  0
  -20.2610  -29.8409   17.5778 C   0  0  2  0  0  0  0  0  0  0  0  0
  -20.0279  -30.7584   22.2594 C   0  0  0  0  0  0  0  0  0  0  0  0
  -26.4120  -12.2934   21.2076 N   0  0  0  0  0  0  0  0  0  0  0  0
  -26.3055  -13.4956   20.6164 N   0  0  0  0  0  0  0  0  0  0  0  0
  -28.7467  -23.1093   22.9335 N   0  0  3  0  0  0  0  0  0  0  0  0
  -23.4505  -31.4919   21.4765 N   0  0  0  0  0  0  0  0  0  0  0  0
  -29.3904  -15.7463   20.5938 N   0  0  0  0  0  0  0  0  0  0  0  0
  -31.1451  -21.7855   22.2288 N   0  0  0  0  0  0  0  0  0  0  0  0
  -24.7422  -15.1636   19.9963 N   0  0  0  0  0  0  0  0  0  0  0  0
  -22.1743  -12.0038   21.9503 N   0  0  0  0  0  0  0  0  0  0  0  0
  -28.5375  -17.9308   20.8450 N   0  0  0  0  0  0  0  0  0  0  0  0
  -25.3333  -33.6931   23.6915 N   0  0  0  0  0  0  0  0  0  0  0  0
  -20.6284  -30.6589   19.8031 N   0  0  0  0  0  0  0  0  0  0  0  0
  -21.1209  -29.2753   16.5000 N   0  3  0  0  0  0  0  0  0  0  0  0
  -22.1426  -14.0456   20.9068 O   0  0  0  0  0  0  0  0  0  0  0  0
  -23.8908  -31.8854   23.9638 O   0  0  0  0  0  0  0  0  0  0  0  0
  -21.6928  -32.9782   21.1057 O   0  0  0  0  0  0  0  0  0  0  0  0
  -21.5827  -28.6334   19.2002 O   0  0  0  0  0  0  0  0  0  0  0  0
  -30.6584  -17.5773   19.9741 O   0  0  0  0  0  0  0  0  0  0  0  0
  -23.9557   -7.1948   24.1265 O   0  0  0  0  0  0  0  0  0  0  0  0
  -27.7447  -27.0661   21.6343 O   0  0  0  0  0  0  0  0  0  1  0  0
  -19.6279   -4.3038   22.3054 F   0  0  0  0  0  0  0  0  0  0  0  0
  -26.3397  -21.8267   22.5808 F   0  0  0  0  0  0  0  0  0  0  0  0
  -24.2693   -4.6162   23.1804 F   0  0  0  0  0  0  0  0  0  0  0  0
  1  2  1  0  0  0  0
  1  5  2  0  0  0  0
  2  6  2  0  0  0  0
  3  8  2  0  0  0  0
  3 17  1  0  0  0  0
  4  9  1  0  0  0  0
  4 17  2  0  0  0  0
  5 19  1  0  0  0  0
  6 21  1  0  0  0  0
  7 10  2  0  0  0  0
  7 20  1  0  0  0  0
  8 26  1  0  0  0  0
  9 26  2  0  0  0  0
 10 27  1  0  0  0  0
 11 12  2  0  0  0  0
 11 28  1  0  0  0  0
 12 29  1  0  0  0  0
 13 22  1  0  0  0  0
 13 27  2  0  0  0  0
 14 24  1  0  0  0  0
 14 25  2  0  0  0  0
 15 24  2  0  0  0  0
 15 30  1  0  0  0  0
 16 29  2  0  0  0  0
 16 31  1  0  0  0  0
 17 32  1  0  0  0  0
 18 32  1  0  0  0  0
 18 33  2  0  0  0  0
 18 36  1  0  0  0  0
 19 21  2  0  0  0  0
 19 41  1  0  0  0  0
 20 22  2  0  0  0  0
 20 42  1  0  0  0  0
 21 53  1  0  0  0  0
 22 43  1  0  0  0  0
 23 25  1  0  0  0  0
 23 30  2  0  0  0  0
 23 66  1  0  0  0  0
 24 72  1  0  0  0  0
 25 69  1  0  0  0  0
 26 81  1  0  0  0  0
 27 82  1  0  0  0  0
 28 31  2  0  0  0  0
 28 81  1  0  0  0  0
 29 83  1  0  0  0  0
 30 84  1  0  0  0  0
 31 85  1  0  0  0  0
 32 64  2  0  0  0  0
 33 65  1  0  0  0  0
 33 70  1  0  0  0  0
 34 35  2  0  0  0  0
 34 44  1  0  0  0  0
 34 45  1  0  0  0  0
 35 82  1  0  0  0  0
 36 71  1  0  0  0  0
 36 76  2  0  0  0  0
 37 54  1  0  0  0  0
 37 73  1  0  0  0  0
 37 77  2  0  0  0  0
 38 61  1  0  0  0  0
 38 67  1  0  0  0  0
 38 78  2  0  0  0  0
 39 62  1  0  0  0  0
 39 74  1  0  0  0  0
 39 79  2  0  0  0  0
 40 68  1  0  0  0  0
 40 72  1  0  0  0  0
 40 80  2  0  0  0  0
 41 46  1  0  0  0  0
 42 54  1  0  0  0  0
 43 67  1  0  0  0  0
 44 50  1  0  0  0  0
 45 66  1  0  0  0  0
 46 48  1  0  0  0  0
 47 49  1  0  0  0  0
 47 51  1  0  0  0  0
 48 53  1  0  0  0  0
 49 55  1  0  0  0  0
 50 66  1  0  0  0  0
 51 68  1  0  0  0  0
 52 55  1  0  0  0  0
 52 68  1  0  0  0  0
 53 73  1  0  0  0  0
 54 67  1  0  0  0  0
 55 65  1  0  0  0  0
 56 62  1  0  0  0  0
 57 63  1  0  0  0  0
 58 63  1  0  0  0  0
 59 63  1  0  0  0  0
 60 75  1  0  0  0  0
 61 63  1  0  0  0  0
 61 74  1  0  0  0  0
 62 75  1  0  0  0  0
 64 65  1  0  0  0  0
M  CHG  1  75   1
M  ISO  4  35 101  40 100  72 100  82 101
M  END
> <Batch ID>
0093

> <Smiles>
CNC(C)C(=O)NC(C(=O)N1Cc2cc([101O:1][101CH:1]=C3CCN(c4c(N)cc([100NH:0][100C:0](=O)N5CCCC(n6nc(-c7ccc(Oc8ccc(F)cc8F)cc7)c(C(N)=O)c6N)C5)cc4F)C3)ccc2CC1C(=O)NC1CCCc2ccccc21)C(C)(C)C

> <Shape>
0.279

> <Color>
0.135

> <Negative vol penalty>
0.000

$$$$

  -OEChem-04052300373D

 87 96  0     1  0  0  0  0  0999 V2000
  -29.3957  -16.4807   29.2679 C   0  0  0  0  0  0  0  0  0  0  0  0
  -28.9152  -16.1441   28.0064 C   0  0  0  0  0  0  0  0  0  0  0  0
  -22.9706  -25.6491   21.9724 C   0  0  0  0  0  0  0  0  0  0  0  0
  -20.9688  -26.3367   23.1375 C   0  0  0  0  0  0  0  0  0  0  0  0
  -21.9377  -13.8241   22.8897 C   0  0  0  0  0  0  0  0  0  0  0  0
  -29.4202  -17.8155   29.6699 C   0  0  0  0  0  0  0  0  0  0  0  0
  -28.4580  -17.1421   27.1466 C   0  0  0  0  0  0  0  0  0  0  0  0
  -30.1549  -16.5545   22.4116 C   0  0  0  0  0  0  0  0  0  0  0  0
  -21.3368  -15.0169   23.2918 C   0  0  0  0  0  0  0  0  0  0  0  0
  -23.5495  -26.8908   22.2343 C   0  0  0  0  0  0  0  0  0  0  0  0
  -21.5478  -27.5784   23.3994 C   0  0  0  0  0  0  0  0  0  0  0  0
  -29.5218  -15.5950   21.6228 C   0  0  0  0  0  0  0  0  0  0  0  0
  -23.3707  -30.0321   20.9993 C   0  0  0  0  0  0  0  0  0  0  0  0
  -24.0340  -30.6709   19.9516 C   0  0  0  0  0  0  0  0  0  0  0  0
  -22.2849  -14.7429   20.6824 C   0  0  0  0  0  0  0  0  0  0  0  0
  -28.2356  -17.3324   20.5522 C   0  0  0  0  0  0  0  0  0  0  0  0
  -26.0810  -30.6497   21.2347 C   0  0  0  0  0  0  0  0  0  0  0  0
  -21.6802  -25.3720   22.4240 C   0  0  0  0  0  0  0  0  0  0  0  0
  -22.4118  -13.6871   21.5851 C   0  0  0  0  0  0  0  0  0  0  0  0
  -20.8276  -23.5194   20.8916 C   0  0  0  0  0  0  0  0  0  0  0  0
  -28.9721  -18.8313   28.8109 C   0  0  0  0  0  0  0  0  0  0  0  0
  -29.8247  -17.9114   22.2841 C   0  0  0  0  0  0  0  0  0  0  0  0
  -28.4753  -18.4917   27.5380 C   0  0  0  0  0  0  0  0  0  0  0  0
  -28.8678  -18.3075   21.3388 C   0  0  0  0  0  0  0  0  0  0  0  0
  -21.6839  -15.9358   21.0844 C   0  0  0  0  0  0  0  0  0  0  0  0
  -21.2098  -16.0727   22.3891 C   0  0  0  0  0  0  0  0  0  0  0  0
  -22.8381  -27.8555   22.9477 C   0  0  0  0  0  0  0  0  0  0  0  0
  -28.5599  -15.9835   20.6950 C   0  0  0  0  0  0  0  0  0  0  0  0
  -24.0626  -29.7021   22.1647 C   0  0  0  0  0  0  0  0  0  0  0  0
  -25.3891  -30.9797   20.0693 C   0  0  0  0  0  0  0  0  0  0  0  0
  -25.4177  -30.0109   22.2824 C   0  0  0  0  0  0  0  0  0  0  0  0
  -21.0814  -24.0897   22.1534 C   0  0  0  0  0  0  0  0  0  0  0  0
  -20.2541  -22.3036   21.1735 C   0  0  0  0  0  0  0  0  0  0  0  0
  -25.2590  -13.6030   20.6220 C   0  0  0  0  0  0  0  0  0  0  0  0
  -23.0447  -12.4283   21.1610 C   0  0  0  0  0  0  0  0  0  0  0  0
  -21.0871  -24.0418   19.5819 C   0  0  0  0  0  0  0  0  0  0  0  0
  -28.5931  -20.1118   24.2193 C   0  0  0  0  0  0  0  0  0  0  0  0
  -29.2299  -22.0946   21.7323 C   0  0  0  0  0  0  0  0  0  0  0  0
  -29.7417  -22.4632   18.3783 C   0  0  0  0  0  0  0  0  0  0  0  0
  -20.0782  -17.5578   24.0804 C   0  0  0  0  0  0  0  0  0  0  0  0
  -28.9740  -20.2554   29.3077 C   0  0  0  0  0  0  0  0  0  0  0  0
  -30.5360  -18.9369   23.1236 C   0  0  0  0  0  0  0  0  0  0  0  0
  -28.4920  -19.7536   21.1488 C   0  0  0  0  0  0  0  0  0  0  0  0
  -28.8204  -21.2889   28.1948 C   0  0  0  0  0  0  0  0  0  0  0  0
  -18.5235  -20.4104   25.5373 C   0  0  0  0  0  0  0  0  0  0  0  0
  -27.6937  -20.8896   27.2472 C   0  0  0  0  0  0  0  0  0  0  0  0
  -19.0295  -21.5750   24.6830 C   0  0  0  0  0  0  0  0  0  0  0  0
  -26.4622  -11.6081   20.1216 C   0  0  0  0  0  0  0  0  0  0  0  0
  -19.5999  -19.3454   25.7390 C   0  0  0  0  0  0  0  0  0  0  0  0
  -24.9784  -11.3194   20.1009 C   0  0  0  0  0  0  0  0  0  0  0  0
  -20.7237  -20.0101   23.6498 C   0  0  0  0  0  0  0  0  0  0  0  0
  -27.9938  -19.5482   26.5675 C   0  0  1  0  0  0  0  0  0  0  0  0
  -26.5188  -13.1183   19.9247 C   0  0  2  0  0  0  0  0  0  0  0  0
  -29.7516  -20.2370   23.2706 C   0  0  1  0  0  0  0  0  0  0  0  0
  -19.6543  -21.0772   23.3649 C   0  0  2  0  0  0  0  0  0  0  0  0
  -21.5608  -17.0503   20.0967 C   0  0  0  0  0  0  0  0  0  0  0  0
  -30.2015  -24.2097   16.6360 C   0  0  0  0  0  0  0  0  0  0  0  0
  -26.3131  -22.9821   21.8556 C   0  0  0  0  0  0  0  0  0  0  0  0
  -26.5873  -23.9624   19.5682 C   0  0  0  0  0  0  0  0  0  0  0  0
  -27.9509  -24.8319   21.4675 C   0  0  0  0  0  0  0  0  0  0  0  0
  -32.3180  -21.2101   17.6357 C   0  0  0  0  0  0  0  0  0  0  0  0
  -27.7805  -13.7465   20.4851 C   0  0  0  0  0  0  0  0  0  1  0  0
  -28.4732  -22.5516   20.5085 C   0  0  1  0  0  0  0  0  0  0  0  0
  -30.8132  -23.2033   17.5982 C   0  0  2  0  0  0  0  0  0  0  0  0
  -27.3366  -23.5545   20.8546 C   0  0  0  0  0  0  0  0  0  0  0  0
  -20.7003  -23.3012   23.1618 N   0  0  0  0  0  0  0  0  0  0  0  0
  -20.2010  -22.2229   22.5339 N   0  0  0  0  0  0  0  0  0  0  0  0
  -24.3762  -12.4879   20.7140 N   0  0  0  0  0  0  0  0  0  0  0  0
  -29.2109  -20.7180   21.9976 N   0  0  0  0  0  0  0  0  0  0  0  0
  -20.1430  -18.9186   24.4475 N   0  0  0  0  0  0  0  0  0  0  0  0
  -19.7950  -21.3064   20.3879 N   0  0  0  0  0  0  0  0  0  0  0  0
  -20.0927  -24.8086   18.9593 N   0  0  0  0  0  0  0  0  0  0  0  0
  -20.5963  -17.2763   22.8167 N   0  0  0  0  0  0  0  0  0  0  0  0
  -28.9514  -19.7270   25.4972 N   0  0  0  0  0  0  0  0  0  0  0  0
  -29.4719  -23.0764   19.5835 N   0  0  0  0  0  0  0  0  0  0  0  0
  -31.6382  -22.2429   16.8121 N   0  3  0  0  0  0  0  0  0  0  0  0
  -25.0644  -14.7586   20.9706 O   0  0  0  0  0  0  0  0  0  0  0  0
  -22.3619  -11.4063   21.2019 O   0  0  0  0  0  0  0  0  0  0  0  0
  -22.1623  -23.8210   18.9747 O   0  0  0  0  0  0  0  0  0  0  0  0
  -27.4583  -20.3483   23.8217 O   0  0  0  0  0  0  0  0  0  0  0  0
  -29.8220  -22.9275   22.4232 O   0  0  0  0  0  0  0  0  0  0  0  0
  -29.1958  -21.4451   17.9588 O   0  0  0  0  0  0  0  0  0  0  0  0
  -19.5738  -16.7093   24.8204 O   0  0  0  0  0  0  0  0  0  0  0  0
  -23.4028  -29.0672   23.2036 O   0  0  0  0  0  0  0  0  0  0  0  0
  -27.9399  -15.0489   19.9243 O   0  0  0  0  0  0  0  0  0  1  0  0
  -26.0263  -31.5917   19.0626 F   0  0  0  0  0  0  0  0  0  0  0  0
  -26.0880  -29.6953   23.3991 F   0  0  0  0  0  0  0  0  0  0  0  0
  1  2  1  0  0  0  0
  1  6  2  0  0  0  0
  2  7  2  0  0  0  0
  3 10  2  0  0  0  0
  3 18  1  0  0  0  0
  4 11  1  0  0  0  0
  4 18  2  0  0  0  0
  5  9  2  0  0  0  0
  5 19  1  0  0  0  0
  6 21  1  0  0  0  0
  7 23  1  0  0  0  0
  8 12  2  0  0  0  0
  8 22  1  0  0  0  0
  9 26  1  0  0  0  0
 10 27  1  0  0  0  0
 11 27  2  0  0  0  0
 12 28  1  0  0  0  0
 13 14  2  0  0  0  0
 13 29  1  0  0  0  0
 14 30  1  0  0  0  0
 15 19  2  0  0  0  0
 15 25  1  0  0  0  0
 16 24  1  0  0  0  0
 16 28  2  0  0  0  0
 17 30  2  0  0  0  0
 17 31  1  0  0  0  0
 18 32  1  0  0  0  0
 19 35  1  0  0  0  0
 20 32  1  0  0  0  0
 20 33  2  0  0  0  0
 20 36  1  0  0  0  0
 21 23  2  0  0  0  0
 21 41  1  0  0  0  0
 22 24  2  0  0  0  0
 22 42  1  0  0  0  0
 23 52  1  0  0  0  0
 24 43  1  0  0  0  0
 25 26  2  0  0  0  0
 25 56  1  0  0  0  0
 26 73  1  0  0  0  0
 27 84  1  0  0  0  0
 28 85  1  0  0  0  0
 29 31  2  0  0  0  0
 29 84  1  0  0  0  0
 30 86  1  0  0  0  0
 31 87  1  0  0  0  0
 32 66  2  0  0  0  0
 33 67  1  0  0  0  0
 33 71  1  0  0  0  0
 34 53  1  0  0  0  0
 34 68  1  0  0  0  0
 34 77  2  0  0  0  0
 35 68  1  0  0  0  0
 35 78  2  0  0  0  0
 36 72  1  0  0  0  0
 36 79  2  0  0  0  0
 37 54  1  0  0  0  0
 37 74  1  0  0  0  0
 37 80  2  0  0  0  0
 38 63  1  0  0  0  0
 38 69  1  0  0  0  0
 38 81  2  0  0  0  0
 39 64  1  0  0  0  0
 39 75  1  0  0  0  0
 39 82  2  0  0  0  0
 40 70  1  0  0  0  0
 40 73  1  0  0  0  0
 40 83  2  0  0  0  0
 41 44  1  0  0  0  0
 42 54  1  0  0  0  0
 43 69  1  0  0  0  0
 44 46  1  0  0  0  0
 45 47  1  0  0  0  0
 45 49  1  0  0  0  0
 46 52  1  0  0  0  0
 47 55  1  0  0  0  0
 48 50  1  0  0  0  0
 48 53  1  0  0  0  0
 49 70  1  0  0  0  0
 50 68  1  0  0  0  0
 51 55  1  0  0  0  0
 51 70  1  0  0  0  0
 52 74  1  0  0  0  0
 53 62  1  0  0  0  0
 54 69  1  0  0  0  0
 55 67  1  0  0  0  0
 57 64  1  0  0  0  0
 58 65  1  0  0  0  0
 59 65  1  0  0  0  0
 60 65  1  0  0  0  0
 61 76  1  0  0  0  0
 62 85  1  0  0  0  0
 63 65  1  0  0  0  0
 63 75  1  0  0  0  0
 64 76  1  0  0  0  0
 66 67  1  0  0  0  0
M  CHG  1  76   1
M  ISO  4  40 100  62 101  73 100  85 101
M  END
> <Batch ID>
0093

> <Smiles>
CNC(C)C(=O)NC(C(=O)N1Cc2cc([101O:1][101CH2:1]C3CCN(C(=O)c4ccc([100NH:0][100C:0](=O)N5CCCC(n6nc(-c7ccc(Oc8ccc(F)cc8F)cc7)c(C(N)=O)c6N)C5)c(C)c4)C3=O)ccc2CC1C(=O)NC1CCCc2ccccc21)C(C)(C)C

> <Shape>
0.194

> <Color>
0.060

> <Negative vol penalty>
0.000

$$$$

  -OEChem-04052300373D

 83 91  0     1  0  0  0  0  0999 V2000
  -32.2591  -26.6382   14.6994 C   0  0  0  0  0  0  0  0  0  0  0  0
  -31.5457  -25.8566   15.6025 C   0  0  0  0  0  0  0  0  0  0  0  0
  -28.1382  -16.9395   22.3305 C   0  0  0  0  0  0  0  0  0  0  0  0
  -26.7089  -18.0048   20.6998 C   0  0  0  0  0  0  0  0  0  0  0  0
  -32.5824  -27.9553   15.0227 C   0  0  0  0  0  0  0  0  0  0  0  0
  -31.1563  -26.3913   16.8300 C   0  0  0  0  0  0  0  0  0  0  0  0
  -26.3584  -25.2724   18.0021 C   0  0  0  0  0  0  0  0  0  0  0  0
  -28.7610  -18.1618   22.5831 C   0  0  0  0  0  0  0  0  0  0  0  0
  -27.3316  -19.2271   20.9524 C   0  0  0  0  0  0  0  0  0  0  0  0
  -26.1040  -23.9906   18.4879 C   0  0  0  0  0  0  0  0  0  0  0  0
  -30.2131  -20.7777   20.1020 C   0  0  0  0  0  0  0  0  0  0  0  0
  -30.5736  -21.5603   19.0052 C   0  0  0  0  0  0  0  0  0  0  0  0
  -22.3035  -18.2335   21.1003 C   0  0  0  0  0  0  0  0  0  0  0  0
  -21.4229  -17.1159   21.0245 C   0  0  0  0  0  0  0  0  0  0  0  0
  -26.0625  -24.8584   20.7383 C   0  0  0  0  0  0  0  0  0  0  0  0
  -29.1505  -23.3403   19.8074 C   0  0  0  0  0  0  0  0  0  0  0  0
  -27.1122  -16.8610   21.3888 C   0  0  0  0  0  0  0  0  0  0  0  0
  -27.0736  -14.4178   20.6559 C   0  0  0  0  0  0  0  0  0  0  0  0
  -32.1884  -28.5095   16.2508 C   0  0  0  0  0  0  0  0  0  0  0  0
  -26.4778  -26.3568   18.8831 C   0  0  0  0  0  0  0  0  0  0  0  0
  -31.4758  -27.7167   17.1706 C   0  0  0  0  0  0  0  0  0  0  0  0
  -26.3159  -26.1534   20.2609 C   0  0  0  0  0  0  0  0  0  0  0  0
  -28.3577  -19.3056   21.8941 C   0  0  0  0  0  0  0  0  0  0  0  0
  -25.9589  -23.7829   19.8564 C   0  0  0  0  0  0  0  0  0  0  0  0
  -29.3213  -21.2764   21.0516 C   0  0  0  0  0  0  0  0  0  0  0  0
  -30.0423  -22.8416   18.8579 C   0  0  0  0  0  0  0  0  0  0  0  0
  -28.7900  -22.5576   20.9043 C   0  0  0  0  0  0  0  0  0  0  0  0
  -26.4689  -15.5986   21.1270 C   0  0  0  0  0  0  0  0  0  0  0  0
  -26.0434  -13.5130   20.5751 C   0  0  0  0  0  0  0  0  0  0  0  0
  -22.6629  -18.6946   19.8530 C   0  0  0  0  0  0  0  0  0  0  0  0
  -21.1427  -16.7654   19.7220 C   0  0  0  0  0  0  0  0  0  0  0  0
  -28.4441  -14.1618   20.3214 C   0  0  0  0  0  0  0  0  0  0  0  0
  -28.7946  -28.4052   19.6180 C   0  0  0  0  0  0  0  0  0  0  0  0
  -26.4627  -29.8062   21.3849 C   0  0  0  0  0  0  0  0  0  0  0  0
  -19.6430  -15.8070   17.9680 C   0  0  0  0  0  0  0  0  0  0  0  0
  -24.1958  -20.6397   20.3010 C   0  0  0  0  0  0  0  0  0  0  0  0
  -23.4956  -29.4876   23.0406 C   0  0  0  0  0  0  0  0  0  0  0  0
  -20.0515  -14.5710   19.9519 C   0  0  0  0  0  0  0  0  0  0  0  0
  -32.6020  -29.9231   16.5754 C   0  0  0  0  0  0  0  0  0  0  0  0
  -26.7259  -27.7378   18.3410 C   0  0  0  0  0  0  0  0  0  0  0  0
  -26.4148  -27.2875   21.2470 C   0  0  0  0  0  0  0  0  0  0  0  0
  -31.8274  -30.5319   17.7415 C   0  0  0  0  0  0  0  0  0  0  0  0
  -21.7935  -12.9248   22.8426 C   0  0  0  0  0  0  0  0  0  0  0  0
  -31.7555  -29.5489   18.9057 C   0  0  0  0  0  0  0  0  0  0  0  0
  -23.2685  -12.9426   22.4391 C   0  0  0  0  0  0  0  0  0  0  0  0
  -20.8621  -12.9612   21.6400 C   0  0  0  0  0  0  0  0  0  0  0  0
  -22.4507  -14.7046   20.7954 C   0  0  0  0  0  0  0  0  0  0  0  0
  -31.0142  -28.2687   18.5019 C   0  0  1  0  0  0  0  0  0  0  0  0
  -27.3388  -28.6825   19.3702 C   0  0  1  0  0  0  0  0  0  0  0  0
  -23.5150  -13.6348   21.0858 C   0  0  1  0  0  0  0  0  0  0  0  0
  -19.3208  -14.5213   17.2401 C   0  0  0  0  0  0  0  0  0  0  0  0
  -21.8588  -30.7976   24.4198 C   0  0  0  0  0  0  0  0  0  0  0  0
  -28.3484  -29.6385   23.7778 C   0  0  0  0  0  0  0  0  0  0  0  0
  -26.3810  -30.0558   25.2689 C   0  0  0  0  0  0  0  0  0  0  0  0
  -27.0706  -31.7814   23.6047 C   0  0  0  0  0  0  0  0  0  0  0  0
  -21.3204  -29.0541   21.0811 C   0  0  0  0  0  0  0  0  0  0  0  0
  -24.9849  -21.6455   19.4837 C   0  0  0  0  0  0  0  0  0  1  0  0
  -25.9588  -29.6580   22.8002 C   0  0  1  0  0  0  0  0  0  0  0  0
  -22.2354  -30.3337   23.0213 C   0  0  2  0  0  0  0  0  0  0  0  0
  -26.9397  -30.2615   23.8447 C   0  0  0  0  0  0  0  0  0  0  0  0
  -25.1562  -15.4596   21.3310 N   0  0  0  0  0  0  0  0  0  0  0  0
  -24.9276  -14.1809   20.9864 N   0  0  0  0  0  0  0  0  0  0  0  0
  -26.6648  -28.6180   20.6685 N   0  0  0  0  0  0  0  0  0  0  0  0
  -21.0911  -14.1373   20.7986 N   0  0  0  0  0  0  0  0  0  0  0  0
  -25.9922  -12.2193   20.1931 N   0  0  0  0  0  0  0  0  0  0  0  0
  -28.8651  -14.3940   19.0049 N   0  0  0  0  0  0  0  0  0  0  0  0
  -23.5047  -19.7654   19.4692 N   0  0  0  0  0  0  0  0  0  0  0  0
  -29.5849  -28.4954   18.4881 N   0  0  0  0  0  0  0  0  0  0  0  0
  -24.6248  -30.2482   22.8225 N   0  0  0  0  0  0  0  0  0  0  0  0
  -20.3136  -15.7173   19.1863 N   0  0  0  0  0  0  0  0  0  0  0  0
  -21.0957  -29.5528   22.4623 N   0  3  0  0  0  0  0  0  0  0  0  0
  -29.2669  -13.7239   21.1609 O   0  0  0  0  0  0  0  0  0  0  0  0
  -29.1732  -28.1314   20.7509 O   0  0  0  0  0  0  0  0  0  0  0  0
  -26.6626  -30.9350   20.9292 O   0  0  0  0  0  0  0  0  0  0  0  0
  -19.3256  -16.8842   17.4524 O   0  0  0  0  0  0  0  0  0  0  0  0
  -24.2116  -20.6546   21.5275 O   0  0  0  0  0  0  0  0  0  0  0  0
  -23.4802  -28.2739   23.2339 O   0  0  0  0  0  0  0  0  0  0  0  0
  -18.9570  -13.9982   19.8925 O   0  0  0  0  0  0  0  0  0  0  0  0
  -28.9650  -20.4985   22.1405 O   0  0  0  0  0  0  0  0  0  0  0  0
  -25.7111  -22.5327   20.3334 O   0  0  0  0  0  0  0  0  0  1  0  0
  -30.3898  -23.5936   17.8053 F   0  0  0  0  0  0  0  0  0  0  0  0
  -27.9337  -23.0426   21.8139 F   0  0  0  0  0  0  0  0  0  0  0  0
  -21.9399  -17.7816   18.5976 S   0  0  0  0  0  0  0  0  0  0  0  0
  1  2  1  0  0  0  0
  1  5  2  0  0  0  0
  2  6  2  0  0  0  0
  3  8  2  0  0  0  0
  3 17  1  0  0  0  0
  4  9  1  0  0  0  0
  4 17  2  0  0  0  0
  5 19  1  0  0  0  0
  6 21  1  0  0  0  0
  7 10  2  0  0  0  0
  7 20  1  0  0  0  0
  8 23  1  0  0  0  0
  9 23  2  0  0  0  0
 10 24  1  0  0  0  0
 11 12  2  0  0  0  0
 11 25  1  0  0  0  0
 12 26  1  0  0  0  0
 13 14  1  0  0  0  0
 13 30  2  0  0  0  0
 14 31  2  0  0  0  0
 15 22  1  0  0  0  0
 15 24  2  0  0  0  0
 16 26  2  0  0  0  0
 16 27  1  0  0  0  0
 17 28  1  0  0  0  0
 18 28  1  0  0  0  0
 18 29  2  0  0  0  0
 18 32  1  0  0  0  0
 19 21  2  0  0  0  0
 19 39  1  0  0  0  0
 20 22  2  0  0  0  0
 20 40  1  0  0  0  0
 21 48  1  0  0  0  0
 22 41  1  0  0  0  0
 23 79  1  0  0  0  0
 24 80  1  0  0  0  0
 25 27  2  0  0  0  0
 25 79  1  0  0  0  0
 26 81  1  0  0  0  0
 27 82  1  0  0  0  0
 28 61  2  0  0  0  0
 29 62  1  0  0  0  0
 29 65  1  0  0  0  0
 30 67  1  0  0  0  0
 30 83  1  0  0  0  0
 31 70  1  0  0  0  0
 31 83  1  0  0  0  0
 32 66  1  0  0  0  0
 32 72  2  0  0  0  0
 33 49  1  0  0  0  0
 33 68  1  0  0  0  0
 33 73  2  0  0  0  0
 34 58  1  0  0  0  0
 34 63  1  0  0  0  0
 34 74  2  0  0  0  0
 35 51  1  0  0  0  0
 35 70  1  0  0  0  0
 35 75  2  0  0  0  0
 36 57  1  0  0  0  0
 36 67  1  0  0  0  0
 36 76  2  0  0  0  0
 37 59  1  0  0  0  0
 37 69  1  0  0  0  0
 37 77  2  0  0  0  0
 38 64  1  0  0  0  0
 38 70  1  0  0  0  0
 38 78  2  0  0  0  0
 39 42  1  0  0  0  0
 40 49  1  0  0  0  0
 41 63  1  0  0  0  0
 42 44  1  0  0  0  0
 43 45  1  0  0  0  0
 43 46  1  0  0  0  0
 44 48  1  0  0  0  0
 45 50  1  0  0  0  0
 46 64  1  0  0  0  0
 47 50  1  0  0  0  0
 47 64  1  0  0  0  0
 48 68  1  0  0  0  0
 49 63  1  0  0  0  0
 50 62  1  0  0  0  0
 52 59  1  0  0  0  0
 53 60  1  0  0  0  0
 54 60  1  0  0  0  0
 55 60  1  0  0  0  0
 56 71  1  0  0  0  0
 57 80  1  0  0  0  0
 58 60  1  0  0  0  0
 58 69  1  0  0  0  0
 59 71  1  0  0  0  0
 61 62  1  0  0  0  0
M  CHG  1  71   1
M  ISO  4  38 100  57 101  70 100  80 101
M  END
> <Batch ID>
0093

> <Smiles>
CNC(C)C(=O)NC(C(=O)N1Cc2cc([101O:1][101CH2:1]C(=O)Nc3ccc([100N:0](C(C)=O)[100C:0](=O)N4CCCC(n5nc(-c6ccc(Oc7ccc(F)cc7F)cc6)c(C(N)=O)c5N)C4)s3)ccc2CC1C(=O)NC1CCCc2ccccc21)C(C)(C)C

> <Shape>
0.226

> <Color>
0.058

> <Negative vol penalty>
0.000

$$$$

  -OEChem-04052300373D

 86 94  0     1  0  0  0  0  0999 V2000
  -26.9212  -26.7645   16.8433 C   0  0  0  0  0  0  0  0  0  0  0  0
  -26.1641  -25.7576   17.4315 C   0  0  0  0  0  0  0  0  0  0  0  0
  -30.3358  -20.3174   20.5598 C   0  0  0  0  0  0  0  0  0  0  0  0
  -27.9506  -20.0047   20.3360 C   0  0  0  0  0  0  0  0  0  0  0  0
  -27.1675  -27.9445   17.5419 C   0  0  0  0  0  0  0  0  0  0  0  0
  -25.6431  -25.9352   18.7136 C   0  0  0  0  0  0  0  0  0  0  0  0
  -22.5704  -22.4717   20.3769 C   0  0  0  0  0  0  0  0  0  0  0  0
  -30.2441  -21.5193   19.8580 C   0  0  0  0  0  0  0  0  0  0  0  0
  -27.8589  -21.2067   19.6343 C   0  0  0  0  0  0  0  0  0  0  0  0
  -23.0002  -21.1990   20.7500 C   0  0  0  0  0  0  0  0  0  0  0  0
  -29.3131  -24.7079   20.4898 C   0  0  0  0  0  0  0  0  0  0  0  0
  -30.0044  -25.8085   20.9961 C   0  0  0  0  0  0  0  0  0  0  0  0
  -21.5019  -13.9083   21.7114 C   0  0  0  0  0  0  0  0  0  0  0  0
  -22.8093  -21.8220   23.0726 C   0  0  0  0  0  0  0  0  0  0  0  0
  -23.2383  -12.1617   20.4010 C   0  0  0  0  0  0  0  0  0  0  0  0
  -31.2765  -25.9520   18.9471 C   0  0  0  0  0  0  0  0  0  0  0  0
  -29.1890  -19.5600   20.7988 C   0  0  0  0  0  0  0  0  0  0  0  0
  -22.8814  -14.0683   21.8415 C   0  0  0  0  0  0  0  0  0  0  0  0
  -29.7520  -18.1341   22.8378 C   0  0  0  0  0  0  0  0  0  0  0  0
  -26.6593  -28.1308   18.8380 C   0  0  0  0  0  0  0  0  0  0  0  0
  -22.2668  -23.4343   21.3504 C   0  0  0  0  0  0  0  0  0  0  0  0
  -25.8605  -27.1287   19.4255 C   0  0  0  0  0  0  0  0  0  0  0  0
  -22.3734  -23.1054   22.7093 C   0  0  0  0  0  0  0  0  0  0  0  0
  -20.9905  -12.8751   20.9261 C   0  0  0  0  0  0  0  0  0  0  0  0
  -23.7496  -13.1950   21.1863 C   0  0  0  0  0  0  0  0  0  0  0  0
  -21.8587  -12.0018   20.2710 C   0  0  0  0  0  0  0  0  0  0  0  0
  -29.0057  -21.9640   19.3953 C   0  0  0  0  0  0  0  0  0  0  0  0
  -23.1225  -20.8749   22.0979 C   0  0  0  0  0  0  0  0  0  0  0  0
  -29.6036  -24.2292   19.2122 C   0  0  0  0  0  0  0  0  0  0  0  0
  -30.9861  -26.4306   20.2247 C   0  0  0  0  0  0  0  0  0  0  0  0
  -30.5852  -24.8513   18.4408 C   0  0  0  0  0  0  0  0  0  0  0  0
  -29.2832  -18.3181   21.5232 C   0  0  0  0  0  0  0  0  0  0  0  0
  -29.6397  -16.7828   23.0564 C   0  0  0  0  0  0  0  0  0  0  0  0
  -23.3944  -15.1790   22.6892 C   0  0  0  0  0  0  0  0  0  0  0  0
  -30.2449  -19.0985   23.7773 C   0  0  0  0  0  0  0  0  0  0  0  0
  -23.4239  -26.2946   22.1143 C   0  0  0  0  0  0  0  0  0  0  0  0
  -20.9210  -26.3245   24.1776 C   0  0  0  0  0  0  0  0  0  0  0  0
  -18.6519  -24.5480   26.0058 C   0  0  0  0  0  0  0  0  0  0  0  0
  -26.1374  -12.5457   20.7141 C   0  0  0  0  0  0  0  0  0  0  0  0
  -26.9498  -29.4308   19.5457 C   0  0  0  0  0  0  0  0  0  0  0  0
  -21.7788  -24.7941   20.9318 C   0  0  0  0  0  0  0  0  0  0  0  0
  -22.0403  -24.0963   23.7935 C   0  0  0  0  0  0  0  0  0  0  0  0
  -26.7353  -29.3478   21.0535 C   0  0  0  0  0  0  0  0  0  0  0  0
  -29.6975  -12.5958   20.7327 C   0  0  0  0  0  0  0  0  0  0  0  0
  -25.3782  -28.7283   21.3520 C   0  0  0  0  0  0  0  0  0  0  0  0
  -30.0380  -14.0508   21.0632 C   0  0  0  0  0  0  0  0  0  0  0  0
  -28.4627  -12.4910   19.8394 C   0  0  0  0  0  0  0  0  0  0  0  0
  -27.6149  -14.6506   20.6680 C   0  0  0  0  0  0  0  0  0  0  0  0
  -25.3092  -27.2872   20.8310 C   0  0  1  0  0  0  0  0  0  0  0  0
  -21.9898  -25.8603   22.0024 C   0  0  1  0  0  0  0  0  0  0  0  0
  -28.8133  -14.8038   21.6188 C   0  0  2  0  0  0  0  0  0  0  0  0
  -23.0092  -15.1994   24.1553 C   0  0  0  0  0  0  0  0  0  0  0  0
  -16.7580  -24.8486   27.6245 C   0  0  0  0  0  0  0  0  0  0  0  0
  -26.1228  -18.7855   23.4283 C   0  0  0  0  0  0  0  0  0  0  0  0
  -22.9201  -26.9450   26.3977 C   0  0  0  0  0  0  0  0  0  0  0  0
  -21.1657  -26.2984   28.0627 C   0  0  0  0  0  0  0  0  0  0  0  0
  -20.7790  -28.2303   26.5326 C   0  0  0  0  0  0  0  0  0  0  0  0
  -16.7281  -23.2390   24.1771 C   0  0  0  0  0  0  0  0  0  0  0  0
  -24.4299  -18.9585   21.5743 C   0  0  0  0  0  0  0  0  0  1  0  0
  -20.7061  -25.8798   25.6041 C   0  0  1  0  0  0  0  0  0  0  0  0
  -17.1491  -24.6942   26.1630 C   0  0  2  0  0  0  0  0  0  0  0  0
  -25.3232  -18.0257   22.3828 C   0  0  2  0  0  0  0  0  0  0  0  0
  -21.4009  -26.8201   26.6291 C   0  0  0  0  0  0  0  0  0  0  0  0
  -28.9016  -17.1750   20.9471 N   0  0  0  0  0  0  0  0  0  0  0  0
  -24.1403  -16.0888   22.1361 N   0  0  0  0  0  0  0  0  0  0  0  0
  -29.1306  -16.2598   21.9043 N   0  0  0  0  0  0  0  0  0  0  0  0
  -21.5735  -25.4146   23.3336 N   0  0  0  0  0  0  0  0  0  0  0  0
  -27.3417  -13.2244   20.4313 N   0  0  0  0  0  0  0  0  0  0  0  0
  -19.5899  -12.7303   20.8077 N   0  0  0  0  0  0  0  0  0  0  0  0
  -21.3618  -10.9493   19.4699 N   0  0  0  0  0  0  0  0  0  0  0  0
  -29.9278  -16.0028   24.1199 N   0  0  0  0  0  0  0  0  0  0  0  0
  -31.6172  -19.3834   23.7845 N   0  0  0  0  0  0  0  0  0  0  0  0
  -25.1542  -13.3382   21.3056 N   0  0  0  0  0  0  0  0  0  0  0  0
  -23.9489  -26.8089   20.9442 N   0  0  0  0  0  0  0  0  0  0  0  0
  -19.2628  -25.7639   25.7825 N   0  0  0  0  0  0  0  0  0  0  0  0
  -16.4520  -23.4970   25.6138 N   0  3  0  0  0  0  0  0  0  0  0  0
  -29.4933  -19.6781   24.5974 O   0  0  0  0  0  0  0  0  0  0  0  0
  -24.0101  -26.1734   23.1836 O   0  0  0  0  0  0  0  0  0  0  0  0
  -20.5182  -27.4353   23.8232 O   0  0  0  0  0  0  0  0  0  0  0  0
  -19.2269  -23.4642   26.0779 O   0  0  0  0  0  0  0  0  0  0  0  0
  -25.9988  -11.3432   20.4758 O   0  0  0  0  0  0  0  0  0  0  0  0
  -28.9158  -23.1369   18.7106 O   0  0  0  0  0  0  0  0  0  0  0  0
  -23.5424  -19.6335   22.4648 O   0  0  0  0  0  0  0  0  0  1  0  0
  -24.5111  -17.0690   23.0616 O   0  0  0  0  0  0  0  0  0  0  0  0
  -31.6488  -27.4884   20.7104 F   0  0  0  0  0  0  0  0  0  0  0  0
  -30.8678  -24.3968   17.2123 F   0  0  0  0  0  0  0  0  0  0  0  0
  1  2  1  0  0  0  0
  1  5  2  0  0  0  0
  2  6  2  0  0  0  0
  3  8  2  0  0  0  0
  3 17  1  0  0  0  0
  4  9  1  0  0  0  0
  4 17  2  0  0  0  0
  5 20  1  0  0  0  0
  6 22  1  0  0  0  0
  7 10  2  0  0  0  0
  7 21  1  0  0  0  0
  8 27  1  0  0  0  0
  9 27  2  0  0  0  0
 10 28  1  0  0  0  0
 11 12  2  0  0  0  0
 11 29  1  0  0  0  0
 12 30  1  0  0  0  0
 13 18  1  0  0  0  0
 13 24  2  0  0  0  0
 14 23  1  0  0  0  0
 14 28  2  0  0  0  0
 15 25  1  0  0  0  0
 15 26  2  0  0  0  0
 16 30  2  0  0  0  0
 16 31  1  0  0  0  0
 17 32  1  0  0  0  0
 18 25  2  0  0  0  0
 18 34  1  0  0  0  0
 19 32  1  0  0  0  0
 19 33  2  0  0  0  0
 19 35  1  0  0  0  0
 20 22  2  0  0  0  0
 20 40  1  0  0  0  0
 21 23  2  0  0  0  0
 21 41  1  0  0  0  0
 22 49  1  0  0  0  0
 23 42  1  0  0  0  0
 24 26  1  0  0  0  0
 24 69  1  0  0  0  0
 25 73  1  0  0  0  0
 26 70  1  0  0  0  0
 27 82  1  0  0  0  0
 28 83  1  0  0  0  0
 29 31  2  0  0  0  0
 29 82  1  0  0  0  0
 30 85  1  0  0  0  0
 31 86  1  0  0  0  0
 32 64  2  0  0  0  0
 33 66  1  0  0  0  0
 33 71  1  0  0  0  0
 34 52  1  0  0  0  0
 34 65  2  0  0  0  0
 35 72  1  0  0  0  0
 35 77  2  0  0  0  0
 36 50  1  0  0  0  0
 36 74  1  0  0  0  0
 36 78  2  0  0  0  0
 37 60  1  0  0  0  0
 37 67  1  0  0  0  0
 37 79  2  0  0  0  0
 38 61  1  0  0  0  0
 38 75  1  0  0  0  0
 38 80  2  0  0  0  0
 39 68  1  0  0  0  0
 39 73  1  0  0  0  0
 39 81  2  0  0  0  0
 40 43  1  0  0  0  0
 41 50  1  0  0  0  0
 42 67  1  0  0  0  0
 43 45  1  0  0  0  0
 44 46  1  0  0  0  0
 44 47  1  0  0  0  0
 45 49  1  0  0  0  0
 46 51  1  0  0  0  0
 47 68  1  0  0  0  0
 48 51  1  0  0  0  0
 48 68  1  0  0  0  0
 49 74  1  0  0  0  0
 50 67  1  0  0  0  0
 51 66  1  0  0  0  0
 53 61  1  0  0  0  0
 54 62  1  0  0  0  0
 55 63  1  0  0  0  0
 56 63  1  0  0  0  0
 57 63  1  0  0  0  0
 58 76  1  0  0  0  0
 59 62  1  0  0  0  0
 59 83  1  0  0  0  0
 60 63  1  0  0  0  0
 60 75  1  0  0  0  0
 61 76  1  0  0  0  0
 62 84  1  0  0  0  0
 64 66  1  0  0  0  0
 65 84  1  0  0  0  0
M  CHG  1  76   1
M  ISO  4  39 100  59 101  73 100  83 101
M  END
> <Batch ID>
0093

> <Smiles>
CNC(C)C(=O)NC(C(=O)N1Cc2cc([101O:1][101CH2:1]C(C)ON=C(C)c3cc(N)c(N)cc3[100NH:0][100C:0](=O)N3CCCC(n4nc(-c5ccc(Oc6ccc(F)cc6F)cc5)c(C(N)=O)c4N)C3)ccc2CC1C(=O)NC1CCCc2ccccc21)C(C)(C)C

> <Shape>
0.215

> <Color>
0.053

> <Negative vol penalty>
0.000

$$$$

  -OEChem-04052300373D

 86 95  0     1  0  0  0  0  0999 V2000
  -32.0095  -24.1002   18.3081 C   0  0  0  0  0  0  0  0  0  0  0  0
  -30.6676  -24.2256   17.9633 C   0  0  0  0  0  0  0  0  0  0  0  0
  -26.8891  -16.3490   21.7742 C   0  0  0  0  0  0  0  0  0  0  0  0
  -26.9102  -15.7830   19.4256 C   0  0  0  0  0  0  0  0  0  0  0  0
  -32.4425  -24.4932   19.5737 C   0  0  0  0  0  0  0  0  0  0  0  0
  -29.7576  -24.7431   18.8844 C   0  0  0  0  0  0  0  0  0  0  0  0
  -24.8665  -28.2229   17.6705 C   0  0  0  0  0  0  0  0  0  0  0  0
  -17.7311  -20.6303   19.5156 C   0  0  0  0  0  0  0  0  0  0  0  0
  -18.8318  -21.3129   21.5551 C   0  0  0  0  0  0  0  0  0  0  0  0
  -17.7868  -21.9427   19.0463 C   0  0  0  0  0  0  0  0  0  0  0  0
  -18.8876  -22.6252   21.0858 C   0  0  0  0  0  0  0  0  0  0  0  0
  -28.1360  -16.9591   21.6385 C   0  0  0  0  0  0  0  0  0  0  0  0
  -28.1572  -16.3931   19.2898 C   0  0  0  0  0  0  0  0  0  0  0  0
  -23.5112  -27.9232   17.5400 C   0  0  0  0  0  0  0  0  0  0  0  0
  -29.3624  -19.8903   20.4823 C   0  0  0  0  0  0  0  0  0  0  0  0
  -29.5423  -21.1376   21.0801 C   0  0  0  0  0  0  0  0  0  0  0  0
  -23.1574  -28.5481   19.8429 C   0  0  0  0  0  0  0  0  0  0  0  0
  -31.3300  -20.2326   22.4301 C   0  0  0  0  0  0  0  0  0  0  0  0
  -26.2761  -15.7609   20.6678 C   0  0  0  0  0  0  0  0  0  0  0  0
  -24.6591  -14.0455   21.6425 C   0  0  0  0  0  0  0  0  0  0  0  0
  -31.5391  -25.0248   20.5075 C   0  0  0  0  0  0  0  0  0  0  0  0
  -25.3803  -28.6779   18.8933 C   0  0  0  0  0  0  0  0  0  0  0  0
  -30.1787  -25.1424   20.1642 C   0  0  0  0  0  0  0  0  0  0  0  0
  -24.5192  -28.8554   19.9856 C   0  0  0  0  0  0  0  0  0  0  0  0
  -18.2535  -20.3154   20.7700 C   0  0  0  0  0  0  0  0  0  0  0  0
  -18.3651  -22.9401   19.8314 C   0  0  0  0  0  0  0  0  0  0  0  0
  -28.7701  -16.9812   20.3963 C   0  0  0  0  0  0  0  0  0  0  0  0
  -22.6569  -28.0830   18.6271 C   0  0  0  0  0  0  0  0  0  0  0  0
  -30.1662  -18.8141   20.8584 C   0  0  0  0  0  0  0  0  0  0  0  0
  -30.5261  -21.3088   22.0540 C   0  0  0  0  0  0  0  0  0  0  0  0
  -31.1500  -18.9853   21.8323 C   0  0  0  0  0  0  0  0  0  0  0  0
  -24.9883  -15.1300   20.8075 C   0  0  0  0  0  0  0  0  0  0  0  0
  -23.3231  -13.8267   21.4105 C   0  0  0  0  0  0  0  0  0  0  0  0
  -19.4264  -25.1694   19.7015 C   0  0  0  0  0  0  0  0  0  0  0  0
  -19.5145  -26.4439   19.2881 C   0  0  0  0  0  0  0  0  0  0  0  0
  -17.2316  -26.1627   18.3375 C   0  0  0  0  0  0  0  0  0  0  0  0
  -25.4868  -13.3022   22.5469 C   0  0  0  0  0  0  0  0  0  0  0  0
  -27.5300  -27.5904   20.9670 C   0  0  0  0  0  0  0  0  0  0  0  0
  -27.0126  -30.4501   22.4080 C   0  0  0  0  0  0  0  0  0  0  0  0
  -24.1730  -32.5463   23.1564 C   0  0  0  0  0  0  0  0  0  0  0  0
  -18.8904  -17.3541   19.4715 C   0  0  0  0  0  0  0  0  0  0  0  0
  -32.0456  -25.3919   21.8799 C   0  0  0  0  0  0  0  0  0  0  0  0
  -26.8398  -29.0224   19.0102 C   0  0  0  0  0  0  0  0  0  0  0  0
  -25.0173  -29.3602   21.3143 C   0  0  0  0  0  0  0  0  0  0  0  0
  -18.4646  -27.0437   18.4009 C   0  0  0  0  0  0  0  0  0  0  0  0
  -17.4263  -24.6598   18.3421 C   0  0  0  0  0  0  0  0  0  0  0  0
  -31.0845  -26.2794   22.6665 C   0  0  0  0  0  0  0  0  0  0  0  0
  -19.9865  -14.2962   18.0138 C   0  0  0  0  0  0  0  0  0  0  0  0
  -29.6621  -25.7356   22.5782 C   0  0  0  0  0  0  0  0  0  0  0  0
  -21.3630  -14.0653   18.6398 C   0  0  0  0  0  0  0  0  0  0  0  0
  -19.7266  -15.7783   17.7528 C   0  0  0  0  0  0  0  0  0  0  0  0
  -21.2829  -16.4235   19.5515 C   0  0  0  0  0  0  0  0  0  0  0  0
  -29.1657  -25.7223   21.1273 C   0  0  1  0  0  0  0  0  0  0  0  0
  -27.3484  -28.9888   20.4481 C   0  0  1  0  0  0  0  0  0  0  0  0
  -21.5681  -14.9491   19.8849 C   0  0  2  0  0  0  0  0  0  0  0  0
  -24.0169  -35.0312   23.4697 C   0  0  0  0  0  0  0  0  0  0  0  0
  -27.3518  -29.8063   25.3711 C   0  0  0  0  0  0  0  0  0  0  0  0
  -25.7007  -31.6176   25.8822 C   0  0  0  0  0  0  0  0  0  0  0  0
  -27.8542  -32.1774   24.7546 C   0  0  0  0  0  0  0  0  0  0  0  0
  -22.0817  -32.7939   21.0769 C   0  0  0  0  0  0  0  0  0  0  0  0
  -18.1939  -18.9127   21.2728 C   0  0  0  0  0  0  0  0  0  0  0  0
  -20.6563  -27.3351   19.6731 C   0  0  0  0  0  0  0  0  0  1  0  0
  -26.0565  -30.9603   23.4589 C   0  0  1  0  0  0  0  0  0  0  0  0
  -23.8251  -33.8721   22.5040 C   0  0  2  0  0  0  0  0  0  0  0  0
  -26.7338  -31.1189   24.8494 C   0  0  0  0  0  0  0  0  0  0  0  0
  -23.9455  -15.5696   20.0980 N   0  0  0  0  0  0  0  0  0  0  0  0
  -22.9480  -14.7571   20.4864 N   0  0  0  0  0  0  0  0  0  0  0  0
  -18.4239  -24.2779   19.3525 N   0  0  0  0  0  0  0  0  0  0  0  0
  -26.4535  -29.6773   21.3804 N   0  0  0  0  0  0  0  0  0  0  0  0
  -19.9369  -16.5605   18.9734 N   0  0  0  0  0  0  0  0  0  0  0  0
  -22.4444  -12.9312   21.9087 N   0  0  0  0  0  0  0  0  0  0  0  0
  -26.1584  -12.1716   22.0623 N   0  0  0  0  0  0  0  0  0  0  0  0
  -28.7779  -27.0539   20.7137 N   0  0  0  0  0  0  0  0  0  0  0  0
  -25.4863  -32.1937   22.9278 N   0  0  0  0  0  0  0  0  0  0  0  0
  -19.1712  -18.0583   20.6359 N   0  0  0  0  0  0  0  0  0  0  0  0
  -22.4059  -33.8691   22.0494 N   0  3  0  0  0  0  0  0  0  0  0  0
  -16.1144  -26.6550   18.1688 O   0  0  0  0  0  0  0  0  0  0  0  0
  -25.6138  -13.6216   23.7534 O   0  0  0  0  0  0  0  0  0  0  0  0
  -26.6067  -27.0395   21.5550 O   0  0  0  0  0  0  0  0  0  0  0  0
  -28.2104  -30.7331   22.4916 O   0  0  0  0  0  0  0  0  0  0  0  0
  -23.3620  -31.8909   23.8069 O   0  0  0  0  0  0  0  0  0  0  0  0
  -17.7857  -17.4252   18.9224 O   0  0  0  0  0  0  0  0  0  0  0  0
  -29.9868  -17.5766   20.2634 O   0  0  0  0  0  0  0  0  0  0  0  0
  -21.3338  -27.7905   18.5026 O   0  0  0  0  0  0  0  0  0  1  0  0
  -30.6998  -22.5070   22.6269 F   0  0  0  0  0  0  0  0  0  0  0  0
  -31.9260  -17.9554   22.1969 F   0  0  0  0  0  0  0  0  0  0  0  0
  1  2  1  0  0  0  0
  1  5  2  0  0  0  0
  2  6  2  0  0  0  0
  3 12  2  0  0  0  0
  3 19  1  0  0  0  0
  4 13  1  0  0  0  0
  4 19  2  0  0  0  0
  5 21  1  0  0  0  0
  6 23  1  0  0  0  0
  7 14  2  0  0  0  0
  7 22  1  0  0  0  0
  8 10  2  0  0  0  0
  8 25  1  0  0  0  0
  9 11  1  0  0  0  0
  9 25  2  0  0  0  0
 10 26  1  0  0  0  0
 11 26  2  0  0  0  0
 12 27  1  0  0  0  0
 13 27  2  0  0  0  0
 14 28  1  0  0  0  0
 15 16  2  0  0  0  0
 15 29  1  0  0  0  0
 16 30  1  0  0  0  0
 17 24  1  0  0  0  0
 17 28  2  0  0  0  0
 18 30  2  0  0  0  0
 18 31  1  0  0  0  0
 19 32  1  0  0  0  0
 20 32  1  0  0  0  0
 20 33  2  0  0  0  0
 20 37  1  0  0  0  0
 21 23  2  0  0  0  0
 21 42  1  0  0  0  0
 22 24  2  0  0  0  0
 22 43  1  0  0  0  0
 23 53  1  0  0  0  0
 24 44  1  0  0  0  0
 25 61  1  0  0  0  0
 26 68  1  0  0  0  0
 27 83  1  0  0  0  0
 28 84  1  0  0  0  0
 29 31  2  0  0  0  0
 29 83  1  0  0  0  0
 30 85  1  0  0  0  0
 31 86  1  0  0  0  0
 32 66  2  0  0  0  0
 33 67  1  0  0  0  0
 33 71  1  0  0  0  0
 34 35  2  0  0  0  0
 34 68  1  0  0  0  0
 35 45  1  0  0  0  0
 35 62  1  0  0  0  0
 36 45  1  0  0  0  0
 36 46  1  0  0  0  0
 36 77  2  0  0  0  0
 37 72  1  0  0  0  0
 37 78  2  0  0  0  0
 38 54  1  0  0  0  0
 38 73  1  0  0  0  0
 38 79  2  0  0  0  0
 39 63  1  0  0  0  0
 39 69  1  0  0  0  0
 39 80  2  0  0  0  0
 40 64  1  0  0  0  0
 40 74  1  0  0  0  0
 40 81  2  0  0  0  0
 41 70  1  0  0  0  0
 41 75  1  0  0  0  0
 41 82  2  0  0  0  0
 42 47  1  0  0  0  0
 43 54  1  0  0  0  0
 44 69  1  0  0  0  0
 46 68  1  0  0  0  0
 47 49  1  0  0  0  0
 48 50  1  0  0  0  0
 48 51  1  0  0  0  0
 49 53  1  0  0  0  0
 50 55  1  0  0  0  0
 51 70  1  0  0  0  0
 52 55  1  0  0  0  0
 52 70  1  0  0  0  0
 53 73  1  0  0  0  0
 54 69  1  0  0  0  0
 55 67  1  0  0  0  0
 56 64  1  0  0  0  0
 57 65  1  0  0  0  0
 58 65  1  0  0  0  0
 59 65  1  0  0  0  0
 60 76  1  0  0  0  0
 61 75  1  0  0  0  0
 62 84  1  0  0  0  0
 63 65  1  0  0  0  0
 63 74  1  0  0  0  0
 64 76  1  0  0  0  0
 66 67  1  0  0  0  0
M  CHG  1  76   1
M  ISO  4  41 100  62 101  75 100  84 101
M  END
> <Batch ID>
0093

> <Smiles>
CNC(C)C(=O)NC(C(=O)N1Cc2cc([101O:1][101CH2:1]C3=CN(c4ccc(C[100NH:0][100C:0](=O)N5CCCC(n6nc(-c7ccc(Oc8ccc(F)cc8F)cc7)c(C(N)=O)c6N)C5)cc4)CC(=O)C3)ccc2CC1C(=O)NC1CCCc2ccccc21)C(C)(C)C

> <Shape>
0.219

> <Color>
0.078

> <Negative vol penalty>
0.000

$$$$

  -OEChem-04052300373D

 87 96  0     1  0  0  0  0  0999 V2000
  -16.9738  -28.0781   16.0752 C   0  0  0  0  0  0  0  0  0  0  0  0
  -17.3635  -26.7731   16.3587 C   0  0  0  0  0  0  0  0  0  0  0  0
  -23.2918   -9.7911   19.9106 C   0  0  0  0  0  0  0  0  0  0  0  0
  -23.7103   -9.9419   22.2853 C   0  0  0  0  0  0  0  0  0  0  0  0
  -17.6888  -29.1495   16.6089 C   0  0  0  0  0  0  0  0  0  0  0  0
  -18.4692  -26.5386   17.1753 C   0  0  0  0  0  0  0  0  0  0  0  0
  -20.9408  -21.8810   22.0245 C   0  0  0  0  0  0  0  0  0  0  0  0
  -27.2708  -18.1760   19.2083 C   0  0  0  0  0  0  0  0  0  0  0  0
  -27.6257  -17.3377   18.1514 C   0  0  0  0  0  0  0  0  0  0  0  0
  -22.5580   -8.6225   20.1141 C   0  0  0  0  0  0  0  0  0  0  0  0
  -22.9764   -8.7732   22.4888 C   0  0  0  0  0  0  0  0  0  0  0  0
  -22.0639  -21.0997   22.2928 C   0  0  0  0  0  0  0  0  0  0  0  0
  -19.7231   -7.8759   22.6657 C   0  0  0  0  0  0  0  0  0  0  0  0
  -18.8061   -7.8631   23.7166 C   0  0  0  0  0  0  0  0  0  0  0  0
  -23.1755  -23.0279   23.2233 C   0  0  0  0  0  0  0  0  0  0  0  0
  -29.2265  -17.4599   20.4329 C   0  0  0  0  0  0  0  0  0  0  0  0
  -19.9907   -6.0162   24.7278 C   0  0  0  0  0  0  0  0  0  0  0  0
  -23.8680  -10.4508   20.9962 C   0  0  0  0  0  0  0  0  0  0  0  0
  -24.1401  -12.9788   20.7887 C   0  0  0  0  0  0  0  0  0  0  0  0
  -18.7980  -28.9280   17.4403 C   0  0  0  0  0  0  0  0  0  0  0  0
  -20.9306  -23.2463   22.3442 C   0  0  0  0  0  0  0  0  0  0  0  0
  -19.2006  -27.6080   17.7196 C   0  0  0  0  0  0  0  0  0  0  0  0
  -22.0500  -23.8237   22.9604 C   0  0  0  0  0  0  0  0  0  0  0  0
  -28.0713  -18.2371   20.3491 C   0  0  0  0  0  0  0  0  0  0  0  0
  -28.7809  -16.5605   18.2353 C   0  0  0  0  0  0  0  0  0  0  0  0
  -22.4003   -8.1136   21.4032 C   0  0  0  0  0  0  0  0  0  0  0  0
  -23.1826  -21.6738   22.8896 C   0  0  0  0  0  0  0  0  0  0  0  0
  -20.7740   -6.9588   22.6458 C   0  0  0  0  0  0  0  0  0  0  0  0
  -18.9399   -6.9332   24.7477 C   0  0  0  0  0  0  0  0  0  0  0  0
  -29.5813  -16.6216   19.3761 C   0  0  0  0  0  0  0  0  0  0  0  0
  -20.9078   -6.0290   23.6768 C   0  0  0  0  0  0  0  0  0  0  0  0
  -24.6266  -11.6577   20.7866 C   0  0  0  0  0  0  0  0  0  0  0  0
  -25.2481  -13.7531   20.5451 C   0  0  0  0  0  0  0  0  0  0  0  0
  -26.6104  -20.6050   22.7492 C   0  0  0  0  0  0  0  0  0  0  0  0
  -27.7025  -20.1873   23.4010 C   0  0  0  0  0  0  0  0  0  0  0  0
  -26.5886  -19.8980   21.4427 C   0  0  0  0  0  0  0  0  0  0  0  0
  -22.8060  -13.4627   20.9927 C   0  0  0  0  0  0  0  0  0  0  0  0
  -20.6570  -25.9386   20.6768 C   0  0  0  0  0  0  0  0  0  0  0  0
  -20.5925  -27.2975   23.6216 C   0  0  0  0  0  0  0  0  0  0  0  0
  -21.4068  -27.0849   26.9289 C   0  0  0  0  0  0  0  0  0  0  0  0
  -29.8542  -14.4901   17.3120 C   0  0  0  0  0  0  0  0  0  0  0  0
  -19.5681  -30.1180   17.9557 C   0  0  0  0  0  0  0  0  0  0  0  0
  -19.7013  -24.0694   22.0728 C   0  0  0  0  0  0  0  0  0  0  0  0
  -22.0820  -25.2804   23.3418 C   0  0  0  0  0  0  0  0  0  0  0  0
  -28.4914  -19.1919   22.6177 C   0  0  0  0  0  0  0  0  0  0  0  0
  -20.5021  -29.7832   19.1158 C   0  0  0  0  0  0  0  0  0  0  0  0
  -30.1622  -12.6067   20.4823 C   0  0  0  0  0  0  0  0  0  0  0  0
  -21.3037  -28.5223   18.8090 C   0  0  0  0  0  0  0  0  0  0  0  0
  -28.7152  -12.2299   20.7950 C   0  0  0  0  0  0  0  0  0  0  0  0
  -30.3990  -12.7479   18.9818 C   0  0  0  0  0  0  0  0  0  0  0  0
  -28.0163  -13.3326   18.6324 C   0  0  0  0  0  0  0  0  0  0  0  0
  -20.3795  -27.3130   18.6213 C   0  0  1  0  0  0  0  0  0  0  0  0
  -19.9930  -25.5634   21.9714 C   0  0  1  0  0  0  0  0  0  0  0  0
  -27.7422  -13.2239   20.1398 C   0  0  1  0  0  0  0  0  0  0  0  0
  -28.1818  -20.5920   24.7517 C   0  0  0  0  0  0  0  0  0  0  0  0
  -21.2571  -28.3671   29.0809 C   0  0  0  0  0  0  0  0  0  0  0  0
  -22.8703  -29.1062   22.6995 C   0  0  0  0  0  0  0  0  0  0  0  0
  -23.3026  -29.6687   25.1005 C   0  0  0  0  0  0  0  0  0  0  0  0
  -21.1125  -30.2532   24.0591 C   0  0  0  0  0  0  0  0  0  0  0  0
  -29.0006  -16.2109   15.7817 C   0  0  0  0  0  0  0  0  0  0  0  0
  -19.7730  -24.9743   28.2076 C   0  0  0  0  0  0  0  0  0  0  0  0
  -25.5468  -21.5708   23.1259 C   0  0  0  0  0  0  0  0  0  1  0  0
  -21.6334  -27.8335   24.5746 C   0  0  1  0  0  0  0  0  0  0  0  0
  -20.5916  -27.3340   28.1850 C   0  0  2  0  0  0  0  0  0  0  0  0
  -22.2301  -29.1884   24.0996 C   0  0  0  0  0  0  0  0  0  0  0  0
  -25.9412  -11.5927   20.5596 N   0  0  0  0  0  0  0  0  0  0  0  0
  -26.2902  -12.8826   20.4166 N   0  0  0  0  0  0  0  0  0  0  0  0
  -27.7176  -19.0717   21.4023 N   0  0  0  0  0  0  0  0  0  0  0  0
  -20.8581  -26.0449   23.0502 N   0  0  0  0  0  0  0  0  0  0  0  0
  -29.4279  -13.6505   18.3615 N   0  0  0  0  0  0  0  0  0  0  0  0
  -25.4228  -15.0868   20.4304 N   0  0  0  0  0  0  0  0  0  0  0  0
  -21.7864  -12.5310   21.2307 N   0  0  0  0  0  0  0  0  0  0  0  0
  -19.9254  -26.8202   19.9040 N   0  0  0  0  0  0  0  0  0  0  0  0
  -20.9964  -27.8881   25.8860 N   0  0  0  0  0  0  0  0  0  0  0  0
  -29.1449  -15.6942   17.1409 N   0  0  0  0  0  0  0  0  0  0  0  0
  -20.4352  -26.0708   28.9601 N   0  3  0  0  0  0  0  0  0  0  0  0
  -25.7229  -20.0457   20.5945 O   0  0  0  0  0  0  0  0  0  0  0  0
  -22.5234  -14.6840   20.9483 O   0  0  0  0  0  0  0  0  0  0  0  0
  -21.7527  -25.4646   20.4002 O   0  0  0  0  0  0  0  0  0  0  0  0
  -19.5778  -27.9623   23.3979 O   0  0  0  0  0  0  0  0  0  0  0  0
  -22.3190  -26.2628   26.8790 O   0  0  0  0  0  0  0  0  0  0  0  0
  -30.7681  -14.1650   16.5440 O   0  0  0  0  0  0  0  0  0  0  0  0
  -21.6841   -6.9734   21.6021 O   0  0  0  0  0  0  0  0  0  0  0  0
  -24.2804  -20.9136   23.1519 O   0  0  0  0  0  0  0  0  0  1  0  0
  -18.0600   -6.9220   25.7576 F   0  0  0  0  0  0  0  0  0  0  0  0
  -30.6931  -15.8779   19.4683 F   0  0  0  0  0  0  0  0  0  0  0  0
  -21.9160   -5.1462   23.6638 F   0  0  0  0  0  0  0  0  0  0  0  0
  1  2  1  0  0  0  0
  1  5  2  0  0  0  0
  2  6  2  0  0  0  0
  3 10  2  0  0  0  0
  3 18  1  0  0  0  0
  4 11  1  0  0  0  0
  4 18  2  0  0  0  0
  5 20  1  0  0  0  0
  6 22  1  0  0  0  0
  7 12  2  0  0  0  0
  7 21  1  0  0  0  0
  8  9  2  0  0  0  0
  8 24  1  0  0  0  0
  9 25  1  0  0  0  0
 10 26  1  0  0  0  0
 11 26  2  0  0  0  0
 12 27  1  0  0  0  0
 13 14  2  0  0  0  0
 13 28  1  0  0  0  0
 14 29  1  0  0  0  0
 15 23  1  0  0  0  0
 15 27  2  0  0  0  0
 16 24  2  0  0  0  0
 16 30  1  0  0  0  0
 17 29  2  0  0  0  0
 17 31  1  0  0  0  0
 18 32  1  0  0  0  0
 19 32  1  0  0  0  0
 19 33  2  0  0  0  0
 19 37  1  0  0  0  0
 20 22  2  0  0  0  0
 20 42  1  0  0  0  0
 21 23  2  0  0  0  0
 21 43  1  0  0  0  0
 22 52  1  0  0  0  0
 23 44  1  0  0  0  0
 24 68  1  0  0  0  0
 25 30  2  0  0  0  0
 25 75  1  0  0  0  0
 26 83  1  0  0  0  0
 27 84  1  0  0  0  0
 28 31  2  0  0  0  0
 28 83  1  0  0  0  0
 29 85  1  0  0  0  0
 30 86  1  0  0  0  0
 31 87  1  0  0  0  0
 32 66  2  0  0  0  0
 33 67  1  0  0  0  0
 33 71  1  0  0  0  0
 34 35  2  0  0  0  0
 34 36  1  0  0  0  0
 34 62  1  0  0  0  0
 35 45  1  0  0  0  0
 35 55  1  0  0  0  0
 36 68  1  0  0  0  0
 36 77  2  0  0  0  0
 37 72  1  0  0  0  0
 37 78  2  0  0  0  0
 38 53  1  0  0  0  0
 38 73  1  0  0  0  0
 38 79  2  0  0  0  0
 39 63  1  0  0  0  0
 39 69  1  0  0  0  0
 39 80  2  0  0  0  0
 40 64  1  0  0  0  0
 40 74  1  0  0  0  0
 40 81  2  0  0  0  0
 41 70  1  0  0  0  0
 41 75  1  0  0  0  0
 41 82  2  0  0  0  0
 42 46  1  0  0  0  0
 43 53  1  0  0  0  0
 44 69  1  0  0  0  0
 45 68  1  0  0  0  0
 46 48  1  0  0  0  0
 47 49  1  0  0  0  0
 47 50  1  0  0  0  0
 48 52  1  0  0  0  0
 49 54  1  0  0  0  0
 50 70  1  0  0  0  0
 51 54  1  0  0  0  0
 51 70  1  0  0  0  0
 52 73  1  0  0  0  0
 53 69  1  0  0  0  0
 54 67  1  0  0  0  0
 56 64  1  0  0  0  0
 57 65  1  0  0  0  0
 58 65  1  0  0  0  0
 59 65  1  0  0  0  0
 60 75  1  0  0  0  0
 61 76  1  0  0  0  0
 62 84  1  0  0  0  0
 63 65  1  0  0  0  0
 63 74  1  0  0  0  0
 64 76  1  0  0  0  0
 66 67  1  0  0  0  0
M  CHG  1  76   1
M  ISO  4  41 100  62 101  75 100  84 101
M  END
> <Batch ID>
0093

> <Smiles>
CNC(C)C(=O)NC(C(=O)N1Cc2cc([101O:1][101CH2:1]C3=C(C)CN(c4ccc([100N:0](C)[100C:0](=O)N5CCCC(n6nc(-c7ccc(Oc8ccc(F)cc8F)cc7)c(C(N)=O)c6N)C5)c(F)c4)C3=O)ccc2CC1C(=O)NC1CCCc2ccccc21)C(C)(C)C

> <Shape>
0.214

> <Color>
0.177

> <Negative vol penalty>
0.000

$$$$

  -OEChem-04052300373D

 85 93  0     1  0  0  0  0  0999 V2000
  -16.0829  -29.3591   23.5652 C   0  0  0  0  0  0  0  0  0  0  0  0
  -16.9380  -28.3750   24.0508 C   0  0  0  0  0  0  0  0  0  0  0  0
  -23.3906  -10.3121   21.2951 C   0  0  0  0  0  0  0  0  0  0  0  0
  -24.8033   -8.5613   22.1759 C   0  0  0  0  0  0  0  0  0  0  0  0
  -29.3864  -19.6047   21.1102 C   0  0  0  0  0  0  0  0  0  0  0  0
  -16.5747  -30.3533   22.7204 C   0  0  0  0  0  0  0  0  0  0  0  0
  -18.2852  -28.3839   23.6911 C   0  0  0  0  0  0  0  0  0  0  0  0
  -23.0347  -26.6866   27.1648 C   0  0  0  0  0  0  0  0  0  0  0  0
  -28.7324  -20.3567   22.0861 C   0  0  0  0  0  0  0  0  0  0  0  0
  -22.3362   -9.4057   21.1845 C   0  0  0  0  0  0  0  0  0  0  0  0
  -23.7489   -7.6549   22.0653 C   0  0  0  0  0  0  0  0  0  0  0  0
  -23.7719  -25.5052   27.2333 C   0  0  0  0  0  0  0  0  0  0  0  0
  -20.9468   -6.8743   23.7856 C   0  0  0  0  0  0  0  0  0  0  0  0
  -20.7112   -6.0218   24.8642 C   0  0  0  0  0  0  0  0  0  0  0  0
  -25.4252  -26.4586   25.7579 C   0  0  0  0  0  0  0  0  0  0  0  0
  -28.0424  -18.3222   23.1914 C   0  0  0  0  0  0  0  0  0  0  0  0
  -21.0867   -4.1102   23.4352 C   0  0  0  0  0  0  0  0  0  0  0  0
  -24.6242   -9.8899   21.7907 C   0  0  0  0  0  0  0  0  0  0  0  0
  -29.3683  -18.2114   21.1748 C   0  0  0  0  0  0  0  0  0  0  0  0
  -26.0269  -11.6353   23.0129 C   0  0  0  0  0  0  0  0  0  0  0  0
  -17.9306  -30.3800   22.3578 C   0  0  0  0  0  0  0  0  0  0  0  0
  -23.4825  -27.7607   26.3824 C   0  0  0  0  0  0  0  0  0  0  0  0
  -18.7952  -29.3787   22.8395 C   0  0  0  0  0  0  0  0  0  0  0  0
  -24.6932  -27.6534   25.6832 C   0  0  0  0  0  0  0  0  0  0  0  0
  -28.0604  -19.7155   23.1267 C   0  0  0  0  0  0  0  0  0  0  0  0
  -22.5153   -8.0771   21.5697 C   0  0  0  0  0  0  0  0  0  0  0  0
  -24.9659  -25.3900   26.5275 C   0  0  0  0  0  0  0  0  0  0  0  0
  -21.2522   -6.3447   22.5318 C   0  0  0  0  0  0  0  0  0  0  0  0
  -20.7812   -4.6397   24.6890 C   0  0  0  0  0  0  0  0  0  0  0  0
  -28.6964  -17.5702   22.2155 C   0  0  0  0  0  0  0  0  0  0  0  0
  -21.3222   -4.9627   22.3566 C   0  0  0  0  0  0  0  0  0  0  0  0
  -25.7140  -10.8256   21.9046 C   0  0  0  0  0  0  0  0  0  0  0  0
  -27.1412  -12.3367   22.6220 C   0  0  0  0  0  0  0  0  0  0  0  0
  -30.0657  -17.4146   20.1330 C   0  0  0  0  0  0  0  0  0  0  0  0
  -25.3691  -11.7437   24.2823 C   0  0  0  0  0  0  0  0  0  0  0  0
  -22.3463  -29.3247   23.8592 C   0  0  0  0  0  0  0  0  0  0  0  0
  -26.5794  -22.3891   25.3040 C   0  0  0  0  0  0  0  0  0  0  0  0
  -24.9075  -31.2447   24.3852 C   0  0  0  0  0  0  0  0  0  0  0  0
  -28.0349  -31.6069   25.7024 C   0  0  0  0  0  0  0  0  0  0  0  0
  -29.9885  -15.2774   18.8880 C   0  0  0  0  0  0  0  0  0  0  0  0
  -18.4061  -31.4473   21.4041 C   0  0  0  0  0  0  0  0  0  0  0  0
  -22.6892  -29.0379   26.3403 C   0  0  0  0  0  0  0  0  0  0  0  0
  -25.2278  -28.7848   24.8450 C   0  0  0  0  0  0  0  0  0  0  0  0
  -19.9244  -31.6022   21.3714 C   0  0  0  0  0  0  0  0  0  0  0  0
  -30.1556  -11.7586   18.5930 C   0  0  0  0  0  0  0  0  0  0  0  0
  -20.5983  -30.2374   21.2720 C   0  0  0  0  0  0  0  0  0  0  0  0
  -29.0460  -11.2649   19.5253 C   0  0  0  0  0  0  0  0  0  0  0  0
  -29.7521  -13.0354   17.8569 C   0  0  0  0  0  0  0  0  0  0  0  0
  -28.1675  -13.6310   19.6436 C   0  0  0  0  0  0  0  0  0  0  0  0
  -20.2680  -29.3689   22.4919 C   0  0  1  0  0  0  0  0  0  0  0  0
  -22.9798  -29.8813   25.1028 C   0  0  1  0  0  0  0  0  0  0  0  0
  -28.5522  -12.3869   20.4606 C   0  0  1  0  0  0  0  0  0  0  0  0
  -29.8898  -33.2800   25.9420 C   0  0  0  0  0  0  0  0  0  0  0  0
  -25.6827  -30.7994   21.4679 C   0  0  0  0  0  0  0  0  0  0  0  0
  -27.9652  -31.6713   22.0139 C   0  0  0  0  0  0  0  0  0  0  0  0
  -25.9720  -33.1479   22.2774 C   0  0  0  0  0  0  0  0  0  0  0  0
  -27.8687  -31.5415   28.6565 C   0  0  0  0  0  0  0  0  0  0  0  0
  -27.3756  -21.9034   24.1115 C   0  0  0  0  0  0  0  0  0  0  0  0
  -26.4665  -23.8944   25.4471 C   0  0  0  0  0  0  0  0  0  1  0  0
  -26.3436  -31.2626   23.9204 C   0  0  1  0  0  0  0  0  0  0  0  0
  -28.6403  -32.6900   26.5770 C   0  0  2  0  0  0  0  0  0  0  0  0
  -26.4801  -31.6981   22.4341 C   0  0  0  0  0  0  0  0  0  0  0  0
  -26.5610  -10.9960   20.8861 N   0  0  0  0  0  0  0  0  0  0  0  0
  -27.4171  -11.9209   21.3527 N   0  0  0  0  0  0  0  0  0  0  0  0
  -24.4128  -30.0108   24.8308 N   0  0  0  0  0  0  0  0  0  0  0  0
  -29.3064  -14.0505   18.8130 N   0  0  0  0  0  0  0  0  0  0  0  0
  -27.9022  -13.2624   23.2437 N   0  0  0  0  0  0  0  0  0  0  0  0
  -24.2378  -10.9508   24.5184 N   0  0  0  0  0  0  0  0  0  0  0  0
  -27.4099  -20.4633   24.0977 N   0  0  0  0  0  0  0  0  0  0  0  0
  -29.5130  -16.1627   19.8617 N   0  0  0  0  0  0  0  0  0  0  0  0
  -21.0604  -29.7768   23.6321 N   0  0  0  0  0  0  0  0  0  0  0  0
  -27.0665  -32.1120   24.8607 N   0  0  0  0  0  0  0  0  0  0  0  0
  -29.0082  -32.1340   27.9099 N   0  3  0  0  0  0  0  0  0  0  0  0
  -31.0353  -17.9010   19.5573 O   0  0  0  0  0  0  0  0  0  0  0  0
  -25.7628  -12.5328   25.1744 O   0  0  0  0  0  0  0  0  0  0  0  0
  -22.9780  -28.5442   23.1568 O   0  0  0  0  0  0  0  0  0  0  0  0
  -26.0544  -21.6223   26.1104 O   0  0  0  0  0  0  0  0  0  0  0  0
  -24.2509  -32.2887   24.3608 O   0  0  0  0  0  0  0  0  0  0  0  0
  -28.3885  -30.4311   25.7575 O   0  0  0  0  0  0  0  0  0  0  0  0
  -30.9611  -15.5467   18.1761 O   0  0  0  0  0  0  0  0  0  0  0  0
  -21.4865   -7.1924   21.4621 O   0  0  0  0  0  0  0  0  0  0  0  0
  -25.6871  -24.2378   26.5921 O   0  0  0  0  0  0  0  0  0  1  0  0
  -20.5565   -3.8212   25.7252 F   0  0  0  0  0  0  0  0  0  0  0  0
  -28.6707  -16.2317   22.2858 F   0  0  0  0  0  0  0  0  0  0  0  0
  -21.6163   -4.4481   21.1547 F   0  0  0  0  0  0  0  0  0  0  0  0
  1  2  1  0  0  0  0
  1  6  2  0  0  0  0
  2  7  2  0  0  0  0
  3 10  2  0  0  0  0
  3 18  1  0  0  0  0
  4 11  1  0  0  0  0
  4 18  2  0  0  0  0
  5  9  2  0  0  0  0
  5 19  1  0  0  0  0
  6 21  1  0  0  0  0
  7 23  1  0  0  0  0
  8 12  2  0  0  0  0
  8 22  1  0  0  0  0
  9 25  1  0  0  0  0
 10 26  1  0  0  0  0
 11 26  2  0  0  0  0
 12 27  1  0  0  0  0
 13 14  2  0  0  0  0
 13 28  1  0  0  0  0
 14 29  1  0  0  0  0
 15 24  1  0  0  0  0
 15 27  2  0  0  0  0
 16 25  2  0  0  0  0
 16 30  1  0  0  0  0
 17 29  2  0  0  0  0
 17 31  1  0  0  0  0
 18 32  1  0  0  0  0
 19 30  2  0  0  0  0
 19 34  1  0  0  0  0
 20 32  1  0  0  0  0
 20 33  2  0  0  0  0
 20 35  1  0  0  0  0
 21 23  2  0  0  0  0
 21 41  1  0  0  0  0
 22 24  2  0  0  0  0
 22 42  1  0  0  0  0
 23 50  1  0  0  0  0
 24 43  1  0  0  0  0
 25 69  1  0  0  0  0
 26 81  1  0  0  0  0
 27 82  1  0  0  0  0
 28 31  2  0  0  0  0
 28 81  1  0  0  0  0
 29 83  1  0  0  0  0
 30 84  1  0  0  0  0
 31 85  1  0  0  0  0
 32 63  2  0  0  0  0
 33 64  1  0  0  0  0
 33 67  1  0  0  0  0
 34 70  1  0  0  0  0
 34 74  2  0  0  0  0
 35 68  1  0  0  0  0
 35 75  2  0  0  0  0
 36 51  1  0  0  0  0
 36 71  1  0  0  0  0
 36 76  2  0  0  0  0
 37 58  1  0  0  0  0
 37 59  1  0  0  0  0
 37 77  2  0  0  0  0
 38 60  1  0  0  0  0
 38 65  1  0  0  0  0
 38 78  2  0  0  0  0
 39 61  1  0  0  0  0
 39 72  1  0  0  0  0
 39 79  2  0  0  0  0
 40 66  1  0  0  0  0
 40 70  1  0  0  0  0
 40 80  2  0  0  0  0
 41 44  1  0  0  0  0
 42 51  1  0  0  0  0
 43 65  1  0  0  0  0
 44 46  1  0  0  0  0
 45 47  1  0  0  0  0
 45 48  1  0  0  0  0
 46 50  1  0  0  0  0
 47 52  1  0  0  0  0
 48 66  1  0  0  0  0
 49 52  1  0  0  0  0
 49 66  1  0  0  0  0
 50 71  1  0  0  0  0
 51 65  1  0  0  0  0
 52 64  1  0  0  0  0
 53 61  1  0  0  0  0
 54 62  1  0  0  0  0
 55 62  1  0  0  0  0
 56 62  1  0  0  0  0
 57 73  1  0  0  0  0
 58 69  1  0  0  0  0
 59 82  1  0  0  0  0
 60 62  1  0  0  0  0
 60 72  1  0  0  0  0
 61 73  1  0  0  0  0
 63 64  1  0  0  0  0
M  CHG  1  73   1
M  ISO  4  40 100  59 101  70 100  82 101
M  END
> <Batch ID>
0093

> <Smiles>
CNC(C)C(=O)NC(C(=O)N1Cc2cc([101O:1][101CH2:1]C(=O)CNc3ccc(C(=O)[100NH:0][100C:0](=O)N4CCCC(n5nc(-c6ccc(Oc7ccc(F)cc7F)cc6)c(C(N)=O)c5N)C4)c(F)c3)ccc2CC1C(=O)NC1CCCc2ccccc21)C(C)(C)C

> <Shape>
0.272

> <Color>
0.117

> <Negative vol penalty>
0.000

$$$$

  -OEChem-04052300373D

 86 95  0     1  0  0  0  0  0999 V2000
  -28.9961  -36.9653   19.4898 C   0  0  0  0  0  0  0  0  0  0  0  0
  -29.2701  -35.6020   19.4483 C   0  0  0  0  0  0  0  0  0  0  0  0
  -23.7103   -8.7804   19.8340 C   0  0  0  0  0  0  0  0  0  0  0  0
  -23.2926  -10.3065   21.6598 C   0  0  0  0  0  0  0  0  0  0  0  0
  -28.0591  -37.4596   20.3962 C   0  0  0  0  0  0  0  0  0  0  0  0
  -28.6078  -34.7323   20.3140 C   0  0  0  0  0  0  0  0  0  0  0  0
  -26.8733  -28.9781   19.1360 C   0  0  0  0  0  0  0  0  0  0  0  0
  -30.3476  -19.6102   20.7139 C   0  0  0  0  0  0  0  0  0  0  0  0
  -30.2611  -18.2427   20.4530 C   0  0  0  0  0  0  0  0  0  0  0  0
  -22.9596   -7.7996   20.4820 C   0  0  0  0  0  0  0  0  0  0  0  0
  -22.5419   -9.3257   22.3078 C   0  0  0  0  0  0  0  0  0  0  0  0
  -27.4465  -27.7445   19.4417 C   0  0  0  0  0  0  0  0  0  0  0  0
  -23.3908   -5.5989   23.0110 C   0  0  0  0  0  0  0  0  0  0  0  0
  -23.9146   -4.3070   23.0556 C   0  0  0  0  0  0  0  0  0  0  0  0
  -26.0347  -27.5783   21.3906 C   0  0  0  0  0  0  0  0  0  0  0  0
  -29.9103  -23.7650   21.5767 C   0  0  0  0  0  0  0  0  0  0  0  0
  -28.1310  -19.9238   19.8053 C   0  0  0  0  0  0  0  0  0  0  0  0
  -21.9786   -3.4811   21.8694 C   0  0  0  0  0  0  0  0  0  0  0  0
  -28.7428  -22.7914   19.9158 C   0  0  0  0  0  0  0  0  0  0  0  0
  -23.8769  -10.0339   20.4229 C   0  0  0  0  0  0  0  0  0  0  0  0
  -24.1852  -12.0117   18.8414 C   0  0  0  0  0  0  0  0  0  0  0  0
  -27.3779  -36.5943   21.2667 C   0  0  0  0  0  0  0  0  0  0  0  0
  -25.8826  -29.5271   19.9628 C   0  0  0  0  0  0  0  0  0  0  0  0
  -27.6617  -35.2156   21.2337 C   0  0  0  0  0  0  0  0  0  0  0  0
  -25.4488  -28.8178   21.0919 C   0  0  0  0  0  0  0  0  0  0  0  0
  -29.0618  -24.0117   20.4693 C   0  0  0  0  0  0  0  0  0  0  0  0
  -29.2825  -20.4507   20.3901 C   0  0  0  0  0  0  0  0  0  0  0  0
  -29.1096  -17.7157   19.8682 C   0  0  0  0  0  0  0  0  0  0  0  0
  -22.3754   -8.0722   21.7189 C   0  0  0  0  0  0  0  0  0  0  0  0
  -27.0292  -27.0457   20.5707 C   0  0  0  0  0  0  0  0  0  0  0  0
  -22.1609   -5.8320   22.3957 C   0  0  0  0  0  0  0  0  0  0  0  0
  -28.0445  -18.5563   19.5443 C   0  0  0  0  0  0  0  0  0  0  0  0
  -23.2085   -3.2481   22.4848 C   0  0  0  0  0  0  0  0  0  0  0  0
  -21.4548   -4.7731   21.8249 C   0  0  0  0  0  0  0  0  0  0  0  0
  -24.6528  -11.0473   19.7542 C   0  0  0  0  0  0  0  0  0  0  0  0
  -25.3041  -12.7303   18.4979 C   0  0  0  0  0  0  0  0  0  0  0  0
  -30.0842  -22.4015   21.6661 C   0  0  0  0  0  0  0  0  0  0  0  0
  -22.8580  -12.2377   18.3482 C   0  0  0  0  0  0  0  0  0  0  0  0
  -25.6353  -32.1643   21.7199 C   0  0  0  0  0  0  0  0  0  0  0  0
  -22.5889  -31.1317   22.1387 C   0  0  0  0  0  0  0  0  0  0  0  0
  -20.3917  -28.5204   22.1575 C   0  0  0  0  0  0  0  0  0  0  0  0
  -30.0133  -15.3642   19.8720 C   0  0  0  0  0  0  0  0  0  0  0  0
  -26.4080  -37.1810   22.2616 C   0  0  0  0  0  0  0  0  0  0  0  0
  -25.2554  -30.8464   19.6046 C   0  0  0  0  0  0  0  0  0  0  0  0
  -24.3741  -29.3542   22.0007 C   0  0  0  0  0  0  0  0  0  0  0  0
  -25.4764  -36.1461   22.8871 C   0  0  0  0  0  0  0  0  0  0  0  0
  -30.2016  -11.8383   19.4145 C   0  0  0  0  0  0  0  0  0  0  0  0
  -26.2646  -34.9185   23.3327 C   0  0  0  0  0  0  0  0  0  0  0  0
  -28.7364  -11.3975   19.3870 C   0  0  0  0  0  0  0  0  0  0  0  0
  -30.4335  -12.9746   20.4089 C   0  0  0  0  0  0  0  0  0  0  0  0
  -28.0859  -13.6956   20.2132 C   0  0  0  0  0  0  0  0  0  0  0  0
  -26.9458  -34.2373   22.1396 C   0  0  1  0  0  0  0  0  0  0  0  0
  -24.6191  -31.5496   20.7996 C   0  0  1  0  0  0  0  0  0  0  0  0
  -27.7909  -12.5969   19.1791 C   0  0  2  0  0  0  0  0  0  0  0  0
  -17.9762  -27.9814   22.5724 C   0  0  0  0  0  0  0  0  0  0  0  0
  -23.0556  -31.3656   25.1449 C   0  0  0  0  0  0  0  0  0  0  0  0
  -21.0218  -29.9494   25.5004 C   0  0  0  0  0  0  0  0  0  0  0  0
  -20.8154  -32.1644   24.3717 C   0  0  0  0  0  0  0  0  0  0  0  0
  -20.0168  -27.5339   19.3925 C   0  0  0  0  0  0  0  0  0  0  0  0
  -25.8730  -17.6363   19.8506 C   0  0  0  0  0  0  0  0  0  0  0  0
  -28.5954  -25.3538   19.9872 C   0  0  0  0  0  0  0  0  0  1  0  0
  -21.8903  -30.2387   23.1354 C   0  0  1  0  0  0  0  0  0  0  0  0
  -19.0193  -28.3542   21.5304 C   0  0  2  0  0  0  0  0  0  0  0  0
  -21.7174  -30.9200   24.5223 C   0  0  0  0  0  0  0  0  0  0  0  0
  -25.9664  -11.1418   19.9763 N   0  0  0  0  0  0  0  0  0  0  0  0
  -29.3701  -21.8198   20.6512 N   0  0  0  0  0  0  0  0  0  0  0  0
  -26.3339  -12.1741   19.1982 N   0  0  0  0  0  0  0  0  0  0  0  0
  -23.7960  -30.6511   21.6115 N   0  0  0  0  0  0  0  0  0  0  0  0
  -29.5054  -14.0772   20.1483 N   0  0  0  0  0  0  0  0  0  0  0  0
  -25.4978  -13.7773   17.6680 N   0  0  0  0  0  0  0  0  0  0  0  0
  -21.8251  -11.4076   18.8048 N   0  0  0  0  0  0  0  0  0  0  0  0
  -29.0375  -16.3248   19.6080 N   0  0  0  0  0  0  0  0  0  0  0  0
  -25.9861  -33.4586   21.3865 N   0  0  0  0  0  0  0  0  0  0  0  0
  -20.6371  -29.8307   22.5097 N   0  0  0  0  0  0  0  0  0  0  0  0
  -19.0500  -27.2851   20.4926 N   0  3  0  0  0  0  0  0  0  0  0  0
  -22.5987  -13.1384   17.5145 O   0  0  0  0  0  0  0  0  0  0  0  0
  -26.0679  -31.5131   22.6636 O   0  0  0  0  0  0  0  0  0  0  0  0
  -22.0788  -32.2125   21.8335 O   0  0  0  0  0  0  0  0  0  0  0  0
  -21.1670  -27.5811   22.3221 O   0  0  0  0  0  0  0  0  0  0  0  0
  -31.2256  -15.5910   19.8430 O   0  0  0  0  0  0  0  0  0  0  0  0
  -30.7877  -21.6768   22.5276 O   0  0  0  0  0  0  0  0  0  0  0  0
  -21.6426   -7.1154   22.3515 O   0  0  0  0  0  0  0  0  0  0  0  0
  -26.9113  -18.0613   18.9707 O   0  0  0  0  0  0  0  0  0  0  0  0
  -27.5875  -25.8417   20.8717 O   0  0  0  0  0  0  0  0  0  1  0  0
  -23.7124   -2.0077   22.5264 F   0  0  0  0  0  0  0  0  0  0  0  0
  -20.2733   -4.9911   21.2313 F   0  0  0  0  0  0  0  0  0  0  0  0
  1  2  1  0  0  0  0
  1  5  2  0  0  0  0
  2  6  2  0  0  0  0
  3 10  2  0  0  0  0
  3 20  1  0  0  0  0
  4 11  1  0  0  0  0
  4 20  2  0  0  0  0
  5 22  1  0  0  0  0
  6 24  1  0  0  0  0
  7 12  2  0  0  0  0
  7 23  1  0  0  0  0
  8  9  2  0  0  0  0
  8 27  1  0  0  0  0
  9 28  1  0  0  0  0
 10 29  1  0  0  0  0
 11 29  2  0  0  0  0
 12 30  1  0  0  0  0
 13 14  2  0  0  0  0
 13 31  1  0  0  0  0
 14 33  1  0  0  0  0
 15 25  1  0  0  0  0
 15 30  2  0  0  0  0
 16 26  1  0  0  0  0
 16 37  2  0  0  0  0
 17 27  2  0  0  0  0
 17 32  1  0  0  0  0
 18 33  2  0  0  0  0
 18 34  1  0  0  0  0
 19 26  2  0  0  0  0
 19 66  1  0  0  0  0
 20 35  1  0  0  0  0
 21 35  1  0  0  0  0
 21 36  2  0  0  0  0
 21 38  1  0  0  0  0
 22 24  2  0  0  0  0
 22 43  1  0  0  0  0
 23 25  2  0  0  0  0
 23 44  1  0  0  0  0
 24 52  1  0  0  0  0
 25 45  1  0  0  0  0
 26 61  1  0  0  0  0
 27 66  1  0  0  0  0
 28 32  2  0  0  0  0
 28 72  1  0  0  0  0
 29 82  1  0  0  0  0
 30 84  1  0  0  0  0
 31 34  2  0  0  0  0
 31 82  1  0  0  0  0
 32 83  1  0  0  0  0
 33 85  1  0  0  0  0
 34 86  1  0  0  0  0
 35 65  2  0  0  0  0
 36 67  1  0  0  0  0
 36 70  1  0  0  0  0
 37 66  1  0  0  0  0
 37 81  1  0  0  0  0
 38 71  1  0  0  0  0
 38 76  2  0  0  0  0
 39 53  1  0  0  0  0
 39 73  1  0  0  0  0
 39 77  2  0  0  0  0
 40 62  1  0  0  0  0
 40 68  1  0  0  0  0
 40 78  2  0  0  0  0
 41 63  1  0  0  0  0
 41 74  1  0  0  0  0
 41 79  2  0  0  0  0
 42 69  1  0  0  0  0
 42 72  1  0  0  0  0
 42 80  2  0  0  0  0
 43 46  1  0  0  0  0
 44 53  1  0  0  0  0
 45 68  1  0  0  0  0
 46 48  1  0  0  0  0
 47 49  1  0  0  0  0
 47 50  1  0  0  0  0
 48 52  1  0  0  0  0
 49 54  1  0  0  0  0
 50 69  1  0  0  0  0
 51 54  1  0  0  0  0
 51 69  1  0  0  0  0
 52 73  1  0  0  0  0
 53 68  1  0  0  0  0
 54 67  1  0  0  0  0
 55 63  1  0  0  0  0
 56 64  1  0  0  0  0
 57 64  1  0  0  0  0
 58 64  1  0  0  0  0
 59 75  1  0  0  0  0
 60 83  1  0  0  0  0
 61 84  1  0  0  0  0
 62 64  1  0  0  0  0
 62 74  1  0  0  0  0
 63 75  1  0  0  0  0
 65 67  1  0  0  0  0
M  CHG  1  75   1
M  ISO  4  42 100  61 101  72 100  84 101
M  END
> <Batch ID>
0093

> <Smiles>
CNC(C)C(=O)NC(C(=O)N1Cc2cc([101O:1][101CH2:1]C3=CN(c4ccc([100NH:0][100C:0](=O)N5CCCC(n6nc(-c7ccc(Oc8ccc(F)cc8F)cc7)c(C(N)=O)c6N)C5)c(OC)c4)C(=O)C3)ccc2CC1C(=O)NC1CCCc2ccccc21)C(C)(C)C

> <Shape>
0.320

> <Color>
0.107

> <Negative vol penalty>
0.000

$$$$

  -OEChem-04052300373D

 83 91  0     1  0  0  0  0  0999 V2000
  -16.8354  -25.9425   22.5319 C   0  0  0  0  0  0  0  0  0  0  0  0
  -18.1370  -25.4539   22.5839 C   0  0  0  0  0  0  0  0  0  0  0  0
  -23.1670  -10.3082   20.8596 C   0  0  0  0  0  0  0  0  0  0  0  0
  -24.4673   -8.8672   22.2984 C   0  0  0  0  0  0  0  0  0  0  0  0
  -28.4022  -20.0369   20.3381 C   0  0  0  0  0  0  0  0  0  0  0  0
  -16.6008  -27.2560   22.1276 C   0  0  0  0  0  0  0  0  0  0  0  0
  -19.2046  -26.2783   22.2307 C   0  0  0  0  0  0  0  0  0  0  0  0
  -23.0683  -25.9566   25.4885 C   0  0  0  0  0  0  0  0  0  0  0  0
  -27.4981  -20.8550   21.0155 C   0  0  0  0  0  0  0  0  0  0  0  0
  -22.2278   -9.2911   20.6896 C   0  0  0  0  0  0  0  0  0  0  0  0
  -23.5280   -7.8500   22.1284 C   0  0  0  0  0  0  0  0  0  0  0  0
  -23.9013  -24.8438   25.3804 C   0  0  0  0  0  0  0  0  0  0  0  0
  -20.4756   -7.0527   23.3399 C   0  0  0  0  0  0  0  0  0  0  0  0
  -20.0669   -6.3538   24.4757 C   0  0  0  0  0  0  0  0  0  0  0  0
  -25.5120  -26.1741   24.1742 C   0  0  0  0  0  0  0  0  0  0  0  0
  -26.7237  -18.9495   22.2830 C   0  0  0  0  0  0  0  0  0  0  0  0
  -20.8789   -4.2970   23.5021 C   0  0  0  0  0  0  0  0  0  0  0  0
  -24.2868  -10.0962   21.6639 C   0  0  0  0  0  0  0  0  0  0  0  0
  -28.4671  -18.6751   20.6331 C   0  0  0  0  0  0  0  0  0  0  0  0
  -25.2618  -12.1427   22.8339 C   0  0  0  0  0  0  0  0  0  0  0  0
  -17.6669  -28.1000   21.7784 C   0  0  0  0  0  0  0  0  0  0  0  0
  -23.4468  -27.1859   24.9297 C   0  0  0  0  0  0  0  0  0  0  0  0
  -18.9839  -27.6040   21.8200 C   0  0  0  0  0  0  0  0  0  0  0  0
  -24.6832  -27.3016   24.2787 C   0  0  0  0  0  0  0  0  0  0  0  0
  -26.6588  -20.3113   21.9880 C   0  0  0  0  0  0  0  0  0  0  0  0
  -22.4083   -8.0620   21.3241 C   0  0  0  0  0  0  0  0  0  0  0  0
  -25.1220  -24.9517   24.7207 C   0  0  0  0  0  0  0  0  0  0  0  0
  -21.0859   -6.3738   22.2852 C   0  0  0  0  0  0  0  0  0  0  0  0
  -20.2685   -4.9759   24.5568 C   0  0  0  0  0  0  0  0  0  0  0  0
  -27.6278  -18.1314   21.6056 C   0  0  0  0  0  0  0  0  0  0  0  0
  -21.2876   -4.9960   22.3663 C   0  0  0  0  0  0  0  0  0  0  0  0
  -25.2577  -11.1464   21.8395 C   0  0  0  0  0  0  0  0  0  0  0  0
  -26.3841  -12.8885   22.5681 C   0  0  0  0  0  0  0  0  0  0  0  0
  -26.1881  -21.6795   23.7578 C   0  0  0  0  0  0  0  0  0  0  0  0
  -29.4303  -17.8063   19.9091 C   0  0  0  0  0  0  0  0  0  0  0  0
  -24.3342  -12.3734   23.9026 C   0  0  0  0  0  0  0  0  0  0  0  0
  -22.2598  -29.0848   22.6738 C   0  0  0  0  0  0  0  0  0  0  0  0
  -24.6301  -31.0736   23.6479 C   0  0  0  0  0  0  0  0  0  0  0  0
  -27.6728  -31.4370   25.1500 C   0  0  0  0  0  0  0  0  0  0  0  0
  -29.7768  -15.5087   19.0578 C   0  0  0  0  0  0  0  0  0  0  0  0
  -17.3602  -29.4978   21.3023 C   0  0  0  0  0  0  0  0  0  0  0  0
  -22.5489  -28.3835   25.0781 C   0  0  0  0  0  0  0  0  0  0  0  0
  -25.1450  -28.6039   23.6793 C   0  0  0  0  0  0  0  0  0  0  0  0
  -18.5752  -30.4220   21.3038 C   0  0  0  0  0  0  0  0  0  0  0  0
  -30.2460  -12.0224   19.4075 C   0  0  0  0  0  0  0  0  0  0  0  0
  -19.7766  -29.7255   20.6726 C   0  0  0  0  0  0  0  0  0  0  0  0
  -28.9945  -11.5633   20.1606 C   0  0  0  0  0  0  0  0  0  0  0  0
  -29.9282  -13.1240   18.3974 C   0  0  0  0  0  0  0  0  0  0  0  0
  -27.9513  -13.8159   19.6900 C   0  0  0  0  0  0  0  0  0  0  0  0
  -20.1703  -28.4752   21.4683 C   0  0  1  0  0  0  0  0  0  0  0  0
  -22.8046  -29.4562   24.0240 C   0  0  1  0  0  0  0  0  0  0  0  0
  -28.2306  -12.7568   20.7686 C   0  0  1  0  0  0  0  0  0  0  0  0
  -29.3698  -33.1799   25.7664 C   0  0  0  0  0  0  0  0  0  0  0  0
  -25.5304  -31.2233   20.7364 C   0  0  0  0  0  0  0  0  0  0  0  0
  -27.7121  -32.1590   21.5319 C   0  0  0  0  0  0  0  0  0  0  0  0
  -25.5928  -33.4029   21.9610 C   0  0  0  0  0  0  0  0  0  0  0  0
  -27.4215  -30.8277   28.0352 C   0  0  0  0  0  0  0  0  0  0  0  0
  -25.3097  -22.5859   24.5671 C   0  0  0  0  0  0  0  0  0  1  0  0
  -26.0731  -31.2876   23.2597 C   0  0  1  0  0  0  0  0  0  0  0  0
  -28.1561  -32.3889   26.2292 C   0  0  2  0  0  0  0  0  0  0  0  0
  -26.2178  -31.9930   21.8818 C   0  0  0  0  0  0  0  0  0  0  0  0
  -26.2949  -11.2473   21.0041 N   0  0  0  0  0  0  0  0  0  0  0  0
  -25.7481  -21.1354   22.6706 N   0  0  0  0  0  0  0  0  0  0  0  0
  -26.9613  -12.3161   21.4730 N   0  0  0  0  0  0  0  0  0  0  0  0
  -24.2291  -29.7446   23.8450 N   0  0  0  0  0  0  0  0  0  0  0  0
  -29.2139  -14.2205   19.0536 N   0  0  0  0  0  0  0  0  0  0  0  0
  -26.9236  -13.9717   23.1665 N   0  0  0  0  0  0  0  0  0  0  0  0
  -23.2359  -11.5124   24.0315 N   0  0  0  0  0  0  0  0  0  0  0  0
  -29.0383  -16.4772   19.7468 N   0  0  0  0  0  0  0  0  0  0  0  0
  -20.8990  -28.8450   22.6628 N   0  0  0  0  0  0  0  0  0  0  0  0
  -26.6914  -32.0079   24.3676 N   0  0  0  0  0  0  0  0  0  0  0  0
  -28.5287  -31.6326   27.4581 N   0  3  0  0  0  0  0  0  0  0  0  0
  -30.4672  -18.2977   19.4719 O   0  0  0  0  0  0  0  0  0  0  0  0
  -24.4661  -13.3251   24.7090 O   0  0  0  0  0  0  0  0  0  0  0  0
  -23.0177  -29.0218   21.7129 O   0  0  0  0  0  0  0  0  0  0  0  0
  -23.8878  -32.0501   23.7786 O   0  0  0  0  0  0  0  0  0  0  0  0
  -28.1237  -30.3020   25.0123 O   0  0  0  0  0  0  0  0  0  0  0  0
  -30.8617  -15.7665   18.5269 O   0  0  0  0  0  0  0  0  0  0  0  0
  -21.4919   -7.0693   21.1586 O   0  0  0  0  0  0  0  0  0  0  0  0
  -25.9367  -23.8670   24.6133 O   0  0  0  0  0  0  0  0  0  1  0  0
  -19.8773   -4.3051   25.6482 F   0  0  0  0  0  0  0  0  0  0  0  0
  -27.6813  -16.8239   21.8964 F   0  0  0  0  0  0  0  0  0  0  0  0
  -21.8744   -4.3386   21.3568 F   0  0  0  0  0  0  0  0  0  0  0  0
  1  2  1  0  0  0  0
  1  6  2  0  0  0  0
  2  7  2  0  0  0  0
  3 10  2  0  0  0  0
  3 18  1  0  0  0  0
  4 11  1  0  0  0  0
  4 18  2  0  0  0  0
  5  9  2  0  0  0  0
  5 19  1  0  0  0  0
  6 21  1  0  0  0  0
  7 23  1  0  0  0  0
  8 12  2  0  0  0  0
  8 22  1  0  0  0  0
  9 25  1  0  0  0  0
 10 26  1  0  0  0  0
 11 26  2  0  0  0  0
 12 27  1  0  0  0  0
 13 14  2  0  0  0  0
 13 28  1  0  0  0  0
 14 29  1  0  0  0  0
 15 24  1  0  0  0  0
 15 27  2  0  0  0  0
 16 25  2  0  0  0  0
 16 30  1  0  0  0  0
 17 29  2  0  0  0  0
 17 31  1  0  0  0  0
 18 32  1  0  0  0  0
 19 30  2  0  0  0  0
 19 35  1  0  0  0  0
 20 32  1  0  0  0  0
 20 33  2  0  0  0  0
 20 36  1  0  0  0  0
 21 23  2  0  0  0  0
 21 41  1  0  0  0  0
 22 24  2  0  0  0  0
 22 42  1  0  0  0  0
 23 50  1  0  0  0  0
 24 43  1  0  0  0  0
 25 63  1  0  0  0  0
 26 79  1  0  0  0  0
 27 80  1  0  0  0  0
 28 31  2  0  0  0  0
 28 79  1  0  0  0  0
 29 81  1  0  0  0  0
 30 82  1  0  0  0  0
 31 83  1  0  0  0  0
 32 62  2  0  0  0  0
 33 64  1  0  0  0  0
 33 67  1  0  0  0  0
 34 58  1  0  0  0  0
 34 63  2  0  0  0  0
 35 69  1  0  0  0  0
 35 73  2  0  0  0  0
 36 68  1  0  0  0  0
 36 74  2  0  0  0  0
 37 51  1  0  0  0  0
 37 70  1  0  0  0  0
 37 75  2  0  0  0  0
 38 59  1  0  0  0  0
 38 65  1  0  0  0  0
 38 76  2  0  0  0  0
 39 60  1  0  0  0  0
 39 71  1  0  0  0  0
 39 77  2  0  0  0  0
 40 66  1  0  0  0  0
 40 69  1  0  0  0  0
 40 78  2  0  0  0  0
 41 44  1  0  0  0  0
 42 51  1  0  0  0  0
 43 65  1  0  0  0  0
 44 46  1  0  0  0  0
 45 47  1  0  0  0  0
 45 48  1  0  0  0  0
 46 50  1  0  0  0  0
 47 52  1  0  0  0  0
 48 66  1  0  0  0  0
 49 52  1  0  0  0  0
 49 66  1  0  0  0  0
 50 70  1  0  0  0  0
 51 65  1  0  0  0  0
 52 64  1  0  0  0  0
 53 60  1  0  0  0  0
 54 61  1  0  0  0  0
 55 61  1  0  0  0  0
 56 61  1  0  0  0  0
 57 72  1  0  0  0  0
 58 80  1  0  0  0  0
 59 61  1  0  0  0  0
 59 71  1  0  0  0  0
 60 72  1  0  0  0  0
 62 64  1  0  0  0  0
M  CHG  1  72   1
M  ISO  4  40 100  58 101  69 100  80 101
M  END
> <Batch ID>
0093

> <Smiles>
CNC(C)C(=O)NC(C(=O)N1Cc2cc([101O:1][101CH:1]=CNc3ccc(C(=O)[100NH:0][100C:0](=O)N4CCCC(n5nc(-c6ccc(Oc7ccc(F)cc7F)cc6)c(C(N)=O)c5N)C4)c(F)c3)ccc2CC1C(=O)NC1CCCc2ccccc21)C(C)(C)C

> <Shape>
0.293

> <Color>
0.116

> <Negative vol penalty>
0.000

$$$$

  -OEChem-04052300373D

 85 93  0     1  0  0  0  0  0999 V2000
  -28.8680  -32.3571   23.3711 C   0  0  0  0  0  0  0  0  0  0  0  0
  -28.6905  -30.9778   23.4089 C   0  0  0  0  0  0  0  0  0  0  0  0
  -23.1059   -9.9677   20.9333 C   0  0  0  0  0  0  0  0  0  0  0  0
  -23.7337  -10.6289   23.1706 C   0  0  0  0  0  0  0  0  0  0  0  0
  -27.7680  -33.2041   23.4995 C   0  0  0  0  0  0  0  0  0  0  0  0
  -27.4129  -30.4447   23.5762 C   0  0  0  0  0  0  0  0  0  0  0  0
  -26.4856  -26.5948   20.4198 C   0  0  0  0  0  0  0  0  0  0  0  0
  -27.6799  -16.5733   17.1533 C   0  0  0  0  0  0  0  0  0  0  0  0
  -27.4665  -17.6554   18.0072 C   0  0  0  0  0  0  0  0  0  0  0  0
  -22.3295   -8.9339   21.4566 C   0  0  0  0  0  0  0  0  0  0  0  0
  -22.9572   -9.5950   23.6940 C   0  0  0  0  0  0  0  0  0  0  0  0
  -27.0371  -25.3566   20.7464 C   0  0  0  0  0  0  0  0  0  0  0  0
  -19.2901   -8.5846   22.8965 C   0  0  0  0  0  0  0  0  0  0  0  0
  -18.0125   -8.4018   22.3676 C   0  0  0  0  0  0  0  0  0  0  0  0
  -24.9102  -24.6517   21.6401 C   0  0  0  0  0  0  0  0  0  0  0  0
  -29.6926  -16.0128   18.3664 C   0  0  0  0  0  0  0  0  0  0  0  0
  -18.6136   -6.1622   21.6894 C   0  0  0  0  0  0  0  0  0  0  0  0
  -23.8081  -10.8152   21.7903 C   0  0  0  0  0  0  0  0  0  0  0  0
  -24.1991  -13.2011   20.9765 C   0  0  0  0  0  0  0  0  0  0  0  0
  -26.4751  -32.6811   23.6588 C   0  0  0  0  0  0  0  0  0  0  0  0
  -25.1428  -26.8750   20.7113 C   0  0  0  0  0  0  0  0  0  0  0  0
  -26.2948  -31.2856   23.7082 C   0  0  0  0  0  0  0  0  0  0  0  0
  -24.3434  -25.8932   21.3138 C   0  0  0  0  0  0  0  0  0  0  0  0
  -28.7929  -15.7519   17.3329 C   0  0  0  0  0  0  0  0  0  0  0  0
  -28.3662  -17.9162   19.0406 C   0  0  0  0  0  0  0  0  0  0  0  0
  -22.2551   -8.7475   22.8370 C   0  0  0  0  0  0  0  0  0  0  0  0
  -26.2502  -24.3859   21.3593 C   0  0  0  0  0  0  0  0  0  0  0  0
  -20.2296   -7.5562   22.8218 C   0  0  0  0  0  0  0  0  0  0  0  0
  -17.6742   -7.1906   21.7641 C   0  0  0  0  0  0  0  0  0  0  0  0
  -29.4793  -17.0950   19.2203 C   0  0  0  0  0  0  0  0  0  0  0  0
  -19.8913   -6.3450   22.2183 C   0  0  0  0  0  0  0  0  0  0  0  0
  -24.6107  -11.8830   21.2503 C   0  0  0  0  0  0  0  0  0  0  0  0
  -25.3227  -13.8158   20.4805 C   0  0  0  0  0  0  0  0  0  0  0  0
  -26.7234  -22.1782   20.7488 C   0  0  0  0  0  0  0  0  0  1  0  0
  -22.9157  -13.8150   21.1547 C   0  0  0  0  0  0  0  0  0  0  0  0
  -27.2178  -20.9519   20.9572 C   0  0  0  0  0  0  0  0  0  0  0  0
  -27.0995  -19.9256   19.8705 C   0  0  0  0  0  0  0  0  0  0  0  0
  -23.6399  -28.9963   22.5402 C   0  0  0  0  0  0  0  0  0  0  0  0
  -20.9924  -27.7303   21.1582 C   0  0  0  0  0  0  0  0  0  0  0  0
  -19.5321  -25.0760   19.5869 C   0  0  0  0  0  0  0  0  0  0  0  0
  -29.6687  -13.4521   16.8482 C   0  0  0  0  0  0  0  0  0  0  0  0
  -25.3227  -33.6368   23.8409 C   0  0  0  0  0  0  0  0  0  0  0  0
  -24.5558  -28.2059   20.3284 C   0  0  0  0  0  0  0  0  0  0  0  0
  -22.8910  -26.1370   21.6294 C   0  0  0  0  0  0  0  0  0  0  0  0
  -23.9557  -32.9881   23.6392 C   0  0  0  0  0  0  0  0  0  0  0  0
  -30.1435  -12.3299   20.3422 C   0  0  0  0  0  0  0  0  0  0  0  0
  -23.8781  -31.6621   24.3892 C   0  0  0  0  0  0  0  0  0  0  0  0
  -28.7102  -12.1417   20.8358 C   0  0  0  0  0  0  0  0  0  0  0  0
  -30.2584  -12.1050   18.8376 C   0  0  0  0  0  0  0  0  0  0  0  0
  -27.8900  -12.7662   18.5296 C   0  0  0  0  0  0  0  0  0  0  0  0
  -24.9215  -30.6690   23.8633 C   0  0  1  0  0  0  0  0  0  0  0  0
  -23.3140  -28.5664   21.1379 C   0  0  1  0  0  0  0  0  0  0  0  0
  -27.7404  -13.0270   20.0359 C   0  0  1  0  0  0  0  0  0  0  0  0
  -17.3460  -24.3235   18.6113 C   0  0  0  0  0  0  0  0  0  0  0  0
  -19.9022  -27.2610   23.9692 C   0  0  0  0  0  0  0  0  0  0  0  0
  -18.2198  -25.6932   22.9796 C   0  0  0  0  0  0  0  0  0  0  0  0
  -18.2166  -28.0998   22.3231 C   0  0  0  0  0  0  0  0  0  0  0  0
  -28.7825  -14.8330   15.0208 C   0  0  0  0  0  0  0  0  0  0  0  0
  -20.7107  -24.7628   16.8903 C   0  0  0  0  0  0  0  0  0  0  0  0
  -20.0600  -26.5879   21.4816 C   0  0  1  0  0  0  0  0  0  0  0  0
  -18.6833  -24.9912   18.3312 C   0  0  2  0  0  0  0  0  0  0  0  0
  -19.1275  -26.9063   22.6843 C   0  0  0  0  0  0  0  0  0  0  0  0
  -25.8956  -11.6718   20.9527 N   0  0  0  0  0  0  0  0  0  0  0  0
  -26.3010  -12.8654   20.4867 N   0  0  0  0  0  0  0  0  0  0  0  0
  -22.3649  -27.4562   21.2414 N   0  0  0  0  0  0  0  0  0  0  0  0
  -29.2885  -12.9094   18.0928 N   0  0  0  0  0  0  0  0  0  0  0  0
  -25.5596  -15.0710   20.0438 N   0  0  0  0  0  0  0  0  0  0  0  0
  -21.8709  -13.0399   21.6761 N   0  0  0  0  0  0  0  0  0  0  0  0
  -28.1473  -19.0156   19.9054 N   0  0  0  0  0  0  0  0  0  0  0  0
  -24.4821  -30.0896   22.6121 N   0  0  0  0  0  0  0  0  0  0  0  0
  -19.3535  -26.2749   20.2442 N   0  0  0  0  0  0  0  0  0  0  0  0
  -29.0141  -14.6332   16.4496 N   0  0  0  0  0  0  0  0  0  0  0  0
  -19.3900  -24.2056   17.2804 N   0  3  0  0  0  0  0  0  0  0  0  0
  -22.6975  -15.0108   20.8449 O   0  0  0  0  0  0  0  0  0  0  0  0
  -26.1616  -19.9493   19.0808 O   0  0  0  0  0  0  0  0  0  0  0  0
  -23.1615  -28.3827   23.4869 O   0  0  0  0  0  0  0  0  0  0  0  0
  -20.5203  -28.8236   20.8366 O   0  0  0  0  0  0  0  0  0  0  0  0
  -20.2763  -24.1679   19.9505 O   0  0  0  0  0  0  0  0  0  0  0  0
  -30.4944  -12.8935   16.1155 O   0  0  0  0  0  0  0  0  0  0  0  0
  -27.8364  -20.5916   22.1371 O   0  0  0  0  0  0  0  0  0  0  0  0
  -21.4974   -7.7389   23.3480 O   0  0  0  0  0  0  0  0  0  0  0  0
  -26.7862  -23.1768   21.6797 O   0  0  0  0  0  0  0  0  0  1  0  0
  -16.4467   -7.0147   21.2576 F   0  0  0  0  0  0  0  0  0  0  0  0
  -30.3516  -17.3371   20.2094 F   0  0  0  0  0  0  0  0  0  0  0  0
  -20.7892   -5.3529   22.1446 F   0  0  0  0  0  0  0  0  0  0  0  0
  1  2  1  0  0  0  0
  1  5  2  0  0  0  0
  2  6  2  0  0  0  0
  3 10  2  0  0  0  0
  3 18  1  0  0  0  0
  4 11  1  0  0  0  0
  4 18  2  0  0  0  0
  5 20  1  0  0  0  0
  6 22  1  0  0  0  0
  7 12  2  0  0  0  0
  7 21  1  0  0  0  0
  8  9  2  0  0  0  0
  8 24  1  0  0  0  0
  9 25  1  0  0  0  0
 10 26  1  0  0  0  0
 11 26  2  0  0  0  0
 12 27  1  0  0  0  0
 13 14  2  0  0  0  0
 13 28  1  0  0  0  0
 14 29  1  0  0  0  0
 15 23  1  0  0  0  0
 15 27  2  0  0  0  0
 16 24  2  0  0  0  0
 16 30  1  0  0  0  0
 17 29  2  0  0  0  0
 17 31  1  0  0  0  0
 18 32  1  0  0  0  0
 19 32  1  0  0  0  0
 19 33  2  0  0  0  0
 19 35  1  0  0  0  0
 20 22  2  0  0  0  0
 20 42  1  0  0  0  0
 21 23  2  0  0  0  0
 21 43  1  0  0  0  0
 22 51  1  0  0  0  0
 23 44  1  0  0  0  0
 24 72  1  0  0  0  0
 25 30  2  0  0  0  0
 25 69  1  0  0  0  0
 26 81  1  0  0  0  0
 27 82  1  0  0  0  0
 28 31  2  0  0  0  0
 28 81  1  0  0  0  0
 29 83  1  0  0  0  0
 30 84  1  0  0  0  0
 31 85  1  0  0  0  0
 32 63  2  0  0  0  0
 33 64  1  0  0  0  0
 33 67  1  0  0  0  0
 34 36  2  0  0  0  0
 34 82  1  0  0  0  0
 35 68  1  0  0  0  0
 35 74  2  0  0  0  0
 36 37  1  0  0  0  0
 36 80  1  0  0  0  0
 37 69  1  0  0  0  0
 37 75  2  0  0  0  0
 38 52  1  0  0  0  0
 38 70  1  0  0  0  0
 38 76  2  0  0  0  0
 39 60  1  0  0  0  0
 39 65  1  0  0  0  0
 39 77  2  0  0  0  0
 40 61  1  0  0  0  0
 40 71  1  0  0  0  0
 40 78  2  0  0  0  0
 41 66  1  0  0  0  0
 41 72  1  0  0  0  0
 41 79  2  0  0  0  0
 42 45  1  0  0  0  0
 43 52  1  0  0  0  0
 44 65  1  0  0  0  0
 45 47  1  0  0  0  0
 46 48  1  0  0  0  0
 46 49  1  0  0  0  0
 47 51  1  0  0  0  0
 48 53  1  0  0  0  0
 49 66  1  0  0  0  0
 50 53  1  0  0  0  0
 50 66  1  0  0  0  0
 51 70  1  0  0  0  0
 52 65  1  0  0  0  0
 53 64  1  0  0  0  0
 54 61  1  0  0  0  0
 55 62  1  0  0  0  0
 56 62  1  0  0  0  0
 57 62  1  0  0  0  0
 58 72  1  0  0  0  0
 59 73  1  0  0  0  0
 60 62  1  0  0  0  0
 60 71  1  0  0  0  0
 61 73  1  0  0  0  0
 63 64  1  0  0  0  0
M  CHG  1  73   1
M  ISO  4  34 101  41 100  72 100  82 101
M  END
> <Batch ID>
0093

> <Smiles>
CNC(C)C(=O)NC(C(=O)N1Cc2cc([101O:1][101CH2:1]C(=O)C(=O)Nc3ccc([100N:0](C)[100C:0](=O)N4CCCC(n5nc(-c6ccc(Oc7ccc(F)cc7F)cc6)c(C(N)=O)c5N)C4)cc3F)ccc2CC1C(=O)NC1CCCc2ccccc21)C(C)(C)C

> <Shape>
0.294

> <Color>
0.142

> <Negative vol penalty>
0.000

$$$$

  -OEChem-04052300373D

 86 94  0     1  0  0  0  0  0999 V2000
  -21.4497  -33.9658   19.9064 C   0  0  0  0  0  0  0  0  0  0  0  0
  -22.6361  -33.2634   20.0921 C   0  0  0  0  0  0  0  0  0  0  0  0
  -24.9170  -11.7945   20.8424 C   0  0  0  0  0  0  0  0  0  0  0  0
  -25.1781  -12.8191   23.0148 C   0  0  0  0  0  0  0  0  0  0  0  0
  -29.6766  -22.4520   24.2880 C   0  0  0  0  0  0  0  0  0  0  0  0
  -20.3228  -33.6401   20.6601 C   0  0  0  0  0  0  0  0  0  0  0  0
  -22.6966  -32.2355   21.0324 C   0  0  0  0  0  0  0  0  0  0  0  0
  -25.0496  -28.1166   19.2594 C   0  0  0  0  0  0  0  0  0  0  0  0
  -25.1477  -10.5398   21.4064 C   0  0  0  0  0  0  0  0  0  0  0  0
  -25.4088  -11.5644   23.5788 C   0  0  0  0  0  0  0  0  0  0  0  0
  -26.4427  -28.1486   19.2154 C   0  0  0  0  0  0  0  0  0  0  0  0
  -25.3106   -7.0290   22.3351 C   0  0  0  0  0  0  0  0  0  0  0  0
  -28.8972  -21.3835   24.7311 C   0  0  0  0  0  0  0  0  0  0  0  0
  -24.4685   -5.9833   21.9572 C   0  0  0  0  0  0  0  0  0  0  0  0
  -29.6280  -21.5572   22.0444 C   0  0  0  0  0  0  0  0  0  0  0  0
  -26.5306  -26.8669   21.2571 C   0  0  0  0  0  0  0  0  0  0  0  0
  -22.5675   -7.2054   22.8116 C   0  0  0  0  0  0  0  0  0  0  0  0
  -24.9322  -12.9342   21.6466 C   0  0  0  0  0  0  0  0  0  0  0  0
  -30.0420  -22.5389   22.9446 C   0  0  0  0  0  0  0  0  0  0  0  0
  -23.4542  -14.8779   20.9085 C   0  0  0  0  0  0  0  0  0  0  0  0
  -20.3668  -32.6013   21.6032 C   0  0  0  0  0  0  0  0  0  0  0  0
  -24.3853  -27.4678   20.3102 C   0  0  0  0  0  0  0  0  0  0  0  0
  -21.5696  -31.8965   21.8003 C   0  0  0  0  0  0  0  0  0  0  0  0
  -25.1290  -26.8259   21.3108 C   0  0  0  0  0  0  0  0  0  0  0  0
  -28.8486  -20.4887   22.4874 C   0  0  0  0  0  0  0  0  0  0  0  0
  -25.3936  -10.4247   22.7746 C   0  0  0  0  0  0  0  0  0  0  0  0
  -27.1834  -27.5262   20.2158 C   0  0  0  0  0  0  0  0  0  0  0  0
  -24.7813   -8.1629   22.9514 C   0  0  0  0  0  0  0  0  0  0  0  0
  -23.0969   -6.0715   22.1954 C   0  0  0  0  0  0  0  0  0  0  0  0
  -28.4832  -20.4018   23.8308 C   0  0  0  0  0  0  0  0  0  0  0  0
  -23.4097   -8.2511   23.1896 C   0  0  0  0  0  0  0  0  0  0  0  0
  -24.6945  -14.2306   21.0644 C   0  0  0  0  0  0  0  0  0  0  0  0
  -23.7641  -16.0738   20.3081 C   0  0  0  0  0  0  0  0  0  0  0  0
  -30.8720  -23.6773   22.4731 C   0  0  0  0  0  0  0  0  0  0  0  0
  -22.1395  -14.4377   21.2737 C   0  0  0  0  0  0  0  0  0  0  0  0
  -22.3853  -28.3836   22.6047 C   0  0  0  0  0  0  0  0  0  0  0  0
  -30.5692  -26.2368   20.0601 C   0  0  0  0  0  0  0  0  0  0  0  0
  -22.2303  -25.1991   23.2027 C   0  0  0  0  0  0  0  0  0  0  0  0
  -23.7056  -22.1311   22.9631 C   0  0  0  0  0  0  0  0  0  0  0  0
  -28.7068  -19.4301   20.2058 C   0  0  0  0  0  0  0  0  0  0  0  0
  -19.1365  -32.3169   22.4278 C   0  0  0  0  0  0  0  0  0  0  0  0
  -22.8821  -27.4194   20.3289 C   0  0  0  0  0  0  0  0  0  0  0  0
  -24.4640  -26.0985   22.4497 C   0  0  0  0  0  0  0  0  0  0  0  0
  -19.1779  -30.9662   23.1379 C   0  0  0  0  0  0  0  0  0  0  0  0
  -26.9949  -18.0744   17.3936 C   0  0  0  0  0  0  0  0  0  0  0  0
  -20.5277  -30.7622   23.8186 C   0  0  0  0  0  0  0  0  0  0  0  0
  -26.0933  -16.9979   18.0024 C   0  0  0  0  0  0  0  0  0  0  0  0
  -28.3444  -18.1529   18.1052 C   0  0  0  0  0  0  0  0  0  0  0  0
  -27.3676  -17.2344   20.1720 C   0  0  0  0  0  0  0  0  0  0  0  0
  -21.6678  -30.7585   22.7931 C   0  0  1  0  0  0  0  0  0  0  0  0
  -22.3095  -27.1708   21.7209 C   0  0  1  0  0  0  0  0  0  0  0  0
  -25.9725  -17.1619   19.5301 C   0  0  2  0  0  0  0  0  0  0  0  0
  -32.3129  -24.5615   19.3782 C   0  0  0  0  0  0  0  0  0  0  0  0
  -23.3548  -19.7232   23.5768 C   0  0  0  0  0  0  0  0  0  0  0  0
  -22.9516  -25.8347   26.0984 C   0  0  0  0  0  0  0  0  0  0  0  0
  -23.5125  -23.4155   26.4166 C   0  0  0  0  0  0  0  0  0  0  0  0
  -21.1844  -24.0866   25.8231 C   0  0  0  0  0  0  0  0  0  0  0  0
  -23.7482  -21.2818   20.1283 C   0  0  0  0  0  0  0  0  0  0  0  0
  -29.2349  -26.4494   20.7524 C   0  0  0  0  0  0  0  0  0  1  0  0
  -31.4725  -25.0957   20.5280 C   0  0  2  0  0  0  0  0  0  0  0  0
  -23.0018  -24.2357   24.0719 C   0  0  1  0  0  0  0  0  0  0  0  0
  -23.1669  -20.7872   22.5066 C   0  0  2  0  0  0  0  0  0  0  0  0
  -22.6754  -24.4084   25.5822 C   0  0  0  0  0  0  0  0  0  0  0  0
  -25.7162  -14.9551   20.6005 N   0  0  0  0  0  0  0  0  0  0  0  0
  -25.1185  -16.0700   20.1470 N   0  0  0  0  0  0  0  0  0  0  0  0
  -22.9920  -26.0846   22.4270 N   0  0  0  0  0  0  0  0  0  0  0  0
  -28.1512  -18.3122   19.5482 N   0  0  0  0  0  0  0  0  0  0  0  0
  -23.0076  -17.1176   19.9075 N   0  0  0  0  0  0  0  0  0  0  0  0
  -22.0000  -13.1826   21.8816 N   0  0  0  0  0  0  0  0  0  0  0  0
  -28.4298  -19.4923   21.5711 N   0  0  0  0  0  0  0  0  0  0  0  0
  -30.7211  -24.0311   21.1382 N   0  0  0  0  0  0  0  0  0  0  0  0
  -21.7228  -29.4876   22.1031 N   0  0  0  0  0  0  0  0  0  0  0  0
  -22.7243  -22.9022   23.5493 N   0  0  0  0  0  0  0  0  0  0  0  0
  -23.8698  -20.3401   21.2709 N   0  3  0  0  0  0  0  0  0  0  0  0
  -31.6445  -24.2220   23.2574 O   0  0  0  0  0  0  0  0  0  0  0  0
  -21.1169  -15.1296   21.0521 O   0  0  0  0  0  0  0  0  0  0  0  0
  -22.9981  -28.3218   23.6641 O   0  0  0  0  0  0  0  0  0  0  0  0
  -30.9469  -27.0018   19.1683 O   0  0  0  0  0  0  0  0  0  0  0  0
  -20.9973  -25.1624   23.2061 O   0  0  0  0  0  0  0  0  0  0  0  0
  -24.8803  -22.4620   22.8177 O   0  0  0  0  0  0  0  0  0  0  0  0
  -29.3559  -20.2846   19.5972 O   0  0  0  0  0  0  0  0  0  0  0  0
  -25.6186   -9.2005   23.3253 O   0  0  0  0  0  0  0  0  0  0  0  0
  -28.5433  -27.5564   20.1756 O   0  0  0  0  0  0  0  0  0  1  0  0
  -22.2881   -5.0679   21.8310 F   0  0  0  0  0  0  0  0  0  0  0  0
  -27.7342  -19.3796   24.2677 F   0  0  0  0  0  0  0  0  0  0  0  0
  -22.8952   -9.3384   23.7802 F   0  0  0  0  0  0  0  0  0  0  0  0
  1  2  1  0  0  0  0
  1  6  2  0  0  0  0
  2  7  2  0  0  0  0
  3  9  2  0  0  0  0
  3 18  1  0  0  0  0
  4 10  1  0  0  0  0
  4 18  2  0  0  0  0
  5 13  2  0  0  0  0
  5 19  1  0  0  0  0
  6 21  1  0  0  0  0
  7 23  1  0  0  0  0
  8 11  2  0  0  0  0
  8 22  1  0  0  0  0
  9 26  1  0  0  0  0
 10 26  2  0  0  0  0
 11 27  1  0  0  0  0
 12 14  2  0  0  0  0
 12 28  1  0  0  0  0
 13 30  1  0  0  0  0
 14 29  1  0  0  0  0
 15 19  2  0  0  0  0
 15 25  1  0  0  0  0
 16 24  1  0  0  0  0
 16 27  2  0  0  0  0
 17 29  2  0  0  0  0
 17 31  1  0  0  0  0
 18 32  1  0  0  0  0
 19 34  1  0  0  0  0
 20 32  1  0  0  0  0
 20 33  2  0  0  0  0
 20 35  1  0  0  0  0
 21 23  2  0  0  0  0
 21 41  1  0  0  0  0
 22 24  2  0  0  0  0
 22 42  1  0  0  0  0
 23 50  1  0  0  0  0
 24 43  1  0  0  0  0
 25 30  2  0  0  0  0
 25 70  1  0  0  0  0
 26 82  1  0  0  0  0
 27 83  1  0  0  0  0
 28 31  2  0  0  0  0
 28 82  1  0  0  0  0
 29 84  1  0  0  0  0
 30 85  1  0  0  0  0
 31 86  1  0  0  0  0
 32 64  2  0  0  0  0
 33 65  1  0  0  0  0
 33 68  1  0  0  0  0
 34 71  1  0  0  0  0
 34 75  2  0  0  0  0
 35 69  1  0  0  0  0
 35 76  2  0  0  0  0
 36 51  1  0  0  0  0
 36 72  1  0  0  0  0
 36 77  2  0  0  0  0
 37 59  1  0  0  0  0
 37 60  1  0  0  0  0
 37 78  2  0  0  0  0
 38 61  1  0  0  0  0
 38 66  1  0  0  0  0
 38 79  2  0  0  0  0
 39 62  1  0  0  0  0
 39 73  1  0  0  0  0
 39 80  2  0  0  0  0
 40 67  1  0  0  0  0
 40 70  1  0  0  0  0
 40 81  2  0  0  0  0
 41 44  1  0  0  0  0
 42 51  1  0  0  0  0
 43 66  1  0  0  0  0
 44 46  1  0  0  0  0
 45 47  1  0  0  0  0
 45 48  1  0  0  0  0
 46 50  1  0  0  0  0
 47 52  1  0  0  0  0
 48 67  1  0  0  0  0
 49 52  1  0  0  0  0
 49 67  1  0  0  0  0
 50 72  1  0  0  0  0
 51 66  1  0  0  0  0
 52 65  1  0  0  0  0
 53 60  1  0  0  0  0
 54 62  1  0  0  0  0
 55 63  1  0  0  0  0
 56 63  1  0  0  0  0
 57 63  1  0  0  0  0
 58 74  1  0  0  0  0
 59 83  1  0  0  0  0
 60 71  1  0  0  0  0
 61 63  1  0  0  0  0
 61 73  1  0  0  0  0
 62 74  1  0  0  0  0
 64 65  1  0  0  0  0
M  CHG  1  74   1
M  ISO  4  40 100  59 101  70 100  83 101
M  END
> <Batch ID>
0093

> <Smiles>
CNC(C)C(=O)NC(C(=O)N1Cc2cc([101O:1][101CH2:1]C(=O)C(C)NC(=O)c3ccc(F)c([100NH:0][100C:0](=O)N4CCCC(n5nc(-c6ccc(Oc7ccc(F)cc7F)cc6)c(C(N)=O)c5N)C4)c3)ccc2CC1C(=O)NC1CCCc2ccccc21)C(C)(C)C

> <Shape>
0.196

> <Color>
0.100

> <Negative vol penalty>
0.000

$$$$

  -OEChem-04052300373D

 86 94  0     1  0  0  0  0  0999 V2000
  -27.7664  -37.8660   21.5023 C   0  0  0  0  0  0  0  0  0  0  0  0
  -28.2837  -36.6207   21.1602 C   0  0  0  0  0  0  0  0  0  0  0  0
  -22.5800  -16.2705   19.7817 C   0  0  0  0  0  0  0  0  0  0  0  0
  -22.5711  -13.8777   19.4478 C   0  0  0  0  0  0  0  0  0  0  0  0
  -27.5465  -19.3932   19.9362 C   0  0  0  0  0  0  0  0  0  0  0  0
  -29.3410  -20.2289   18.5512 C   0  0  0  0  0  0  0  0  0  0  0  0
  -26.7437  -37.9596   22.4452 C   0  0  0  0  0  0  0  0  0  0  0  0
  -27.7792  -35.4683   21.7618 C   0  0  0  0  0  0  0  0  0  0  0  0
  -27.1330  -29.9508   19.1838 C   0  0  0  0  0  0  0  0  0  0  0  0
  -27.2591  -20.6942   20.3490 C   0  0  0  0  0  0  0  0  0  0  0  0
  -29.0537  -21.5300   18.9639 C   0  0  0  0  0  0  0  0  0  0  0  0
  -21.5283  -16.4010   18.8748 C   0  0  0  0  0  0  0  0  0  0  0  0
  -21.5193  -14.0082   18.5409 C   0  0  0  0  0  0  0  0  0  0  0  0
  -27.9166  -28.7984   19.2256 C   0  0  0  0  0  0  0  0  0  0  0  0
  -21.1210  -16.4199   15.5195 C   0  0  0  0  0  0  0  0  0  0  0  0
  -21.2105  -17.4340   14.5661 C   0  0  0  0  0  0  0  0  0  0  0  0
  -26.5335  -27.9298   21.0010 C   0  0  0  0  0  0  0  0  0  0  0  0
  -19.1750  -18.4163   15.4198 C   0  0  0  0  0  0  0  0  0  0  0  0
  -23.1014  -15.0088   20.0682 C   0  0  0  0  0  0  0  0  0  0  0  0
  -28.5875  -19.1605   19.0373 C   0  0  0  0  0  0  0  0  0  0  0  0
  -24.0927  -14.6795   22.3955 C   0  0  0  0  0  0  0  0  0  0  0  0
  -26.2198  -36.8070   23.0515 C   0  0  0  0  0  0  0  0  0  0  0  0
  -26.0486  -30.1064   20.0592 C   0  0  0  0  0  0  0  0  0  0  0  0
  -26.7494  -35.5467   22.7147 C   0  0  0  0  0  0  0  0  0  0  0  0
  -25.7363  -29.0840   20.9665 C   0  0  0  0  0  0  0  0  0  0  0  0
  -28.0127  -21.7626   19.8628 C   0  0  0  0  0  0  0  0  0  0  0  0
  -20.9979  -15.2699   18.2544 C   0  0  0  0  0  0  0  0  0  0  0  0
  -27.6186  -27.7889   20.1363 C   0  0  0  0  0  0  0  0  0  0  0  0
  -20.0585  -16.4039   16.4231 C   0  0  0  0  0  0  0  0  0  0  0  0
  -20.2375  -18.4322   14.5162 C   0  0  0  0  0  0  0  0  0  0  0  0
  -19.0855  -17.4021   16.3733 C   0  0  0  0  0  0  0  0  0  0  0  0
  -24.1882  -14.8734   21.0045 C   0  0  0  0  0  0  0  0  0  0  0  0
  -25.3962  -14.6141   22.8234 C   0  0  0  0  0  0  0  0  0  0  0  0
  -28.8913  -17.7856   18.6012 C   0  0  0  0  0  0  0  0  0  0  0  0
  -22.9297  -14.5683   23.2266 C   0  0  0  0  0  0  0  0  0  0  0  0
  -25.3044  -32.1640   22.3648 C   0  0  0  0  0  0  0  0  0  0  0  0
  -22.4908  -30.5496   22.3621 C   0  0  0  0  0  0  0  0  0  0  0  0
  -28.3638  -24.2544   19.9006 C   0  0  0  0  0  0  0  0  0  0  0  0
  -20.8039  -27.6694   21.6512 C   0  0  0  0  0  0  0  0  0  0  0  0
  -27.8264  -15.6524   18.0289 C   0  0  0  0  0  0  0  0  0  0  0  0
  -25.1469  -36.9621   24.1001 C   0  0  0  0  0  0  0  0  0  0  0  0
  -25.1970  -31.3439   19.9832 C   0  0  0  0  0  0  0  0  0  0  0  0
  -24.5706  -29.1934   21.9140 C   0  0  0  0  0  0  0  0  0  0  0  0
  -24.4106  -35.6625   24.4151 C   0  0  0  0  0  0  0  0  0  0  0  0
  -28.2790  -12.7962   20.1157 C   0  0  0  0  0  0  0  0  0  0  0  0
  -25.4027  -34.5197   24.6061 C   0  0  0  0  0  0  0  0  0  0  0  0
  -28.2599  -13.3481   21.5383 C   0  0  0  0  0  0  0  0  0  0  0  0
  -28.9649  -13.7658   19.1634 C   0  0  0  0  0  0  0  0  0  0  0  0
  -28.2680  -15.7069   20.5451 C   0  0  0  0  0  0  0  0  0  0  0  0
  -26.2115  -34.2716   23.3271 C   0  0  1  0  0  0  0  0  0  0  0  0
  -24.4284  -31.6203   21.2718 C   0  0  1  0  0  0  0  0  0  0  0  0
  -27.6844  -14.7719   21.6264 C   0  0  1  0  0  0  0  0  0  0  0  0
  -18.5212  -26.6368   21.7945 C   0  0  0  0  0  0  0  0  0  0  0  0
  -27.8180  -17.4640   15.5175 C   0  0  0  0  0  0  0  0  0  0  0  0
  -25.6984  -17.1147   16.8247 C   0  0  0  0  0  0  0  0  0  0  0  0
  -22.8688  -30.1363   25.3615 C   0  0  0  0  0  0  0  0  0  0  0  0
  -21.1214  -28.3460   25.2644 C   0  0  0  0  0  0  0  0  0  0  0  0
  -20.5309  -30.6961   24.6720 C   0  0  0  0  0  0  0  0  0  0  0  0
  -20.6497  -27.3218   18.7162 C   0  0  0  0  0  0  0  0  0  0  0  0
  -27.7371  -25.4560   20.5831 C   0  0  0  0  0  0  0  0  0  1  0  0
  -21.9531  -29.3374   23.0835 C   0  0  1  0  0  0  0  0  0  0  0  0
  -19.4926  -27.4225   20.9274 C   0  0  2  0  0  0  0  0  0  0  0  0
  -27.1155  -17.6726   16.8533 C   0  0  0  0  0  0  0  0  0  0  0  0
  -21.6418  -29.6274   24.5789 C   0  0  0  0  0  0  0  0  0  0  0  0
  -25.4525  -14.9279   20.5771 N   0  0  0  0  0  0  0  0  0  0  0  0
  -26.1634  -14.7672   21.7062 N   0  0  0  0  0  0  0  0  0  0  0  0
  -23.7717  -30.4253   21.8055 N   0  0  0  0  0  0  0  0  0  0  0  0
  -28.3464  -15.0898   19.2117 N   0  0  0  0  0  0  0  0  0  0  0  0
  -25.9495  -14.4411   24.0425 N   0  0  0  0  0  0  0  0  0  0  0  0
  -21.6672  -14.6578   22.6245 N   0  0  0  0  0  0  0  0  0  0  0  0
  -27.7202  -23.0821   20.2821 N   0  0  0  0  0  0  0  0  0  0  0  0
  -25.4187  -33.5411   22.3615 N   0  0  0  0  0  0  0  0  0  0  0  0
  -20.8029  -28.8799   22.3115 N   0  0  0  0  0  0  0  0  0  0  0  0
  -27.8822  -17.0585   17.9383 N   0  0  0  0  0  0  0  0  0  0  0  0
  -19.7300  -26.6540   19.6728 N   0  3  0  0  0  0  0  0  0  0  0  0
  -30.0251  -17.3697   18.8382 O   0  0  0  0  0  0  0  0  0  0  0  0
  -23.0077  -14.4111   24.4687 O   0  0  0  0  0  0  0  0  0  0  0  0
  -25.8359  -31.3915   23.1537 O   0  0  0  0  0  0  0  0  0  0  0  0
  -21.7970  -31.5669   22.2887 O   0  0  0  0  0  0  0  0  0  0  0  0
  -29.3090  -24.3748   19.1281 O   0  0  0  0  0  0  0  0  0  0  0  0
  -21.7346  -26.8668   21.6357 O   0  0  0  0  0  0  0  0  0  0  0  0
  -27.3691  -14.9653   17.1085 O   0  0  0  0  0  0  0  0  0  0  0  0
  -19.9715  -15.3968   17.3696 O   0  0  0  0  0  0  0  0  0  0  0  0
  -28.3822  -26.6633   20.1796 O   0  0  0  0  0  0  0  0  0  1  0  0
  -20.3244  -19.4069   13.6015 F   0  0  0  0  0  0  0  0  0  0  0  0
  -18.0630  -17.3927   17.2395 F   0  0  0  0  0  0  0  0  0  0  0  0
  1  2  1  0  0  0  0
  1  7  2  0  0  0  0
  2  8  2  0  0  0  0
  3 12  2  0  0  0  0
  3 19  1  0  0  0  0
  4 13  1  0  0  0  0
  4 19  2  0  0  0  0
  5 10  2  0  0  0  0
  5 20  1  0  0  0  0
  6 11  1  0  0  0  0
  6 20  2  0  0  0  0
  7 22  1  0  0  0  0
  8 24  1  0  0  0  0
  9 14  2  0  0  0  0
  9 23  1  0  0  0  0
 10 26  1  0  0  0  0
 11 26  2  0  0  0  0
 12 27  1  0  0  0  0
 13 27  2  0  0  0  0
 14 28  1  0  0  0  0
 15 16  2  0  0  0  0
 15 29  1  0  0  0  0
 16 30  1  0  0  0  0
 17 25  1  0  0  0  0
 17 28  2  0  0  0  0
 18 30  2  0  0  0  0
 18 31  1  0  0  0  0
 19 32  1  0  0  0  0
 20 34  1  0  0  0  0
 21 32  1  0  0  0  0
 21 33  2  0  0  0  0
 21 35  1  0  0  0  0
 22 24  2  0  0  0  0
 22 41  1  0  0  0  0
 23 25  2  0  0  0  0
 23 42  1  0  0  0  0
 24 50  1  0  0  0  0
 25 43  1  0  0  0  0
 26 71  1  0  0  0  0
 27 83  1  0  0  0  0
 28 84  1  0  0  0  0
 29 31  2  0  0  0  0
 29 83  1  0  0  0  0
 30 85  1  0  0  0  0
 31 86  1  0  0  0  0
 32 65  2  0  0  0  0
 33 66  1  0  0  0  0
 33 69  1  0  0  0  0
 34 74  1  0  0  0  0
 34 76  2  0  0  0  0
 35 70  1  0  0  0  0
 35 77  2  0  0  0  0
 36 51  1  0  0  0  0
 36 72  1  0  0  0  0
 36 78  2  0  0  0  0
 37 61  1  0  0  0  0
 37 67  1  0  0  0  0
 37 79  2  0  0  0  0
 38 60  1  0  0  0  0
 38 71  1  0  0  0  0
 38 80  2  0  0  0  0
 39 62  1  0  0  0  0
 39 73  1  0  0  0  0
 39 81  2  0  0  0  0
 40 68  1  0  0  0  0
 40 74  1  0  0  0  0
 40 82  2  0  0  0  0
 41 44  1  0  0  0  0
 42 51  1  0  0  0  0
 43 67  1  0  0  0  0
 44 46  1  0  0  0  0
 45 47  1  0  0  0  0
 45 48  1  0  0  0  0
 46 50  1  0  0  0  0
 47 52  1  0  0  0  0
 48 68  1  0  0  0  0
 49 52  1  0  0  0  0
 49 68  1  0  0  0  0
 50 72  1  0  0  0  0
 51 67  1  0  0  0  0
 52 66  1  0  0  0  0
 53 62  1  0  0  0  0
 54 63  1  0  0  0  0
 55 63  1  0  0  0  0
 56 64  1  0  0  0  0
 57 64  1  0  0  0  0
 58 64  1  0  0  0  0
 59 75  1  0  0  0  0
 60 84  1  0  0  0  0
 61 64  1  0  0  0  0
 61 73  1  0  0  0  0
 62 75  1  0  0  0  0
 63 74  1  0  0  0  0
 65 66  1  0  0  0  0
M  CHG  1  75   1
M  ISO  4  40 100  60 101  74 100  84 101
M  END
> <Batch ID>
0093

> <Smiles>
CNC(C)C(=O)NC(C(=O)N1Cc2cc([101O:1][101CH2:1]C(=O)Nc3ccc(C(=O)[100N:0](C(C)C)[100C:0](=O)N4CCCC(n5nc(-c6ccc(Oc7ccc(F)cc7F)cc6)c(C(N)=O)c5N)C4)cc3)ccc2CC1C(=O)NC1CCCc2ccccc21)C(C)(C)C

> <Shape>
0.262

> <Color>
0.079

> <Negative vol penalty>
0.000

$$$$

  -OEChem-04052300373D

 87 96  0     1  0  0  0  0  0999 V2000
  -28.8085  -31.9153   26.4903 C   0  0  0  0  0  0  0  0  0  0  0  0
  -28.6148  -30.7494   25.7564 C   0  0  0  0  0  0  0  0  0  0  0  0
  -23.1477  -10.6013   20.7440 C   0  0  0  0  0  0  0  0  0  0  0  0
  -24.4385   -9.1271   22.1575 C   0  0  0  0  0  0  0  0  0  0  0  0
  -27.7182  -32.7195   26.8196 C   0  0  0  0  0  0  0  0  0  0  0  0
  -27.3305  -30.3865   25.3523 C   0  0  0  0  0  0  0  0  0  0  0  0
  -27.1718  -28.8564   20.5275 C   0  0  0  0  0  0  0  0  0  0  0  0
  -22.1451   -9.6359   20.6528 C   0  0  0  0  0  0  0  0  0  0  0  0
  -23.4358   -8.1618   22.0663 C   0  0  0  0  0  0  0  0  0  0  0  0
  -27.6153  -27.5630   20.2548 C   0  0  0  0  0  0  0  0  0  0  0  0
  -20.4112   -7.5755   23.4551 C   0  0  0  0  0  0  0  0  0  0  0  0
  -20.0240   -6.9325   24.6307 C   0  0  0  0  0  0  0  0  0  0  0  0
  -25.3279  -26.7998   20.1853 C   0  0  0  0  0  0  0  0  0  0  0  0
  -29.3547  -20.5051   17.8323 C   0  0  0  0  0  0  0  0  0  0  0  0
  -30.0883  -18.2403   17.4207 C   0  0  0  0  0  0  0  0  0  0  0  0
  -20.6665   -4.8066   23.6796 C   0  0  0  0  0  0  0  0  0  0  0  0
  -24.2945  -10.3469   21.4963 C   0  0  0  0  0  0  0  0  0  0  0  0
  -25.4434  -12.3646   22.5529 C   0  0  0  0  0  0  0  0  0  0  0  0
  -26.4211  -32.3713   26.4110 C   0  0  0  0  0  0  0  0  0  0  0  0
  -25.8011  -29.1295   20.6422 C   0  0  0  0  0  0  0  0  0  0  0  0
  -26.2217  -31.1861   25.6776 C   0  0  0  0  0  0  0  0  0  0  0  0
  -24.8695  -28.0980   20.4571 C   0  0  0  0  0  0  0  0  0  0  0  0
  -28.7233  -20.0876   19.0039 C   0  0  0  0  0  0  0  0  0  0  0  0
  -30.0372  -19.5814   17.0407 C   0  0  0  0  0  0  0  0  0  0  0  0
  -29.4570  -17.8228   18.5923 C   0  0  0  0  0  0  0  0  0  0  0  0
  -22.2891   -8.4162   21.3139 C   0  0  0  0  0  0  0  0  0  0  0  0
  -26.6934  -26.5340   20.0865 C   0  0  0  0  0  0  0  0  0  0  0  0
  -20.9260   -6.8341   22.3916 C   0  0  0  0  0  0  0  0  0  0  0  0
  -20.1516   -5.5480   24.7430 C   0  0  0  0  0  0  0  0  0  0  0  0
  -21.0537   -5.4496   22.5039 C   0  0  0  0  0  0  0  0  0  0  0  0
  -28.7744  -18.7465   19.3840 C   0  0  0  0  0  0  0  0  0  0  0  0
  -25.3309  -11.3435   21.5904 C   0  0  0  0  0  0  0  0  0  0  0  0
  -26.5904  -13.0367   22.2079 C   0  0  0  0  0  0  0  0  0  0  0  0
  -27.1615  -23.0085   20.5429 C   0  0  0  0  0  0  0  0  0  0  0  0
  -26.8092  -21.9290   21.4931 C   0  0  0  0  0  0  0  0  0  0  0  0
  -26.7942  -24.2799   20.7029 C   0  0  0  0  0  0  0  0  0  1  0  0
  -24.5877  -12.6775   23.6599 C   0  0  0  0  0  0  0  0  0  0  0  0
  -23.9144  -30.2027   22.9643 C   0  0  0  0  0  0  0  0  0  0  0  0
  -21.6757  -30.1961   20.6168 C   0  0  0  0  0  0  0  0  0  0  0  0
  -20.6221  -28.9449   17.6216 C   0  0  0  0  0  0  0  0  0  0  0  0
  -29.5994  -15.4046   18.0205 C   0  0  0  0  0  0  0  0  0  0  0  0
  -25.2678  -33.2476   26.8314 C   0  0  0  0  0  0  0  0  0  0  0  0
  -25.3379  -30.5352   20.9103 C   0  0  0  0  0  0  0  0  0  0  0  0
  -23.3863  -28.3428   20.5500 C   0  0  0  0  0  0  0  0  0  0  0  0
  -27.9653  -22.4126   19.4346 C   0  0  0  0  0  0  0  0  0  0  0  0
  -27.3789  -20.6248   21.0148 C   0  0  0  0  0  0  0  0  0  0  0  0
  -23.9863  -32.9871   26.0438 C   0  0  0  0  0  0  0  0  0  0  0  0
  -30.2389  -11.8828   18.9138 C   0  0  0  0  0  0  0  0  0  0  0  0
  -23.7153  -31.4892   25.9454 C   0  0  0  0  0  0  0  0  0  0  0  0
  -28.9930  -11.5023   19.7120 C   0  0  0  0  0  0  0  0  0  0  0  0
  -29.9384  -12.9552   17.8709 C   0  0  0  0  0  0  0  0  0  0  0  0
  -28.0501  -13.7973   19.2332 C   0  0  0  0  0  0  0  0  0  0  0  0
  -24.8469  -30.7716   25.1998 C   0  0  1  0  0  0  0  0  0  0  0  0
  -23.9387  -30.5981   21.5149 C   0  0  1  0  0  0  0  0  0  0  0  0
  -28.3297  -12.7496   20.3213 C   0  0  1  0  0  0  0  0  0  0  0  0
  -18.7355  -29.1036   15.9745 C   0  0  0  0  0  0  0  0  0  0  0  0
  -19.9250  -28.5122   22.4634 C   0  0  0  0  0  0  0  0  0  0  0  0
  -18.5229  -27.9168   20.4765 C   0  0  0  0  0  0  0  0  0  0  0  0
  -18.7023  -30.2954   21.2065 C   0  0  0  0  0  0  0  0  0  0  0  0
  -29.7174  -16.1121   20.3985 C   0  0  0  0  0  0  0  0  0  0  0  0
  -22.4234  -29.8941   15.4738 C   0  0  0  0  0  0  0  0  0  0  0  0
  -20.6823  -29.1889   20.0897 C   0  0  1  0  0  0  0  0  0  0  0  0
  -20.1066  -29.6302   16.3690 C   0  0  2  0  0  0  0  0  0  0  0  0
  -19.4861  -28.9730   21.0591 C   0  0  0  0  0  0  0  0  0  0  0  0
  -26.3268  -11.3615   20.7006 N   0  0  0  0  0  0  0  0  0  0  0  0
  -27.0761  -12.4023   21.1026 N   0  0  0  0  0  0  0  0  0  0  0  0
  -28.0595  -20.9893   19.7728 N   0  0  3  0  0  0  0  0  0  0  0  0
  -22.9833  -29.7328   20.8201 N   0  0  0  0  0  0  0  0  0  0  0  0
  -29.2671  -14.1102   18.4684 N   0  0  0  0  0  0  0  0  0  0  0  0
  -30.6747  -20.0033   15.8553 N   0  0  0  0  0  0  0  0  0  0  0  0
  -27.2208  -14.1027   22.7452 N   0  0  0  0  0  0  0  0  0  0  0  0
  -23.4509  -11.8852   23.8705 N   0  0  0  0  0  0  0  0  0  0  0  0
  -24.7228  -30.9786   23.7728 N   0  0  0  0  0  0  0  0  0  0  0  0
  -20.2983  -29.6516   18.7605 N   0  0  0  0  0  0  0  0  0  0  0  0
  -29.5105  -16.4337   18.9827 N   0  0  0  0  0  0  0  0  0  0  0  0
  -21.0425  -29.4028   15.2317 N   0  3  0  0  0  0  0  0  0  0  0  0
  -26.1548  -22.0755   22.5130 O   0  0  0  0  0  0  0  0  0  0  0  0
  -24.8153  -13.6415   24.4296 O   0  0  0  0  0  0  0  0  0  0  0  0
  -23.2129  -29.2640   23.3228 O   0  0  0  0  0  0  0  0  0  0  0  0
  -21.3067  -31.3531   20.8333 O   0  0  0  0  0  0  0  0  0  0  0  0
  -21.2461  -27.8865   17.5930 O   0  0  0  0  0  0  0  0  0  0  0  0
  -29.9742  -15.6176   16.8613 O   0  0  0  0  0  0  0  0  0  0  0  0
  -21.3108   -7.4741   21.2254 O   0  0  0  0  0  0  0  0  0  0  0  0
  -27.1236  -25.2705   19.8209 O   0  0  0  0  0  0  0  0  0  1  0  0
  -19.7812   -4.9309   25.8726 F   0  0  0  0  0  0  0  0  0  0  0  0
  -21.5487   -4.7321   21.4860 F   0  0  0  0  0  0  0  0  0  0  0  0
  -28.1668  -18.3456   20.5111 F   0  0  0  0  0  0  0  0  0  0  0  0
  1  2  1  0  0  0  0
  1  5  2  0  0  0  0
  2  6  2  0  0  0  0
  3  8  2  0  0  0  0
  3 17  1  0  0  0  0
  4  9  1  0  0  0  0
  4 17  2  0  0  0  0
  5 19  1  0  0  0  0
  6 21  1  0  0  0  0
  7 10  2  0  0  0  0
  7 20  1  0  0  0  0
  8 26  1  0  0  0  0
  9 26  2  0  0  0  0
 10 27  1  0  0  0  0
 11 12  2  0  0  0  0
 11 28  1  0  0  0  0
 12 29  1  0  0  0  0
 13 22  1  0  0  0  0
 13 27  2  0  0  0  0
 14 23  1  0  0  0  0
 14 24  2  0  0  0  0
 15 24  1  0  0  0  0
 15 25  2  0  0  0  0
 16 29  2  0  0  0  0
 16 30  1  0  0  0  0
 17 32  1  0  0  0  0
 18 32  1  0  0  0  0
 18 33  2  0  0  0  0
 18 37  1  0  0  0  0
 19 21  2  0  0  0  0
 19 42  1  0  0  0  0
 20 22  2  0  0  0  0
 20 43  1  0  0  0  0
 21 53  1  0  0  0  0
 22 44  1  0  0  0  0
 23 31  2  0  0  0  0
 23 67  1  0  0  0  0
 24 70  1  0  0  0  0
 25 31  1  0  0  0  0
 25 75  1  0  0  0  0
 26 83  1  0  0  0  0
 27 84  1  0  0  0  0
 28 30  2  0  0  0  0
 28 83  1  0  0  0  0
 29 85  1  0  0  0  0
 30 86  1  0  0  0  0
 31 87  1  0  0  0  0
 32 65  2  0  0  0  0
 33 66  1  0  0  0  0
 33 71  1  0  0  0  0
 34 35  1  0  0  0  0
 34 36  2  0  0  0  0
 34 45  1  0  0  0  0
 35 46  1  0  0  0  0
 35 77  2  0  0  0  0
 36 84  1  0  0  0  0
 37 72  1  0  0  0  0
 37 78  2  0  0  0  0
 38 54  1  0  0  0  0
 38 73  1  0  0  0  0
 38 79  2  0  0  0  0
 39 62  1  0  0  0  0
 39 68  1  0  0  0  0
 39 80  2  0  0  0  0
 40 63  1  0  0  0  0
 40 74  1  0  0  0  0
 40 81  2  0  0  0  0
 41 69  1  0  0  0  0
 41 75  1  0  0  0  0
 41 82  2  0  0  0  0
 42 47  1  0  0  0  0
 43 54  1  0  0  0  0
 44 68  1  0  0  0  0
 45 67  1  0  0  0  0
 46 67  1  0  0  0  0
 47 49  1  0  0  0  0
 48 50  1  0  0  0  0
 48 51  1  0  0  0  0
 49 53  1  0  0  0  0
 50 55  1  0  0  0  0
 51 69  1  0  0  0  0
 52 55  1  0  0  0  0
 52 69  1  0  0  0  0
 53 73  1  0  0  0  0
 54 68  1  0  0  0  0
 55 66  1  0  0  0  0
 56 63  1  0  0  0  0
 57 64  1  0  0  0  0
 58 64  1  0  0  0  0
 59 64  1  0  0  0  0
 60 75  1  0  0  0  0
 61 76  1  0  0  0  0
 62 64  1  0  0  0  0
 62 74  1  0  0  0  0
 63 76  1  0  0  0  0
 65 66  1  0  0  0  0
M  CHG  1  76   1
M  ISO  4  36 101  41 100  75 100  84 101
M  END
> <Batch ID>
0093

> <Smiles>
CNC(C)C(=O)NC(C(=O)N1Cc2cc([101O:1][101CH:1]=C3CN(c4cc(N)cc([100N:0](C)[100C:0](=O)N5CCCC(n6nc(-c7ccc(Oc8ccc(F)cc8F)cc7)c(C(N)=O)c6N)C5)c4F)CC3=O)ccc2CC1C(=O)NC1CCCc2ccccc21)C(C)(C)C

> <Shape>
0.323

> <Color>
0.105

> <Negative vol penalty>
0.000

$$$$

  -OEChem-04052300373D

 79 87  0     1  0  0  0  0  0999 V2000
  -20.3374  -23.5159   22.9672 C   0  0  0  0  0  0  0  0  0  0  0  0
  -21.5965  -23.8651   22.4894 C   0  0  0  0  0  0  0  0  0  0  0  0
  -25.6315  -13.7077   21.2704 C   0  0  0  0  0  0  0  0  0  0  0  0
  -24.5061  -12.8299   19.3211 C   0  0  0  0  0  0  0  0  0  0  0  0
  -19.3474  -24.4891   23.0961 C   0  0  0  0  0  0  0  0  0  0  0  0
  -21.8659  -25.1877   22.1393 C   0  0  0  0  0  0  0  0  0  0  0  0
  -26.3400  -26.7881   23.8902 C   0  0  0  0  0  0  0  0  0  0  0  0
  -25.0629  -12.7019   22.0517 C   0  0  0  0  0  0  0  0  0  0  0  0
  -23.9374  -11.8240   20.1024 C   0  0  0  0  0  0  0  0  0  0  0  0
  -27.4783  -26.3801   23.1961 C   0  0  0  0  0  0  0  0  0  0  0  0
  -24.8909   -8.8685   21.4353 C   0  0  0  0  0  0  0  0  0  0  0  0
  -24.9074   -7.5691   20.9286 C   0  0  0  0  0  0  0  0  0  0  0  0
  -31.0362  -23.5075   18.4635 C   0  0  0  0  0  0  0  0  0  0  0  0
  -30.4654  -22.3942   17.8019 C   0  0  0  0  0  0  0  0  0  0  0  0
  -27.5629  -28.5212   22.0882 C   0  0  0  0  0  0  0  0  0  0  0  0
  -22.4934   -7.5081   21.0064 C   0  0  0  0  0  0  0  0  0  0  0  0
  -25.3531  -13.7718   19.9050 C   0  0  0  0  0  0  0  0  0  0  0  0
  -27.1674  -14.7625   18.4102 C   0  0  0  0  0  0  0  0  0  0  0  0
  -19.6078  -25.8261   22.7564 C   0  0  0  0  0  0  0  0  0  0  0  0
  -25.7974  -28.0640   23.6800 C   0  0  0  0  0  0  0  0  0  0  0  0
  -20.8780  -26.1795   22.2625 C   0  0  0  0  0  0  0  0  0  0  0  0
  -26.4192  -28.9440   22.7827 C   0  0  0  0  0  0  0  0  0  0  0  0
  -24.2158  -11.7600   21.4677 C   0  0  0  0  0  0  0  0  0  0  0  0
  -28.0882  -27.2456   22.2929 C   0  0  0  0  0  0  0  0  0  0  0  0
  -23.6757   -9.4878   21.7276 C   0  0  0  0  0  0  0  0  0  0  0  0
  -23.7087   -6.8889   20.7141 C   0  0  0  0  0  0  0  0  0  0  0  0
  -22.4770   -8.8076   21.5131 C   0  0  0  0  0  0  0  0  0  0  0  0
  -25.9397  -14.8109   19.0975 C   0  0  0  0  0  0  0  0  0  0  0  0
  -30.0256  -24.0679   19.2096 C   0  0  0  0  0  0  0  0  0  0  0  0
  -27.2675  -15.9885   17.7993 C   0  0  0  0  0  0  0  0  0  0  0  0
  -29.1467  -22.3534   18.1910 C   0  0  0  0  0  0  0  0  0  0  0  0
  -30.1102  -25.2529   20.0798 C   0  0  0  0  0  0  0  0  0  0  0  0
  -29.1012  -25.7527   20.8043 C   0  0  0  0  0  0  0  0  0  1  0  0
  -28.1311  -13.7039   18.3311 C   0  0  0  0  0  0  0  0  0  0  0  0
  -23.0219  -29.1704   22.5955 C   0  0  0  0  0  0  0  0  0  0  0  0
  -24.2725  -32.0368   23.4571 C   0  0  0  0  0  0  0  0  0  0  0  0
  -27.0530  -33.9161   24.0769 C   0  0  0  0  0  0  0  0  0  0  0  0
  -26.7788  -21.6112   18.3840 C   0  0  0  0  0  0  0  0  0  0  0  0
  -18.4915  -26.8341   22.8681 C   0  0  0  0  0  0  0  0  0  0  0  0
  -24.5847  -28.4988   24.4563 C   0  0  0  0  0  0  0  0  0  0  0  0
  -25.8880  -30.3316   22.5362 C   0  0  0  0  0  0  0  0  0  0  0  0
  -18.9724  -28.2823   22.8294 C   0  0  0  0  0  0  0  0  0  0  0  0
  -23.8698  -19.6752   17.2007 C   0  0  0  0  0  0  0  0  0  0  0  0
  -19.9726  -28.4825   21.6952 C   0  0  0  0  0  0  0  0  0  0  0  0
  -24.2297  -18.2440   17.5959 C   0  0  0  0  0  0  0  0  0  0  0  0
  -24.4881  -20.6978   18.1495 C   0  0  0  0  0  0  0  0  0  0  0  0
  -26.3261  -19.1306   18.6934 C   0  0  0  0  0  0  0  0  0  0  0  0
  -21.2163  -27.6082   21.8956 C   0  0  1  0  0  0  0  0  0  0  0  0
  -23.8188  -29.6330   23.7824 C   0  0  1  0  0  0  0  0  0  0  0  0
  -25.7534  -18.0789   17.7313 C   0  0  1  0  0  0  0  0  0  0  0  0
  -27.7587  -36.2355   24.7246 C   0  0  0  0  0  0  0  0  0  0  0  0
  -23.6813  -33.0050   20.6246 C   0  0  0  0  0  0  0  0  0  0  0  0
  -25.2280  -34.9306   21.0348 C   0  0  0  0  0  0  0  0  0  0  0  0
  -23.1721  -34.6669   22.4228 C   0  0  0  0  0  0  0  0  0  0  0  0
  -28.2828  -20.5022   16.7476 C   0  0  0  0  0  0  0  0  0  0  0  0
  -28.3558  -32.9530   26.5536 C   0  0  0  0  0  0  0  0  0  0  0  0
  -25.1139  -33.0857   22.7711 C   0  0  1  0  0  0  0  0  0  0  0  0
  -27.4064  -34.8435   25.2255 C   0  0  2  0  0  0  0  0  0  0  0  0
  -24.3080  -33.8953   21.7163 C   0  0  0  0  0  0  0  0  0  0  0  0
  -25.3055  -15.9756   18.9386 N   0  0  0  0  0  0  0  0  0  0  0  0
  -26.1378  -16.6704   18.1446 N   0  0  0  0  0  0  0  0  0  0  0  0
  -24.6964  -30.7079   23.3147 N   0  0  0  0  0  0  0  0  0  0  0  0
  -25.9293  -20.4901   18.2957 N   0  0  0  0  0  0  0  0  0  0  0  0
  -28.2107  -16.5391   17.0058 N   0  0  0  0  0  0  0  0  0  0  0  0
  -27.8712  -12.5109   19.0194 N   0  0  0  0  0  0  0  0  0  0  0  0
  -22.0904  -28.1930   22.8897 N   0  0  0  0  0  0  0  0  0  0  0  0
  -25.6961  -33.9002   23.8322 N   0  0  0  0  0  0  0  0  0  0  0  0
  -28.0748  -21.4488   17.8483 N   0  0  0  0  0  0  0  0  0  0  0  0
  -28.5723  -34.3078   25.9838 N   0  3  0  0  0  0  0  0  0  0  0  0
  -29.1990  -13.8186   17.6831 O   0  0  0  0  0  0  0  0  0  0  0  0
  -23.2352  -29.6647   21.4947 O   0  0  0  0  0  0  0  0  0  0  0  0
  -23.2799  -32.3843   24.1018 O   0  0  0  0  0  0  0  0  0  0  0  0
  -27.8966  -33.2730   23.4561 O   0  0  0  0  0  0  0  0  0  0  0  0
  -26.3987  -22.6807   18.8752 O   0  0  0  0  0  0  0  0  0  0  0  0
  -28.8706  -23.3702   19.0492 O   0  0  0  0  0  0  0  0  0  0  0  0
  -23.6610  -10.7782   22.2298 O   0  0  0  0  0  0  0  0  0  0  0  0
  -29.1989  -26.8496   21.6136 O   0  0  0  0  0  0  0  0  0  1  0  0
  -23.7246   -5.6416   20.2261 F   0  0  0  0  0  0  0  0  0  0  0  0
  -21.3063   -9.3978   21.7909 F   0  0  0  0  0  0  0  0  0  0  0  0
  1  2  1  0  0  0  0
  1  5  2  0  0  0  0
  2  6  2  0  0  0  0
  3  8  2  0  0  0  0
  3 17  1  0  0  0  0
  4  9  1  0  0  0  0
  4 17  2  0  0  0  0
  5 19  1  0  0  0  0
  6 21  1  0  0  0  0
  7 10  2  0  0  0  0
  7 20  1  0  0  0  0
  8 23  1  0  0  0  0
  9 23  2  0  0  0  0
 10 24  1  0  0  0  0
 11 12  2  0  0  0  0
 11 25  1  0  0  0  0
 12 26  1  0  0  0  0
 13 14  1  0  0  0  0
 13 29  2  0  0  0  0
 14 31  2  0  0  0  0
 15 22  1  0  0  0  0
 15 24  2  0  0  0  0
 16 26  2  0  0  0  0
 16 27  1  0  0  0  0
 17 28  1  0  0  0  0
 18 28  1  0  0  0  0
 18 30  2  0  0  0  0
 18 34  1  0  0  0  0
 19 21  2  0  0  0  0
 19 39  1  0  0  0  0
 20 22  2  0  0  0  0
 20 40  1  0  0  0  0
 21 48  1  0  0  0  0
 22 41  1  0  0  0  0
 23 76  1  0  0  0  0
 24 77  1  0  0  0  0
 25 27  2  0  0  0  0
 25 76  1  0  0  0  0
 26 78  1  0  0  0  0
 27 79  1  0  0  0  0
 28 60  2  0  0  0  0
 29 32  1  0  0  0  0
 29 75  1  0  0  0  0
 30 61  1  0  0  0  0
 30 64  1  0  0  0  0
 31 68  1  0  0  0  0
 31 75  1  0  0  0  0
 32 33  2  0  0  0  0
 33 77  1  0  0  0  0
 34 65  1  0  0  0  0
 34 70  2  0  0  0  0
 35 49  1  0  0  0  0
 35 66  1  0  0  0  0
 35 71  2  0  0  0  0
 36 57  1  0  0  0  0
 36 62  1  0  0  0  0
 36 72  2  0  0  0  0
 37 58  1  0  0  0  0
 37 67  1  0  0  0  0
 37 73  2  0  0  0  0
 38 63  1  0  0  0  0
 38 68  1  0  0  0  0
 38 74  2  0  0  0  0
 39 42  1  0  0  0  0
 40 49  1  0  0  0  0
 41 62  1  0  0  0  0
 42 44  1  0  0  0  0
 43 45  1  0  0  0  0
 43 46  1  0  0  0  0
 44 48  1  0  0  0  0
 45 50  1  0  0  0  0
 46 63  1  0  0  0  0
 47 50  1  0  0  0  0
 47 63  1  0  0  0  0
 48 66  1  0  0  0  0
 49 62  1  0  0  0  0
 50 61  1  0  0  0  0
 51 58  1  0  0  0  0
 52 59  1  0  0  0  0
 53 59  1  0  0  0  0
 54 59  1  0  0  0  0
 55 68  1  0  0  0  0
 56 69  1  0  0  0  0
 57 59  1  0  0  0  0
 57 67  1  0  0  0  0
 58 69  1  0  0  0  0
 60 61  1  0  0  0  0
M  CHG  1  69   1
M  ISO  4  33 101  38 100  68 100  77 101
M  END
> <Batch ID>
0093

> <Smiles>
CNC(C)C(=O)NC(C(=O)N1Cc2cc([101O:1][101CH:1]=Cc3ccc([100N:0](C)[100C:0](=O)N4CCCC(n5nc(-c6ccc(Oc7ccc(F)cc7F)cc6)c(C(N)=O)c5N)C4)o3)ccc2CC1C(=O)NC1CCCc2ccccc21)C(C)(C)C

> <Shape>
0.249

> <Color>
0.089

> <Negative vol penalty>
0.000

$$$$

  -OEChem-04052300373D

 86 94  0     1  0  0  0  0  0999 V2000
  -20.5802  -30.9950   15.0216 C   0  0  0  0  0  0  0  0  0  0  0  0
  -21.7783  -30.3955   15.3966 C   0  0  0  0  0  0  0  0  0  0  0  0
  -23.3973  -10.2528   21.1181 C   0  0  0  0  0  0  0  0  0  0  0  0
  -24.7789   -8.6122   22.2300 C   0  0  0  0  0  0  0  0  0  0  0  0
  -20.2067  -32.2151   15.5835 C   0  0  0  0  0  0  0  0  0  0  0  0
  -22.6042  -31.0164   16.3330 C   0  0  0  0  0  0  0  0  0  0  0  0
  -24.3696  -27.7864   19.8108 C   0  0  0  0  0  0  0  0  0  0  0  0
  -28.8501  -18.6135   20.6896 C   0  0  0  0  0  0  0  0  0  0  0  0
  -28.7622  -19.9949   20.5178 C   0  0  0  0  0  0  0  0  0  0  0  0
  -22.4022   -9.2923   20.9372 C   0  0  0  0  0  0  0  0  0  0  0  0
  -23.7838   -7.6516   22.0491 C   0  0  0  0  0  0  0  0  0  0  0  0
  -25.4287  -26.9616   19.4343 C   0  0  0  0  0  0  0  0  0  0  0  0
  -20.8452   -6.8099   23.4902 C   0  0  0  0  0  0  0  0  0  0  0  0
  -20.5292   -5.9939   24.5764 C   0  0  0  0  0  0  0  0  0  0  0  0
  -26.9701  -28.4375   20.5591 C   0  0  0  0  0  0  0  0  0  0  0  0
  -30.0600  -18.4314   18.6063 C   0  0  0  0  0  0  0  0  0  0  0  0
  -21.1437   -4.0434   23.2899 C   0  0  0  0  0  0  0  0  0  0  0  0
  -24.5857   -9.9128   21.7645 C   0  0  0  0  0  0  0  0  0  0  0  0
  -25.7668  -11.7751   23.0468 C   0  0  0  0  0  0  0  0  0  0  0  0
  -21.0238  -32.8466   16.5344 C   0  0  0  0  0  0  0  0  0  0  0  0
  -24.6044  -28.9507   20.5563 C   0  0  0  0  0  0  0  0  0  0  0  0
  -22.2419  -32.2468   16.9071 C   0  0  0  0  0  0  0  0  0  0  0  0
  -25.9119  -29.2740   20.9460 C   0  0  0  0  0  0  0  0  0  0  0  0
  -29.4991  -17.8317   19.7339 C   0  0  0  0  0  0  0  0  0  0  0  0
  -29.3231  -20.5946   19.3903 C   0  0  0  0  0  0  0  0  0  0  0  0
  -22.5954   -7.9917   21.4027 C   0  0  0  0  0  0  0  0  0  0  0  0
  -26.7295  -27.2886   19.8060 C   0  0  0  0  0  0  0  0  0  0  0  0
  -21.3104   -6.2427   22.3038 C   0  0  0  0  0  0  0  0  0  0  0  0
  -29.9720  -19.8128   18.4345 C   0  0  0  0  0  0  0  0  0  0  0  0
  -20.6784   -4.6107   24.4763 C   0  0  0  0  0  0  0  0  0  0  0  0
  -21.4597   -4.8594   22.2037 C   0  0  0  0  0  0  0  0  0  0  0  0
  -25.6142  -10.9044   21.9511 C   0  0  0  0  0  0  0  0  0  0  0  0
  -26.8859  -12.5125   22.7461 C   0  0  0  0  0  0  0  0  0  0  0  0
  -27.7556  -25.1877   19.8668 C   0  0  0  0  0  0  0  0  0  1  0  0
  -24.9684  -11.9056   24.2305 C   0  0  0  0  0  0  0  0  0  0  0  0
  -28.7217  -24.3114   19.5661 C   0  0  0  0  0  0  0  0  0  0  0  0
  -28.6177  -22.9080   20.0838 C   0  0  0  0  0  0  0  0  0  0  0  0
  -24.1512  -32.0583   20.0650 C   0  0  0  0  0  0  0  0  0  0  0  0
  -25.1052  -32.2890   23.1568 C   0  0  0  0  0  0  0  0  0  0  0  0
  -26.8268  -30.9223   25.7672 C   0  0  0  0  0  0  0  0  0  0  0  0
  -29.6379  -15.5268   18.8046 C   0  0  0  0  0  0  0  0  0  0  0  0
  -20.6007  -34.1879   17.0790 C   0  0  0  0  0  0  0  0  0  0  0  0
  -23.4481  -29.8157   20.9773 C   0  0  0  0  0  0  0  0  0  0  0  0
  -26.2149  -30.5021   21.7637 C   0  0  0  0  0  0  0  0  0  0  0  0
  -21.3529  -34.5970   18.3428 C   0  0  0  0  0  0  0  0  0  0  0  0
  -30.3646  -11.9249   19.1340 C   0  0  0  0  0  0  0  0  0  0  0  0
  -22.8504  -34.3622   18.1724 C   0  0  0  0  0  0  0  0  0  0  0  0
  -29.1679  -11.4076   19.9304 C   0  0  0  0  0  0  0  0  0  0  0  0
  -29.9962  -13.1329   18.2778 C   0  0  0  0  0  0  0  0  0  0  0  0
  -28.1746  -13.7295   19.8450 C   0  0  0  0  0  0  0  0  0  0  0  0
  -23.1529  -32.8772   17.9381 C   0  0  1  0  0  0  0  0  0  0  0  0
  -23.8599  -31.2494   21.2972 C   0  0  1  0  0  0  0  0  0  0  0  0
  -28.5242  -12.5389   20.7506 C   0  0  1  0  0  0  0  0  0  0  0  0
  -27.4584  -31.3614   28.1559 C   0  0  0  0  0  0  0  0  0  0  0  0
  -27.1962  -34.3087   22.2300 C   0  0  0  0  0  0  0  0  0  0  0  0
  -28.3743  -33.9870   24.4157 C   0  0  0  0  0  0  0  0  0  0  0  0
  -26.0532  -34.9000   24.3744 C   0  0  0  0  0  0  0  0  0  0  0  0
  -29.8758  -15.8796   21.2518 C   0  0  0  0  0  0  0  0  0  0  0  0
  -25.4188  -28.4948   26.7072 C   0  0  0  0  0  0  0  0  0  0  0  0
  -31.8853  -20.7962   17.4206 C   0  0  0  0  0  0  0  0  0  0  0  0
  -26.4326  -32.4546   23.8565 C   0  0  1  0  0  0  0  0  0  0  0  0
  -26.4494  -30.7109   27.2223 C   0  0  2  0  0  0  0  0  0  0  0  0
  -27.0089  -33.8904   23.7021 C   0  0  0  0  0  0  0  0  0  0  0  0
  -26.5606  -11.0721   21.0236 N   0  0  0  0  0  0  0  0  0  0  0  0
  -27.3185  -12.0567   21.5356 N   0  0  0  0  0  0  0  0  0  0  0  0
  -25.0514  -31.3193   22.1455 N   0  0  0  0  0  0  0  0  0  0  0  0
  -29.3450  -14.1746   19.0730 N   0  0  0  0  0  0  0  0  0  0  0  0
  -27.5321  -13.5000   23.4016 N   0  0  0  0  0  0  0  0  0  0  0  0
  -23.8537  -11.0694   24.3801 N   0  0  0  0  0  0  0  0  0  0  0  0
  -29.2248  -21.9977   19.2295 N   0  0  0  0  0  0  0  0  0  0  0  0
  -23.0892  -32.1456   19.1852 N   0  0  0  0  0  0  0  0  0  0  0  0
  -26.2192  -32.0419   25.2395 N   0  0  0  0  0  0  0  0  0  0  0  0
  -29.5893  -16.4016   19.9115 N   0  0  0  0  0  0  0  0  0  0  0  0
  -26.3896  -29.2552   27.5358 N   0  3  0  0  0  0  0  0  0  0  0  0
  -25.2261  -12.7504   25.1213 O   0  0  0  0  0  0  0  0  0  0  0  0
  -28.0495  -22.6679   21.1437 O   0  0  0  0  0  0  0  0  0  0  0  0
  -25.2571  -32.5668   19.9236 O   0  0  0  0  0  0  0  0  0  0  0  0
  -24.1493  -32.9892   23.4998 O   0  0  0  0  0  0  0  0  0  0  0  0
  -27.5877  -30.1715   25.1606 O   0  0  0  0  0  0  0  0  0  0  0  0
  -29.9474  -15.9149   17.6718 O   0  0  0  0  0  0  0  0  0  0  0  0
  -29.8148  -24.6478   18.7938 O   0  0  0  0  0  0  0  0  0  0  0  0
  -21.6245   -7.0542   21.2266 O   0  0  0  0  0  0  0  0  0  0  0  0
  -27.7652  -26.4857   19.4392 O   0  0  0  0  0  0  0  0  0  1  0  0
  -30.5254  -20.3785   17.3246 O   0  0  0  0  0  0  0  0  0  0  0  0
  -20.3763   -3.8273   25.5200 F   0  0  0  0  0  0  0  0  0  0  0  0
  -21.9073   -4.3088   21.0669 F   0  0  0  0  0  0  0  0  0  0  0  0
  1  2  1  0  0  0  0
  1  5  2  0  0  0  0
  2  6  2  0  0  0  0
  3 10  2  0  0  0  0
  3 18  1  0  0  0  0
  4 11  1  0  0  0  0
  4 18  2  0  0  0  0
  5 20  1  0  0  0  0
  6 22  1  0  0  0  0
  7 12  2  0  0  0  0
  7 21  1  0  0  0  0
  8  9  2  0  0  0  0
  8 24  1  0  0  0  0
  9 25  1  0  0  0  0
 10 26  1  0  0  0  0
 11 26  2  0  0  0  0
 12 27  1  0  0  0  0
 13 14  2  0  0  0  0
 13 28  1  0  0  0  0
 14 30  1  0  0  0  0
 15 23  1  0  0  0  0
 15 27  2  0  0  0  0
 16 24  2  0  0  0  0
 16 29  1  0  0  0  0
 17 30  2  0  0  0  0
 17 31  1  0  0  0  0
 18 32  1  0  0  0  0
 19 32  1  0  0  0  0
 19 33  2  0  0  0  0
 19 35  1  0  0  0  0
 20 22  2  0  0  0  0
 20 42  1  0  0  0  0
 21 23  2  0  0  0  0
 21 43  1  0  0  0  0
 22 51  1  0  0  0  0
 23 44  1  0  0  0  0
 24 73  1  0  0  0  0
 25 29  2  0  0  0  0
 25 70  1  0  0  0  0
 26 82  1  0  0  0  0
 27 83  1  0  0  0  0
 28 31  2  0  0  0  0
 28 82  1  0  0  0  0
 29 84  1  0  0  0  0
 30 85  1  0  0  0  0
 31 86  1  0  0  0  0
 32 64  2  0  0  0  0
 33 65  1  0  0  0  0
 33 68  1  0  0  0  0
 34 36  2  0  0  0  0
 34 83  1  0  0  0  0
 35 69  1  0  0  0  0
 35 75  2  0  0  0  0
 36 37  1  0  0  0  0
 36 81  1  0  0  0  0
 37 70  1  0  0  0  0
 37 76  2  0  0  0  0
 38 52  1  0  0  0  0
 38 71  1  0  0  0  0
 38 77  2  0  0  0  0
 39 61  1  0  0  0  0
 39 66  1  0  0  0  0
 39 78  2  0  0  0  0
 40 62  1  0  0  0  0
 40 72  1  0  0  0  0
 40 79  2  0  0  0  0
 41 67  1  0  0  0  0
 41 73  1  0  0  0  0
 41 80  2  0  0  0  0
 42 45  1  0  0  0  0
 43 52  1  0  0  0  0
 44 66  1  0  0  0  0
 45 47  1  0  0  0  0
 46 48  1  0  0  0  0
 46 49  1  0  0  0  0
 47 51  1  0  0  0  0
 48 53  1  0  0  0  0
 49 67  1  0  0  0  0
 50 53  1  0  0  0  0
 50 67  1  0  0  0  0
 51 71  1  0  0  0  0
 52 66  1  0  0  0  0
 53 65  1  0  0  0  0
 54 62  1  0  0  0  0
 55 63  1  0  0  0  0
 56 63  1  0  0  0  0
 57 63  1  0  0  0  0
 58 73  1  0  0  0  0
 59 74  1  0  0  0  0
 60 84  1  0  0  0  0
 61 63  1  0  0  0  0
 61 72  1  0  0  0  0
 62 74  1  0  0  0  0
 64 65  1  0  0  0  0
M  CHG  1  74   1
M  ISO  4  34 101  41 100  73 100  83 101
M  END
> <Batch ID>
0093

> <Smiles>
CNC(C)C(=O)NC(C(=O)N1Cc2cc([101O:1][101CH2:1]C(=O)C(=O)Nc3ccc([100N:0](C)[100C:0](=O)N4CCCC(n5nc(-c6ccc(Oc7ccc(F)cc7F)cc6)c(C(N)=O)c5N)C4)cc3OC)ccc2CC1C(=O)NC1CCCc2ccccc21)C(C)(C)C

> <Shape>
0.338

> <Color>
0.119

> <Negative vol penalty>
0.000

$$$$

  -OEChem-04052300373D

 89 97  0     1  0  0  0  0  0999 V2000
  -25.9675  -37.4496   18.0430 C   0  0  0  0  0  0  0  0  0  0  0  0
  -26.4187  -36.1624   17.7691 C   0  0  0  0  0  0  0  0  0  0  0  0
  -23.4937  -10.6253   21.9805 C   0  0  0  0  0  0  0  0  0  0  0  0
  -24.9440   -8.7010   21.8046 C   0  0  0  0  0  0  0  0  0  0  0  0
  -25.7235  -37.8360   19.3602 C   0  0  0  0  0  0  0  0  0  0  0  0
  -26.6273  -35.2612   18.8125 C   0  0  0  0  0  0  0  0  0  0  0  0
  -25.7181  -29.2062   18.6844 C   0  0  0  0  0  0  0  0  0  0  0  0
  -30.8088  -19.9232   20.7862 C   0  0  0  0  0  0  0  0  0  0  0  0
  -30.3794  -21.2384   20.9638 C   0  0  0  0  0  0  0  0  0  0  0  0
  -22.3790   -9.7973   21.8484 C   0  0  0  0  0  0  0  0  0  0  0  0
  -23.8293   -7.8730   21.6725 C   0  0  0  0  0  0  0  0  0  0  0  0
  -26.5864  -28.1310   18.5003 C   0  0  0  0  0  0  0  0  0  0  0  0
  -21.5003   -6.4924   23.6950 C   0  0  0  0  0  0  0  0  0  0  0  0
  -21.4797   -5.3125   24.4385 C   0  0  0  0  0  0  0  0  0  0  0  0
  -26.7618  -27.8709   20.8921 C   0  0  0  0  0  0  0  0  0  0  0  0
  -30.2572  -20.0602   18.4380 C   0  0  0  0  0  0  0  0  0  0  0  0
  -21.3343   -4.0286   22.3970 C   0  0  0  0  0  0  0  0  0  0  0  0
  -24.7762  -10.0772   21.9586 C   0  0  0  0  0  0  0  0  0  0  0  0
  -26.5718  -11.3077   23.2887 C   0  0  0  0  0  0  0  0  0  0  0  0
  -25.9199  -36.9360   20.4195 C   0  0  0  0  0  0  0  0  0  0  0  0
  -25.3732  -29.6294   19.9760 C   0  0  0  0  0  0  0  0  0  0  0  0
  -26.3870  -35.6363   20.1453 C   0  0  0  0  0  0  0  0  0  0  0  0
  -25.8869  -28.9500   21.0899 C   0  0  0  0  0  0  0  0  0  0  0  0
  -30.7478  -19.3341   19.5233 C   0  0  0  0  0  0  0  0  0  0  0  0
  -29.8889  -21.9645   19.8785 C   0  0  0  0  0  0  0  0  0  0  0  0
  -22.5468   -8.4212   21.6944 C   0  0  0  0  0  0  0  0  0  0  0  0
  -27.1106  -27.4650   19.6042 C   0  0  0  0  0  0  0  0  0  0  0  0
  -21.4379   -6.4405   22.3025 C   0  0  0  0  0  0  0  0  0  0  0  0
  -29.8278  -21.3754   18.6156 C   0  0  0  0  0  0  0  0  0  0  0  0
  -21.3967   -4.0806   23.7896 C   0  0  0  0  0  0  0  0  0  0  0  0
  -21.3549   -5.2086   21.6535 C   0  0  0  0  0  0  0  0  0  0  0  0
  -25.9281  -10.9320   22.0944 C   0  0  0  0  0  0  0  0  0  0  0  0
  -27.6020  -12.1202   22.8826 C   0  0  0  0  0  0  0  0  0  0  0  0
  -26.2659  -10.9538   24.6440 C   0  0  0  0  0  0  0  0  0  0  0  0
  -25.7573  -32.3138   21.6344 C   0  0  0  0  0  0  0  0  0  0  0  0
  -30.1715  -25.5978   19.7759 C   0  0  0  0  0  0  0  0  0  0  0  0
  -23.9138  -30.7720   23.8130 C   0  0  0  0  0  0  0  0  0  0  0  0
  -29.4807  -17.3561   17.7084 C   0  0  0  0  0  0  0  0  0  0  0  0
  -22.7770  -27.8089   25.0678 C   0  0  0  0  0  0  0  0  0  0  0  0
  -29.6259  -16.1590   19.9201 C   0  0  0  0  0  0  0  0  0  0  0  0
  -25.6879  -37.4142   21.8309 C   0  0  0  0  0  0  0  0  0  0  0  0
  -24.4143  -30.7740   20.1575 C   0  0  0  0  0  0  0  0  0  0  0  0
  -25.5319  -29.3522   22.4972 C   0  0  0  0  0  0  0  0  0  0  0  0
  -25.5757  -36.2809   22.8473 C   0  0  0  0  0  0  0  0  0  0  0  0
  -29.4628  -13.0333   18.2704 C   0  0  0  0  0  0  0  0  0  0  0  0
  -26.6927  -35.2634   22.6379 C   0  0  0  0  0  0  0  0  0  0  0  0
  -28.5784  -12.2297   19.2251 C   0  0  0  0  0  0  0  0  0  0  0  0
  -28.9741  -14.4741   18.1258 C   0  0  0  0  0  0  0  0  0  0  0  0
  -27.9410  -14.3933   20.3692 C   0  0  0  0  0  0  0  0  0  0  0  0
  -26.6015  -34.6223   21.2479 C   0  0  1  0  0  0  0  0  0  0  0  0
  -24.5365  -31.4452   21.5220 C   0  0  1  0  0  0  0  0  0  0  0  0
  -28.4217  -12.9478   20.5784 C   0  0  1  0  0  0  0  0  0  0  0  0
  -31.1894  -26.5756   19.2394 C   0  0  0  0  0  0  0  0  0  0  0  0
  -27.9705  -17.3163   17.7041 C   0  0  0  0  0  0  0  0  0  0  0  0
  -32.3691  -17.8098   18.3361 C   0  0  0  0  0  0  0  0  0  0  0  0
  -21.3114  -26.8673   26.8741 C   0  0  0  0  0  0  0  0  0  0  0  0
  -26.0909  -31.3423   25.8733 C   0  0  0  0  0  0  0  0  0  0  0  0
  -25.0510  -29.6079   27.3494 C   0  0  0  0  0  0  0  0  0  0  0  0
  -23.7547  -31.6422   26.7140 C   0  0  0  0  0  0  0  0  0  0  0  0
  -20.9682  -26.5394   23.0991 C   0  0  0  0  0  0  0  0  0  0  0  0
  -29.3254  -21.3914   16.2911 C   0  0  0  0  0  0  0  0  0  0  0  0
  -29.4323  -23.3704   20.0876 C   0  0  0  0  0  0  0  0  0  0  0  0
  -28.9396  -26.1876   20.4284 C   0  0  0  0  0  0  0  0  0  1  0  0
  -31.2144  -17.9079   19.3310 C   0  0  2  0  0  0  0  0  0  0  0  0
  -24.1809  -29.8524   24.9800 C   0  0  1  0  0  0  0  0  0  0  0  0
  -21.3799  -27.3380   25.4296 C   0  0  2  0  0  0  0  0  0  0  0  0
  -24.7778  -30.6046   26.2028 C   0  0  0  0  0  0  0  0  0  0  0  0
  -26.5013  -11.4625   21.0109 N   0  0  0  0  0  0  0  0  0  0  0  0
  -30.4136  -24.3501   19.6066 N   0  0  0  0  0  0  0  0  0  0  0  0
  -27.5159  -12.1798   21.5227 N   0  0  0  0  0  0  0  0  0  0  0  0
  -24.5955  -30.4813   22.6228 N   0  0  0  0  0  0  0  0  0  0  0  0
  -28.8313  -15.1003   19.4468 N   0  0  0  0  0  0  0  0  0  0  0  0
  -28.5640  -12.7825   23.5596 N   0  0  0  0  0  0  0  0  0  0  0  0
  -25.1733  -10.1094   24.8837 N   0  0  0  0  0  0  0  0  0  0  0  0
  -25.5599  -33.6178   21.2220 N   0  0  0  0  0  0  0  0  0  0  0  0
  -22.9229  -29.1670   25.2559 N   0  0  0  0  0  0  0  0  0  0  0  0
  -30.1124  -17.0443   18.9326 N   0  0  0  0  0  0  0  0  0  0  0  0
  -20.9691  -26.2092   24.5475 N   0  3  0  0  0  0  0  0  0  0  0  0
  -26.9315  -11.3871   25.6150 O   0  0  0  0  0  0  0  0  0  0  0  0
  -26.8008  -31.8367   22.0648 O   0  0  0  0  0  0  0  0  0  0  0  0
  -23.1237  -31.7094   23.9502 O   0  0  0  0  0  0  0  0  0  0  0  0
  -30.0878  -17.6656   16.6802 O   0  0  0  0  0  0  0  0  0  0  0  0
  -23.6525  -27.0474   24.6625 O   0  0  0  0  0  0  0  0  0  0  0  0
  -29.8887  -16.3275   21.1156 O   0  0  0  0  0  0  0  0  0  0  0  0
  -21.4593   -7.6129   21.5657 O   0  0  0  0  0  0  0  0  0  0  0  0
  -29.3525  -22.0708   17.5448 O   0  0  0  0  0  0  0  0  0  0  0  0
  -27.9671  -26.4054   19.4256 O   0  0  0  0  0  0  0  0  0  1  0  0
  -21.3784   -2.9474   24.5036 F   0  0  0  0  0  0  0  0  0  0  0  0
  -21.2958   -5.1524   20.3159 F   0  0  0  0  0  0  0  0  0  0  0  0
  1  2  1  0  0  0  0
  1  5  2  0  0  0  0
  2  6  2  0  0  0  0
  3 10  2  0  0  0  0
  3 18  1  0  0  0  0
  4 11  1  0  0  0  0
  4 18  2  0  0  0  0
  5 20  1  0  0  0  0
  6 22  1  0  0  0  0
  7 12  2  0  0  0  0
  7 21  1  0  0  0  0
  8  9  2  0  0  0  0
  8 24  1  0  0  0  0
  9 25  1  0  0  0  0
 10 26  1  0  0  0  0
 11 26  2  0  0  0  0
 12 27  1  0  0  0  0
 13 14  2  0  0  0  0
 13 28  1  0  0  0  0
 14 30  1  0  0  0  0
 15 23  1  0  0  0  0
 15 27  2  0  0  0  0
 16 24  2  0  0  0  0
 16 29  1  0  0  0  0
 17 30  2  0  0  0  0
 17 31  1  0  0  0  0
 18 32  1  0  0  0  0
 19 32  1  0  0  0  0
 19 33  2  0  0  0  0
 19 34  1  0  0  0  0
 20 22  2  0  0  0  0
 20 41  1  0  0  0  0
 21 23  2  0  0  0  0
 21 42  1  0  0  0  0
 22 50  1  0  0  0  0
 23 43  1  0  0  0  0
 24 64  1  0  0  0  0
 25 29  2  0  0  0  0
 25 62  1  0  0  0  0
 26 85  1  0  0  0  0
 27 87  1  0  0  0  0
 28 31  2  0  0  0  0
 28 85  1  0  0  0  0
 29 86  1  0  0  0  0
 30 88  1  0  0  0  0
 31 89  1  0  0  0  0
 32 68  2  0  0  0  0
 33 70  1  0  0  0  0
 33 73  1  0  0  0  0
 34 74  1  0  0  0  0
 34 79  2  0  0  0  0
 35 51  1  0  0  0  0
 35 75  1  0  0  0  0
 35 80  2  0  0  0  0
 36 53  1  0  0  0  0
 36 63  1  0  0  0  0
 36 69  2  0  0  0  0
 37 65  1  0  0  0  0
 37 71  1  0  0  0  0
 37 81  2  0  0  0  0
 38 54  1  0  0  0  0
 38 77  1  0  0  0  0
 38 82  2  0  0  0  0
 39 66  1  0  0  0  0
 39 76  1  0  0  0  0
 39 83  2  0  0  0  0
 40 72  1  0  0  0  0
 40 77  1  0  0  0  0
 40 84  2  0  0  0  0
 41 44  1  0  0  0  0
 42 51  1  0  0  0  0
 43 71  1  0  0  0  0
 44 46  1  0  0  0  0
 45 47  1  0  0  0  0
 45 48  1  0  0  0  0
 46 50  1  0  0  0  0
 47 52  1  0  0  0  0
 48 72  1  0  0  0  0
 49 52  1  0  0  0  0
 49 72  1  0  0  0  0
 50 75  1  0  0  0  0
 51 71  1  0  0  0  0
 52 70  1  0  0  0  0
 55 64  1  0  0  0  0
 56 66  1  0  0  0  0
 57 67  1  0  0  0  0
 58 67  1  0  0  0  0
 59 67  1  0  0  0  0
 60 78  1  0  0  0  0
 61 86  1  0  0  0  0
 62 69  1  0  0  0  0
 63 87  1  0  0  0  0
 64 77  1  0  0  0  0
 65 67  1  0  0  0  0
 65 76  1  0  0  0  0
 66 78  1  0  0  0  0
 68 70  1  0  0  0  0
M  CHG  1  78   1
M  ISO  4  40 100  63 101  77 100  87 101
M  END
> <Batch ID>
0093

> <Smiles>
CNC(C)C(=O)NC(C(=O)N1Cc2cc([101O:1][101CH2:1]C(C)=NCc3ccc(C(C)[100N:0](C(C)=O)[100C:0](=O)N4CCCC(n5nc(-c6ccc(Oc7ccc(F)cc7F)cc6)c(C(N)=O)c5N)C4)cc3OC)ccc2CC1C(=O)NC1CCCc2ccccc21)C(C)(C)C

> <Shape>
0.304

> <Color>
0.120

> <Negative vol penalty>
0.000

$$$$

  -OEChem-04052300373D

 88 97  0     1  0  0  0  0  0999 V2000
  -28.9893  -36.8434   24.0230 C   0  0  0  0  0  0  0  0  0  0  0  0
  -28.9505  -35.4938   24.3586 C   0  0  0  0  0  0  0  0  0  0  0  0
  -24.7829   -8.6906   21.5718 C   0  0  0  0  0  0  0  0  0  0  0  0
  -23.1630   -9.9616   20.3078 C   0  0  0  0  0  0  0  0  0  0  0  0
  -27.8175  -37.5027   23.6539 C   0  0  0  0  0  0  0  0  0  0  0  0
  -27.7397  -34.8030   24.3263 C   0  0  0  0  0  0  0  0  0  0  0  0
  -26.8886  -29.0056   20.1362 C   0  0  0  0  0  0  0  0  0  0  0  0
  -26.6332  -19.4800   20.9836 C   0  0  0  0  0  0  0  0  0  0  0  0
  -26.8744  -18.5905   22.0306 C   0  0  0  0  0  0  0  0  0  0  0  0
  -23.8660   -7.6469   21.6973 C   0  0  0  0  0  0  0  0  0  0  0  0
  -22.2461   -8.9179   20.4333 C   0  0  0  0  0  0  0  0  0  0  0  0
  -26.7141  -27.7654   19.5216 C   0  0  0  0  0  0  0  0  0  0  0  0
  -21.1585   -6.9245   23.5872 C   0  0  0  0  0  0  0  0  0  0  0  0
  -21.0174   -6.3343   24.8431 C   0  0  0  0  0  0  0  0  0  0  0  0
  -24.4153  -27.7061   20.2699 C   0  0  0  0  0  0  0  0  0  0  0  0
  -24.9765  -20.6135   22.3280 C   0  0  0  0  0  0  0  0  0  0  0  0
  -21.6846   -4.2047   23.9174 C   0  0  0  0  0  0  0  0  0  0  0  0
  -24.4313   -9.8480   20.8771 C   0  0  0  0  0  0  0  0  0  0  0  0
  -26.6472  -10.8755   20.1412 C   0  0  0  0  0  0  0  0  0  0  0  0
  -26.5933  -36.8172   23.6077 C   0  0  0  0  0  0  0  0  0  0  0  0
  -25.8214  -29.6085   20.8077 C   0  0  0  0  0  0  0  0  0  0  0  0
  -26.5502  -35.4540   23.9575 C   0  0  0  0  0  0  0  0  0  0  0  0
  -24.5806  -28.9539   20.8768 C   0  0  0  0  0  0  0  0  0  0  0  0
  -25.6843  -20.4915   21.1323 C   0  0  0  0  0  0  0  0  0  0  0  0
  -26.1666  -18.7125   23.2263 C   0  0  0  0  0  0  0  0  0  0  0  0
  -22.5977   -7.7606   21.1281 C   0  0  0  0  0  0  0  0  0  0  0  0
  -25.4805  -27.1172   19.5885 C   0  0  0  0  0  0  0  0  0  0  0  0
  -21.5625   -6.1547   22.4963 C   0  0  0  0  0  0  0  0  0  0  0  0
  -21.2805   -4.9745   25.0083 C   0  0  0  0  0  0  0  0  0  0  0  0
  -25.2177  -19.7240   23.3751 C   0  0  0  0  0  0  0  0  0  0  0  0
  -21.8256   -4.7949   22.6615 C   0  0  0  0  0  0  0  0  0  0  0  0
  -25.3778  -10.9267   20.7475 C   0  0  0  0  0  0  0  0  0  0  0  0
  -27.1442  -12.1487   20.2771 C   0  0  0  0  0  0  0  0  0  0  0  0
  -25.0290  -22.7090   20.2568 C   0  0  0  0  0  0  0  0  0  0  0  0
  -24.7702  -23.5952   19.2818 C   0  0  0  0  0  0  0  0  0  0  0  0
  -24.9757  -21.7031   17.6781 C   0  0  0  0  0  0  0  0  0  0  0  0
  -27.3173   -9.7755   19.5113 C   0  0  0  0  0  0  0  0  0  0  0  0
  -24.5862  -32.5587   22.7690 C   0  0  0  0  0  0  0  0  0  0  0  0
  -22.3298  -31.7549   20.8526 C   0  0  0  0  0  0  0  0  0  0  0  0
  -19.6389  -31.6828   18.7571 C   0  0  0  0  0  0  0  0  0  0  0  0
  -26.2202  -16.4015   24.1472 C   0  0  0  0  0  0  0  0  0  0  0  0
  -25.3452  -37.5838   23.2484 C   0  0  0  0  0  0  0  0  0  0  0  0
  -25.9813  -30.9150   21.5367 C   0  0  0  0  0  0  0  0  0  0  0  0
  -23.4707  -29.6243   21.6396 C   0  0  0  0  0  0  0  0  0  0  0  0
  -24.8752  -23.2082   17.8367 C   0  0  0  0  0  0  0  0  0  0  0  0
  -25.7671  -20.9270   18.7115 C   0  0  0  0  0  0  0  0  0  0  0  0
  -24.1659  -36.6883   22.8775 C   0  0  0  0  0  0  0  0  0  0  0  0
  -25.7488  -16.7031   20.6358 C   0  0  0  0  0  0  0  0  0  0  0  0
  -24.0144  -35.5582   23.8908 C   0  0  0  0  0  0  0  0  0  0  0  0
  -25.7131  -15.2365   20.2074 C   0  0  0  0  0  0  0  0  0  0  0  0
  -25.0228  -16.9298   21.9623 C   0  0  0  0  0  0  0  0  0  0  0  0
  -25.4563  -14.5874   22.6330 C   0  0  0  0  0  0  0  0  0  0  0  0
  -25.2602  -34.6643   23.9106 C   0  0  1  0  0  0  0  0  0  0  0  0
  -24.7183  -31.7932   21.4853 C   0  0  1  0  0  0  0  0  0  0  0  0
  -26.2280  -14.3202   21.3313 C   0  0  1  0  0  0  0  0  0  0  0  0
  -28.6104  -18.3752   25.2798 C   0  0  0  0  0  0  0  0  0  0  0  0
  -17.2117  -32.3105   18.6456 C   0  0  0  0  0  0  0  0  0  0  0  0
  -21.6311  -29.3472   22.5901 C   0  0  0  0  0  0  0  0  0  0  0  0
  -19.3016  -29.4553   21.6791 C   0  0  0  0  0  0  0  0  0  0  0  0
  -20.2158  -31.3696   22.9915 C   0  0  0  0  0  0  0  0  0  0  0  0
  -20.1030  -33.5385   16.4988 C   0  0  0  0  0  0  0  0  0  0  0  0
  -24.3741  -25.0118   19.5698 C   0  0  0  0  0  0  0  0  0  1  0  0
  -27.1142  -18.2836   25.5015 C   0  0  0  0  0  0  0  0  0  0  0  0
  -21.0692  -30.9533   20.6483 C   0  0  1  0  0  0  0  0  0  0  0  0
  -18.6386  -32.7551   18.3645 C   0  0  2  0  0  0  0  0  0  0  0  0
  -20.5767  -30.2788   21.9597 C   0  0  0  0  0  0  0  0  0  0  0  0
  -25.0864  -12.1365   21.2327 N   0  0  0  0  0  0  0  0  0  0  0  0
  -26.1799  -12.8574   20.9314 N   0  0  0  0  0  0  0  0  0  0  0  0
  -25.4390  -21.3987   20.0650 N   0  0  0  0  0  0  0  0  0  0  0  0
  -23.4483  -31.0631   21.3331 N   0  0  0  0  0  0  0  0  0  0  0  0
  -25.5191  -16.0063   22.9923 N   0  0  0  0  0  0  0  0  0  0  0  0
  -28.3076  -12.7200   19.8996 N   0  0  0  0  0  0  0  0  0  0  0  0
  -27.1260   -9.5749   18.1374 N   0  0  0  0  0  0  0  0  0  0  0  0
  -25.2566  -33.7670   22.7751 N   0  0  0  0  0  0  0  0  0  0  0  0
  -20.1011  -31.8621   20.0438 N   0  0  0  0  0  0  0  0  0  0  0  0
  -26.4183  -17.7897   24.3082 N   0  0  0  0  0  0  0  0  0  0  0  0
  -18.7563  -33.0663   16.9118 N   0  3  0  0  0  0  0  0  0  0  0  0
  -24.5266  -21.1446   16.6755 O   0  0  0  0  0  0  0  0  0  0  0  0
  -28.0504   -8.9840   20.1512 O   0  0  0  0  0  0  0  0  0  0  0  0
  -23.9238  -32.0893   23.6869 O   0  0  0  0  0  0  0  0  0  0  0  0
  -22.3242  -32.9628   20.5993 O   0  0  0  0  0  0  0  0  0  0  0  0
  -19.9736  -30.7747   17.9996 O   0  0  0  0  0  0  0  0  0  0  0  0
  -26.6157  -15.5801   24.9831 O   0  0  0  0  0  0  0  0  0  0  0  0
  -21.7029   -6.7423   21.2502 O   0  0  0  0  0  0  0  0  0  0  0  0
  -25.3158  -25.9088   18.9824 O   0  0  0  0  0  0  0  0  0  1  0  0
  -21.1465   -4.4082   26.2148 F   0  0  0  0  0  0  0  0  0  0  0  0
  -24.5313  -19.8502   24.5198 F   0  0  0  0  0  0  0  0  0  0  0  0
  -22.2152   -4.0506   21.6174 F   0  0  0  0  0  0  0  0  0  0  0  0
  1  2  1  0  0  0  0
  1  5  2  0  0  0  0
  2  6  2  0  0  0  0
  3 10  2  0  0  0  0
  3 18  1  0  0  0  0
  4 11  1  0  0  0  0
  4 18  2  0  0  0  0
  5 20  1  0  0  0  0
  6 22  1  0  0  0  0
  7 12  2  0  0  0  0
  7 21  1  0  0  0  0
  8  9  2  0  0  0  0
  8 24  1  0  0  0  0
  9 25  1  0  0  0  0
 10 26  1  0  0  0  0
 11 26  2  0  0  0  0
 12 27  1  0  0  0  0
 13 14  2  0  0  0  0
 13 28  1  0  0  0  0
 14 29  1  0  0  0  0
 15 23  1  0  0  0  0
 15 27  2  0  0  0  0
 16 24  2  0  0  0  0
 16 30  1  0  0  0  0
 17 29  2  0  0  0  0
 17 31  1  0  0  0  0
 18 32  1  0  0  0  0
 19 32  1  0  0  0  0
 19 33  2  0  0  0  0
 19 37  1  0  0  0  0
 20 22  2  0  0  0  0
 20 42  1  0  0  0  0
 21 23  2  0  0  0  0
 21 43  1  0  0  0  0
 22 53  1  0  0  0  0
 23 44  1  0  0  0  0
 24 69  1  0  0  0  0
 25 30  2  0  0  0  0
 25 76  1  0  0  0  0
 26 84  1  0  0  0  0
 27 85  1  0  0  0  0
 28 31  2  0  0  0  0
 28 84  1  0  0  0  0
 29 86  1  0  0  0  0
 30 87  1  0  0  0  0
 31 88  1  0  0  0  0
 32 67  2  0  0  0  0
 33 68  1  0  0  0  0
 33 72  1  0  0  0  0
 34 35  2  0  0  0  0
 34 69  1  0  0  0  0
 35 45  1  0  0  0  0
 35 62  1  0  0  0  0
 36 45  1  0  0  0  0
 36 46  1  0  0  0  0
 36 78  2  0  0  0  0
 37 73  1  0  0  0  0
 37 79  2  0  0  0  0
 38 54  1  0  0  0  0
 38 74  1  0  0  0  0
 38 80  2  0  0  0  0
 39 64  1  0  0  0  0
 39 70  1  0  0  0  0
 39 81  2  0  0  0  0
 40 65  1  0  0  0  0
 40 75  1  0  0  0  0
 40 82  2  0  0  0  0
 41 71  1  0  0  0  0
 41 76  1  0  0  0  0
 41 83  2  0  0  0  0
 42 47  1  0  0  0  0
 43 54  1  0  0  0  0
 44 70  1  0  0  0  0
 46 69  1  0  0  0  0
 47 49  1  0  0  0  0
 48 50  1  0  0  0  0
 48 51  1  0  0  0  0
 49 53  1  0  0  0  0
 50 55  1  0  0  0  0
 51 71  1  0  0  0  0
 52 55  1  0  0  0  0
 52 71  1  0  0  0  0
 53 74  1  0  0  0  0
 54 70  1  0  0  0  0
 55 68  1  0  0  0  0
 56 63  1  0  0  0  0
 57 65  1  0  0  0  0
 58 66  1  0  0  0  0
 59 66  1  0  0  0  0
 60 66  1  0  0  0  0
 61 77  1  0  0  0  0
 62 85  1  0  0  0  0
 63 76  1  0  0  0  0
 64 66  1  0  0  0  0
 64 75  1  0  0  0  0
 65 77  1  0  0  0  0
 67 68  1  0  0  0  0
M  CHG  1  77   1
M  ISO  4  41 100  62 101  76 100  85 101
M  END
> <Batch ID>
0093

> <Smiles>
CC[100N:0](c1ccc(N2C=C([101CH2:1][101O:1]c3ccc4c(c3)CN(C(=O)C(NC(=O)C(C)NC)C(C)(C)C)C(C(=O)NC3CCCc5ccccc53)C4)CC(=O)C2)cc1F)[100C:0](=O)N1CCCC(n2nc(-c3ccc(Oc4ccc(F)cc4F)cc3)c(C(N)=O)c2N)C1

> <Shape>
0.265

> <Color>
0.115

> <Negative vol penalty>
0.000

$$$$

  -OEChem-04052300373D

 88 97  0     1  0  0  0  0  0999 V2000
  -29.1309  -30.6079   26.9444 C   0  0  0  0  0  0  0  0  0  0  0  0
  -29.1640  -29.8064   25.8089 C   0  0  0  0  0  0  0  0  0  0  0  0
  -30.4241  -20.1544   20.2566 C   0  0  0  0  0  0  0  0  0  0  0  0
  -28.0343  -19.8573   20.4503 C   0  0  0  0  0  0  0  0  0  0  0  0
  -28.2161  -30.3347   27.9592 C   0  0  0  0  0  0  0  0  0  0  0  0
  -28.2744  -28.7390   25.6823 C   0  0  0  0  0  0  0  0  0  0  0  0
  -24.8082  -22.4085   22.3456 C   0  0  0  0  0  0  0  0  0  0  0  0
  -23.3920  -13.2404   24.0232 C   0  0  0  0  0  0  0  0  0  0  0  0
  -22.6963  -14.1014   24.8719 C   0  0  0  0  0  0  0  0  0  0  0  0
  -30.2219  -21.4160   19.6970 C   0  0  0  0  0  0  0  0  0  0  0  0
  -27.8321  -21.1189   19.8907 C   0  0  0  0  0  0  0  0  0  0  0  0
  -24.0206  -21.2934   22.6282 C   0  0  0  0  0  0  0  0  0  0  0  0
  -29.4696  -24.5297   20.7794 C   0  0  0  0  0  0  0  0  0  0  0  0
  -30.2582  -25.5805   21.2477 C   0  0  0  0  0  0  0  0  0  0  0  0
  -22.3495  -22.7299   23.6097 C   0  0  0  0  0  0  0  0  0  0  0  0
  -21.9334  -15.3682   22.9614 C   0  0  0  0  0  0  0  0  0  0  0  0
  -31.1325  -25.9168   19.0206 C   0  0  0  0  0  0  0  0  0  0  0  0
  -29.3303  -19.3750   20.6332 C   0  0  0  0  0  0  0  0  0  0  0  0
  -30.2391  -17.7678   22.3935 C   0  0  0  0  0  0  0  0  0  0  0  0
  -27.3236  -29.2556   27.8497 C   0  0  0  0  0  0  0  0  0  0  0  0
  -24.3766  -23.6939   22.7033 C   0  0  0  0  0  0  0  0  0  0  0  0
  -27.3276  -28.4616   26.6848 C   0  0  0  0  0  0  0  0  0  0  0  0
  -23.1324  -23.8599   23.3282 C   0  0  0  0  0  0  0  0  0  0  0  0
  -23.3585  -13.4434   22.6436 C   0  0  0  0  0  0  0  0  0  0  0  0
  -21.9670  -15.1653   24.3410 C   0  0  0  0  0  0  0  0  0  0  0  0
  -28.9259  -21.8982   19.5140 C   0  0  0  0  0  0  0  0  0  0  0  0
  -22.7923  -21.4537   23.2629 C   0  0  0  0  0  0  0  0  0  0  0  0
  -29.5124  -24.1723   19.4317 C   0  0  0  0  0  0  0  0  0  0  0  0
  -22.6291  -14.5072   22.1127 C   0  0  0  0  0  0  0  0  0  0  0  0
  -31.0897  -26.2741   20.3683 C   0  0  0  0  0  0  0  0  0  0  0  0
  -30.3438  -24.8659   18.5523 C   0  0  0  0  0  0  0  0  0  0  0  0
  -29.5385  -18.0715   21.2108 C   0  0  0  0  0  0  0  0  0  0  0  0
  -30.1495  -16.4018   22.5045 C   0  0  0  0  0  0  0  0  0  0  0  0
  -21.3159  -18.7933   26.5206 C   0  0  0  0  0  0  0  0  0  0  0  0
  -20.9506  -19.0669   25.2544 C   0  0  0  0  0  0  0  0  0  0  0  0
  -30.9107  -18.6424   23.3099 C   0  0  0  0  0  0  0  0  0  0  0  0
  -25.4712  -25.9722   24.6307 C   0  0  0  0  0  0  0  0  0  0  0  0
  -23.0281  -27.6831   23.3555 C   0  0  0  0  0  0  0  0  0  0  0  0
  -19.5816  -27.0920   22.4669 C   0  0  0  0  0  0  0  0  0  0  0  0
  -26.2117  -12.3925   20.4380 C   0  0  0  0  0  0  0  0  0  0  0  0
  -26.3490  -29.0100   28.9745 C   0  0  0  0  0  0  0  0  0  0  0  0
  -25.2258  -24.8890   22.3674 C   0  0  0  0  0  0  0  0  0  0  0  0
  -22.6143  -25.2204   23.7146 C   0  0  0  0  0  0  0  0  0  0  0  0
  -21.1663  -17.4911   27.2501 C   0  0  0  0  0  0  0  0  0  0  0  0
  -20.2960  -18.1055   24.2863 C   0  0  0  0  0  0  0  0  0  0  0  0
  -25.7562  -27.6048   28.9512 C   0  0  0  0  0  0  0  0  0  0  0  0
  -29.7216  -12.4489   19.8432 C   0  0  0  0  0  0  0  0  0  0  0  0
  -25.2424  -27.2805   27.5564 C   0  0  0  0  0  0  0  0  0  0  0  0
  -30.1359  -13.8689   20.2330 C   0  0  0  0  0  0  0  0  0  0  0  0
  -21.7728  -16.2718   26.5502 C   0  0  0  0  0  0  0  0  0  0  0  0
  -20.0293  -16.6783   24.7687 C   0  0  0  0  0  0  0  0  0  0  0  0
  -28.3459  -12.4241   19.1808 C   0  0  0  0  0  0  0  0  0  0  0  0
  -27.6871  -14.4928   20.3472 C   0  0  0  0  0  0  0  0  0  0  0  0
  -26.3902  -27.2766   26.5388 C   0  0  1  0  0  0  0  0  0  0  0  0
  -24.9201  -26.1032   23.2390 C   0  0  1  0  0  0  0  0  0  0  0  0
  -29.0436  -14.5620   21.0694 C   0  0  2  0  0  0  0  0  0  0  0  0
  -18.1276  -28.1979   20.7463 C   0  0  0  0  0  0  0  0  0  0  0  0
  -22.1529  -29.4729   25.6665 C   0  0  0  0  0  0  0  0  0  0  0  0
  -19.8289  -29.4186   24.7367 C   0  0  0  0  0  0  0  0  0  0  0  0
  -21.6856  -30.4024   23.3923 C   0  0  0  0  0  0  0  0  0  0  0  0
  -18.9342  -24.5054   21.1828 C   0  0  0  0  0  0  0  0  0  0  0  0
  -21.8167  -15.8301   20.3111 C   0  0  0  0  0  0  0  0  0  0  0  0
  -24.1087  -12.5114   21.7506 C   0  0  0  0  0  0  0  0  0  0  0  0
  -21.1772  -20.4455   24.6880 C   0  0  0  0  0  0  0  0  0  1  0  0
  -21.5751  -27.8961   23.7054 C   0  0  1  0  0  0  0  0  0  0  0  0
  -19.0077  -26.9992   21.0646 C   0  0  2  0  0  0  0  0  0  0  0  0
  -21.3241  -29.2733   24.3818 C   0  0  0  0  0  0  0  0  0  0  0  0
  -29.0407  -16.9857   20.6131 N   0  0  0  0  0  0  0  0  0  0  0  0
  -29.4291  -15.9864   21.4235 N   0  0  0  0  0  0  0  0  0  0  0  0
  -21.2699  -16.0290   25.1924 N   0  0  3  0  0  0  0  0  0  0  0  0
  -23.4840  -26.3573   23.3706 N   0  0  0  0  0  0  0  0  0  0  0  0
  -27.3555  -13.0958   20.0257 N   0  0  0  0  0  0  0  0  0  0  0  0
  -30.6176  -15.5273   23.4203 N   0  0  0  0  0  0  0  0  0  0  0  0
  -30.1826  -19.1707   24.3847 N   0  0  0  0  0  0  0  0  0  0  0  0
  -25.8389  -27.1737   25.2057 N   0  0  0  0  0  0  0  0  0  0  0  0
  -20.8238  -27.6905   22.4718 N   0  0  0  0  0  0  0  0  0  0  0  0
  -25.3271  -13.1010   21.2420 N   0  0  0  0  0  0  0  0  0  0  0  0
  -18.1879  -25.7630   20.9211 N   0  3  0  0  0  0  0  0  0  0  0  0
  -32.1163  -18.9594   23.1702 O   0  0  0  0  0  0  0  0  0  0  0  0
  -25.5551  -24.8632   25.1454 O   0  0  0  0  0  0  0  0  0  0  0  0
  -23.7308  -28.6565   23.0720 O   0  0  0  0  0  0  0  0  0  0  0  0
  -18.9858  -26.6786   23.4591 O   0  0  0  0  0  0  0  0  0  0  0  0
  -25.9974  -11.2184   20.1181 O   0  0  0  0  0  0  0  0  0  0  0  0
  -28.7282  -23.1293   18.9682 O   0  0  0  0  0  0  0  0  0  0  0  0
  -22.5862  -14.7195   20.7674 O   0  0  0  0  0  0  0  0  0  0  0  0
  -22.0219  -20.3668   23.5405 O   0  0  0  0  0  0  0  0  0  1  0  0
  -31.8458  -27.2843   20.8178 F   0  0  0  0  0  0  0  0  0  0  0  0
  -30.3883  -24.5279   17.2563 F   0  0  0  0  0  0  0  0  0  0  0  0
  1  2  1  0  0  0  0
  1  5  2  0  0  0  0
  2  6  2  0  0  0  0
  3 10  2  0  0  0  0
  3 18  1  0  0  0  0
  4 11  1  0  0  0  0
  4 18  2  0  0  0  0
  5 20  1  0  0  0  0
  6 22  1  0  0  0  0
  7 12  2  0  0  0  0
  7 21  1  0  0  0  0
  8  9  2  0  0  0  0
  8 24  1  0  0  0  0
  9 25  1  0  0  0  0
 10 26  1  0  0  0  0
 11 26  2  0  0  0  0
 12 27  1  0  0  0  0
 13 14  2  0  0  0  0
 13 28  1  0  0  0  0
 14 30  1  0  0  0  0
 15 23  1  0  0  0  0
 15 27  2  0  0  0  0
 16 25  2  0  0  0  0
 16 29  1  0  0  0  0
 17 30  2  0  0  0  0
 17 31  1  0  0  0  0
 18 32  1  0  0  0  0
 19 32  1  0  0  0  0
 19 33  2  0  0  0  0
 19 36  1  0  0  0  0
 20 22  2  0  0  0  0
 20 41  1  0  0  0  0
 21 23  2  0  0  0  0
 21 42  1  0  0  0  0
 22 54  1  0  0  0  0
 23 43  1  0  0  0  0
 24 29  2  0  0  0  0
 24 63  1  0  0  0  0
 25 70  1  0  0  0  0
 26 84  1  0  0  0  0
 27 86  1  0  0  0  0
 28 31  2  0  0  0  0
 28 84  1  0  0  0  0
 29 85  1  0  0  0  0
 30 87  1  0  0  0  0
 31 88  1  0  0  0  0
 32 68  2  0  0  0  0
 33 69  1  0  0  0  0
 33 73  1  0  0  0  0
 34 35  2  0  0  0  0
 34 44  1  0  0  0  0
 35 45  1  0  0  0  0
 35 64  1  0  0  0  0
 36 74  1  0  0  0  0
 36 79  2  0  0  0  0
 37 55  1  0  0  0  0
 37 75  1  0  0  0  0
 37 80  2  0  0  0  0
 38 65  1  0  0  0  0
 38 71  1  0  0  0  0
 38 81  2  0  0  0  0
 39 66  1  0  0  0  0
 39 76  1  0  0  0  0
 39 82  2  0  0  0  0
 40 72  1  0  0  0  0
 40 77  1  0  0  0  0
 40 83  2  0  0  0  0
 41 46  1  0  0  0  0
 42 55  1  0  0  0  0
 43 71  1  0  0  0  0
 44 50  1  0  0  0  0
 45 51  1  0  0  0  0
 46 48  1  0  0  0  0
 47 49  1  0  0  0  0
 47 52  1  0  0  0  0
 48 54  1  0  0  0  0
 49 56  1  0  0  0  0
 50 70  1  0  0  0  0
 51 70  1  0  0  0  0
 52 72  1  0  0  0  0
 53 56  1  0  0  0  0
 53 72  1  0  0  0  0
 54 75  1  0  0  0  0
 55 71  1  0  0  0  0
 56 69  1  0  0  0  0
 57 66  1  0  0  0  0
 58 67  1  0  0  0  0
 59 67  1  0  0  0  0
 60 67  1  0  0  0  0
 61 78  1  0  0  0  0
 62 85  1  0  0  0  0
 63 77  1  0  0  0  0
 64 86  1  0  0  0  0
 65 67  1  0  0  0  0
 65 76  1  0  0  0  0
 66 78  1  0  0  0  0
 68 69  1  0  0  0  0
M  CHG  1  78   1
M  ISO  4  40 100  64 101  77 100  86 101
M  END
> <Batch ID>
0093

> <Smiles>
CNC(C)C(=O)NC(C(=O)N1Cc2cc([101O:1][101CH2:1]C3=CCCN(c4ccc(C[100NH:0][100C:0](=O)N5CCCC(n6nc(-c7ccc(Oc8ccc(F)cc8F)cc7)c(C(N)=O)c6N)C5)c(OC)c4)CC3)ccc2CC1C(=O)NC1CCCc2ccccc21)C(C)(C)C

> <Shape>
0.225

> <Color>
0.074

> <Negative vol penalty>
0.000

$$$$

  -OEChem-04052300373D

 84 92  0     1  0  0  0  0  0999 V2000
  -26.4366  -32.8752   27.1922 C   0  0  0  0  0  0  0  0  0  0  0  0
  -26.9935  -32.0311   26.2368 C   0  0  0  0  0  0  0  0  0  0  0  0
  -22.8234  -11.4969   18.7241 C   0  0  0  0  0  0  0  0  0  0  0  0
  -22.8217  -10.3603   20.8561 C   0  0  0  0  0  0  0  0  0  0  0  0
  -30.4387  -19.5320   19.3289 C   0  0  0  0  0  0  0  0  0  0  0  0
  -25.1495  -32.6322   27.6700 C   0  0  0  0  0  0  0  0  0  0  0  0
  -26.2640  -30.9428   25.7594 C   0  0  0  0  0  0  0  0  0  0  0  0
  -26.3666  -28.6468   20.0829 C   0  0  0  0  0  0  0  0  0  0  0  0
  -29.6235  -20.6631   19.2864 C   0  0  0  0  0  0  0  0  0  0  0  0
  -21.8021  -10.6590   18.2765 C   0  0  0  0  0  0  0  0  0  0  0  0
  -21.8003   -9.5223   20.4085 C   0  0  0  0  0  0  0  0  0  0  0  0
  -27.0390  -27.5619   19.5219 C   0  0  0  0  0  0  0  0  0  0  0  0
  -21.5031   -6.7873   18.4433 C   0  0  0  0  0  0  0  0  0  0  0  0
  -21.6236   -5.4224   18.7040 C   0  0  0  0  0  0  0  0  0  0  0  0
  -28.5989  -18.2392   20.2125 C   0  0  0  0  0  0  0  0  0  0  0  0
  -25.0821  -26.1891   19.8463 C   0  0  0  0  0  0  0  0  0  0  0  0
  -19.5627   -5.4810   19.9634 C   0  0  0  0  0  0  0  0  0  0  0  0
  -23.3333  -11.3476   20.0139 C   0  0  0  0  0  0  0  0  0  0  0  0
  -29.9264  -18.3200   19.7919 C   0  0  0  0  0  0  0  0  0  0  0  0
  -24.2474  -13.4484   21.1357 C   0  0  0  0  0  0  0  0  0  0  0  0
  -24.4001  -31.5460   27.1912 C   0  0  0  0  0  0  0  0  0  0  0  0
  -25.0484  -28.5079   20.5405 C   0  0  0  0  0  0  0  0  0  0  0  0
  -24.9662  -30.6843   26.2323 C   0  0  0  0  0  0  0  0  0  0  0  0
  -24.3944  -27.2744   20.4104 C   0  0  0  0  0  0  0  0  0  0  0  0
  -28.2960  -20.5822   19.7071 C   0  0  0  0  0  0  0  0  0  0  0  0
  -27.7837  -19.3702   20.1701 C   0  0  0  0  0  0  0  0  0  0  0  0
  -21.2906   -9.6717   19.1187 C   0  0  0  0  0  0  0  0  0  0  0  0
  -26.3977  -26.3320   19.4062 C   0  0  0  0  0  0  0  0  0  0  0  0
  -20.4124   -7.4991   18.9427 C   0  0  0  0  0  0  0  0  0  0  0  0
  -20.6534   -4.7692   19.4640 C   0  0  0  0  0  0  0  0  0  0  0  0
  -19.4422   -6.8459   19.7027 C   0  0  0  0  0  0  0  0  0  0  0  0
  -24.3887  -12.2125   20.4767 C   0  0  0  0  0  0  0  0  0  0  0  0
  -25.5362  -13.8667   21.3608 C   0  0  0  0  0  0  0  0  0  0  0  0
  -30.7950  -17.1157   19.8366 C   0  0  0  0  0  0  0  0  0  0  0  0
  -23.0577  -14.1550   21.5110 C   0  0  0  0  0  0  0  0  0  0  0  0
  -23.6116  -28.7931   23.3615 C   0  0  0  0  0  0  0  0  0  0  0  0
  -20.9236  -28.3557   21.5991 C   0  0  0  0  0  0  0  0  0  0  0  0
  -27.8544  -23.0111   19.2177 C   0  0  0  0  0  0  0  0  0  0  0  0
  -19.4911  -27.1236   18.7572 C   0  0  0  0  0  0  0  0  0  0  0  0
  -30.7672  -14.6446   19.7088 C   0  0  0  0  0  0  0  0  0  0  0  0
  -23.0310  -31.2962   27.7723 C   0  0  0  0  0  0  0  0  0  0  0  0
  -24.3279  -29.6948   21.1188 C   0  0  0  0  0  0  0  0  0  0  0  0
  -22.9728  -27.0785   20.8678 C   0  0  0  0  0  0  0  0  0  0  0  0
  -22.1814  -30.3391   26.9401 C   0  0  0  0  0  0  0  0  0  0  0  0
  -29.9358  -11.4075   20.8610 C   0  0  0  0  0  0  0  0  0  0  0  0
  -22.9958  -29.1130   26.5396 C   0  0  0  0  0  0  0  0  0  0  0  0
  -28.4062  -11.4294   20.9267 C   0  0  0  0  0  0  0  0  0  0  0  0
  -30.4631  -12.1848   19.6557 C   0  0  0  0  0  0  0  0  0  0  0  0
  -28.4340  -13.5765   19.5950 C   0  0  0  0  0  0  0  0  0  0  0  0
  -24.1968  -29.5078   25.6718 C   0  0  1  0  0  0  0  0  0  0  0  0
  -23.1621  -29.3043   22.0220 C   0  0  1  0  0  0  0  0  0  0  0  0
  -27.8564  -12.8668   20.8302 C   0  0  1  0  0  0  0  0  0  0  0  0
  -17.2691  -26.8828   17.6161 C   0  0  0  0  0  0  0  0  0  0  0  0
  -20.1925  -26.0889   23.5062 C   0  0  0  0  0  0  0  0  0  0  0  0
  -18.5268  -25.2957   21.8138 C   0  0  0  0  0  0  0  0  0  0  0  0
  -18.2768  -27.5538   22.8439 C   0  0  0  0  0  0  0  0  0  0  0  0
  -20.3790  -28.7297   16.4353 C   0  0  0  0  0  0  0  0  0  0  0  0
  -26.6854  -23.9727   19.3240 C   0  0  0  0  0  0  0  0  0  1  0  0
  -20.1181  -27.1579   21.1572 C   0  0  1  0  0  0  0  0  0  0  0  0
  -18.5150  -27.7408   17.7720 C   0  0  2  0  0  0  0  0  0  0  0  0
  -19.3060  -26.5269   22.3233 C   0  0  0  0  0  0  0  0  0  0  0  0
  -25.6663  -11.8682   20.2947 N   0  0  0  0  0  0  0  0  0  0  0  0
  -26.3397  -12.8940   20.8427 N   0  0  0  0  0  0  0  0  0  0  0  0
  -22.3129  -28.2674   21.4322 N   0  0  0  0  0  0  0  0  0  0  0  0
  -29.9033  -13.5375   19.6425 N   0  0  0  0  0  0  0  0  0  0  0  0
  -26.4420  -19.2647   20.6002 N   0  0  0  0  0  0  0  0  0  0  0  0
  -26.0491  -14.9681   21.9492 N   0  0  0  0  0  0  0  0  0  0  0  0
  -21.8157  -13.5827   21.2040 N   0  0  0  0  0  0  0  0  0  0  0  0
  -27.4876  -21.7424   19.6537 N   0  0  0  0  0  0  0  0  0  0  0  0
  -30.1333  -15.8918   19.7333 N   0  0  0  0  0  0  0  0  0  0  0  0
  -23.7724  -29.7800   24.3152 N   0  0  0  0  0  0  0  0  0  0  0  0
  -19.3015  -27.6067   20.0347 N   0  0  0  0  0  0  0  0  0  0  0  0
  -19.1539  -27.8892   16.4338 N   0  3  0  0  0  0  0  0  0  0  0  0
  -32.0118  -17.2587   19.9191 O   0  0  0  0  0  0  0  0  0  0  0  0
  -23.0949  -15.2690   22.0865 O   0  0  0  0  0  0  0  0  0  0  0  0
  -23.7972  -27.5920   23.5185 O   0  0  0  0  0  0  0  0  0  0  0  0
  -20.3410  -29.3366   22.0683 O   0  0  0  0  0  0  0  0  0  0  0  0
  -28.9476  -23.3729   18.7953 O   0  0  0  0  0  0  0  0  0  0  0  0
  -20.3347  -26.2929   18.4273 O   0  0  0  0  0  0  0  0  0  0  0  0
  -31.9951  -14.5318   19.7789 O   0  0  0  0  0  0  0  0  0  0  0  0
  -20.2938   -8.8540   18.6823 O   0  0  0  0  0  0  0  0  0  0  0  0
  -27.0519  -25.2713   18.8596 O   0  0  0  0  0  0  0  0  0  1  0  0
  -20.7685   -3.4581   19.7130 F   0  0  0  0  0  0  0  0  0  0  0  0
  -18.3915   -7.5243   20.1842 F   0  0  0  0  0  0  0  0  0  0  0  0
  1  2  1  0  0  0  0
  1  6  2  0  0  0  0
  2  7  2  0  0  0  0
  3 10  2  0  0  0  0
  3 18  1  0  0  0  0
  4 11  1  0  0  0  0
  4 18  2  0  0  0  0
  5  9  2  0  0  0  0
  5 19  1  0  0  0  0
  6 21  1  0  0  0  0
  7 23  1  0  0  0  0
  8 12  2  0  0  0  0
  8 22  1  0  0  0  0
  9 25  1  0  0  0  0
 10 27  1  0  0  0  0
 11 27  2  0  0  0  0
 12 28  1  0  0  0  0
 13 14  2  0  0  0  0
 13 29  1  0  0  0  0
 14 30  1  0  0  0  0
 15 19  2  0  0  0  0
 15 26  1  0  0  0  0
 16 24  1  0  0  0  0
 16 28  2  0  0  0  0
 17 30  2  0  0  0  0
 17 31  1  0  0  0  0
 18 32  1  0  0  0  0
 19 34  1  0  0  0  0
 20 32  1  0  0  0  0
 20 33  2  0  0  0  0
 20 35  1  0  0  0  0
 21 23  2  0  0  0  0
 21 41  1  0  0  0  0
 22 24  2  0  0  0  0
 22 42  1  0  0  0  0
 23 50  1  0  0  0  0
 24 43  1  0  0  0  0
 25 26  2  0  0  0  0
 25 69  1  0  0  0  0
 26 66  1  0  0  0  0
 27 81  1  0  0  0  0
 28 82  1  0  0  0  0
 29 31  2  0  0  0  0
 29 81  1  0  0  0  0
 30 83  1  0  0  0  0
 31 84  1  0  0  0  0
 32 62  2  0  0  0  0
 33 63  1  0  0  0  0
 33 67  1  0  0  0  0
 34 70  1  0  0  0  0
 34 74  2  0  0  0  0
 35 68  1  0  0  0  0
 35 75  2  0  0  0  0
 36 51  1  0  0  0  0
 36 71  1  0  0  0  0
 36 76  2  0  0  0  0
 37 59  1  0  0  0  0
 37 64  1  0  0  0  0
 37 77  2  0  0  0  0
 38 58  1  0  0  0  0
 38 69  1  0  0  0  0
 38 78  2  0  0  0  0
 39 60  1  0  0  0  0
 39 72  1  0  0  0  0
 39 79  2  0  0  0  0
 40 65  1  0  0  0  0
 40 70  1  0  0  0  0
 40 80  2  0  0  0  0
 41 44  1  0  0  0  0
 42 51  1  0  0  0  0
 43 64  1  0  0  0  0
 44 46  1  0  0  0  0
 45 47  1  0  0  0  0
 45 48  1  0  0  0  0
 46 50  1  0  0  0  0
 47 52  1  0  0  0  0
 48 65  1  0  0  0  0
 49 52  1  0  0  0  0
 49 65  1  0  0  0  0
 50 71  1  0  0  0  0
 51 64  1  0  0  0  0
 52 63  1  0  0  0  0
 53 60  1  0  0  0  0
 54 61  1  0  0  0  0
 55 61  1  0  0  0  0
 56 61  1  0  0  0  0
 57 73  1  0  0  0  0
 58 82  1  0  0  0  0
 59 61  1  0  0  0  0
 59 72  1  0  0  0  0
 60 73  1  0  0  0  0
 62 63  1  0  0  0  0
M  CHG  1  73   1
M  ISO  4  40 100  58 101  70 100  82 101
M  END
> <Batch ID>
0093

> <Smiles>
CNC(C)C(=O)NC(C(=O)N1Cc2cc([101O:1][101CH2:1]C(=O)Nc3ccc(C(=O)[100NH:0][100C:0](=O)N4CCCC(n5nc(-c6ccc(Oc7ccc(F)cc7F)cc6)c(C(N)=O)c5N)C4)cc3N)ccc2CC1C(=O)NC1CCCc2ccccc21)C(C)(C)C

> <Shape>
0.296

> <Color>
0.097

> <Negative vol penalty>
0.000

$$$$

  -OEChem-04052300373D

 84 92  0     1  0  0  0  0  0999 V2000
  -33.4044  -28.5302   16.4090 C   0  0  0  0  0  0  0  0  0  0  0  0
  -32.6742  -27.6355   17.1847 C   0  0  0  0  0  0  0  0  0  0  0  0
  -29.3779  -17.6443   22.9520 C   0  0  0  0  0  0  0  0  0  0  0  0
  -22.5988  -15.9071   21.2905 C   0  0  0  0  0  0  0  0  0  0  0  0
  -23.5323  -17.7152   19.9881 C   0  0  0  0  0  0  0  0  0  0  0  0
  -33.5016  -29.8667   16.7939 C   0  0  0  0  0  0  0  0  0  0  0  0
  -32.0416  -28.0766   18.3464 C   0  0  0  0  0  0  0  0  0  0  0  0
  -27.3114  -26.3186   18.7702 C   0  0  0  0  0  0  0  0  0  0  0  0
  -28.8639  -18.8270   22.4207 C   0  0  0  0  0  0  0  0  0  0  0  0
  -30.1294  -16.7872   22.1480 C   0  0  0  0  0  0  0  0  0  0  0  0
  -21.7031  -16.7967   21.8837 C   0  0  0  0  0  0  0  0  0  0  0  0
  -22.6366  -18.6049   20.5812 C   0  0  0  0  0  0  0  0  0  0  0  0
  -27.1580  -24.9999   19.1960 C   0  0  0  0  0  0  0  0  0  0  0  0
  -18.9296  -18.5253   23.4758 C   0  0  0  0  0  0  0  0  0  0  0  0
  -17.5980  -18.1260   23.5889 C   0  0  0  0  0  0  0  0  0  0  0  0
  -26.6724  -25.7827   21.4255 C   0  0  0  0  0  0  0  0  0  0  0  0
  -17.4581  -17.9121   21.1864 C   0  0  0  0  0  0  0  0  0  0  0  0
  -23.5135  -16.3663   20.3427 C   0  0  0  0  0  0  0  0  0  0  0  0
  -24.2428  -14.7016   18.5527 C   0  0  0  0  0  0  0  0  0  0  0  0
  -32.8619  -30.3265   17.9558 C   0  0  0  0  0  0  0  0  0  0  0  0
  -27.1569  -27.3806   19.6728 C   0  0  0  0  0  0  0  0  0  0  0  0
  -32.1315  -29.4202   18.7480 C   0  0  0  0  0  0  0  0  0  0  0  0
  -26.8218  -27.1140   21.0080 C   0  0  0  0  0  0  0  0  0  0  0  0
  -29.1011  -19.1527   21.0853 C   0  0  0  0  0  0  0  0  0  0  0  0
  -30.3666  -17.1128   20.8126 C   0  0  0  0  0  0  0  0  0  0  0  0
  -21.7220  -18.1456   21.5290 C   0  0  0  0  0  0  0  0  0  0  0  0
  -26.8413  -24.7317   20.5244 C   0  0  0  0  0  0  0  0  0  0  0  0
  -19.5255  -18.6181   22.2180 C   0  0  0  0  0  0  0  0  0  0  0  0
  -16.8622  -17.8194   22.4442 C   0  0  0  0  0  0  0  0  0  0  0  0
  -18.7898  -18.3115   21.0733 C   0  0  0  0  0  0  0  0  0  0  0  0
  -29.8525  -18.2956   20.2812 C   0  0  0  0  0  0  0  0  0  0  0  0
  -24.4393  -15.4479   19.7300 C   0  0  0  0  0  0  0  0  0  0  0  0
  -25.4077  -13.9903   18.3986 C   0  0  0  0  0  0  0  0  0  0  0  0
  -32.6450  -15.8790   18.1494 C   0  0  0  0  0  0  0  0  0  0  0  0
  -31.9184  -16.6842   18.9276 C   0  0  0  0  0  0  0  0  0  0  0  0
  -23.1088  -14.6554   17.6766 C   0  0  0  0  0  0  0  0  0  0  0  0
  -29.0522  -29.6828   20.7734 C   0  0  0  0  0  0  0  0  0  0  0  0
  -26.3226  -30.7179   22.1875 C   0  0  0  0  0  0  0  0  0  0  0  0
  -27.8154  -21.3128   21.2070 C   0  0  0  0  0  0  0  0  0  0  0  0
  -23.2114  -29.9709   23.3746 C   0  0  0  0  0  0  0  0  0  0  0  0
  -30.9949  -14.8195   20.1505 C   0  0  0  0  0  0  0  0  0  0  0  0
  -33.0348  -31.7701   18.3568 C   0  0  0  0  0  0  0  0  0  0  0  0
  -27.2995  -28.7985   19.1917 C   0  0  0  0  0  0  0  0  0  0  0  0
  -26.6253  -28.2193   22.0121 C   0  0  0  0  0  0  0  0  0  0  0  0
  -32.0240  -32.2375   19.4009 C   0  0  0  0  0  0  0  0  0  0  0  0
  -28.9886  -12.0630   20.9024 C   0  0  0  0  0  0  0  0  0  0  0  0
  -31.9105  -31.2165   20.5285 C   0  0  0  0  0  0  0  0  0  0  0  0
  -27.5721  -12.5393   20.5821 C   0  0  0  0  0  0  0  0  0  0  0  0
  -29.8003  -13.1689   21.5673 C   0  0  0  0  0  0  0  0  0  0  0  0
  -28.4621  -14.9173   20.4378 C   0  0  0  0  0  0  0  0  0  0  0  0
  -31.4106  -29.8660   20.0017 C   0  0  1  0  0  0  0  0  0  0  0  0
  -27.6252  -29.7801   20.3132 C   0  0  1  0  0  0  0  0  0  0  0  0
  -27.5994  -13.8369   19.7553 C   0  0  2  0  0  0  0  0  0  0  0  0
  -21.2321  -31.0168   24.5087 C   0  0  0  0  0  0  0  0  0  0  0  0
  -27.8408  -30.7151   24.8342 C   0  0  0  0  0  0  0  0  0  0  0  0
  -25.6377  -30.8303   26.0181 C   0  0  0  0  0  0  0  0  0  0  0  0
  -26.3334  -32.6821   24.4984 C   0  0  0  0  0  0  0  0  0  0  0  0
  -21.4241  -29.3270   21.1052 C   0  0  0  0  0  0  0  0  0  0  0  0
  -27.4581  -22.4493   20.2672 C   0  0  0  0  0  0  0  0  0  1  0  0
  -25.6395  -30.4614   23.5091 C   0  0  1  0  0  0  0  0  0  0  0  0
  -21.8680  -30.6498   23.1769 C   0  0  2  0  0  0  0  0  0  0  0  0
  -26.3684  -31.1511   24.6967 C   0  0  0  0  0  0  0  0  0  0  0  0
  -25.6349  -15.2309   20.2847 N   0  0  0  0  0  0  0  0  0  0  0  0
  -26.2001  -14.3400   19.4522 N   0  0  0  0  0  0  0  0  0  0  0  0
  -26.7816  -29.5887   21.4946 N   0  0  0  0  0  0  0  0  0  0  0  0
  -29.7979  -14.3852   20.7538 N   0  0  0  0  0  0  0  0  0  0  0  0
  -25.8212  -13.1061   17.4661 N   0  0  0  0  0  0  0  0  0  0  0  0
  -21.9953  -15.4497   17.9826 N   0  0  0  0  0  0  0  0  0  0  0  0
  -28.5781  -20.3535   20.5496 N   0  0  0  0  0  0  0  0  0  0  0  0
  -29.9817  -29.9090   19.7762 N   0  0  0  0  0  0  0  0  0  0  0  0
  -24.2511  -30.8758   23.3382 N   0  0  0  0  0  0  0  0  0  0  0  0
  -31.1473  -16.2202   19.9809 N   0  0  0  0  0  0  0  0  0  0  0  0
  -20.9351  -29.7485   22.4432 N   0  3  0  0  0  0  0  0  0  0  0  0
  -23.0773  -13.9188   16.6617 O   0  0  0  0  0  0  0  0  0  0  0  0
  -29.2923  -29.4232   21.9467 O   0  0  0  0  0  0  0  0  0  0  0  0
  -26.4381  -31.8770   21.7815 O   0  0  0  0  0  0  0  0  0  0  0  0
  -27.4470  -21.3066   22.3769 O   0  0  0  0  0  0  0  0  0  0  0  0
  -23.3264  -28.7596   23.5479 O   0  0  0  0  0  0  0  0  0  0  0  0
  -31.8768  -14.0222   19.8056 O   0  0  0  0  0  0  0  0  0  0  0  0
  -20.8479  -19.0140   22.1075 O   0  0  0  0  0  0  0  0  0  0  0  0
  -26.6916  -23.4454   20.9428 O   0  0  0  0  0  0  0  0  0  1  0  0
  -15.5839  -17.4344   22.5530 F   0  0  0  0  0  0  0  0  0  0  0  0
  -19.3572  -18.3977   19.8624 F   0  0  0  0  0  0  0  0  0  0  0  0
  -30.0799  -18.6085   18.9962 F   0  0  0  0  0  0  0  0  0  0  0  0
  1  2  1  0  0  0  0
  1  6  2  0  0  0  0
  2  7  2  0  0  0  0
  3  9  1  0  0  0  0
  3 10  2  0  0  0  0
  4 11  2  0  0  0  0
  4 18  1  0  0  0  0
  5 12  1  0  0  0  0
  5 18  2  0  0  0  0
  6 20  1  0  0  0  0
  7 22  1  0  0  0  0
  8 13  2  0  0  0  0
  8 21  1  0  0  0  0
  9 24  2  0  0  0  0
 10 25  1  0  0  0  0
 11 26  1  0  0  0  0
 12 26  2  0  0  0  0
 13 27  1  0  0  0  0
 14 15  2  0  0  0  0
 14 28  1  0  0  0  0
 15 29  1  0  0  0  0
 16 23  1  0  0  0  0
 16 27  2  0  0  0  0
 17 29  2  0  0  0  0
 17 30  1  0  0  0  0
 18 32  1  0  0  0  0
 19 32  1  0  0  0  0
 19 33  2  0  0  0  0
 19 36  1  0  0  0  0
 20 22  2  0  0  0  0
 20 42  1  0  0  0  0
 21 23  2  0  0  0  0
 21 43  1  0  0  0  0
 22 51  1  0  0  0  0
 23 44  1  0  0  0  0
 24 31  1  0  0  0  0
 24 69  1  0  0  0  0
 25 31  2  0  0  0  0
 25 72  1  0  0  0  0
 26 80  1  0  0  0  0
 27 81  1  0  0  0  0
 28 30  2  0  0  0  0
 28 80  1  0  0  0  0
 29 82  1  0  0  0  0
 30 83  1  0  0  0  0
 31 84  1  0  0  0  0
 32 63  2  0  0  0  0
 33 64  1  0  0  0  0
 33 67  1  0  0  0  0
 34 35  2  0  0  0  0
 35 72  1  0  0  0  0
 36 68  1  0  0  0  0
 36 74  2  0  0  0  0
 37 52  1  0  0  0  0
 37 70  1  0  0  0  0
 37 75  2  0  0  0  0
 38 60  1  0  0  0  0
 38 65  1  0  0  0  0
 38 76  2  0  0  0  0
 39 59  1  0  0  0  0
 39 69  1  0  0  0  0
 39 77  2  0  0  0  0
 40 61  1  0  0  0  0
 40 71  1  0  0  0  0
 40 78  2  0  0  0  0
 41 66  1  0  0  0  0
 41 72  1  0  0  0  0
 41 79  2  0  0  0  0
 42 45  1  0  0  0  0
 43 52  1  0  0  0  0
 44 65  1  0  0  0  0
 45 47  1  0  0  0  0
 46 48  1  0  0  0  0
 46 49  1  0  0  0  0
 47 51  1  0  0  0  0
 48 53  1  0  0  0  0
 49 66  1  0  0  0  0
 50 53  1  0  0  0  0
 50 66  1  0  0  0  0
 51 70  1  0  0  0  0
 52 65  1  0  0  0  0
 53 64  1  0  0  0  0
 54 61  1  0  0  0  0
 55 62  1  0  0  0  0
 56 62  1  0  0  0  0
 57 62  1  0  0  0  0
 58 73  1  0  0  0  0
 59 81  1  0  0  0  0
 60 62  1  0  0  0  0
 60 71  1  0  0  0  0
 61 73  1  0  0  0  0
 63 64  1  0  0  0  0
M  CHG  1  73   1
M  ISO  4  41 100  59 101  72 100  81 101
M  END
> <Batch ID>
0093

> <Smiles>
C=C[100N:0](c1cccc(NC(=O)[101CH2:1][101O:1]c2ccc3c(c2)CN(C(=O)C(NC(=O)C(C)NC)C(C)(C)C)C(C(=O)NC2CCCc4ccccc42)C3)c1F)[100C:0](=O)N1CCCC(n2nc(-c3ccc(Oc4ccc(F)cc4F)cc3)c(C(N)=O)c2N)C1

> <Shape>
0.220

> <Color>
0.088

> <Negative vol penalty>
0.000

$$$$

  -OEChem-04052300373D

 85 93  0     1  0  0  0  0  0999 V2000
  -31.0116  -34.1279   17.1827 C   0  0  0  0  0  0  0  0  0  0  0  0
  -30.3645  -32.8972   17.1369 C   0  0  0  0  0  0  0  0  0  0  0  0
  -22.9288  -10.7147   19.2515 C   0  0  0  0  0  0  0  0  0  0  0  0
  -23.2880   -9.5782   21.3530 C   0  0  0  0  0  0  0  0  0  0  0  0
  -29.4280  -19.6482   20.3592 C   0  0  0  0  0  0  0  0  0  0  0  0
  -27.8585  -18.2222   19.2016 C   0  0  0  0  0  0  0  0  0  0  0  0
  -31.0970  -34.8248   18.3872 C   0  0  0  0  0  0  0  0  0  0  0  0
  -29.8034  -32.3622   18.2959 C   0  0  0  0  0  0  0  0  0  0  0  0
  -24.6991  -29.0028   18.7033 C   0  0  0  0  0  0  0  0  0  0  0  0
  -28.4681  -20.6587   20.4159 C   0  0  0  0  0  0  0  0  0  0  0  0
  -26.8986  -19.2326   19.2583 C   0  0  0  0  0  0  0  0  0  0  0  0
  -21.9902   -9.7485   18.8894 C   0  0  0  0  0  0  0  0  0  0  0  0
  -22.3493   -8.6121   20.9910 C   0  0  0  0  0  0  0  0  0  0  0  0
  -24.4857  -27.6279   18.7919 C   0  0  0  0  0  0  0  0  0  0  0  0
  -18.9835   -8.3233   20.8976 C   0  0  0  0  0  0  0  0  0  0  0  0
  -18.0445   -7.9429   21.8563 C   0  0  0  0  0  0  0  0  0  0  0  0
  -24.3393  -27.8113   21.1927 C   0  0  0  0  0  0  0  0  0  0  0  0
  -18.8428   -5.6658   21.7346 C   0  0  0  0  0  0  0  0  0  0  0  0
  -23.5778  -10.6295   20.4833 C   0  0  0  0  0  0  0  0  0  0  0  0
  -29.1232  -18.4300   19.7520 C   0  0  0  0  0  0  0  0  0  0  0  0
  -24.3074  -12.8293   21.5492 C   0  0  0  0  0  0  0  0  0  0  0  0
  -30.5283  -34.3026   19.5596 C   0  0  0  0  0  0  0  0  0  0  0  0
  -24.7452  -29.7919   19.8616 C   0  0  0  0  0  0  0  0  0  0  0  0
  -29.8825  -33.0521   19.5175 C   0  0  0  0  0  0  0  0  0  0  0  0
  -24.5509  -29.1963   21.1160 C   0  0  0  0  0  0  0  0  0  0  0  0
  -27.2034  -20.4509   19.8655 C   0  0  0  0  0  0  0  0  0  0  0  0
  -21.7004   -8.6972   19.7591 C   0  0  0  0  0  0  0  0  0  0  0  0
  -24.3086  -27.0315   20.0369 C   0  0  0  0  0  0  0  0  0  0  0  0
  -19.8522   -7.3750   20.3573 C   0  0  0  0  0  0  0  0  0  0  0  0
  -17.9742   -6.6141   22.2748 C   0  0  0  0  0  0  0  0  0  0  0  0
  -19.7819   -6.0462   20.7759 C   0  0  0  0  0  0  0  0  0  0  0  0
  -24.5479  -11.6269   20.8577 C   0  0  0  0  0  0  0  0  0  0  0  0
  -25.5442  -13.4170   21.6565 C   0  0  0  0  0  0  0  0  0  0  0  0
  -25.1919  -24.8764   20.2520 C   0  0  0  0  0  0  0  0  0  1  0  0
  -30.1455  -17.3539   19.6914 C   0  0  0  0  0  0  0  0  0  0  0  0
  -23.0761  -13.3670   22.0498 C   0  0  0  0  0  0  0  0  0  0  0  0
  -25.1043  -23.5442   20.3476 C   0  0  0  0  0  0  0  0  0  0  0  0
  -26.3627  -22.7403   20.4836 C   0  0  0  0  0  0  0  0  0  0  0  0
  -26.9484  -31.6177   21.2457 C   0  0  0  0  0  0  0  0  0  0  0  0
  -24.5063  -32.3756   23.2417 C   0  0  0  0  0  0  0  0  0  0  0  0
  -21.5073  -31.4983   24.6140 C   0  0  0  0  0  0  0  0  0  0  0  0
  -30.4369  -14.9023   19.5228 C   0  0  0  0  0  0  0  0  0  0  0  0
  -30.6872  -35.0704   20.8479 C   0  0  0  0  0  0  0  0  0  0  0  0
  -24.9497  -31.2777   19.7472 C   0  0  0  0  0  0  0  0  0  0  0  0
  -24.5712  -30.0023   22.3882 C   0  0  0  0  0  0  0  0  0  0  0  0
  -29.7400  -34.6093   21.9526 C   0  0  0  0  0  0  0  0  0  0  0  0
  -30.1635  -11.5772   20.6917 C   0  0  0  0  0  0  0  0  0  0  0  0
  -29.7364  -33.0871   22.0519 C   0  0  0  0  0  0  0  0  0  0  0  0
  -28.6587  -11.3919   20.9048 C   0  0  0  0  0  0  0  0  0  0  0  0
  -30.4615  -12.4243   19.4553 C   0  0  0  0  0  0  0  0  0  0  0  0
  -28.2680  -13.5293   19.6151 C   0  0  0  0  0  0  0  0  0  0  0  0
  -29.2397  -32.4504   20.7483 C   0  0  1  0  0  0  0  0  0  0  0  0
  -25.4901  -31.9067   21.0277 C   0  0  1  0  0  0  0  0  0  0  0  0
  -27.9144  -12.7422   20.8874 C   0  0  1  0  0  0  0  0  0  0  0  0
  -19.7749  -32.3030   26.2414 C   0  0  0  0  0  0  0  0  0  0  0  0
  -26.3248  -31.5897   25.5624 C   0  0  0  0  0  0  0  0  0  0  0  0
  -24.2973  -31.4970   27.0284 C   0  0  0  0  0  0  0  0  0  0  0  0
  -24.9617  -33.6492   25.9563 C   0  0  0  0  0  0  0  0  0  0  0  0
  -19.4127  -31.5747   22.5246 C   0  0  0  0  0  0  0  0  0  0  0  0
  -23.9670  -31.8110   24.5337 C   0  0  1  0  0  0  0  0  0  0  0  0
  -20.2130  -32.2727   24.7854 C   0  0  2  0  0  0  0  0  0  0  0  0
  -24.8892  -32.1209   25.7466 C   0  0  0  0  0  0  0  0  0  0  0  0
  -25.8362  -11.4593   20.5474 N   0  0  0  0  0  0  0  0  0  0  0  0
  -26.4163  -12.5642   21.0463 N   0  0  0  0  0  0  0  0  0  0  0  0
  -24.7808  -31.4503   22.2247 N   0  0  0  0  0  0  0  0  0  0  0  0
  -29.7269  -13.6889   19.5202 N   0  0  0  0  0  0  0  0  0  0  0  0
  -25.9599  -14.5748   22.2124 N   0  0  0  0  0  0  0  0  0  0  0  0
  -21.8980  -12.6335   21.8536 N   0  0  0  0  0  0  0  0  0  0  0  0
  -26.2298  -21.4771   19.9238 N   0  0  0  0  0  0  0  0  0  0  0  0
  -29.6470  -16.0523   19.6305 N   0  0  0  0  0  0  0  0  0  0  0  0
  -27.7978  -32.5374   20.6607 N   0  0  0  0  0  0  0  0  0  0  0  0
  -22.6088  -32.3260   24.6688 N   0  0  0  0  0  0  0  0  0  0  0  0
  -19.1253  -31.6483   23.9803 N   0  3  0  0  0  0  0  0  0  0  0  0
  -31.3344  -17.6596   19.6589 O   0  0  0  0  0  0  0  0  0  0  0  0
  -23.0197  -14.4730   22.6388 O   0  0  0  0  0  0  0  0  0  0  0  0
  -27.3527  -23.2083   21.0358 O   0  0  0  0  0  0  0  0  0  0  0  0
  -27.2786  -30.6341   21.8977 O   0  0  0  0  0  0  0  0  0  0  0  0
  -24.6710  -33.5936   23.1362 O   0  0  0  0  0  0  0  0  0  0  0  0
  -21.5384  -30.2804   24.4517 O   0  0  0  0  0  0  0  0  0  0  0  0
  -31.6697  -14.9561   19.4723 O   0  0  0  0  0  0  0  0  0  0  0  0
  -23.8967  -22.8765   20.3274 O   0  0  0  0  0  0  0  0  0  0  0  0
  -20.7844   -7.7544   19.4062 O   0  0  0  0  0  0  0  0  0  0  0  0
  -24.1007  -25.6896   20.1262 O   0  0  0  0  0  0  0  0  0  1  0  0
  -17.0734   -6.2492   23.1966 F   0  0  0  0  0  0  0  0  0  0  0  0
  -20.6145   -5.1309   20.2614 F   0  0  0  0  0  0  0  0  0  0  0  0
  1  2  1  0  0  0  0
  1  7  2  0  0  0  0
  2  8  2  0  0  0  0
  3 12  2  0  0  0  0
  3 19  1  0  0  0  0
  4 13  1  0  0  0  0
  4 19  2  0  0  0  0
  5 10  2  0  0  0  0
  5 20  1  0  0  0  0
  6 11  1  0  0  0  0
  6 20  2  0  0  0  0
  7 22  1  0  0  0  0
  8 24  1  0  0  0  0
  9 14  2  0  0  0  0
  9 23  1  0  0  0  0
 10 26  1  0  0  0  0
 11 26  2  0  0  0  0
 12 27  1  0  0  0  0
 13 27  2  0  0  0  0
 14 28  1  0  0  0  0
 15 16  2  0  0  0  0
 15 29  1  0  0  0  0
 16 30  1  0  0  0  0
 17 25  1  0  0  0  0
 17 28  2  0  0  0  0
 18 30  2  0  0  0  0
 18 31  1  0  0  0  0
 19 32  1  0  0  0  0
 20 35  1  0  0  0  0
 21 32  1  0  0  0  0
 21 33  2  0  0  0  0
 21 36  1  0  0  0  0
 22 24  2  0  0  0  0
 22 43  1  0  0  0  0
 23 25  2  0  0  0  0
 23 44  1  0  0  0  0
 24 52  1  0  0  0  0
 25 45  1  0  0  0  0
 26 69  1  0  0  0  0
 27 82  1  0  0  0  0
 28 83  1  0  0  0  0
 29 31  2  0  0  0  0
 29 82  1  0  0  0  0
 30 84  1  0  0  0  0
 31 85  1  0  0  0  0
 32 63  2  0  0  0  0
 33 64  1  0  0  0  0
 33 67  1  0  0  0  0
 34 37  2  0  0  0  0
 34 83  1  0  0  0  0
 35 70  1  0  0  0  0
 35 74  2  0  0  0  0
 36 68  1  0  0  0  0
 36 75  2  0  0  0  0
 37 38  1  0  0  0  0
 37 81  1  0  0  0  0
 38 69  1  0  0  0  0
 38 76  2  0  0  0  0
 39 53  1  0  0  0  0
 39 71  1  0  0  0  0
 39 77  2  0  0  0  0
 40 60  1  0  0  0  0
 40 65  1  0  0  0  0
 40 78  2  0  0  0  0
 41 61  1  0  0  0  0
 41 72  1  0  0  0  0
 41 79  2  0  0  0  0
 42 66  1  0  0  0  0
 42 70  1  0  0  0  0
 42 80  2  0  0  0  0
 43 46  1  0  0  0  0
 44 53  1  0  0  0  0
 45 65  1  0  0  0  0
 46 48  1  0  0  0  0
 47 49  1  0  0  0  0
 47 50  1  0  0  0  0
 48 52  1  0  0  0  0
 49 54  1  0  0  0  0
 50 66  1  0  0  0  0
 51 54  1  0  0  0  0
 51 66  1  0  0  0  0
 52 71  1  0  0  0  0
 53 65  1  0  0  0  0
 54 64  1  0  0  0  0
 55 61  1  0  0  0  0
 56 62  1  0  0  0  0
 57 62  1  0  0  0  0
 58 62  1  0  0  0  0
 59 73  1  0  0  0  0
 60 62  1  0  0  0  0
 60 72  1  0  0  0  0
 61 73  1  0  0  0  0
 63 64  1  0  0  0  0
M  CHG  1  73   1
M  ISO  4  34 101  42 100  70 100  83 101
M  END
> <Batch ID>
0093

> <Smiles>
CNC(C)C(=O)NC(C(=O)N1Cc2cc([101O:1][101CH2:1]C(=O)C(=O)Nc3ccc(C(=O)[100NH:0][100C:0](=O)N4CCCC(n5nc(-c6ccc(Oc7ccc(F)cc7F)cc6)c(C(N)=O)c5N)C4)cc3)ccc2CC1C(=O)NC1CCCc2ccccc21)C(C)(C)C

> <Shape>
0.257

> <Color>
0.104

> <Negative vol penalty>
0.000

$$$$

  -OEChem-04052300373D

 88 97  0     1  0  0  0  0  0999 V2000
  -28.1690  -37.6825   21.8260 C   0  0  0  0  0  0  0  0  0  0  0  0
  -28.6298  -36.4382   21.4080 C   0  0  0  0  0  0  0  0  0  0  0  0
  -24.6634   -8.8839   23.2882 C   0  0  0  0  0  0  0  0  0  0  0  0
  -25.4168   -8.3835   21.0479 C   0  0  0  0  0  0  0  0  0  0  0  0
  -30.9864  -19.3328   18.4732 C   0  0  0  0  0  0  0  0  0  0  0  0
  -27.1876  -37.7656   22.8129 C   0  0  0  0  0  0  0  0  0  0  0  0
  -28.1103  -35.2762   21.9775 C   0  0  0  0  0  0  0  0  0  0  0  0
  -27.1765  -29.9067   19.1844 C   0  0  0  0  0  0  0  0  0  0  0  0
  -31.2088  -20.7058   18.5777 C   0  0  0  0  0  0  0  0  0  0  0  0
  -23.4752   -8.1959   23.0423 C   0  0  0  0  0  0  0  0  0  0  0  0
  -24.2286   -7.6954   20.8020 C   0  0  0  0  0  0  0  0  0  0  0  0
  -27.9214  -28.7289   19.1429 C   0  0  0  0  0  0  0  0  0  0  0  0
  -22.4367   -4.9801   22.9283 C   0  0  0  0  0  0  0  0  0  0  0  0
  -21.9809   -4.1018   23.9114 C   0  0  0  0  0  0  0  0  0  0  0  0
  -26.5800  -27.8247   20.9324 C   0  0  0  0  0  0  0  0  0  0  0  0
  -31.4226  -24.8752   19.4117 C   0  0  0  0  0  0  0  0  0  0  0  0
  -28.9303  -21.0187   19.3176 C   0  0  0  0  0  0  0  0  0  0  0  0
  -19.9415   -5.3820   24.1093 C   0  0  0  0  0  0  0  0  0  0  0  0
  -25.6342   -8.9778   22.2909 C   0  0  0  0  0  0  0  0  0  0  0  0
  -29.7358  -18.8027   18.7908 C   0  0  0  0  0  0  0  0  0  0  0  0
  -28.0583   -9.1606   23.0643 C   0  0  0  0  0  0  0  0  0  0  0  0
  -26.6489  -36.6039   23.3879 C   0  0  0  0  0  0  0  0  0  0  0  0
  -26.1331  -30.0567   20.1091 C   0  0  0  0  0  0  0  0  0  0  0  0
  -27.1218  -35.3439   22.9740 C   0  0  0  0  0  0  0  0  0  0  0  0
  -25.8218  -29.0044   20.9818 C   0  0  0  0  0  0  0  0  0  0  0  0
  -30.0594  -25.1195   19.1133 C   0  0  0  0  0  0  0  0  0  0  0  0
  -30.1809  -21.5487   19.0000 C   0  0  0  0  0  0  0  0  0  0  0  0
  -23.2578   -7.6016   21.7993 C   0  0  0  0  0  0  0  0  0  0  0  0
  -27.6251  -27.6888   20.0190 C   0  0  0  0  0  0  0  0  0  0  0  0
  -21.6450   -6.0594   22.5358 C   0  0  0  0  0  0  0  0  0  0  0  0
  -20.7333   -4.3027   24.5019 C   0  0  0  0  0  0  0  0  0  0  0  0
  -28.7078  -19.6456   19.2131 C   0  0  0  0  0  0  0  0  0  0  0  0
  -20.3974   -6.2603   23.1263 C   0  0  0  0  0  0  0  0  0  0  0  0
  -26.8615   -9.6888   22.5441 C   0  0  0  0  0  0  0  0  0  0  0  0
  -28.9149  -10.2331   23.1119 C   0  0  0  0  0  0  0  0  0  0  0  0
  -31.6080  -23.5103   19.4001 C   0  0  0  0  0  0  0  0  0  0  0  0
  -29.4531  -23.8965   18.9287 C   0  0  0  0  0  0  0  0  0  0  0  0
  -29.5030  -17.3475   18.6791 C   0  0  0  0  0  0  0  0  0  0  0  0
  -28.3679   -7.8202   23.4684 C   0  0  0  0  0  0  0  0  0  0  0  0
  -25.5499  -32.0293   22.5325 C   0  0  0  0  0  0  0  0  0  0  0  0
  -22.6851  -30.5082   22.5719 C   0  0  0  0  0  0  0  0  0  0  0  0
  -20.8747  -27.7195   21.8022 C   0  0  0  0  0  0  0  0  0  0  0  0
  -28.8744  -15.2613   19.8746 C   0  0  0  0  0  0  0  0  0  0  0  0
  -25.6237  -36.7452   24.4850 C   0  0  0  0  0  0  0  0  0  0  0  0
  -25.3218  -31.3232   20.1230 C   0  0  0  0  0  0  0  0  0  0  0  0
  -24.6984  -29.1077   21.9797 C   0  0  0  0  0  0  0  0  0  0  0  0
  -24.8564  -35.4569   24.7713 C   0  0  0  0  0  0  0  0  0  0  0  0
  -28.9861  -14.9713   23.5707 C   0  0  0  0  0  0  0  0  0  0  0  0
  -25.8158  -34.2751   24.8708 C   0  0  0  0  0  0  0  0  0  0  0  0
  -28.4796  -13.5458   23.7604 C   0  0  0  0  0  0  0  0  0  0  0  0
  -28.3681  -15.6459   22.3467 C   0  0  0  0  0  0  0  0  0  0  0  0
  -28.0332  -13.4259   21.2811 C   0  0  0  0  0  0  0  0  0  0  0  0
  -26.5651  -34.0601   23.5502 C   0  0  1  0  0  0  0  0  0  0  0  0
  -24.6139  -31.5648   21.4527 C   0  0  1  0  0  0  0  0  0  0  0  0
  -28.6918  -12.7268   22.4792 C   0  0  2  0  0  0  0  0  0  0  0  0
  -18.5655  -26.7556   21.9918 C   0  0  0  0  0  0  0  0  0  0  0  0
  -23.1656  -29.9456   25.5320 C   0  0  0  0  0  0  0  0  0  0  0  0
  -21.3558  -28.2189   25.4261 C   0  0  0  0  0  0  0  0  0  0  0  0
  -20.8230  -30.6115   24.9636 C   0  0  0  0  0  0  0  0  0  0  0  0
  -20.5942  -27.5122   18.8633 C   0  0  0  0  0  0  0  0  0  0  0  0
  -29.4020  -26.4649   19.0186 C   0  0  0  0  0  0  0  0  0  1  0  0
  -22.1350  -29.2821   23.2597 C   0  0  1  0  0  0  0  0  0  0  0  0
  -19.5284  -27.5485   21.1219 C   0  0  2  0  0  0  0  0  0  0  0  0
  -21.8923  -29.5130   24.7780 C   0  0  0  0  0  0  0  0  0  0  0  0
  -26.9464  -10.9954   22.2803 N   0  0  0  0  0  0  0  0  0  0  0  0
  -30.4040  -22.9255   19.1057 N   0  0  0  0  0  0  0  0  0  0  0  0
  -28.2067  -11.2972   22.6362 N   0  0  0  0  0  0  0  0  0  0  0  0
  -23.9383  -30.3683   21.9588 N   0  0  0  0  0  0  0  0  0  0  0  0
  -28.4838  -14.8147   21.1405 N   0  0  0  0  0  0  0  0  0  0  0  0
  -30.1973  -10.3604   23.5140 N   0  0  0  0  0  0  0  0  0  0  0  0
  -27.3720   -6.8407   23.3531 N   0  0  0  0  0  0  0  0  0  0  0  0
  -29.1442  -16.6803   19.7869 N   0  0  0  0  0  0  0  0  0  0  0  0
  -25.7108  -33.4006   22.5860 N   0  0  0  0  0  0  0  0  0  0  0  0
  -20.9406  -28.8978   22.5153 N   0  0  0  0  0  0  0  0  0  0  0  0
  -29.6702  -16.7864   17.4818 N   0  3  0  0  0  0  0  0  0  0  0  0
  -19.6904  -26.8312   19.8257 N   0  3  0  0  0  0  0  0  0  0  0  0
  -29.4891   -7.5040   23.9336 O   0  0  0  0  0  0  0  0  0  0  0  0
  -26.0852  -31.2046   23.2639 O   0  0  0  0  0  0  0  0  0  0  0  0
  -22.0239  -31.5496   22.5722 O   0  0  0  0  0  0  0  0  0  0  0  0
  -21.7762  -26.8889   21.7132 O   0  0  0  0  0  0  0  0  0  0  0  0
  -28.9697  -14.5641   18.8702 O   0  0  0  0  0  0  0  0  0  0  0  0
  -32.7004  -22.7882   19.6186 O   0  0  0  0  0  0  0  0  0  0  0  0
  -28.1945  -23.5908   18.6346 O   0  0  0  0  0  0  0  0  0  0  0  0
  -22.0986   -6.9300   21.5591 O   0  0  0  0  0  0  0  0  0  0  0  0
  -28.3510  -26.5383   19.9811 O   0  0  0  0  0  0  0  0  0  1  0  0
  -20.2950   -3.4584   25.4448 F   0  0  0  0  0  0  0  0  0  0  0  0
  -27.5027  -19.1455   19.5204 F   0  0  0  0  0  0  0  0  0  0  0  0
  -19.6317   -7.2946   22.7525 F   0  0  0  0  0  0  0  0  0  0  0  0
  1  2  1  0  0  0  0
  1  6  2  0  0  0  0
  2  7  2  0  0  0  0
  3 10  2  0  0  0  0
  3 19  1  0  0  0  0
  4 11  1  0  0  0  0
  4 19  2  0  0  0  0
  5  9  2  0  0  0  0
  5 20  1  0  0  0  0
  6 22  1  0  0  0  0
  7 24  1  0  0  0  0
  8 12  2  0  0  0  0
  8 23  1  0  0  0  0
  9 27  1  0  0  0  0
 10 28  1  0  0  0  0
 11 28  2  0  0  0  0
 12 29  1  0  0  0  0
 13 14  2  0  0  0  0
 13 30  1  0  0  0  0
 14 31  1  0  0  0  0
 15 25  1  0  0  0  0
 15 29  2  0  0  0  0
 16 26  1  0  0  0  0
 16 36  2  0  0  0  0
 17 27  2  0  0  0  0
 17 32  1  0  0  0  0
 18 31  2  0  0  0  0
 18 33  1  0  0  0  0
 19 34  1  0  0  0  0
 20 32  2  0  0  0  0
 20 38  1  0  0  0  0
 21 34  1  0  0  0  0
 21 35  2  0  0  0  0
 21 39  1  0  0  0  0
 22 24  2  0  0  0  0
 22 44  1  0  0  0  0
 23 25  2  0  0  0  0
 23 45  1  0  0  0  0
 24 53  1  0  0  0  0
 25 46  1  0  0  0  0
 26 37  2  0  0  0  0
 26 61  1  0  0  0  0
 27 66  1  0  0  0  0
 28 84  1  0  0  0  0
 29 85  1  0  0  0  0
 30 33  2  0  0  0  0
 30 84  1  0  0  0  0
 31 86  1  0  0  0  0
 32 87  1  0  0  0  0
 33 88  1  0  0  0  0
 34 65  2  0  0  0  0
 35 67  1  0  0  0  0
 35 70  1  0  0  0  0
 36 66  1  0  0  0  0
 36 82  1  0  0  0  0
 37 66  1  0  0  0  0
 37 83  1  0  0  0  0
 38 72  1  0  0  0  0
 38 75  2  0  0  0  0
 39 71  1  0  0  0  0
 39 77  2  0  0  0  0
 40 54  1  0  0  0  0
 40 73  1  0  0  0  0
 40 78  2  0  0  0  0
 41 62  1  0  0  0  0
 41 68  1  0  0  0  0
 41 79  2  0  0  0  0
 42 63  1  0  0  0  0
 42 74  1  0  0  0  0
 42 80  2  0  0  0  0
 43 69  1  0  0  0  0
 43 72  1  0  0  0  0
 43 81  2  0  0  0  0
 44 47  1  0  0  0  0
 45 54  1  0  0  0  0
 46 68  1  0  0  0  0
 47 49  1  0  0  0  0
 48 50  1  0  0  0  0
 48 51  1  0  0  0  0
 49 53  1  0  0  0  0
 50 55  1  0  0  0  0
 51 69  1  0  0  0  0
 52 55  1  0  0  0  0
 52 69  1  0  0  0  0
 53 73  1  0  0  0  0
 54 68  1  0  0  0  0
 55 67  1  0  0  0  0
 56 63  1  0  0  0  0
 57 64  1  0  0  0  0
 58 64  1  0  0  0  0
 59 64  1  0  0  0  0
 60 76  1  0  0  0  0
 61 85  1  0  0  0  0
 62 64  1  0  0  0  0
 62 74  1  0  0  0  0
 63 76  1  0  0  0  0
 65 67  1  0  0  0  0
M  CHG  2  75   1  76   1
M  ISO  4  43 100  61 101  72 100  85 101
M  END
> <Batch ID>
0093

> <Smiles>
CNC(C)C(=O)NC(C(=O)N1Cc2cc([101O:1][101CH2:1]C3CC(=O)N(c4ccc(C(=N)[100NH:0][100C:0](=O)N5CCCC(n6nc(-c7ccc(Oc8ccc(F)cc8F)cc7)c(C(N)=O)c6N)C5)c(F)c4)C3=O)ccc2CC1C(=O)NC1CCCc2ccccc21)C(C)(C)C

> <Shape>
0.317

> <Color>
0.089

> <Negative vol penalty>
0.000

$$$$

  -OEChem-04052300373D

 86 95  0     1  0  0  0  0  0999 V2000
  -25.7616  -36.2644   16.2087 C   0  0  0  0  0  0  0  0  0  0  0  0
  -26.1028  -34.9160   16.1780 C   0  0  0  0  0  0  0  0  0  0  0  0
  -23.7311   -8.9552   19.9222 C   0  0  0  0  0  0  0  0  0  0  0  0
  -23.2956  -10.5530   21.6813 C   0  0  0  0  0  0  0  0  0  0  0  0
  -25.7626  -36.9550   17.4199 C   0  0  0  0  0  0  0  0  0  0  0  0
  -26.4463  -34.2578   17.3583 C   0  0  0  0  0  0  0  0  0  0  0  0
  -25.2642  -28.4238   18.7981 C   0  0  0  0  0  0  0  0  0  0  0  0
  -30.4764  -19.7387   20.5414 C   0  0  0  0  0  0  0  0  0  0  0  0
  -30.3893  -18.3621   20.3342 C   0  0  0  0  0  0  0  0  0  0  0  0
  -22.9537   -8.0087   20.5894 C   0  0  0  0  0  0  0  0  0  0  0  0
  -22.5181   -9.6064   22.3486 C   0  0  0  0  0  0  0  0  0  0  0  0
  -26.0405  -27.2672   18.7388 C   0  0  0  0  0  0  0  0  0  0  0  0
  -19.6674   -7.3311   21.0065 C   0  0  0  0  0  0  0  0  0  0  0  0
  -18.7542   -6.5943   20.2523 C   0  0  0  0  0  0  0  0  0  0  0  0
  -26.6089  -27.5367   21.0676 C   0  0  0  0  0  0  0  0  0  0  0  0
  -30.3477  -23.9941   20.5998 C   0  0  0  0  0  0  0  0  0  0  0  0
  -28.2824  -20.0237   19.5709 C   0  0  0  0  0  0  0  0  0  0  0  0
  -19.8721   -4.5511   20.8950 C   0  0  0  0  0  0  0  0  0  0  0  0
  -23.9021  -10.2274   20.4682 C   0  0  0  0  0  0  0  0  0  0  0  0
  -24.2704  -12.1413   18.8223 C   0  0  0  0  0  0  0  0  0  0  0  0
  -26.0969  -36.3025   18.6170 C   0  0  0  0  0  0  0  0  0  0  0  0
  -25.1630  -29.1527   19.9917 C   0  0  0  0  0  0  0  0  0  0  0  0
  -26.4530  -34.9407   18.5864 C   0  0  0  0  0  0  0  0  0  0  0  0
  -25.8286  -28.7007   21.1401 C   0  0  0  0  0  0  0  0  0  0  0  0
  -28.9403  -24.0624   20.7470 C   0  0  0  0  0  0  0  0  0  0  0  0
  -29.4229  -20.5695   20.1598 C   0  0  0  0  0  0  0  0  0  0  0  0
  -29.2487  -17.8163   19.7453 C   0  0  0  0  0  0  0  0  0  0  0  0
  -22.3472   -8.3342   21.8026 C   0  0  0  0  0  0  0  0  0  0  0  0
  -26.7153  -26.8251   19.8729 C   0  0  0  0  0  0  0  0  0  0  0  0
  -20.6830   -6.6780   21.7049 C   0  0  0  0  0  0  0  0  0  0  0  0
  -18.8566   -5.2043   20.1966 C   0  0  0  0  0  0  0  0  0  0  0  0
  -28.1952  -18.6471   19.3636 C   0  0  0  0  0  0  0  0  0  0  0  0
  -20.7853   -5.2880   21.6492 C   0  0  0  0  0  0  0  0  0  0  0  0
  -24.7056  -11.2055   19.7797 C   0  0  0  0  0  0  0  0  0  0  0  0
  -25.4060  -12.8324   18.4768 C   0  0  0  0  0  0  0  0  0  0  0  0
  -30.6732  -22.6765   20.3647 C   0  0  0  0  0  0  0  0  0  0  0  0
  -28.4486  -22.7844   20.5975 C   0  0  0  0  0  0  0  0  0  0  0  0
  -22.9572  -12.3658   18.2926 C   0  0  0  0  0  0  0  0  0  0  0  0
  -25.9411  -32.0999   20.8931 C   0  0  0  0  0  0  0  0  0  0  0  0
  -24.4295  -31.2425   23.6321 C   0  0  0  0  0  0  0  0  0  0  0  0
  -23.3942  -28.7398   25.7085 C   0  0  0  0  0  0  0  0  0  0  0  0
  -30.1203  -15.4552   19.8549 C   0  0  0  0  0  0  0  0  0  0  0  0
  -26.1296  -37.1025   19.8952 C   0  0  0  0  0  0  0  0  0  0  0  0
  -24.3001  -30.3835   20.0462 C   0  0  0  0  0  0  0  0  0  0  0  0
  -25.7363  -29.4360   22.4513 C   0  0  0  0  0  0  0  0  0  0  0  0
  -26.1425  -36.2391   21.1540 C   0  0  0  0  0  0  0  0  0  0  0  0
  -30.2706  -11.9127   19.5312 C   0  0  0  0  0  0  0  0  0  0  0  0
  -27.1619  -35.1125   21.0182 C   0  0  0  0  0  0  0  0  0  0  0  0
  -28.8004  -11.4898   19.4882 C   0  0  0  0  0  0  0  0  0  0  0  0
  -30.4967  -13.0819   20.4880 C   0  0  0  0  0  0  0  0  0  0  0  0
  -28.1638  -13.8250   20.2153 C   0  0  0  0  0  0  0  0  0  0  0  0
  -26.8074  -34.1857   19.8491 C   0  0  1  0  0  0  0  0  0  0  0  0
  -24.6820  -31.3313   21.1790 C   0  0  1  0  0  0  0  0  0  0  0  0
  -27.8758  -12.6926   19.2161 C   0  0  2  0  0  0  0  0  0  0  0  0
  -22.2177  -28.3507   27.8907 C   0  0  0  0  0  0  0  0  0  0  0  0
  -26.9485  -32.0798   25.1367 C   0  0  0  0  0  0  0  0  0  0  0  0
  -26.1001  -30.8120   27.1219 C   0  0  0  0  0  0  0  0  0  0  0  0
  -24.8049  -32.7513   26.2362 C   0  0  0  0  0  0  0  0  0  0  0  0
  -21.2229  -27.2137   24.3987 C   0  0  0  0  0  0  0  0  0  0  0  0
  -28.1382  -25.3014   21.0172 C   0  0  0  0  0  0  0  0  0  1  0  0
  -24.8508  -30.5893   24.9263 C   0  0  1  0  0  0  0  0  0  0  0  0
  -22.0599  -28.4782   26.3835 C   0  0  2  0  0  0  0  0  0  0  0  0
  -25.6796  -31.5451   25.8302 C   0  0  0  0  0  0  0  0  0  0  0  0
  -26.0154  -11.2914   20.0266 N   0  0  0  0  0  0  0  0  0  0  0  0
  -29.5110  -21.9502   20.3658 N   0  0  0  0  0  0  0  0  0  0  0  0
  -26.4131  -12.2894   19.2192 N   0  0  0  0  0  0  0  0  0  0  0  0
  -24.8852  -30.6374   22.4523 N   0  0  0  0  0  0  0  0  0  0  0  0
  -29.5893  -14.1858   20.1672 N   0  0  0  0  0  0  0  0  0  0  0  0
  -25.6313  -13.8455   17.6135 N   0  0  0  0  0  0  0  0  0  0  0  0
  -21.9038  -11.5664   18.7568 N   0  0  0  0  0  0  0  0  0  0  0  0
  -29.1633  -16.4177   19.5348 N   0  0  0  0  0  0  0  0  0  0  0  0
  -25.7336  -33.2899   20.2220 N   0  0  0  0  0  0  0  0  0  0  0  0
  -23.6293  -30.0888   25.5475 N   0  0  0  0  0  0  0  0  0  0  0  0
  -21.4558  -27.2180   25.8659 N   0  3  0  0  0  0  0  0  0  0  0  0
  -22.7277  -13.2383   17.4209 O   0  0  0  0  0  0  0  0  0  0  0  0
  -27.0206  -31.6476   21.2559 O   0  0  0  0  0  0  0  0  0  0  0  0
  -23.7162  -32.2483   23.6666 O   0  0  0  0  0  0  0  0  0  0  0  0
  -24.1537  -27.8377   25.3623 O   0  0  0  0  0  0  0  0  0  0  0  0
  -31.3359  -15.6653   19.8438 O   0  0  0  0  0  0  0  0  0  0  0  0
  -31.8541  -22.1047   20.1618 O   0  0  0  0  0  0  0  0  0  0  0  0
  -27.2033  -22.3252   20.6497 O   0  0  0  0  0  0  0  0  0  0  0  0
  -21.5883   -7.4109   22.4538 O   0  0  0  0  0  0  0  0  0  0  0  0
  -27.4742  -25.6969   19.8176 O   0  0  0  0  0  0  0  0  0  1  0  0
  -17.9786   -4.4967   19.4736 F   0  0  0  0  0  0  0  0  0  0  0  0
  -27.0949  -18.1335   18.7953 F   0  0  0  0  0  0  0  0  0  0  0  0
  -21.7581   -4.6549   22.3190 F   0  0  0  0  0  0  0  0  0  0  0  0
  1  2  1  0  0  0  0
  1  5  2  0  0  0  0
  2  6  2  0  0  0  0
  3 10  2  0  0  0  0
  3 19  1  0  0  0  0
  4 11  1  0  0  0  0
  4 19  2  0  0  0  0
  5 21  1  0  0  0  0
  6 23  1  0  0  0  0
  7 12  2  0  0  0  0
  7 22  1  0  0  0  0
  8  9  2  0  0  0  0
  8 26  1  0  0  0  0
  9 27  1  0  0  0  0
 10 28  1  0  0  0  0
 11 28  2  0  0  0  0
 12 29  1  0  0  0  0
 13 14  2  0  0  0  0
 13 30  1  0  0  0  0
 14 31  1  0  0  0  0
 15 24  1  0  0  0  0
 15 29  2  0  0  0  0
 16 25  1  0  0  0  0
 16 36  2  0  0  0  0
 17 26  2  0  0  0  0
 17 32  1  0  0  0  0
 18 31  2  0  0  0  0
 18 33  1  0  0  0  0
 19 34  1  0  0  0  0
 20 34  1  0  0  0  0
 20 35  2  0  0  0  0
 20 38  1  0  0  0  0
 21 23  2  0  0  0  0
 21 43  1  0  0  0  0
 22 24  2  0  0  0  0
 22 44  1  0  0  0  0
 23 52  1  0  0  0  0
 24 45  1  0  0  0  0
 25 37  2  0  0  0  0
 25 60  1  0  0  0  0
 26 65  1  0  0  0  0
 27 32  2  0  0  0  0
 27 71  1  0  0  0  0
 28 82  1  0  0  0  0
 29 83  1  0  0  0  0
 30 33  2  0  0  0  0
 30 82  1  0  0  0  0
 31 84  1  0  0  0  0
 32 85  1  0  0  0  0
 33 86  1  0  0  0  0
 34 64  2  0  0  0  0
 35 66  1  0  0  0  0
 35 69  1  0  0  0  0
 36 65  1  0  0  0  0
 36 80  1  0  0  0  0
 37 65  1  0  0  0  0
 37 81  1  0  0  0  0
 38 70  1  0  0  0  0
 38 75  2  0  0  0  0
 39 53  1  0  0  0  0
 39 72  1  0  0  0  0
 39 76  2  0  0  0  0
 40 61  1  0  0  0  0
 40 67  1  0  0  0  0
 40 77  2  0  0  0  0
 41 62  1  0  0  0  0
 41 73  1  0  0  0  0
 41 78  2  0  0  0  0
 42 68  1  0  0  0  0
 42 71  1  0  0  0  0
 42 79  2  0  0  0  0
 43 46  1  0  0  0  0
 44 53  1  0  0  0  0
 45 67  1  0  0  0  0
 46 48  1  0  0  0  0
 47 49  1  0  0  0  0
 47 50  1  0  0  0  0
 48 52  1  0  0  0  0
 49 54  1  0  0  0  0
 50 68  1  0  0  0  0
 51 54  1  0  0  0  0
 51 68  1  0  0  0  0
 52 72  1  0  0  0  0
 53 67  1  0  0  0  0
 54 66  1  0  0  0  0
 55 62  1  0  0  0  0
 56 63  1  0  0  0  0
 57 63  1  0  0  0  0
 58 63  1  0  0  0  0
 59 74  1  0  0  0  0
 60 83  1  0  0  0  0
 61 63  1  0  0  0  0
 61 73  1  0  0  0  0
 62 74  1  0  0  0  0
 64 66  1  0  0  0  0
M  CHG  1  74   1
M  ISO  4  42 100  60 101  71 100  83 101
M  END
> <Batch ID>
0093

> <Smiles>
CNC(C)C(=O)NC(C(=O)N1Cc2cc([101O:1][101CH2:1]C3CC(=O)N(c4ccc([100NH:0][100C:0](=O)N5CCCC(n6nc(-c7ccc(Oc8ccc(F)cc8F)cc7)c(C(N)=O)c6N)C5)c(F)c4)C3=O)ccc2CC1C(=O)NC1CCCc2ccccc21)C(C)(C)C

> <Shape>
0.286

> <Color>
0.119

> <Negative vol penalty>
0.000

$$$$

  -OEChem-04052300373D

 90 99  0     1  0  0  0  0  0999 V2000
  -20.2679  -30.7797   24.4394 C   0  0  0  0  0  0  0  0  0  0  0  0
  -21.5379  -30.2592   24.2123 C   0  0  0  0  0  0  0  0  0  0  0  0
  -25.4917  -13.7220   20.4486 C   0  0  0  0  0  0  0  0  0  0  0  0
  -23.4813  -15.0536   20.5971 C   0  0  0  0  0  0  0  0  0  0  0  0
  -28.6891  -22.9728   22.8655 C   0  0  0  0  0  0  0  0  0  0  0  0
  -19.1425  -30.0891   23.9917 C   0  0  0  0  0  0  0  0  0  0  0  0
  -21.6832  -29.0472   23.5382 C   0  0  0  0  0  0  0  0  0  0  0  0
  -25.3356  -29.1989   20.0336 C   0  0  0  0  0  0  0  0  0  0  0  0
  -29.9811  -22.9895   22.3401 C   0  0  0  0  0  0  0  0  0  0  0  0
  -24.7223  -12.5907   20.1766 C   0  0  0  0  0  0  0  0  0  0  0  0
  -22.7119  -13.9224   20.3250 C   0  0  0  0  0  0  0  0  0  0  0  0
  -26.6521  -29.0994   20.4814 C   0  0  0  0  0  0  0  0  0  0  0  0
  -22.8479  -10.3775   21.9122 C   0  0  0  0  0  0  0  0  0  0  0  0
  -23.1668   -9.1998   22.5882 C   0  0  0  0  0  0  0  0  0  0  0  0
  -27.7891  -22.6777   20.6429 C   0  0  0  0  0  0  0  0  0  0  0  0
  -26.6762  -26.7652   19.8730 C   0  0  0  0  0  0  0  0  0  0  0  0
  -29.5369  -27.3403   18.6647 C   0  0  0  0  0  0  0  0  0  0  0  0
  -31.3255  -25.7342   18.4235 C   0  0  0  0  0  0  0  0  0  0  0  0
  -30.3885  -26.1803   20.6053 C   0  0  0  0  0  0  0  0  0  0  0  0
  -23.5853   -8.1015   20.4773 C   0  0  0  0  0  0  0  0  0  0  0  0
  -24.8712  -14.9534   20.6589 C   0  0  0  0  0  0  0  0  0  0  0  0
  -27.5930  -22.8168   22.0169 C   0  0  0  0  0  0  0  0  0  0  0  0
  -26.6573  -16.6936   20.1211 C   0  0  0  0  0  0  0  0  0  0  0  0
  -19.2744  -28.8728   23.3033 C   0  0  0  0  0  0  0  0  0  0  0  0
  -24.6747  -28.0778   19.5114 C   0  0  0  0  0  0  0  0  0  0  0  0
  -20.5584  -28.3391   23.0820 C   0  0  0  0  0  0  0  0  0  0  0  0
  -25.3521  -26.8537   19.4170 C   0  0  0  0  0  0  0  0  0  0  0  0
  -30.1771  -22.8505   20.9662 C   0  0  0  0  0  0  0  0  0  0  0  0
  -30.4455  -26.6563   17.8570 C   0  0  0  0  0  0  0  0  0  0  0  0
  -23.3324  -12.6909   20.1148 C   0  0  0  0  0  0  0  0  0  0  0  0
  -27.3217  -27.8817   20.4038 C   0  0  0  0  0  0  0  0  0  0  0  0
  -22.8976  -10.4172   20.5188 C   0  0  0  0  0  0  0  0  0  0  0  0
  -29.5085  -27.1024   20.0388 C   0  0  0  0  0  0  0  0  0  1  0  0
  -23.5356   -8.0619   21.8708 C   0  0  0  0  0  0  0  0  0  0  0  0
  -29.0811  -22.6946   20.1175 C   0  0  0  0  0  0  0  0  0  0  0  0
  -23.2663   -9.2792   19.8013 C   0  0  0  0  0  0  0  0  0  0  0  0
  -31.2970  -25.4962   19.7977 C   0  0  0  0  0  0  0  0  0  0  0  0
  -25.6653  -16.1222   20.9405 C   0  0  0  0  0  0  0  0  0  0  0  0
  -27.1088  -17.7775   20.8337 C   0  0  0  0  0  0  0  0  0  0  0  0
  -26.2459  -22.7990   22.5645 C   0  0  0  0  0  0  0  0  0  0  0  0
  -27.1283  -16.2815   18.8312 C   0  0  0  0  0  0  0  0  0  0  0  0
  -25.9756  -22.2957   23.9309 C   0  0  0  0  0  0  0  0  0  0  0  0
  -22.0980  -26.4080   20.3337 C   0  0  0  0  0  0  0  0  0  0  0  0
  -22.6740  -24.8785   17.5316 C   0  0  0  0  0  0  0  0  0  0  0  0
  -24.9226  -23.9998   15.1195 C   0  0  0  0  0  0  0  0  0  0  0  0
  -18.0265  -28.1392   22.8800 C   0  0  0  0  0  0  0  0  0  0  0  0
  -23.2633  -28.2081   19.0080 C   0  0  0  0  0  0  0  0  0  0  0  0
  -24.6941  -25.6253   18.8457 C   0  0  0  0  0  0  0  0  0  0  0  0
  -18.2835  -27.0474   21.8445 C   0  0  0  0  0  0  0  0  0  0  0  0
  -26.2982  -19.1520   25.6248 C   0  0  0  0  0  0  0  0  0  0  0  0
  -19.4805  -26.1949   22.2534 C   0  0  0  0  0  0  0  0  0  0  0  0
  -26.2043  -18.1296   24.4927 C   0  0  0  0  0  0  0  0  0  0  0  0
  -25.4148  -20.3659   25.3556 C   0  0  0  0  0  0  0  0  0  0  0  0
  -25.5975  -20.0127   22.9080 C   0  0  0  0  0  0  0  0  0  0  0  0
  -20.7580  -27.0395   22.3327 C   0  0  1  0  0  0  0  0  0  0  0  0
  -22.5174  -26.8779   18.9695 C   0  0  1  0  0  0  0  0  0  0  0  0
  -26.4975  -18.7849   23.1313 C   0  0  2  0  0  0  0  0  0  0  0  0
  -25.1060  -22.7159   12.9712 C   0  0  0  0  0  0  0  0  0  0  0  0
  -22.6259  -22.2592   19.0958 C   0  0  0  0  0  0  0  0  0  0  0  0
  -23.7312  -21.1524   17.1410 C   0  0  0  0  0  0  0  0  0  0  0  0
  -21.4698  -22.1723   16.8799 C   0  0  0  0  0  0  0  0  0  0  0  0
  -25.7370  -26.4128   13.6118 C   0  0  0  0  0  0  0  0  0  0  0  0
  -23.4880  -23.6765   17.1174 C   0  0  1  0  0  0  0  0  0  0  0  0
  -24.8561  -24.0756   13.6048 C   0  0  2  0  0  0  0  0  0  0  0  0
  -22.8408  -22.3376   17.5711 C   0  0  0  0  0  0  0  0  0  0  0  0
  -25.4963  -16.7879   22.0860 N   0  0  0  0  0  0  0  0  0  0  0  0
  -25.1991  -23.2183   21.9063 N   0  0  0  0  0  0  0  0  0  0  0  0
  -26.3882  -17.7888   21.9916 N   0  0  0  0  0  0  0  0  0  0  0  0
  -25.6936  -20.9414   24.0413 N   0  0  0  0  0  0  0  0  0  0  0  0
  -23.3112  -25.8019   18.3726 N   0  0  0  0  0  0  0  0  0  0  0  0
  -30.4744  -26.8972   16.4678 N   0  0  0  0  0  0  0  0  0  0  0  0
  -28.0480  -18.7124   20.5765 N   0  0  0  0  0  0  0  0  0  0  0  0
  -26.4954  -16.7981   17.6924 N   0  0  0  0  0  0  0  0  0  0  0  0
  -31.5104  -22.8677   20.4273 N   0  0  0  0  0  0  0  0  0  0  0  0
  -21.2787  -27.2941   21.0067 N   0  0  0  0  0  0  0  0  0  0  0  0
  -23.6784  -23.7897   15.6754 N   0  0  0  0  0  0  0  0  0  0  0  0
  -25.8780  -25.0296   13.0885 N   0  3  0  0  0  0  0  0  0  0  0  0
  -28.0715  -15.4662   18.6927 O   0  0  0  0  0  0  0  0  0  0  0  0
  -26.0299  -23.1334   24.8218 O   0  0  0  0  0  0  0  0  0  0  0  0
  -22.4876  -25.3212   20.7446 O   0  0  0  0  0  0  0  0  0  0  0  0
  -21.5178  -24.9975   17.1183 O   0  0  0  0  0  0  0  0  0  0  0  0
  -25.9736  -24.1118   15.7465 O   0  0  0  0  0  0  0  0  0  0  0  0
  -32.5664  -24.6938   21.9121 O   0  0  0  0  0  0  0  0  0  0  0  0
  -33.5816  -24.2451   19.6610 O   0  0  0  0  0  0  0  0  0  0  0  0
  -22.5814  -11.5873   19.8491 O   0  0  0  0  0  0  0  0  0  0  0  0
  -28.6066  -27.7817   20.8407 O   0  0  0  0  0  0  0  0  0  1  0  0
  -23.8433   -6.9315   22.5202 F   0  0  0  0  0  0  0  0  0  0  0  0
  -29.2580  -22.5606   18.7952 F   0  0  0  0  0  0  0  0  0  0  0  0
  -23.3170   -9.3116   18.4626 F   0  0  0  0  0  0  0  0  0  0  0  0
  -32.3985  -24.3419   20.5071 S   0  0  0  0  0  0  0  0  0  0  0  0
  1  2  1  0  0  0  0
  1  6  2  0  0  0  0
  2  7  2  0  0  0  0
  3 10  2  0  0  0  0
  3 21  1  0  0  0  0
  4 11  1  0  0  0  0
  4 21  2  0  0  0  0
  5  9  2  0  0  0  0
  5 22  1  0  0  0  0
  6 24  1  0  0  0  0
  7 26  1  0  0  0  0
  8 12  2  0  0  0  0
  8 25  1  0  0  0  0
  9 28  1  0  0  0  0
 10 30  1  0  0  0  0
 11 30  2  0  0  0  0
 12 31  1  0  0  0  0
 13 14  2  0  0  0  0
 13 32  1  0  0  0  0
 14 34  1  0  0  0  0
 15 22  2  0  0  0  0
 15 35  1  0  0  0  0
 16 27  1  0  0  0  0
 16 31  2  0  0  0  0
 17 29  2  0  0  0  0
 17 33  1  0  0  0  0
 18 29  1  0  0  0  0
 18 37  2  0  0  0  0
 19 33  2  0  0  0  0
 19 37  1  0  0  0  0
 20 34  2  0  0  0  0
 20 36  1  0  0  0  0
 21 38  1  0  0  0  0
 22 40  1  0  0  0  0
 23 38  1  0  0  0  0
 23 39  2  0  0  0  0
 23 41  1  0  0  0  0
 24 26  2  0  0  0  0
 24 46  1  0  0  0  0
 25 27  2  0  0  0  0
 25 47  1  0  0  0  0
 26 55  1  0  0  0  0
 27 48  1  0  0  0  0
 28 35  2  0  0  0  0
 28 74  1  0  0  0  0
 29 71  1  0  0  0  0
 30 85  1  0  0  0  0
 31 86  1  0  0  0  0
 32 36  2  0  0  0  0
 32 85  1  0  0  0  0
 33 86  1  0  0  0  0
 34 87  1  0  0  0  0
 35 88  1  0  0  0  0
 36 89  1  0  0  0  0
 37 90  1  0  0  0  0
 38 66  2  0  0  0  0
 39 68  1  0  0  0  0
 39 72  1  0  0  0  0
 40 42  1  0  0  0  0
 40 67  2  0  0  0  0
 41 73  1  0  0  0  0
 41 78  2  0  0  0  0
 42 69  1  0  0  0  0
 42 79  2  0  0  0  0
 43 56  1  0  0  0  0
 43 75  1  0  0  0  0
 43 80  2  0  0  0  0
 44 63  1  0  0  0  0
 44 70  1  0  0  0  0
 44 81  2  0  0  0  0
 45 64  1  0  0  0  0
 45 76  1  0  0  0  0
 45 82  2  0  0  0  0
 46 49  1  0  0  0  0
 47 56  1  0  0  0  0
 48 70  1  0  0  0  0
 49 51  1  0  0  0  0
 50 52  1  0  0  0  0
 50 53  1  0  0  0  0
 51 55  1  0  0  0  0
 52 57  1  0  0  0  0
 53 69  1  0  0  0  0
 54 57  1  0  0  0  0
 54 69  1  0  0  0  0
 55 75  1  0  0  0  0
 56 70  1  0  0  0  0
 57 68  1  0  0  0  0
 58 64  1  0  0  0  0
 59 65  1  0  0  0  0
 60 65  1  0  0  0  0
 61 65  1  0  0  0  0
 62 77  1  0  0  0  0
 63 65  1  0  0  0  0
 63 76  1  0  0  0  0
 64 77  1  0  0  0  0
 66 68  1  0  0  0  0
 74 90  1  0  0  0  0
 83 90  2  0  0  0  0
 84 90  2  0  0  0  0
M  CHG  1  77   1
M  ISO  4  33 101  40 100  42 100  86 101
M  END
> <Batch ID>
0093

> <Smiles>
CNC(C)C(=O)NC(C(=O)N1Cc2cc([101O:1][101c:1]3cc(N)cc(S(=O)(=O)Nc4ccc([100C:0](=N)[100C:0](=O)N5CCCC(n6nc(-c7ccc(Oc8ccc(F)cc8F)cc7)c(C(N)=O)c6N)C5)cc4F)c3)ccc2CC1C(=O)NC1CCCc2ccccc21)C(C)(C)C

> <Shape>
0.240

> <Color>
0.054

> <Negative vol penalty>
0.000

$$$$

  -OEChem-04052300373D

 91100  0     1  0  0  0  0  0999 V2000
  -28.9688  -23.9523   18.1621 C   0  0  0  0  0  0  0  0  0  0  0  0
  -27.6347  -24.3428   18.1059 C   0  0  0  0  0  0  0  0  0  0  0  0
  -25.9421  -15.5288   21.2207 C   0  0  0  0  0  0  0  0  0  0  0  0
  -23.6727  -14.7051   21.3109 C   0  0  0  0  0  0  0  0  0  0  0  0
  -29.7427  -24.2769   19.2755 C   0  0  0  0  0  0  0  0  0  0  0  0
  -27.0734  -25.0572   19.1638 C   0  0  0  0  0  0  0  0  0  0  0  0
  -22.8106  -29.4389   18.7957 C   0  0  0  0  0  0  0  0  0  0  0  0
  -26.3986  -14.2406   20.9422 C   0  0  0  0  0  0  0  0  0  0  0  0
  -24.1292  -13.4169   21.0323 C   0  0  0  0  0  0  0  0  0  0  0  0
  -21.4288  -29.4210   18.9801 C   0  0  0  0  0  0  0  0  0  0  0  0
  -24.7324   -9.8481   20.7010 C   0  0  0  0  0  0  0  0  0  0  0  0
  -24.2124   -8.7982   21.4578 C   0  0  0  0  0  0  0  0  0  0  0  0
  -21.7292  -30.1578   21.2574 C   0  0  0  0  0  0  0  0  0  0  0  0
  -20.7146  -24.6388   22.1798 C   0  0  0  0  0  0  0  0  0  0  0  0
  -22.8710  -25.3674   22.9896 C   0  0  0  0  0  0  0  0  0  0  0  0
  -25.0718   -9.8229   23.4699 C   0  0  0  0  0  0  0  0  0  0  0  0
  -24.5791  -15.7611   21.4051 C   0  0  0  0  0  0  0  0  0  0  0  0
  -24.4550  -17.8971   22.7943 C   0  0  0  0  0  0  0  0  0  0  0  0
  -29.1932  -25.0039   20.3433 C   0  0  0  0  0  0  0  0  0  0  0  0
  -23.6642  -29.8064   19.8458 C   0  0  0  0  0  0  0  0  0  0  0  0
  -27.8403  -25.3906   20.2931 C   0  0  0  0  0  0  0  0  0  0  0  0
  -23.1214  -30.1819   21.0830 C   0  0  0  0  0  0  0  0  0  0  0  0
  -22.1046  -24.5227   22.1867 C   0  0  0  0  0  0  0  0  0  0  0  0
  -20.0911  -25.5998   22.9757 C   0  0  0  0  0  0  0  0  0  0  0  0
  -22.2475  -26.3284   23.7856 C   0  0  0  0  0  0  0  0  0  0  0  0
  -20.8575  -26.4445   23.7786 C   0  0  0  0  0  0  0  0  0  0  0  0
  -25.4922  -13.1846   20.8479 C   0  0  0  0  0  0  0  0  0  0  0  0
  -20.8881  -29.7777   20.2119 C   0  0  0  0  0  0  0  0  0  0  0  0
  -25.4222  -10.8854   21.3286 C   0  0  0  0  0  0  0  0  0  0  0  0
  -24.3821   -8.7855   22.8423 C   0  0  0  0  0  0  0  0  0  0  0  0
  -25.5919  -10.8728   22.7130 C   0  0  0  0  0  0  0  0  0  0  0  0
  -24.1070  -17.0915   21.6935 C   0  0  0  0  0  0  0  0  0  0  0  0
  -23.7442  -19.0577   22.6087 C   0  0  0  0  0  0  0  0  0  0  0  0
  -17.8055  -25.4822   20.6587 C   0  0  0  0  0  0  0  0  0  0  0  0
  -17.9986  -27.7528   21.7367 C   0  0  0  0  0  0  0  0  0  0  0  0
  -25.3416  -17.6211   23.8867 C   0  0  0  0  0  0  0  0  0  0  0  0
  -25.9691  -28.3482   21.4781 C   0  0  0  0  0  0  0  0  0  0  0  0
  -26.3565  -31.2854   22.7991 C   0  0  0  0  0  0  0  0  0  0  0  0
  -24.9955  -34.3197   23.5659 C   0  0  0  0  0  0  0  0  0  0  0  0
  -22.2532  -23.0929   18.8924 C   0  0  0  0  0  0  0  0  0  0  0  0
  -30.0560  -25.2904   21.5466 C   0  0  0  0  0  0  0  0  0  0  0  0
  -25.1511  -29.8463   19.6227 C   0  0  0  0  0  0  0  0  0  0  0  0
  -23.9934  -30.6039   22.2363 C   0  0  0  0  0  0  0  0  0  0  0  0
  -17.2977  -26.1338   19.3949 C   0  0  0  0  0  0  0  0  0  0  0  0
  -29.4880  -26.3742   22.4593 C   0  0  0  0  0  0  0  0  0  0  0  0
  -16.6305  -27.4643   19.6662 C   0  0  0  0  0  0  0  0  0  0  0  0
  -20.0224  -20.1806   19.3866 C   0  0  0  0  0  0  0  0  0  0  0  0
  -28.0039  -26.1322   22.7157 C   0  0  0  0  0  0  0  0  0  0  0  0
  -20.9450  -19.1644   20.0575 C   0  0  0  0  0  0  0  0  0  0  0  0
  -20.7952  -21.1426   18.4894 C   0  0  0  0  0  0  0  0  0  0  0  0
  -22.8359  -20.8262   19.8493 C   0  0  0  0  0  0  0  0  0  0  0  0
  -27.2021  -26.1881   21.4097 C   0  0  1  0  0  0  0  0  0  0  0  0
  -17.5619  -28.3918   20.4312 C   0  0  2  0  0  0  0  0  0  0  0  0
  -25.9525  -29.7418   20.9167 C   0  0  1  0  0  0  0  0  0  0  0  0
  -22.0944  -19.8712   20.7968 C   0  0  2  0  0  0  0  0  0  0  0  0
  -25.5449  -36.5002   24.6798 C   0  0  0  0  0  0  0  0  0  0  0  0
  -26.0885  -29.9542   25.5315 C   0  0  0  0  0  0  0  0  0  0  0  0
  -25.6916  -32.2203   26.5191 C   0  0  0  0  0  0  0  0  0  0  0  0
  -27.8612  -31.7131   25.3974 C   0  0  0  0  0  0  0  0  0  0  0  0
  -23.1588  -25.2565   19.6528 C   0  0  0  0  0  0  0  0  0  0  0  0
  -24.5295  -35.8440   21.0723 C   0  0  0  0  0  0  0  0  0  0  0  0
  -18.5934  -25.7016   22.9462 C   0  0  0  0  0  0  0  0  0  0  0  0
  -22.7717  -23.4952   21.3362 C   0  0  0  0  0  0  0  0  0  0  0  0
  -18.7929  -28.8132   19.6324 C   0  0  0  0  0  0  0  0  0  1  0  0
  -25.7787  -32.0049   23.9939 C   0  0  1  0  0  0  0  0  0  0  0  0
  -25.5103  -35.7338   23.3667 C   0  0  2  0  0  0  0  0  0  0  0  0
  -26.3384  -31.4634   25.3395 C   0  0  0  0  0  0  0  0  0  0  0  0
  -23.2422  -17.6896   20.8697 N   0  0  0  0  0  0  0  0  0  0  0  0
  -23.0408  -18.8833   21.4533 N   0  0  0  0  0  0  0  0  0  0  0  0
  -18.1138  -26.3477   21.7286 N   0  0  0  0  0  0  0  0  0  0  0  0
  -25.4414  -30.6206   21.9706 N   0  0  0  0  0  0  0  0  0  0  0  0
  -21.9080  -21.7677   19.2050 N   0  0  0  0  0  0  0  0  0  0  0  0
  -23.0441  -27.1734   24.5906 N   0  0  0  0  0  0  0  0  0  0  0  0
  -20.2215  -27.4184   24.5842 N   0  0  0  0  0  0  0  0  0  0  0  0
  -23.6585  -20.2000   23.3229 N   0  0  0  0  0  0  0  0  0  0  0  0
  -24.8157  -17.0200   25.0385 N   0  0  0  0  0  0  0  0  0  0  0  0
  -26.9991  -27.5611   20.9996 N   0  0  0  0  0  0  0  0  0  0  0  0
  -26.0248  -33.4258   23.7729 N   0  0  0  0  0  0  0  0  0  0  0  0
  -22.7959  -23.8729   19.9248 N   0  0  0  0  0  0  0  0  0  0  0  0
  -24.6359  -36.4739   22.4135 N   0  3  0  0  0  0  0  0  0  0  0  0
  -17.9683  -24.2596   20.6897 O   0  0  0  0  0  0  0  0  0  0  0  0
  -18.2744  -28.4711   22.7008 O   0  0  0  0  0  0  0  0  0  0  0  0
  -26.5607  -17.9142   23.8493 O   0  0  0  0  0  0  0  0  0  0  0  0
  -25.1118  -28.0123   22.2868 O   0  0  0  0  0  0  0  0  0  0  0  0
  -27.5740  -31.3181   22.6041 O   0  0  0  0  0  0  0  0  0  0  0  0
  -23.7997  -34.0368   23.5439 O   0  0  0  0  0  0  0  0  0  0  0  0
  -22.0769  -23.5554   17.7580 O   0  0  0  0  0  0  0  0  0  0  0  0
  -25.9373  -11.9274   20.5759 O   0  0  0  0  0  0  0  0  0  0  0  0
  -19.5397  -29.7606   20.3948 O   0  0  0  0  0  0  0  0  0  1  0  0
  -23.8813   -7.7780   23.5691 F   0  0  0  0  0  0  0  0  0  0  0  0
  -26.2527  -11.8671   23.3217 F   0  0  0  0  0  0  0  0  0  0  0  0
  1  2  1  0  0  0  0
  1  5  2  0  0  0  0
  2  6  2  0  0  0  0
  3  8  2  0  0  0  0
  3 17  1  0  0  0  0
  4  9  1  0  0  0  0
  4 17  2  0  0  0  0
  5 19  1  0  0  0  0
  6 21  1  0  0  0  0
  7 10  2  0  0  0  0
  7 20  1  0  0  0  0
  8 27  1  0  0  0  0
  9 27  2  0  0  0  0
 10 28  1  0  0  0  0
 11 12  2  0  0  0  0
 11 29  1  0  0  0  0
 12 30  1  0  0  0  0
 13 22  1  0  0  0  0
 13 28  2  0  0  0  0
 14 23  2  0  0  0  0
 14 24  1  0  0  0  0
 15 23  1  0  0  0  0
 15 25  2  0  0  0  0
 16 30  2  0  0  0  0
 16 31  1  0  0  0  0
 17 32  1  0  0  0  0
 18 32  1  0  0  0  0
 18 33  2  0  0  0  0
 18 36  1  0  0  0  0
 19 21  2  0  0  0  0
 19 41  1  0  0  0  0
 20 22  2  0  0  0  0
 20 42  1  0  0  0  0
 21 52  1  0  0  0  0
 22 43  1  0  0  0  0
 23 63  1  0  0  0  0
 24 26  2  0  0  0  0
 24 62  1  0  0  0  0
 25 26  1  0  0  0  0
 25 73  1  0  0  0  0
 26 74  1  0  0  0  0
 27 88  1  0  0  0  0
 28 89  1  0  0  0  0
 29 31  2  0  0  0  0
 29 88  1  0  0  0  0
 30 90  1  0  0  0  0
 31 91  1  0  0  0  0
 32 68  2  0  0  0  0
 33 69  1  0  0  0  0
 33 75  1  0  0  0  0
 34 44  1  0  0  0  0
 34 70  1  0  0  0  0
 34 81  2  0  0  0  0
 35 53  1  0  0  0  0
 35 70  1  0  0  0  0
 35 82  2  0  0  0  0
 36 76  1  0  0  0  0
 36 83  2  0  0  0  0
 37 54  1  0  0  0  0
 37 77  1  0  0  0  0
 37 84  2  0  0  0  0
 38 65  1  0  0  0  0
 38 71  1  0  0  0  0
 38 85  2  0  0  0  0
 39 66  1  0  0  0  0
 39 78  1  0  0  0  0
 39 86  2  0  0  0  0
 40 72  1  0  0  0  0
 40 79  1  0  0  0  0
 40 87  2  0  0  0  0
 41 45  1  0  0  0  0
 42 54  1  0  0  0  0
 43 71  1  0  0  0  0
 44 46  1  0  0  0  0
 45 48  1  0  0  0  0
 46 53  1  0  0  0  0
 47 49  1  0  0  0  0
 47 50  1  0  0  0  0
 48 52  1  0  0  0  0
 49 55  1  0  0  0  0
 50 72  1  0  0  0  0
 51 55  1  0  0  0  0
 51 72  1  0  0  0  0
 52 77  1  0  0  0  0
 53 64  1  0  0  0  0
 54 71  1  0  0  0  0
 55 69  1  0  0  0  0
 56 66  1  0  0  0  0
 57 67  1  0  0  0  0
 58 67  1  0  0  0  0
 59 67  1  0  0  0  0
 60 79  1  0  0  0  0
 61 80  1  0  0  0  0
 62 70  1  0  0  0  0
 63 79  1  0  0  0  0
 64 89  1  0  0  0  0
 65 67  1  0  0  0  0
 65 78  1  0  0  0  0
 66 80  1  0  0  0  0
 68 69  1  0  0  0  0
M  CHG  1  80   1
M  ISO  4  40 100  64 101  79 100  89 101
M  END
> <Batch ID>
0093

> <Smiles>
CNC(C)C(=O)NC(C(=O)N1Cc2cc([101O:1][101CH2:1]C3CCC(=O)N(Cc4cc(C[100N:0](C)[100C:0](=O)N5CCCC(n6nc(-c7ccc(Oc8ccc(F)cc8F)cc7)c(C(N)=O)c6N)C5)cc(N)c4N)C3=O)ccc2CC1C(=O)NC1CCCc2ccccc21)C(C)(C)C

> <Shape>
0.259

> <Color>
0.060

> <Negative vol penalty>
0.000

$$$$

  -OEChem-04052300373D

 88 97  0     1  0  0  0  0  0999 V2000
  -25.3360  -28.7315   23.7977 C   0  0  0  0  0  0  0  0  0  0  0  0
  -25.8303  -27.4319   23.7522 C   0  0  0  0  0  0  0  0  0  0  0  0
  -24.0407  -18.0243   18.0428 C   0  0  0  0  0  0  0  0  0  0  0  0
  -22.4302  -17.9633   19.8428 C   0  0  0  0  0  0  0  0  0  0  0  0
  -25.2356  -29.4794   22.6254 C   0  0  0  0  0  0  0  0  0  0  0  0
  -26.2234  -26.8790   22.5339 C   0  0  0  0  0  0  0  0  0  0  0  0
  -30.8296  -22.9558   21.5869 C   0  0  0  0  0  0  0  0  0  0  0  0
  -23.1668  -18.8061   17.2874 C   0  0  0  0  0  0  0  0  0  0  0  0
  -21.5563  -18.7451   19.0874 C   0  0  0  0  0  0  0  0  0  0  0  0
  -30.8662  -21.5697   21.4415 C   0  0  0  0  0  0  0  0  0  0  0  0
  -18.7543  -20.4235   17.4931 C   0  0  0  0  0  0  0  0  0  0  0  0
  -17.4129  -20.0431   17.4541 C   0  0  0  0  0  0  0  0  0  0  0  0
  -30.8327  -21.8265   19.0431 C   0  0  0  0  0  0  0  0  0  0  0  0
  -32.1458  -16.5870   20.9308 C   0  0  0  0  0  0  0  0  0  0  0  0
  -29.0876  -14.3798   18.4372 C   0  0  0  0  0  0  0  0  0  0  0  0
  -28.7957  -12.0770   19.9848 C   0  0  0  0  0  0  0  0  0  0  0  0
  -18.0436  -17.9174   16.4945 C   0  0  0  0  0  0  0  0  0  0  0  0
  -23.6724  -17.6028   19.3205 C   0  0  0  0  0  0  0  0  0  0  0  0
  -25.5603  -17.2465   20.9988 C   0  0  0  0  0  0  0  0  0  0  0  0
  -25.6367  -28.9388   21.3935 C   0  0  0  0  0  0  0  0  0  0  0  0
  -30.7832  -23.7887   20.4598 C   0  0  0  0  0  0  0  0  0  0  0  0
  -26.1269  -27.6199   21.3437 C   0  0  0  0  0  0  0  0  0  0  0  0
  -30.7981  -23.2229   19.1769 C   0  0  0  0  0  0  0  0  0  0  0  0
  -31.0013  -17.4183   20.8521 C   0  0  0  0  0  0  0  0  0  0  0  0
  -29.6938  -14.3006   19.6910 C   0  0  0  0  0  0  0  0  0  0  0  0
  -28.3354  -13.3076   17.9573 C   0  0  0  0  0  0  0  0  0  0  0  0
  -28.1895  -12.1563   18.7310 C   0  0  0  0  0  0  0  0  0  0  0  0
  -21.9246  -19.1666   17.8097 C   0  0  0  0  0  0  0  0  0  0  0  0
  -30.8649  -21.0047   20.1695 C   0  0  0  0  0  0  0  0  0  0  0  0
  -19.7404  -19.5509   17.0328 C   0  0  0  0  0  0  0  0  0  0  0  0
  -17.0575  -18.7901   16.9548 C   0  0  0  0  0  0  0  0  0  0  0  0
  -29.5479  -13.1493   20.4647 C   0  0  0  0  0  0  0  0  0  0  0  0
  -19.3850  -18.2978   16.5335 C   0  0  0  0  0  0  0  0  0  0  0  0
  -24.5744  -16.7947   20.1011 C   0  0  0  0  0  0  0  0  0  0  0  0
  -26.1396  -16.0976   21.4793 C   0  0  0  0  0  0  0  0  0  0  0  0
  -31.7725  -15.3318   20.5035 C   0  0  0  0  0  0  0  0  0  0  0  0
  -29.9635  -16.6458   20.3793 C   0  0  0  0  0  0  0  0  0  0  0  0
  -25.9201  -18.5850   21.3655 C   0  0  0  0  0  0  0  0  0  0  0  0
  -28.7102  -25.9149   19.3257 C   0  0  0  0  0  0  0  0  0  0  0  0
  -31.0510  -26.4538   17.1456 C   0  0  0  0  0  0  0  0  0  0  0  0
  -33.7959  -25.2801   15.4919 C   0  0  0  0  0  0  0  0  0  0  0  0
  -26.2858  -10.5350   18.9278 C   0  0  0  0  0  0  0  0  0  0  0  0
  -25.4651  -29.7690   20.1461 C   0  0  0  0  0  0  0  0  0  0  0  0
  -30.7710  -25.2828   20.6333 C   0  0  0  0  0  0  0  0  0  0  0  0
  -30.7697  -24.0739   17.9345 C   0  0  0  0  0  0  0  0  0  0  0  0
  -26.2537  -29.2415   18.9502 C   0  0  0  0  0  0  0  0  0  0  0  0
  -25.2165  -11.4873   22.3399 C   0  0  0  0  0  0  0  0  0  0  0  0
  -26.0639  -27.7346   18.8083 C   0  0  0  0  0  0  0  0  0  0  0  0
  -24.9341  -12.9822   22.2022 C   0  0  0  0  0  0  0  0  0  0  0  0
  -24.9921  -10.7451   21.0259 C   0  0  0  0  0  0  0  0  0  0  0  0
  -25.4897  -12.8068   19.7441 C   0  0  0  0  0  0  0  0  0  0  0  0
  -26.5867  -26.9938   20.0450 C   0  0  1  0  0  0  0  0  0  0  0  0
  -30.2059  -26.0202   19.4232 C   0  0  1  0  0  0  0  0  0  0  0  0
  -25.7475  -13.5833   21.0440 C   0  0  1  0  0  0  0  0  0  0  0  0
  -35.4713  -25.9355   13.7423 C   0  0  0  0  0  0  0  0  0  0  0  0
  -28.9630  -25.9789   14.9719 C   0  0  0  0  0  0  0  0  0  0  0  0
  -30.8345  -25.7026   13.3320 C   0  0  0  0  0  0  0  0  0  0  0  0
  -30.5286  -27.8757   14.5181 C   0  0  0  0  0  0  0  0  0  0  0  0
  -27.9807  -10.2237   17.1779 C   0  0  0  0  0  0  0  0  0  0  0  0
  -36.0515  -25.0272   17.3912 C   0  0  0  0  0  0  0  0  0  0  0  0
  -30.9370  -18.8718   21.2189 C   0  0  0  0  0  0  0  0  0  1  0  0
  -31.4078  -25.8791   15.7960 C   0  0  1  0  0  0  0  0  0  0  0  0
  -35.1559  -25.9015   15.2296 C   0  0  2  0  0  0  0  0  0  0  0  0
  -30.4321  -26.3427   14.6777 C   0  0  0  0  0  0  0  0  0  0  0  0
  -24.5274  -15.4627   20.0146 N   0  0  0  0  0  0  0  0  0  0  0  0
  -30.4438  -15.3793   20.1711 N   0  0  0  0  0  0  0  0  0  0  0  0
  -25.4910  -15.0676   20.8639 N   0  0  0  0  0  0  0  0  0  0  0  0
  -30.7520  -25.5292   18.1563 N   0  0  0  0  0  0  0  0  0  0  0  0
  -25.7251  -11.3644   19.9206 N   0  0  0  0  0  0  0  0  0  0  0  0
  -27.7292  -13.4099   16.6851 N   0  0  0  0  0  0  0  0  0  0  0  0
  -27.1355  -15.8780   22.3638 N   0  0  0  0  0  0  0  0  0  0  0  0
  -25.2233  -19.6493   20.7771 N   0  0  0  0  0  0  0  0  0  0  0  0
  -28.0308  -26.9057   20.0084 N   0  0  0  0  0  0  0  0  0  0  0  0
  -32.8025  -26.2341   15.5570 N   0  0  0  0  0  0  0  0  0  0  0  0
  -27.4177  -11.0342   18.2556 N   0  0  0  0  0  0  0  0  0  0  0  0
  -36.2231  -25.1220   15.9186 N   0  3  0  0  0  0  0  0  0  0  0  0
  -26.8436  -18.8305   22.1782 O   0  0  0  0  0  0  0  0  0  0  0  0
  -28.2097  -25.0031   18.6778 O   0  0  0  0  0  0  0  0  0  0  0  0
  -31.0449  -27.6777   17.2993 O   0  0  0  0  0  0  0  0  0  0  0  0
  -33.6308  -24.0692   15.6221 O   0  0  0  0  0  0  0  0  0  0  0  0
  -25.7806   -9.4481   18.6211 O   0  0  0  0  0  0  0  0  0  0  0  0
  -32.4806  -14.2141   20.3934 O   0  0  0  0  0  0  0  0  0  0  0  0
  -28.6957  -16.9571   20.1340 O   0  0  0  0  0  0  0  0  0  0  0  0
  -21.0718  -19.9297   17.0729 O   0  0  0  0  0  0  0  0  0  0  0  0
  -30.8999  -19.6521   20.0247 O   0  0  0  0  0  0  0  0  0  1  0  0
  -15.7695  -18.4243   16.9188 F   0  0  0  0  0  0  0  0  0  0  0  0
  -30.1258  -13.0598   21.6715 F   0  0  0  0  0  0  0  0  0  0  0  0
  -20.3280  -17.4548   16.0909 F   0  0  0  0  0  0  0  0  0  0  0  0
  1  2  1  0  0  0  0
  1  5  2  0  0  0  0
  2  6  2  0  0  0  0
  3  8  2  0  0  0  0
  3 18  1  0  0  0  0
  4  9  1  0  0  0  0
  4 18  2  0  0  0  0
  5 20  1  0  0  0  0
  6 22  1  0  0  0  0
  7 10  2  0  0  0  0
  7 21  1  0  0  0  0
  8 28  1  0  0  0  0
  9 28  2  0  0  0  0
 10 29  1  0  0  0  0
 11 12  2  0  0  0  0
 11 30  1  0  0  0  0
 12 31  1  0  0  0  0
 13 23  1  0  0  0  0
 13 29  2  0  0  0  0
 14 24  1  0  0  0  0
 14 36  2  0  0  0  0
 15 25  1  0  0  0  0
 15 26  2  0  0  0  0
 16 27  2  0  0  0  0
 16 32  1  0  0  0  0
 17 31  2  0  0  0  0
 17 33  1  0  0  0  0
 18 34  1  0  0  0  0
 19 34  1  0  0  0  0
 19 35  2  0  0  0  0
 19 38  1  0  0  0  0
 20 22  2  0  0  0  0
 20 43  1  0  0  0  0
 21 23  2  0  0  0  0
 21 44  1  0  0  0  0
 22 52  1  0  0  0  0
 23 45  1  0  0  0  0
 24 37  2  0  0  0  0
 24 61  1  0  0  0  0
 25 32  2  0  0  0  0
 25 66  1  0  0  0  0
 26 27  1  0  0  0  0
 26 70  1  0  0  0  0
 27 75  1  0  0  0  0
 28 84  1  0  0  0  0
 29 85  1  0  0  0  0
 30 33  2  0  0  0  0
 30 84  1  0  0  0  0
 31 86  1  0  0  0  0
 32 87  1  0  0  0  0
 33 88  1  0  0  0  0
 34 65  2  0  0  0  0
 35 67  1  0  0  0  0
 35 71  1  0  0  0  0
 36 66  1  0  0  0  0
 36 82  1  0  0  0  0
 37 66  1  0  0  0  0
 37 83  1  0  0  0  0
 38 72  1  0  0  0  0
 38 77  2  0  0  0  0
 39 53  1  0  0  0  0
 39 73  1  0  0  0  0
 39 78  2  0  0  0  0
 40 62  1  0  0  0  0
 40 68  1  0  0  0  0
 40 79  2  0  0  0  0
 41 63  1  0  0  0  0
 41 74  1  0  0  0  0
 41 80  2  0  0  0  0
 42 69  1  0  0  0  0
 42 75  1  0  0  0  0
 42 81  2  0  0  0  0
 43 46  1  0  0  0  0
 44 53  1  0  0  0  0
 45 68  1  0  0  0  0
 46 48  1  0  0  0  0
 47 49  1  0  0  0  0
 47 50  1  0  0  0  0
 48 52  1  0  0  0  0
 49 54  1  0  0  0  0
 50 69  1  0  0  0  0
 51 54  1  0  0  0  0
 51 69  1  0  0  0  0
 52 73  1  0  0  0  0
 53 68  1  0  0  0  0
 54 67  1  0  0  0  0
 55 63  1  0  0  0  0
 56 64  1  0  0  0  0
 57 64  1  0  0  0  0
 58 64  1  0  0  0  0
 59 75  1  0  0  0  0
 60 76  1  0  0  0  0
 61 85  1  0  0  0  0
 62 64  1  0  0  0  0
 62 74  1  0  0  0  0
 63 76  1  0  0  0  0
 65 67  1  0  0  0  0
M  CHG  1  76   1
M  ISO  4  42 100  61 101  75 100  85 101
M  END
> <Batch ID>
0093

> <Smiles>
CNC(C)C(=O)NC(C(=O)N1Cc2cc([101O:1][101CH2:1]C3CC(=O)N(c4cc(N)c([100N:0](C)[100C:0](=O)N5CCCC(n6nc(-c7ccc(Oc8ccc(F)cc8F)cc7)c(C(N)=O)c6N)C5)cc4F)C3=O)ccc2CC1C(=O)NC1CCCc2ccccc21)C(C)(C)C

> <Shape>
0.196

> <Color>
0.058

> <Negative vol penalty>
0.000

$$$$

  -OEChem-04052300373D

 88 97  0     1  0  0  0  0  0999 V2000
  -28.3789  -32.8893   14.5535 C   0  0  0  0  0  0  0  0  0  0  0  0
  -28.2052  -31.6722   15.2046 C   0  0  0  0  0  0  0  0  0  0  0  0
  -23.1507  -10.4054   19.6254 C   0  0  0  0  0  0  0  0  0  0  0  0
  -23.4722   -9.6276   21.8901 C   0  0  0  0  0  0  0  0  0  0  0  0
  -29.4164  -19.4252   18.3177 C   0  0  0  0  0  0  0  0  0  0  0  0
  -28.5441  -34.0581   15.2955 C   0  0  0  0  0  0  0  0  0  0  0  0
  -28.1978  -31.6230   16.5981 C   0  0  0  0  0  0  0  0  0  0  0  0
  -24.4617  -28.7304   18.4200 C   0  0  0  0  0  0  0  0  0  0  0  0
  -28.4347  -20.4073   18.1862 C   0  0  0  0  0  0  0  0  0  0  0  0
  -22.2455   -9.3688   19.3979 C   0  0  0  0  0  0  0  0  0  0  0  0
  -22.5670   -8.5910   21.6626 C   0  0  0  0  0  0  0  0  0  0  0  0
  -24.6481  -27.3493   18.3795 C   0  0  0  0  0  0  0  0  0  0  0  0
  -22.5696   -5.5687   20.1472 C   0  0  0  0  0  0  0  0  0  0  0  0
  -22.9203   -4.2933   20.5898 C   0  0  0  0  0  0  0  0  0  0  0  0
  -25.2688  -27.3708   20.7105 C   0  0  0  0  0  0  0  0  0  0  0  0
  -24.2172  -22.1991   18.4998 C   0  0  0  0  0  0  0  0  0  0  0  0
  -26.9223  -19.0736   19.5170 C   0  0  0  0  0  0  0  0  0  0  0  0
  -20.9661   -4.2489   22.0098 C   0  0  0  0  0  0  0  0  0  0  0  0
  -23.7641  -10.5347   20.8715 C   0  0  0  0  0  0  0  0  0  0  0  0
  -29.1511  -18.2672   19.0488 C   0  0  0  0  0  0  0  0  0  0  0  0
  -24.4115  -12.8949   21.5911 C   0  0  0  0  0  0  0  0  0  0  0  0
  -28.5290  -34.0246   16.6988 C   0  0  0  0  0  0  0  0  0  0  0  0
  -24.6883  -29.4448   19.6053 C   0  0  0  0  0  0  0  0  0  0  0  0
  -28.3643  -32.7923   17.3596 C   0  0  0  0  0  0  0  0  0  0  0  0
  -25.0821  -28.7605   20.7641 C   0  0  0  0  0  0  0  0  0  0  0  0
  -25.2222  -23.1938   18.4120 C   0  0  0  0  0  0  0  0  0  0  0  0
  -27.1876  -20.2315   18.7859 C   0  0  0  0  0  0  0  0  0  0  0  0
  -21.9536   -8.4617   20.4165 C   0  0  0  0  0  0  0  0  0  0  0  0
  -25.0546  -26.6697   19.5241 C   0  0  0  0  0  0  0  0  0  0  0  0
  -21.4173   -6.1843   20.6359 C   0  0  0  0  0  0  0  0  0  0  0  0
  -22.1185   -3.6333   21.5210 C   0  0  0  0  0  0  0  0  0  0  0  0
  -27.9041  -18.0915   19.6485 C   0  0  0  0  0  0  0  0  0  0  0  0
  -20.6155   -5.5243   21.5672 C   0  0  0  0  0  0  0  0  0  0  0  0
  -24.6998  -11.6049   21.1069 C   0  0  0  0  0  0  0  0  0  0  0  0
  -25.6309  -13.5255   21.6354 C   0  0  0  0  0  0  0  0  0  0  0  0
  -24.8516  -20.9855   18.6487 C   0  0  0  0  0  0  0  0  0  0  0  0
  -26.4401  -22.5577   18.5098 C   0  0  0  0  0  0  0  0  0  0  0  0
  -30.1989  -17.2233   19.1874 C   0  0  0  0  0  0  0  0  0  0  0  0
  -23.1539  -13.4717   21.9673 C   0  0  0  0  0  0  0  0  0  0  0  0
  -26.6838  -31.7578   20.4835 C   0  0  0  0  0  0  0  0  0  0  0  0
  -24.9394  -31.6912   23.2175 C   0  0  0  0  0  0  0  0  0  0  0  0
  -22.8985  -29.9294   25.3098 C   0  0  0  0  0  0  0  0  0  0  0  0
  -30.5506  -14.7849   19.4199 C   0  0  0  0  0  0  0  0  0  0  0  0
  -28.7588  -35.3073   17.4581 C   0  0  0  0  0  0  0  0  0  0  0  0
  -24.4569  -30.9306   19.6395 C   0  0  0  0  0  0  0  0  0  0  0  0
  -25.3190  -29.4782   22.0669 C   0  0  0  0  0  0  0  0  0  0  0  0
  -28.3639  -35.2229   18.9302 C   0  0  0  0  0  0  0  0  0  0  0  0
  -30.3176  -11.6817   21.0972 C   0  0  0  0  0  0  0  0  0  0  0  0
  -28.9083  -33.9428   19.5564 C   0  0  0  0  0  0  0  0  0  0  0  0
  -28.8116  -11.4919   21.2978 C   0  0  0  0  0  0  0  0  0  0  0  0
  -30.6333  -12.3292   19.7496 C   0  0  0  0  0  0  0  0  0  0  0  0
  -28.4115  -13.3857   19.6738 C   0  0  0  0  0  0  0  0  0  0  0  0
  -28.3256  -32.7017   18.8697 C   0  0  1  0  0  0  0  0  0  0  0  0
  -25.2138  -31.6274   20.7659 C   0  0  1  0  0  0  0  0  0  0  0  0
  -28.0378  -12.8016   21.0457 C   0  0  1  0  0  0  0  0  0  0  0  0
  -21.6634  -30.1279   27.4852 C   0  0  0  0  0  0  0  0  0  0  0  0
  -27.5639  -31.3509   24.7360 C   0  0  0  0  0  0  0  0  0  0  0  0
  -26.2361  -30.6135   26.7263 C   0  0  0  0  0  0  0  0  0  0  0  0
  -25.9328  -32.9135   25.8093 C   0  0  0  0  0  0  0  0  0  0  0  0
  -20.2813  -29.5009   23.9963 C   0  0  0  0  0  0  0  0  0  0  0  0
  -24.9958  -24.6673   18.2423 C   0  0  0  0  0  0  0  0  0  1  0  0
  -25.0246  -30.9361   24.5219 C   0  0  1  0  0  0  0  0  0  0  0  0
  -21.5833  -30.2922   25.9755 C   0  0  2  0  0  0  0  0  0  0  0  0
  -26.1868  -31.4400   25.4235 C   0  0  0  0  0  0  0  0  0  0  0  0
  -26.0002  -11.4251   20.8610 N   0  0  0  0  0  0  0  0  0  0  0  0
  -26.2026  -21.2156   18.6532 N   0  0  0  0  0  0  0  0  0  0  0  0
  -26.5400  -12.6105   21.1920 N   0  0  0  0  0  0  0  0  0  0  0  0
  -25.0855  -30.9317   22.0480 N   0  0  0  0  0  0  0  0  0  0  0  0
  -29.8686  -13.5677   19.5926 N   0  0  0  0  0  0  0  0  0  0  0  0
  -26.0035  -14.7678   22.0100 N   0  0  0  0  0  0  0  0  0  0  0  0
  -21.9992  -12.6847   21.8601 N   0  0  0  0  0  0  0  0  0  0  0  0
  -29.7320  -15.9156   19.3220 N   0  0  0  0  0  0  0  0  0  0  0  0
  -26.9748  -32.4578   19.3281 N   0  0  0  0  0  0  0  0  0  0  0  0
  -23.7054  -31.0341   25.1373 N   0  0  0  0  0  0  0  0  0  0  0  0
  -20.4870  -29.4212   25.4654 N   0  3  0  0  0  0  0  0  0  0  0  0
  -31.3810  -17.5521   19.1374 O   0  0  0  0  0  0  0  0  0  0  0  0
  -23.0549  -14.6554   22.3705 O   0  0  0  0  0  0  0  0  0  0  0  0
  -27.4941  -31.2615   21.2573 O   0  0  0  0  0  0  0  0  0  0  0  0
  -24.7430  -32.9089   23.2353 O   0  0  0  0  0  0  0  0  0  0  0  0
  -23.1833  -28.7803   24.9796 O   0  0  0  0  0  0  0  0  0  0  0  0
  -31.7828  -14.8635   19.3936 O   0  0  0  0  0  0  0  0  0  0  0  0
  -24.3510  -19.7621   18.7732 O   0  0  0  0  0  0  0  0  0  0  0  0
  -27.6752  -23.0455   18.4813 O   0  0  0  0  0  0  0  0  0  0  0  0
  -21.0701   -7.4503   20.1949 O   0  0  0  0  0  0  0  0  0  0  0  0
  -25.2379  -25.3218   19.4871 O   0  0  0  0  0  0  0  0  0  1  0  0
  -22.4545   -2.4079   21.9448 F   0  0  0  0  0  0  0  0  0  0  0  0
  -27.6387  -16.9826   20.3536 F   0  0  0  0  0  0  0  0  0  0  0  0
  -19.5066   -6.1101   22.0394 F   0  0  0  0  0  0  0  0  0  0  0  0
  1  2  1  0  0  0  0
  1  6  2  0  0  0  0
  2  7  2  0  0  0  0
  3 10  2  0  0  0  0
  3 19  1  0  0  0  0
  4 11  1  0  0  0  0
  4 19  2  0  0  0  0
  5  9  2  0  0  0  0
  5 20  1  0  0  0  0
  6 22  1  0  0  0  0
  7 24  1  0  0  0  0
  8 12  2  0  0  0  0
  8 23  1  0  0  0  0
  9 27  1  0  0  0  0
 10 28  1  0  0  0  0
 11 28  2  0  0  0  0
 12 29  1  0  0  0  0
 13 14  2  0  0  0  0
 13 30  1  0  0  0  0
 14 31  1  0  0  0  0
 15 25  1  0  0  0  0
 15 29  2  0  0  0  0
 16 26  1  0  0  0  0
 16 36  2  0  0  0  0
 17 27  2  0  0  0  0
 17 32  1  0  0  0  0
 18 31  2  0  0  0  0
 18 33  1  0  0  0  0
 19 34  1  0  0  0  0
 20 32  2  0  0  0  0
 20 38  1  0  0  0  0
 21 34  1  0  0  0  0
 21 35  2  0  0  0  0
 21 39  1  0  0  0  0
 22 24  2  0  0  0  0
 22 44  1  0  0  0  0
 23 25  2  0  0  0  0
 23 45  1  0  0  0  0
 24 53  1  0  0  0  0
 25 46  1  0  0  0  0
 26 37  2  0  0  0  0
 26 61  1  0  0  0  0
 27 66  1  0  0  0  0
 28 84  1  0  0  0  0
 29 85  1  0  0  0  0
 30 33  2  0  0  0  0
 30 84  1  0  0  0  0
 31 86  1  0  0  0  0
 32 87  1  0  0  0  0
 33 88  1  0  0  0  0
 34 65  2  0  0  0  0
 35 67  1  0  0  0  0
 35 70  1  0  0  0  0
 36 66  1  0  0  0  0
 36 82  1  0  0  0  0
 37 66  1  0  0  0  0
 37 83  1  0  0  0  0
 38 72  1  0  0  0  0
 38 76  2  0  0  0  0
 39 71  1  0  0  0  0
 39 77  2  0  0  0  0
 40 54  1  0  0  0  0
 40 73  1  0  0  0  0
 40 78  2  0  0  0  0
 41 62  1  0  0  0  0
 41 68  1  0  0  0  0
 41 79  2  0  0  0  0
 42 63  1  0  0  0  0
 42 74  1  0  0  0  0
 42 80  2  0  0  0  0
 43 69  1  0  0  0  0
 43 72  1  0  0  0  0
 43 81  2  0  0  0  0
 44 47  1  0  0  0  0
 45 54  1  0  0  0  0
 46 68  1  0  0  0  0
 47 49  1  0  0  0  0
 48 50  1  0  0  0  0
 48 51  1  0  0  0  0
 49 53  1  0  0  0  0
 50 55  1  0  0  0  0
 51 69  1  0  0  0  0
 52 55  1  0  0  0  0
 52 69  1  0  0  0  0
 53 73  1  0  0  0  0
 54 68  1  0  0  0  0
 55 67  1  0  0  0  0
 56 63  1  0  0  0  0
 57 64  1  0  0  0  0
 58 64  1  0  0  0  0
 59 64  1  0  0  0  0
 60 75  1  0  0  0  0
 61 85  1  0  0  0  0
 62 64  1  0  0  0  0
 62 74  1  0  0  0  0
 63 75  1  0  0  0  0
 65 67  1  0  0  0  0
M  CHG  1  75   1
M  ISO  4  43 100  61 101  72 100  85 101
M  END
> <Batch ID>
0093

> <Smiles>
CNC(C)C(=O)NC(C(=O)N1Cc2cc([101O:1][101CH2:1]C3CC(=O)N(c4ccc(C(=O)[100NH:0][100C:0](=O)N5CCCC(n6nc(-c7ccc(Oc8ccc(F)cc8F)cc7)c(C(N)=O)c6N)C5)c(F)c4)C3=O)ccc2CC1C(=O)NC1CCCc2ccccc21)C(C)(C)C

> <Shape>
0.275

> <Color>
0.128

> <Negative vol penalty>
0.000

$$$$

  -OEChem-04052300373D

 86 95  0     1  0  0  0  0  0999 V2000
  -27.2532  -34.0274   21.0190 C   0  0  0  0  0  0  0  0  0  0  0  0
  -27.5373  -32.7037   20.6987 C   0  0  0  0  0  0  0  0  0  0  0  0
  -22.9444  -10.0781   19.8879 C   0  0  0  0  0  0  0  0  0  0  0  0
  -23.9878   -9.6718   22.0287 C   0  0  0  0  0  0  0  0  0  0  0  0
  -26.1395  -34.3305   21.8010 C   0  0  0  0  0  0  0  0  0  0  0  0
  -26.7084  -31.6823   21.1612 C   0  0  0  0  0  0  0  0  0  0  0  0
  -25.3024  -26.4800   18.2517 C   0  0  0  0  0  0  0  0  0  0  0  0
  -22.1998   -8.9070   20.0285 C   0  0  0  0  0  0  0  0  0  0  0  0
  -23.2432   -8.5007   22.1694 C   0  0  0  0  0  0  0  0  0  0  0  0
  -25.8028  -25.1828   18.3549 C   0  0  0  0  0  0  0  0  0  0  0  0
  -20.0922   -7.6439   23.0397 C   0  0  0  0  0  0  0  0  0  0  0  0
  -19.4884   -7.4060   24.2744 C   0  0  0  0  0  0  0  0  0  0  0  0
  -24.0038  -24.6149   19.8583 C   0  0  0  0  0  0  0  0  0  0  0  0
  -26.9876  -20.1794   17.8178 C   0  0  0  0  0  0  0  0  0  0  0  0
  -28.4456  -18.5023   21.9463 C   0  0  0  0  0  0  0  0  0  0  0  0
  -20.7473   -5.3557   24.4949 C   0  0  0  0  0  0  0  0  0  0  0  0
  -23.8384  -10.4605   20.8880 C   0  0  0  0  0  0  0  0  0  0  0  0
  -24.2468  -12.9633   21.1648 C   0  0  0  0  0  0  0  0  0  0  0  0
  -25.2910  -33.3131   22.2653 C   0  0  0  0  0  0  0  0  0  0  0  0
  -24.1532  -26.8581   18.9608 C   0  0  0  0  0  0  0  0  0  0  0  0
  -25.5830  -31.9720   21.9513 C   0  0  0  0  0  0  0  0  0  0  0  0
  -23.4894  -25.9168   19.7604 C   0  0  0  0  0  0  0  0  0  0  0  0
  -27.1786  -21.2384   18.7394 C   0  0  0  0  0  0  0  0  0  0  0  0
  -29.1257  -17.3885   22.5181 C   0  0  0  0  0  0  0  0  0  0  0  0
  -22.3492   -8.1183   21.1693 C   0  0  0  0  0  0  0  0  0  0  0  0
  -25.1552  -24.2509   19.1606 C   0  0  0  0  0  0  0  0  0  0  0  0
  -21.0235   -6.7377   22.5326 C   0  0  0  0  0  0  0  0  0  0  0  0
  -19.8160   -6.2620   25.0020 C   0  0  0  0  0  0  0  0  0  0  0  0
  -21.3511   -5.5936   23.2602 C   0  0  0  0  0  0  0  0  0  0  0  0
  -24.6083  -11.6698   20.7430 C   0  0  0  0  0  0  0  0  0  0  0  0
  -29.6334  -16.5429   21.5564 C   0  0  0  0  0  0  0  0  0  0  0  0
  -25.3088  -13.7534   20.7981 C   0  0  0  0  0  0  0  0  0  0  0  0
  -27.4504  -19.0270   18.4136 C   0  0  0  0  0  0  0  0  0  0  0  0
  -27.7526  -20.7008   19.8703 C   0  0  0  0  0  0  0  0  0  0  0  0
  -28.4596  -18.4657   20.5692 C   0  0  0  0  0  0  0  0  0  0  0  0
  -23.0575  -13.4107   21.8289 C   0  0  0  0  0  0  0  0  0  0  0  0
  -30.3717  -15.3297   21.7132 C   0  0  0  0  0  0  0  0  0  0  0  0
  -30.8406  -14.5458   20.5474 C   0  0  0  0  0  0  0  0  0  0  0  0
  -23.5167  -28.9961   21.2252 C   0  0  0  0  0  0  0  0  0  0  0  0
  -20.4578  -28.0412   20.7219 C   0  0  0  0  0  0  0  0  0  0  0  0
  -18.3233  -25.6137   19.6273 C   0  0  0  0  0  0  0  0  0  0  0  0
  -24.1256  -33.6857   23.1471 C   0  0  0  0  0  0  0  0  0  0  0  0
  -23.6109  -28.2538   18.8177 C   0  0  0  0  0  0  0  0  0  0  0  0
  -22.2406  -26.2668   20.5262 C   0  0  0  0  0  0  0  0  0  0  0  0
  -23.0866  -32.5759   23.2847 C   0  0  0  0  0  0  0  0  0  0  0  0
  -29.2857  -12.7791   17.8423 C   0  0  0  0  0  0  0  0  0  0  0  0
  -23.7667  -31.2400   23.5671 C   0  0  0  0  0  0  0  0  0  0  0  0
  -27.9150  -12.4059   18.4059 C   0  0  0  0  0  0  0  0  0  0  0  0
  -30.3598  -12.7556   18.9249 C   0  0  0  0  0  0  0  0  0  0  0  0
  -28.6722  -13.2482   20.6736 C   0  0  0  0  0  0  0  0  0  0  0  0
  -24.6937  -30.8382   22.4136 C   0  0  1  0  0  0  0  0  0  0  0  0
  -22.7272  -28.6743   19.9880 C   0  0  1  0  0  0  0  0  0  0  0  0
  -27.5563  -13.2880   19.6150 C   0  0  2  0  0  0  0  0  0  0  0  0
  -15.8783  -25.1074   19.3762 C   0  0  0  0  0  0  0  0  0  0  0  0
  -20.2618  -27.5121   23.7205 C   0  0  0  0  0  0  0  0  0  0  0  0
  -18.2073  -26.1522   23.2757 C   0  0  0  0  0  0  0  0  0  0  0  0
  -18.2374  -28.5829   22.7156 C   0  0  0  0  0  0  0  0  0  0  0  0
  -18.5610  -25.3506   16.6891 C   0  0  0  0  0  0  0  0  0  0  0  0
  -26.8200  -22.6785   18.5187 C   0  0  0  0  0  0  0  0  0  1  0  0
  -19.5651  -26.9671   21.2949 C   0  0  1  0  0  0  0  0  0  0  0  0
  -17.1200  -25.6722   18.7037 C   0  0  2  0  0  0  0  0  0  0  0  0
  -19.0925  -27.2972   22.7389 C   0  0  0  0  0  0  0  0  0  0  0  0
  -25.8062  -11.6357   20.1532 N   0  0  0  0  0  0  0  0  0  0  0  0
  -26.2067  -12.9176   20.2018 N   0  0  0  0  0  0  0  0  0  0  0  0
  -27.9134  -19.3560   19.6609 N   0  0  0  0  0  0  0  0  0  0  0  0
  -29.9717  -13.5734   20.0724 N   0  0  0  0  0  0  0  0  0  0  0  0
  -21.7530  -27.6458   20.3587 N   0  0  0  0  0  0  0  0  0  0  0  0
  -29.2529  -17.1929   23.8520 N   0  0  0  0  0  0  0  0  0  0  0  0
  -25.5528  -15.0745   20.9307 N   0  0  0  0  0  0  0  0  0  0  0  0
  -22.0664  -12.4673   22.1321 N   0  0  0  0  0  0  0  0  0  0  0  0
  -23.9241  -30.3140   21.3057 N   0  0  0  0  0  0  0  0  0  0  0  0
  -18.4792  -26.7852   20.3377 N   0  0  0  0  0  0  0  0  0  0  0  0
  -17.3805  -24.8882   17.4634 N   0  3  0  0  0  0  0  0  0  0  0  0
  -22.8718  -14.6144   22.1294 O   0  0  0  0  0  0  0  0  0  0  0  0
  -30.6939  -14.8134   22.8039 O   0  0  0  0  0  0  0  0  0  0  0  0
  -31.9511  -14.8410   20.1256 O   0  0  0  0  0  0  0  0  0  0  0  0
  -23.7387  -28.1143   22.0467 O   0  0  0  0  0  0  0  0  0  0  0  0
  -20.0196  -29.1873   20.5945 O   0  0  0  0  0  0  0  0  0  0  0  0
  -19.0499  -24.6262   19.7130 O   0  0  0  0  0  0  0  0  0  0  0  0
  -27.4895  -17.7801   17.9598 O   0  0  0  0  0  0  0  0  0  0  0  0
  -28.1236  -21.2765   21.0082 O   0  0  0  0  0  0  0  0  0  0  0  0
  -21.6227   -6.9757   21.3070 O   0  0  0  0  0  0  0  0  0  0  0  0
  -25.6418  -22.9842   19.2636 O   0  0  0  0  0  0  0  0  0  1  0  0
  -19.2372   -6.0344   26.1884 F   0  0  0  0  0  0  0  0  0  0  0  0
  -22.2459   -4.7200   22.7787 F   0  0  0  0  0  0  0  0  0  0  0  0
  -29.2899  -17.0925   19.9714 S   0  0  0  0  0  0  0  0  0  0  0  0
  1  2  1  0  0  0  0
  1  5  2  0  0  0  0
  2  6  2  0  0  0  0
  3  8  2  0  0  0  0
  3 17  1  0  0  0  0
  4  9  1  0  0  0  0
  4 17  2  0  0  0  0
  5 19  1  0  0  0  0
  6 21  1  0  0  0  0
  7 10  2  0  0  0  0
  7 20  1  0  0  0  0
  8 25  1  0  0  0  0
  9 25  2  0  0  0  0
 10 26  1  0  0  0  0
 11 12  2  0  0  0  0
 11 27  1  0  0  0  0
 12 28  1  0  0  0  0
 13 22  1  0  0  0  0
 13 26  2  0  0  0  0
 14 23  1  0  0  0  0
 14 33  2  0  0  0  0
 15 24  1  0  0  0  0
 15 35  2  0  0  0  0
 16 28  2  0  0  0  0
 16 29  1  0  0  0  0
 17 30  1  0  0  0  0
 18 30  1  0  0  0  0
 18 32  2  0  0  0  0
 18 36  1  0  0  0  0
 19 21  2  0  0  0  0
 19 42  1  0  0  0  0
 20 22  2  0  0  0  0
 20 43  1  0  0  0  0
 21 51  1  0  0  0  0
 22 44  1  0  0  0  0
 23 34  2  0  0  0  0
 23 59  1  0  0  0  0
 24 31  2  0  0  0  0
 24 68  1  0  0  0  0
 25 82  1  0  0  0  0
 26 83  1  0  0  0  0
 27 29  2  0  0  0  0
 27 82  1  0  0  0  0
 28 84  1  0  0  0  0
 29 85  1  0  0  0  0
 30 63  2  0  0  0  0
 31 37  1  0  0  0  0
 31 86  1  0  0  0  0
 32 64  1  0  0  0  0
 32 69  1  0  0  0  0
 33 65  1  0  0  0  0
 33 80  1  0  0  0  0
 34 65  1  0  0  0  0
 34 81  1  0  0  0  0
 35 65  1  0  0  0  0
 35 86  1  0  0  0  0
 36 70  1  0  0  0  0
 36 74  2  0  0  0  0
 37 38  1  0  0  0  0
 37 75  2  0  0  0  0
 38 66  1  0  0  0  0
 38 76  2  0  0  0  0
 39 52  1  0  0  0  0
 39 71  1  0  0  0  0
 39 77  2  0  0  0  0
 40 60  1  0  0  0  0
 40 67  1  0  0  0  0
 40 78  2  0  0  0  0
 41 61  1  0  0  0  0
 41 72  1  0  0  0  0
 41 79  2  0  0  0  0
 42 45  1  0  0  0  0
 43 52  1  0  0  0  0
 44 67  1  0  0  0  0
 45 47  1  0  0  0  0
 46 48  1  0  0  0  0
 46 49  1  0  0  0  0
 47 51  1  0  0  0  0
 48 53  1  0  0  0  0
 49 66  1  0  0  0  0
 50 53  1  0  0  0  0
 50 66  1  0  0  0  0
 51 71  1  0  0  0  0
 52 67  1  0  0  0  0
 53 64  1  0  0  0  0
 54 61  1  0  0  0  0
 55 62  1  0  0  0  0
 56 62  1  0  0  0  0
 57 62  1  0  0  0  0
 58 73  1  0  0  0  0
 59 83  1  0  0  0  0
 60 62  1  0  0  0  0
 60 72  1  0  0  0  0
 61 73  1  0  0  0  0
 63 64  1  0  0  0  0
M  CHG  1  73   1
M  ISO  4  37 100  38 100  59 101  83 101
M  END
> <Batch ID>
0093

> <Smiles>
CNC(C)C(=O)NC(C(=O)N1Cc2cc([101O:1][101CH2:1]C3CC(=O)N(c4cc(N)c([100C:0](=O)[100C:0](=O)N5CCCC(n6nc(-c7ccc(Oc8ccc(F)cc8F)cc7)c(C(N)=O)c6N)C5)s4)C3=O)ccc2CC1C(=O)NC1CCCc2ccccc21)C(C)(C)C

> <Shape>
0.349

> <Color>
0.155

> <Negative vol penalty>
0.000

$$$$

  -OEChem-04052300373D

 88 97  0     1  0  0  0  0  0999 V2000
  -25.8286  -38.3955   22.3492 C   0  0  0  0  0  0  0  0  0  0  0  0
  -26.5686  -37.5184   21.5626 C   0  0  0  0  0  0  0  0  0  0  0  0
  -26.8656  -19.2770   22.6987 C   0  0  0  0  0  0  0  0  0  0  0  0
  -26.7539  -17.6062   24.4402 C   0  0  0  0  0  0  0  0  0  0  0  0
  -31.9931  -19.7140   18.9017 C   0  0  0  0  0  0  0  0  0  0  0  0
  -29.6537  -19.4296   18.3692 C   0  0  0  0  0  0  0  0  0  0  0  0
  -25.1580  -37.9226   23.4764 C   0  0  0  0  0  0  0  0  0  0  0  0
  -26.6391  -36.1681   21.9033 C   0  0  0  0  0  0  0  0  0  0  0  0
  -27.1450  -29.6760   18.9179 C   0  0  0  0  0  0  0  0  0  0  0  0
  -31.6910  -20.8789   19.6068 C   0  0  0  0  0  0  0  0  0  0  0  0
  -29.3516  -20.5946   19.0744 C   0  0  0  0  0  0  0  0  0  0  0  0
  -25.7771  -19.9402   23.2652 C   0  0  0  0  0  0  0  0  0  0  0  0
  -25.6654  -18.2694   25.0067 C   0  0  0  0  0  0  0  0  0  0  0  0
  -27.9154  -28.5160   18.9866 C   0  0  0  0  0  0  0  0  0  0  0  0
  -23.2552  -22.2713   24.4573 C   0  0  0  0  0  0  0  0  0  0  0  0
  -23.3333  -23.6585   24.5803 C   0  0  0  0  0  0  0  0  0  0  0  0
  -26.6512  -27.7975   20.9113 C   0  0  0  0  0  0  0  0  0  0  0  0
  -30.1635  -24.1301   21.8915 C   0  0  0  0  0  0  0  0  0  0  0  0
  -25.2881  -23.4242   25.9806 C   0  0  0  0  0  0  0  0  0  0  0  0
  -27.3540  -18.1100   23.2862 C   0  0  0  0  0  0  0  0  0  0  0  0
  -30.9744  -18.9893   18.2829 C   0  0  0  0  0  0  0  0  0  0  0  0
  -29.8413  -17.6295   22.9860 C   0  0  0  0  0  0  0  0  0  0  0  0
  -25.2124  -36.5640   23.8257 C   0  0  0  0  0  0  0  0  0  0  0  0
  -26.1274  -29.9110   19.8536 C   0  0  0  0  0  0  0  0  0  0  0  0
  -25.9696  -35.6769   23.0370 C   0  0  0  0  0  0  0  0  0  0  0  0
  -25.8676  -28.9600   20.8508 C   0  0  0  0  0  0  0  0  0  0  0  0
  -29.0642  -24.3665   21.0297 C   0  0  0  0  0  0  0  0  0  0  0  0
  -30.3703  -21.3192   19.6932 C   0  0  0  0  0  0  0  0  0  0  0  0
  -25.1770  -19.4364   24.4192 C   0  0  0  0  0  0  0  0  0  0  0  0
  -27.6705  -27.5779   19.9851 C   0  0  0  0  0  0  0  0  0  0  0  0
  -24.1934  -21.4605   25.0960 C   0  0  0  0  0  0  0  0  0  0  0  0
  -24.3498  -24.2350   25.3419 C   0  0  0  0  0  0  0  0  0  0  0  0
  -25.2099  -22.0370   25.8577 C   0  0  0  0  0  0  0  0  0  0  0  0
  -28.4780  -17.4241   22.7012 C   0  0  0  0  0  0  0  0  0  0  0  0
  -30.4997  -16.7383   22.1744 C   0  0  0  0  0  0  0  0  0  0  0  0
  -30.7662  -22.9624   21.4787 C   0  0  0  0  0  0  0  0  0  0  0  0
  -29.0284  -23.3358   20.1165 C   0  0  0  0  0  0  0  0  0  0  0  0
  -31.2888  -17.7744   17.5478 C   0  0  0  0  0  0  0  0  0  0  0  0
  -30.4644  -16.7181   17.3804 C   0  0  0  0  0  0  0  0  0  0  0  0
  -30.4574  -18.5441   23.9024 C   0  0  0  0  0  0  0  0  0  0  0  0
  -25.5735  -32.1372   22.0538 C   0  0  0  0  0  0  0  0  0  0  0  0
  -22.7473  -30.5751   22.3621 C   0  0  0  0  0  0  0  0  0  0  0  0
  -20.9793  -27.6816   21.9767 C   0  0  0  0  0  0  0  0  0  0  0  0
  -30.2710  -14.3462   17.0154 C   0  0  0  0  0  0  0  0  0  0  0  0
  -24.5096  -36.1082   25.0799 C   0  0  0  0  0  0  0  0  0  0  0  0
  -25.2877  -31.1546   19.7498 C   0  0  0  0  0  0  0  0  0  0  0  0
  -24.7734  -29.1554   21.8672 C   0  0  0  0  0  0  0  0  0  0  0  0
  -24.3285  -34.5947   25.1607 C   0  0  0  0  0  0  0  0  0  0  0  0
  -29.2681  -12.5796   19.8241 C   0  0  0  0  0  0  0  0  0  0  0  0
  -25.6275  -33.8815   24.7991 C   0  0  0  0  0  0  0  0  0  0  0  0
  -29.0871  -13.6579   20.8914 C   0  0  0  0  0  0  0  0  0  0  0  0
  -28.7434  -13.0563   18.4751 C   0  0  0  0  0  0  0  0  0  0  0  0
  -29.2068  -15.4168   19.0553 C   0  0  0  0  0  0  0  0  0  0  0  0
  -26.0500  -34.2006   23.3600 C   0  0  1  0  0  0  0  0  0  0  0  0
  -24.6157  -31.5335   21.0659 C   0  0  1  0  0  0  0  0  0  0  0  0
  -29.7216  -14.9862   20.4443 C   0  0  1  0  0  0  0  0  0  0  0  0
  -18.7000  -26.7010   22.3520 C   0  0  0  0  0  0  0  0  0  0  0  0
  -23.3318  -30.3660   25.3495 C   0  0  0  0  0  0  0  0  0  0  0  0
  -21.5602  -28.6035   25.5018 C   0  0  0  0  0  0  0  0  0  0  0  0
  -20.9579  -30.9163   24.7869 C   0  0  0  0  0  0  0  0  0  0  0  0
  -31.8904  -15.7722   15.6775 C   0  0  0  0  0  0  0  0  0  0  0  0
  -20.6133  -27.1325   19.0917 C   0  0  0  0  0  0  0  0  0  0  0  0
  -28.1159  -25.5269   21.1035 C   0  0  0  0  0  0  0  0  0  1  0  0
  -22.2473  -29.4257   23.2034 C   0  0  1  0  0  0  0  0  0  0  0  0
  -19.6170  -27.4074   21.3656 C   0  0  2  0  0  0  0  0  0  0  0  0
  -22.0463  -29.8248   24.6926 C   0  0  0  0  0  0  0  0  0  0  0  0
  -28.2807  -16.4769   21.7805 N   0  0  0  0  0  0  0  0  0  0  0  0
  -30.0675  -22.4881   20.3992 N   0  0  0  0  0  0  0  0  0  0  0  0
  -29.5287  -16.0792   21.4796 N   0  0  0  0  0  0  0  0  0  0  0  0
  -23.9839  -30.3902   21.7277 N   0  0  0  0  0  0  0  0  0  0  0  0
  -29.3600  -14.3240   18.0830 N   0  0  0  0  0  0  0  0  0  0  0  0
  -31.8088  -16.4621   21.9943 N   0  0  0  0  0  0  0  0  0  0  0  0
  -29.6335  -19.3887   24.6588 N   0  0  0  0  0  0  0  0  0  0  0  0
  -25.2620  -33.4328   22.4198 N   0  0  0  0  0  0  0  0  0  0  0  0
  -21.0398  -28.9351   22.5480 N   0  0  0  0  0  0  0  0  0  0  0  0
  -30.8191  -15.5938   16.6644 N   0  0  0  0  0  0  0  0  0  0  0  0
  -19.7556  -26.5491   20.1552 N   0  3  0  0  0  0  0  0  0  0  0  0
  -31.7024  -18.6219   24.0342 O   0  0  0  0  0  0  0  0  0  0  0  0
  -26.5239  -31.4760   22.4555 O   0  0  0  0  0  0  0  0  0  0  0  0
  -22.0625  -31.5965   22.2654 O   0  0  0  0  0  0  0  0  0  0  0  0
  -21.8967  -26.8641   21.9533 O   0  0  0  0  0  0  0  0  0  0  0  0
  -30.5607  -13.3106   16.4009 O   0  0  0  0  0  0  0  0  0  0  0  0
  -31.8262  -22.3240   21.9599 O   0  0  0  0  0  0  0  0  0  0  0  0
  -28.1933  -23.0999   19.1110 O   0  0  0  0  0  0  0  0  0  0  0  0
  -24.1149  -20.0835   24.9723 O   0  0  0  0  0  0  0  0  0  0  0  0
  -28.4214  -26.4452   20.0548 O   0  0  0  0  0  0  0  0  0  1  0  0
  -24.4257  -25.5672   25.4586 F   0  0  0  0  0  0  0  0  0  0  0  0
  -26.1149  -21.2632   26.4726 F   0  0  0  0  0  0  0  0  0  0  0  0
  1  2  1  0  0  0  0
  1  7  2  0  0  0  0
  2  8  2  0  0  0  0
  3 12  2  0  0  0  0
  3 20  1  0  0  0  0
  4 13  1  0  0  0  0
  4 20  2  0  0  0  0
  5 10  2  0  0  0  0
  5 21  1  0  0  0  0
  6 11  1  0  0  0  0
  6 21  2  0  0  0  0
  7 23  1  0  0  0  0
  8 25  1  0  0  0  0
  9 14  2  0  0  0  0
  9 24  1  0  0  0  0
 10 28  1  0  0  0  0
 11 28  2  0  0  0  0
 12 29  1  0  0  0  0
 13 29  2  0  0  0  0
 14 30  1  0  0  0  0
 15 16  2  0  0  0  0
 15 31  1  0  0  0  0
 16 32  1  0  0  0  0
 17 26  1  0  0  0  0
 17 30  2  0  0  0  0
 18 27  1  0  0  0  0
 18 36  2  0  0  0  0
 19 32  2  0  0  0  0
 19 33  1  0  0  0  0
 20 34  1  0  0  0  0
 21 38  1  0  0  0  0
 22 34  1  0  0  0  0
 22 35  2  0  0  0  0
 22 40  1  0  0  0  0
 23 25  2  0  0  0  0
 23 45  1  0  0  0  0
 24 26  2  0  0  0  0
 24 46  1  0  0  0  0
 25 54  1  0  0  0  0
 26 47  1  0  0  0  0
 27 37  2  0  0  0  0
 27 63  1  0  0  0  0
 28 68  1  0  0  0  0
 29 85  1  0  0  0  0
 30 86  1  0  0  0  0
 31 33  2  0  0  0  0
 31 85  1  0  0  0  0
 32 87  1  0  0  0  0
 33 88  1  0  0  0  0
 34 67  2  0  0  0  0
 35 69  1  0  0  0  0
 35 72  1  0  0  0  0
 36 68  1  0  0  0  0
 36 83  1  0  0  0  0
 37 68  1  0  0  0  0
 37 84  1  0  0  0  0
 38 39  2  0  0  0  0
 39 76  1  0  0  0  0
 40 73  1  0  0  0  0
 40 78  2  0  0  0  0
 41 55  1  0  0  0  0
 41 74  1  0  0  0  0
 41 79  2  0  0  0  0
 42 64  1  0  0  0  0
 42 70  1  0  0  0  0
 42 80  2  0  0  0  0
 43 65  1  0  0  0  0
 43 75  1  0  0  0  0
 43 81  2  0  0  0  0
 44 71  1  0  0  0  0
 44 76  1  0  0  0  0
 44 82  2  0  0  0  0
 45 48  1  0  0  0  0
 46 55  1  0  0  0  0
 47 70  1  0  0  0  0
 48 50  1  0  0  0  0
 49 51  1  0  0  0  0
 49 52  1  0  0  0  0
 50 54  1  0  0  0  0
 51 56  1  0  0  0  0
 52 71  1  0  0  0  0
 53 56  1  0  0  0  0
 53 71  1  0  0  0  0
 54 74  1  0  0  0  0
 55 70  1  0  0  0  0
 56 69  1  0  0  0  0
 57 65  1  0  0  0  0
 58 66  1  0  0  0  0
 59 66  1  0  0  0  0
 60 66  1  0  0  0  0
 61 76  1  0  0  0  0
 62 77  1  0  0  0  0
 63 86  1  0  0  0  0
 64 66  1  0  0  0  0
 64 75  1  0  0  0  0
 65 77  1  0  0  0  0
 67 69  1  0  0  0  0
M  CHG  1  77   1
M  ISO  4  44 100  63 101  76 100  86 101
M  END
> <Batch ID>
0093

> <Smiles>
CNC(C)C(=O)NC(C(=O)N1Cc2cc([101O:1][101CH2:1]C3CC(=O)N(c4ccc(C=C[100N:0](C)[100C:0](=O)N5CCCC(n6nc(-c7ccc(Oc8ccc(F)cc8F)cc7)c(C(N)=O)c6N)C5)cc4)C3=O)ccc2CC1C(=O)NC1CCCc2ccccc21)C(C)(C)C

> <Shape>
0.255

> <Color>
0.066

> <Negative vol penalty>
0.000

$$$$

  -OEChem-04052300373D

 89 98  0     1  0  0  0  0  0999 V2000
  -31.3060  -13.7347   22.0500 C   0  0  0  0  0  0  0  0  0  0  0  0
  -32.0243  -14.9094   21.8506 C   0  0  0  0  0  0  0  0  0  0  0  0
  -15.9250  -22.2834   21.0370 C   0  0  0  0  0  0  0  0  0  0  0  0
  -17.1363  -22.3434   23.1266 C   0  0  0  0  0  0  0  0  0  0  0  0
  -25.5173  -29.3829   21.0748 C   0  0  0  0  0  0  0  0  0  0  0  0
  -29.9656  -13.6661   21.6727 C   0  0  0  0  0  0  0  0  0  0  0  0
  -31.4027  -16.0158   21.2727 C   0  0  0  0  0  0  0  0  0  0  0  0
  -31.4592  -23.1769   21.4513 C   0  0  0  0  0  0  0  0  0  0  0  0
  -26.4523  -28.6023   20.3951 C   0  0  0  0  0  0  0  0  0  0  0  0
  -15.2141  -21.1685   21.4811 C   0  0  0  0  0  0  0  0  0  0  0  0
  -16.4253  -21.2285   23.5707 C   0  0  0  0  0  0  0  0  0  0  0  0
  -31.5616  -24.2748   20.5981 C   0  0  0  0  0  0  0  0  0  0  0  0
  -15.7357  -17.8434   21.7905 C   0  0  0  0  0  0  0  0  0  0  0  0
  -15.5795  -16.7793   20.9023 C   0  0  0  0  0  0  0  0  0  0  0  0
  -29.2197  -24.0663   20.0585 C   0  0  0  0  0  0  0  0  0  0  0  0
  -24.6716  -27.2042   19.5513 C   0  0  0  0  0  0  0  0  0  0  0  0
  -13.1793  -17.0217   21.0341 C   0  0  0  0  0  0  0  0  0  0  0  0
  -16.8862  -22.8708   21.8597 C   0  0  0  0  0  0  0  0  0  0  0  0
  -24.1595  -29.0742   20.9928 C   0  0  0  0  0  0  0  0  0  0  0  0
  -18.4533  -24.1038   20.2686 C   0  0  0  0  0  0  0  0  0  0  0  0
  -29.3246  -14.7753   21.0987 C   0  0  0  0  0  0  0  0  0  0  0  0
  -30.2367  -22.5076   21.6063 C   0  0  0  0  0  0  0  0  0  0  0  0
  -30.0528  -15.9615   20.8861 C   0  0  0  0  0  0  0  0  0  0  0  0
  -29.1038  -22.9618   20.9162 C   0  0  0  0  0  0  0  0  0  0  0  0
  -26.0295  -27.5130   19.6333 C   0  0  0  0  0  0  0  0  0  0  0  0
  -15.4642  -20.6411   22.7479 C   0  0  0  0  0  0  0  0  0  0  0  0
  -30.4425  -24.7179   19.8993 C   0  0  0  0  0  0  0  0  0  0  0  0
  -14.6138  -18.4966   22.3006 C   0  0  0  0  0  0  0  0  0  0  0  0
  -14.3013  -16.3685   20.5241 C   0  0  0  0  0  0  0  0  0  0  0  0
  -23.7367  -27.9849   20.2310 C   0  0  0  0  0  0  0  0  0  0  0  0
  -13.3356  -18.0858   21.9224 C   0  0  0  0  0  0  0  0  0  0  0  0
  -17.6213  -24.0222   21.4013 C   0  0  0  0  0  0  0  0  0  0  0  0
  -18.9119  -25.3985   20.2721 C   0  0  0  0  0  0  0  0  0  0  0  0
  -27.5634  -25.2718   16.9342 C   0  0  0  0  0  0  0  0  0  0  0  0
  -28.3033  -26.5518   19.4318 C   0  0  0  0  0  0  0  0  0  0  0  0
  -23.1676  -29.9068   21.7207 C   0  0  0  0  0  0  0  0  0  0  0  0
  -18.7821  -23.0993   19.2999 C   0  0  0  0  0  0  0  0  0  0  0  0
  -29.2072  -19.5554   21.0335 C   0  0  0  0  0  0  0  0  0  0  0  0
  -26.5169  -20.6281   22.4942 C   0  0  0  0  0  0  0  0  0  0  0  0
  -24.5544  -23.2808   23.3656 C   0  0  0  0  0  0  0  0  0  0  0  0
  -20.9806  -29.8299   22.8761 C   0  0  0  0  0  0  0  0  0  0  0  0
  -27.8871  -14.6382   20.6636 C   0  0  0  0  0  0  0  0  0  0  0  0
  -30.1364  -21.3414   22.5510 C   0  0  0  0  0  0  0  0  0  0  0  0
  -27.7635  -22.2906   21.0633 C   0  0  0  0  0  0  0  0  0  0  0  0
  -28.9153  -25.0145   17.5298 C   0  0  0  0  0  0  0  0  0  0  0  0
  -26.5062  -25.8457   17.8439 C   0  0  0  0  0  0  0  0  0  0  0  0
  -27.1998  -15.9759   20.4016 C   0  0  0  0  0  0  0  0  0  0  0  0
  -17.4753  -29.3978   23.0282 C   0  0  0  0  0  0  0  0  0  0  0  0
  -28.0935  -16.8789   19.5575 C   0  0  0  0  0  0  0  0  0  0  0  0
  -17.2651  -27.9696   22.5179 C   0  0  0  0  0  0  0  0  0  0  0  0
  -18.7369  -29.5152   23.8823 C   0  0  0  0  0  0  0  0  0  0  0  0
  -19.7504  -27.5786   22.7507 C   0  0  0  0  0  0  0  0  0  0  0  0
  -29.4069  -17.1909   20.2850 C   0  0  1  0  0  0  0  0  0  0  0  0
  -28.9623  -20.4187   22.2387 C   0  0  1  0  0  0  0  0  0  0  0  0
  -18.5310  -27.4235   21.8276 C   0  0  1  0  0  0  0  0  0  0  0  0
  -29.3546  -26.1886   18.3814 C   0  0  1  0  0  0  0  0  0  1  0  0
  -29.6844  -27.4225   17.5357 C   0  0  0  0  0  0  0  0  0  0  0  0
  -22.3986  -23.8405   24.5216 C   0  0  0  0  0  0  0  0  0  0  0  0
  -24.9614  -19.6869   20.0438 C   0  0  0  0  0  0  0  0  0  0  0  0
  -23.0369  -21.0921   20.8121 C   0  0  0  0  0  0  0  0  0  0  0  0
  -23.8493  -19.2090   22.2323 C   0  0  0  0  0  0  0  0  0  0  0  0
  -25.9418  -24.8933   25.4232 C   0  0  0  0  0  0  0  0  0  0  0  0
  -25.2484  -21.3056   22.0347 C   0  0  1  0  0  0  0  0  0  0  0  0
  -23.9001  -23.6603   24.6818 C   0  0  2  0  0  0  0  0  0  0  0  0
  -24.2996  -20.3351   21.2762 C   0  0  0  0  0  0  0  0  0  0  0  0
  -17.5536  -25.1732   22.0754 N   0  0  0  0  0  0  0  0  0  0  0  0
  -18.3489  -25.9904   21.3643 N   0  0  0  0  0  0  0  0  0  0  0  0
  -26.9998  -26.7030   18.9281 N   0  0  0  0  0  0  0  0  0  0  0  0
  -27.7179  -21.1506   21.9939 N   0  0  0  0  0  0  0  0  0  0  0  0
  -19.8913  -28.9859   23.1539 N   0  0  0  0  0  0  0  0  0  0  0  0
  -19.7378  -26.0769   19.4475 N   0  0  0  0  0  0  0  0  0  0  0  0
  -19.9005  -22.2873   19.5327 N   0  0  0  0  0  0  0  0  0  0  0  0
  -22.0145  -29.2420   22.1388 N   0  0  0  0  0  0  0  0  0  0  0  0
  -29.1947  -18.1997   21.3008 N   0  0  0  0  0  0  0  0  0  0  0  0
  -24.6571  -21.9133   23.2219 N   0  0  0  0  0  0  0  0  0  0  0  0
  -24.4742  -24.9354   25.1969 N   0  3  0  0  0  0  0  0  0  0  0  0
  -27.2753  -24.8522   15.8126 O   0  0  0  0  0  0  0  0  0  0  0  0
  -28.6417  -26.7549   20.5999 O   0  0  0  0  0  0  0  0  0  0  0  0
  -23.4253  -31.0866   21.9429 O   0  0  0  0  0  0  0  0  0  0  0  0
  -18.1138  -22.9377   18.2508 O   0  0  0  0  0  0  0  0  0  0  0  0
  -29.3921  -20.0803   19.9418 O   0  0  0  0  0  0  0  0  0  0  0  0
  -26.4451  -19.6752   23.2742 O   0  0  0  0  0  0  0  0  0  0  0  0
  -24.9330  -24.1140   22.5453 O   0  0  0  0  0  0  0  0  0  0  0  0
  -21.0135  -31.0153   23.2211 O   0  0  0  0  0  0  0  0  0  0  0  0
  -14.7705  -19.5534   23.1817 O   0  0  0  0  0  0  0  0  0  0  0  0
  -30.5399  -25.7889   19.0654 O   0  0  0  0  0  0  0  0  0  1  0  0
  -14.1515  -15.3476   19.6699 F   0  0  0  0  0  0  0  0  0  0  0  0
  -22.4342  -27.6786   20.1454 F   0  0  0  0  0  0  0  0  0  0  0  0
  -12.2539  -18.7102   22.4081 F   0  0  0  0  0  0  0  0  0  0  0  0
  1  2  1  0  0  0  0
  1  6  2  0  0  0  0
  2  7  2  0  0  0  0
  3 10  2  0  0  0  0
  3 18  1  0  0  0  0
  4 11  1  0  0  0  0
  4 18  2  0  0  0  0
  5  9  2  0  0  0  0
  5 19  1  0  0  0  0
  6 21  1  0  0  0  0
  7 23  1  0  0  0  0
  8 12  2  0  0  0  0
  8 22  1  0  0  0  0
  9 25  1  0  0  0  0
 10 26  1  0  0  0  0
 11 26  2  0  0  0  0
 12 27  1  0  0  0  0
 13 14  2  0  0  0  0
 13 28  1  0  0  0  0
 14 29  1  0  0  0  0
 15 24  1  0  0  0  0
 15 27  2  0  0  0  0
 16 25  2  0  0  0  0
 16 30  1  0  0  0  0
 17 29  2  0  0  0  0
 17 31  1  0  0  0  0
 18 32  1  0  0  0  0
 19 30  2  0  0  0  0
 19 36  1  0  0  0  0
 20 32  1  0  0  0  0
 20 33  2  0  0  0  0
 20 37  1  0  0  0  0
 21 23  2  0  0  0  0
 21 42  1  0  0  0  0
 22 24  2  0  0  0  0
 22 43  1  0  0  0  0
 23 53  1  0  0  0  0
 24 44  1  0  0  0  0
 25 68  1  0  0  0  0
 26 85  1  0  0  0  0
 27 86  1  0  0  0  0
 28 31  2  0  0  0  0
 28 85  1  0  0  0  0
 29 87  1  0  0  0  0
 30 88  1  0  0  0  0
 31 89  1  0  0  0  0
 32 66  2  0  0  0  0
 33 67  1  0  0  0  0
 33 71  1  0  0  0  0
 34 45  1  0  0  0  0
 34 46  1  0  0  0  0
 34 77  2  0  0  0  0
 35 56  1  0  0  0  0
 35 68  1  0  0  0  0
 35 78  2  0  0  0  0
 36 73  1  0  0  0  0
 36 79  2  0  0  0  0
 37 72  1  0  0  0  0
 37 80  2  0  0  0  0
 38 54  1  0  0  0  0
 38 74  1  0  0  0  0
 38 81  2  0  0  0  0
 39 63  1  0  0  0  0
 39 69  1  0  0  0  0
 39 82  2  0  0  0  0
 40 64  1  0  0  0  0
 40 75  1  0  0  0  0
 40 83  2  0  0  0  0
 41 70  1  0  0  0  0
 41 73  1  0  0  0  0
 41 84  2  0  0  0  0
 42 47  1  0  0  0  0
 43 54  1  0  0  0  0
 44 69  1  0  0  0  0
 45 56  1  0  0  0  0
 46 68  1  0  0  0  0
 47 49  1  0  0  0  0
 48 50  1  0  0  0  0
 48 51  1  0  0  0  0
 49 53  1  0  0  0  0
 50 55  1  0  0  0  0
 51 70  1  0  0  0  0
 52 55  1  0  0  0  0
 52 70  1  0  0  0  0
 53 74  1  0  0  0  0
 54 69  1  0  0  0  0
 55 67  1  0  0  0  0
 56 57  1  0  0  0  0
 56 86  1  0  0  0  0
 58 64  1  0  0  0  0
 59 65  1  0  0  0  0
 60 65  1  0  0  0  0
 61 65  1  0  0  0  0
 62 76  1  0  0  0  0
 63 65  1  0  0  0  0
 63 75  1  0  0  0  0
 64 76  1  0  0  0  0
 66 67  1  0  0  0  0
M  CHG  1  76   1
M  ISO  4  41 100  56 101  73 100  86 101
M  END
> <Batch ID>
0093

> <Smiles>
CNC(C)C(=O)NC(C(=O)N1Cc2cc([101O:1][101C:1]3(C)CC(=O)CN(c4ccc(C(=O)[100NH:0][100C:0](=O)N5CCCC(n6nc(-c7ccc(Oc8ccc(F)cc8F)cc7)c(C(N)=O)c6N)C5)c(F)c4)C3=O)ccc2CC1C(=O)NC1CCCc2ccccc21)C(C)(C)C

> <Shape>
0.223

> <Color>
0.068

> <Negative vol penalty>
0.000

$$$$

  -OEChem-04052300373D

 84 93  0     1  0  0  0  0  0999 V2000
  -26.1688  -38.7333   20.3056 C   0  0  0  0  0  0  0  0  0  0  0  0
  -26.7793  -37.6695   19.6491 C   0  0  0  0  0  0  0  0  0  0  0  0
  -26.1357   -8.3426   22.5224 C   0  0  0  0  0  0  0  0  0  0  0  0
  -24.1263   -8.3453   21.1809 C   0  0  0  0  0  0  0  0  0  0  0  0
  -25.6064  -38.5422   21.5670 C   0  0  0  0  0  0  0  0  0  0  0  0
  -26.8286  -36.4141   20.2541 C   0  0  0  0  0  0  0  0  0  0  0  0
  -29.6111  -20.0390   17.1180 C   0  0  0  0  0  0  0  0  0  0  0  0
  -26.7231  -29.4341   18.6464 C   0  0  0  0  0  0  0  0  0  0  0  0
  -29.4103  -21.4178   17.1763 C   0  0  0  0  0  0  0  0  0  0  0  0
  -25.5380   -7.4538   23.4159 C   0  0  0  0  0  0  0  0  0  0  0  0
  -23.5286   -7.4564   22.0744 C   0  0  0  0  0  0  0  0  0  0  0  0
  -27.4457  -28.2645   18.8779 C   0  0  0  0  0  0  0  0  0  0  0  0
  -23.6243   -4.1420   22.7271 C   0  0  0  0  0  0  0  0  0  0  0  0
  -22.9298   -3.0570   22.1924 C   0  0  0  0  0  0  0  0  0  0  0  0
  -28.8737  -21.2388   19.5222 C   0  0  0  0  0  0  0  0  0  0  0  0
  -26.3709  -28.0327   21.0251 C   0  0  0  0  0  0  0  0  0  0  0  0
  -20.9072   -3.8199   23.2714 C   0  0  0  0  0  0  0  0  0  0  0  0
  -25.4298   -8.7884   21.4049 C   0  0  0  0  0  0  0  0  0  0  0  0
  -26.8069   -9.3845   19.3419 C   0  0  0  0  0  0  0  0  0  0  0  0
  -25.6404  -37.2815   22.1836 C   0  0  0  0  0  0  0  0  0  0  0  0
  -25.8256  -29.9185   19.6088 C   0  0  0  0  0  0  0  0  0  0  0  0
  -29.4397  -19.2445   18.2609 C   0  0  0  0  0  0  0  0  0  0  0  0
  -26.2673  -36.2063   21.5254 C   0  0  0  0  0  0  0  0  0  0  0  0
  -29.0841  -19.8532   19.4776 C   0  0  0  0  0  0  0  0  0  0  0  0
  -25.6363  -29.2073   20.8023 C   0  0  0  0  0  0  0  0  0  0  0  0
  -29.0393  -22.0170   18.3770 C   0  0  0  0  0  0  0  0  0  0  0  0
  -24.2345   -7.0107   23.1919 C   0  0  0  0  0  0  0  0  0  0  0  0
  -27.2718  -27.5651   20.0686 C   0  0  0  0  0  0  0  0  0  0  0  0
  -22.9603   -5.0660   23.5340 C   0  0  0  0  0  0  0  0  0  0  0  0
  -21.5713   -2.8959   22.4645 C   0  0  0  0  0  0  0  0  0  0  0  0
  -21.6018   -4.9050   23.8061 C   0  0  0  0  0  0  0  0  0  0  0  0
  -26.0465   -9.7070   20.4818 C   0  0  0  0  0  0  0  0  0  0  0  0
  -27.1621  -10.6003   18.8108 C   0  0  0  0  0  0  0  0  0  0  0  0
  -27.1605   -8.1007   18.8105 C   0  0  0  0  0  0  0  0  0  0  0  0
  -25.6134  -32.5742   21.3426 C   0  0  0  0  0  0  0  0  0  0  0  0
  -22.7736  -31.2929   22.2459 C   0  0  0  0  0  0  0  0  0  0  0  0
  -28.4590  -24.1709   19.5423 C   0  0  0  0  0  0  0  0  0  0  0  0
  -20.8509  -28.5018   22.6462 C   0  0  0  0  0  0  0  0  0  0  0  0
  -29.0009  -15.6345   19.2084 C   0  0  0  0  0  0  0  0  0  0  0  0
  -25.0607  -37.1348   23.5682 C   0  0  0  0  0  0  0  0  0  0  0  0
  -25.0339  -31.1673   19.3324 C   0  0  0  0  0  0  0  0  0  0  0  0
  -28.8726  -19.0297   20.7219 C   0  0  0  0  0  0  0  0  0  0  0  0
  -29.6812  -17.7603   18.1664 C   0  0  0  0  0  0  0  0  0  0  0  0
  -24.6699  -29.6743   21.8589 C   0  0  0  0  0  0  0  0  0  0  0  0
  -24.8245  -35.6837   23.9790 C   0  0  0  0  0  0  0  0  0  0  0  0
  -25.5688  -15.2692   19.8907 C   0  0  0  0  0  0  0  0  0  0  0  0
  -26.0440  -34.8296   23.6469 C   0  0  0  0  0  0  0  0  0  0  0  0
  -25.4445  -13.7516   20.0195 C   0  0  0  0  0  0  0  0  0  0  0  0
  -29.5281  -17.6559   20.6298 C   0  0  0  0  0  0  0  0  0  0  0  0
  -26.8505  -15.7969   20.5377 C   0  0  0  0  0  0  0  0  0  0  0  0
  -27.9579  -13.6131   20.1875 C   0  0  0  0  0  0  0  0  0  0  0  0
  -26.3190  -34.8236   22.1383 C   0  0  1  0  0  0  0  0  0  0  0  0
  -24.5277  -31.8468   20.6010 C   0  0  1  0  0  0  0  0  0  0  0  0
  -26.7085  -13.0485   19.4939 C   0  0  1  0  0  0  0  0  0  0  0  0
  -18.5866  -27.7668   23.4401 C   0  0  0  0  0  0  0  0  0  0  0  0
  -23.6734  -31.6538   25.1390 C   0  0  0  0  0  0  0  0  0  0  0  0
  -21.8550  -30.0769   25.8281 C   0  0  0  0  0  0  0  0  0  0  0  0
  -21.2780  -32.2317   24.7117 C   0  0  0  0  0  0  0  0  0  0  0  0
  -20.1466  -27.4064   19.9886 C   0  0  0  0  0  0  0  0  0  0  0  0
  -28.3406  -25.6381   19.1741 C   0  0  0  0  0  0  0  0  0  1  0  0
  -22.3201  -30.3718   23.3527 C   0  0  1  0  0  0  0  0  0  0  0  0
  -19.4191  -28.1986   22.2429 C   0  0  2  0  0  0  0  0  0  0  0  0
  -22.3013  -31.0755   24.7390 C   0  0  0  0  0  0  0  0  0  0  0  0
  -25.9254  -11.0245   20.6650 N   0  0  0  0  0  0  0  0  0  0  0  0
  -26.6145  -11.5406   19.6331 N   0  0  0  0  0  0  0  0  0  0  0  0
  -23.9238  -30.9040   21.5448 N   0  0  0  0  0  0  0  0  0  0  0  0
  -29.2354  -17.0137   19.3437 N   0  0  0  0  0  0  0  0  0  0  0  0
  -28.0247  -15.0687   20.0406 N   0  0  0  0  0  0  0  0  0  0  0  0
  -27.8863  -10.9462   17.7253 N   0  0  0  0  0  0  0  0  0  0  0  0
  -26.7126   -6.9539   19.4803 N   0  0  0  0  0  0  0  0  0  0  0  0
  -28.8320  -23.3954   18.4342 N   0  0  0  0  0  0  0  0  0  0  0  0
  -25.4001  -33.9344   21.4606 N   0  0  0  0  0  0  0  0  0  0  0  0
  -21.0278  -29.8383   22.9359 N   0  0  0  0  0  0  0  0  0  0  0  0
  -19.3867  -27.1065   21.2294 N   0  3  0  0  0  0  0  0  0  0  0  0
  -27.8668   -7.9741   17.7816 O   0  0  0  0  0  0  0  0  0  0  0  0
  -26.5728  -31.9476   21.7768 O   0  0  0  0  0  0  0  0  0  0  0  0
  -22.1269  -32.3159   22.0074 O   0  0  0  0  0  0  0  0  0  0  0  0
  -28.2426  -23.7752   20.6830 O   0  0  0  0  0  0  0  0  0  0  0  0
  -21.7241  -27.6388   22.7025 O   0  0  0  0  0  0  0  0  0  0  0  0
  -29.6308  -14.9509   18.3912 O   0  0  0  0  0  0  0  0  0  0  0  0
  -23.6511   -6.1432   24.0634 O   0  0  0  0  0  0  0  0  0  0  0  0
  -27.9836  -26.4117   20.2998 O   0  0  0  0  0  0  0  0  0  1  0  0
  -20.9041   -1.8547   21.9497 F   0  0  0  0  0  0  0  0  0  0  0  0
  -20.9582   -5.7900   24.5796 F   0  0  0  0  0  0  0  0  0  0  0  0
  1  2  1  0  0  0  0
  1  5  2  0  0  0  0
  2  6  2  0  0  0  0
  3 10  2  0  0  0  0
  3 18  1  0  0  0  0
  4 11  1  0  0  0  0
  4 18  2  0  0  0  0
  5 20  1  0  0  0  0
  6 23  1  0  0  0  0
  7  9  2  0  0  0  0
  7 22  1  0  0  0  0
  8 12  2  0  0  0  0
  8 21  1  0  0  0  0
  9 26  1  0  0  0  0
 10 27  1  0  0  0  0
 11 27  2  0  0  0  0
 12 28  1  0  0  0  0
 13 14  2  0  0  0  0
 13 29  1  0  0  0  0
 14 30  1  0  0  0  0
 15 24  1  0  0  0  0
 15 26  2  0  0  0  0
 16 25  1  0  0  0  0
 16 28  2  0  0  0  0
 17 30  2  0  0  0  0
 17 31  1  0  0  0  0
 18 32  1  0  0  0  0
 19 32  1  0  0  0  0
 19 33  2  0  0  0  0
 19 34  1  0  0  0  0
 20 23  2  0  0  0  0
 20 40  1  0  0  0  0
 21 25  2  0  0  0  0
 21 41  1  0  0  0  0
 22 24  2  0  0  0  0
 22 43  1  0  0  0  0
 23 52  1  0  0  0  0
 24 42  1  0  0  0  0
 25 44  1  0  0  0  0
 26 71  1  0  0  0  0
 27 81  1  0  0  0  0
 28 82  1  0  0  0  0
 29 31  2  0  0  0  0
 29 81  1  0  0  0  0
 30 83  1  0  0  0  0
 31 84  1  0  0  0  0
 32 64  2  0  0  0  0
 33 65  1  0  0  0  0
 33 69  1  0  0  0  0
 34 70  1  0  0  0  0
 34 75  2  0  0  0  0
 35 53  1  0  0  0  0
 35 72  1  0  0  0  0
 35 76  2  0  0  0  0
 36 61  1  0  0  0  0
 36 66  1  0  0  0  0
 36 77  2  0  0  0  0
 37 60  1  0  0  0  0
 37 71  1  0  0  0  0
 37 78  2  0  0  0  0
 38 62  1  0  0  0  0
 38 73  1  0  0  0  0
 38 79  2  0  0  0  0
 39 67  1  0  0  0  0
 39 68  1  0  0  0  0
 39 80  2  0  0  0  0
 40 45  1  0  0  0  0
 41 53  1  0  0  0  0
 42 49  1  0  0  0  0
 43 67  1  0  0  0  0
 44 66  1  0  0  0  0
 45 47  1  0  0  0  0
 46 48  1  0  0  0  0
 46 50  1  0  0  0  0
 47 52  1  0  0  0  0
 48 54  1  0  0  0  0
 49 67  1  0  0  0  0
 50 68  1  0  0  0  0
 51 54  1  0  0  0  0
 51 68  1  0  0  0  0
 52 72  1  0  0  0  0
 53 66  1  0  0  0  0
 54 65  1  0  0  0  0
 55 62  1  0  0  0  0
 56 63  1  0  0  0  0
 57 63  1  0  0  0  0
 58 63  1  0  0  0  0
 59 74  1  0  0  0  0
 60 82  1  0  0  0  0
 61 63  1  0  0  0  0
 61 73  1  0  0  0  0
 62 74  1  0  0  0  0
 64 65  1  0  0  0  0
M  CHG  1  74   1
M  ISO  4  39 100  60 101  67 100  82 101
M  END
> <Batch ID>
0093

> <Smiles>
CNC(C)C(=O)NC(C(=O)N1Cc2cc([101O:1][101CH2:1]C(=O)Nc3ccc4c(c3)CC[100N:0]([100C:0](=O)N3CCCC(n5nc(-c6ccc(Oc7ccc(F)cc7F)cc6)c(C(N)=O)c5N)C3)C4)ccc2CC1C(=O)NC1CCCc2ccccc21)C(C)(C)C

> <Shape>
0.301

> <Color>
0.062

> <Negative vol penalty>
0.000

$$$$

  -OEChem-04052300373D

 92101  0     1  0  0  0  0  0999 V2000
  -29.8510  -35.2016   19.2992 C   0  0  0  0  0  0  0  0  0  0  0  0
  -29.8371  -33.8555   19.6502 C   0  0  0  0  0  0  0  0  0  0  0  0
  -24.2910  -15.0892   19.1177 C   0  0  0  0  0  0  0  0  0  0  0  0
  -25.0849  -12.8364   18.7548 C   0  0  0  0  0  0  0  0  0  0  0  0
  -28.3316  -17.4403   20.6206 C   0  0  0  0  0  0  0  0  0  0  0  0
  -28.8931  -36.0678   19.8248 C   0  0  0  0  0  0  0  0  0  0  0  0
  -28.8659  -33.3750   20.5279 C   0  0  0  0  0  0  0  0  0  0  0  0
  -26.8257  -29.0106   18.9674 C   0  0  0  0  0  0  0  0  0  0  0  0
  -28.1920  -18.7805   20.2603 C   0  0  0  0  0  0  0  0  0  0  0  0
  -24.0657  -15.2304   17.7485 C   0  0  0  0  0  0  0  0  0  0  0  0
  -24.8595  -12.9776   17.3855 C   0  0  0  0  0  0  0  0  0  0  0  0
  -27.5721  -27.8506   19.1697 C   0  0  0  0  0  0  0  0  0  0  0  0
  -26.3959  -14.4242   14.7439 C   0  0  0  0  0  0  0  0  0  0  0  0
  -27.3916  -13.9799   13.8741 C   0  0  0  0  0  0  0  0  0  0  0  0
  -30.4821  -17.9295   21.6070 C   0  0  0  0  0  0  0  0  0  0  0  0
  -26.2466  -27.3451   21.1208 C   0  0  0  0  0  0  0  0  0  0  0  0
  -25.8308  -12.4260   12.8810 C   0  0  0  0  0  0  0  0  0  0  0  0
  -24.8007  -13.8922   19.6209 C   0  0  0  0  0  0  0  0  0  0  0  0
  -29.4767  -17.0148   21.2941 C   0  0  0  0  0  0  0  0  0  0  0  0
  -24.0835  -13.8459   22.0686 C   0  0  0  0  0  0  0  0  0  0  0  0
  -27.9038  -35.5957   20.7018 C   0  0  0  0  0  0  0  0  0  0  0  0
  -25.7894  -29.3528   19.8481 C   0  0  0  0  0  0  0  0  0  0  0  0
  -27.8947  -34.2359   21.0667 C   0  0  0  0  0  0  0  0  0  0  0  0
  -25.4868  -28.5087   20.9260 C   0  0  0  0  0  0  0  0  0  0  0  0
  -29.1975  -19.6953   20.5733 C   0  0  0  0  0  0  0  0  0  0  0  0
  -24.3499  -14.1747   16.8824 C   0  0  0  0  0  0  0  0  0  0  0  0
  -27.2845  -27.0191   20.2482 C   0  0  0  0  0  0  0  0  0  0  0  0
  -25.1176  -13.8693   14.6824 C   0  0  0  0  0  0  0  0  0  0  0  0
  -27.1091  -12.9808   12.9426 C   0  0  0  0  0  0  0  0  0  0  0  0
  -30.3426  -19.2697   21.2466 C   0  0  0  0  0  0  0  0  0  0  0  0
  -24.8350  -12.8702   13.7510 C   0  0  0  0  0  0  0  0  0  0  0  0
  -25.0342  -13.7459   21.0352 C   0  0  0  0  0  0  0  0  0  0  0  0
  -24.8024  -13.6292   23.2187 C   0  0  0  0  0  0  0  0  0  0  0  0
  -28.6940  -23.7891   19.5512 C   0  0  0  0  0  0  0  0  0  0  0  0
  -32.9620  -14.5858   17.1694 C   0  0  0  0  0  0  0  0  0  0  0  0
  -28.0143  -24.9406   19.4619 C   0  0  0  0  0  0  0  0  0  1  0  0
  -31.6821  -14.6590   17.5454 C   0  0  0  0  0  0  0  0  0  0  0  0
  -29.6251  -15.5986   21.6754 C   0  0  0  0  0  0  0  0  0  0  0  0
  -22.6763  -14.1108   21.9954 C   0  0  0  0  0  0  0  0  0  0  0  0
  -31.3163  -14.9625   18.9570 C   0  0  0  0  0  0  0  0  0  0  0  0
  -25.2225  -31.7930   21.8046 C   0  0  0  0  0  0  0  0  0  0  0  0
  -22.3606  -30.3149   22.1879 C   0  0  0  0  0  0  0  0  0  0  0  0
  -19.7205  -28.1615   22.3863 C   0  0  0  0  0  0  0  0  0  0  0  0
  -29.7728  -13.2600   20.9537 C   0  0  0  0  0  0  0  0  0  0  0  0
  -26.9181  -36.5793   21.2812 C   0  0  0  0  0  0  0  0  0  0  0  0
  -24.9762  -30.5938   19.6007 C   0  0  0  0  0  0  0  0  0  0  0  0
  -24.3713  -28.8206   21.8887 C   0  0  0  0  0  0  0  0  0  0  0  0
  -28.6924  -22.7533   18.4631 C   0  0  0  0  0  0  0  0  0  0  0  0
  -29.5052  -23.4104   20.7579 C   0  0  0  0  0  0  0  0  0  0  0  0
  -25.6956  -35.9169   21.9113 C   0  0  0  0  0  0  0  0  0  0  0  0
  -28.1258  -10.8286   22.9770 C   0  0  0  0  0  0  0  0  0  0  0  0
  -26.1189  -34.7556   22.8052 C   0  0  0  0  0  0  0  0  0  0  0  0
  -27.4102  -11.6399   24.0533 C   0  0  0  0  0  0  0  0  0  0  0  0
  -28.2799  -21.3841   19.0092 C   0  0  0  0  0  0  0  0  0  0  0  0
  -29.0809  -22.0404   21.2902 C   0  0  0  0  0  0  0  0  0  0  0  0
  -29.4679  -11.4543   22.6238 C   0  0  0  0  0  0  0  0  0  0  0  0
  -28.6265  -13.7200   23.1905 C   0  0  0  0  0  0  0  0  0  0  0  0
  -26.8422  -33.6720   21.9964 C   0  0  1  0  0  0  0  0  0  0  0  0
  -24.2787  -31.1109   20.8550 C   0  0  1  0  0  0  0  0  0  0  0  0
  -27.2945  -13.1341   23.7068 C   0  0  1  0  0  0  0  0  0  0  0  0
  -17.5038  -27.8621   23.5239 C   0  0  0  0  0  0  0  0  0  0  0  0
  -23.7921  -29.5309   24.7659 C   0  0  0  0  0  0  0  0  0  0  0  0
  -21.6958  -28.3726   25.4955 C   0  0  0  0  0  0  0  0  0  0  0  0
  -21.6844  -30.8353   25.0983 C   0  0  0  0  0  0  0  0  0  0  0  0
  -18.2679  -28.1501   19.8078 C   0  0  0  0  0  0  0  0  0  0  0  0
  -29.8345  -15.0183   19.2586 C   0  0  0  0  0  0  0  0  0  0  0  0
  -21.8180  -29.2619   23.1238 C   0  0  1  0  0  0  0  0  0  0  0  0
  -18.2230  -28.3925   22.2933 C   0  0  2  0  0  0  0  0  0  0  0  0
  -22.2602  -29.4932   24.5963 C   0  0  0  0  0  0  0  0  0  0  0  0
  -26.2634  -13.4861   21.4887 N   0  0  0  0  0  0  0  0  0  0  0  0
  -26.0900  -13.4211   22.8198 N   0  0  0  0  0  0  0  0  0  0  0  0
  -29.0554  -21.0403   20.2097 N   0  0  0  0  0  0  0  0  0  0  0  0
  -23.6090  -30.0485   21.6081 N   0  0  0  0  0  0  0  0  0  0  0  0
  -29.3169  -12.8524   22.2233 N   0  0  0  0  0  0  0  0  0  0  0  0
  -24.4525  -13.5983   24.5221 N   0  0  0  0  0  0  0  0  0  0  0  0
  -21.7976  -13.0258   21.8731 N   0  0  0  0  0  0  0  0  0  0  0  0
  -25.8890  -32.8725   21.2570 N   0  0  0  0  0  0  0  0  0  0  0  0
  -20.3722  -29.2487   22.9291 N   0  0  0  0  0  0  0  0  0  0  0  0
  -29.6177  -14.6289   20.6527 N   0  0  0  0  0  0  0  0  0  0  0  0
  -17.6668  -27.7076   21.0922 N   0  3  0  0  0  0  0  0  0  0  0  0
  -29.7608  -15.3620   22.8755 O   0  0  0  0  0  0  0  0  0  0  0  0
  -22.2129  -15.2762   22.0208 O   0  0  0  0  0  0  0  0  0  0  0  0
  -32.1707  -15.1950   19.8093 O   0  0  0  0  0  0  0  0  0  0  0  0
  -25.3365  -31.3719   22.9498 O   0  0  0  0  0  0  0  0  0  0  0  0
  -21.6977  -31.3329   21.9736 O   0  0  0  0  0  0  0  0  0  0  0  0
  -20.2578  -27.1193   22.0181 O   0  0  0  0  0  0  0  0  0  0  0  0
  -30.3011  -12.4803   20.1529 O   0  0  0  0  0  0  0  0  0  0  0  0
  -24.1299  -14.3120   15.5462 O   0  0  0  0  0  0  0  0  0  0  0  0
  -28.0119  -25.8865   20.4483 O   0  0  0  0  0  0  0  0  0  1  0  0
  -28.0650  -12.5554   12.1063 F   0  0  0  0  0  0  0  0  0  0  0  0
  -31.3153  -20.1402   21.5524 F   0  0  0  0  0  0  0  0  0  0  0  0
  -23.6085  -12.3342   13.6863 F   0  0  0  0  0  0  0  0  0  0  0  0
  1  2  1  0  0  0  0
  1  6  2  0  0  0  0
  2  7  2  0  0  0  0
  3 10  2  0  0  0  0
  3 18  1  0  0  0  0
  4 11  1  0  0  0  0
  4 18  2  0  0  0  0
  5  9  2  0  0  0  0
  5 19  1  0  0  0  0
  6 21  1  0  0  0  0
  7 23  1  0  0  0  0
  8 12  2  0  0  0  0
  8 22  1  0  0  0  0
  9 25  1  0  0  0  0
 10 26  1  0  0  0  0
 11 26  2  0  0  0  0
 12 27  1  0  0  0  0
 13 14  2  0  0  0  0
 13 28  1  0  0  0  0
 14 29  1  0  0  0  0
 15 19  2  0  0  0  0
 15 30  1  0  0  0  0
 16 24  1  0  0  0  0
 16 27  2  0  0  0  0
 17 29  2  0  0  0  0
 17 31  1  0  0  0  0
 18 32  1  0  0  0  0
 19 38  1  0  0  0  0
 20 32  1  0  0  0  0
 20 33  2  0  0  0  0
 20 39  1  0  0  0  0
 21 23  2  0  0  0  0
 21 45  1  0  0  0  0
 22 24  2  0  0  0  0
 22 46  1  0  0  0  0
 23 58  1  0  0  0  0
 24 47  1  0  0  0  0
 25 30  2  0  0  0  0
 25 72  1  0  0  0  0
 26 88  1  0  0  0  0
 27 89  1  0  0  0  0
 28 31  2  0  0  0  0
 28 88  1  0  0  0  0
 29 90  1  0  0  0  0
 30 91  1  0  0  0  0
 31 92  1  0  0  0  0
 32 70  2  0  0  0  0
 33 71  1  0  0  0  0
 33 75  1  0  0  0  0
 34 36  2  0  0  0  0
 34 48  1  0  0  0  0
 34 49  1  0  0  0  0
 35 37  2  0  0  0  0
 36 89  1  0  0  0  0
 37 40  1  0  0  0  0
 38 79  1  0  0  0  0
 38 81  2  0  0  0  0
 39 76  1  0  0  0  0
 39 82  2  0  0  0  0
 40 66  1  0  0  0  0
 40 83  2  0  0  0  0
 41 59  1  0  0  0  0
 41 77  1  0  0  0  0
 41 84  2  0  0  0  0
 42 67  1  0  0  0  0
 42 73  1  0  0  0  0
 42 85  2  0  0  0  0
 43 68  1  0  0  0  0
 43 78  1  0  0  0  0
 43 86  2  0  0  0  0
 44 74  1  0  0  0  0
 44 79  1  0  0  0  0
 44 87  2  0  0  0  0
 45 50  1  0  0  0  0
 46 59  1  0  0  0  0
 47 73  1  0  0  0  0
 48 54  1  0  0  0  0
 49 55  1  0  0  0  0
 50 52  1  0  0  0  0
 51 53  1  0  0  0  0
 51 56  1  0  0  0  0
 52 58  1  0  0  0  0
 53 60  1  0  0  0  0
 54 72  1  0  0  0  0
 55 72  1  0  0  0  0
 56 74  1  0  0  0  0
 57 60  1  0  0  0  0
 57 74  1  0  0  0  0
 58 77  1  0  0  0  0
 59 73  1  0  0  0  0
 60 71  1  0  0  0  0
 61 68  1  0  0  0  0
 62 69  1  0  0  0  0
 63 69  1  0  0  0  0
 64 69  1  0  0  0  0
 65 80  1  0  0  0  0
 66 79  1  0  0  0  0
 67 69  1  0  0  0  0
 67 78  1  0  0  0  0
 68 80  1  0  0  0  0
 70 71  1  0  0  0  0
M  CHG  1  80   1
M  ISO  4  36 101  44 100  79 100  89 101
M  END
> <Batch ID>
0093

> <Smiles>
C=CC(=O)C[100N:0](C(=O)c1ccc(N2CCC(=[101CH:1][101O:1]c3ccc4c(c3)CN(C(=O)C(NC(=O)C(C)NC)C(C)(C)C)C(C(=O)NC3CCCc5ccccc53)C4)CC2)c(F)c1)[100C:0](=O)N1CCCC(n2nc(-c3ccc(Oc4ccc(F)cc4F)cc3)c(C(N)=O)c2N)C1

> <Shape>
0.264

> <Color>
0.073

> <Negative vol penalty>
0.000

$$$$

  -OEChem-04052300373D

 84 92  0     1  0  0  0  0  0999 V2000
  -21.3450  -30.5733   14.4951 C   0  0  0  0  0  0  0  0  0  0  0  0
  -22.5418  -30.0852   15.0097 C   0  0  0  0  0  0  0  0  0  0  0  0
  -23.9661   -9.6591   21.9455 C   0  0  0  0  0  0  0  0  0  0  0  0
  -24.6504  -11.0868   23.7704 C   0  0  0  0  0  0  0  0  0  0  0  0
  -31.0727  -19.9716   19.6413 C   0  0  0  0  0  0  0  0  0  0  0  0
  -20.8005  -31.7535   14.9995 C   0  0  0  0  0  0  0  0  0  0  0  0
  -23.1954  -30.7777   16.0284 C   0  0  0  0  0  0  0  0  0  0  0  0
  -24.8375  -27.7179   19.7143 C   0  0  0  0  0  0  0  0  0  0  0  0
  -30.7594  -18.6300   19.4237 C   0  0  0  0  0  0  0  0  0  0  0  0
  -23.5545   -8.6887   22.8589 C   0  0  0  0  0  0  0  0  0  0  0  0
  -24.2388  -10.1164   24.6839 C   0  0  0  0  0  0  0  0  0  0  0  0
  -26.0032  -26.9937   19.4686 C   0  0  0  0  0  0  0  0  0  0  0  0
  -20.9003   -8.1362   24.8795 C   0  0  0  0  0  0  0  0  0  0  0  0
  -19.6638   -7.5273   24.6654 C   0  0  0  0  0  0  0  0  0  0  0  0
  -28.7309  -20.4647   19.9728 C   0  0  0  0  0  0  0  0  0  0  0  0
  -27.2653  -28.6027   20.7481 C   0  0  0  0  0  0  0  0  0  0  0  0
  -20.7510   -5.3757   24.5049 C   0  0  0  0  0  0  0  0  0  0  0  0
  -24.5141  -10.8582   22.4012 C   0  0  0  0  0  0  0  0  0  0  0  0
  -30.0584  -20.8890   19.9159 C   0  0  0  0  0  0  0  0  0  0  0  0
  -24.1675  -12.9107   20.9266 C   0  0  0  0  0  0  0  0  0  0  0  0
  -21.4427  -32.4557   16.0316 C   0  0  0  0  0  0  0  0  0  0  0  0
  -24.8787  -28.8978   20.4709 C   0  0  0  0  0  0  0  0  0  0  0  0
  -22.6596  -31.9692   16.5462 C   0  0  0  0  0  0  0  0  0  0  0  0
  -26.0983  -29.3386   21.0042 C   0  0  0  0  0  0  0  0  0  0  0  0
  -29.4319  -18.2056   19.4805 C   0  0  0  0  0  0  0  0  0  0  0  0
  -23.6908   -8.9173   24.2282 C   0  0  0  0  0  0  0  0  0  0  0  0
  -27.2178  -27.4376   19.9831 C   0  0  0  0  0  0  0  0  0  0  0  0
  -22.0622   -7.3649   24.9063 C   0  0  0  0  0  0  0  0  0  0  0  0
  -19.5891   -6.1471   24.4781 C   0  0  0  0  0  0  0  0  0  0  0  0
  -28.4176  -19.1230   19.7551 C   0  0  0  0  0  0  0  0  0  0  0  0
  -21.9876   -5.9846   24.7190 C   0  0  0  0  0  0  0  0  0  0  0  0
  -24.9401  -11.8608   21.4581 C   0  0  0  0  0  0  0  0  0  0  0  0
  -25.0252  -13.5764   20.0854 C   0  0  0  0  0  0  0  0  0  0  0  0
  -30.3921  -22.3175   20.1475 C   0  0  0  0  0  0  0  0  0  0  0  0
  -22.7971  -13.2538   21.1716 C   0  0  0  0  0  0  0  0  0  0  0  0
  -24.2044  -31.9517   19.9027 C   0  0  0  0  0  0  0  0  0  0  0  0
  -24.7736  -32.2646   23.0808 C   0  0  0  0  0  0  0  0  0  0  0  0
  -29.4895  -24.6115   20.0116 C   0  0  0  0  0  0  0  0  0  0  0  0
  -26.3024  -31.0573   25.8830 C   0  0  0  0  0  0  0  0  0  0  0  0
  -30.0051  -15.8054   18.9739 C   0  0  0  0  0  0  0  0  0  0  0  0
  -20.8401  -33.7521   16.5120 C   0  0  0  0  0  0  0  0  0  0  0  0
  -23.6082  -29.6531   20.7495 C   0  0  0  0  0  0  0  0  0  0  0  0
  -26.1931  -30.5881   21.8398 C   0  0  0  0  0  0  0  0  0  0  0  0
  -21.4024  -34.2265   17.8495 C   0  0  0  0  0  0  0  0  0  0  0  0
  -29.6273  -12.3120   18.3991 C   0  0  0  0  0  0  0  0  0  0  0  0
  -22.9247  -34.1296   17.8530 C   0  0  0  0  0  0  0  0  0  0  0  0
  -28.3106  -11.9695   19.0999 C   0  0  0  0  0  0  0  0  0  0  0  0
  -30.4232  -13.3637   19.1698 C   0  0  0  0  0  0  0  0  0  0  0  0
  -28.3647  -14.2461   20.1959 C   0  0  0  0  0  0  0  0  0  0  0  0
  -23.3856  -32.6787   17.6685 C   0  0  1  0  0  0  0  0  0  0  0  0
  -23.8487  -31.1180   21.1011 C   0  0  1  0  0  0  0  0  0  0  0  0
  -27.4978  -13.2385   19.4234 C   0  0  2  0  0  0  0  0  0  0  0  0
  -26.6142  -31.5492   28.3239 C   0  0  0  0  0  0  0  0  0  0  0  0
  -26.7648  -34.4678   22.3800 C   0  0  0  0  0  0  0  0  0  0  0  0
  -27.7095  -34.2522   24.6885 C   0  0  0  0  0  0  0  0  0  0  0  0
  -25.3351  -34.9496   24.3745 C   0  0  0  0  0  0  0  0  0  0  0  0
  -25.0225  -28.5103   26.6786 C   0  0  0  0  0  0  0  0  0  0  0  0
  -28.2252  -25.3220   19.5761 C   0  0  0  0  0  0  0  0  0  1  0  0
  -25.9917  -32.5497   23.9257 C   0  0  1  0  0  0  0  0  0  0  0  0
  -25.7818  -30.8106   27.2874 C   0  0  2  0  0  0  0  0  0  0  0  0
  -26.4491  -34.0323   23.8249 C   0  0  0  0  0  0  0  0  0  0  0  0
  -26.1922  -11.8555   20.9933 N   0  0  0  0  0  0  0  0  0  0  0  0
  -26.2130  -12.9104   20.1609 N   0  0  0  0  0  0  0  0  0  0  0  0
  -24.9241  -31.2953   22.0790 N   0  0  0  0  0  0  0  0  0  0  0  0
  -29.5906  -14.5386   19.4367 N   0  0  0  0  0  0  0  0  0  0  0  0
  -24.8716  -14.6606   19.2958 N   0  0  0  0  0  0  0  0  0  0  0  0
  -22.0600  -12.4641   22.0647 N   0  0  0  0  0  0  0  0  0  0  0  0
  -29.1169  -16.8421   19.2584 N   0  0  0  0  0  0  0  0  0  0  0  0
  -29.3857  -23.2305   19.8371 N   0  0  0  0  0  0  0  0  0  0  0  0
  -23.2465  -31.9428   18.9068 N   0  0  0  0  0  0  0  0  0  0  0  0
  -25.6600  -32.1175   25.2791 N   0  0  0  0  0  0  0  0  0  0  0  0
  -25.8190  -29.3551   27.6053 N   0  3  0  0  0  0  0  0  0  0  0  0
  -31.4918  -22.6071   20.6110 O   0  0  0  0  0  0  0  0  0  0  0  0
  -22.2379  -14.2217   20.6024 O   0  0  0  0  0  0  0  0  0  0  0  0
  -25.2685  -32.5592   19.8836 O   0  0  0  0  0  0  0  0  0  0  0  0
  -23.7252  -32.8742   23.3062 O   0  0  0  0  0  0  0  0  0  0  0  0
  -30.4669  -25.2070   20.4562 O   0  0  0  0  0  0  0  0  0  0  0  0
  -27.1927  -30.3799   25.3740 O   0  0  0  0  0  0  0  0  0  0  0  0
  -31.0564  -15.9548   18.3459 O   0  0  0  0  0  0  0  0  0  0  0  0
  -23.2890   -7.9707   25.1198 O   0  0  0  0  0  0  0  0  0  0  0  0
  -28.3573  -26.7330   19.7442 O   0  0  0  0  0  0  0  0  0  1  0  0
  -18.4014   -5.5624   24.2739 F   0  0  0  0  0  0  0  0  0  0  0  0
  -27.1378  -18.7268   19.8117 F   0  0  0  0  0  0  0  0  0  0  0  0
  -23.1002   -5.2382   24.7449 F   0  0  0  0  0  0  0  0  0  0  0  0
  1  2  1  0  0  0  0
  1  6  2  0  0  0  0
  2  7  2  0  0  0  0
  3 10  2  0  0  0  0
  3 18  1  0  0  0  0
  4 11  1  0  0  0  0
  4 18  2  0  0  0  0
  5  9  2  0  0  0  0
  5 19  1  0  0  0  0
  6 21  1  0  0  0  0
  7 23  1  0  0  0  0
  8 12  2  0  0  0  0
  8 22  1  0  0  0  0
  9 25  1  0  0  0  0
 10 26  1  0  0  0  0
 11 26  2  0  0  0  0
 12 27  1  0  0  0  0
 13 14  2  0  0  0  0
 13 28  1  0  0  0  0
 14 29  1  0  0  0  0
 15 19  2  0  0  0  0
 15 30  1  0  0  0  0
 16 24  1  0  0  0  0
 16 27  2  0  0  0  0
 17 29  2  0  0  0  0
 17 31  1  0  0  0  0
 18 32  1  0  0  0  0
 19 34  1  0  0  0  0
 20 32  1  0  0  0  0
 20 33  2  0  0  0  0
 20 35  1  0  0  0  0
 21 23  2  0  0  0  0
 21 41  1  0  0  0  0
 22 24  2  0  0  0  0
 22 42  1  0  0  0  0
 23 50  1  0  0  0  0
 24 43  1  0  0  0  0
 25 30  2  0  0  0  0
 25 68  1  0  0  0  0
 26 80  1  0  0  0  0
 27 81  1  0  0  0  0
 28 31  2  0  0  0  0
 28 80  1  0  0  0  0
 29 82  1  0  0  0  0
 30 83  1  0  0  0  0
 31 84  1  0  0  0  0
 32 62  2  0  0  0  0
 33 63  1  0  0  0  0
 33 66  1  0  0  0  0
 34 69  1  0  0  0  0
 34 73  2  0  0  0  0
 35 67  1  0  0  0  0
 35 74  2  0  0  0  0
 36 51  1  0  0  0  0
 36 70  1  0  0  0  0
 36 75  2  0  0  0  0
 37 59  1  0  0  0  0
 37 64  1  0  0  0  0
 37 76  2  0  0  0  0
 38 58  1  0  0  0  0
 38 69  1  0  0  0  0
 38 77  2  0  0  0  0
 39 60  1  0  0  0  0
 39 71  1  0  0  0  0
 39 78  2  0  0  0  0
 40 65  1  0  0  0  0
 40 68  1  0  0  0  0
 40 79  2  0  0  0  0
 41 44  1  0  0  0  0
 42 51  1  0  0  0  0
 43 64  1  0  0  0  0
 44 46  1  0  0  0  0
 45 47  1  0  0  0  0
 45 48  1  0  0  0  0
 46 50  1  0  0  0  0
 47 52  1  0  0  0  0
 48 65  1  0  0  0  0
 49 52  1  0  0  0  0
 49 65  1  0  0  0  0
 50 70  1  0  0  0  0
 51 64  1  0  0  0  0
 52 63  1  0  0  0  0
 53 60  1  0  0  0  0
 54 61  1  0  0  0  0
 55 61  1  0  0  0  0
 56 61  1  0  0  0  0
 57 72  1  0  0  0  0
 58 81  1  0  0  0  0
 59 61  1  0  0  0  0
 59 71  1  0  0  0  0
 60 72  1  0  0  0  0
 62 63  1  0  0  0  0
M  CHG  1  72   1
M  ISO  4  40 100  58 101  68 100  81 101
M  END
> <Batch ID>
0093

> <Smiles>
CNC(C)C(=O)NC(C(=O)N1Cc2cc([101O:1][101CH2:1]C(=O)NC(=O)c3ccc([100NH:0][100C:0](=O)N4CCCC(n5nc(-c6ccc(Oc7ccc(F)cc7F)cc6)c(C(N)=O)c5N)C4)c(F)c3)ccc2CC1C(=O)NC1CCCc2ccccc21)C(C)(C)C

> <Shape>
0.333

> <Color>
0.168

> <Negative vol penalty>
0.000

$$$$

  -OEChem-04052300373D

 85 93  0     1  0  0  0  0  0999 V2000
  -30.6604  -20.6645   22.2078 C   0  0  0  0  0  0  0  0  0  0  0  0
  -29.4628  -20.7614   21.5065 C   0  0  0  0  0  0  0  0  0  0  0  0
  -22.2712  -28.5941   21.8903 C   0  0  0  0  0  0  0  0  0  0  0  0
  -23.2136  -30.4712   23.0842 C   0  0  0  0  0  0  0  0  0  0  0  0
  -26.0689  -23.9026   17.7685 C   0  0  0  0  0  0  0  0  0  0  0  0
  -31.1824  -19.4109   22.5240 C   0  0  0  0  0  0  0  0  0  0  0  0
  -28.7870  -19.6045   21.1201 C   0  0  0  0  0  0  0  0  0  0  0  0
  -23.8103  -19.8701   22.0187 C   0  0  0  0  0  0  0  0  0  0  0  0
  -21.2125  -28.5487   22.7974 C   0  0  0  0  0  0  0  0  0  0  0  0
  -22.1549  -30.4258   23.9913 C   0  0  0  0  0  0  0  0  0  0  0  0
  -24.8727  -23.3801   17.2768 C   0  0  0  0  0  0  0  0  0  0  0  0
  -23.0402  -20.6106   21.1230 C   0  0  0  0  0  0  0  0  0  0  0  0
  -18.3278  -30.2254   23.3449 C   0  0  0  0  0  0  0  0  0  0  0  0
  -17.0397  -30.0770   22.8309 C   0  0  0  0  0  0  0  0  0  0  0  0
  -22.3592  -18.5702   20.0310 C   0  0  0  0  0  0  0  0  0  0  0  0
  -16.7809  -28.0209   24.0729 C   0  0  0  0  0  0  0  0  0  0  0  0
  -23.2718  -29.5553   22.0338 C   0  0  0  0  0  0  0  0  0  0  0  0
  -27.1445  -23.0544   18.0319 C   0  0  0  0  0  0  0  0  0  0  0  0
  -24.4267  -30.3355   19.8972 C   0  0  0  0  0  0  0  0  0  0  0  0
  -30.5077  -18.2382   22.1496 C   0  0  0  0  0  0  0  0  0  0  0  0
  -23.8695  -18.4725   21.9204 C   0  0  0  0  0  0  0  0  0  0  0  0
  -29.3011  -18.3340   21.4303 C   0  0  0  0  0  0  0  0  0  0  0  0
  -23.1288  -17.8141   20.9283 C   0  0  0  0  0  0  0  0  0  0  0  0
  -25.8276  -21.1611   17.3119 C   0  0  0  0  0  0  0  0  0  0  0  0
  -21.1544  -29.4645   23.8478 C   0  0  0  0  0  0  0  0  0  0  0  0
  -22.3168  -19.9609   20.1272 C   0  0  0  0  0  0  0  0  0  0  0  0
  -24.7521  -22.0094   17.0485 C   0  0  0  0  0  0  0  0  0  0  0  0
  -18.8426  -29.2715   24.2229 C   0  0  0  0  0  0  0  0  0  0  0  0
  -16.2662  -28.9748   23.1949 C   0  0  0  0  0  0  0  0  0  0  0  0
  -18.0691  -28.1693   24.5869 C   0  0  0  0  0  0  0  0  0  0  0  0
  -27.0238  -21.6836   17.8036 C   0  0  0  0  0  0  0  0  0  0  0  0
  -24.3659  -29.6024   21.0974 C   0  0  0  0  0  0  0  0  0  0  0  0
  -25.6651  -30.0442   19.3793 C   0  0  0  0  0  0  0  0  0  0  0  0
  -28.4178  -23.6166   18.5510 C   0  0  0  0  0  0  0  0  0  0  0  0
  -23.4511  -31.2023   19.3035 C   0  0  0  0  0  0  0  0  0  0  0  0
  -26.1795  -16.3578   21.3767 C   0  0  0  0  0  0  0  0  0  0  0  0
  -23.8297  -14.2124   22.0076 C   0  0  0  0  0  0  0  0  0  0  0  0
  -20.4893  -13.5208   22.1110 C   0  0  0  0  0  0  0  0  0  0  0  0
  -29.3622  -25.4251   19.9513 C   0  0  0  0  0  0  0  0  0  0  0  0
  -31.1350  -16.9052   22.4725 C   0  0  0  0  0  0  0  0  0  0  0  0
  -24.6837  -17.6862   22.9109 C   0  0  0  0  0  0  0  0  0  0  0  0
  -23.1425  -16.3141   20.7928 C   0  0  0  0  0  0  0  0  0  0  0  0
  -30.1664  -15.7314   22.3535 C   0  0  0  0  0  0  0  0  0  0  0  0
  -30.0913  -28.7953   20.7307 C   0  0  0  0  0  0  0  0  0  0  0  0
  -29.3722  -15.8242   21.0545 C   0  0  0  0  0  0  0  0  0  0  0  0
  -28.7127  -29.4588   20.7892 C   0  0  0  0  0  0  0  0  0  0  0  0
  -30.0645  -27.3796   21.3051 C   0  0  0  0  0  0  0  0  0  0  0  0
  -27.6663  -27.1590   20.7971 C   0  0  0  0  0  0  0  0  0  0  0  0
  -28.5259  -17.1024   21.0153 C   0  0  1  0  0  0  0  0  0  0  0  0
  -25.0782  -16.3049   22.3975 C   0  0  1  0  0  0  0  0  0  0  0  0
  -27.6255  -28.5602   20.1662 C   0  0  1  0  0  0  0  0  0  0  0  0
  -18.8760  -11.6701   22.6298 C   0  0  0  0  0  0  0  0  0  0  0  0
  -24.4940  -12.8888   19.3399 C   0  0  0  0  0  0  0  0  0  0  0  0
  -22.2989  -11.6913   19.4668 C   0  0  0  0  0  0  0  0  0  0  0  0
  -24.0374  -11.2934   21.2109 C   0  0  0  0  0  0  0  0  0  0  0  0
  -19.2338  -15.0713   24.2970 C   0  0  0  0  0  0  0  0  0  0  0  0
  -21.2031  -21.2654   16.9382 C   0  0  0  0  0  0  0  0  0  0  0  0
  -21.3954  -20.1394   17.9420 C   0  0  0  0  0  0  0  0  0  1  0  0
  -22.3867  -22.2199   16.9203 C   0  0  0  0  0  0  0  0  0  0  0  0
  -22.7900  -13.4923   21.1833 C   0  0  1  0  0  0  0  0  0  0  0  0
  -19.6275  -12.8725   23.1794 C   0  0  2  0  0  0  0  0  0  0  0  0
  -23.4061  -12.3698   20.3013 C   0  0  0  0  0  0  0  0  0  0  0  0
  -25.4771  -28.8982   21.3284 N   0  0  0  0  0  0  0  0  0  0  0  0
  -26.2479  -29.1875   20.2661 N   0  0  0  0  0  0  0  0  0  0  0  0
  -23.9587  -15.5900   21.7812 N   0  0  0  0  0  0  0  0  0  0  0  0
  -29.0155  -26.5909   20.6564 N   0  0  0  0  0  0  0  0  0  0  0  0
  -25.7168  -19.7720   17.0835 N   0  0  0  0  0  0  0  0  0  0  0  0
  -26.3013  -30.4399   18.2564 N   0  0  0  0  0  0  0  0  0  0  0  0
  -22.2318  -31.3906   19.9685 N   0  0  0  0  0  0  0  0  0  0  0  0
  -28.2944  -24.7662   19.3318 N   0  0  0  0  0  0  0  0  0  0  0  0
  -27.3417  -16.9497   21.8331 N   0  0  0  0  0  0  0  0  0  0  0  0
  -21.7760  -13.0253   22.1226 N   0  0  0  0  0  0  0  0  0  0  0  0
  -18.6319  -13.8490   23.7048 N   0  3  0  0  0  0  0  0  0  0  0  0
  -29.4717  -23.0359   18.3063 O   0  0  0  0  0  0  0  0  0  0  0  0
  -23.6481  -31.7796   18.2074 O   0  0  0  0  0  0  0  0  0  0  0  0
  -25.9894  -15.8944   20.2583 O   0  0  0  0  0  0  0  0  0  0  0  0
  -24.4976  -13.5772   22.8274 O   0  0  0  0  0  0  0  0  0  0  0  0
  -20.0627  -14.3782   21.3406 O   0  0  0  0  0  0  0  0  0  0  0  0
  -30.5265  -25.0261   19.8497 O   0  0  0  0  0  0  0  0  0  0  0  0
  -20.1213  -29.4207   24.7330 O   0  0  0  0  0  0  0  0  0  0  0  0
  -21.5648  -20.6813   19.2512 O   0  0  0  0  0  0  0  0  0  1  0  0
  -23.5687  -21.5158   16.5641 O   0  0  0  0  0  0  0  0  0  0  0  0
  -15.0286  -28.8332   22.7024 F   0  0  0  0  0  0  0  0  0  0  0  0
  -18.5578  -27.2502   25.4309 F   0  0  0  0  0  0  0  0  0  0  0  0
  -28.0593  -20.8682   18.0553 F   0  0  0  0  0  0  0  0  0  0  0  0
  1  2  1  0  0  0  0
  1  6  2  0  0  0  0
  2  7  2  0  0  0  0
  3  9  2  0  0  0  0
  3 17  1  0  0  0  0
  4 10  1  0  0  0  0
  4 17  2  0  0  0  0
  5 11  2  0  0  0  0
  5 18  1  0  0  0  0
  6 20  1  0  0  0  0
  7 22  1  0  0  0  0
  8 12  2  0  0  0  0
  8 21  1  0  0  0  0
  9 25  1  0  0  0  0
 10 25  2  0  0  0  0
 11 27  1  0  0  0  0
 12 26  1  0  0  0  0
 13 14  2  0  0  0  0
 13 28  1  0  0  0  0
 14 29  1  0  0  0  0
 15 23  1  0  0  0  0
 15 26  2  0  0  0  0
 16 29  2  0  0  0  0
 16 30  1  0  0  0  0
 17 32  1  0  0  0  0
 18 31  2  0  0  0  0
 18 34  1  0  0  0  0
 19 32  1  0  0  0  0
 19 33  2  0  0  0  0
 19 35  1  0  0  0  0
 20 22  2  0  0  0  0
 20 40  1  0  0  0  0
 21 23  2  0  0  0  0
 21 41  1  0  0  0  0
 22 49  1  0  0  0  0
 23 42  1  0  0  0  0
 24 27  2  0  0  0  0
 24 31  1  0  0  0  0
 24 67  1  0  0  0  0
 25 80  1  0  0  0  0
 26 81  1  0  0  0  0
 27 82  1  0  0  0  0
 28 30  2  0  0  0  0
 28 80  1  0  0  0  0
 29 83  1  0  0  0  0
 30 84  1  0  0  0  0
 31 85  1  0  0  0  0
 32 63  2  0  0  0  0
 33 64  1  0  0  0  0
 33 68  1  0  0  0  0
 34 70  1  0  0  0  0
 34 74  2  0  0  0  0
 35 69  1  0  0  0  0
 35 75  2  0  0  0  0
 36 50  1  0  0  0  0
 36 71  1  0  0  0  0
 36 76  2  0  0  0  0
 37 60  1  0  0  0  0
 37 65  1  0  0  0  0
 37 77  2  0  0  0  0
 38 61  1  0  0  0  0
 38 72  1  0  0  0  0
 38 78  2  0  0  0  0
 39 66  1  0  0  0  0
 39 70  1  0  0  0  0
 39 79  2  0  0  0  0
 40 43  1  0  0  0  0
 41 50  1  0  0  0  0
 42 65  1  0  0  0  0
 43 45  1  0  0  0  0
 44 46  1  0  0  0  0
 44 47  1  0  0  0  0
 45 49  1  0  0  0  0
 46 51  1  0  0  0  0
 47 66  1  0  0  0  0
 48 51  1  0  0  0  0
 48 66  1  0  0  0  0
 49 71  1  0  0  0  0
 50 65  1  0  0  0  0
 51 64  1  0  0  0  0
 52 61  1  0  0  0  0
 53 62  1  0  0  0  0
 54 62  1  0  0  0  0
 55 62  1  0  0  0  0
 56 73  1  0  0  0  0
 57 58  1  0  0  0  0
 57 59  1  0  0  0  0
 58 81  1  0  0  0  0
 59 82  1  0  0  0  0
 60 62  1  0  0  0  0
 60 72  1  0  0  0  0
 61 73  1  0  0  0  0
 63 64  1  0  0  0  0
M  CHG  1  73   1
M  ISO  4  39 100  58 101  70 100  81 101
M  END
> <Batch ID>
0093

> <Smiles>
CNC(C)C(=O)NC(C(=O)N1Cc2cc([101O:1][101CH2:1]CCOc3ccc(C(=O)[100NH:0][100C:0](=O)N4CCCC(n5nc(-c6ccc(Oc7ccc(F)cc7F)cc6)c(C(N)=O)c5N)C4)c(F)c3N)ccc2CC1C(=O)NC1CCCc2ccccc21)C(C)(C)C

> <Shape>
0.229

> <Color>
0.072

> <Negative vol penalty>
0.000

$$$$

  -OEChem-04052300373D

 85 93  0     1  0  0  0  0  0999 V2000
  -23.0194  -33.8026   16.7377 C   0  0  0  0  0  0  0  0  0  0  0  0
  -22.7812  -32.4329   16.6854 C   0  0  0  0  0  0  0  0  0  0  0  0
  -23.3914   -9.7827   20.6090 C   0  0  0  0  0  0  0  0  0  0  0  0
  -23.9092  -10.3776   22.8926 C   0  0  0  0  0  0  0  0  0  0  0  0
  -23.9688  -34.3106   17.6233 C   0  0  0  0  0  0  0  0  0  0  0  0
  -23.4933  -31.5703   17.5181 C   0  0  0  0  0  0  0  0  0  0  0  0
  -22.7692  -25.4142   21.1090 C   0  0  0  0  0  0  0  0  0  0  0  0
  -27.0768  -17.9789   18.1897 C   0  0  0  0  0  0  0  0  0  0  0  0
  -27.4111  -16.9687   17.2879 C   0  0  0  0  0  0  0  0  0  0  0  0
  -22.7033   -8.6558   21.0586 C   0  0  0  0  0  0  0  0  0  0  0  0
  -23.2211   -9.2507   23.3422 C   0  0  0  0  0  0  0  0  0  0  0  0
  -23.3970  -24.1795   21.2675 C   0  0  0  0  0  0  0  0  0  0  0  0
  -20.0076   -8.3302   23.8392 C   0  0  0  0  0  0  0  0  0  0  0  0
  -19.1385   -8.4912   24.9182 C   0  0  0  0  0  0  0  0  0  0  0  0
  -24.9563  -25.1777   22.8139 C   0  0  0  0  0  0  0  0  0  0  0  0
  -20.4224   -6.8886   26.1913 C   0  0  0  0  0  0  0  0  0  0  0  0
  -23.9944  -10.6436   21.5260 C   0  0  0  0  0  0  0  0  0  0  0  0
  -24.1799  -13.0953   20.8462 C   0  0  0  0  0  0  0  0  0  0  0  0
  -24.6859  -33.4548   18.4741 C   0  0  0  0  0  0  0  0  0  0  0  0
  -23.2378  -26.5442   21.7945 C   0  0  0  0  0  0  0  0  0  0  0  0
  -24.4542  -32.0672   18.4150 C   0  0  0  0  0  0  0  0  0  0  0  0
  -24.3311  -26.4251   22.6643 C   0  0  0  0  0  0  0  0  0  0  0  0
  -27.9237  -18.2666   19.2601 C   0  0  0  0  0  0  0  0  0  0  0  0
  -28.5922  -16.2460   17.4566 C   0  0  0  0  0  0  0  0  0  0  0  0
  -29.1048  -17.5440   19.4288 C   0  0  0  0  0  0  0  0  0  0  0  0
  -22.6181   -8.3897   22.4252 C   0  0  0  0  0  0  0  0  0  0  0  0
  -24.4925  -24.0617   22.1178 C   0  0  0  0  0  0  0  0  0  0  0  0
  -21.0841   -7.4484   23.9361 C   0  0  0  0  0  0  0  0  0  0  0  0
  -19.3459   -7.7704   26.0943 C   0  0  0  0  0  0  0  0  0  0  0  0
  -21.2915   -6.7277   25.1122 C   0  0  0  0  0  0  0  0  0  0  0  0
  -29.4391  -16.5337   18.5270 C   0  0  0  0  0  0  0  0  0  0  0  0
  -24.7059  -11.8075   21.0622 C   0  0  0  0  0  0  0  0  0  0  0  0
  -25.2519  -13.8356   20.4112 C   0  0  0  0  0  0  0  0  0  0  0  0
  -22.8418  -13.5792   21.0231 C   0  0  0  0  0  0  0  0  0  0  0  0
  -24.4368  -29.3572   20.9266 C   0  0  0  0  0  0  0  0  0  0  0  0
  -26.2971  -21.0629   21.1620 C   0  0  0  0  0  0  0  0  0  0  0  0
  -24.2827  -29.9661   24.1091 C   0  0  0  0  0  0  0  0  0  0  0  0
  -24.2015  -28.7398   27.2928 C   0  0  0  0  0  0  0  0  0  0  0  0
  -29.6866  -14.0650   16.8766 C   0  0  0  0  0  0  0  0  0  0  0  0
  -25.7360  -34.0457   19.3813 C   0  0  0  0  0  0  0  0  0  0  0  0
  -22.5330  -27.8632   21.6332 C   0  0  0  0  0  0  0  0  0  0  0  0
  -24.8605  -27.6034   23.4388 C   0  0  0  0  0  0  0  0  0  0  0  0
  -26.1801  -33.1011   20.4951 C   0  0  0  0  0  0  0  0  0  0  0  0
  -30.1912  -12.8053   20.3192 C   0  0  0  0  0  0  0  0  0  0  0  0
  -26.4548  -31.7086   19.9363 C   0  0  0  0  0  0  0  0  0  0  0  0
  -28.7716  -12.4609   20.7659 C   0  0  0  0  0  0  0  0  0  0  0  0
  -30.3573  -12.6727   18.8084 C   0  0  0  0  0  0  0  0  0  0  0  0
  -27.9448  -13.1306   18.4747 C   0  0  0  0  0  0  0  0  0  0  0  0
  -25.1886  -31.1018   19.3198 C   0  0  1  0  0  0  0  0  0  0  0  0
  -23.4135  -29.0582   21.9854 C   0  0  1  0  0  0  0  0  0  0  0  0
  -27.7407  -13.2956   19.9882 C   0  0  1  0  0  0  0  0  0  0  0  0
  -24.1135  -29.4825   29.6882 C   0  0  0  0  0  0  0  0  0  0  0  0
  -27.2355  -30.7238   23.9801 C   0  0  0  0  0  0  0  0  0  0  0  0
  -27.3226  -30.5294   26.4746 C   0  0  0  0  0  0  0  0  0  0  0  0
  -25.8349  -32.2244   25.4087 C   0  0  0  0  0  0  0  0  0  0  0  0
  -28.7144  -15.4551   15.1007 C   0  0  0  0  0  0  0  0  0  0  0  0
  -21.6230  -27.3598   27.7471 C   0  0  0  0  0  0  0  0  0  0  0  0
  -26.3681  -20.0586   20.0313 C   0  0  0  0  0  0  0  0  0  0  0  0
  -25.0777  -21.9643   21.1617 C   0  0  0  0  0  0  0  0  0  1  0  0
  -25.2161  -29.7764   25.2803 C   0  0  1  0  0  0  0  0  0  0  0  0
  -23.3023  -29.0604   28.4731 C   0  0  2  0  0  0  0  0  0  0  0  0
  -26.3937  -30.7915   25.2700 C   0  0  0  0  0  0  0  0  0  0  0  0
  -26.0106  -11.7306   20.7869 N   0  0  0  0  0  0  0  0  0  0  0  0
  -26.3134  -12.9794   20.3934 N   0  0  0  0  0  0  0  0  0  0  0  0
  -24.1413  -28.8730   23.2425 N   0  0  0  0  0  0  0  0  0  0  0  0
  -29.3327  -13.4240   18.0816 N   0  0  0  0  0  0  0  0  0  0  0  0
  -29.9754  -17.8222   20.5065 N   0  0  0  0  0  0  0  0  0  0  0  0
  -25.3806  -15.1288   20.0458 N   0  0  0  0  0  0  0  0  0  0  0  0
  -21.8626  -12.6852   21.4772 N   0  0  0  0  0  0  0  0  0  0  0  0
  -27.5715  -19.2750   20.1457 N   0  0  0  0  0  0  0  0  0  0  0  0
  -24.3075  -30.6095   20.3570 N   0  0  0  0  0  0  0  0  0  0  0  0
  -24.3855  -29.8369   26.4782 N   0  0  0  0  0  0  0  0  0  0  0  0
  -28.9340  -15.2010   16.5228 N   0  0  0  0  0  0  0  0  0  0  0  0
  -22.4879  -27.8682   28.8427 N   0  3  0  0  0  0  0  0  0  0  0  0
  -22.5205  -14.7650   20.7698 O   0  0  0  0  0  0  0  0  0  0  0  0
  -25.2821  -28.5148   20.6482 O   0  0  0  0  0  0  0  0  0  0  0  0
  -27.1655  -21.1512   22.0290 O   0  0  0  0  0  0  0  0  0  0  0  0
  -23.6949  -31.0419   23.9722 O   0  0  0  0  0  0  0  0  0  0  0  0
  -24.6946  -27.6283   27.1137 O   0  0  0  0  0  0  0  0  0  0  0  0
  -30.5753  -13.6240   16.1373 O   0  0  0  0  0  0  0  0  0  0  0  0
  -21.9465   -7.2903   22.8643 O   0  0  0  0  0  0  0  0  0  0  0  0
  -25.1076  -22.8579   22.2738 O   0  0  0  0  0  0  0  0  0  1  0  0
  -18.5121   -7.9262   27.1309 F   0  0  0  0  0  0  0  0  0  0  0  0
  -22.3246   -5.8800   25.2117 F   0  0  0  0  0  0  0  0  0  0  0  0
  -30.5739  -15.8363   18.6905 F   0  0  0  0  0  0  0  0  0  0  0  0
  1  2  1  0  0  0  0
  1  5  2  0  0  0  0
  2  6  2  0  0  0  0
  3 10  2  0  0  0  0
  3 17  1  0  0  0  0
  4 11  1  0  0  0  0
  4 17  2  0  0  0  0
  5 19  1  0  0  0  0
  6 21  1  0  0  0  0
  7 12  2  0  0  0  0
  7 20  1  0  0  0  0
  8  9  2  0  0  0  0
  8 23  1  0  0  0  0
  9 24  1  0  0  0  0
 10 26  1  0  0  0  0
 11 26  2  0  0  0  0
 12 27  1  0  0  0  0
 13 14  2  0  0  0  0
 13 28  1  0  0  0  0
 14 29  1  0  0  0  0
 15 22  1  0  0  0  0
 15 27  2  0  0  0  0
 16 29  2  0  0  0  0
 16 30  1  0  0  0  0
 17 32  1  0  0  0  0
 18 32  1  0  0  0  0
 18 33  2  0  0  0  0
 18 34  1  0  0  0  0
 19 21  2  0  0  0  0
 19 40  1  0  0  0  0
 20 22  2  0  0  0  0
 20 41  1  0  0  0  0
 21 49  1  0  0  0  0
 22 42  1  0  0  0  0
 23 25  2  0  0  0  0
 23 70  1  0  0  0  0
 24 31  2  0  0  0  0
 24 73  1  0  0  0  0
 25 31  1  0  0  0  0
 25 67  1  0  0  0  0
 26 81  1  0  0  0  0
 27 82  1  0  0  0  0
 28 30  2  0  0  0  0
 28 81  1  0  0  0  0
 29 83  1  0  0  0  0
 30 84  1  0  0  0  0
 31 85  1  0  0  0  0
 32 63  2  0  0  0  0
 33 64  1  0  0  0  0
 33 68  1  0  0  0  0
 34 69  1  0  0  0  0
 34 75  2  0  0  0  0
 35 50  1  0  0  0  0
 35 71  1  0  0  0  0
 35 76  2  0  0  0  0
 36 58  1  0  0  0  0
 36 59  1  0  0  0  0
 36 77  2  0  0  0  0
 37 60  1  0  0  0  0
 37 65  1  0  0  0  0
 37 78  2  0  0  0  0
 38 61  1  0  0  0  0
 38 72  1  0  0  0  0
 38 79  2  0  0  0  0
 39 66  1  0  0  0  0
 39 73  1  0  0  0  0
 39 80  2  0  0  0  0
 40 43  1  0  0  0  0
 41 50  1  0  0  0  0
 42 65  1  0  0  0  0
 43 45  1  0  0  0  0
 44 46  1  0  0  0  0
 44 47  1  0  0  0  0
 45 49  1  0  0  0  0
 46 51  1  0  0  0  0
 47 66  1  0  0  0  0
 48 51  1  0  0  0  0
 48 66  1  0  0  0  0
 49 71  1  0  0  0  0
 50 65  1  0  0  0  0
 51 64  1  0  0  0  0
 52 61  1  0  0  0  0
 53 62  1  0  0  0  0
 54 62  1  0  0  0  0
 55 62  1  0  0  0  0
 56 73  1  0  0  0  0
 57 74  1  0  0  0  0
 58 70  1  0  0  0  0
 59 82  1  0  0  0  0
 60 62  1  0  0  0  0
 60 72  1  0  0  0  0
 61 74  1  0  0  0  0
 63 64  1  0  0  0  0
M  CHG  1  74   1
M  ISO  4  39 100  59 101  73 100  82 101
M  END
> <Batch ID>
0093

> <Smiles>
CNC(C)C(=O)NC(C(=O)N1Cc2cc([101O:1][101CH2:1]C(=O)CNc3ccc([100N:0](C)[100C:0](=O)N4CCCC(n5nc(-c6ccc(Oc7ccc(F)cc7F)cc6)c(C(N)=O)c5N)C4)c(F)c3N)ccc2CC1C(=O)NC1CCCc2ccccc21)C(C)(C)C

> <Shape>
0.249

> <Color>
0.179

> <Negative vol penalty>
0.000

$$$$

  -OEChem-04052300373D

 82 90  0     1  0  0  0  0  0999 V2000
  -35.0954  -29.5610   19.7188 C   0  0  0  0  0  0  0  0  0  0  0  0
  -34.2504  -28.4597   19.8106 C   0  0  0  0  0  0  0  0  0  0  0  0
  -22.9995  -10.0447   19.9013 C   0  0  0  0  0  0  0  0  0  0  0  0
  -23.8587   -9.8611   22.1519 C   0  0  0  0  0  0  0  0  0  0  0  0
  -29.1850  -17.4053   22.3767 C   0  0  0  0  0  0  0  0  0  0  0  0
  -34.6338  -30.8248   20.0845 C   0  0  0  0  0  0  0  0  0  0  0  0
  -32.9435  -28.6213   20.2693 C   0  0  0  0  0  0  0  0  0  0  0  0
  -29.5699  -26.1117   17.4471 C   0  0  0  0  0  0  0  0  0  0  0  0
  -28.5088  -18.5745   22.0284 C   0  0  0  0  0  0  0  0  0  0  0  0
  -22.2170   -8.9085   20.1073 C   0  0  0  0  0  0  0  0  0  0  0  0
  -23.0761   -8.7249   22.3579 C   0  0  0  0  0  0  0  0  0  0  0  0
  -29.4645  -24.7368   17.6531 C   0  0  0  0  0  0  0  0  0  0  0  0
  -19.8453   -8.0207   23.0553 C   0  0  0  0  0  0  0  0  0  0  0  0
  -19.1393   -7.9307   24.2549 C   0  0  0  0  0  0  0  0  0  0  0  0
  -29.5025  -16.8920   20.0374 C   0  0  0  0  0  0  0  0  0  0  0  0
  -27.5053  -25.0970   19.0137 C   0  0  0  0  0  0  0  0  0  0  0  0
  -20.3248   -5.8974   24.8001 C   0  0  0  0  0  0  0  0  0  0  0  0
  -23.8204  -10.5209   20.9236 C   0  0  0  0  0  0  0  0  0  0  0  0
  -29.6819  -16.5641   21.3812 C   0  0  0  0  0  0  0  0  0  0  0  0
  -24.2680  -13.0321   20.9585 C   0  0  0  0  0  0  0  0  0  0  0  0
  -33.3176  -31.0035   20.5387 C   0  0  0  0  0  0  0  0  0  0  0  0
  -28.6486  -26.9918   18.0327 C   0  0  0  0  0  0  0  0  0  0  0  0
  -32.4643  -29.8884   20.6427 C   0  0  0  0  0  0  0  0  0  0  0  0
  -27.5997  -26.4824   18.8114 C   0  0  0  0  0  0  0  0  0  0  0  0
  -28.3293  -18.9024   20.6846 C   0  0  0  0  0  0  0  0  0  0  0  0
  -28.8262  -18.0612   19.6890 C   0  0  0  0  0  0  0  0  0  0  0  0
  -22.2553   -8.2487   21.3356 C   0  0  0  0  0  0  0  0  0  0  0  0
  -28.4338  -24.2295   18.4389 C   0  0  0  0  0  0  0  0  0  0  0  0
  -20.7910   -7.0490   22.7281 C   0  0  0  0  0  0  0  0  0  0  0  0
  -19.3791   -6.8691   25.1274 C   0  0  0  0  0  0  0  0  0  0  0  0
  -21.0308   -5.9874   23.6005 C   0  0  0  0  0  0  0  0  0  0  0  0
  -24.6294  -11.6942   20.7112 C   0  0  0  0  0  0  0  0  0  0  0  0
  -25.3753  -13.7595   20.5960 C   0  0  0  0  0  0  0  0  0  0  0  0
  -28.3746  -21.1430   20.2337 C   0  0  0  0  0  0  0  0  0  0  0  0
  -30.3872  -15.3455   21.7455 C   0  0  0  0  0  0  0  0  0  0  0  0
  -23.0412  -13.5694   21.4701 C   0  0  0  0  0  0  0  0  0  0  0  0
  -30.9276  -14.4299   20.7145 C   0  0  0  0  0  0  0  0  0  0  0  0
  -28.8415  -29.3705   20.1323 C   0  0  0  0  0  0  0  0  0  0  0  0
  -25.7043  -29.7517   19.4010 C   0  0  0  0  0  0  0  0  0  0  0  0
  -22.8132  -28.3665   18.2306 C   0  0  0  0  0  0  0  0  0  0  0  0
  -32.8784  -32.3812   20.9675 C   0  0  0  0  0  0  0  0  0  0  0  0
  -28.7604  -28.4702   17.7789 C   0  0  0  0  0  0  0  0  0  0  0  0
  -26.5730  -27.3834   19.4459 C   0  0  0  0  0  0  0  0  0  0  0  0
  -31.3637  -32.5275   21.0883 C   0  0  0  0  0  0  0  0  0  0  0  0
  -29.5493  -12.4000   18.0998 C   0  0  0  0  0  0  0  0  0  0  0  0
  -30.7723  -31.3459   21.8505 C   0  0  0  0  0  0  0  0  0  0  0  0
  -28.1292  -12.1136   18.5866 C   0  0  0  0  0  0  0  0  0  0  0  0
  -30.5328  -12.4791   19.2629 C   0  0  0  0  0  0  0  0  0  0  0  0
  -28.7242  -13.1894   20.8034 C   0  0  0  0  0  0  0  0  0  0  0  0
  -31.0323  -30.0273   21.1121 C   0  0  1  0  0  0  0  0  0  0  0  0
  -28.0683  -29.3136   18.8452 C   0  0  1  0  0  0  0  0  0  0  0  0
  -27.6975  -13.1298   19.6589 C   0  0  2  0  0  0  0  0  0  0  0  0
  -20.4054  -28.9153   17.7848 C   0  0  0  0  0  0  0  0  0  0  0  0
  -25.1168  -29.5917   22.3909 C   0  0  0  0  0  0  0  0  0  0  0  0
  -22.7112  -29.1895   21.8259 C   0  0  0  0  0  0  0  0  0  0  0  0
  -23.8054  -31.3306   21.1616 C   0  0  0  0  0  0  0  0  0  0  0  0
  -23.0981  -27.7974   15.3403 C   0  0  0  0  0  0  0  0  0  0  0  0
  -27.7552  -22.4611   19.8769 C   0  0  0  0  0  0  0  0  0  1  0  0
  -24.4063  -29.2003   19.9398 C   0  0  1  0  0  0  0  0  0  0  0  0
  -21.8084  -28.8518   17.2014 C   0  0  2  0  0  0  0  0  0  0  0  0
  -24.0303  -29.8109   21.3193 C   0  0  0  0  0  0  0  0  0  0  0  0
  -25.8692  -11.5757   20.2288 N   0  0  0  0  0  0  0  0  0  0  0  0
  -30.5928  -14.9787   22.9816 N   0  0  0  0  0  0  0  0  0  0  0  0
  -27.6433  -20.0839   20.3562 N   0  0  0  0  0  0  0  0  0  0  0  0
  -26.2966  -12.8485   20.1699 N   0  0  0  0  0  0  0  0  0  0  0  0
  -30.0752  -13.4250   20.2787 N   0  0  0  0  0  0  0  0  0  0  0  0
  -26.7287  -28.8218   19.1734 N   0  0  0  0  0  0  0  0  0  0  0  0
  -28.6534  -18.3765   18.3229 N   0  0  0  0  0  0  0  0  0  0  0  0
  -25.6410  -15.0830   20.6033 N   0  0  0  0  0  0  0  0  0  0  0  0
  -22.0058  -12.6814   21.7922 N   0  0  0  0  0  0  0  0  0  0  0  0
  -30.1182  -29.8823   19.9995 N   0  0  0  0  0  0  0  0  0  0  0  0
  -23.4076  -29.4163   18.8985 N   0  0  0  0  0  0  0  0  0  0  0  0
  -21.7875  -27.9358   16.0259 N   0  3  0  0  0  0  0  0  0  0  0  0
  -22.8623  -14.8018   21.6214 O   0  0  0  0  0  0  0  0  0  0  0  0
  -32.0752  -14.6586   20.3554 O   0  0  0  0  0  0  0  0  0  0  0  0
  -28.3181  -28.9805   21.1694 O   0  0  0  0  0  0  0  0  0  0  0  0
  -25.8032  -30.9618   19.1833 O   0  0  0  0  0  0  0  0  0  0  0  0
  -23.0448  -27.1753   18.4254 O   0  0  0  0  0  0  0  0  0  0  0  0
  -21.4917   -7.1401   21.5371 O   0  0  0  0  0  0  0  0  0  0  0  0
  -28.3290  -22.8880   18.6421 O   0  0  0  0  0  0  0  0  0  1  0  0
  -18.7022   -6.7837   26.2800 F   0  0  0  0  0  0  0  0  0  0  0  0
  -21.9390   -5.0515   23.2920 F   0  0  0  0  0  0  0  0  0  0  0  0
  1  2  1  0  0  0  0
  1  6  2  0  0  0  0
  2  7  2  0  0  0  0
  3 10  2  0  0  0  0
  3 18  1  0  0  0  0
  4 11  1  0  0  0  0
  4 18  2  0  0  0  0
  5  9  2  0  0  0  0
  5 19  1  0  0  0  0
  6 21  1  0  0  0  0
  7 23  1  0  0  0  0
  8 12  2  0  0  0  0
  8 22  1  0  0  0  0
  9 25  1  0  0  0  0
 10 27  1  0  0  0  0
 11 27  2  0  0  0  0
 12 28  1  0  0  0  0
 13 14  2  0  0  0  0
 13 29  1  0  0  0  0
 14 30  1  0  0  0  0
 15 19  2  0  0  0  0
 15 26  1  0  0  0  0
 16 24  1  0  0  0  0
 16 28  2  0  0  0  0
 17 30  2  0  0  0  0
 17 31  1  0  0  0  0
 18 32  1  0  0  0  0
 19 35  1  0  0  0  0
 20 32  1  0  0  0  0
 20 33  2  0  0  0  0
 20 36  1  0  0  0  0
 21 23  2  0  0  0  0
 21 41  1  0  0  0  0
 22 24  2  0  0  0  0
 22 42  1  0  0  0  0
 23 50  1  0  0  0  0
 24 43  1  0  0  0  0
 25 26  2  0  0  0  0
 25 64  1  0  0  0  0
 26 68  1  0  0  0  0
 27 79  1  0  0  0  0
 28 80  1  0  0  0  0
 29 31  2  0  0  0  0
 29 79  1  0  0  0  0
 30 81  1  0  0  0  0
 31 82  1  0  0  0  0
 32 62  2  0  0  0  0
 33 65  1  0  0  0  0
 33 69  1  0  0  0  0
 34 58  1  0  0  0  0
 34 64  2  0  0  0  0
 35 37  1  0  0  0  0
 35 63  2  0  0  0  0
 36 70  1  0  0  0  0
 36 74  2  0  0  0  0
 37 66  1  0  0  0  0
 37 75  2  0  0  0  0
 38 51  1  0  0  0  0
 38 71  1  0  0  0  0
 38 76  2  0  0  0  0
 39 59  1  0  0  0  0
 39 67  1  0  0  0  0
 39 77  2  0  0  0  0
 40 60  1  0  0  0  0
 40 72  1  0  0  0  0
 40 78  2  0  0  0  0
 41 44  1  0  0  0  0
 42 51  1  0  0  0  0
 43 67  1  0  0  0  0
 44 46  1  0  0  0  0
 45 47  1  0  0  0  0
 45 48  1  0  0  0  0
 46 50  1  0  0  0  0
 47 52  1  0  0  0  0
 48 66  1  0  0  0  0
 49 52  1  0  0  0  0
 49 66  1  0  0  0  0
 50 71  1  0  0  0  0
 51 67  1  0  0  0  0
 52 65  1  0  0  0  0
 53 60  1  0  0  0  0
 54 61  1  0  0  0  0
 55 61  1  0  0  0  0
 56 61  1  0  0  0  0
 57 73  1  0  0  0  0
 58 80  1  0  0  0  0
 59 61  1  0  0  0  0
 59 72  1  0  0  0  0
 60 73  1  0  0  0  0
 62 65  1  0  0  0  0
M  CHG  1  73   1
M  ISO  4  35 100  37 100  58 101  80 101
M  END
> <Batch ID>
0093

> <Smiles>
CNC(C)C(=O)NC(C(=O)N1Cc2cc([101O:1][101CH:1]=CNc3ccc([100C:0](=N)[100C:0](=O)N4CCCC(n5nc(-c6ccc(Oc7ccc(F)cc7F)cc6)c(C(N)=O)c5N)C4)cc3N)ccc2CC1C(=O)NC1CCCc2ccccc21)C(C)(C)C

> <Shape>
0.316

> <Color>
0.190

> <Negative vol penalty>
0.000

$$$$

  -OEChem-04052300373D

 83 91  0     1  0  0  0  0  0999 V2000
  -31.2918  -30.7376   14.0565 C   0  0  0  0  0  0  0  0  0  0  0  0
  -30.8076  -29.5082   14.4916 C   0  0  0  0  0  0  0  0  0  0  0  0
  -22.9058  -10.0199   20.0012 C   0  0  0  0  0  0  0  0  0  0  0  0
  -23.6699  -10.0168   22.2932 C   0  0  0  0  0  0  0  0  0  0  0  0
  -29.0872  -17.4973   22.1098 C   0  0  0  0  0  0  0  0  0  0  0  0
  -31.4300  -31.7905   14.9599 C   0  0  0  0  0  0  0  0  0  0  0  0
  -30.4622  -29.3306   15.8309 C   0  0  0  0  0  0  0  0  0  0  0  0
  -25.9173  -25.8660   18.0325 C   0  0  0  0  0  0  0  0  0  0  0  0
  -28.4421  -18.6400   21.6368 C   0  0  0  0  0  0  0  0  0  0  0  0
  -22.0998   -8.9133   20.2684 C   0  0  0  0  0  0  0  0  0  0  0  0
  -22.8638   -8.9102   22.5604 C   0  0  0  0  0  0  0  0  0  0  0  0
  -25.8945  -24.5804   18.5714 C   0  0  0  0  0  0  0  0  0  0  0  0
  -22.9692   -5.5698   22.0496 C   0  0  0  0  0  0  0  0  0  0  0  0
  -23.5286   -4.5221   22.7810 C   0  0  0  0  0  0  0  0  0  0  0  0
  -29.4928  -16.7853   19.8370 C   0  0  0  0  0  0  0  0  0  0  0  0
  -26.0131  -25.5157   20.7919 C   0  0  0  0  0  0  0  0  0  0  0  0
  -21.8430   -4.8135   24.4873 C   0  0  0  0  0  0  0  0  0  0  0  0
  -23.6909  -10.5716   21.0136 C   0  0  0  0  0  0  0  0  0  0  0  0
  -29.6126  -16.5700   21.2100 C   0  0  0  0  0  0  0  0  0  0  0  0
  -24.1717  -13.0720   20.8575 C   0  0  0  0  0  0  0  0  0  0  0  0
  -31.0770  -31.6286   16.3089 C   0  0  0  0  0  0  0  0  0  0  0  0
  -25.9994  -26.9876   18.8702 C   0  0  0  0  0  0  0  0  0  0  0  0
  -30.5970  -30.3819   16.7535 C   0  0  0  0  0  0  0  0  0  0  0  0
  -26.0342  -26.8145   20.2612 C   0  0  0  0  0  0  0  0  0  0  0  0
  -28.3223  -18.8553   20.2638 C   0  0  0  0  0  0  0  0  0  0  0  0
  -28.8476  -17.9280   19.3639 C   0  0  0  0  0  0  0  0  0  0  0  0
  -22.0788   -8.3585   21.5480 C   0  0  0  0  0  0  0  0  0  0  0  0
  -25.9453  -24.4049   19.9512 C   0  0  0  0  0  0  0  0  0  0  0  0
  -21.8468   -6.2394   22.5370 C   0  0  0  0  0  0  0  0  0  0  0  0
  -22.9655   -4.1439   23.9999 C   0  0  0  0  0  0  0  0  0  0  0  0
  -21.2837   -5.8613   23.7558 C   0  0  0  0  0  0  0  0  0  0  0  0
  -24.5242  -11.7144   20.7381 C   0  0  0  0  0  0  0  0  0  0  0  0
  -25.3029  -13.7547   20.4823 C   0  0  0  0  0  0  0  0  0  0  0  0
  -30.2854  -15.3790   21.7038 C   0  0  0  0  0  0  0  0  0  0  0  0
  -22.9327  -13.6632   21.2709 C   0  0  0  0  0  0  0  0  0  0  0  0
  -30.8546  -14.3745   20.7763 C   0  0  0  0  0  0  0  0  0  0  0  0
  -28.0988  -29.3407   19.2691 C   0  0  0  0  0  0  0  0  0  0  0  0
  -25.8352  -30.4940   21.2860 C   0  0  0  0  0  0  0  0  0  0  0  0
  -27.0963  -21.0307   20.5779 C   0  0  0  0  0  0  0  0  0  0  0  0
  -23.1590  -29.8576   23.3059 C   0  0  0  0  0  0  0  0  0  0  0  0
  -31.2884  -32.7816   17.2580 C   0  0  0  0  0  0  0  0  0  0  0  0
  -25.9961  -28.3687   18.2743 C   0  0  0  0  0  0  0  0  0  0  0  0
  -26.1023  -27.9865   21.2047 C   0  0  0  0  0  0  0  0  0  0  0  0
  -30.5468  -32.6237   18.5829 C   0  0  0  0  0  0  0  0  0  0  0  0
  -29.5558  -12.1468   18.2848 C   0  0  0  0  0  0  0  0  0  0  0  0
  -30.7509  -31.2204   19.1450 C   0  0  0  0  0  0  0  0  0  0  0  0
  -28.1131  -11.9172   18.7340 C   0  0  0  0  0  0  0  0  0  0  0  0
  -30.4921  -12.3130   19.4773 C   0  0  0  0  0  0  0  0  0  0  0  0
  -28.6323  -13.1690   20.8762 C   0  0  0  0  0  0  0  0  0  0  0  0
  -30.1883  -30.1577   18.1933 C   0  0  1  0  0  0  0  0  0  0  0  0
  -26.6000  -29.4203   19.1999 C   0  0  1  0  0  0  0  0  0  0  0  0
  -27.6524  -13.0243   19.6988 C   0  0  2  0  0  0  0  0  0  0  0  0
  -21.5441  -30.9959   24.8531 C   0  0  0  0  0  0  0  0  0  0  0  0
  -28.0032  -30.6546   23.4269 C   0  0  0  0  0  0  0  0  0  0  0  0
  -26.1939  -30.8698   25.1440 C   0  0  0  0  0  0  0  0  0  0  0  0
  -26.4434  -32.6088   23.3730 C   0  0  0  0  0  0  0  0  0  0  0  0
  -20.8379  -29.0796   21.6429 C   0  0  0  0  0  0  0  0  0  0  0  0
  -26.4915  -22.1047   19.6930 C   0  0  0  0  0  0  0  0  0  1  0  0
  -25.5309  -30.3332   22.7558 C   0  0  1  0  0  0  0  0  0  0  0  0
  -21.8056  -30.5343   23.4278 C   0  0  2  0  0  0  0  0  0  0  0  0
  -26.5435  -31.0942   23.6574 C   0  0  0  0  0  0  0  0  0  0  0  0
  -25.7809  -11.5428   20.3194 N   0  0  0  0  0  0  0  0  0  0  0  0
  -30.4353  -15.1151   22.9737 N   0  0  0  0  0  0  0  0  0  0  0  0
  -26.2280  -12.8016   20.1725 N   0  0  0  0  0  0  0  0  0  0  0  0
  -30.0068  -13.3456   20.3906 N   0  0  0  0  0  0  0  0  0  0  0  0
  -26.1031  -29.3166   20.5734 N   0  0  0  0  0  0  0  0  0  0  0  0
  -28.7389  -18.1260   17.9692 N   0  0  0  0  0  0  0  0  0  0  0  0
  -25.5866  -15.0714   20.3902 N   0  0  0  0  0  0  0  0  0  0  0  0
  -21.8727  -12.8163   21.6223 N   0  0  0  0  0  0  0  0  0  0  0  0
  -27.6649  -20.0223   19.8073 N   0  0  0  0  0  0  0  0  0  0  0  0
  -28.7471  -30.0903   18.3061 N   0  0  0  0  0  0  0  0  0  0  0  0
  -24.1436  -30.7482   22.9333 N   0  0  0  0  0  0  0  0  0  0  0  0
  -20.7191  -29.5945   23.0313 N   0  3  0  0  0  0  0  0  0  0  0  0
  -22.7650  -14.9057   21.3112 O   0  0  0  0  0  0  0  0  0  0  0  0
  -32.0190  -14.5602   20.4476 O   0  0  0  0  0  0  0  0  0  0  0  0
  -28.6280  -28.6514   20.1331 O   0  0  0  0  0  0  0  0  0  0  0  0
  -25.8281  -31.6220   20.7868 O   0  0  0  0  0  0  0  0  0  0  0  0
  -27.0527  -21.1065   21.8014 O   0  0  0  0  0  0  0  0  0  0  0  0
  -23.3268  -28.6597   23.5234 O   0  0  0  0  0  0  0  0  0  0  0  0
  -21.2922   -7.2788   21.8092 O   0  0  0  0  0  0  0  0  0  0  0  0
  -25.9238  -23.1512   20.4798 O   0  0  0  0  0  0  0  0  0  1  0  0
  -23.5018   -3.1368   24.7015 F   0  0  0  0  0  0  0  0  0  0  0  0
  -20.2047   -6.5000   24.2286 F   0  0  0  0  0  0  0  0  0  0  0  0
  1  2  1  0  0  0  0
  1  6  2  0  0  0  0
  2  7  2  0  0  0  0
  3 10  2  0  0  0  0
  3 18  1  0  0  0  0
  4 11  1  0  0  0  0
  4 18  2  0  0  0  0
  5  9  2  0  0  0  0
  5 19  1  0  0  0  0
  6 21  1  0  0  0  0
  7 23  1  0  0  0  0
  8 12  2  0  0  0  0
  8 22  1  0  0  0  0
  9 25  1  0  0  0  0
 10 27  1  0  0  0  0
 11 27  2  0  0  0  0
 12 28  1  0  0  0  0
 13 14  2  0  0  0  0
 13 29  1  0  0  0  0
 14 30  1  0  0  0  0
 15 19  2  0  0  0  0
 15 26  1  0  0  0  0
 16 24  1  0  0  0  0
 16 28  2  0  0  0  0
 17 30  2  0  0  0  0
 17 31  1  0  0  0  0
 18 32  1  0  0  0  0
 19 34  1  0  0  0  0
 20 32  1  0  0  0  0
 20 33  2  0  0  0  0
 20 35  1  0  0  0  0
 21 23  2  0  0  0  0
 21 41  1  0  0  0  0
 22 24  2  0  0  0  0
 22 42  1  0  0  0  0
 23 50  1  0  0  0  0
 24 43  1  0  0  0  0
 25 26  2  0  0  0  0
 25 70  1  0  0  0  0
 26 67  1  0  0  0  0
 27 80  1  0  0  0  0
 28 81  1  0  0  0  0
 29 31  2  0  0  0  0
 29 80  1  0  0  0  0
 30 82  1  0  0  0  0
 31 83  1  0  0  0  0
 32 62  2  0  0  0  0
 33 64  1  0  0  0  0
 33 68  1  0  0  0  0
 34 36  1  0  0  0  0
 34 63  2  0  0  0  0
 35 69  1  0  0  0  0
 35 74  2  0  0  0  0
 36 65  1  0  0  0  0
 36 75  2  0  0  0  0
 37 51  1  0  0  0  0
 37 71  1  0  0  0  0
 37 76  2  0  0  0  0
 38 59  1  0  0  0  0
 38 66  1  0  0  0  0
 38 77  2  0  0  0  0
 39 58  1  0  0  0  0
 39 70  1  0  0  0  0
 39 78  2  0  0  0  0
 40 60  1  0  0  0  0
 40 72  1  0  0  0  0
 40 79  2  0  0  0  0
 41 44  1  0  0  0  0
 42 51  1  0  0  0  0
 43 66  1  0  0  0  0
 44 46  1  0  0  0  0
 45 47  1  0  0  0  0
 45 48  1  0  0  0  0
 46 50  1  0  0  0  0
 47 52  1  0  0  0  0
 48 65  1  0  0  0  0
 49 52  1  0  0  0  0
 49 65  1  0  0  0  0
 50 71  1  0  0  0  0
 51 66  1  0  0  0  0
 52 64  1  0  0  0  0
 53 60  1  0  0  0  0
 54 61  1  0  0  0  0
 55 61  1  0  0  0  0
 56 61  1  0  0  0  0
 57 73  1  0  0  0  0
 58 81  1  0  0  0  0
 59 61  1  0  0  0  0
 59 72  1  0  0  0  0
 60 73  1  0  0  0  0
 62 64  1  0  0  0  0
M  CHG  1  73   1
M  ISO  4  34 100  36 100  58 101  81 101
M  END
> <Batch ID>
0093

> <Smiles>
CNC(C)C(=O)NC(C(=O)N1Cc2cc([101O:1][101CH2:1]C(=O)Nc3ccc([100C:0](=N)[100C:0](=O)N4CCCC(n5nc(-c6ccc(Oc7ccc(F)cc7F)cc6)c(C(N)=O)c5N)C4)cc3N)ccc2CC1C(=O)NC1CCCc2ccccc21)C(C)(C)C

> <Shape>
0.350

> <Color>
0.234

> <Negative vol penalty>
0.000

$$$$

  -OEChem-04052300373D

 87 96  0     1  0  0  0  0  0999 V2000
  -27.1380  -37.6471   20.8880 C   0  0  0  0  0  0  0  0  0  0  0  0
  -27.6959  -36.4098   20.5827 C   0  0  0  0  0  0  0  0  0  0  0  0
  -25.2682  -14.2605   18.2575 C   0  0  0  0  0  0  0  0  0  0  0  0
  -25.3633  -14.3570   20.6697 C   0  0  0  0  0  0  0  0  0  0  0  0
  -31.4631  -19.4455   21.2494 C   0  0  0  0  0  0  0  0  0  0  0  0
  -26.1684  -37.7464   21.8850 C   0  0  0  0  0  0  0  0  0  0  0  0
  -27.2853  -35.2712   21.2750 C   0  0  0  0  0  0  0  0  0  0  0  0
  -26.7661  -29.5923   19.0419 C   0  0  0  0  0  0  0  0  0  0  0  0
  -31.2556  -20.7465   21.7078 C   0  0  0  0  0  0  0  0  0  0  0  0
  -25.1678  -12.8706   18.3170 C   0  0  0  0  0  0  0  0  0  0  0  0
  -25.2628  -12.9671   20.7293 C   0  0  0  0  0  0  0  0  0  0  0  0
  -27.6071  -28.4818   19.0980 C   0  0  0  0  0  0  0  0  0  0  0  0
  -22.8318  -10.6338   20.4720 C   0  0  0  0  0  0  0  0  0  0  0  0
  -21.9479  -10.0887   21.4033 C   0  0  0  0  0  0  0  0  0  0  0  0
  -26.3747  -27.6519   20.9984 C   0  0  0  0  0  0  0  0  0  0  0  0
  -30.3998  -21.3746   19.5374 C   0  0  0  0  0  0  0  0  0  0  0  0
  -23.7816   -8.9262   22.4632 C   0  0  0  0  0  0  0  0  0  0  0  0
  -25.3660  -15.0038   19.4338 C   0  0  0  0  0  0  0  0  0  0  0  0
  -31.1390  -19.1091   19.9351 C   0  0  0  0  0  0  0  0  0  0  0  0
  -24.5414  -17.3364   18.8120 C   0  0  0  0  0  0  0  0  0  0  0  0
  -25.7387  -36.6069   22.5832 C   0  0  0  0  0  0  0  0  0  0  0  0
  -25.7280  -29.7466   19.9720 C   0  0  0  0  0  0  0  0  0  0  0  0
  -26.3100  -35.3555   22.2832 C   0  0  0  0  0  0  0  0  0  0  0  0
  -25.5203  -28.7639   20.9504 C   0  0  0  0  0  0  0  0  0  0  0  0
  -30.7239  -21.7110   20.8518 C   0  0  0  0  0  0  0  0  0  0  0  0
  -25.1651  -12.2239   19.5529 C   0  0  0  0  0  0  0  0  0  0  0  0
  -27.4134  -27.5128   20.0781 C   0  0  0  0  0  0  0  0  0  0  0  0
  -24.1905  -10.3250   20.5362 C   0  0  0  0  0  0  0  0  0  0  0  0
  -22.4228   -9.2350   22.3989 C   0  0  0  0  0  0  0  0  0  0  0  0
  -30.6073  -20.0736   19.0791 C   0  0  0  0  0  0  0  0  0  0  0  0
  -24.6655   -9.4713   21.5318 C   0  0  0  0  0  0  0  0  0  0  0  0
  -25.4703  -16.4396   19.3730 C   0  0  0  0  0  0  0  0  0  0  0  0
  -25.1004  -18.5759   19.0063 C   0  0  0  0  0  0  0  0  0  0  0  0
  -29.7910  -25.1967   21.4446 C   0  0  0  0  0  0  0  0  0  0  0  0
  -28.9555  -26.2274   21.2782 C   0  0  0  0  0  0  0  0  0  1  0  0
  -31.3605  -17.7332   19.4549 C   0  0  0  0  0  0  0  0  0  0  0  0
  -23.2856  -17.0726   18.1725 C   0  0  0  0  0  0  0  0  0  0  0  0
  -25.0175  -31.8949   22.2045 C   0  0  0  0  0  0  0  0  0  0  0  0
  -22.2925  -30.1537   22.4599 C   0  0  0  0  0  0  0  0  0  0  0  0
  -20.7127  -27.1624   22.0090 C   0  0  0  0  0  0  0  0  0  0  0  0
  -29.8390  -16.9399   21.2063 C   0  0  0  0  0  0  0  0  0  0  0  0
  -24.7222  -36.7711   23.6852 C   0  0  0  0  0  0  0  0  0  0  0  0
  -24.8128  -30.9369   19.8815 C   0  0  0  0  0  0  0  0  0  0  0  0
  -24.4076  -28.8725   21.9597 C   0  0  0  0  0  0  0  0  0  0  0  0
  -30.6012  -24.9357   22.6748 C   0  0  0  0  0  0  0  0  0  0  0  0
  -29.9667  -24.0669   20.4750 C   0  0  0  0  0  0  0  0  0  0  0  0
  -24.0712  -35.4586   24.1139 C   0  0  0  0  0  0  0  0  0  0  0  0
  -27.4319  -19.1482   22.6371 C   0  0  0  0  0  0  0  0  0  0  0  0
  -25.1284  -34.3759   24.3055 C   0  0  0  0  0  0  0  0  0  0  0  0
  -26.9393  -19.9956   21.4675 C   0  0  0  0  0  0  0  0  0  0  0  0
  -30.7101  -23.4136   22.6932 C   0  0  0  0  0  0  0  0  0  0  0  0
  -28.9168  -18.8413   22.5013 C   0  0  0  0  0  0  0  0  0  0  0  0
  -28.7697  -18.9375   20.0251 C   0  0  0  0  0  0  0  0  0  0  0  0
  -25.8728  -34.0936   22.9949 C   0  0  1  0  0  0  0  0  0  0  0  0
  -24.1076  -31.2498   21.1976 C   0  0  1  0  0  0  0  0  0  0  0  0
  -27.2979  -19.3990   20.0958 C   0  0  1  0  0  0  0  0  0  0  0  0
  -18.4965  -26.0346   22.3463 C   0  0  0  0  0  0  0  0  0  0  0  0
  -22.8644  -29.9293   25.4486 C   0  0  0  0  0  0  0  0  0  0  0  0
  -21.2057  -28.0569   25.5545 C   0  0  0  0  0  0  0  0  0  0  0  0
  -20.4654  -30.3396   24.8734 C   0  0  0  0  0  0  0  0  0  0  0  0
  -31.1283  -15.2972   19.9382 C   0  0  0  0  0  0  0  0  0  0  0  0
  -20.4056  -26.6421   19.1118 C   0  0  0  0  0  0  0  0  0  0  0  0
  -21.8587  -28.9607   23.2768 C   0  0  1  0  0  0  0  0  0  0  0  0
  -19.3754  -26.8142   21.3807 C   0  0  2  0  0  0  0  0  0  0  0  0
  -21.6208  -29.3203   24.7707 C   0  0  0  0  0  0  0  0  0  0  0  0
  -26.5384  -17.0568   19.8851 N   0  0  0  0  0  0  0  0  0  0  0  0
  -26.2841  -18.3547   19.6466 N   0  0  0  0  0  0  0  0  0  0  0  0
  -30.5182  -22.9992   21.3054 N   0  0  3  0  0  0  0  0  0  0  0  0
  -23.5434  -30.0578   21.8339 N   0  0  0  0  0  0  0  0  0  0  0  0
  -29.2157  -18.2037   21.2199 N   0  0  0  0  0  0  0  0  0  0  0  0
  -24.6899  -19.8224   18.6901 N   0  0  0  0  0  0  0  0  0  0  0  0
  -22.1281  -17.0374   18.9621 N   0  0  0  0  0  0  0  0  0  0  0  0
  -25.0627  -33.2734   22.1201 N   0  0  0  0  0  0  0  0  0  0  0  0
  -20.6898  -28.4070   22.6020 N   0  0  0  0  0  0  0  0  0  0  0  0
  -30.6876  -16.6823   20.1100 N   0  0  0  0  0  0  0  0  0  0  0  0
  -19.5776  -25.9876   20.1572 N   0  3  0  0  0  0  0  0  0  0  0  0
  -32.1173  -17.5997   18.4936 O   0  0  0  0  0  0  0  0  0  0  0  0
  -23.1947  -16.8578   16.9400 O   0  0  0  0  0  0  0  0  0  0  0  0
  -25.6318  -31.1939   23.0001 O   0  0  0  0  0  0  0  0  0  0  0  0
  -21.5457  -31.1318   22.3742 O   0  0  0  0  0  0  0  0  0  0  0  0
  -21.6798  -26.4045   21.9802 O   0  0  0  0  0  0  0  0  0  0  0  0
  -29.6799  -16.1081   22.1070 O   0  0  0  0  0  0  0  0  0  0  0  0
  -25.0669  -10.8676   19.6114 O   0  0  0  0  0  0  0  0  0  0  0  0
  -28.2333  -26.4282   20.1355 O   0  0  0  0  0  0  0  0  0  1  0  0
  -21.5742   -8.7128   23.2941 F   0  0  0  0  0  0  0  0  0  0  0  0
  -30.2947  -19.7616   17.8134 F   0  0  0  0  0  0  0  0  0  0  0  0
  -25.9699   -9.1719   21.5993 F   0  0  0  0  0  0  0  0  0  0  0  0
  1  2  1  0  0  0  0
  1  6  2  0  0  0  0
  2  7  2  0  0  0  0
  3 10  2  0  0  0  0
  3 18  1  0  0  0  0
  4 11  1  0  0  0  0
  4 18  2  0  0  0  0
  5  9  2  0  0  0  0
  5 19  1  0  0  0  0
  6 21  1  0  0  0  0
  7 23  1  0  0  0  0
  8 12  2  0  0  0  0
  8 22  1  0  0  0  0
  9 25  1  0  0  0  0
 10 26  1  0  0  0  0
 11 26  2  0  0  0  0
 12 27  1  0  0  0  0
 13 14  2  0  0  0  0
 13 28  1  0  0  0  0
 14 29  1  0  0  0  0
 15 24  1  0  0  0  0
 15 27  2  0  0  0  0
 16 25  2  0  0  0  0
 16 30  1  0  0  0  0
 17 29  2  0  0  0  0
 17 31  1  0  0  0  0
 18 32  1  0  0  0  0
 19 30  2  0  0  0  0
 19 36  1  0  0  0  0
 20 32  1  0  0  0  0
 20 33  2  0  0  0  0
 20 37  1  0  0  0  0
 21 23  2  0  0  0  0
 21 42  1  0  0  0  0
 22 24  2  0  0  0  0
 22 43  1  0  0  0  0
 23 54  1  0  0  0  0
 24 44  1  0  0  0  0
 25 68  1  0  0  0  0
 26 83  1  0  0  0  0
 27 84  1  0  0  0  0
 28 31  2  0  0  0  0
 28 83  1  0  0  0  0
 29 85  1  0  0  0  0
 30 86  1  0  0  0  0
 31 87  1  0  0  0  0
 32 66  2  0  0  0  0
 33 67  1  0  0  0  0
 33 71  1  0  0  0  0
 34 35  2  0  0  0  0
 34 45  1  0  0  0  0
 34 46  1  0  0  0  0
 35 84  1  0  0  0  0
 36 75  1  0  0  0  0
 36 77  2  0  0  0  0
 37 72  1  0  0  0  0
 37 78  2  0  0  0  0
 38 55  1  0  0  0  0
 38 73  1  0  0  0  0
 38 79  2  0  0  0  0
 39 63  1  0  0  0  0
 39 69  1  0  0  0  0
 39 80  2  0  0  0  0
 40 64  1  0  0  0  0
 40 74  1  0  0  0  0
 40 81  2  0  0  0  0
 41 70  1  0  0  0  0
 41 75  1  0  0  0  0
 41 82  2  0  0  0  0
 42 47  1  0  0  0  0
 43 55  1  0  0  0  0
 44 69  1  0  0  0  0
 45 51  1  0  0  0  0
 46 68  1  0  0  0  0
 47 49  1  0  0  0  0
 48 50  1  0  0  0  0
 48 52  1  0  0  0  0
 49 54  1  0  0  0  0
 50 56  1  0  0  0  0
 51 68  1  0  0  0  0
 52 70  1  0  0  0  0
 53 56  1  0  0  0  0
 53 70  1  0  0  0  0
 54 73  1  0  0  0  0
 55 69  1  0  0  0  0
 56 67  1  0  0  0  0
 57 64  1  0  0  0  0
 58 65  1  0  0  0  0
 59 65  1  0  0  0  0
 60 65  1  0  0  0  0
 61 75  1  0  0  0  0
 62 76  1  0  0  0  0
 63 65  1  0  0  0  0
 63 74  1  0  0  0  0
 64 76  1  0  0  0  0
 66 67  1  0  0  0  0
M  CHG  1  76   1
M  ISO  4  35 101  41 100  75 100  84 101
M  END
> <Batch ID>
0093

> <Smiles>
CNC(C)C(=O)NC(C(=O)N1Cc2cc([101O:1][101CH:1]=C3CCN(c4ccc(C(=O)[100N:0](C)[100C:0](=O)N5CCCC(n6nc(-c7ccc(Oc8ccc(F)cc8F)cc7)c(C(N)=O)c6N)C5)c(F)c4)C3)ccc2CC1C(=O)NC1CCCc2ccccc21)C(C)(C)C

> <Shape>
0.297

> <Color>
0.070

> <Negative vol penalty>
0.000

$$$$

  -OEChem-04052300373D

 82 90  0     1  0  0  0  0  0999 V2000
  -17.0512  -28.8440   24.2467 C   0  0  0  0  0  0  0  0  0  0  0  0
  -16.9051  -28.4815   22.9116 C   0  0  0  0  0  0  0  0  0  0  0  0
  -23.1790   -9.8844   19.9165 C   0  0  0  0  0  0  0  0  0  0  0  0
  -23.6484   -9.9559   22.2854 C   0  0  0  0  0  0  0  0  0  0  0  0
  -28.0493  -19.2043   16.3530 C   0  0  0  0  0  0  0  0  0  0  0  0
  -26.9329  -19.9486   15.9721 C   0  0  0  0  0  0  0  0  0  0  0  0
  -18.2296  -29.4518   24.6779 C   0  0  0  0  0  0  0  0  0  0  0  0
  -17.9370  -28.7275   22.0065 C   0  0  0  0  0  0  0  0  0  0  0  0
  -20.9807  -23.3513   18.3019 C   0  0  0  0  0  0  0  0  0  0  0  0
  -22.4287   -8.7230   20.1002 C   0  0  0  0  0  0  0  0  0  0  0  0
  -22.8981   -8.7945   22.4691 C   0  0  0  0  0  0  0  0  0  0  0  0
  -21.4704  -22.4053   17.4011 C   0  0  0  0  0  0  0  0  0  0  0  0
  -23.3097   -5.4673   22.0319 C   0  0  0  0  0  0  0  0  0  0  0  0
  -23.8480   -4.4698   22.8448 C   0  0  0  0  0  0  0  0  0  0  0  0
  -26.7816  -17.1652   16.0843 C   0  0  0  0  0  0  0  0  0  0  0  0
  -22.9781  -24.0531   16.4739 C   0  0  0  0  0  0  0  0  0  0  0  0
  -21.9455   -4.6481   24.3233 C   0  0  0  0  0  0  0  0  0  0  0  0
  -23.7889  -10.5009   21.0091 C   0  0  0  0  0  0  0  0  0  0  0  0
  -27.9737  -17.8126   16.4091 C   0  0  0  0  0  0  0  0  0  0  0  0
  -25.7408  -19.3013   15.6473 C   0  0  0  0  0  0  0  0  0  0  0  0
  -24.1020  -13.0288   20.8717 C   0  0  0  0  0  0  0  0  0  0  0  0
  -19.2802  -29.6966   23.7796 C   0  0  0  0  0  0  0  0  0  0  0  0
  -21.4993  -24.6492   18.3024 C   0  0  0  0  0  0  0  0  0  0  0  0
  -19.1300  -29.3403   22.4258 C   0  0  0  0  0  0  0  0  0  0  0  0
  -22.5003  -25.0015   17.3822 C   0  0  0  0  0  0  0  0  0  0  0  0
  -25.6651  -17.9095   15.7034 C   0  0  0  0  0  0  0  0  0  0  0  0
  -22.2882   -8.1781   21.3765 C   0  0  0  0  0  0  0  0  0  0  0  0
  -22.4665  -22.7555   16.4892 C   0  0  0  0  0  0  0  0  0  0  0  0
  -22.0893   -6.0553   22.3647 C   0  0  0  0  0  0  0  0  0  0  0  0
  -23.1659   -4.0602   23.9905 C   0  0  0  0  0  0  0  0  0  0  0  0
  -21.4072   -5.6457   23.5104 C   0  0  0  0  0  0  0  0  0  0  0  0
  -24.5646  -11.7003   20.8199 C   0  0  0  0  0  0  0  0  0  0  0  0
  -25.2185  -13.7909   20.6284 C   0  0  0  0  0  0  0  0  0  0  0  0
  -24.5836  -20.1206   15.2496 C   0  0  0  0  0  0  0  0  0  0  0  0
  -24.0127  -21.0685   16.0035 C   0  0  0  0  0  0  0  0  0  1  0  0
  -29.1632  -17.0204   16.8148 C   0  0  0  0  0  0  0  0  0  0  0  0
  -22.7812  -13.5294   21.1179 C   0  0  0  0  0  0  0  0  0  0  0  0
  -21.4373  -28.0743   19.8323 C   0  0  0  0  0  0  0  0  0  0  0  0
  -24.3798  -27.3892   19.3001 C   0  0  0  0  0  0  0  0  0  0  0  0
  -27.5110  -26.0834   18.9428 C   0  0  0  0  0  0  0  0  0  0  0  0
  -29.8663  -14.8672   17.8111 C   0  0  0  0  0  0  0  0  0  0  0  0
  -20.5165  -30.3990   24.2826 C   0  0  0  0  0  0  0  0  0  0  0  0
  -20.9585  -25.7175   19.2135 C   0  0  0  0  0  0  0  0  0  0  0  0
  -23.0040  -26.4189   17.3959 C   0  0  0  0  0  0  0  0  0  0  0  0
  -21.7094  -30.2844   23.3370 C   0  0  0  0  0  0  0  0  0  0  0  0
  -30.1118  -12.4993   20.4246 C   0  0  0  0  0  0  0  0  0  0  0  0
  -21.2834  -30.5791   21.9022 C   0  0  0  0  0  0  0  0  0  0  0  0
  -28.6525  -12.1932   20.7727 C   0  0  0  0  0  0  0  0  0  0  0  0
  -30.3075  -12.6952   18.9218 C   0  0  0  0  0  0  0  0  0  0  0  0
  -27.9558  -13.3674   18.6467 C   0  0  0  0  0  0  0  0  0  0  0  0
  -20.2365  -29.5681   21.4189 C   0  0  1  0  0  0  0  0  0  0  0  0
  -22.0372  -26.7063   19.6909 C   0  0  1  0  0  0  0  0  0  0  0  0
  -27.6940  -13.2312   20.1553 C   0  0  1  0  0  0  0  0  0  0  0  0
  -29.9328  -26.6572   19.2631 C   0  0  0  0  0  0  0  0  0  0  0  0
  -24.3020  -29.1075   16.7811 C   0  0  0  0  0  0  0  0  0  0  0  0
  -26.7876  -28.8560   16.6183 C   0  0  0  0  0  0  0  0  0  0  0  0
  -25.7773  -29.9868   18.5990 C   0  0  0  0  0  0  0  0  0  0  0  0
  -27.8909  -23.8943   20.8979 C   0  0  0  0  0  0  0  0  0  0  0  0
  -25.5484  -27.4811   18.3519 C   0  0  1  0  0  0  0  0  0  0  0  0
  -28.6959  -26.0333   19.8904 C   0  0  2  0  0  0  0  0  0  0  0  0
  -25.5870  -28.8349   17.5882 C   0  0  0  0  0  0  0  0  0  0  0  0
  -25.8730  -11.6195   20.5636 N   0  0  0  0  0  0  0  0  0  0  0  0
  -26.2420  -12.9069   20.4521 N   0  0  0  0  0  0  0  0  0  0  0  0
  -23.1847  -26.8745   18.7831 N   0  0  0  0  0  0  0  0  0  0  0  0
  -29.3699  -13.6997   18.4168 N   0  0  0  0  0  0  0  0  0  0  0  0
  -24.4699  -17.2279   15.3802 N   0  0  0  0  0  0  0  0  0  0  0  0
  -25.4147  -15.1242   20.5500 N   0  0  0  0  0  0  0  0  0  0  0  0
  -21.7501  -12.6086   21.3492 N   0  0  0  0  0  0  0  0  0  0  0  0
  -28.8918  -15.7837   17.4006 N   0  0  0  0  0  0  0  0  0  0  0  0
  -20.8687  -28.3143   21.0686 N   0  0  0  0  0  0  0  0  0  0  0  0
  -26.7413  -27.2091   19.1466 N   0  0  0  0  0  0  0  0  0  0  0  0
  -29.0123  -24.6221   20.2501 N   0  3  0  0  0  0  0  0  0  0  0  0
  -30.2845  -17.4644   16.5839 O   0  0  0  0  0  0  0  0  0  0  0  0
  -22.5197  -14.7562   21.1161 O   0  0  0  0  0  0  0  0  0  0  0  0
  -21.4874  -28.8563   18.8901 O   0  0  0  0  0  0  0  0  0  0  0  0
  -24.5183  -27.7681   20.4665 O   0  0  0  0  0  0  0  0  0  0  0  0
  -27.2923  -25.2129   18.1032 O   0  0  0  0  0  0  0  0  0  0  0  0
  -31.0738  -15.0920   17.6813 O   0  0  0  0  0  0  0  0  0  0  0  0
  -21.5559   -7.0449   21.5562 O   0  0  0  0  0  0  0  0  0  0  0  0
  -22.9433  -21.8258   15.6156 O   0  0  0  0  0  0  0  0  0  1  0  0
  -23.6822   -3.1012   24.7702 F   0  0  0  0  0  0  0  0  0  0  0  0
  -20.2339   -6.2060   23.8346 F   0  0  0  0  0  0  0  0  0  0  0  0
  1  2  1  0  0  0  0
  1  7  2  0  0  0  0
  2  8  2  0  0  0  0
  3 10  2  0  0  0  0
  3 18  1  0  0  0  0
  4 11  1  0  0  0  0
  4 18  2  0  0  0  0
  5  6  2  0  0  0  0
  5 19  1  0  0  0  0
  6 20  1  0  0  0  0
  7 22  1  0  0  0  0
  8 24  1  0  0  0  0
  9 12  2  0  0  0  0
  9 23  1  0  0  0  0
 10 27  1  0  0  0  0
 11 27  2  0  0  0  0
 12 28  1  0  0  0  0
 13 14  2  0  0  0  0
 13 29  1  0  0  0  0
 14 30  1  0  0  0  0
 15 19  2  0  0  0  0
 15 26  1  0  0  0  0
 16 25  1  0  0  0  0
 16 28  2  0  0  0  0
 17 30  2  0  0  0  0
 17 31  1  0  0  0  0
 18 32  1  0  0  0  0
 19 36  1  0  0  0  0
 20 26  2  0  0  0  0
 20 34  1  0  0  0  0
 21 32  1  0  0  0  0
 21 33  2  0  0  0  0
 21 37  1  0  0  0  0
 22 24  2  0  0  0  0
 22 42  1  0  0  0  0
 23 25  2  0  0  0  0
 23 43  1  0  0  0  0
 24 51  1  0  0  0  0
 25 44  1  0  0  0  0
 26 66  1  0  0  0  0
 27 79  1  0  0  0  0
 28 80  1  0  0  0  0
 29 31  2  0  0  0  0
 29 79  1  0  0  0  0
 30 81  1  0  0  0  0
 31 82  1  0  0  0  0
 32 62  2  0  0  0  0
 33 63  1  0  0  0  0
 33 67  1  0  0  0  0
 34 35  2  0  0  0  0
 35 80  1  0  0  0  0
 36 69  1  0  0  0  0
 36 73  2  0  0  0  0
 37 68  1  0  0  0  0
 37 74  2  0  0  0  0
 38 52  1  0  0  0  0
 38 70  1  0  0  0  0
 38 75  2  0  0  0  0
 39 59  1  0  0  0  0
 39 64  1  0  0  0  0
 39 76  2  0  0  0  0
 40 60  1  0  0  0  0
 40 71  1  0  0  0  0
 40 77  2  0  0  0  0
 41 65  1  0  0  0  0
 41 69  1  0  0  0  0
 41 78  2  0  0  0  0
 42 45  1  0  0  0  0
 43 52  1  0  0  0  0
 44 64  1  0  0  0  0
 45 47  1  0  0  0  0
 46 48  1  0  0  0  0
 46 49  1  0  0  0  0
 47 51  1  0  0  0  0
 48 53  1  0  0  0  0
 49 65  1  0  0  0  0
 50 53  1  0  0  0  0
 50 65  1  0  0  0  0
 51 70  1  0  0  0  0
 52 64  1  0  0  0  0
 53 63  1  0  0  0  0
 54 60  1  0  0  0  0
 55 61  1  0  0  0  0
 56 61  1  0  0  0  0
 57 61  1  0  0  0  0
 58 72  1  0  0  0  0
 59 61  1  0  0  0  0
 59 71  1  0  0  0  0
 60 72  1  0  0  0  0
 62 63  1  0  0  0  0
M  CHG  1  72   1
M  ISO  4  35 101  41 100  69 100  80 101
M  END
> <Batch ID>
0093

> <Smiles>
CNC(C)C(=O)NC(C(=O)N1Cc2cc([101O:1][101CH:1]=Cc3ccc(C(=O)[100NH:0][100C:0](=O)N4CCCC(n5nc(-c6ccc(Oc7ccc(F)cc7F)cc6)c(C(N)=O)c5N)C4)cc3N)ccc2CC1C(=O)NC1CCCc2ccccc21)C(C)(C)C

> <Shape>
0.249

> <Color>
0.197

> <Negative vol penalty>
0.000

$$$$

  -OEChem-04052300373D

 88 97  0     1  0  0  0  0  0999 V2000
  -16.8867  -25.5642   22.8938 C   0  0  0  0  0  0  0  0  0  0  0  0
  -18.1644  -25.1127   22.5791 C   0  0  0  0  0  0  0  0  0  0  0  0
  -23.7551  -17.3514   21.1320 C   0  0  0  0  0  0  0  0  0  0  0  0
  -23.1987  -16.6651   18.8833 C   0  0  0  0  0  0  0  0  0  0  0  0
  -16.6859  -26.9003   23.2379 C   0  0  0  0  0  0  0  0  0  0  0  0
  -19.2419  -25.9973   22.6074 C   0  0  0  0  0  0  0  0  0  0  0  0
  -23.3061  -24.0358   24.9051 C   0  0  0  0  0  0  0  0  0  0  0  0
  -28.6485  -18.4545   21.8927 C   0  0  0  0  0  0  0  0  0  0  0  0
  -29.3570  -17.3252   22.3027 C   0  0  0  0  0  0  0  0  0  0  0  0
  -23.0746  -18.5528   20.9338 C   0  0  0  0  0  0  0  0  0  0  0  0
  -22.5182  -17.8665   18.6851 C   0  0  0  0  0  0  0  0  0  0  0  0
  -24.0764  -23.1322   24.1744 C   0  0  0  0  0  0  0  0  0  0  0  0
  -19.8683  -19.6261   20.9181 C   0  0  0  0  0  0  0  0  0  0  0  0
  -19.0162  -20.0634   21.9322 C   0  0  0  0  0  0  0  0  0  0  0  0
  -25.6587  -24.8860   23.6850 C   0  0  0  0  0  0  0  0  0  0  0  0
  -30.1154  -16.9777   20.0352 C   0  0  0  0  0  0  0  0  0  0  0  0
  -20.3218  -22.0837   22.1580 C   0  0  0  0  0  0  0  0  0  0  0  0
  -23.8172  -16.4076   20.1068 C   0  0  0  0  0  0  0  0  0  0  0  0
  -23.9909  -13.9615   20.8094 C   0  0  0  0  0  0  0  0  0  0  0  0
  -17.7630  -27.7996   23.2798 C   0  0  0  0  0  0  0  0  0  0  0  0
  -23.7013  -25.3761   25.0223 C   0  0  0  0  0  0  0  0  0  0  0  0
  -19.0551  -27.3470   22.9511 C   0  0  0  0  0  0  0  0  0  0  0  0
  -24.8930  -25.8041   24.4198 C   0  0  0  0  0  0  0  0  0  0  0  0
  -28.6734  -18.8455   20.5539 C   0  0  0  0  0  0  0  0  0  0  0  0
  -30.0905  -16.5868   21.3740 C   0  0  0  0  0  0  0  0  0  0  0  0
  -22.4561  -18.8103   19.7103 C   0  0  0  0  0  0  0  0  0  0  0  0
  -25.2514  -23.5579   23.5618 C   0  0  0  0  0  0  0  0  0  0  0  0
  -20.9472  -20.4176   20.5240 C   0  0  0  0  0  0  0  0  0  0  0  0
  -19.2430  -21.2922   22.5521 C   0  0  0  0  0  0  0  0  0  0  0  0
  -29.4068  -18.1071   19.6252 C   0  0  0  0  0  0  0  0  0  0  0  0
  -21.1740  -21.6464   21.1439 C   0  0  0  0  0  0  0  0  0  0  0  0
  -24.5205  -15.1667   20.3107 C   0  0  0  0  0  0  0  0  0  0  0  0
  -25.0551  -13.0931   20.8102 C   0  0  0  0  0  0  0  0  0  0  0  0
  -26.0628  -22.0082   19.7103 C   0  0  0  0  0  0  0  0  0  0  0  0
  -26.9489  -22.1449   20.7058 C   0  0  0  0  0  0  0  0  0  0  0  0
  -26.2620  -20.9723   18.6765 C   0  0  0  0  0  0  0  0  0  0  0  0
  -22.6563  -13.6542   21.2339 C   0  0  0  0  0  0  0  0  0  0  0  0
  -22.4486  -28.1676   24.1609 C   0  0  0  0  0  0  0  0  0  0  0  0
  -24.9720  -29.3666   25.8094 C   0  0  0  0  0  0  0  0  0  0  0  0
  -28.4799  -28.6061   26.1745 C   0  0  0  0  0  0  0  0  0  0  0  0
  -31.0406  -14.3306   20.9246 C   0  0  0  0  0  0  0  0  0  0  0  0
  -17.4893  -29.2452   23.6115 C   0  0  0  0  0  0  0  0  0  0  0  0
  -22.8732  -26.3322   25.8363 C   0  0  0  0  0  0  0  0  0  0  0  0
  -25.3718  -27.2276   24.5324 C   0  0  0  0  0  0  0  0  0  0  0  0
  -27.4339  -20.0284   18.7808 C   0  0  0  0  0  0  0  0  0  0  0  0
  -18.7432  -30.0331   23.9819 C   0  0  0  0  0  0  0  0  0  0  0  0
  -29.1751  -12.1992   18.5608 C   0  0  0  0  0  0  0  0  0  0  0  0
  -19.8633  -29.7535   22.9848 C   0  0  0  0  0  0  0  0  0  0  0  0
  -27.7328  -12.6683   18.7447 C   0  0  0  0  0  0  0  0  0  0  0  0
  -30.1747  -13.3187   18.8358 C   0  0  0  0  0  0  0  0  0  0  0  0
  -28.5660  -14.4259   20.3579 C   0  0  0  0  0  0  0  0  0  0  0  0
  -20.2532  -28.2705   22.9946 C   0  0  1  0  0  0  0  0  0  0  0  0
  -28.1620  -21.2519   20.8639 C   0  0  2  0  0  0  0  0  0  0  0  0
  -23.1039  -27.7925   25.4599 C   0  0  1  0  0  0  0  0  0  0  0  0
  -27.5365  -13.3087   20.1298 C   0  0  1  0  0  0  0  0  0  0  0  0
  -29.4341  -21.9462   20.3654 C   0  0  0  0  0  0  0  0  0  0  0  0
  -30.0549  -29.0448   28.0783 C   0  0  0  0  0  0  0  0  0  0  0  0
  -25.6568  -31.9137   24.2754 C   0  0  0  0  0  0  0  0  0  0  0  0
  -28.0454  -31.5981   24.9557 C   0  0  0  0  0  0  0  0  0  0  0  0
  -26.2914  -31.9501   26.6941 C   0  0  0  0  0  0  0  0  0  0  0  0
  -31.5526  -15.4725   23.0702 C   0  0  0  0  0  0  0  0  0  0  0  0
  -29.2393  -25.7514   26.3565 C   0  0  0  0  0  0  0  0  0  0  0  0
  -26.7585  -23.2049   21.7563 C   0  0  0  0  0  0  0  0  0  1  0  0
  -26.3926  -29.7433   25.4645 C   0  0  1  0  0  0  0  0  0  0  0  0
  -29.1601  -28.0200   27.3986 C   0  0  2  0  0  0  0  0  0  0  0  0
  -26.5827  -31.2809   25.3333 C   0  0  0  0  0  0  0  0  0  0  0  0
  -25.8202  -15.0761   20.0163 N   0  0  0  0  0  0  0  0  0  0  0  0
  -26.1162  -13.8035   20.3310 N   0  0  0  0  0  0  0  0  0  0  0  0
  -27.9589  -19.9803   20.1445 N   0  0  2  0  0  0  0  0  0  0  0  0
  -24.5241  -28.1260   25.3337 N   0  0  0  0  0  0  0  0  0  0  0  0
  -29.9373  -13.9406   20.1391 N   0  0  0  0  0  0  0  0  0  0  0  0
  -25.1774  -11.7989   21.1742 N   0  0  0  0  0  0  0  0  0  0  0  0
  -21.6852  -14.6626   21.1672 N   0  0  0  0  0  0  0  0  0  0  0  0
  -21.0806  -27.9730   24.1440 N   0  0  0  0  0  0  0  0  0  0  0  0
  -27.2374  -29.1211   26.4782 N   0  0  0  0  0  0  0  0  0  0  0  0
  -30.8240  -15.4178   21.7986 N   0  0  0  0  0  0  0  0  0  0  0  0
  -29.9959  -26.8473   27.0150 N   0  3  0  0  0  0  0  0  0  0  0  0
  -25.4861  -20.9189   17.7221 O   0  0  0  0  0  0  0  0  0  0  0  0
  -22.3383  -12.5239   21.6751 O   0  0  0  0  0  0  0  0  0  0  0  0
  -23.1332  -28.6029   23.2424 O   0  0  0  0  0  0  0  0  0  0  0  0
  -24.2872  -30.1412   26.4823 O   0  0  0  0  0  0  0  0  0  0  0  0
  -29.0004  -28.6102   25.0611 O   0  0  0  0  0  0  0  0  0  0  0  0
  -32.1232  -13.7350   20.8703 O   0  0  0  0  0  0  0  0  0  0  0  0
  -21.7918  -19.9823   19.5166 O   0  0  0  0  0  0  0  0  0  0  0  0
  -26.0048  -22.6781   22.8475 O   0  0  0  0  0  0  0  0  0  1  0  0
  -18.4237  -21.7128   23.5248 F   0  0  0  0  0  0  0  0  0  0  0  0
  -29.4362  -18.4734   18.3359 F   0  0  0  0  0  0  0  0  0  0  0  0
  -22.2081  -22.4116   20.7688 F   0  0  0  0  0  0  0  0  0  0  0  0
  1  2  1  0  0  0  0
  1  5  2  0  0  0  0
  2  6  2  0  0  0  0
  3 10  2  0  0  0  0
  3 18  1  0  0  0  0
  4 11  1  0  0  0  0
  4 18  2  0  0  0  0
  5 20  1  0  0  0  0
  6 22  1  0  0  0  0
  7 12  2  0  0  0  0
  7 21  1  0  0  0  0
  8  9  2  0  0  0  0
  8 24  1  0  0  0  0
  9 25  1  0  0  0  0
 10 26  1  0  0  0  0
 11 26  2  0  0  0  0
 12 27  1  0  0  0  0
 13 14  2  0  0  0  0
 13 28  1  0  0  0  0
 14 29  1  0  0  0  0
 15 23  1  0  0  0  0
 15 27  2  0  0  0  0
 16 25  2  0  0  0  0
 16 30  1  0  0  0  0
 17 29  2  0  0  0  0
 17 31  1  0  0  0  0
 18 32  1  0  0  0  0
 19 32  1  0  0  0  0
 19 33  2  0  0  0  0
 19 37  1  0  0  0  0
 20 22  2  0  0  0  0
 20 42  1  0  0  0  0
 21 23  2  0  0  0  0
 21 43  1  0  0  0  0
 22 52  1  0  0  0  0
 23 44  1  0  0  0  0
 24 30  2  0  0  0  0
 24 69  1  0  0  0  0
 25 76  1  0  0  0  0
 26 84  1  0  0  0  0
 27 85  1  0  0  0  0
 28 31  2  0  0  0  0
 28 84  1  0  0  0  0
 29 86  1  0  0  0  0
 30 87  1  0  0  0  0
 31 88  1  0  0  0  0
 32 67  2  0  0  0  0
 33 68  1  0  0  0  0
 33 72  1  0  0  0  0
 34 35  2  0  0  0  0
 34 36  1  0  0  0  0
 35 53  1  0  0  0  0
 35 63  1  0  0  0  0
 36 45  1  0  0  0  0
 36 78  2  0  0  0  0
 37 73  1  0  0  0  0
 37 79  2  0  0  0  0
 38 54  1  0  0  0  0
 38 74  1  0  0  0  0
 38 80  2  0  0  0  0
 39 64  1  0  0  0  0
 39 70  1  0  0  0  0
 39 81  2  0  0  0  0
 40 65  1  0  0  0  0
 40 75  1  0  0  0  0
 40 82  2  0  0  0  0
 41 71  1  0  0  0  0
 41 76  1  0  0  0  0
 41 83  2  0  0  0  0
 42 46  1  0  0  0  0
 43 54  1  0  0  0  0
 44 70  1  0  0  0  0
 45 69  1  0  0  0  0
 46 48  1  0  0  0  0
 47 49  1  0  0  0  0
 47 50  1  0  0  0  0
 48 52  1  0  0  0  0
 49 55  1  0  0  0  0
 50 71  1  0  0  0  0
 51 55  1  0  0  0  0
 51 71  1  0  0  0  0
 52 74  1  0  0  0  0
 53 56  1  0  0  0  0
 53 69  1  0  0  0  0
 54 70  1  0  0  0  0
 55 68  1  0  0  0  0
 57 65  1  0  0  0  0
 58 66  1  0  0  0  0
 59 66  1  0  0  0  0
 60 66  1  0  0  0  0
 61 76  1  0  0  0  0
 62 77  1  0  0  0  0
 63 85  1  0  0  0  0
 64 66  1  0  0  0  0
 64 75  1  0  0  0  0
 65 77  1  0  0  0  0
 67 68  1  0  0  0  0
M  CHG  1  77   1
M  ISO  4  41 100  63 101  76 100  85 101
M  END
> <Batch ID>
0093

> <Smiles>
CNC(C)C(=O)NC(C(=O)N1Cc2cc([101O:1][101CH2:1]C3=C(C)N(c4ccc([100N:0](C)[100C:0](=O)N5CCCC(n6nc(-c7ccc(Oc8ccc(F)cc8F)cc7)c(C(N)=O)c6N)C5)cc4F)CC(=O)C3)ccc2CC1C(=O)NC1CCCc2ccccc21)C(C)(C)C

> <Shape>
0.270

> <Color>
0.085

> <Negative vol penalty>
0.000

$$$$

  -OEChem-04052300373D

 85 94  0     1  0  0  0  0  0999 V2000
  -27.4323  -15.2788   34.8656 C   0  0  0  0  0  0  0  0  0  0  0  0
  -27.5431  -16.0474   33.7114 C   0  0  0  0  0  0  0  0  0  0  0  0
  -32.3807  -18.5086   22.1066 C   0  0  0  0  0  0  0  0  0  0  0  0
  -22.6719  -10.1820   20.1913 C   0  0  0  0  0  0  0  0  0  0  0  0
  -24.3046   -9.4560   21.8175 C   0  0  0  0  0  0  0  0  0  0  0  0
  -26.1741  -14.9979   35.3966 C   0  0  0  0  0  0  0  0  0  0  0  0
  -26.3956  -16.5347   33.0868 C   0  0  0  0  0  0  0  0  0  0  0  0
  -26.8391  -21.3918   31.7240 C   0  0  0  0  0  0  0  0  0  0  0  0
  -31.6199  -19.3008   22.9663 C   0  0  0  0  0  0  0  0  0  0  0  0
  -31.8657  -17.3029   21.6303 C   0  0  0  0  0  0  0  0  0  0  0  0
  -21.9379   -9.0158   20.4077 C   0  0  0  0  0  0  0  0  0  0  0  0
  -23.5705   -8.2898   22.0339 C   0  0  0  0  0  0  0  0  0  0  0  0
  -27.5740  -21.6651   30.5711 C   0  0  0  0  0  0  0  0  0  0  0  0
  -20.8023   -7.3719   23.7412 C   0  0  0  0  0  0  0  0  0  0  0  0
  -20.6008   -6.9705   25.0618 C   0  0  0  0  0  0  0  0  0  0  0  0
  -25.5217  -21.8864   29.3228 C   0  0  0  0  0  0  0  0  0  0  0  0
  -21.7367   -4.8883   24.6021 C   0  0  0  0  0  0  0  0  0  0  0  0
  -23.8554  -10.4020   20.8962 C   0  0  0  0  0  0  0  0  0  0  0  0
  -24.1818  -12.9319   20.8656 C   0  0  0  0  0  0  0  0  0  0  0  0
  -25.0111  -15.4900   34.7836 C   0  0  0  0  0  0  0  0  0  0  0  0
  -25.4380  -21.3529   31.6825 C   0  0  0  0  0  0  0  0  0  0  0  0
  -25.1206  -16.2590   33.6093 C   0  0  0  0  0  0  0  0  0  0  0  0
  -24.7713  -21.6149   30.4770 C   0  0  0  0  0  0  0  0  0  0  0  0
  -29.8290  -17.6818   22.8734 C   0  0  0  0  0  0  0  0  0  0  0  0
  -30.3440  -18.8874   23.3497 C   0  0  0  0  0  0  0  0  0  0  0  0
  -30.5899  -16.8895   22.0137 C   0  0  0  0  0  0  0  0  0  0  0  0
  -22.3871   -8.0698   21.3290 C   0  0  0  0  0  0  0  0  0  0  0  0
  -26.9154  -21.9096   29.3696 C   0  0  0  0  0  0  0  0  0  0  0  0
  -21.4710   -6.5315   22.8511 C   0  0  0  0  0  0  0  0  0  0  0  0
  -21.0680   -5.7287   25.4922 C   0  0  0  0  0  0  0  0  0  0  0  0
  -21.9382   -5.2897   23.2815 C   0  0  0  0  0  0  0  0  0  0  0  0
  -24.6144  -11.6062   20.6727 C   0  0  0  0  0  0  0  0  0  0  0  0
  -25.2649  -13.7008   20.5160 C   0  0  0  0  0  0  0  0  0  0  0  0
  -22.9144  -13.4242   21.3203 C   0  0  0  0  0  0  0  0  0  0  0  0
  -23.2386  -19.1248   32.2315 C   0  0  0  0  0  0  0  0  0  0  0  0
  -21.1859  -21.6006   31.8085 C   0  0  0  0  0  0  0  0  0  0  0  0
  -20.8815  -24.4165   29.5734 C   0  0  0  0  0  0  0  0  0  0  0  0
  -30.7272  -14.7715   20.6566 C   0  0  0  0  0  0  0  0  0  0  0  0
  -23.6706  -15.1204   35.3678 C   0  0  0  0  0  0  0  0  0  0  0  0
  -24.6592  -21.0831   32.9406 C   0  0  0  0  0  0  0  0  0  0  0  0
  -23.2681  -21.6050   30.3838 C   0  0  0  0  0  0  0  0  0  0  0  0
  -22.5234  -15.9881   34.8566 C   0  0  0  0  0  0  0  0  0  0  0  0
  -29.5939  -12.4407   18.2152 C   0  0  0  0  0  0  0  0  0  0  0  0
  -22.5991  -16.1341   33.3401 C   0  0  0  0  0  0  0  0  0  0  0  0
  -28.1618  -12.1249   18.6528 C   0  0  0  0  0  0  0  0  0  0  0  0
  -29.0649  -20.3407   26.5335 C   0  0  0  0  0  0  0  0  0  0  0  0
  -27.5989  -21.0773   24.6438 C   0  0  0  0  0  0  0  0  0  0  0  0
  -30.5240  -12.6302   19.4123 C   0  0  0  0  0  0  0  0  0  0  0  0
  -30.1650  -19.9818   25.5365 C   0  0  0  0  0  0  0  0  0  0  0  0
  -28.6995  -20.7121   23.6486 C   0  0  0  0  0  0  0  0  0  0  0  0
  -28.6320  -13.2916   20.8448 C   0  0  0  0  0  0  0  0  0  0  0  0
  -23.9004  -16.8263   32.9169 C   0  0  1  0  0  0  0  0  0  0  0  0
  -23.2511  -20.5614   32.6714 C   0  0  1  0  0  0  0  0  0  0  0  0
  -28.1716  -21.4676   26.0084 C   0  0  0  0  0  0  0  0  0  0  0  0
  -27.6443  -13.1564   19.6744 C   0  0  2  0  0  0  0  0  0  0  0  0
  -28.4590  -17.2387   23.2845 C   0  0  0  0  0  0  0  0  0  0  0  0
  -19.7866  -26.6503   29.9031 C   0  0  0  0  0  0  0  0  0  0  0  0
  -18.7594  -20.2780   30.5151 C   0  0  0  0  0  0  0  0  0  0  0  0
  -18.3062  -22.4335   29.3249 C   0  0  0  0  0  0  0  0  0  0  0  0
  -18.2473  -22.3507   31.8173 C   0  0  0  0  0  0  0  0  0  0  0  0
  -23.3635  -25.8668   28.8696 C   0  0  0  0  0  0  0  0  0  0  0  0
  -27.0527  -21.7814   26.9988 C   0  0  0  0  0  0  0  0  0  1  0  0
  -20.4719  -22.2071   30.6247 C   0  0  1  0  0  0  0  0  0  0  0  0
  -21.0971  -25.8788   29.9193 C   0  0  2  0  0  0  0  0  0  0  0  0
  -18.9713  -21.8042   30.5676 C   0  0  0  0  0  0  0  0  0  0  0  0
  -25.8740  -11.5334   20.2343 N   0  0  0  0  0  0  0  0  0  0  0  0
  -26.2422  -12.8231   20.1488 N   0  0  0  0  0  0  0  0  0  0  0  0
  -29.5957  -19.6981   24.2127 N   0  0  0  0  0  0  0  0  0  0  0  0
  -22.5512  -21.3299   31.6399 N   0  0  0  0  0  0  0  0  0  0  0  0
  -29.9713  -13.6244   20.3347 N   0  0  0  0  0  0  0  0  0  0  0  0
  -25.4670  -15.0353   20.4897 N   0  0  0  0  0  0  0  0  0  0  0  0
  -21.9120  -12.4972   21.6370 N   0  0  0  0  0  0  0  0  0  0  0  0
  -30.0859  -15.6617   21.5174 N   0  0  0  0  0  0  0  0  0  0  0  0
  -23.8093  -18.2534   33.1395 N   0  0  0  0  0  0  0  0  0  0  0  0
  -20.7018  -23.6457   30.7024 N   0  0  0  0  0  0  0  0  0  0  0  0
  -22.0268  -26.5109   28.9410 N   0  3  0  0  0  0  0  0  0  0  0  0
  -22.6722  -14.6505   21.4266 O   0  0  0  0  0  0  0  0  0  0  0  0
  -22.7462  -18.8286   31.1491 O   0  0  0  0  0  0  0  0  0  0  0  0
  -20.5570  -21.3820   32.8469 O   0  0  0  0  0  0  0  0  0  0  0  0
  -20.8697  -24.0003   28.4170 O   0  0  0  0  0  0  0  0  0  0  0  0
  -31.8489  -14.9642   20.1805 O   0  0  0  0  0  0  0  0  0  0  0  0
  -21.6709   -6.9318   21.5406 O   0  0  0  0  0  0  0  0  0  0  0  0
  -27.6302  -22.1759   28.2427 O   0  0  0  0  0  0  0  0  0  1  0  0
  -20.8758   -5.3439   26.7608 F   0  0  0  0  0  0  0  0  0  0  0  0
  -22.5823   -4.4785   22.4313 F   0  0  0  0  0  0  0  0  0  0  0  0
  1  2  1  0  0  0  0
  1  6  2  0  0  0  0
  2  7  2  0  0  0  0
  3  9  2  0  0  0  0
  3 10  1  0  0  0  0
  4 11  2  0  0  0  0
  4 18  1  0  0  0  0
  5 12  1  0  0  0  0
  5 18  2  0  0  0  0
  6 20  1  0  0  0  0
  7 22  1  0  0  0  0
  8 13  2  0  0  0  0
  8 21  1  0  0  0  0
  9 25  1  0  0  0  0
 10 26  2  0  0  0  0
 11 27  1  0  0  0  0
 12 27  2  0  0  0  0
 13 28  1  0  0  0  0
 14 15  2  0  0  0  0
 14 29  1  0  0  0  0
 15 30  1  0  0  0  0
 16 23  1  0  0  0  0
 16 28  2  0  0  0  0
 17 30  2  0  0  0  0
 17 31  1  0  0  0  0
 18 32  1  0  0  0  0
 19 32  1  0  0  0  0
 19 33  2  0  0  0  0
 19 34  1  0  0  0  0
 20 22  2  0  0  0  0
 20 39  1  0  0  0  0
 21 23  2  0  0  0  0
 21 40  1  0  0  0  0
 22 52  1  0  0  0  0
 23 41  1  0  0  0  0
 24 25  2  0  0  0  0
 24 26  1  0  0  0  0
 24 56  1  0  0  0  0
 25 68  1  0  0  0  0
 26 73  1  0  0  0  0
 27 82  1  0  0  0  0
 28 83  1  0  0  0  0
 29 31  2  0  0  0  0
 29 82  1  0  0  0  0
 30 84  1  0  0  0  0
 31 85  1  0  0  0  0
 32 66  2  0  0  0  0
 33 67  1  0  0  0  0
 33 71  1  0  0  0  0
 34 72  1  0  0  0  0
 34 77  2  0  0  0  0
 35 53  1  0  0  0  0
 35 74  1  0  0  0  0
 35 78  2  0  0  0  0
 36 63  1  0  0  0  0
 36 69  1  0  0  0  0
 36 79  2  0  0  0  0
 37 64  1  0  0  0  0
 37 75  1  0  0  0  0
 37 80  2  0  0  0  0
 38 70  1  0  0  0  0
 38 73  1  0  0  0  0
 38 81  2  0  0  0  0
 39 42  1  0  0  0  0
 40 53  1  0  0  0  0
 41 69  1  0  0  0  0
 42 44  1  0  0  0  0
 43 45  1  0  0  0  0
 43 48  1  0  0  0  0
 44 52  1  0  0  0  0
 45 55  1  0  0  0  0
 46 49  1  0  0  0  0
 46 54  1  0  0  0  0
 47 50  1  0  0  0  0
 47 54  1  0  0  0  0
 48 70  1  0  0  0  0
 49 68  1  0  0  0  0
 50 68  1  0  0  0  0
 51 55  1  0  0  0  0
 51 70  1  0  0  0  0
 52 74  1  0  0  0  0
 53 69  1  0  0  0  0
 54 62  1  0  0  0  0
 55 67  1  0  0  0  0
 57 64  1  0  0  0  0
 58 65  1  0  0  0  0
 59 65  1  0  0  0  0
 60 65  1  0  0  0  0
 61 76  1  0  0  0  0
 62 83  1  0  0  0  0
 63 65  1  0  0  0  0
 63 75  1  0  0  0  0
 64 76  1  0  0  0  0
 66 67  1  0  0  0  0
M  CHG  1  76   1
M  ISO  4  38 100  62 101  73 100  83 101
M  END
> <Batch ID>
0093

> <Smiles>
CNC(C)C(=O)NC(C(=O)N1Cc2cc([101O:1][101CH2:1]C3CCN(c4cccc([100NH:0][100C:0](=O)N5CCCC(n6nc(-c7ccc(Oc8ccc(F)cc8F)cc7)c(C(N)=O)c6N)C5)c4C)CC3)ccc2CC1C(=O)NC1CCCc2ccccc21)C(C)(C)C

> <Shape>
0.187

> <Color>
0.200

> <Negative vol penalty>
0.000

$$$$

  -OEChem-04052300373D

 90 99  0     1  0  0  0  0  0999 V2000
  -18.4352  -30.8394   21.8113 C   0  0  0  0  0  0  0  0  0  0  0  0
  -19.8052  -30.8495   21.5698 C   0  0  0  0  0  0  0  0  0  0  0  0
  -26.3028  -12.2328   20.6139 C   0  0  0  0  0  0  0  0  0  0  0  0
  -24.5494  -13.8949   20.6092 C   0  0  0  0  0  0  0  0  0  0  0  0
  -17.8177  -29.6759   22.2684 C   0  0  0  0  0  0  0  0  0  0  0  0
  -20.5588  -29.6964   21.7863 C   0  0  0  0  0  0  0  0  0  0  0  0
  -25.4207  -27.8181   18.5709 C   0  0  0  0  0  0  0  0  0  0  0  0
  -33.5275  -23.3032   18.6683 C   0  0  0  0  0  0  0  0  0  0  0  0
  -33.5629  -23.2195   17.2764 C   0  0  0  0  0  0  0  0  0  0  0  0
  -25.3776  -11.2578   20.9868 C   0  0  0  0  0  0  0  0  0  0  0  0
  -23.6242  -12.9199   20.9820 C   0  0  0  0  0  0  0  0  0  0  0  0
  -26.7925  -27.9258   18.7955 C   0  0  0  0  0  0  0  0  0  0  0  0
  -22.9909   -9.3870   19.4912 C   0  0  0  0  0  0  0  0  0  0  0  0
  -23.0340   -8.1633   18.8232 C   0  0  0  0  0  0  0  0  0  0  0  0
  -31.9130  -24.9783   17.1288 C   0  0  0  0  0  0  0  0  0  0  0  0
  -26.8025  -25.7139   19.7579 C   0  0  0  0  0  0  0  0  0  0  0  0
  -23.4530   -7.0346   20.9178 C   0  0  0  0  0  0  0  0  0  0  0  0
  -25.8887  -13.5514   20.4252 C   0  0  0  0  0  0  0  0  0  0  0  0
  -31.8776  -25.0619   18.5207 C   0  0  0  0  0  0  0  0  0  0  0  0
  -27.2034  -14.9346   18.7323 C   0  0  0  0  0  0  0  0  0  0  0  0
  -18.5624  -28.5051   22.4813 C   0  0  0  0  0  0  0  0  0  0  0  0
  -24.7265  -26.6597   18.9486 C   0  0  0  0  0  0  0  0  0  0  0  0
  -19.9508  -28.5165   22.2479 C   0  0  0  0  0  0  0  0  0  0  0  0
  -25.4225  -25.5928   19.5346 C   0  0  0  0  0  0  0  0  0  0  0  0
  -32.6848  -24.2243   19.2905 C   0  0  0  0  0  0  0  0  0  0  0  0
  -32.7557  -24.0570   16.5066 C   0  0  0  0  0  0  0  0  0  0  0  0
  -24.0383  -11.6014   21.1708 C   0  0  0  0  0  0  0  0  0  0  0  0
  -27.4831  -26.8748   19.3918 C   0  0  0  0  0  0  0  0  0  0  0  0
  -23.1790   -9.4346   20.8725 C   0  0  0  0  0  0  0  0  0  0  0  0
  -23.2650   -6.9871   19.5365 C   0  0  0  0  0  0  0  0  0  0  0  0
  -23.4100   -8.2584   21.5858 C   0  0  0  0  0  0  0  0  0  0  0  0
  -26.8441  -14.5591   20.0406 C   0  0  0  0  0  0  0  0  0  0  0  0
  -28.1400  -15.9244   18.9042 C   0  0  0  0  0  0  0  0  0  0  0  0
  -32.0420  -24.7441   14.1754 C   0  0  0  0  0  0  0  0  0  0  0  0
  -30.9769  -26.0442   19.1472 C   0  0  0  0  0  0  0  0  0  0  0  0
  -29.6444  -26.0629   19.0176 C   0  0  0  0  0  0  0  0  0  1  0  0
  -26.7325  -14.4336   17.4741 C   0  0  0  0  0  0  0  0  0  0  0  0
  -22.3612  -26.0224   20.9742 C   0  0  0  0  0  0  0  0  0  0  0  0
  -29.7028  -20.5797   21.3869 C   0  0  0  0  0  0  0  0  0  0  0  0
  -22.5578  -23.0619   19.6630 C   0  0  0  0  0  0  0  0  0  0  0  0
  -30.8364  -22.8329   21.5902 C   0  0  0  0  0  0  0  0  0  0  0  0
  -24.4439  -20.7404   18.0198 C   0  0  0  0  0  0  0  0  0  0  0  0
  -17.8587  -27.2852   23.0210 C   0  0  0  0  0  0  0  0  0  0  0  0
  -23.2516  -26.5484   18.6750 C   0  0  0  0  0  0  0  0  0  0  0  0
  -24.7272  -24.3198   19.9400 C   0  0  0  0  0  0  0  0  0  0  0  0
  -32.3438  -24.2238   12.7884 C   0  0  0  0  0  0  0  0  0  0  0  0
  -18.6658  -25.9987   22.8675 C   0  0  0  0  0  0  0  0  0  0  0  0
  -33.6595  -23.4929   12.9667 C   0  0  0  0  0  0  0  0  0  0  0  0
  -30.5954  -17.4655   23.0396 C   0  0  0  0  0  0  0  0  0  0  0  0
  -20.1083  -26.2171   23.3127 C   0  0  0  0  0  0  0  0  0  0  0  0
  -29.6987  -16.4651   22.3115 C   0  0  0  0  0  0  0  0  0  0  0  0
  -33.5836  -22.9751   14.3878 C   0  0  0  0  0  0  0  0  0  0  0  0
  -29.9071  -18.8176   23.2075 C   0  0  0  0  0  0  0  0  0  0  0  0
  -28.5260  -18.4119   21.1945 C   0  0  0  0  0  0  0  0  0  0  0  0
  -20.7980  -27.2785   22.4471 C   0  0  1  0  0  0  0  0  0  0  0  0
  -22.5535  -25.5278   19.5685 C   0  0  1  0  0  0  0  0  0  0  0  0
  -29.1950  -17.0442   20.9778 C   0  0  2  0  0  0  0  0  0  0  0  0
  -34.0389  -24.6446   21.3838 C   0  0  0  0  0  0  0  0  0  0  0  0
  -24.3433  -18.4004   17.1190 C   0  0  0  0  0  0  0  0  0  0  0  0
  -22.8347  -21.9622   22.4956 C   0  0  0  0  0  0  0  0  0  0  0  0
  -23.6682  -19.8183   21.5071 C   0  0  0  0  0  0  0  0  0  0  0  0
  -21.3603  -20.6130   20.9923 C   0  0  0  0  0  0  0  0  0  0  0  0
  -24.9396  -21.6609   15.2510 C   0  0  0  0  0  0  0  0  0  0  0  0
  -30.5884  -21.4784   22.2127 C   0  0  0  0  0  0  0  0  0  0  0  0
  -32.6726  -24.2862   20.7841 C   0  0  2  0  0  0  0  0  0  0  0  0
  -23.3396  -21.8071   19.9684 C   0  0  1  0  0  0  0  0  0  0  0  0
  -24.1466  -19.8759   16.8079 C   0  0  2  0  0  0  0  0  0  0  0  0
  -22.8138  -21.0748   21.2351 C   0  0  0  0  0  0  0  0  0  0  0  0
  -27.4992  -15.2536   20.9747 N   0  0  0  0  0  0  0  0  0  0  0  0
  -28.2796  -16.0754   20.2525 N   0  0  0  0  0  0  0  0  0  0  0  0
  -32.7925  -23.9717   15.0834 N   0  0  0  0  0  0  0  0  0  0  0  0
  -23.2835  -24.2615   19.6575 N   0  0  0  0  0  0  0  0  0  0  0  0
  -29.4176  -19.3220   21.9190 N   0  0  0  0  0  0  0  0  0  0  0  0
  -28.8496  -16.6715   18.0320 N   0  0  0  0  0  0  0  0  0  0  0  0
  -25.7688  -13.4160   17.4786 N   0  0  0  0  0  0  0  0  0  0  0  0
  -21.1829  -26.7171   21.1699 N   0  0  0  0  0  0  0  0  0  0  0  0
  -32.1837  -23.0533   21.3746 N   0  0  0  0  0  0  0  0  0  0  0  0
  -23.3059  -20.9994   18.7540 N   0  0  0  0  0  0  0  0  0  0  0  0
  -25.0461  -20.2418   15.6774 N   0  3  0  0  0  0  0  0  0  0  0  0
  -31.2328  -25.6369   14.3812 O   0  0  0  0  0  0  0  0  0  0  0  0
  -27.1659  -14.8639   16.3784 O   0  0  0  0  0  0  0  0  0  0  0  0
  -23.2178  -25.7896   21.8191 O   0  0  0  0  0  0  0  0  0  0  0  0
  -29.2804  -20.9841   20.3005 O   0  0  0  0  0  0  0  0  0  0  0  0
  -21.3491  -22.9798   19.4306 O   0  0  0  0  0  0  0  0  0  0  0  0
  -29.9335  -23.6203   21.3193 O   0  0  0  0  0  0  0  0  0  0  0  0
  -25.5734  -21.1425   18.2903 O   0  0  0  0  0  0  0  0  0  0  0  0
  -23.1352  -10.6502   21.5344 O   0  0  0  0  0  0  0  0  0  0  0  0
  -28.8219  -26.9777   19.6128 O   0  0  0  0  0  0  0  0  0  1  0  0
  -23.3048   -5.8119   18.8951 F   0  0  0  0  0  0  0  0  0  0  0  0
  -23.5901   -8.2976   22.9132 F   0  0  0  0  0  0  0  0  0  0  0  0
  1  2  1  0  0  0  0
  1  5  2  0  0  0  0
  2  6  2  0  0  0  0
  3 10  2  0  0  0  0
  3 18  1  0  0  0  0
  4 11  1  0  0  0  0
  4 18  2  0  0  0  0
  5 21  1  0  0  0  0
  6 23  1  0  0  0  0
  7 12  2  0  0  0  0
  7 22  1  0  0  0  0
  8  9  2  0  0  0  0
  8 25  1  0  0  0  0
  9 26  1  0  0  0  0
 10 27  1  0  0  0  0
 11 27  2  0  0  0  0
 12 28  1  0  0  0  0
 13 14  2  0  0  0  0
 13 29  1  0  0  0  0
 14 30  1  0  0  0  0
 15 19  1  0  0  0  0
 15 26  2  0  0  0  0
 16 24  1  0  0  0  0
 16 28  2  0  0  0  0
 17 30  2  0  0  0  0
 17 31  1  0  0  0  0
 18 32  1  0  0  0  0
 19 25  2  0  0  0  0
 19 35  1  0  0  0  0
 20 32  1  0  0  0  0
 20 33  2  0  0  0  0
 20 37  1  0  0  0  0
 21 23  2  0  0  0  0
 21 43  1  0  0  0  0
 22 24  2  0  0  0  0
 22 44  1  0  0  0  0
 23 55  1  0  0  0  0
 24 45  1  0  0  0  0
 25 65  1  0  0  0  0
 26 71  1  0  0  0  0
 27 87  1  0  0  0  0
 28 88  1  0  0  0  0
 29 31  2  0  0  0  0
 29 87  1  0  0  0  0
 30 89  1  0  0  0  0
 31 90  1  0  0  0  0
 32 69  2  0  0  0  0
 33 70  1  0  0  0  0
 33 74  1  0  0  0  0
 34 46  1  0  0  0  0
 34 71  1  0  0  0  0
 34 80  2  0  0  0  0
 35 36  2  0  0  0  0
 36 88  1  0  0  0  0
 37 75  1  0  0  0  0
 37 81  2  0  0  0  0
 38 56  1  0  0  0  0
 38 76  1  0  0  0  0
 38 82  2  0  0  0  0
 39 64  1  0  0  0  0
 39 73  1  0  0  0  0
 39 83  2  0  0  0  0
 40 66  1  0  0  0  0
 40 72  1  0  0  0  0
 40 84  2  0  0  0  0
 41 64  1  0  0  0  0
 41 77  1  0  0  0  0
 41 85  2  0  0  0  0
 42 67  1  0  0  0  0
 42 78  1  0  0  0  0
 42 86  2  0  0  0  0
 43 47  1  0  0  0  0
 44 56  1  0  0  0  0
 45 72  1  0  0  0  0
 46 48  1  0  0  0  0
 47 50  1  0  0  0  0
 48 52  1  0  0  0  0
 49 51  1  0  0  0  0
 49 53  1  0  0  0  0
 50 55  1  0  0  0  0
 51 57  1  0  0  0  0
 52 71  1  0  0  0  0
 53 73  1  0  0  0  0
 54 57  1  0  0  0  0
 54 73  1  0  0  0  0
 55 76  1  0  0  0  0
 56 72  1  0  0  0  0
 57 70  1  0  0  0  0
 58 65  1  0  0  0  0
 59 67  1  0  0  0  0
 60 68  1  0  0  0  0
 61 68  1  0  0  0  0
 62 68  1  0  0  0  0
 63 79  1  0  0  0  0
 65 77  1  0  0  0  0
 66 68  1  0  0  0  0
 66 78  1  0  0  0  0
 67 79  1  0  0  0  0
 69 70  1  0  0  0  0
M  CHG  1  79   1
M  ISO  4  36 101  39 100  64 100  88 101
M  END
> <Batch ID>
0093

> <Smiles>
CNC(C)C(=O)NC(C(=O)N1Cc2cc([101O:1][101CH:1]=Cc3cc(N4CCCC4=O)ccc3C(C)NC(=O)[100CH2:0][100C:0](=O)N3CCCC(n4nc(-c5ccc(Oc6ccc(F)cc6F)cc5)c(C(N)=O)c4N)C3)ccc2CC1C(=O)NC1CCCc2ccccc21)C(C)(C)C

> <Shape>
0.210

> <Color>
0.061

> <Negative vol penalty>
0.000

$$$$

  -OEChem-04052300373D

 87 96  0     1  0  0  0  0  0999 V2000
  -23.5403  -37.3820   17.7987 C   0  0  0  0  0  0  0  0  0  0  0  0
  -23.5427  -36.1010   17.2561 C   0  0  0  0  0  0  0  0  0  0  0  0
  -23.8075   -8.8126   20.1157 C   0  0  0  0  0  0  0  0  0  0  0  0
  -22.9804  -10.6261   21.4811 C   0  0  0  0  0  0  0  0  0  0  0  0
  -24.2979  -37.6574   18.9363 C   0  0  0  0  0  0  0  0  0  0  0  0
  -24.3037  -35.0948   17.8502 C   0  0  0  0  0  0  0  0  0  0  0  0
  -24.2746  -28.0280   19.0229 C   0  0  0  0  0  0  0  0  0  0  0  0
  -22.9119   -7.9394   20.7330 C   0  0  0  0  0  0  0  0  0  0  0  0
  -22.0848   -9.7529   22.0983 C   0  0  0  0  0  0  0  0  0  0  0  0
  -25.0826  -26.9046   18.8527 C   0  0  0  0  0  0  0  0  0  0  0  0
  -22.6973   -6.2419   23.6479 C   0  0  0  0  0  0  0  0  0  0  0  0
  -23.1803   -4.9966   24.0498 C   0  0  0  0  0  0  0  0  0  0  0  0
  -26.2902  -27.4764   20.8612 C   0  0  0  0  0  0  0  0  0  0  0  0
  -29.9775  -24.0583   19.6587 C   0  0  0  0  0  0  0  0  0  0  0  0
  -28.2419  -19.9169   19.1282 C   0  0  0  0  0  0  0  0  0  0  0  0
  -30.1275  -18.4352   20.5536 C   0  0  0  0  0  0  0  0  0  0  0  0
  -21.5770   -3.9089   22.6064 C   0  0  0  0  0  0  0  0  0  0  0  0
  -23.8418  -10.1559   20.4898 C   0  0  0  0  0  0  0  0  0  0  0  0
  -24.5437  -11.8280   18.6956 C   0  0  0  0  0  0  0  0  0  0  0  0
  -25.0610  -36.6517   19.5503 C   0  0  0  0  0  0  0  0  0  0  0  0
  -24.4757  -28.8914   20.1093 C   0  0  0  0  0  0  0  0  0  0  0  0
  -25.0734  -35.3574   18.9963 C   0  0  0  0  0  0  0  0  0  0  0  0
  -25.4817  -28.6087   21.0443 C   0  0  0  0  0  0  0  0  0  0  0  0
  -28.6748  -24.0846   20.2150 C   0  0  0  0  0  0  0  0  0  0  0  0
  -29.2280  -20.5700   19.8674 C   0  0  0  0  0  0  0  0  0  0  0  0
  -28.1985  -18.5229   19.1016 C   0  0  0  0  0  0  0  0  0  0  0  0
  -29.1413  -17.7821   19.8143 C   0  0  0  0  0  0  0  0  0  0  0  0
  -22.0505   -8.4095   21.7243 C   0  0  0  0  0  0  0  0  0  0  0  0
  -26.0924  -26.6302   19.7703 C   0  0  0  0  0  0  0  0  0  0  0  0
  -21.6541   -6.3207   22.7252 C   0  0  0  0  0  0  0  0  0  0  0  0
  -22.6202   -3.8301   23.5291 C   0  0  0  0  0  0  0  0  0  0  0  0
  -30.1708  -19.8292   20.5802 C   0  0  0  0  0  0  0  0  0  0  0  0
  -21.0940   -5.1542   22.2045 C   0  0  0  0  0  0  0  0  0  0  0  0
  -24.7671  -11.0583   19.8529 C   0  0  0  0  0  0  0  0  0  0  0  0
  -28.2592  -22.7784   20.3508 C   0  0  0  0  0  0  0  0  0  0  0  0
  -25.7205  -12.5099   18.5042 C   0  0  0  0  0  0  0  0  0  0  0  0
  -30.3182  -22.7368   19.4714 C   0  0  0  0  0  0  0  0  0  0  0  0
  -23.3767  -11.9186   17.8676 C   0  0  0  0  0  0  0  0  0  0  0  0
  -25.2637  -31.9547   20.4241 C   0  0  0  0  0  0  0  0  0  0  0  0
  -24.6942  -31.3756   23.5646 C   0  0  0  0  0  0  0  0  0  0  0  0
  -24.5053  -29.1034   26.1039 C   0  0  0  0  0  0  0  0  0  0  0  0
  -29.9908  -15.5001   20.4602 C   0  0  0  0  0  0  0  0  0  0  0  0
  -25.9012  -37.0089   20.7508 C   0  0  0  0  0  0  0  0  0  0  0  0
  -23.5783  -30.0844   20.2934 C   0  0  0  0  0  0  0  0  0  0  0  0
  -25.7254  -29.4930   22.2388 C   0  0  0  0  0  0  0  0  0  0  0  0
  -26.3854  -35.7942   21.5384 C   0  0  0  0  0  0  0  0  0  0  0  0
  -30.2436  -11.9573   20.7085 C   0  0  0  0  0  0  0  0  0  0  0  0
  -26.9449  -34.7344   20.5947 C   0  0  0  0  0  0  0  0  0  0  0  0
  -28.8229  -11.4709   20.4128 C   0  0  0  0  0  0  0  0  0  0  0  0
  -30.2424  -13.2601   21.5062 C   0  0  0  0  0  0  0  0  0  0  0  0
  -28.0191  -13.8571   20.6289 C   0  0  0  0  0  0  0  0  0  0  0  0
  -25.8665  -34.2332   19.6266 C   0  0  1  0  0  0  0  0  0  0  0  0
  -24.2055  -31.1768   21.1539 C   0  0  1  0  0  0  0  0  0  0  0  0
  -27.9689  -12.5821   19.7714 C   0  0  2  0  0  0  0  0  0  0  0  0
  -26.9835  -22.2433   20.8778 C   0  0  0  0  0  0  0  0  0  0  0  0
  -24.0561  -28.9348   28.5670 C   0  0  0  0  0  0  0  0  0  0  0  0
  -27.4751  -32.4887   24.1454 C   0  0  0  0  0  0  0  0  0  0  0  0
  -27.3458  -31.4377   26.4141 C   0  0  0  0  0  0  0  0  0  0  0  0
  -25.7069  -33.2023   25.7636 C   0  0  0  0  0  0  0  0  0  0  0  0
  -22.1640  -27.3447   25.6743 C   0  0  0  0  0  0  0  0  0  0  0  0
  -27.8984  -25.3142   20.5843 C   0  0  0  0  0  0  0  0  0  1  0  0
  -25.5253  -30.9012   24.7321 C   0  0  1  0  0  0  0  0  0  0  0  0
  -23.4523  -28.8725   27.1727 C   0  0  2  0  0  0  0  0  0  0  0  0
  -26.5102  -31.9917   25.2403 C   0  0  0  0  0  0  0  0  0  0  0  0
  -25.9898  -11.2341   20.3610 N   0  0  0  0  0  0  0  0  0  0  0  0
  -29.2660  -21.9679   19.8954 N   0  0  0  0  0  0  0  0  0  0  0  0
  -26.5453  -12.1220   19.5189 N   0  0  0  0  0  0  0  0  0  0  0  0
  -24.8257  -30.6508   22.3716 N   0  0  0  0  0  0  0  0  0  0  0  0
  -29.4168  -14.2673   20.8362 N   0  0  0  0  0  0  0  0  0  0  0  0
  -27.1903  -17.8822   18.3471 N   0  0  0  0  0  0  0  0  0  0  0  0
  -26.1200  -13.3974   17.5687 N   0  0  0  0  0  0  0  0  0  0  0  0
  -22.2550  -11.1501   18.2075 N   0  0  0  0  0  0  0  0  0  0  0  0
  -29.1181  -16.3654   19.8014 N   0  0  0  0  0  0  0  0  0  0  0  0
  -24.9824  -33.3013   20.2932 N   0  0  0  0  0  0  0  0  0  0  0  0
  -24.5817  -30.4314   25.7407 N   0  0  0  0  0  0  0  0  0  0  0  0
  -22.8179  -27.5358   26.9946 N   0  3  0  0  0  0  0  0  0  0  0  0
  -23.3357  -12.6466   16.8469 O   0  0  0  0  0  0  0  0  0  0  0  0
  -26.2622  -31.3763   20.0116 O   0  0  0  0  0  0  0  0  0  0  0  0
  -23.9501  -32.3490   23.7079 O   0  0  0  0  0  0  0  0  0  0  0  0
  -25.1939  -28.1970   25.6404 O   0  0  0  0  0  0  0  0  0  0  0  0
  -31.1771  -15.7577   20.6805 O   0  0  0  0  0  0  0  0  0  0  0  0
  -31.4267  -22.1946   18.9816 O   0  0  0  0  0  0  0  0  0  0  0  0
  -21.1763   -7.5578   22.3266 O   0  0  0  0  0  0  0  0  0  0  0  0
  -26.8829  -25.5348   19.6062 O   0  0  0  0  0  0  0  0  0  1  0  0
  -23.0851   -2.6343   23.9140 F   0  0  0  0  0  0  0  0  0  0  0  0
  -31.1245  -20.4445   21.2945 F   0  0  0  0  0  0  0  0  0  0  0  0
  -20.0924   -5.2236   21.3169 F   0  0  0  0  0  0  0  0  0  0  0  0
  1  2  1  0  0  0  0
  1  5  2  0  0  0  0
  2  6  2  0  0  0  0
  3  8  2  0  0  0  0
  3 18  1  0  0  0  0
  4  9  1  0  0  0  0
  4 18  2  0  0  0  0
  5 20  1  0  0  0  0
  6 22  1  0  0  0  0
  7 10  2  0  0  0  0
  7 21  1  0  0  0  0
  8 28  1  0  0  0  0
  9 28  2  0  0  0  0
 10 29  1  0  0  0  0
 11 12  2  0  0  0  0
 11 30  1  0  0  0  0
 12 31  1  0  0  0  0
 13 23  1  0  0  0  0
 13 29  2  0  0  0  0
 14 24  1  0  0  0  0
 14 37  2  0  0  0  0
 15 25  1  0  0  0  0
 15 26  2  0  0  0  0
 16 27  2  0  0  0  0
 16 32  1  0  0  0  0
 17 31  2  0  0  0  0
 17 33  1  0  0  0  0
 18 34  1  0  0  0  0
 19 34  1  0  0  0  0
 19 36  2  0  0  0  0
 19 38  1  0  0  0  0
 20 22  2  0  0  0  0
 20 43  1  0  0  0  0
 21 23  2  0  0  0  0
 21 44  1  0  0  0  0
 22 52  1  0  0  0  0
 23 45  1  0  0  0  0
 24 35  2  0  0  0  0
 24 61  1  0  0  0  0
 25 32  2  0  0  0  0
 25 66  1  0  0  0  0
 26 27  1  0  0  0  0
 26 70  1  0  0  0  0
 27 73  1  0  0  0  0
 28 83  1  0  0  0  0
 29 84  1  0  0  0  0
 30 33  2  0  0  0  0
 30 83  1  0  0  0  0
 31 85  1  0  0  0  0
 32 86  1  0  0  0  0
 33 87  1  0  0  0  0
 34 65  2  0  0  0  0
 35 55  1  0  0  0  0
 35 66  1  0  0  0  0
 36 67  1  0  0  0  0
 36 71  1  0  0  0  0
 37 66  1  0  0  0  0
 37 82  1  0  0  0  0
 38 72  1  0  0  0  0
 38 77  2  0  0  0  0
 39 53  1  0  0  0  0
 39 74  1  0  0  0  0
 39 78  2  0  0  0  0
 40 62  1  0  0  0  0
 40 68  1  0  0  0  0
 40 79  2  0  0  0  0
 41 63  1  0  0  0  0
 41 75  1  0  0  0  0
 41 80  2  0  0  0  0
 42 69  1  0  0  0  0
 42 73  1  0  0  0  0
 42 81  2  0  0  0  0
 43 46  1  0  0  0  0
 44 53  1  0  0  0  0
 45 68  1  0  0  0  0
 46 48  1  0  0  0  0
 47 49  1  0  0  0  0
 47 50  1  0  0  0  0
 48 52  1  0  0  0  0
 49 54  1  0  0  0  0
 50 69  1  0  0  0  0
 51 54  1  0  0  0  0
 51 69  1  0  0  0  0
 52 74  1  0  0  0  0
 53 68  1  0  0  0  0
 54 67  1  0  0  0  0
 56 63  1  0  0  0  0
 57 64  1  0  0  0  0
 58 64  1  0  0  0  0
 59 64  1  0  0  0  0
 60 76  1  0  0  0  0
 61 84  1  0  0  0  0
 62 64  1  0  0  0  0
 62 75  1  0  0  0  0
 63 76  1  0  0  0  0
 65 67  1  0  0  0  0
M  CHG  1  76   1
M  ISO  4  42 100  61 101  73 100  84 101
M  END
> <Batch ID>
0093

> <Smiles>
CNC(C)C(=O)NC(C(=O)N1Cc2cc([101O:1][101CH2:1]C3=C(C)N(c4cc(N)c([100NH:0][100C:0](=O)N5CCCC(n6nc(-c7ccc(Oc8ccc(F)cc8F)cc7)c(C(N)=O)c6N)C5)cc4F)C(=O)C3)ccc2CC1C(=O)NC1CCCc2ccccc21)C(C)(C)C

> <Shape>
0.316

> <Color>
0.107

> <Negative vol penalty>
0.000

$$$$

  -OEChem-04052300373D

 87 96  0     1  0  0  0  0  0999 V2000
  -28.3653  -11.3436   22.2163 C   0  0  0  0  0  0  0  0  0  0  0  0
  -28.8089  -12.5817   21.7627 C   0  0  0  0  0  0  0  0  0  0  0  0
  -20.9366  -27.0561   22.6352 C   0  0  0  0  0  0  0  0  0  0  0  0
  -19.7179  -29.1239   22.3599 C   0  0  0  0  0  0  0  0  0  0  0  0
  -27.0832  -10.9021   21.8919 C   0  0  0  0  0  0  0  0  0  0  0  0
  -27.9709  -13.3786   20.9836 C   0  0  0  0  0  0  0  0  0  0  0  0
  -27.9963  -18.2287   22.4402 C   0  0  0  0  0  0  0  0  0  0  0  0
  -19.7341  -26.3698   22.8038 C   0  0  0  0  0  0  0  0  0  0  0  0
  -18.5153  -28.4376   22.5284 C   0  0  0  0  0  0  0  0  0  0  0  0
  -29.0862  -19.0052   22.0493 C   0  0  0  0  0  0  0  0  0  0  0  0
  -17.2543  -25.1706   20.8427 C   0  0  0  0  0  0  0  0  0  0  0  0
  -17.0938  -23.9662   20.1577 C   0  0  0  0  0  0  0  0  0  0  0  0
  -27.7715  -19.9360   20.2537 C   0  0  0  0  0  0  0  0  0  0  0  0
  -29.8861  -26.7898   21.6673 C   0  0  0  0  0  0  0  0  0  0  0  0
  -30.8064  -25.6232   23.5723 C   0  0  0  0  0  0  0  0  0  0  0  0
  -16.8065  -22.8093   22.2591 C   0  0  0  0  0  0  0  0  0  0  0  0
  -20.9285  -28.4332   22.4133 C   0  0  0  0  0  0  0  0  0  0  0  0
  -29.9491  -27.8674   23.8287 C   0  0  0  0  0  0  0  0  0  0  0  0
  -22.8505  -29.3829   21.0307 C   0  0  0  0  0  0  0  0  0  0  0  0
  -26.2256  -11.6982   21.1164 C   0  0  0  0  0  0  0  0  0  0  0  0
  -26.7871  -18.2920   21.7329 C   0  0  0  0  0  0  0  0  0  0  0  0
  -26.6766  -12.9468   20.6474 C   0  0  0  0  0  0  0  0  0  0  0  0
  -26.6669  -19.1612   20.6392 C   0  0  0  0  0  0  0  0  0  0  0  0
  -29.6213  -27.8971   22.4732 C   0  0  0  0  0  0  0  0  0  0  0  0
  -30.4786  -25.6529   22.2169 C   0  0  0  0  0  0  0  0  0  0  0  0
  -18.5234  -27.0605   22.7504 C   0  0  0  0  0  0  0  0  0  0  0  0
  -28.9748  -19.8569   20.9542 C   0  0  0  0  0  0  0  0  0  0  0  0
  -17.1910  -25.1944   22.2360 C   0  0  0  0  0  0  0  0  0  0  0  0
  -16.8698  -22.7856   20.8659 C   0  0  0  0  0  0  0  0  0  0  0  0
  -30.5416  -26.7305   24.3783 C   0  0  0  0  0  0  0  0  0  0  0  0
  -16.9670  -24.0137   22.9442 C   0  0  0  0  0  0  0  0  0  0  0  0
  -22.1704  -29.1428   22.2397 C   0  0  0  0  0  0  0  0  0  0  0  0
  -23.9677  -30.0915   21.4000 C   0  0  0  0  0  0  0  0  0  0  0  0
  -30.5245  -24.3337   20.1008 C   0  0  0  0  0  0  0  0  0  0  0  0
  -29.6758  -29.0343   24.7065 C   0  0  0  0  0  0  0  0  0  0  0  0
  -22.5034  -28.9998   19.6934 C   0  0  0  0  0  0  0  0  0  0  0  0
  -25.0494  -16.2136   20.0703 C   0  0  0  0  0  0  0  0  0  0  0  0
  -22.9373  -18.6725   19.9461 C   0  0  0  0  0  0  0  0  0  0  0  0
  -22.3983  -22.0391   20.0964 C   0  0  0  0  0  0  0  0  0  0  0  0
  -27.8623  -30.4567   25.6075 C   0  0  0  0  0  0  0  0  0  0  0  0
  -24.8655  -11.1580   20.7519 C   0  0  0  0  0  0  0  0  0  0  0  0
  -25.6123  -17.4678   22.1836 C   0  0  0  0  0  0  0  0  0  0  0  0
  -25.3843  -19.2811   19.8588 C   0  0  0  0  0  0  0  0  0  0  0  0
  -23.9044  -12.2257   20.2355 C   0  0  0  0  0  0  0  0  0  0  0  0
  -25.2304  -32.8023   25.3472 C   0  0  0  0  0  0  0  0  0  0  0  0
  -24.5950  -13.1114   19.2033 C   0  0  0  0  0  0  0  0  0  0  0  0
  -24.2395  -32.1289   24.3937 C   0  0  0  0  0  0  0  0  0  0  0  0
  -25.8882  -31.7932   26.2874 C   0  0  0  0  0  0  0  0  0  0  0  0
  -31.0732  -23.1856   21.7738 C   0  0  0  0  0  0  0  0  0  0  0  0
  -25.5183  -29.9683   24.6777 C   0  0  0  0  0  0  0  0  0  0  0  0
  -25.7881  -13.8508   19.8207 C   0  0  1  0  0  0  0  0  0  0  0  0
  -30.8690  -22.8384   20.2771 C   0  0  1  0  0  0  0  0  0  0  0  0
  -24.5896  -17.2300   21.0769 C   0  0  1  0  0  0  0  0  0  0  0  0
  -24.8814  -30.9322   23.6635 C   0  0  1  0  0  0  0  0  0  0  0  0
  -28.9863  -29.1017   21.8586 C   0  0  0  0  0  0  0  0  0  0  0  0
  -21.1068  -24.1896   20.1661 C   0  0  0  0  0  0  0  0  0  0  0  0
  -22.9141  -18.3350   16.9137 C   0  0  0  0  0  0  0  0  0  0  0  0
  -21.8686  -20.6032   16.7391 C   0  0  0  0  0  0  0  0  0  0  0  0
  -20.6716  -18.7686   17.9323 C   0  0  0  0  0  0  0  0  0  0  0  0
  -22.1426  -21.9250   23.0427 C   0  0  0  0  0  0  0  0  0  0  0  0
  -29.7507  -21.8681   19.9496 C   0  0  0  0  0  0  0  0  0  1  0  0
  -22.6986  -19.8304   19.0073 C   0  0  1  0  0  0  0  0  0  0  0  0
  -21.3755  -22.8624   20.8583 C   0  0  2  0  0  0  0  0  0  0  0  0
  -22.0631  -19.3808   17.6614 C   0  0  0  0  0  0  0  0  0  0  0  0
  -22.8028  -29.6570   23.2979 N   0  0  0  0  0  0  0  0  0  0  0  0
  -23.8920  -30.2272   22.7551 N   0  0  0  0  0  0  0  0  0  0  0  0
  -30.7399  -24.5601   21.4223 N   0  0  0  0  0  0  0  0  0  0  0  0
  -24.2660  -18.4500   20.3346 N   0  0  0  0  0  0  0  0  0  0  0  0
  -26.4802  -30.6973   25.5181 N   0  0  0  0  0  0  0  0  0  0  0  0
  -24.9976  -30.6054   20.6947 N   0  0  0  0  0  0  0  0  0  0  0  0
  -21.3208  -28.2751   19.4917 N   0  0  0  0  0  0  0  0  0  0  0  0
  -28.3372  -29.4156   24.8020 N   0  0  0  0  0  0  0  0  0  0  0  0
  -25.3324  -14.9740   20.6114 N   0  0  0  0  0  0  0  0  0  0  0  0
  -21.9012  -20.8004   19.7501 N   0  0  0  0  0  0  0  0  0  0  0  0
  -21.8608  -23.1424   22.2392 N   0  3  0  0  0  0  0  0  0  0  0  0
  -30.1652  -25.0436   19.1893 O   0  0  0  0  0  0  0  0  0  0  0  0
  -30.6068  -29.5580   25.3123 O   0  0  0  0  0  0  0  0  0  0  0  0
  -23.2290  -29.2773   18.7085 O   0  0  0  0  0  0  0  0  0  0  0  0
  -25.1392  -16.5301   18.8898 O   0  0  0  0  0  0  0  0  0  0  0  0
  -21.9793  -17.9950   20.3266 O   0  0  0  0  0  0  0  0  0  0  0  0
  -23.5241  -22.4547   19.8314 O   0  0  0  0  0  0  0  0  0  0  0  0
  -28.6151  -31.1346   26.3140 O   0  0  0  0  0  0  0  0  0  0  0  0
  -17.3498  -26.3910   22.9146 O   0  0  0  0  0  0  0  0  0  0  0  0
  -30.0374  -20.6154   20.5701 O   0  0  0  0  0  0  0  0  0  1  0  0
  -16.7142  -21.6293   20.2079 F   0  0  0  0  0  0  0  0  0  0  0  0
  -30.8611  -26.6895   25.6798 F   0  0  0  0  0  0  0  0  0  0  0  0
  -16.9040  -24.0305   24.2827 F   0  0  0  0  0  0  0  0  0  0  0  0
  1  2  1  0  0  0  0
  1  5  2  0  0  0  0
  2  6  2  0  0  0  0
  3  8  2  0  0  0  0
  3 17  1  0  0  0  0
  4  9  1  0  0  0  0
  4 17  2  0  0  0  0
  5 20  1  0  0  0  0
  6 22  1  0  0  0  0
  7 10  2  0  0  0  0
  7 21  1  0  0  0  0
  8 26  1  0  0  0  0
  9 26  2  0  0  0  0
 10 27  1  0  0  0  0
 11 12  2  0  0  0  0
 11 28  1  0  0  0  0
 12 29  1  0  0  0  0
 13 23  1  0  0  0  0
 13 27  2  0  0  0  0
 14 24  2  0  0  0  0
 14 25  1  0  0  0  0
 15 25  2  0  0  0  0
 15 30  1  0  0  0  0
 16 29  2  0  0  0  0
 16 31  1  0  0  0  0
 17 32  1  0  0  0  0
 18 24  1  0  0  0  0
 18 30  2  0  0  0  0
 18 35  1  0  0  0  0
 19 32  1  0  0  0  0
 19 33  2  0  0  0  0
 19 36  1  0  0  0  0
 20 22  2  0  0  0  0
 20 41  1  0  0  0  0
 21 23  2  0  0  0  0
 21 42  1  0  0  0  0
 22 51  1  0  0  0  0
 23 43  1  0  0  0  0
 24 55  1  0  0  0  0
 25 67  1  0  0  0  0
 26 83  1  0  0  0  0
 27 84  1  0  0  0  0
 28 31  2  0  0  0  0
 28 83  1  0  0  0  0
 29 85  1  0  0  0  0
 30 86  1  0  0  0  0
 31 87  1  0  0  0  0
 32 65  2  0  0  0  0
 33 66  1  0  0  0  0
 33 70  1  0  0  0  0
 34 52  1  0  0  0  0
 34 67  1  0  0  0  0
 34 76  2  0  0  0  0
 35 72  1  0  0  0  0
 35 77  2  0  0  0  0
 36 71  1  0  0  0  0
 36 78  2  0  0  0  0
 37 53  1  0  0  0  0
 37 73  1  0  0  0  0
 37 79  2  0  0  0  0
 38 62  1  0  0  0  0
 38 68  1  0  0  0  0
 38 80  2  0  0  0  0
 39 63  1  0  0  0  0
 39 74  1  0  0  0  0
 39 81  2  0  0  0  0
 40 69  1  0  0  0  0
 40 72  1  0  0  0  0
 40 82  2  0  0  0  0
 41 44  1  0  0  0  0
 42 53  1  0  0  0  0
 43 68  1  0  0  0  0
 44 46  1  0  0  0  0
 45 47  1  0  0  0  0
 45 48  1  0  0  0  0
 46 51  1  0  0  0  0
 47 54  1  0  0  0  0
 48 69  1  0  0  0  0
 49 52  1  0  0  0  0
 49 67  1  0  0  0  0
 50 54  1  0  0  0  0
 50 69  1  0  0  0  0
 51 73  1  0  0  0  0
 52 61  1  0  0  0  0
 53 68  1  0  0  0  0
 54 66  1  0  0  0  0
 56 63  1  0  0  0  0
 57 64  1  0  0  0  0
 58 64  1  0  0  0  0
 59 64  1  0  0  0  0
 60 75  1  0  0  0  0
 61 84  1  0  0  0  0
 62 64  1  0  0  0  0
 62 74  1  0  0  0  0
 63 75  1  0  0  0  0
 65 66  1  0  0  0  0
M  CHG  1  75   1
M  ISO  4  40 100  61 101  72 100  84 101
M  END
> <Batch ID>
0093

> <Smiles>
CNC(C)C(=O)NC(C(=O)N1Cc2cc([101O:1][101CH2:1]C3CN(c4cc(C)c(C(=O)[100NH:0][100C:0](=O)N5CCCC(n6nc(-c7ccc(Oc8ccc(F)cc8F)cc7)c(C(N)=O)c6N)C5)c(F)c4)C3=O)ccc2CC1C(=O)NC1CCCc2ccccc21)C(C)(C)C

> <Shape>
0.242

> <Color>
0.076

> <Negative vol penalty>
0.000

$$$$

  -OEChem-04052300373D

 85 94  0     1  0  0  0  0  0999 V2000
  -43.2235  -21.2491   11.0362 C   0  0  0  0  0  0  0  0  0  0  0  0
  -42.5396  -20.6787   12.1050 C   0  0  0  0  0  0  0  0  0  0  0  0
  -23.0753   -9.8687   19.9402 C   0  0  0  0  0  0  0  0  0  0  0  0
  -23.8349   -9.8746   22.2337 C   0  0  0  0  0  0  0  0  0  0  0  0
  -42.9371  -22.5562   10.6446 C   0  0  0  0  0  0  0  0  0  0  0  0
  -41.5696  -21.4156   12.7836 C   0  0  0  0  0  0  0  0  0  0  0  0
  -36.3994  -19.2802   15.2766 C   0  0  0  0  0  0  0  0  0  0  0  0
  -22.3310   -8.7157   20.1897 C   0  0  0  0  0  0  0  0  0  0  0  0
  -23.0906   -8.7216   22.4832 C   0  0  0  0  0  0  0  0  0  0  0  0
  -36.0623  -18.9325   16.5840 C   0  0  0  0  0  0  0  0  0  0  0  0
  -19.8621   -7.9246   23.0850 C   0  0  0  0  0  0  0  0  0  0  0  0
  -19.1050   -7.8845   24.2558 C   0  0  0  0  0  0  0  0  0  0  0  0
  -35.1021  -21.1210   16.9120 C   0  0  0  0  0  0  0  0  0  0  0  0
  -31.8548  -18.3565   24.2040 C   0  0  0  0  0  0  0  0  0  0  0  0
  -32.0645  -16.6059   22.5522 C   0  0  0  0  0  0  0  0  0  0  0  0
  -29.8809  -17.4555   23.1414 C   0  0  0  0  0  0  0  0  0  0  0  0
  -20.3457   -5.9464   24.9917 C   0  0  0  0  0  0  0  0  0  0  0  0
  -23.8273  -10.4481   20.9623 C   0  0  0  0  0  0  0  0  0  0  0  0
  -24.1700  -12.9732   20.8432 C   0  0  0  0  0  0  0  0  0  0  0  0
  -41.9563  -23.3062   11.3126 C   0  0  0  0  0  0  0  0  0  0  0  0
  -36.0995  -20.5568   14.7798 C   0  0  0  0  0  0  0  0  0  0  0  0
  -41.2707  -22.7344   12.4014 C   0  0  0  0  0  0  0  0  0  0  0  0
  -35.4341  -21.4815   15.5971 C   0  0  0  0  0  0  0  0  0  0  0  0
  -32.6525  -17.4898   23.4571 C   0  0  0  0  0  0  0  0  0  0  0  0
  -30.4689  -18.3394   24.0462 C   0  0  0  0  0  0  0  0  0  0  0  0
  -30.6787  -16.5888   22.3944 C   0  0  0  0  0  0  0  0  0  0  0  0
  -22.3386   -8.1422   21.4611 C   0  0  0  0  0  0  0  0  0  0  0  0
  -35.4162  -19.8540   17.4029 C   0  0  0  0  0  0  0  0  0  0  0  0
  -20.8610   -6.9756   22.8675 C   0  0  0  0  0  0  0  0  0  0  0  0
  -19.3468   -6.8954   25.2092 C   0  0  0  0  0  0  0  0  0  0  0  0
  -21.1027   -5.9865   23.8208 C   0  0  0  0  0  0  0  0  0  0  0  0
  -24.5968  -11.6388   20.7051 C   0  0  0  0  0  0  0  0  0  0  0  0
  -25.2625  -13.7224   20.4804 C   0  0  0  0  0  0  0  0  0  0  0  0
  -35.7818  -19.4777   20.9531 C   0  0  0  0  0  0  0  0  0  0  0  0
  -35.9987  -19.7666   19.6664 C   0  0  0  0  0  0  0  0  0  1  0  0
  -22.8997  -13.4893   21.2622 C   0  0  0  0  0  0  0  0  0  0  0  0
  -37.8160  -22.9980   13.6854 C   0  0  0  0  0  0  0  0  0  0  0  0
  -34.8977  -24.2369   12.9993 C   0  0  0  0  0  0  0  0  0  0  0  0
  -31.5498  -24.3016   13.6586 C   0  0  0  0  0  0  0  0  0  0  0  0
  -30.7290  -14.7661   20.6561 C   0  0  0  0  0  0  0  0  0  0  0  0
  -41.7148  -24.7316   10.8832 C   0  0  0  0  0  0  0  0  0  0  0  0
  -36.4459  -20.9071   13.3586 C   0  0  0  0  0  0  0  0  0  0  0  0
  -35.0717  -22.8581   15.1050 C   0  0  0  0  0  0  0  0  0  0  0  0
  -36.7440  -19.7283   22.0757 C   0  0  0  0  0  0  0  0  0  0  0  0
  -34.5625  -18.7977   21.4894 C   0  0  0  0  0  0  0  0  0  0  0  0
  -40.4088  -25.3153   11.4161 C   0  0  0  0  0  0  0  0  0  0  0  0
  -29.6140  -12.3536   18.2868 C   0  0  0  0  0  0  0  0  0  0  0  0
  -40.2526  -25.0058   12.9016 C   0  0  0  0  0  0  0  0  0  0  0  0
  -28.1742  -12.0623   18.7161 C   0  0  0  0  0  0  0  0  0  0  0  0
  -30.5291  -12.5816   19.4886 C   0  0  0  0  0  0  0  0  0  0  0  0
  -28.6222  -13.3062   20.8699 C   0  0  0  0  0  0  0  0  0  0  0  0
  -36.2912  -18.7533   23.1544 C   0  0  0  0  0  0  0  0  0  0  0  0
  -40.1942  -23.4932   13.1467 C   0  0  1  0  0  0  0  0  0  0  0  0
  -36.5526  -22.4106   13.1229 C   0  0  1  0  0  0  0  0  0  0  0  0
  -27.6495  -13.1337   19.6919 C   0  0  2  0  0  0  0  0  0  0  0  0
  -29.4265  -25.4430   12.9615 C   0  0  0  0  0  0  0  0  0  0  0  0
  -35.7250  -26.7243   14.5608 C   0  0  0  0  0  0  0  0  0  0  0  0
  -33.3128  -27.3895   14.6436 C   0  0  0  0  0  0  0  0  0  0  0  0
  -34.4745  -27.1886   12.4453 C   0  0  0  0  0  0  0  0  0  0  0  0
  -30.3287  -21.7510   12.7856 C   0  0  0  0  0  0  0  0  0  0  0  0
  -34.1431  -17.5083   23.6269 C   0  0  0  0  0  0  0  0  0  0  0  0
  -33.8993  -25.0941   13.7392 C   0  0  1  0  0  0  0  0  0  0  0  0
  -30.3414  -24.2483   12.7414 C   0  0  2  0  0  0  0  0  0  0  0  0
  -34.3613  -26.5739   13.8574 C   0  0  0  0  0  0  0  0  0  0  0  0
  -25.8617  -11.5427   20.2869 N   0  0  0  0  0  0  0  0  0  0  0  0
  -26.2391  -12.8262   20.1591 N   0  0  0  0  0  0  0  0  0  0  0  0
  -35.4370  -23.1554   13.7102 N   0  0  0  0  0  0  0  0  0  0  0  0
  -29.9704  -13.6123   20.3663 N   0  0  0  0  0  0  0  0  0  0  0  0
  -29.6624  -19.2160   24.8019 N   0  0  0  0  0  0  0  0  0  0  0  0
  -25.4733  -15.0539   20.4079 N   0  0  0  0  0  0  0  0  0  0  0  0
  -21.8874  -12.5803   21.5990 N   0  0  0  0  0  0  0  0  0  0  0  0
  -30.0819  -15.6911   21.4748 N   0  0  0  0  0  0  0  0  0  0  0  0
  -38.8849  -22.9767   12.8098 N   0  0  0  0  0  0  0  0  0  0  0  0
  -32.6236  -24.9194   13.0532 N   0  0  0  0  0  0  0  0  0  0  0  0
  -34.7907  -18.6871   22.9800 N   0  3  2  0  0  0  0  0  0  0  0  0
  -29.5581  -23.0048   12.9884 N   0  3  0  0  0  0  0  0  0  0  0  0
  -22.6638  -14.7200   21.3200 O   0  0  0  0  0  0  0  0  0  0  0  0
  -37.8204  -23.4393   14.8286 O   0  0  0  0  0  0  0  0  0  0  0  0
  -35.1829  -24.5124   11.8312 O   0  0  0  0  0  0  0  0  0  0  0  0
  -31.5409  -23.8445   14.7994 O   0  0  0  0  0  0  0  0  0  0  0  0
  -31.8582  -14.9346   20.1887 O   0  0  0  0  0  0  0  0  0  0  0  0
  -21.6123   -7.0172   21.7050 O   0  0  0  0  0  0  0  0  0  0  0  0
  -35.0866  -19.5174   18.6796 O   0  0  0  0  0  0  0  0  0  1  0  0
  -18.6207   -6.8579   26.3341 F   0  0  0  0  0  0  0  0  0  0  0  0
  -22.0618   -5.0727   23.6180 F   0  0  0  0  0  0  0  0  0  0  0  0
  1  2  1  0  0  0  0
  1  5  2  0  0  0  0
  2  6  2  0  0  0  0
  3  8  2  0  0  0  0
  3 18  1  0  0  0  0
  4  9  1  0  0  0  0
  4 18  2  0  0  0  0
  5 20  1  0  0  0  0
  6 22  1  0  0  0  0
  7 10  2  0  0  0  0
  7 21  1  0  0  0  0
  8 27  1  0  0  0  0
  9 27  2  0  0  0  0
 10 28  1  0  0  0  0
 11 12  2  0  0  0  0
 11 29  1  0  0  0  0
 12 30  1  0  0  0  0
 13 23  1  0  0  0  0
 13 28  2  0  0  0  0
 14 24  1  0  0  0  0
 14 25  2  0  0  0  0
 15 24  2  0  0  0  0
 15 26  1  0  0  0  0
 16 25  1  0  0  0  0
 16 26  2  0  0  0  0
 17 30  2  0  0  0  0
 17 31  1  0  0  0  0
 18 32  1  0  0  0  0
 19 32  1  0  0  0  0
 19 33  2  0  0  0  0
 19 36  1  0  0  0  0
 20 22  2  0  0  0  0
 20 41  1  0  0  0  0
 21 23  2  0  0  0  0
 21 42  1  0  0  0  0
 22 53  1  0  0  0  0
 23 43  1  0  0  0  0
 24 61  1  0  0  0  0
 25 69  1  0  0  0  0
 26 72  1  0  0  0  0
 27 82  1  0  0  0  0
 28 83  1  0  0  0  0
 29 31  2  0  0  0  0
 29 82  1  0  0  0  0
 30 84  1  0  0  0  0
 31 85  1  0  0  0  0
 32 65  2  0  0  0  0
 33 66  1  0  0  0  0
 33 70  1  0  0  0  0
 34 35  2  0  0  0  0
 34 44  1  0  0  0  0
 34 45  1  0  0  0  0
 35 83  1  0  0  0  0
 36 71  1  0  0  0  0
 36 77  2  0  0  0  0
 37 54  1  0  0  0  0
 37 73  1  0  0  0  0
 37 78  2  0  0  0  0
 38 62  1  0  0  0  0
 38 67  1  0  0  0  0
 38 79  2  0  0  0  0
 39 63  1  0  0  0  0
 39 74  1  0  0  0  0
 39 80  2  0  0  0  0
 40 68  1  0  0  0  0
 40 72  1  0  0  0  0
 40 81  2  0  0  0  0
 41 46  1  0  0  0  0
 42 54  1  0  0  0  0
 43 67  1  0  0  0  0
 44 52  1  0  0  0  0
 45 75  1  0  0  0  0
 46 48  1  0  0  0  0
 47 49  1  0  0  0  0
 47 50  1  0  0  0  0
 48 53  1  0  0  0  0
 49 55  1  0  0  0  0
 50 68  1  0  0  0  0
 51 55  1  0  0  0  0
 51 68  1  0  0  0  0
 52 75  1  0  0  0  0
 53 73  1  0  0  0  0
 54 67  1  0  0  0  0
 55 66  1  0  0  0  0
 56 63  1  0  0  0  0
 57 64  1  0  0  0  0
 58 64  1  0  0  0  0
 59 64  1  0  0  0  0
 60 76  1  0  0  0  0
 61 75  1  0  0  0  0
 62 64  1  0  0  0  0
 62 74  1  0  0  0  0
 63 76  1  0  0  0  0
 65 66  1  0  0  0  0
M  CHG  2  75   1  76   1
M  ISO  4  35 101  40 100  72 100  83 101
M  END
> <Batch ID>
0093

> <Smiles>
CNC(C)C(=O)NC(C(=O)N1Cc2cc([101O:1][101CH:1]=C3CCN(Cc4cc(N)cc([100NH:0][100C:0](=O)N5CCCC(n6nc(-c7ccc(Oc8ccc(F)cc8F)cc7)c(C(N)=O)c6N)C5)c4)C3)ccc2CC1C(=O)NC1CCCc2ccccc21)C(C)(C)C

> <Shape>
0.165

> <Color>
0.180

> <Negative vol penalty>
0.000

$$$$

  -OEChem-04052300373D

 86 95  0     1  0  0  0  0  0999 V2000
  -15.4006  -30.0774   23.7804 C   0  0  0  0  0  0  0  0  0  0  0  0
  -16.1870  -28.9796   23.4460 C   0  0  0  0  0  0  0  0  0  0  0  0
  -22.6563  -10.1345   20.1815 C   0  0  0  0  0  0  0  0  0  0  0  0
  -24.4132   -9.2744   21.5994 C   0  0  0  0  0  0  0  0  0  0  0  0
  -28.8602  -17.3937   22.6260 C   0  0  0  0  0  0  0  0  0  0  0  0
  -15.8272  -31.3642   23.4547 C   0  0  0  0  0  0  0  0  0  0  0  0
  -17.4000  -29.1679   22.7846 C   0  0  0  0  0  0  0  0  0  0  0  0
  -22.5138  -25.8670   23.4622 C   0  0  0  0  0  0  0  0  0  0  0  0
  -28.0984  -18.5388   22.3936 C   0  0  0  0  0  0  0  0  0  0  0  0
  -21.9554   -8.9370   20.3235 C   0  0  0  0  0  0  0  0  0  0  0  0
  -23.7123   -8.0768   21.7415 C   0  0  0  0  0  0  0  0  0  0  0  0
  -23.0607  -24.8216   22.7193 C   0  0  0  0  0  0  0  0  0  0  0  0
  -21.0890   -6.9256   23.5341 C   0  0  0  0  0  0  0  0  0  0  0  0
  -20.9901   -6.3823   24.8149 C   0  0  0  0  0  0  0  0  0  0  0  0
  -29.1172  -17.0813   20.2441 C   0  0  0  0  0  0  0  0  0  0  0  0
  -24.4519  -26.3980   21.5366 C   0  0  0  0  0  0  0  0  0  0  0  0
  -22.1164   -4.3847   24.0545 C   0  0  0  0  0  0  0  0  0  0  0  0
  -23.8853  -10.3032   20.8194 C   0  0  0  0  0  0  0  0  0  0  0  0
  -29.3697  -16.6650   21.5512 C   0  0  0  0  0  0  0  0  0  0  0  0
  -24.1755  -12.8283   21.0371 C   0  0  0  0  0  0  0  0  0  0  0  0
  -17.0507  -31.5691   22.7976 C   0  0  0  0  0  0  0  0  0  0  0  0
  -22.9246  -27.1892   23.2399 C   0  0  0  0  0  0  0  0  0  0  0  0
  -17.8428  -30.4586   22.4486 C   0  0  0  0  0  0  0  0  0  0  0  0
  -23.9105  -27.4581   22.2798 C   0  0  0  0  0  0  0  0  0  0  0  0
  -27.8459  -18.9551   21.0865 C   0  0  0  0  0  0  0  0  0  0  0  0
  -22.4833   -7.9081   21.1035 C   0  0  0  0  0  0  0  0  0  0  0  0
  -24.0278  -25.0874   21.7544 C   0  0  0  0  0  0  0  0  0  0  0  0
  -21.7015   -6.1984   22.5134 C   0  0  0  0  0  0  0  0  0  0  0  0
  -21.5038   -5.1118   25.0751 C   0  0  0  0  0  0  0  0  0  0  0  0
  -28.3553  -18.2264   20.0117 C   0  0  0  0  0  0  0  0  0  0  0  0
  -22.2152   -4.9280   22.7736 C   0  0  0  0  0  0  0  0  0  0  0  0
  -24.6101  -11.5398   20.6727 C   0  0  0  0  0  0  0  0  0  0  0  0
  -25.2199  -13.6523   20.6954 C   0  0  0  0  0  0  0  0  0  0  0  0
  -25.7805  -22.0287   21.0879 C   0  0  0  0  0  0  0  0  0  0  0  0
  -26.4919  -20.9534   21.8290 C   0  0  0  0  0  0  0  0  0  0  0  0
  -25.2179  -23.0746   21.6982 C   0  0  0  0  0  0  0  0  0  1  0  0
  -30.1638  -15.4710   21.7935 C   0  0  0  0  0  0  0  0  0  0  0  0
  -22.9385  -13.2432   21.6315 C   0  0  0  0  0  0  0  0  0  0  0  0
  -30.7195  -14.6745   20.6755 C   0  0  0  0  0  0  0  0  0  0  0  0
  -21.4839  -29.8539   22.2767 C   0  0  0  0  0  0  0  0  0  0  0  0
  -24.3558  -31.1937   22.9691 C   0  0  0  0  0  0  0  0  0  0  0  0
  -27.7210  -30.7890   23.3673 C   0  0  0  0  0  0  0  0  0  0  0  0
  -17.4475  -32.9754   22.4241 C   0  0  0  0  0  0  0  0  0  0  0  0
  -22.3442  -28.3025   24.0681 C   0  0  0  0  0  0  0  0  0  0  0  0
  -24.4005  -28.8578   22.0168 C   0  0  0  0  0  0  0  0  0  0  0  0
  -25.8250  -21.7627   19.6239 C   0  0  0  0  0  0  0  0  0  0  0  0
  -18.9226  -33.1147   22.0568 C   0  0  0  0  0  0  0  0  0  0  0  0
  -29.3694  -12.7648   17.9576 C   0  0  0  0  0  0  0  0  0  0  0  0
  -19.3424  -32.0021   21.1015 C   0  0  0  0  0  0  0  0  0  0  0  0
  -27.9903  -12.3494   18.4688 C   0  0  0  0  0  0  0  0  0  0  0  0
  -26.8402  -20.6378   19.5077 C   0  0  0  0  0  0  0  0  0  0  0  0
  -30.3911  -12.8189   19.0888 C   0  0  0  0  0  0  0  0  0  0  0  0
  -28.6035  -13.2890   20.7418 C   0  0  0  0  0  0  0  0  0  0  0  0
  -19.1766  -30.6238   21.7530 C   0  0  1  0  0  0  0  0  0  0  0  0
  -22.4641  -29.6690   23.4004 C   0  0  1  0  0  0  0  0  0  0  0  0
  -27.5383  -13.2500   19.6322 C   0  0  2  0  0  0  0  0  0  0  0  0
  -29.8107  -32.0740   23.8954 C   0  0  0  0  0  0  0  0  0  0  0  0
  -24.3593  -32.3447   20.1433 C   0  0  0  0  0  0  0  0  0  0  0  0
  -26.8105  -32.7845   20.4003 C   0  0  0  0  0  0  0  0  0  0  0  0
  -25.1774  -33.9143   21.9100 C   0  0  0  0  0  0  0  0  0  0  0  0
  -28.2347  -29.1804   25.7978 C   0  0  0  0  0  0  0  0  0  0  0  0
  -25.6314  -31.4443   22.2016 C   0  0  1  0  0  0  0  0  0  0  0  0
  -28.6679  -31.2461   24.4622 C   0  0  2  0  0  0  0  0  0  0  0  0
  -25.4842  -32.5957   21.1672 C   0  0  0  0  0  0  0  0  0  0  0  0
  -25.8350  -11.5402   20.1401 N   0  0  0  0  0  0  0  0  0  0  0  0
  -30.4405  -15.0248   22.9891 N   0  0  0  0  0  0  0  0  0  0  0  0
  -26.1790  -12.8391   20.1673 N   0  0  0  0  0  0  0  0  0  0  0  0
  -27.0642  -20.1288   20.8517 N   0  0  0  0  0  0  0  0  0  0  0  0
  -29.9154  -13.6522   20.1913 N   0  0  0  0  0  0  0  0  0  0  0  0
  -23.7980  -29.9130   22.8480 N   0  0  0  0  0  0  0  0  0  0  0  0
  -25.4021  -14.9860   20.7981 N   0  0  0  0  0  0  0  0  0  0  0  0
  -22.8495  -13.2838   23.0296 N   0  0  0  0  0  0  0  0  0  0  0  0
  -20.2633  -30.3659   22.6734 N   0  0  0  0  0  0  0  0  0  0  0  0
  -26.6714  -31.6675   23.2002 N   0  0  0  0  0  0  0  0  0  0  0  0
  -29.2463  -30.0698   25.1713 N   0  3  0  0  0  0  0  0  0  0  0  0
  -26.5234  -20.8874   23.0466 O   0  0  0  0  0  0  0  0  0  0  0  0
  -21.9364  -13.5525   20.9433 O   0  0  0  0  0  0  0  0  0  0  0  0
  -31.8355  -15.0049   20.2963 O   0  0  0  0  0  0  0  0  0  0  0  0
  -21.8114  -29.5555   21.1341 O   0  0  0  0  0  0  0  0  0  0  0  0
  -23.8759  -32.0986   23.6565 O   0  0  0  0  0  0  0  0  0  0  0  0
  -27.8969  -29.7578   22.7221 O   0  0  0  0  0  0  0  0  0  0  0  0
  -21.7995   -6.7395   21.2424 O   0  0  0  0  0  0  0  0  0  0  0  0
  -24.5629  -24.0689   21.0274 O   0  0  0  0  0  0  0  0  0  1  0  0
  -21.4102   -4.5908   26.3056 F   0  0  0  0  0  0  0  0  0  0  0  0
  -28.1187  -18.6167   18.7509 F   0  0  0  0  0  0  0  0  0  0  0  0
  -22.8058   -4.2251   21.7974 F   0  0  0  0  0  0  0  0  0  0  0  0
  1  2  1  0  0  0  0
  1  6  2  0  0  0  0
  2  7  2  0  0  0  0
  3 10  2  0  0  0  0
  3 18  1  0  0  0  0
  4 11  1  0  0  0  0
  4 18  2  0  0  0  0
  5  9  2  0  0  0  0
  5 19  1  0  0  0  0
  6 21  1  0  0  0  0
  7 23  1  0  0  0  0
  8 12  2  0  0  0  0
  8 22  1  0  0  0  0
  9 25  1  0  0  0  0
 10 26  1  0  0  0  0
 11 26  2  0  0  0  0
 12 27  1  0  0  0  0
 13 14  2  0  0  0  0
 13 28  1  0  0  0  0
 14 29  1  0  0  0  0
 15 19  2  0  0  0  0
 15 30  1  0  0  0  0
 16 24  1  0  0  0  0
 16 27  2  0  0  0  0
 17 29  2  0  0  0  0
 17 31  1  0  0  0  0
 18 32  1  0  0  0  0
 19 37  1  0  0  0  0
 20 32  1  0  0  0  0
 20 33  2  0  0  0  0
 20 38  1  0  0  0  0
 21 23  2  0  0  0  0
 21 43  1  0  0  0  0
 22 24  2  0  0  0  0
 22 44  1  0  0  0  0
 23 54  1  0  0  0  0
 24 45  1  0  0  0  0
 25 30  2  0  0  0  0
 25 68  1  0  0  0  0
 26 82  1  0  0  0  0
 27 83  1  0  0  0  0
 28 31  2  0  0  0  0
 28 82  1  0  0  0  0
 29 84  1  0  0  0  0
 30 85  1  0  0  0  0
 31 86  1  0  0  0  0
 32 65  2  0  0  0  0
 33 67  1  0  0  0  0
 33 71  1  0  0  0  0
 34 35  1  0  0  0  0
 34 36  2  0  0  0  0
 34 46  1  0  0  0  0
 35 68  1  0  0  0  0
 35 76  2  0  0  0  0
 36 83  1  0  0  0  0
 37 39  1  0  0  0  0
 37 66  2  0  0  0  0
 38 72  1  0  0  0  0
 38 77  2  0  0  0  0
 39 69  1  0  0  0  0
 39 78  2  0  0  0  0
 40 55  1  0  0  0  0
 40 73  1  0  0  0  0
 40 79  2  0  0  0  0
 41 62  1  0  0  0  0
 41 70  1  0  0  0  0
 41 80  2  0  0  0  0
 42 63  1  0  0  0  0
 42 74  1  0  0  0  0
 42 81  2  0  0  0  0
 43 47  1  0  0  0  0
 44 55  1  0  0  0  0
 45 70  1  0  0  0  0
 46 51  1  0  0  0  0
 47 49  1  0  0  0  0
 48 50  1  0  0  0  0
 48 52  1  0  0  0  0
 49 54  1  0  0  0  0
 50 56  1  0  0  0  0
 51 68  1  0  0  0  0
 52 69  1  0  0  0  0
 53 56  1  0  0  0  0
 53 69  1  0  0  0  0
 54 73  1  0  0  0  0
 55 70  1  0  0  0  0
 56 67  1  0  0  0  0
 57 63  1  0  0  0  0
 58 64  1  0  0  0  0
 59 64  1  0  0  0  0
 60 64  1  0  0  0  0
 61 75  1  0  0  0  0
 62 64  1  0  0  0  0
 62 74  1  0  0  0  0
 63 75  1  0  0  0  0
 65 67  1  0  0  0  0
M  CHG  1  75   1
M  ISO  4  36 101  37 100  39 100  83 101
M  END
> <Batch ID>
0093

> <Smiles>
CNC(C)C(=O)NC(C(=O)N1Cc2cc([101O:1][101CH:1]=C3CCN(c4ccc([100C:0](=N)[100C:0](=O)N5CCCC(n6nc(-c7ccc(Oc8ccc(F)cc8F)cc7)c(C(N)=O)c6N)C5)cc4F)C3=O)ccc2CC1C(=O)NC1CCCc2ccccc21)C(C)(C)C

> <Shape>
0.348

> <Color>
0.194

> <Negative vol penalty>
0.000

$$$$

  -OEChem-04052300373D

 84 92  0     1  0  0  0  0  0999 V2000
  -29.7139  -21.6754   22.2975 C   0  0  0  0  0  0  0  0  0  0  0  0
  -28.3364  -21.7404   22.1142 C   0  0  0  0  0  0  0  0  0  0  0  0
  -18.0809  -28.8600   23.0911 C   0  0  0  0  0  0  0  0  0  0  0  0
  -30.0838  -27.3418   18.6339 C   0  0  0  0  0  0  0  0  0  0  0  0
  -29.7288  -26.1930   20.7295 C   0  0  0  0  0  0  0  0  0  0  0  0
  -17.7191  -27.5247   22.9140 C   0  0  0  0  0  0  0  0  0  0  0  0
  -30.4155  -20.5368   21.9034 C   0  0  0  0  0  0  0  0  0  0  0  0
  -27.6597  -20.6671   21.5357 C   0  0  0  0  0  0  0  0  0  0  0  0
  -23.3896  -19.5076   23.9988 C   0  0  0  0  0  0  0  0  0  0  0  0
  -19.3960  -29.2630   22.8589 C   0  0  0  0  0  0  0  0  0  0  0  0
  -31.4503  -27.0757   18.7195 C   0  0  0  0  0  0  0  0  0  0  0  0
  -31.0954  -25.9268   20.8150 C   0  0  0  0  0  0  0  0  0  0  0  0
  -22.2810  -20.3211   23.7688 C   0  0  0  0  0  0  0  0  0  0  0  0
  -34.4408  -24.6316   21.4057 C   0  0  0  0  0  0  0  0  0  0  0  0
  -34.8296  -23.3433   21.7726 C   0  0  0  0  0  0  0  0  0  0  0  0
  -21.4035  -18.6809   22.2330 C   0  0  0  0  0  0  0  0  0  0  0  0
  -33.6850  -22.4481   19.8424 C   0  0  0  0  0  0  0  0  0  0  0  0
  -29.2230  -26.9005   19.6390 C   0  0  0  0  0  0  0  0  0  0  0  0
  -18.6723  -26.5921   22.5049 C   0  0  0  0  0  0  0  0  0  0  0  0
  -26.8251  -26.3746   18.9454 C   0  0  0  0  0  0  0  0  0  0  0  0
  -29.7458  -19.4451   21.3287 C   0  0  0  0  0  0  0  0  0  0  0  0
  -23.5191  -18.2775   23.3381 C   0  0  0  0  0  0  0  0  0  0  0  0
  -28.3532  -19.5133   21.1324 C   0  0  0  0  0  0  0  0  0  0  0  0
  -22.5135  -17.8525   22.4582 C   0  0  0  0  0  0  0  0  0  0  0  0
  -20.3492  -28.3305   22.4498 C   0  0  0  0  0  0  0  0  0  0  0  0
  -31.9561  -26.3681   19.8100 C   0  0  0  0  0  0  0  0  0  0  0  0
  -21.2891  -19.9091   22.8836 C   0  0  0  0  0  0  0  0  0  0  0  0
  -33.6740  -24.8282   20.2571 C   0  0  0  0  0  0  0  0  0  0  0  0
  -34.4517  -22.2516   20.9910 C   0  0  0  0  0  0  0  0  0  0  0  0
  -33.2962  -23.7365   19.4755 C   0  0  0  0  0  0  0  0  0  0  0  0
  -19.9874  -26.9951   22.2728 C   0  0  0  0  0  0  0  0  0  0  0  0
  -27.8114  -27.1757   19.5514 C   0  0  0  0  0  0  0  0  0  0  0  0
  -25.6558  -27.0711   19.1301 C   0  0  0  0  0  0  0  0  0  0  0  0
  -18.2819  -25.1715   22.3175 C   0  0  0  0  0  0  0  0  0  0  0  0
  -26.9544  -25.1136   18.2754 C   0  0  0  0  0  0  0  0  0  0  0  0
  -25.6131  -17.0396   21.2921 C   0  0  0  0  0  0  0  0  0  0  0  0
  -23.8574  -14.3470   21.7273 C   0  0  0  0  0  0  0  0  0  0  0  0
  -19.1136  -22.8514   22.4613 C   0  0  0  0  0  0  0  0  0  0  0  0
  -20.8719  -12.9452   22.6039 C   0  0  0  0  0  0  0  0  0  0  0  0
  -22.2051  -30.0308   22.3450 C   0  0  0  0  0  0  0  0  0  0  0  0
  -30.5535  -18.2549   20.8752 C   0  0  0  0  0  0  0  0  0  0  0  0
  -24.7080  -17.3994   23.6174 C   0  0  0  0  0  0  0  0  0  0  0  0
  -22.5951  -16.5315   21.7393 C   0  0  0  0  0  0  0  0  0  0  0  0
  -29.7095  -17.0102   20.6132 C   0  0  0  0  0  0  0  0  0  0  0  0
  -24.8588  -31.7969   20.7588 C   0  0  0  0  0  0  0  0  0  0  0  0
  -28.4780  -17.3647   19.7858 C   0  0  0  0  0  0  0  0  0  0  0  0
  -25.7824  -30.6862   20.2534 C   0  0  0  0  0  0  0  0  0  0  0  0
  -24.2344  -31.4453   22.1080 C   0  0  0  0  0  0  0  0  0  0  0  0
  -24.4732  -29.0364   21.6503 C   0  0  0  0  0  0  0  0  0  0  0  0
  -27.5802  -18.3596   20.5312 C   0  0  1  0  0  0  0  0  0  0  0  0
  -24.9883  -16.3999   22.4995 C   0  0  1  0  0  0  0  0  0  0  0  0
  -25.0750  -29.3169   20.2636 C   0  0  2  0  0  0  0  0  0  0  0  0
  -19.7291  -10.7220   22.8258 C   0  0  0  0  0  0  0  0  0  0  0  0
  -23.5663  -14.1966   18.6937 C   0  0  0  0  0  0  0  0  0  0  0  0
  -21.6865  -12.5764   19.0242 C   0  0  0  0  0  0  0  0  0  0  0  0
  -23.9817  -11.9986   19.8122 C   0  0  0  0  0  0  0  0  0  0  0  0
  -20.4172  -13.3376   25.5019 C   0  0  0  0  0  0  0  0  0  0  0  0
  -20.3970  -22.1109   22.7736 C   0  0  0  0  0  0  0  0  0  1  0  0
  -22.6444  -13.7425   21.0623 C   0  0  1  0  0  0  0  0  0  0  0  0
  -20.5336  -11.7978   23.5386 C   0  0  2  0  0  0  0  0  0  0  0  0
  -22.9688  -13.1543   19.6600 C   0  0  0  0  0  0  0  0  0  0  0  0
  -27.3122  -28.2955   20.0814 N   0  0  0  0  0  0  0  0  0  0  0  0
  -25.9994  -28.2031   19.8088 N   0  0  0  0  0  0  0  0  0  0  0  0
  -23.7800  -15.7114   22.0408 N   0  0  0  0  0  0  0  0  0  0  0  0
  -23.5788  -30.1375   22.0408 N   0  0  0  0  0  0  0  0  0  0  0  0
  -24.3775  -26.8195   18.7764 N   0  0  0  0  0  0  0  0  0  0  0  0
  -28.2283  -24.5379   18.1748 N   0  0  0  0  0  0  0  0  0  0  0  0
  -21.6841  -28.7439   22.2152 N   0  0  0  0  0  0  0  0  0  0  0  0
  -19.2857  -24.2335   22.5526 N   0  0  0  0  0  0  0  0  0  0  0  0
  -26.8101  -17.6799   21.5506 N   0  0  0  0  0  0  0  0  0  0  0  0
  -22.1025  -12.7715   22.0067 N   0  0  0  0  0  0  0  0  0  0  0  0
  -19.7360  -12.2912   24.6968 N   0  3  0  0  0  0  0  0  0  0  0  0
  -17.1252  -24.9060   22.0021 O   0  0  0  0  0  0  0  0  0  0  0  0
  -25.9719  -24.5229   17.7663 O   0  0  0  0  0  0  0  0  0  0  0  0
  -25.0516  -16.9571   20.2060 O   0  0  0  0  0  0  0  0  0  0  0  0
  -24.8346  -13.6333   21.9665 O   0  0  0  0  0  0  0  0  0  0  0  0
  -18.0698  -22.2764   22.1656 O   0  0  0  0  0  0  0  0  0  0  0  0
  -20.1181  -13.8981   22.4190 O   0  0  0  0  0  0  0  0  0  0  0  0
  -21.5339  -31.0140   22.6685 O   0  0  0  0  0  0  0  0  0  0  0  0
  -33.2895  -26.1080   19.8937 O   0  0  0  0  0  0  0  0  0  0  0  0
  -20.2063  -20.7016   22.6569 O   0  0  0  0  0  0  0  0  0  1  0  0
  -34.8264  -21.0146   21.3427 F   0  0  0  0  0  0  0  0  0  0  0  0
  -32.5606  -23.9192   18.3703 F   0  0  0  0  0  0  0  0  0  0  0  0
  -20.9048  -26.0978   21.8806 F   0  0  0  0  0  0  0  0  0  0  0  0
  1  2  1  0  0  0  0
  1  7  2  0  0  0  0
  2  8  2  0  0  0  0
  3  6  2  0  0  0  0
  3 10  1  0  0  0  0
  4 11  2  0  0  0  0
  4 18  1  0  0  0  0
  5 12  1  0  0  0  0
  5 18  2  0  0  0  0
  6 19  1  0  0  0  0
  7 21  1  0  0  0  0
  8 23  1  0  0  0  0
  9 13  2  0  0  0  0
  9 22  1  0  0  0  0
 10 25  2  0  0  0  0
 11 26  1  0  0  0  0
 12 26  2  0  0  0  0
 13 27  1  0  0  0  0
 14 15  2  0  0  0  0
 14 28  1  0  0  0  0
 15 29  1  0  0  0  0
 16 24  1  0  0  0  0
 16 27  2  0  0  0  0
 17 29  2  0  0  0  0
 17 30  1  0  0  0  0
 18 32  1  0  0  0  0
 19 31  2  0  0  0  0
 19 34  1  0  0  0  0
 20 32  1  0  0  0  0
 20 33  2  0  0  0  0
 20 35  1  0  0  0  0
 21 23  2  0  0  0  0
 21 41  1  0  0  0  0
 22 24  2  0  0  0  0
 22 42  1  0  0  0  0
 23 50  1  0  0  0  0
 24 43  1  0  0  0  0
 25 31  1  0  0  0  0
 25 68  1  0  0  0  0
 26 80  1  0  0  0  0
 27 81  1  0  0  0  0
 28 30  2  0  0  0  0
 28 80  1  0  0  0  0
 29 82  1  0  0  0  0
 30 83  1  0  0  0  0
 31 84  1  0  0  0  0
 32 62  2  0  0  0  0
 33 63  1  0  0  0  0
 33 66  1  0  0  0  0
 34 69  1  0  0  0  0
 34 73  2  0  0  0  0
 35 67  1  0  0  0  0
 35 74  2  0  0  0  0
 36 51  1  0  0  0  0
 36 70  1  0  0  0  0
 36 75  2  0  0  0  0
 37 59  1  0  0  0  0
 37 64  1  0  0  0  0
 37 76  2  0  0  0  0
 38 58  1  0  0  0  0
 38 69  1  0  0  0  0
 38 77  2  0  0  0  0
 39 60  1  0  0  0  0
 39 71  1  0  0  0  0
 39 78  2  0  0  0  0
 40 65  1  0  0  0  0
 40 68  1  0  0  0  0
 40 79  2  0  0  0  0
 41 44  1  0  0  0  0
 42 51  1  0  0  0  0
 43 64  1  0  0  0  0
 44 46  1  0  0  0  0
 45 47  1  0  0  0  0
 45 48  1  0  0  0  0
 46 50  1  0  0  0  0
 47 52  1  0  0  0  0
 48 65  1  0  0  0  0
 49 52  1  0  0  0  0
 49 65  1  0  0  0  0
 50 70  1  0  0  0  0
 51 64  1  0  0  0  0
 52 63  1  0  0  0  0
 53 60  1  0  0  0  0
 54 61  1  0  0  0  0
 55 61  1  0  0  0  0
 56 61  1  0  0  0  0
 57 72  1  0  0  0  0
 58 81  1  0  0  0  0
 59 61  1  0  0  0  0
 59 71  1  0  0  0  0
 60 72  1  0  0  0  0
 62 63  1  0  0  0  0
M  CHG  1  72   1
M  ISO  4  40 100  58 101  68 100  81 101
M  END
> <Batch ID>
0093

> <Smiles>
CNC(C)C(=O)NC(C(=O)N1Cc2cc([101O:1][101CH2:1]C(=O)NC(=O)c3cccc([100NH:0][100C:0](=O)N4CCCC(n5nc(-c6ccc(Oc7ccc(F)cc7F)cc6)c(C(N)=O)c5N)C4)c3F)ccc2CC1C(=O)NC1CCCc2ccccc21)C(C)(C)C

> <Shape>
0.234

> <Color>
0.068

> <Negative vol penalty>
0.000

$$$$

  -OEChem-04052300373D

 83 91  0     1  0  0  0  0  0999 V2000
  -17.9037  -27.0270   23.6355 C   0  0  0  0  0  0  0  0  0  0  0  0
  -19.0563  -26.2492   23.5897 C   0  0  0  0  0  0  0  0  0  0  0  0
  -23.1080  -10.4030   20.8707 C   0  0  0  0  0  0  0  0  0  0  0  0
  -24.3816   -8.8715   22.2381 C   0  0  0  0  0  0  0  0  0  0  0  0
  -27.8310  -18.0187   21.7122 C   0  0  0  0  0  0  0  0  0  0  0  0
  -17.7991  -28.1639   22.8352 C   0  0  0  0  0  0  0  0  0  0  0  0
  -20.1045  -26.6073   22.7427 C   0  0  0  0  0  0  0  0  0  0  0  0
  -24.6247  -26.2869   25.0032 C   0  0  0  0  0  0  0  0  0  0  0  0
  -22.1281   -9.4269   20.6902 C   0  0  0  0  0  0  0  0  0  0  0  0
  -23.4017   -7.8954   22.0576 C   0  0  0  0  0  0  0  0  0  0  0  0
  -26.9714  -18.8454   22.4356 C   0  0  0  0  0  0  0  0  0  0  0  0
  -25.1794  -25.0151   25.1401 C   0  0  0  0  0  0  0  0  0  0  0  0
  -20.3462   -7.1745   23.3085 C   0  0  0  0  0  0  0  0  0  0  0  0
  -19.9341   -6.4566   24.4311 C   0  0  0  0  0  0  0  0  0  0  0  0
  -28.7348  -19.9511   20.5780 C   0  0  0  0  0  0  0  0  0  0  0  0
  -26.5813  -25.4264   23.2206 C   0  0  0  0  0  0  0  0  0  0  0  0
  -20.6488   -4.4021   23.3796 C   0  0  0  0  0  0  0  0  0  0  0  0
  -24.2348  -10.1253   21.6447 C   0  0  0  0  0  0  0  0  0  0  0  0
  -28.7128  -18.5716   20.7834 C   0  0  0  0  0  0  0  0  0  0  0  0
  -25.3090  -12.0975   22.8547 C   0  0  0  0  0  0  0  0  0  0  0  0
  -18.8505  -28.5415   21.9851 C   0  0  0  0  0  0  0  0  0  0  0  0
  -25.0371  -27.1353   23.9656 C   0  0  0  0  0  0  0  0  0  0  0  0
  -20.0133  -27.7496   21.9293 C   0  0  0  0  0  0  0  0  0  0  0  0
  -26.0321  -26.7094   23.0742 C   0  0  0  0  0  0  0  0  0  0  0  0
  -27.8751  -20.7777   21.3014 C   0  0  0  0  0  0  0  0  0  0  0  0
  -22.2749   -8.1732   21.2836 C   0  0  0  0  0  0  0  0  0  0  0  0
  -26.1558  -24.5836   24.2470 C   0  0  0  0  0  0  0  0  0  0  0  0
  -26.9934  -20.2248   22.2302 C   0  0  0  0  0  0  0  0  0  0  0  0
  -20.9095   -6.5063   22.2213 C   0  0  0  0  0  0  0  0  0  0  0  0
  -20.0855   -5.0704   24.4667 C   0  0  0  0  0  0  0  0  0  0  0  0
  -21.0608   -5.1201   22.2569 C   0  0  0  0  0  0  0  0  0  0  0  0
  -25.2477  -11.1330   21.8311 C   0  0  0  0  0  0  0  0  0  0  0  0
  -26.4530  -12.8092   22.5877 C   0  0  0  0  0  0  0  0  0  0  0  0
  -29.6282  -17.6905   20.0137 C   0  0  0  0  0  0  0  0  0  0  0  0
  -24.4121  -12.3294   23.9490 C   0  0  0  0  0  0  0  0  0  0  0  0
  -23.6045  -28.4893   21.4719 C   0  0  0  0  0  0  0  0  0  0  0  0
  -26.4689  -29.9719   21.1264 C   0  0  0  0  0  0  0  0  0  0  0  0
  -29.8302  -29.9541   21.7161 C   0  0  0  0  0  0  0  0  0  0  0  0
  -29.8712  -15.4089   19.0869 C   0  0  0  0  0  0  0  0  0  0  0  0
  -18.6723  -29.7524   21.1038 C   0  0  0  0  0  0  0  0  0  0  0  0
  -24.4481  -28.5143   23.8476 C   0  0  0  0  0  0  0  0  0  0  0  0
  -26.5240  -27.5897   21.9553 C   0  0  0  0  0  0  0  0  0  0  0  0
  -19.9795  -30.2717   20.5107 C   0  0  0  0  0  0  0  0  0  0  0  0
  -30.2161  -11.8985   19.3222 C   0  0  0  0  0  0  0  0  0  0  0  0
  -20.8031  -29.1200   19.9434 C   0  0  0  0  0  0  0  0  0  0  0  0
  -28.9634  -11.4631   20.0874 C   0  0  0  0  0  0  0  0  0  0  0  0
  -29.9199  -13.0416   18.3524 C   0  0  0  0  0  0  0  0  0  0  0  0
  -27.9964  -13.7660   19.7064 C   0  0  0  0  0  0  0  0  0  0  0  0
  -21.1820  -28.1192   21.0417 C   0  0  1  0  0  0  0  0  0  0  0  0
  -24.5738  -29.0996   22.4444 C   0  0  1  0  0  0  0  0  0  0  0  0
  -28.2571  -12.6646   20.7467 C   0  0  1  0  0  0  0  0  0  0  0  0
  -31.9141  -31.2819   21.2781 C   0  0  0  0  0  0  0  0  0  0  0  0
  -26.4993  -28.9689   18.2449 C   0  0  0  0  0  0  0  0  0  0  0  0
  -28.9477  -29.4855   18.1644 C   0  0  0  0  0  0  0  0  0  0  0  0
  -27.2994  -31.3199   18.5396 C   0  0  0  0  0  0  0  0  0  0  0  0
  -30.3211  -30.3561   24.6069 C   0  0  0  0  0  0  0  0  0  0  0  0
  -25.8679  -22.3265   24.9388 C   0  0  0  0  0  0  0  0  0  1  0  0
  -26.2755  -20.9824   24.3672 C   0  0  0  0  0  0  0  0  0  0  0  0
  -27.7518  -29.6616   20.3937 C   0  0  1  0  0  0  0  0  0  0  0  0
  -30.7662  -31.0271   22.2425 C   0  0  2  0  0  0  0  0  0  0  0  0
  -27.6141  -29.8414   18.8554 C   0  0  0  0  0  0  0  0  0  0  0  0
  -26.2712  -11.2212   20.9775 N   0  0  0  0  0  0  0  0  0  0  0  0
  -26.9864  -12.2497   21.4641 N   0  0  0  0  0  0  0  0  0  0  0  0
  -25.9129  -28.9268   21.8778 N   0  0  0  0  0  0  0  0  0  0  0  0
  -29.2603  -14.1431   19.0560 N   0  0  0  0  0  0  0  0  0  0  0  0
  -27.9086  -22.1726   21.0844 N   0  0  0  0  0  0  0  0  0  0  0  0
  -27.0446  -13.8528   23.2069 N   0  0  0  0  0  0  0  0  0  0  0  0
  -23.2850  -11.5059   24.0751 N   0  0  0  0  0  0  0  0  0  0  0  0
  -29.1834  -16.3824   19.8200 N   0  0  0  0  0  0  0  0  0  0  0  0
  -22.2788  -28.6308   21.8352 N   0  0  0  0  0  0  0  0  0  0  0  0
  -28.7819  -30.4960   21.0029 N   0  0  0  0  0  0  0  0  0  0  0  0
  -31.3383  -30.6166   23.5560 N   0  3  0  0  0  0  0  0  0  0  0  0
  -30.6739  -18.1565   19.5697 O   0  0  0  0  0  0  0  0  0  0  0  0
  -24.5957  -13.2503   24.7806 O   0  0  0  0  0  0  0  0  0  0  0  0
  -24.0280  -27.9325   20.4657 O   0  0  0  0  0  0  0  0  0  0  0  0
  -25.9819  -31.1020   21.0411 O   0  0  0  0  0  0  0  0  0  0  0  0
  -30.0130  -28.7550   21.9144 O   0  0  0  0  0  0  0  0  0  0  0  0
  -30.9542  -15.6426   18.5413 O   0  0  0  0  0  0  0  0  0  0  0  0
  -21.3188   -7.2205   21.1078 O   0  0  0  0  0  0  0  0  0  0  0  0
  -26.6984  -23.3425   24.3780 O   0  0  0  0  0  0  0  0  0  1  0  0
  -26.1419  -21.0197   22.9515 O   0  0  0  0  0  0  0  0  0  0  0  0
  -19.6912   -4.3813   25.5455 F   0  0  0  0  0  0  0  0  0  0  0  0
  -21.6024   -4.4727   21.2160 F   0  0  0  0  0  0  0  0  0  0  0  0
  1  2  1  0  0  0  0
  1  6  2  0  0  0  0
  2  7  2  0  0  0  0
  3  9  2  0  0  0  0
  3 18  1  0  0  0  0
  4 10  1  0  0  0  0
  4 18  2  0  0  0  0
  5 11  2  0  0  0  0
  5 19  1  0  0  0  0
  6 21  1  0  0  0  0
  7 23  1  0  0  0  0
  8 12  2  0  0  0  0
  8 22  1  0  0  0  0
  9 26  1  0  0  0  0
 10 26  2  0  0  0  0
 11 28  1  0  0  0  0
 12 27  1  0  0  0  0
 13 14  2  0  0  0  0
 13 29  1  0  0  0  0
 14 30  1  0  0  0  0
 15 19  2  0  0  0  0
 15 25  1  0  0  0  0
 16 24  1  0  0  0  0
 16 27  2  0  0  0  0
 17 30  2  0  0  0  0
 17 31  1  0  0  0  0
 18 32  1  0  0  0  0
 19 34  1  0  0  0  0
 20 32  1  0  0  0  0
 20 33  2  0  0  0  0
 20 35  1  0  0  0  0
 21 23  2  0  0  0  0
 21 40  1  0  0  0  0
 22 24  2  0  0  0  0
 22 41  1  0  0  0  0
 23 49  1  0  0  0  0
 24 42  1  0  0  0  0
 25 28  2  0  0  0  0
 25 66  1  0  0  0  0
 26 79  1  0  0  0  0
 27 80  1  0  0  0  0
 28 81  1  0  0  0  0
 29 31  2  0  0  0  0
 29 79  1  0  0  0  0
 30 82  1  0  0  0  0
 31 83  1  0  0  0  0
 32 62  2  0  0  0  0
 33 63  1  0  0  0  0
 33 67  1  0  0  0  0
 34 69  1  0  0  0  0
 34 73  2  0  0  0  0
 35 68  1  0  0  0  0
 35 74  2  0  0  0  0
 36 50  1  0  0  0  0
 36 70  1  0  0  0  0
 36 75  2  0  0  0  0
 37 59  1  0  0  0  0
 37 64  1  0  0  0  0
 37 76  2  0  0  0  0
 38 60  1  0  0  0  0
 38 71  1  0  0  0  0
 38 77  2  0  0  0  0
 39 65  1  0  0  0  0
 39 69  1  0  0  0  0
 39 78  2  0  0  0  0
 40 43  1  0  0  0  0
 41 50  1  0  0  0  0
 42 64  1  0  0  0  0
 43 45  1  0  0  0  0
 44 46  1  0  0  0  0
 44 47  1  0  0  0  0
 45 49  1  0  0  0  0
 46 51  1  0  0  0  0
 47 65  1  0  0  0  0
 48 51  1  0  0  0  0
 48 65  1  0  0  0  0
 49 70  1  0  0  0  0
 50 64  1  0  0  0  0
 51 63  1  0  0  0  0
 52 60  1  0  0  0  0
 53 61  1  0  0  0  0
 54 61  1  0  0  0  0
 55 61  1  0  0  0  0
 56 72  1  0  0  0  0
 57 58  1  0  0  0  0
 57 80  1  0  0  0  0
 58 81  1  0  0  0  0
 59 61  1  0  0  0  0
 59 71  1  0  0  0  0
 60 72  1  0  0  0  0
 62 63  1  0  0  0  0
M  CHG  1  72   1
M  ISO  4  39 100  57 101  69 100  80 101
M  END
> <Batch ID>
0093

> <Smiles>
CNC(C)C(=O)NC(C(=O)N1Cc2cc([101O:1][101CH2:1]COc3ccc(C(=O)[100NH:0][100C:0](=O)N4CCCC(n5nc(-c6ccc(Oc7ccc(F)cc7F)cc6)c(C(N)=O)c5N)C4)cc3N)ccc2CC1C(=O)NC1CCCc2ccccc21)C(C)(C)C

> <Shape>
0.240

> <Color>
0.097

> <Negative vol penalty>
0.000

$$$$

  -OEChem-04052300373D

 85 93  0     1  0  0  0  0  0999 V2000
  -30.3515  -30.1640   23.8485 C   0  0  0  0  0  0  0  0  0  0  0  0
  -29.7039  -29.0887   23.2486 C   0  0  0  0  0  0  0  0  0  0  0  0
  -23.1450   -9.8052   20.0736 C   0  0  0  0  0  0  0  0  0  0  0  0
  -23.8161  -10.0456   22.3820 C   0  0  0  0  0  0  0  0  0  0  0  0
  -28.6284  -17.9069   21.7652 C   0  0  0  0  0  0  0  0  0  0  0  0
  -29.6351  -31.0439   24.6586 C   0  0  0  0  0  0  0  0  0  0  0  0
  -28.3396  -28.8922   23.4595 C   0  0  0  0  0  0  0  0  0  0  0  0
  -25.8521  -27.7927   19.1876 C   0  0  0  0  0  0  0  0  0  0  0  0
  -27.9141  -18.9520   21.1793 C   0  0  0  0  0  0  0  0  0  0  0  0
  -22.4190   -8.6608   20.4038 C   0  0  0  0  0  0  0  0  0  0  0  0
  -23.0901   -8.9013   22.7123 C   0  0  0  0  0  0  0  0  0  0  0  0
  -25.9583  -26.4884   18.7067 C   0  0  0  0  0  0  0  0  0  0  0  0
  -19.8606   -8.0771   23.2705 C   0  0  0  0  0  0  0  0  0  0  0  0
  -19.0605   -8.1260   24.4120 C   0  0  0  0  0  0  0  0  0  0  0  0
  -29.1781  -17.0534   19.5729 C   0  0  0  0  0  0  0  0  0  0  0  0
  -23.8036  -25.9684   19.6584 C   0  0  0  0  0  0  0  0  0  0  0  0
  -20.3174   -6.2992   25.3713 C   0  0  0  0  0  0  0  0  0  0  0  0
  -23.8436  -10.4976   21.0627 C   0  0  0  0  0  0  0  0  0  0  0  0
  -29.2605  -16.9577   20.9620 C   0  0  0  0  0  0  0  0  0  0  0  0
  -24.1311  -13.0088   20.7184 C   0  0  0  0  0  0  0  0  0  0  0  0
  -28.2593  -30.8636   24.8717 C   0  0  0  0  0  0  0  0  0  0  0  0
  -24.7238  -28.1923   19.9182 C   0  0  0  0  0  0  0  0  0  0  0  0
  -27.6043  -29.7698   24.2743 C   0  0  0  0  0  0  0  0  0  0  0  0
  -23.6843  -27.2791   20.1454 C   0  0  0  0  0  0  0  0  0  0  0  0
  -27.8318  -19.0477   19.7902 C   0  0  0  0  0  0  0  0  0  0  0  0
  -28.4638  -18.0985   18.9869 C   0  0  0  0  0  0  0  0  0  0  0  0
  -22.3916   -8.2089   21.7231 C   0  0  0  0  0  0  0  0  0  0  0  0
  -24.9353  -25.5752   18.9445 C   0  0  0  0  0  0  0  0  0  0  0  0
  -20.8891   -7.1392   23.1794 C   0  0  0  0  0  0  0  0  0  0  0  0
  -19.2889   -7.2371   25.4624 C   0  0  0  0  0  0  0  0  0  0  0  0
  -21.1175   -6.2503   24.2298 C   0  0  0  0  0  0  0  0  0  0  0  0
  -24.5941  -11.6794   20.7221 C   0  0  0  0  0  0  0  0  0  0  0  0
  -25.2187  -13.7502   20.3259 C   0  0  0  0  0  0  0  0  0  0  0  0
  -25.6216  -23.3649   19.2821 C   0  0  0  0  0  0  0  0  0  1  0  0
  -30.0053  -15.8685   21.5734 C   0  0  0  0  0  0  0  0  0  0  0  0
  -22.8339  -13.5273   21.0411 C   0  0  0  0  0  0  0  0  0  0  0  0
  -25.7734  -22.0841   18.9240 C   0  0  0  0  0  0  0  0  0  0  0  0
  -30.6881  -14.8439   20.7504 C   0  0  0  0  0  0  0  0  0  0  0  0
  -26.4279  -21.1337   19.8813 C   0  0  0  0  0  0  0  0  0  0  0  0
  -24.2248  -29.2534   22.8726 C   0  0  0  0  0  0  0  0  0  0  0  0
  -21.1938  -29.6682   21.7939 C   0  0  0  0  0  0  0  0  0  0  0  0
  -18.7651  -28.7833   19.5657 C   0  0  0  0  0  0  0  0  0  0  0  0
  -27.5369  -31.8138   25.7936 C   0  0  0  0  0  0  0  0  0  0  0  0
  -24.6124  -29.6103   20.4072 C   0  0  0  0  0  0  0  0  0  0  0  0
  -22.4430  -27.6638   20.9067 C   0  0  0  0  0  0  0  0  0  0  0  0
  -26.0171  -31.7505   25.6644 C   0  0  0  0  0  0  0  0  0  0  0  0
  -29.6685  -12.3277   18.4083 C   0  0  0  0  0  0  0  0  0  0  0  0
  -25.5420  -30.3010   25.6564 C   0  0  0  0  0  0  0  0  0  0  0  0
  -28.2319  -12.0168   18.8271 C   0  0  0  0  0  0  0  0  0  0  0  0
  -30.5411  -12.6636   19.6133 C   0  0  0  0  0  0  0  0  0  0  0  0
  -28.5659  -13.4721   20.8756 C   0  0  0  0  0  0  0  0  0  0  0  0
  -26.1204  -29.5374   24.4590 C   0  0  1  0  0  0  0  0  0  0  0  0
  -23.6505  -29.7637   21.5813 C   0  0  1  0  0  0  0  0  0  0  0  0
  -27.6475  -13.1551   19.6824 C   0  0  2  0  0  0  0  0  0  0  0  0
  -16.3795  -29.2681   18.9564 C   0  0  0  0  0  0  0  0  0  0  0  0
  -20.2514  -28.0218   24.1838 C   0  0  0  0  0  0  0  0  0  0  0  0
  -18.0472  -27.7384   23.0307 C   0  0  0  0  0  0  0  0  0  0  0  0
  -18.8353  -30.0177   23.6684 C   0  0  0  0  0  0  0  0  0  0  0  0
  -19.5243  -29.7213   16.8633 C   0  0  0  0  0  0  0  0  0  0  0  0
  -19.9502  -28.8138   21.7449 C   0  0  1  0  0  0  0  0  0  0  0  0
  -17.8373  -29.6190   18.7024 C   0  0  2  0  0  0  0  0  0  0  0  0
  -19.2952  -28.6398   23.1442 C   0  0  0  0  0  0  0  0  0  0  0  0
  -25.8760  -11.5789   20.3604 N   0  0  0  0  0  0  0  0  0  0  0  0
  -30.1255  -15.7188   22.8650 N   0  0  0  0  0  0  0  0  0  0  0  0
  -26.2276  -12.8545   20.1257 N   0  0  0  0  0  0  0  0  0  0  0  0
  -29.9401  -13.7218   20.4226 N   0  0  0  0  0  0  0  0  0  0  0  0
  -22.3838  -29.0600   21.3698 N   0  0  0  0  0  0  0  0  0  0  0  0
  -28.3947  -18.1762   17.5778 N   0  0  0  0  0  0  0  0  0  0  0  0
  -25.4008  -15.0742   20.1358 N   0  0  0  0  0  0  0  0  0  0  0  0
  -21.8312  -12.6267   21.4257 N   0  0  0  0  0  0  0  0  0  0  0  0
  -27.1024  -20.1178   19.2180 N   0  0  0  0  0  0  0  0  0  0  0  0
  -25.4006  -29.8739   23.2495 N   0  0  0  0  0  0  0  0  0  0  0  0
  -19.0762  -29.4219   20.7475 N   0  0  0  0  0  0  0  0  0  0  0  0
  -18.1302  -29.3938   17.2587 N   0  3  0  0  0  0  0  0  0  0  0  0
  -22.5671  -14.7512   20.9741 O   0  0  0  0  0  0  0  0  0  0  0  0
  -31.8462  -15.0979   20.4461 O   0  0  0  0  0  0  0  0  0  0  0  0
  -26.3360  -21.2972   21.0932 O   0  0  0  0  0  0  0  0  0  0  0  0
  -23.6433  -28.3638   23.4827 O   0  0  0  0  0  0  0  0  0  0  0  0
  -21.1111  -30.8345   22.1871 O   0  0  0  0  0  0  0  0  0  0  0  0
  -19.1701  -27.6734   19.2273 O   0  0  0  0  0  0  0  0  0  0  0  0
  -25.3486  -21.5994   17.7036 O   0  0  0  0  0  0  0  0  0  0  0  0
  -21.6831   -7.0924   22.0458 O   0  0  0  0  0  0  0  0  0  0  0  0
  -25.0367  -24.3013   18.4768 O   0  0  0  0  0  0  0  0  0  1  0  0
  -18.5215   -7.2852   26.5592 F   0  0  0  0  0  0  0  0  0  0  0  0
  -22.1048   -5.3479   24.1484 F   0  0  0  0  0  0  0  0  0  0  0  0
  1  2  1  0  0  0  0
  1  6  2  0  0  0  0
  2  7  2  0  0  0  0
  3 10  2  0  0  0  0
  3 18  1  0  0  0  0
  4 11  1  0  0  0  0
  4 18  2  0  0  0  0
  5  9  2  0  0  0  0
  5 19  1  0  0  0  0
  6 21  1  0  0  0  0
  7 23  1  0  0  0  0
  8 12  2  0  0  0  0
  8 22  1  0  0  0  0
  9 25  1  0  0  0  0
 10 27  1  0  0  0  0
 11 27  2  0  0  0  0
 12 28  1  0  0  0  0
 13 14  2  0  0  0  0
 13 29  1  0  0  0  0
 14 30  1  0  0  0  0
 15 19  2  0  0  0  0
 15 26  1  0  0  0  0
 16 24  1  0  0  0  0
 16 28  2  0  0  0  0
 17 30  2  0  0  0  0
 17 31  1  0  0  0  0
 18 32  1  0  0  0  0
 19 35  1  0  0  0  0
 20 32  1  0  0  0  0
 20 33  2  0  0  0  0
 20 36  1  0  0  0  0
 21 23  2  0  0  0  0
 21 43  1  0  0  0  0
 22 24  2  0  0  0  0
 22 44  1  0  0  0  0
 23 52  1  0  0  0  0
 24 45  1  0  0  0  0
 25 26  2  0  0  0  0
 25 71  1  0  0  0  0
 26 68  1  0  0  0  0
 27 82  1  0  0  0  0
 28 83  1  0  0  0  0
 29 31  2  0  0  0  0
 29 82  1  0  0  0  0
 30 84  1  0  0  0  0
 31 85  1  0  0  0  0
 32 63  2  0  0  0  0
 33 65  1  0  0  0  0
 33 69  1  0  0  0  0
 34 37  2  0  0  0  0
 34 83  1  0  0  0  0
 35 38  1  0  0  0  0
 35 64  2  0  0  0  0
 36 70  1  0  0  0  0
 36 75  2  0  0  0  0
 37 39  1  0  0  0  0
 37 81  1  0  0  0  0
 38 66  1  0  0  0  0
 38 76  2  0  0  0  0
 39 71  1  0  0  0  0
 39 77  2  0  0  0  0
 40 53  1  0  0  0  0
 40 72  1  0  0  0  0
 40 78  2  0  0  0  0
 41 60  1  0  0  0  0
 41 67  1  0  0  0  0
 41 79  2  0  0  0  0
 42 61  1  0  0  0  0
 42 73  1  0  0  0  0
 42 80  2  0  0  0  0
 43 46  1  0  0  0  0
 44 53  1  0  0  0  0
 45 67  1  0  0  0  0
 46 48  1  0  0  0  0
 47 49  1  0  0  0  0
 47 50  1  0  0  0  0
 48 52  1  0  0  0  0
 49 54  1  0  0  0  0
 50 66  1  0  0  0  0
 51 54  1  0  0  0  0
 51 66  1  0  0  0  0
 52 72  1  0  0  0  0
 53 67  1  0  0  0  0
 54 65  1  0  0  0  0
 55 61  1  0  0  0  0
 56 62  1  0  0  0  0
 57 62  1  0  0  0  0
 58 62  1  0  0  0  0
 59 74  1  0  0  0  0
 60 62  1  0  0  0  0
 60 73  1  0  0  0  0
 61 74  1  0  0  0  0
 63 65  1  0  0  0  0
M  CHG  1  74   1
M  ISO  4  34 101  35 100  38 100  83 101
M  END
> <Batch ID>
0093

> <Smiles>
CNC(C)C(=O)NC(C(=O)N1Cc2cc([101O:1][101CH2:1]C(=O)C(=O)Nc3ccc([100C:0](=N)[100C:0](=O)N4CCCC(n5nc(-c6ccc(Oc7ccc(F)cc7F)cc6)c(C(N)=O)c5N)C4)cc3N)ccc2CC1C(=O)NC1CCCc2ccccc21)C(C)(C)C

> <Shape>
0.361

> <Color>
0.184

> <Negative vol penalty>
0.000

$$$$

  -OEChem-04052300373D

 84 92  0     1  0  0  0  0  0999 V2000
  -29.8074  -35.2376   19.2055 C   0  0  0  0  0  0  0  0  0  0  0  0
  -30.2386  -33.9595   19.5461 C   0  0  0  0  0  0  0  0  0  0  0  0
  -23.6191   -9.6478   21.2820 C   0  0  0  0  0  0  0  0  0  0  0  0
  -24.2699  -10.6018   23.4042 C   0  0  0  0  0  0  0  0  0  0  0  0
  -31.7034  -19.4808   21.6331 C   0  0  0  0  0  0  0  0  0  0  0  0
  -28.5322  -35.6633   19.5749 C   0  0  0  0  0  0  0  0  0  0  0  0
  -29.3952  -33.1068   20.2574 C   0  0  0  0  0  0  0  0  0  0  0  0
  -28.9965  -27.0205   19.7052 C   0  0  0  0  0  0  0  0  0  0  0  0
  -31.3029  -18.2475   21.1193 C   0  0  0  0  0  0  0  0  0  0  0  0
  -23.0578   -8.5564   21.9448 C   0  0  0  0  0  0  0  0  0  0  0  0
  -23.7084   -9.5103   24.0670 C   0  0  0  0  0  0  0  0  0  0  0  0
  -29.5437  -25.9737   20.4458 C   0  0  0  0  0  0  0  0  0  0  0  0
  -20.2142   -7.8638   23.6381 C   0  0  0  0  0  0  0  0  0  0  0  0
  -18.9531   -7.4335   23.2257 C   0  0  0  0  0  0  0  0  0  0  0  0
  -27.4985  -25.8103   21.7145 C   0  0  0  0  0  0  0  0  0  0  0  0
  -28.9887  -18.8817   21.4011 C   0  0  0  0  0  0  0  0  0  0  0  0
  -19.8700   -5.2647   22.6846 C   0  0  0  0  0  0  0  0  0  0  0  0
  -24.2252  -10.6705   22.0117 C   0  0  0  0  0  0  0  0  0  0  0  0
  -30.7466  -20.4146   22.0310 C   0  0  0  0  0  0  0  0  0  0  0  0
  -24.1667  -13.0036   20.9818 C   0  0  0  0  0  0  0  0  0  0  0  0
  -27.6691  -34.8119   20.2827 C   0  0  0  0  0  0  0  0  0  0  0  0
  -27.6980  -27.4781   19.9715 C   0  0  0  0  0  0  0  0  0  0  0  0
  -28.1077  -33.5220   20.6378 C   0  0  0  0  0  0  0  0  0  0  0  0
  -26.9362  -26.8614   20.9742 C   0  0  0  0  0  0  0  0  0  0  0  0
  -29.9455  -17.9479   21.0033 C   0  0  0  0  0  0  0  0  0  0  0  0
  -23.1024   -8.4876   23.3372 C   0  0  0  0  0  0  0  0  0  0  0  0
  -28.7957  -25.3703   21.4526 C   0  0  0  0  0  0  0  0  0  0  0  0
  -21.3032   -6.9945   23.5737 C   0  0  0  0  0  0  0  0  0  0  0  0
  -18.7810   -6.1340   22.7490 C   0  0  0  0  0  0  0  0  0  0  0  0
  -29.3893  -20.1151   21.9150 C   0  0  0  0  0  0  0  0  0  0  0  0
  -21.1311   -5.6950   23.0970 C   0  0  0  0  0  0  0  0  0  0  0  0
  -24.8058  -11.7979   21.3277 C   0  0  0  0  0  0  0  0  0  0  0  0
  -25.1406  -13.7403   20.3530 C   0  0  0  0  0  0  0  0  0  0  0  0
  -31.1780  -21.7258   22.5803 C   0  0  0  0  0  0  0  0  0  0  0  0
  -22.8138  -13.4204   21.2088 C   0  0  0  0  0  0  0  0  0  0  0  0
  -26.4451  -30.2357   20.9359 C   0  0  0  0  0  0  0  0  0  0  0  0
  -23.6385  -28.7062   20.3830 C   0  0  0  0  0  0  0  0  0  0  0  0
  -21.9554  -25.7504   20.1053 C   0  0  0  0  0  0  0  0  0  0  0  0
  -30.0155  -24.7503   23.3323 C   0  0  0  0  0  0  0  0  0  1  0  0
  -30.3590  -15.6569   20.0408 C   0  0  0  0  0  0  0  0  0  0  0  0
  -26.3172  -35.3333   20.7012 C   0  0  0  0  0  0  0  0  0  0  0  0
  -27.1125  -28.5907   19.1458 C   0  0  0  0  0  0  0  0  0  0  0  0
  -25.5301  -27.3020   21.2858 C   0  0  0  0  0  0  0  0  0  0  0  0
  -25.3462  -34.2353   21.1277 C   0  0  0  0  0  0  0  0  0  0  0  0
  -29.7438  -12.4064   18.7243 C   0  0  0  0  0  0  0  0  0  0  0  0
  -26.0314  -33.2548   22.0742 C   0  0  0  0  0  0  0  0  0  0  0  0
  -28.3517  -12.0575   19.2558 C   0  0  0  0  0  0  0  0  0  0  0  0
  -30.5590  -13.1976   19.7457 C   0  0  0  0  0  0  0  0  0  0  0  0
  -28.5041  -14.0477   20.8059 C   0  0  0  0  0  0  0  0  0  0  0  0
  -27.2127  -32.5590   21.3873 C   0  0  1  0  0  0  0  0  0  0  0  0
  -25.9685  -29.3168   19.8468 C   0  0  1  0  0  0  0  0  0  0  0  0
  -27.6222  -13.3067   19.7877 C   0  0  2  0  0  0  0  0  0  0  0  0
  -19.6626  -24.8210   19.6853 C   0  0  0  0  0  0  0  0  0  0  0  0
  -22.8231  -29.4372   23.2310 C   0  0  0  0  0  0  0  0  0  0  0  0
  -21.0074  -27.7204   23.0774 C   0  0  0  0  0  0  0  0  0  0  0  0
  -21.0047  -29.6777   21.5310 C   0  0  0  0  0  0  0  0  0  0  0  0
  -22.8486  -24.3388   17.6621 C   0  0  0  0  0  0  0  0  0  0  0  0
  -30.5916  -23.5888   24.1105 C   0  0  0  0  0  0  0  0  0  0  0  0
  -22.7121  -27.8420   21.2039 C   0  0  1  0  0  0  0  0  0  0  0  0
  -20.9830  -25.2395   19.0575 C   0  0  2  0  0  0  0  0  0  0  0  0
  -21.9140  -28.6621   22.2565 C   0  0  0  0  0  0  0  0  0  0  0  0
  -26.0865  -11.7663   20.9497 N   0  0  0  0  0  0  0  0  0  0  0  0
  -26.2600  -12.9613   20.3598 N   0  0  0  0  0  0  0  0  0  0  0  0
  -25.0043  -28.3978   20.4550 N   0  0  0  0  0  0  0  0  0  0  0  0
  -29.8066  -14.3685   20.2014 N   0  0  0  0  0  0  0  0  0  0  0  0
  -25.1399  -14.9720   19.8003 N   0  0  0  0  0  0  0  0  0  0  0  0
  -21.9456  -12.5408   21.8696 N   0  0  0  0  0  0  0  0  0  0  0  0
  -29.5387  -16.6950   20.4813 N   0  0  0  0  0  0  0  0  0  0  0  0
  -30.3251  -22.3141   23.5095 N   0  0  0  0  0  0  0  0  0  0  0  0
  -26.7400  -31.5147   20.5039 N   0  0  0  0  0  0  0  0  0  0  0  0
  -21.8767  -27.1193   20.2510 N   0  0  0  0  0  0  0  0  0  0  0  0
  -21.5588  -24.0635   18.3460 N   0  3  0  0  0  0  0  0  0  0  0  0
  -32.2278  -22.2260   22.1847 O   0  0  0  0  0  0  0  0  0  0  0  0
  -22.3830  -14.5333   20.8221 O   0  0  0  0  0  0  0  0  0  0  0  0
  -26.5371  -29.8158   22.0835 O   0  0  0  0  0  0  0  0  0  0  0  0
  -23.1668  -29.6168   19.6973 O   0  0  0  0  0  0  0  0  0  0  0  0
  -22.7069  -25.0088   20.7344 O   0  0  0  0  0  0  0  0  0  0  0  0
  -30.1525  -25.9144   23.6948 O   0  0  0  0  0  0  0  0  0  0  0  0
  -31.4659  -15.8285   19.5237 O   0  0  0  0  0  0  0  0  0  0  0  0
  -22.5545   -7.4229   23.9843 O   0  0  0  0  0  0  0  0  0  0  0  0
  -29.3276  -24.3487   22.1774 O   0  0  0  0  0  0  0  0  0  1  0  0
  -17.5695   -5.7205   22.3544 F   0  0  0  0  0  0  0  0  0  0  0  0
  -28.4609  -21.0048   22.2946 F   0  0  0  0  0  0  0  0  0  0  0  0
  -22.1733   -4.8550   23.0339 F   0  0  0  0  0  0  0  0  0  0  0  0
  1  2  1  0  0  0  0
  1  6  2  0  0  0  0
  2  7  2  0  0  0  0
  3 10  2  0  0  0  0
  3 18  1  0  0  0  0
  4 11  1  0  0  0  0
  4 18  2  0  0  0  0
  5  9  2  0  0  0  0
  5 19  1  0  0  0  0
  6 21  1  0  0  0  0
  7 23  1  0  0  0  0
  8 12  2  0  0  0  0
  8 22  1  0  0  0  0
  9 25  1  0  0  0  0
 10 26  1  0  0  0  0
 11 26  2  0  0  0  0
 12 27  1  0  0  0  0
 13 14  2  0  0  0  0
 13 28  1  0  0  0  0
 14 29  1  0  0  0  0
 15 24  1  0  0  0  0
 15 27  2  0  0  0  0
 16 25  2  0  0  0  0
 16 30  1  0  0  0  0
 17 29  2  0  0  0  0
 17 31  1  0  0  0  0
 18 32  1  0  0  0  0
 19 30  2  0  0  0  0
 19 34  1  0  0  0  0
 20 32  1  0  0  0  0
 20 33  2  0  0  0  0
 20 35  1  0  0  0  0
 21 23  2  0  0  0  0
 21 41  1  0  0  0  0
 22 24  2  0  0  0  0
 22 42  1  0  0  0  0
 23 50  1  0  0  0  0
 24 43  1  0  0  0  0
 25 68  1  0  0  0  0
 26 80  1  0  0  0  0
 27 81  1  0  0  0  0
 28 31  2  0  0  0  0
 28 80  1  0  0  0  0
 29 82  1  0  0  0  0
 30 83  1  0  0  0  0
 31 84  1  0  0  0  0
 32 62  2  0  0  0  0
 33 63  1  0  0  0  0
 33 66  1  0  0  0  0
 34 69  1  0  0  0  0
 34 73  2  0  0  0  0
 35 67  1  0  0  0  0
 35 74  2  0  0  0  0
 36 51  1  0  0  0  0
 36 70  1  0  0  0  0
 36 75  2  0  0  0  0
 37 59  1  0  0  0  0
 37 64  1  0  0  0  0
 37 76  2  0  0  0  0
 38 60  1  0  0  0  0
 38 71  1  0  0  0  0
 38 77  2  0  0  0  0
 39 58  1  0  0  0  0
 39 78  2  0  0  0  0
 39 81  1  0  0  0  0
 40 65  1  0  0  0  0
 40 68  1  0  0  0  0
 40 79  2  0  0  0  0
 41 44  1  0  0  0  0
 42 51  1  0  0  0  0
 43 64  1  0  0  0  0
 44 46  1  0  0  0  0
 45 47  1  0  0  0  0
 45 48  1  0  0  0  0
 46 50  1  0  0  0  0
 47 52  1  0  0  0  0
 48 65  1  0  0  0  0
 49 52  1  0  0  0  0
 49 65  1  0  0  0  0
 50 70  1  0  0  0  0
 51 64  1  0  0  0  0
 52 63  1  0  0  0  0
 53 60  1  0  0  0  0
 54 61  1  0  0  0  0
 55 61  1  0  0  0  0
 56 61  1  0  0  0  0
 57 72  1  0  0  0  0
 58 69  1  0  0  0  0
 59 61  1  0  0  0  0
 59 71  1  0  0  0  0
 60 72  1  0  0  0  0
 62 63  1  0  0  0  0
M  CHG  1  72   1
M  ISO  4  39 101  40 100  68 100  81 101
M  END
> <Batch ID>
0093

> <Smiles>
CNC(C)C(=O)NC(C(=O)N1Cc2cc([101O:1][101C:1](=O)CNC(=O)c3ccc([100NH:0][100C:0](=O)N4CCCC(n5nc(-c6ccc(Oc7ccc(F)cc7F)cc6)c(C(N)=O)c5N)C4)cc3F)ccc2CC1C(=O)NC1CCCc2ccccc21)C(C)(C)C

> <Shape>
0.273

> <Color>
0.138

> <Negative vol penalty>
0.000

$$$$

  -OEChem-04052300373D

 85 94  0     1  0  0  0  0  0999 V2000
  -17.5000  -29.9386   22.3797 C   0  0  0  0  0  0  0  0  0  0  0  0
  -18.6975  -29.2583   22.1832 C   0  0  0  0  0  0  0  0  0  0  0  0
  -22.7549  -10.0222   20.1399 C   0  0  0  0  0  0  0  0  0  0  0  0
  -24.3116   -9.4873   21.9085 C   0  0  0  0  0  0  0  0  0  0  0  0
  -28.9499  -17.2052   19.9496 C   0  0  0  0  0  0  0  0  0  0  0  0
  -28.3435  -17.8787   22.1891 C   0  0  0  0  0  0  0  0  0  0  0  0
  -16.9657  -30.0506   23.6626 C   0  0  0  0  0  0  0  0  0  0  0  0
  -19.3621  -28.6906   23.2697 C   0  0  0  0  0  0  0  0  0  0  0  0
  -21.0120  -24.0013   22.3038 C   0  0  0  0  0  0  0  0  0  0  0  0
  -28.1990  -18.2592   19.4292 C   0  0  0  0  0  0  0  0  0  0  0  0
  -27.5926  -18.9328   21.6688 C   0  0  0  0  0  0  0  0  0  0  0  0
  -22.0734   -8.8289   20.3789 C   0  0  0  0  0  0  0  0  0  0  0  0
  -23.6300   -8.2940   22.1475 C   0  0  0  0  0  0  0  0  0  0  0  0
  -22.1719  -23.8792   21.5399 C   0  0  0  0  0  0  0  0  0  0  0  0
  -19.8259   -7.6481   22.6120 C   0  0  0  0  0  0  0  0  0  0  0  0
  -18.4327   -7.6960   22.6618 C   0  0  0  0  0  0  0  0  0  0  0  0
  -23.4520  -23.5172   23.5522 C   0  0  0  0  0  0  0  0  0  0  0  0
  -18.3134   -6.1426   20.8152 C   0  0  0  0  0  0  0  0  0  0  0  0
  -23.8741  -10.3514   20.9047 C   0  0  0  0  0  0  0  0  0  0  0  0
  -29.0222  -17.0149   21.3295 C   0  0  0  0  0  0  0  0  0  0  0  0
  -24.0618  -12.8903   20.7422 C   0  0  0  0  0  0  0  0  0  0  0  0
  -17.6191  -29.4757   24.7641 C   0  0  0  0  0  0  0  0  0  0  0  0
  -21.0652  -23.8930   23.7009 C   0  0  0  0  0  0  0  0  0  0  0  0
  -18.8367  -28.7963   24.5688 C   0  0  0  0  0  0  0  0  0  0  0  0
  -22.2910  -23.6358   24.3314 C   0  0  0  0  0  0  0  0  0  0  0  0
  -27.5204  -19.1230   20.2888 C   0  0  0  0  0  0  0  0  0  0  0  0
  -22.5109   -7.9648   21.3826 C   0  0  0  0  0  0  0  0  0  0  0  0
  -23.3925  -23.6400   22.1642 C   0  0  0  0  0  0  0  0  0  0  0  0
  -20.4628   -6.8475   21.6638 C   0  0  0  0  0  0  0  0  0  0  0  0
  -17.6765   -6.9433   21.7634 C   0  0  0  0  0  0  0  0  0  0  0  0
  -19.7066   -6.0947   20.7654 C   0  0  0  0  0  0  0  0  0  0  0  0
  -24.5789  -11.5837   20.6580 C   0  0  0  0  0  0  0  0  0  0  0  0
  -25.1219  -13.7008   20.4169 C   0  0  0  0  0  0  0  0  0  0  0  0
  -26.5853  -20.5193   18.3947 C   0  0  0  0  0  0  0  0  0  0  0  0
  -29.8049  -15.9159   21.8720 C   0  0  0  0  0  0  0  0  0  0  0  0
  -22.7412  -13.3319   21.0840 C   0  0  0  0  0  0  0  0  0  0  0  0
  -30.5373  -14.9807   20.9876 C   0  0  0  0  0  0  0  0  0  0  0  0
  -20.4045  -25.8360   26.1282 C   0  0  0  0  0  0  0  0  0  0  0  0
  -20.9974  -23.1859   27.9025 C   0  0  0  0  0  0  0  0  0  0  0  0
  -22.5385  -20.1512   28.1516 C   0  0  0  0  0  0  0  0  0  0  0  0
  -17.0272  -29.6637   26.1385 C   0  0  0  0  0  0  0  0  0  0  0  0
  -19.8009  -24.0006   24.5086 C   0  0  0  0  0  0  0  0  0  0  0  0
  -22.3986  -23.4910   25.8267 C   0  0  0  0  0  0  0  0  0  0  0  0
  -25.6124  -21.6736   18.3172 C   0  0  0  0  0  0  0  0  0  0  0  0
  -17.6015  -28.7116   27.1845 C   0  0  0  0  0  0  0  0  0  0  0  0
  -29.6451  -12.5982   18.4609 C   0  0  0  0  0  0  0  0  0  0  0  0
  -19.1232  -28.6678   27.0881 C   0  0  0  0  0  0  0  0  0  0  0  0
  -28.2184  -12.2008   18.8383 C   0  0  0  0  0  0  0  0  0  0  0  0
  -30.4912  -12.8824   19.6977 C   0  0  0  0  0  0  0  0  0  0  0  0
  -25.9648  -21.0795   20.5998 C   0  0  0  0  0  0  0  0  0  0  0  0
  -28.4720  -13.5192   20.9885 C   0  0  0  0  0  0  0  0  0  0  0  0
  -19.5745  -28.1456   25.7188 C   0  0  1  0  0  0  0  0  0  0  0  0
  -20.0523  -24.3846   25.9635 C   0  0  1  0  0  0  0  0  0  0  0  0
  -25.6635  -22.2780   19.7131 C   0  0  2  0  0  0  0  0  0  0  0  0
  -27.5794  -13.2511   19.7642 C   0  0  2  0  0  0  0  0  0  0  0  0
  -22.8699  -18.2344   29.7370 C   0  0  0  0  0  0  0  0  0  0  0  0
  -22.9962  -24.8523   29.4955 C   0  0  0  0  0  0  0  0  0  0  0  0
  -23.9556  -22.7196   30.3897 C   0  0  0  0  0  0  0  0  0  0  0  0
  -21.5831  -23.3181   30.8753 C   0  0  0  0  0  0  0  0  0  0  0  0
  -21.2495  -18.2410   26.2946 C   0  0  0  0  0  0  0  0  0  0  0  0
  -24.3850  -23.0011   20.0996 C   0  0  0  0  0  0  0  0  0  1  0  0
  -22.2229  -22.5805   28.5432 C   0  0  1  0  0  0  0  0  0  0  0  0
  -22.0262  -18.7953   28.6029 C   0  0  2  0  0  0  0  0  0  0  0  0
  -22.6880  -23.3722   29.7979 C   0  0  0  0  0  0  0  0  0  0  0  0
  -25.8673  -11.5607   20.3066 N   0  0  0  0  0  0  0  0  0  0  0  0
  -29.9184  -15.6798   23.1512 N   0  0  0  0  0  0  0  0  0  0  0  0
  -26.1687  -12.8629   20.1670 N   0  0  0  0  0  0  0  0  0  0  0  0
  -26.7526  -20.2011   19.7555 N   0  0  0  0  0  0  0  0  0  0  0  0
  -29.8393  -13.8555   20.5719 N   0  0  0  0  0  0  0  0  0  0  0  0
  -21.1354  -23.6106   26.5734 N   0  0  0  0  0  0  0  0  0  0  0  0
  -25.2514  -15.0412   20.3230 N   0  0  0  0  0  0  0  0  0  0  0  0
  -22.4505  -13.5897   22.4306 N   0  0  0  0  0  0  0  0  0  0  0  0
  -19.4397  -26.7060   25.6573 N   0  0  0  0  0  0  0  0  0  0  0  0
  -21.8980  -21.1826   28.8053 N   0  0  0  0  0  0  0  0  0  0  0  0
  -22.0572  -17.8269   27.4706 N   0  3  0  0  0  0  0  0  0  0  0  0
  -27.0466  -19.9823   17.3979 O   0  0  0  0  0  0  0  0  0  0  0  0
  -21.8408  -13.4774   20.2228 O   0  0  0  0  0  0  0  0  0  0  0  0
  -31.6870  -15.3020   20.7168 O   0  0  0  0  0  0  0  0  0  0  0  0
  -21.4718  -26.1438   26.6456 O   0  0  0  0  0  0  0  0  0  0  0  0
  -19.9540  -23.2722   28.5548 O   0  0  0  0  0  0  0  0  0  0  0  0
  -23.4214  -20.2822   27.3067 O   0  0  0  0  0  0  0  0  0  0  0  0
  -21.8460   -6.8004   21.6162 O   0  0  0  0  0  0  0  0  0  0  0  0
  -24.5262  -23.5210   21.4210 O   0  0  0  0  0  0  0  0  0  1  0  0
  -16.3387   -6.9882   21.8123 F   0  0  0  0  0  0  0  0  0  0  0  0
  -20.3128   -5.3228   19.8530 F   0  0  0  0  0  0  0  0  0  0  0  0
  1  2  1  0  0  0  0
  1  7  2  0  0  0  0
  2  8  2  0  0  0  0
  3 12  2  0  0  0  0
  3 19  1  0  0  0  0
  4 13  1  0  0  0  0
  4 19  2  0  0  0  0
  5 10  2  0  0  0  0
  5 20  1  0  0  0  0
  6 11  1  0  0  0  0
  6 20  2  0  0  0  0
  7 22  1  0  0  0  0
  8 24  1  0  0  0  0
  9 14  2  0  0  0  0
  9 23  1  0  0  0  0
 10 26  1  0  0  0  0
 11 26  2  0  0  0  0
 12 27  1  0  0  0  0
 13 27  2  0  0  0  0
 14 28  1  0  0  0  0
 15 16  2  0  0  0  0
 15 29  1  0  0  0  0
 16 30  1  0  0  0  0
 17 25  1  0  0  0  0
 17 28  2  0  0  0  0
 18 30  2  0  0  0  0
 18 31  1  0  0  0  0
 19 32  1  0  0  0  0
 20 35  1  0  0  0  0
 21 32  1  0  0  0  0
 21 33  2  0  0  0  0
 21 36  1  0  0  0  0
 22 24  2  0  0  0  0
 22 41  1  0  0  0  0
 23 25  2  0  0  0  0
 23 42  1  0  0  0  0
 24 52  1  0  0  0  0
 25 43  1  0  0  0  0
 26 68  1  0  0  0  0
 27 82  1  0  0  0  0
 28 83  1  0  0  0  0
 29 31  2  0  0  0  0
 29 82  1  0  0  0  0
 30 84  1  0  0  0  0
 31 85  1  0  0  0  0
 32 65  2  0  0  0  0
 33 67  1  0  0  0  0
 33 71  1  0  0  0  0
 34 44  1  0  0  0  0
 34 68  1  0  0  0  0
 34 76  2  0  0  0  0
 35 37  1  0  0  0  0
 35 66  2  0  0  0  0
 36 72  1  0  0  0  0
 36 77  2  0  0  0  0
 37 69  1  0  0  0  0
 37 78  2  0  0  0  0
 38 53  1  0  0  0  0
 38 73  1  0  0  0  0
 38 79  2  0  0  0  0
 39 62  1  0  0  0  0
 39 70  1  0  0  0  0
 39 80  2  0  0  0  0
 40 63  1  0  0  0  0
 40 74  1  0  0  0  0
 40 81  2  0  0  0  0
 41 45  1  0  0  0  0
 42 53  1  0  0  0  0
 43 70  1  0  0  0  0
 44 54  1  0  0  0  0
 45 47  1  0  0  0  0
 46 48  1  0  0  0  0
 46 49  1  0  0  0  0
 47 52  1  0  0  0  0
 48 55  1  0  0  0  0
 49 69  1  0  0  0  0
 50 54  1  0  0  0  0
 50 68  1  0  0  0  0
 51 55  1  0  0  0  0
 51 69  1  0  0  0  0
 52 73  1  0  0  0  0
 53 70  1  0  0  0  0
 54 61  1  0  0  0  0
 55 67  1  0  0  0  0
 56 63  1  0  0  0  0
 57 64  1  0  0  0  0
 58 64  1  0  0  0  0
 59 64  1  0  0  0  0
 60 75  1  0  0  0  0
 61 83  1  0  0  0  0
 62 64  1  0  0  0  0
 62 74  1  0  0  0  0
 63 75  1  0  0  0  0
 65 67  1  0  0  0  0
M  CHG  1  75   1
M  ISO  4  35 100  37 100  61 101  83 101
M  END
> <Batch ID>
0093

> <Smiles>
CNC(C)C(=O)NC(C(=O)N1Cc2cc([101O:1][101CH2:1]C3CC(=O)N(c4ccc([100C:0](=N)[100C:0](=O)N5CCCC(n6nc(-c7ccc(Oc8ccc(F)cc8F)cc7)c(C(N)=O)c6N)C5)cc4)C3)ccc2CC1C(=O)NC1CCCc2ccccc21)C(C)(C)C

> <Shape>
0.200

> <Color>
0.175

> <Negative vol penalty>
0.000

$$$$

  -OEChem-04052300373D

 89 98  0     1  0  0  0  0  0999 V2000
  -19.9417  -21.4424   16.2521 C   0  0  0  0  0  0  0  0  0  0  0  0
  -21.1159  -21.9522   16.7969 C   0  0  0  0  0  0  0  0  0  0  0  0
  -22.3476  -23.1297   23.8138 C   0  0  0  0  0  0  0  0  0  0  0  0
  -20.8162  -22.9990   21.9498 C   0  0  0  0  0  0  0  0  0  0  0  0
  -19.3998  -20.2585   16.7507 C   0  0  0  0  0  0  0  0  0  0  0  0
  -21.7483  -21.2788   17.8414 C   0  0  0  0  0  0  0  0  0  0  0  0
  -26.7586  -20.9446   17.1857 C   0  0  0  0  0  0  0  0  0  0  0  0
  -27.5001  -27.9690   23.3043 C   0  0  0  0  0  0  0  0  0  0  0  0
  -26.6236  -28.7612   24.0457 C   0  0  0  0  0  0  0  0  0  0  0  0
  -21.6973  -22.0568   24.4234 C   0  0  0  0  0  0  0  0  0  0  0  0
  -20.1659  -21.9260   22.5593 C   0  0  0  0  0  0  0  0  0  0  0  0
  -27.5151  -22.0807   17.4697 C   0  0  0  0  0  0  0  0  0  0  0  0
  -17.9046  -21.4610   25.0294 C   0  0  0  0  0  0  0  0  0  0  0  0
  -16.5099  -21.4722   25.0441 C   0  0  0  0  0  0  0  0  0  0  0  0
  -28.1055  -21.1444   19.6131 C   0  0  0  0  0  0  0  0  0  0  0  0
  -25.9906  -29.9421   22.0352 C   0  0  0  0  0  0  0  0  0  0  0  0
  -16.4802  -19.3969   23.8074 C   0  0  0  0  0  0  0  0  0  0  0  0
  -21.9070  -23.6009   22.5770 C   0  0  0  0  0  0  0  0  0  0  0  0
  -23.6667  -24.6495   21.0566 C   0  0  0  0  0  0  0  0  0  0  0  0
  -20.0311  -19.5651   17.7953 C   0  0  0  0  0  0  0  0  0  0  0  0
  -26.6609  -19.9028   18.1194 C   0  0  0  0  0  0  0  0  0  0  0  0
  -21.2136  -20.0852   18.3553 C   0  0  0  0  0  0  0  0  0  0  0  0
  -27.3493  -19.9950   19.3375 C   0  0  0  0  0  0  0  0  0  0  0  0
  -27.6220  -28.1633   21.9284 C   0  0  0  0  0  0  0  0  0  0  0  0
  -25.8689  -29.7478   23.4111 C   0  0  0  0  0  0  0  0  0  0  0  0
  -20.6065  -21.4549   23.7961 C   0  0  0  0  0  0  0  0  0  0  0  0
  -28.1864  -22.1820   18.6847 C   0  0  0  0  0  0  0  0  0  0  0  0
  -18.5872  -20.4179   24.4036 C   0  0  0  0  0  0  0  0  0  0  0  0
  -15.7977  -20.4401   24.4331 C   0  0  0  0  0  0  0  0  0  0  0  0
  -26.8672  -29.1498   21.2939 C   0  0  0  0  0  0  0  0  0  0  0  0
  -17.8750  -19.3858   23.7926 C   0  0  0  0  0  0  0  0  0  0  0  0
  -22.5780  -24.7095   21.9471 C   0  0  0  0  0  0  0  0  0  0  0  0
  -23.9299  -25.9615   20.7472 C   0  0  0  0  0  0  0  0  0  0  0  0
  -28.4116  -25.9755   21.0985 C   0  0  0  0  0  0  0  0  0  0  0  0
  -29.2337  -25.1440   20.4429 C   0  0  0  0  0  0  0  0  0  0  0  0
  -30.4286  -25.7540   19.7946 C   0  0  0  0  0  0  0  0  0  0  0  0
  -24.3765  -23.5097   20.5540 C   0  0  0  0  0  0  0  0  0  0  0  0
  -24.2806  -18.5653   19.7469 C   0  0  0  0  0  0  0  0  0  0  0  0
  -26.5964  -16.4898   20.6698 C   0  0  0  0  0  0  0  0  0  0  0  0
  -29.6815  -15.8672   20.6009 C   0  0  0  0  0  0  0  0  0  0  0  0
  -23.7788  -31.1143   23.6470 C   0  0  0  0  0  0  0  0  0  0  0  0
  -19.3822  -18.3142   18.3328 C   0  0  0  0  0  0  0  0  0  0  0  0
  -25.8625  -18.6722   17.7868 C   0  0  0  0  0  0  0  0  0  0  0  0
  -27.2931  -18.8955   20.3652 C   0  0  0  0  0  0  0  0  0  0  0  0
  -30.7335  -27.2056   20.0992 C   0  0  0  0  0  0  0  0  0  0  0  0
  -20.3161  -17.4635   19.1897 C   0  0  0  0  0  0  0  0  0  0  0  0
  -21.4089  -30.1981   20.9568 C   0  0  0  0  0  0  0  0  0  0  0  0
  -21.0661  -18.3369   20.1904 C   0  0  0  0  0  0  0  0  0  0  0  0
  -21.5116  -28.6745   20.9185 C   0  0  0  0  0  0  0  0  0  0  0  0
  -29.4765  -28.0471   20.3030 C   0  0  0  0  0  0  0  0  0  0  0  0
  -21.7052  -30.7509   22.3476 C   0  0  0  0  0  0  0  0  0  0  0  0
  -23.1299  -28.7877   22.8550 C   0  0  0  0  0  0  0  0  0  0  0  0
  -21.9424  -19.3705   19.4726 C   0  0  1  0  0  0  0  0  0  0  0  0
  -25.4155  -17.8979   19.0229 C   0  0  1  0  0  0  0  0  0  0  0  0
  -22.8754  -28.2091   21.4551 C   0  0  1  0  0  0  0  0  0  0  0  0
  -26.8512  -32.7651   26.6906 C   0  0  0  0  0  0  0  0  0  0  0  0
  -32.0394  -15.0241   20.7652 C   0  0  0  0  0  0  0  0  0  0  0  0
  -25.8053  -17.0853   23.5559 C   0  0  0  0  0  0  0  0  0  0  0  0
  -27.9726  -16.0670   24.2867 C   0  0  0  0  0  0  0  0  0  0  0  0
  -26.2872  -14.6775   23.0819 C   0  0  0  0  0  0  0  0  0  0  0  0
  -29.3136  -14.0454   18.2977 C   0  0  0  0  0  0  0  0  0  0  0  0
  -29.0344  -23.6683   20.3364 C   0  0  0  0  0  0  0  0  0  1  0  0
  -26.3510  -32.2592   25.3447 C   0  0  0  0  0  0  0  0  0  0  0  0
  -25.4177  -31.0615   25.4754 C   0  0  0  0  0  0  0  0  0  0  0  0
  -27.5879  -16.4307   21.8067 C   0  0  1  0  0  0  0  0  0  0  0  0
  -30.6198  -14.7071   20.3213 C   0  0  2  0  0  0  0  0  0  0  0  0
  -26.9130  -16.0869   23.1645 C   0  0  0  0  0  0  0  0  0  0  0  0
  -22.1772  -25.9607   22.1879 N   0  0  0  0  0  0  0  0  0  0  0  0
  -23.0186  -26.6990   21.4443 N   0  0  0  0  0  0  0  0  0  0  0  0
  -28.5162  -27.3562   21.1768 N   0  0  0  0  0  0  0  0  0  0  0  0
  -26.4942  -17.7152   19.9961 N   0  0  0  0  0  0  0  0  0  0  0  0
  -22.9782  -30.2518   22.8702 N   0  0  0  0  0  0  0  0  0  0  0  0
  -24.8497  -26.5449   19.9496 N   0  0  0  0  0  0  0  0  0  0  0  0
  -23.9753  -22.2342   20.9741 N   0  0  0  0  0  0  0  0  0  0  0  0
  -23.1505  -18.7493   18.9734 N   0  0  0  0  0  0  0  0  0  0  0  0
  -28.6223  -15.4867   21.3975 N   0  0  0  0  0  0  0  0  0  0  0  0
  -24.9624  -30.5670   24.1780 N   0  0  0  0  0  0  0  0  0  0  0  0
  -30.6412  -14.3980   18.8636 N   0  3  0  0  0  0  0  0  0  0  0  0
  -31.1794  -25.0771   19.0947 O   0  0  0  0  0  0  0  0  0  0  0  0
  -25.3485  -23.6199   19.7688 O   0  0  0  0  0  0  0  0  0  0  0  0
  -24.4195  -18.8880   20.9209 O   0  0  0  0  0  0  0  0  0  0  0  0
  -25.9419  -15.4836   20.3853 O   0  0  0  0  0  0  0  0  0  0  0  0
  -29.8714  -16.9986   20.1602 O   0  0  0  0  0  0  0  0  0  0  0  0
  -23.4362  -32.2763   23.8978 O   0  0  0  0  0  0  0  0  0  0  0  0
  -19.9719  -20.4078   24.3906 O   0  0  0  0  0  0  0  0  0  0  0  0
  -28.9249  -23.2902   18.9647 O   0  0  0  0  0  0  0  0  0  1  0  0
  -14.4584  -20.4502   24.4486 F   0  0  0  0  0  0  0  0  0  0  0  0
  -26.9778  -29.3458   19.9723 F   0  0  0  0  0  0  0  0  0  0  0  0
  -18.5252  -18.3803   23.1909 F   0  0  0  0  0  0  0  0  0  0  0  0
  1  2  1  0  0  0  0
  1  5  2  0  0  0  0
  2  6  2  0  0  0  0
  3 10  2  0  0  0  0
  3 18  1  0  0  0  0
  4 11  1  0  0  0  0
  4 18  2  0  0  0  0
  5 20  1  0  0  0  0
  6 22  1  0  0  0  0
  7 12  2  0  0  0  0
  7 21  1  0  0  0  0
  8  9  2  0  0  0  0
  8 24  1  0  0  0  0
  9 25  1  0  0  0  0
 10 26  1  0  0  0  0
 11 26  2  0  0  0  0
 12 27  1  0  0  0  0
 13 14  2  0  0  0  0
 13 28  1  0  0  0  0
 14 29  1  0  0  0  0
 15 23  1  0  0  0  0
 15 27  2  0  0  0  0
 16 25  2  0  0  0  0
 16 30  1  0  0  0  0
 17 29  2  0  0  0  0
 17 31  1  0  0  0  0
 18 32  1  0  0  0  0
 19 32  1  0  0  0  0
 19 33  2  0  0  0  0
 19 37  1  0  0  0  0
 20 22  2  0  0  0  0
 20 42  1  0  0  0  0
 21 23  2  0  0  0  0
 21 43  1  0  0  0  0
 22 53  1  0  0  0  0
 23 44  1  0  0  0  0
 24 30  2  0  0  0  0
 24 70  1  0  0  0  0
 25 77  1  0  0  0  0
 26 85  1  0  0  0  0
 27 86  1  0  0  0  0
 28 31  2  0  0  0  0
 28 85  1  0  0  0  0
 29 87  1  0  0  0  0
 30 88  1  0  0  0  0
 31 89  1  0  0  0  0
 32 68  2  0  0  0  0
 33 69  1  0  0  0  0
 33 73  1  0  0  0  0
 34 35  2  0  0  0  0
 34 70  1  0  0  0  0
 35 36  1  0  0  0  0
 35 62  1  0  0  0  0
 36 45  1  0  0  0  0
 36 79  2  0  0  0  0
 37 74  1  0  0  0  0
 37 80  2  0  0  0  0
 38 54  1  0  0  0  0
 38 75  1  0  0  0  0
 38 81  2  0  0  0  0
 39 65  1  0  0  0  0
 39 71  1  0  0  0  0
 39 82  2  0  0  0  0
 40 66  1  0  0  0  0
 40 76  1  0  0  0  0
 40 83  2  0  0  0  0
 41 72  1  0  0  0  0
 41 77  1  0  0  0  0
 41 84  2  0  0  0  0
 42 46  1  0  0  0  0
 43 54  1  0  0  0  0
 44 71  1  0  0  0  0
 45 50  1  0  0  0  0
 46 48  1  0  0  0  0
 47 49  1  0  0  0  0
 47 51  1  0  0  0  0
 48 53  1  0  0  0  0
 49 55  1  0  0  0  0
 50 70  1  0  0  0  0
 51 72  1  0  0  0  0
 52 55  1  0  0  0  0
 52 72  1  0  0  0  0
 53 75  1  0  0  0  0
 54 71  1  0  0  0  0
 55 69  1  0  0  0  0
 56 63  1  0  0  0  0
 57 66  1  0  0  0  0
 58 67  1  0  0  0  0
 59 67  1  0  0  0  0
 60 67  1  0  0  0  0
 61 78  1  0  0  0  0
 62 86  1  0  0  0  0
 63 64  1  0  0  0  0
 64 77  1  0  0  0  0
 65 67  1  0  0  0  0
 65 76  1  0  0  0  0
 66 78  1  0  0  0  0
 68 69  1  0  0  0  0
M  CHG  1  78   1
M  ISO  4  41 100  62 101  77 100  86 101
M  END
> <Batch ID>
0093

> <Smiles>
CCC[100N:0](c1ccc(N2C=C([101CH2:1][101O:1]c3ccc4c(c3)CN(C(=O)C(NC(=O)C(C)NC)C(C)(C)C)C(C(=O)NC3CCCc5ccccc53)C4)C(=O)CC2)c(F)c1)[100C:0](=O)N1CCCC(n2nc(-c3ccc(Oc4ccc(F)cc4F)cc3)c(C(N)=O)c2N)C1

> <Shape>
0.182

> <Color>
0.072

> <Negative vol penalty>
0.000

$$$$

  -OEChem-04052300373D

 86 95  0     1  0  0  0  0  0999 V2000
  -21.7487  -12.0155   19.3487 C   0  0  0  0  0  0  0  0  0  0  0  0
  -21.9391  -13.2360   18.7089 C   0  0  0  0  0  0  0  0  0  0  0  0
  -21.8663  -26.1763   23.6778 C   0  0  0  0  0  0  0  0  0  0  0  0
  -20.2707  -27.8874   23.0751 C   0  0  0  0  0  0  0  0  0  0  0  0
  -22.4115  -11.7462   20.5454 C   0  0  0  0  0  0  0  0  0  0  0  0
  -22.7915  -14.1886   19.2660 C   0  0  0  0  0  0  0  0  0  0  0  0
  -27.3469  -19.3863   17.3823 C   0  0  0  0  0  0  0  0  0  0  0  0
  -27.9396  -26.7102   24.0734 C   0  0  0  0  0  0  0  0  0  0  0  0
  -27.7721  -27.6166   25.1202 C   0  0  0  0  0  0  0  0  0  0  0  0
  -20.8382  -25.4118   24.2292 C   0  0  0  0  0  0  0  0  0  0  0  0
  -19.2426  -27.1229   23.6264 C   0  0  0  0  0  0  0  0  0  0  0  0
  -27.6074  -20.7329   17.6322 C   0  0  0  0  0  0  0  0  0  0  0  0
  -18.3850  -23.3662   23.1199 C   0  0  0  0  0  0  0  0  0  0  0  0
  -18.3577  -22.0042   22.8202 C   0  0  0  0  0  0  0  0  0  0  0  0
  -28.7608  -20.1268   19.6624 C   0  0  0  0  0  0  0  0  0  0  0  0
  -28.6203  -28.5154   22.6191 C   0  0  0  0  0  0  0  0  0  0  0  0
  -18.5531  -21.4830   25.1712 C   0  0  0  0  0  0  0  0  0  0  0  0
  -21.5826  -27.4142   23.1008 C   0  0  0  0  0  0  0  0  0  0  0  0
  -23.1105  -28.1718   21.2037 C   0  0  0  0  0  0  0  0  0  0  0  0
  -23.2800  -12.6922   21.1125 C   0  0  0  0  0  0  0  0  0  0  0  0
  -27.7826  -18.3989   18.2776 C   0  0  0  0  0  0  0  0  0  0  0  0
  -23.4655  -13.9323   20.4721 C   0  0  0  0  0  0  0  0  0  0  0  0
  -28.5067  -18.7682   19.4202 C   0  0  0  0  0  0  0  0  0  0  0  0
  -28.3638  -27.1595   22.8228 C   0  0  0  0  0  0  0  0  0  0  0  0
  -28.0287  -28.9725   24.9165 C   0  0  0  0  0  0  0  0  0  0  0  0
  -19.5263  -25.8850   24.2035 C   0  0  0  0  0  0  0  0  0  0  0  0
  -28.3120  -21.1036   18.7738 C   0  0  0  0  0  0  0  0  0  0  0  0
  -18.4965  -23.7866   24.4452 C   0  0  0  0  0  0  0  0  0  0  0  0
  -18.4417  -21.0626   23.8459 C   0  0  0  0  0  0  0  0  0  0  0  0
  -28.4528  -29.4219   23.6660 C   0  0  0  0  0  0  0  0  0  0  0  0
  -18.5805  -22.8450   25.4709 C   0  0  0  0  0  0  0  0  0  0  0  0
  -22.6443  -28.2046   22.5316 C   0  0  0  0  0  0  0  0  0  0  0  0
  -24.1199  -29.1027   21.1711 C   0  0  0  0  0  0  0  0  0  0  0  0
  -28.9537  -26.5319   20.4417 C   0  0  0  0  0  0  0  0  0  0  0  0
  -22.6704  -27.3715   20.0985 C   0  0  0  0  0  0  0  0  0  0  0  0
  -26.3421  -16.2193   20.0881 C   0  0  0  0  0  0  0  0  0  0  0  0
  -29.3856  -15.2652   20.6793 C   0  0  0  0  0  0  0  0  0  0  0  0
  -32.7016  -16.0637   20.7937 C   0  0  0  0  0  0  0  0  0  0  0  0
  -27.4874  -31.2532   25.8089 C   0  0  0  0  0  0  0  0  0  0  0  0
  -23.9377  -12.3745   22.4321 C   0  0  0  0  0  0  0  0  0  0  0  0
  -27.5167  -16.9487   17.9800 C   0  0  0  0  0  0  0  0  0  0  0  0
  -29.0140  -17.7453   20.4025 C   0  0  0  0  0  0  0  0  0  0  0  0
  -29.0814  -25.2221   19.6980 C   0  0  0  0  0  0  0  0  0  0  0  0
  -25.1138  -13.2899   22.7624 C   0  0  0  0  0  0  0  0  0  0  0  0
  -25.5872  -33.1447   23.2585 C   0  0  0  0  0  0  0  0  0  0  0  0
  -24.7432  -14.7478   22.5089 C   0  0  0  0  0  0  0  0  0  0  0  0
  -24.5994  -32.1055   22.7315 C   0  0  0  0  0  0  0  0  0  0  0  0
  -25.9753  -32.8729   24.7087 C   0  0  0  0  0  0  0  0  0  0  0  0
  -28.3572  -24.8038   21.9315 C   0  0  0  0  0  0  0  0  0  0  0  0
  -25.5239  -30.4551   24.4056 C   0  0  0  0  0  0  0  0  0  0  0  0
  -24.4013  -14.9813   21.0324 C   0  0  1  0  0  0  0  0  0  0  0  0
  -27.5611  -16.0657   19.2232 C   0  0  1  0  0  0  0  0  0  0  0  0
  -28.2287  -24.2625   20.5158 C   0  0  2  0  0  0  0  0  0  0  0  0
  -25.1485  -30.6836   22.9339 C   0  0  1  0  0  0  0  0  0  0  0  0
  -34.9451  -15.0864   21.3496 C   0  0  0  0  0  0  0  0  0  0  0  0
  -28.7494  -15.5030   23.6540 C   0  0  0  0  0  0  0  0  0  0  0  0
  -31.2101  -15.4542   24.1130 C   0  0  0  0  0  0  0  0  0  0  0  0
  -30.1052  -13.4949   23.0344 C   0  0  0  0  0  0  0  0  0  0  0  0
  -28.3262  -29.5141   27.3267 C   0  0  0  0  0  0  0  0  0  0  0  0
  -33.7016  -16.4974   18.0422 C   0  0  0  0  0  0  0  0  0  0  0  0
  -28.6672  -22.8140   20.3876 C   0  0  0  0  0  0  0  0  0  1  0  0
  -30.4369  -15.6187   21.7034 C   0  0  1  0  0  0  0  0  0  0  0  0
  -33.9281  -15.3529   20.2507 C   0  0  2  0  0  0  0  0  0  0  0  0
  -30.1143  -15.0373   23.1089 C   0  0  0  0  0  0  0  0  0  0  0  0
  -23.3036  -29.0864   23.2879 N   0  0  0  0  0  0  0  0  0  0  0  0
  -24.1943  -29.6162   22.4324 N   0  0  0  0  0  0  0  0  0  0  0  0
  -28.5346  -26.2325   21.7515 N   0  0  0  0  0  0  0  0  0  0  0  0
  -28.7233  -16.3407   20.0706 N   0  0  0  0  0  0  0  0  0  0  0  0
  -26.4393  -31.4976   24.8979 N   0  0  0  0  0  0  0  0  0  0  0  0
  -24.9422  -29.5238   20.1868 N   0  0  0  0  0  0  0  0  0  0  0  0
  -21.6215  -26.4653   20.3056 N   0  0  0  0  0  0  0  0  0  0  0  0
  -25.6098  -15.0573   20.2397 N   0  0  0  0  0  0  0  0  0  0  0  0
  -31.7113  -15.1730   21.1506 N   0  0  0  0  0  0  0  0  0  0  0  0
  -27.8540  -29.9075   26.0010 N   0  0  0  0  0  0  0  0  0  0  0  0
  -34.5812  -16.1792   19.1963 N   0  3  0  0  0  0  0  0  0  0  0  0
  -29.2428  -27.6056   19.9334 O   0  0  0  0  0  0  0  0  0  0  0  0
  -23.2028  -27.4457   18.9651 O   0  0  0  0  0  0  0  0  0  0  0  0
  -26.0858  -17.3108   20.5826 O   0  0  0  0  0  0  0  0  0  0  0  0
  -29.1652  -14.0788   20.4236 O   0  0  0  0  0  0  0  0  0  0  0  0
  -32.6306  -17.2865   20.8949 O   0  0  0  0  0  0  0  0  0  0  0  0
  -28.0232  -32.1656   26.4500 O   0  0  0  0  0  0  0  0  0  0  0  0
  -18.5227  -25.1392   24.7412 O   0  0  0  0  0  0  0  0  0  0  0  0
  -28.5671  -22.4173   19.0205 O   0  0  0  0  0  0  0  0  0  1  0  0
  -18.4138  -19.7547   23.5581 F   0  0  0  0  0  0  0  0  0  0  0  0
  -28.7008  -30.7230   23.4582 F   0  0  0  0  0  0  0  0  0  0  0  0
  -18.6865  -23.2429   26.7461 F   0  0  0  0  0  0  0  0  0  0  0  0
  1  2  1  0  0  0  0
  1  5  2  0  0  0  0
  2  6  2  0  0  0  0
  3 10  2  0  0  0  0
  3 18  1  0  0  0  0
  4 11  1  0  0  0  0
  4 18  2  0  0  0  0
  5 20  1  0  0  0  0
  6 22  1  0  0  0  0
  7 12  2  0  0  0  0
  7 21  1  0  0  0  0
  8  9  2  0  0  0  0
  8 24  1  0  0  0  0
  9 25  1  0  0  0  0
 10 26  1  0  0  0  0
 11 26  2  0  0  0  0
 12 27  1  0  0  0  0
 13 14  2  0  0  0  0
 13 28  1  0  0  0  0
 14 29  1  0  0  0  0
 15 23  1  0  0  0  0
 15 27  2  0  0  0  0
 16 24  2  0  0  0  0
 16 30  1  0  0  0  0
 17 29  2  0  0  0  0
 17 31  1  0  0  0  0
 18 32  1  0  0  0  0
 19 32  1  0  0  0  0
 19 33  2  0  0  0  0
 19 35  1  0  0  0  0
 20 22  2  0  0  0  0
 20 40  1  0  0  0  0
 21 23  2  0  0  0  0
 21 41  1  0  0  0  0
 22 51  1  0  0  0  0
 23 42  1  0  0  0  0
 24 67  1  0  0  0  0
 25 30  2  0  0  0  0
 25 74  1  0  0  0  0
 26 82  1  0  0  0  0
 27 83  1  0  0  0  0
 28 31  2  0  0  0  0
 28 82  1  0  0  0  0
 29 84  1  0  0  0  0
 30 85  1  0  0  0  0
 31 86  1  0  0  0  0
 32 65  2  0  0  0  0
 33 66  1  0  0  0  0
 33 70  1  0  0  0  0
 34 43  1  0  0  0  0
 34 67  1  0  0  0  0
 34 76  2  0  0  0  0
 35 71  1  0  0  0  0
 35 77  2  0  0  0  0
 36 52  1  0  0  0  0
 36 72  1  0  0  0  0
 36 78  2  0  0  0  0
 37 62  1  0  0  0  0
 37 68  1  0  0  0  0
 37 79  2  0  0  0  0
 38 63  1  0  0  0  0
 38 73  1  0  0  0  0
 38 80  2  0  0  0  0
 39 69  1  0  0  0  0
 39 74  1  0  0  0  0
 39 81  2  0  0  0  0
 40 44  1  0  0  0  0
 41 52  1  0  0  0  0
 42 68  1  0  0  0  0
 43 53  1  0  0  0  0
 44 46  1  0  0  0  0
 45 47  1  0  0  0  0
 45 48  1  0  0  0  0
 46 51  1  0  0  0  0
 47 54  1  0  0  0  0
 48 69  1  0  0  0  0
 49 53  1  0  0  0  0
 49 67  1  0  0  0  0
 50 54  1  0  0  0  0
 50 69  1  0  0  0  0
 51 72  1  0  0  0  0
 52 68  1  0  0  0  0
 53 61  1  0  0  0  0
 54 66  1  0  0  0  0
 55 63  1  0  0  0  0
 56 64  1  0  0  0  0
 57 64  1  0  0  0  0
 58 64  1  0  0  0  0
 59 74  1  0  0  0  0
 60 75  1  0  0  0  0
 61 83  1  0  0  0  0
 62 64  1  0  0  0  0
 62 73  1  0  0  0  0
 63 75  1  0  0  0  0
 65 66  1  0  0  0  0
M  CHG  1  75   1
M  ISO  4  39 100  61 101  74 100  83 101
M  END
> <Batch ID>
0093

> <Smiles>
CNC(C)C(=O)NC(C(=O)N1Cc2cc([101O:1][101CH2:1]C3CC(=O)N(c4ccc([100N:0](C)[100C:0](=O)N5CCCC(n6nc(-c7ccc(Oc8ccc(F)cc8F)cc7)c(C(N)=O)c6N)C5)c(F)c4)C3)ccc2CC1C(=O)NC1CCCc2ccccc21)C(C)(C)C

> <Shape>
0.255

> <Color>
0.052

> <Negative vol penalty>
0.000

$$$$

  -OEChem-04052300373D

 84 92  0     1  0  0  0  0  0999 V2000
  -28.2800  -35.0964   26.5048 C   0  0  0  0  0  0  0  0  0  0  0  0
  -28.7887  -34.4746   25.3690 C   0  0  0  0  0  0  0  0  0  0  0  0
  -22.7131  -12.1597   18.3929 C   0  0  0  0  0  0  0  0  0  0  0  0
  -22.5860  -10.8495   20.4189 C   0  0  0  0  0  0  0  0  0  0  0  0
  -30.4284  -19.4555   19.2915 C   0  0  0  0  0  0  0  0  0  0  0  0
  -27.3747  -34.4206   27.3218 C   0  0  0  0  0  0  0  0  0  0  0  0
  -28.3931  -33.1760   25.0502 C   0  0  0  0  0  0  0  0  0  0  0  0
  -27.1584  -28.9434   19.4042 C   0  0  0  0  0  0  0  0  0  0  0  0
  -29.6953  -20.6421   19.3012 C   0  0  0  0  0  0  0  0  0  0  0  0
  -21.6612  -11.4220   17.8499 C   0  0  0  0  0  0  0  0  0  0  0  0
  -21.5340  -10.1119   19.8758 C   0  0  0  0  0  0  0  0  0  0  0  0
  -27.5126  -27.6940   18.8969 C   0  0  0  0  0  0  0  0  0  0  0  0
  -19.0538   -7.6463   18.8862 C   0  0  0  0  0  0  0  0  0  0  0  0
  -19.0895   -6.2599   19.0349 C   0  0  0  0  0  0  0  0  0  0  0  0
  -25.8823  -26.6532   20.3384 C   0  0  0  0  0  0  0  0  0  0  0  0
  -28.3934  -19.8225   21.1642 C   0  0  0  0  0  0  0  0  0  0  0  0
  -21.1808   -6.1842   17.8274 C   0  0  0  0  0  0  0  0  0  0  0  0
  -23.1755  -11.8734   19.6774 C   0  0  0  0  0  0  0  0  0  0  0  0
  -30.1440  -18.4523   20.2180 C   0  0  0  0  0  0  0  0  0  0  0  0
  -24.1696  -13.8168   20.9976 C   0  0  0  0  0  0  0  0  0  0  0  0
  -26.9604  -33.1167   27.0076 C   0  0  0  0  0  0  0  0  0  0  0  0
  -26.1696  -29.0562   20.3921 C   0  0  0  0  0  0  0  0  0  0  0  0
  -27.4824  -32.4816   25.8645 C   0  0  0  0  0  0  0  0  0  0  0  0
  -25.5157  -27.9054   20.8549 C   0  0  0  0  0  0  0  0  0  0  0  0
  -28.6778  -20.8256   20.2376 C   0  0  0  0  0  0  0  0  0  0  0  0
  -29.1266  -18.6358   21.1544 C   0  0  0  0  0  0  0  0  0  0  0  0
  -21.0716  -10.3982   18.5913 C   0  0  0  0  0  0  0  0  0  0  0  0
  -26.8765  -26.5484   19.3660 C   0  0  0  0  0  0  0  0  0  0  0  0
  -20.0815   -8.3017   18.2080 C   0  0  0  0  0  0  0  0  0  0  0  0
  -20.1530   -5.5288   18.5055 C   0  0  0  0  0  0  0  0  0  0  0  0
  -21.1450   -7.5707   17.6786 C   0  0  0  0  0  0  0  0  0  0  0  0
  -24.2625  -12.6347   20.2388 C   0  0  0  0  0  0  0  0  0  0  0  0
  -25.4721  -14.1405   21.2897 C   0  0  0  0  0  0  0  0  0  0  0  0
  -30.9437  -17.2009   20.1810 C   0  0  0  0  0  0  0  0  0  0  0  0
  -23.0098  -14.5560   21.4023 C   0  0  0  0  0  0  0  0  0  0  0  0
  -26.1045  -30.1074   23.3912 C   0  0  0  0  0  0  0  0  0  0  0  0
  -22.9147  -29.6019   23.0877 C   0  0  0  0  0  0  0  0  0  0  0  0
  -28.0837  -23.1239   19.4015 C   0  0  0  0  0  0  0  0  0  0  0  0
  -20.3805  -27.9503   21.5076 C   0  0  0  0  0  0  0  0  0  0  0  0
  -30.7845  -14.7549   19.8412 C   0  0  0  0  0  0  0  0  0  0  0  0
  -26.0161  -32.4089   27.9467 C   0  0  0  0  0  0  0  0  0  0  0  0
  -25.7803  -30.4137   20.9098 C   0  0  0  0  0  0  0  0  0  0  0  0
  -24.4333  -27.9744   21.8999 C   0  0  0  0  0  0  0  0  0  0  0  0
  -25.3605  -31.1736   27.3347 C   0  0  0  0  0  0  0  0  0  0  0  0
  -29.7434  -11.4851   20.6905 C   0  0  0  0  0  0  0  0  0  0  0  0
  -26.4010  -30.3138   26.6241 C   0  0  0  0  0  0  0  0  0  0  0  0
  -28.2161  -11.5886   20.7198 C   0  0  0  0  0  0  0  0  0  0  0  0
  -30.3480  -12.3297   19.5698 C   0  0  0  0  0  0  0  0  0  0  0  0
  -28.4008  -13.8351   19.5782 C   0  0  0  0  0  0  0  0  0  0  0  0
  -27.0584  -31.0830   25.4718 C   0  0  1  0  0  0  0  0  0  0  0  0
  -25.1207  -30.3623   22.2845 C   0  0  1  0  0  0  0  0  0  0  0  0
  -27.7488  -13.0580   20.7333 C   0  0  1  0  0  0  0  0  0  0  0  0
  -17.8818  -27.7182   21.5030 C   0  0  0  0  0  0  0  0  0  0  0  0
  -23.0705  -27.9007   25.6158 C   0  0  0  0  0  0  0  0  0  0  0  0
  -20.8292  -26.9507   25.0308 C   0  0  0  0  0  0  0  0  0  0  0  0
  -21.0674  -29.3922   25.4838 C   0  0  0  0  0  0  0  0  0  0  0  0
  -20.1811  -28.9031   18.7128 C   0  0  0  0  0  0  0  0  0  0  0  0
  -27.0839  -24.2106   19.7504 C   0  0  0  0  0  0  0  0  0  1  0  0
  -21.9891  -28.4349   23.3330 C   0  0  1  0  0  0  0  0  0  0  0  0
  -19.0773  -28.4442   20.9059 C   0  0  2  0  0  0  0  0  0  0  0  0
  -21.7608  -28.1678   24.8476 C   0  0  0  0  0  0  0  0  0  0  0  0
  -25.5242  -12.2346   20.0598 N   0  0  0  0  0  0  0  0  0  0  0  0
  -26.2362  -13.1706   20.7103 N   0  0  0  0  0  0  0  0  0  0  0  0
  -24.0926  -29.3240   22.3796 N   0  0  0  0  0  0  0  0  0  0  0  0
  -29.8637  -13.7085   19.6587 N   0  0  0  0  0  0  0  0  0  0  0  0
  -28.8217  -17.6317   22.1001 N   0  0  0  0  0  0  0  0  0  0  0  0
  -26.0268  -15.1574   21.9829 N   0  0  0  0  0  0  0  0  0  0  0  0
  -21.7480  -14.0833   21.0166 N   0  0  0  0  0  0  0  0  0  0  0  0
  -27.9345  -22.0297   20.2468 N   0  0  0  0  0  0  0  0  0  0  0  0
  -30.2194  -16.0298   19.9567 N   0  0  0  0  0  0  0  0  0  0  0  0
  -26.1777  -31.1241   24.3241 N   0  0  0  0  0  0  0  0  0  0  0  0
  -20.7687  -28.7177   22.5854 N   0  0  0  0  0  0  0  0  0  0  0  0
  -19.0717  -28.2254   19.4317 N   0  3  0  0  0  0  0  0  0  0  0  0
  -32.1635  -17.2668   20.3056 O   0  0  0  0  0  0  0  0  0  0  0  0
  -23.0908  -15.6137   22.0719 O   0  0  0  0  0  0  0  0  0  0  0  0
  -26.7484  -29.0648   23.3989 O   0  0  0  0  0  0  0  0  0  0  0  0
  -22.6008  -30.7204   23.5026 O   0  0  0  0  0  0  0  0  0  0  0  0
  -28.8869  -23.2601   18.4844 O   0  0  0  0  0  0  0  0  0  0  0  0
  -20.9911  -26.9784   21.0680 O   0  0  0  0  0  0  0  0  0  0  0  0
  -32.0018  -14.5668   19.9318 O   0  0  0  0  0  0  0  0  0  0  0  0
  -20.0450   -9.6783   18.0618 O   0  0  0  0  0  0  0  0  0  0  0  0
  -27.2207  -25.3276   18.8729 O   0  0  0  0  0  0  0  0  0  1  0  0
  -20.1880   -4.1976   18.6498 F   0  0  0  0  0  0  0  0  0  0  0  0
  -22.1358   -8.1949   17.0271 F   0  0  0  0  0  0  0  0  0  0  0  0
  1  2  1  0  0  0  0
  1  6  2  0  0  0  0
  2  7  2  0  0  0  0
  3 10  2  0  0  0  0
  3 18  1  0  0  0  0
  4 11  1  0  0  0  0
  4 18  2  0  0  0  0
  5  9  2  0  0  0  0
  5 19  1  0  0  0  0
  6 21  1  0  0  0  0
  7 23  1  0  0  0  0
  8 12  2  0  0  0  0
  8 22  1  0  0  0  0
  9 25  1  0  0  0  0
 10 27  1  0  0  0  0
 11 27  2  0  0  0  0
 12 28  1  0  0  0  0
 13 14  2  0  0  0  0
 13 29  1  0  0  0  0
 14 30  1  0  0  0  0
 15 24  1  0  0  0  0
 15 28  2  0  0  0  0
 16 25  2  0  0  0  0
 16 26  1  0  0  0  0
 17 30  2  0  0  0  0
 17 31  1  0  0  0  0
 18 32  1  0  0  0  0
 19 26  2  0  0  0  0
 19 34  1  0  0  0  0
 20 32  1  0  0  0  0
 20 33  2  0  0  0  0
 20 35  1  0  0  0  0
 21 23  2  0  0  0  0
 21 41  1  0  0  0  0
 22 24  2  0  0  0  0
 22 42  1  0  0  0  0
 23 50  1  0  0  0  0
 24 43  1  0  0  0  0
 25 69  1  0  0  0  0
 26 66  1  0  0  0  0
 27 81  1  0  0  0  0
 28 82  1  0  0  0  0
 29 31  2  0  0  0  0
 29 81  1  0  0  0  0
 30 83  1  0  0  0  0
 31 84  1  0  0  0  0
 32 62  2  0  0  0  0
 33 63  1  0  0  0  0
 33 67  1  0  0  0  0
 34 70  1  0  0  0  0
 34 74  2  0  0  0  0
 35 68  1  0  0  0  0
 35 75  2  0  0  0  0
 36 51  1  0  0  0  0
 36 71  1  0  0  0  0
 36 76  2  0  0  0  0
 37 59  1  0  0  0  0
 37 64  1  0  0  0  0
 37 77  2  0  0  0  0
 38 58  1  0  0  0  0
 38 69  1  0  0  0  0
 38 78  2  0  0  0  0
 39 60  1  0  0  0  0
 39 72  1  0  0  0  0
 39 79  2  0  0  0  0
 40 65  1  0  0  0  0
 40 70  1  0  0  0  0
 40 80  2  0  0  0  0
 41 44  1  0  0  0  0
 42 51  1  0  0  0  0
 43 64  1  0  0  0  0
 44 46  1  0  0  0  0
 45 47  1  0  0  0  0
 45 48  1  0  0  0  0
 46 50  1  0  0  0  0
 47 52  1  0  0  0  0
 48 65  1  0  0  0  0
 49 52  1  0  0  0  0
 49 65  1  0  0  0  0
 50 71  1  0  0  0  0
 51 64  1  0  0  0  0
 52 63  1  0  0  0  0
 53 60  1  0  0  0  0
 54 61  1  0  0  0  0
 55 61  1  0  0  0  0
 56 61  1  0  0  0  0
 57 73  1  0  0  0  0
 58 82  1  0  0  0  0
 59 61  1  0  0  0  0
 59 72  1  0  0  0  0
 60 73  1  0  0  0  0
 62 63  1  0  0  0  0
M  CHG  1  73   1
M  ISO  4  40 100  58 101  70 100  82 101
M  END
> <Batch ID>
0093

> <Smiles>
CNC(C)C(=O)NC(C(=O)N1Cc2cc([101O:1][101CH2:1]C(=O)Nc3ccc(C(=O)[100NH:0][100C:0](=O)N4CCCC(n5nc(-c6ccc(Oc7ccc(F)cc7F)cc6)c(C(N)=O)c5N)C4)c(N)c3)ccc2CC1C(=O)NC1CCCc2ccccc21)C(C)(C)C

> <Shape>
0.307

> <Color>
0.099

> <Negative vol penalty>
0.000

$$$$
