
  -OEChem-04052300403D

 79 86  0     1  0  0  0  0  0999 V2000
  -16.6675  -29.7285   23.3398 C   0  0  0  0  0  0  0  0  0  0  0  0
  -17.7016  -30.0367   22.4617 C   0  0  0  0  0  0  0  0  0  0  0  0
  -25.4202  -14.1789   22.0913 C   0  0  0  0  0  0  0  0  0  0  0  0
  -25.6352  -13.1662   19.9084 C   0  0  0  0  0  0  0  0  0  0  0  0
  -16.8904  -28.8443   24.3946 C   0  0  0  0  0  0  0  0  0  0  0  0
  -18.9596  -29.4617   22.6386 C   0  0  0  0  0  0  0  0  0  0  0  0
  -24.6149  -27.1459   18.9008 C   0  0  0  0  0  0  0  0  0  0  0  0
  -24.3228  -13.3617   22.3623 C   0  0  0  0  0  0  0  0  0  0  0  0
  -24.5379  -12.3489   20.1794 C   0  0  0  0  0  0  0  0  0  0  0  0
  -25.9995  -27.2967   18.8381 C   0  0  0  0  0  0  0  0  0  0  0  0
  -22.0155   -9.7430   20.4353 C   0  0  0  0  0  0  0  0  0  0  0  0
  -22.1152   -8.3915   20.1050 C   0  0  0  0  0  0  0  0  0  0  0  0
  -26.2469  -25.7218   20.6485 C   0  0  0  0  0  0  0  0  0  0  0  0
  -24.0073   -8.1681   21.5907 C   0  0  0  0  0  0  0  0  0  0  0  0
  -26.0764  -14.0812   20.8643 C   0  0  0  0  0  0  0  0  0  0  0  0
  -28.5641  -14.6458   20.8465 C   0  0  0  0  0  0  0  0  0  0  0  0
  -18.1491  -28.2508   24.5787 C   0  0  0  0  0  0  0  0  0  0  0  0
  -24.0343  -26.2888   19.8467 C   0  0  0  0  0  0  0  0  0  0  0  0
  -19.1999  -28.5699   23.6976 C   0  0  0  0  0  0  0  0  0  0  0  0
  -24.8548  -25.5600   20.7195 C   0  0  0  0  0  0  0  0  0  0  0  0
  -23.8816  -12.4467   21.4064 C   0  0  0  0  0  0  0  0  0  0  0  0
  -26.8155  -26.5867   19.7139 C   0  0  0  0  0  0  0  0  0  0  0  0
  -22.9118  -10.3071   21.3432 C   0  0  0  0  0  0  0  0  0  0  0  0
  -23.1111   -7.6040   20.6828 C   0  0  0  0  0  0  0  0  0  0  0  0
  -23.9076   -9.5196   21.9210 C   0  0  0  0  0  0  0  0  0  0  0  0
  -27.2097  -14.9255   20.5835 C   0  0  0  0  0  0  0  0  0  0  0  0
  -29.2374  -15.7554   20.3971 C   0  0  0  0  0  0  0  0  0  0  0  0
  -29.1602  -13.4866   21.4435 C   0  0  0  0  0  0  0  0  0  0  0  0
  -22.0395  -26.6688   22.2921 C   0  0  0  0  0  0  0  0  0  0  0  0
  -30.4091  -26.3219   20.3600 C   0  0  0  0  0  0  0  0  0  0  0  0
  -22.1478  -23.4280   22.3793 C   0  0  0  0  0  0  0  0  0  0  0  0
  -30.9053  -23.3583   19.6426 C   0  0  0  0  0  0  0  0  0  0  0  0
  -23.8468  -20.5647   21.6298 C   0  0  0  0  0  0  0  0  0  0  0  0
  -29.7850  -21.1964   20.1126 C   0  0  0  0  0  0  0  0  0  0  0  0
  -18.3551  -27.3376   25.7613 C   0  0  0  0  0  0  0  0  0  0  0  0
  -22.5405  -26.1170   19.8837 C   0  0  0  0  0  0  0  0  0  0  0  0
  -24.2821  -24.6116   21.7398 C   0  0  0  0  0  0  0  0  0  0  0  0
  -19.6148  -26.4817   25.6577 C   0  0  0  0  0  0  0  0  0  0  0  0
  -27.6465  -19.6758   17.6218 C   0  0  0  0  0  0  0  0  0  0  0  0
  -20.8050  -27.3333   25.2275 C   0  0  0  0  0  0  0  0  0  0  0  0
  -27.4573  -18.2713   18.1988 C   0  0  0  0  0  0  0  0  0  0  0  0
  -27.6752  -20.7263   18.7276 C   0  0  0  0  0  0  0  0  0  0  0  0
  -28.5136  -19.0821   20.3607 C   0  0  0  0  0  0  0  0  0  0  0  0
  -20.5717  -27.9473   23.8418 C   0  0  1  0  0  0  0  0  0  0  0  0
  -22.0308  -25.6077   21.2283 C   0  0  1  0  0  0  0  0  0  0  0  0
  -28.4959  -17.9700   19.2960 C   0  0  1  0  0  0  0  0  0  0  0  0
  -30.9517  -27.5019   21.1303 C   0  0  0  0  0  0  0  0  0  0  0  0
  -31.5038  -24.5145   17.4781 C   0  0  0  0  0  0  0  0  0  0  0  0
  -24.2744  -18.1023   21.4038 C   0  0  0  0  0  0  0  0  0  0  0  0
  -22.9047  -23.6573   25.3263 C   0  0  0  0  0  0  0  0  0  0  0  0
  -23.6592  -21.2714   25.2463 C   0  0  0  0  0  0  0  0  0  0  0  0
  -21.2697  -21.8374   24.8077 C   0  0  0  0  0  0  0  0  0  0  0  0
  -22.6363  -20.4844   18.9303 C   0  0  0  0  0  0  0  0  0  0  0  0
  -28.9493  -25.9832   20.5734 C   0  0  0  0  0  0  0  0  0  1  0  0
  -23.0169  -22.4055   23.0709 C   0  0  1  0  0  0  0  0  0  0  0  0
  -30.7164  -24.5918   18.7753 C   0  0  2  0  0  0  0  0  0  0  0  0
  -23.3996  -19.2701   20.9752 C   0  0  2  0  0  0  0  0  0  0  0  0
  -22.7236  -22.3122   24.5950 C   0  0  0  0  0  0  0  0  0  0  0  0
  -27.0314  -16.1193   20.0115 N   0  0  0  0  0  0  0  0  0  0  0  0
  -31.2150  -25.7218   19.5621 N   0  0  0  0  0  0  0  0  0  0  0  0
  -28.2825  -16.5996   19.9115 N   0  0  0  0  0  0  0  0  0  0  0  0
  -22.8155  -24.4827   21.7410 N   0  0  0  0  0  0  0  0  0  0  0  0
  -28.7007  -20.3901   19.7249 N   0  0  0  0  0  0  0  0  0  0  0  0
  -30.5471  -16.0816   20.3741 N   0  0  0  0  0  0  0  0  0  0  0  0
  -28.3229  -12.4381   21.8483 N   0  0  0  0  0  0  0  0  0  0  0  0
  -20.7907  -26.9590   22.8076 N   0  0  0  0  0  0  0  0  0  0  0  0
  -29.8892  -22.4186   19.4411 N   0  0  0  0  0  0  0  0  0  0  0  0
  -22.8271  -21.1526   22.3481 N   0  0  0  0  0  0  0  0  0  0  0  0
  -23.4686  -19.3892   19.4913 N   0  3  0  0  0  0  0  0  0  0  0  0
  -30.3972  -13.3905   21.6280 O   0  0  0  0  0  0  0  0  0  0  0  0
  -23.1009  -27.1850   22.6218 O   0  0  0  0  0  0  0  0  0  0  0  0
  -20.9219  -23.2918   22.3985 O   0  0  0  0  0  0  0  0  0  0  0  0
  -31.8379  -23.2359   20.4331 O   0  0  0  0  0  0  0  0  0  0  0  0
  -24.9877  -21.0080   21.5184 O   0  0  0  0  0  0  0  0  0  0  0  0
  -30.6102  -20.8448   20.9617 O   0  0  0  0  0  0  0  0  0  0  0  0
  -22.8110  -11.6489   21.6706 O   0  0  0  0  0  0  0  0  0  0  0  0
  -28.1804  -26.7339   19.6547 O   0  0  0  0  0  0  0  0  0  1  0  0
  -23.2057   -6.3058   20.3667 F   0  0  0  0  0  0  0  0  0  0  0  0
  -24.7707  -10.0556   22.7948 F   0  0  0  0  0  0  0  0  0  0  0  0
  1  2  1  0  0  0  0
  1  5  2  0  0  0  0
  2  6  2  0  0  0  0
  3  8  2  0  0  0  0
  3 15  1  0  0  0  0
  4  9  1  0  0  0  0
  4 15  2  0  0  0  0
  5 17  1  0  0  0  0
  6 19  1  0  0  0  0
  7 10  2  0  0  0  0
  7 18  1  0  0  0  0
  8 21  1  0  0  0  0
  9 21  2  0  0  0  0
 10 22  1  0  0  0  0
 11 12  2  0  0  0  0
 11 23  1  0  0  0  0
 12 24  1  0  0  0  0
 13 20  1  0  0  0  0
 13 22  2  0  0  0  0
 14 24  2  0  0  0  0
 14 25  1  0  0  0  0
 15 26  1  0  0  0  0
 16 26  1  0  0  0  0
 16 27  2  0  0  0  0
 16 28  1  0  0  0  0
 17 19  2  0  0  0  0
 17 35  1  0  0  0  0
 18 20  2  0  0  0  0
 18 36  1  0  0  0  0
 19 44  1  0  0  0  0
 20 37  1  0  0  0  0
 21 76  1  0  0  0  0
 22 77  1  0  0  0  0
 23 25  2  0  0  0  0
 23 76  1  0  0  0  0
 24 78  1  0  0  0  0
 25 79  1  0  0  0  0
 26 59  2  0  0  0  0
 27 61  1  0  0  0  0
 27 64  1  0  0  0  0
 28 65  1  0  0  0  0
 28 70  2  0  0  0  0
 29 45  1  0  0  0  0
 29 66  1  0  0  0  0
 29 71  2  0  0  0  0
 30 47  1  0  0  0  0
 30 54  1  0  0  0  0
 30 60  2  0  0  0  0
 31 55  1  0  0  0  0
 31 62  1  0  0  0  0
 31 72  2  0  0  0  0
 32 56  1  0  0  0  0
 32 67  1  0  0  0  0
 32 73  2  0  0  0  0
 33 57  1  0  0  0  0
 33 68  1  0  0  0  0
 33 74  2  0  0  0  0
 34 63  1  0  0  0  0
 34 67  1  0  0  0  0
 34 75  2  0  0  0  0
 35 38  1  0  0  0  0
 36 45  1  0  0  0  0
 37 62  1  0  0  0  0
 38 40  1  0  0  0  0
 39 41  1  0  0  0  0
 39 42  1  0  0  0  0
 40 44  1  0  0  0  0
 41 46  1  0  0  0  0
 42 63  1  0  0  0  0
 43 46  1  0  0  0  0
 43 63  1  0  0  0  0
 44 66  1  0  0  0  0
 45 62  1  0  0  0  0
 46 61  1  0  0  0  0
 48 56  1  0  0  0  0
 49 57  1  0  0  0  0
 50 58  1  0  0  0  0
 51 58  1  0  0  0  0
 52 58  1  0  0  0  0
 53 69  1  0  0  0  0
 54 77  1  0  0  0  0
 55 58  1  0  0  0  0
 55 68  1  0  0  0  0
 56 60  1  0  0  0  0
 57 69  1  0  0  0  0
 59 61  1  0  0  0  0
M  CHG  1  69   1
M  ISO  4  34 100  54 101  67 100  77 101
M  END
> <Batch ID>
0094

> <Smiles>
CNC(C)C(=O)NC(C(=O)N1Cc2cc([101O:1][101CH2:1]C(C)=NC(C)C(=O)[100NH:0][100C:0](=O)N3CCCC(n4nc(-c5ccc(Oc6ccc(F)cc6F)cc5)c(C(N)=O)c4N)C3)ccc2CC1C(=O)NC1CCCc2ccccc21)C(C)(C)C

> <Shape>
0.255

> <Color>
0.080

> <Negative vol penalty>
0.000

$$$$

  -OEChem-04052300403D

 82 90  0     1  0  0  0  0  0999 V2000
  -30.2804  -24.2028   18.1642 C   0  0  0  0  0  0  0  0  0  0  0  0
  -29.0061  -24.7256   18.3530 C   0  0  0  0  0  0  0  0  0  0  0  0
  -23.4499  -13.9067   20.4906 C   0  0  0  0  0  0  0  0  0  0  0  0
  -25.6951  -14.3162   21.2831 C   0  0  0  0  0  0  0  0  0  0  0  0
  -31.3152  -24.5724   19.0209 C   0  0  0  0  0  0  0  0  0  0  0  0
  -28.7687  -25.6273   19.3910 C   0  0  0  0  0  0  0  0  0  0  0  0
  -24.3288  -27.7410   19.5439 C   0  0  0  0  0  0  0  0  0  0  0  0
  -23.7770  -12.5716   20.2537 C   0  0  0  0  0  0  0  0  0  0  0  0
  -26.0223  -12.9811   21.0463 C   0  0  0  0  0  0  0  0  0  0  0  0
  -23.1761  -27.0475   19.9101 C   0  0  0  0  0  0  0  0  0  0  0  0
  -24.1381   -9.7370   22.0614 C   0  0  0  0  0  0  0  0  0  0  0  0
  -23.2305   -8.7634   22.4783 C   0  0  0  0  0  0  0  0  0  0  0  0
  -23.2371  -28.1031   22.0783 C   0  0  0  0  0  0  0  0  0  0  0  0
  -23.1225  -23.3359   21.7962 C   0  0  0  0  0  0  0  0  0  0  0  0
  -23.0082   -7.9944   20.1987 C   0  0  0  0  0  0  0  0  0  0  0  0
  -24.4090  -14.7790   21.0052 C   0  0  0  0  0  0  0  0  0  0  0  0
  -23.5526  -16.7093   22.4365 C   0  0  0  0  0  0  0  0  0  0  0  0
  -31.0867  -25.4695   20.0773 C   0  0  0  0  0  0  0  0  0  0  0  0
  -24.9516  -28.6139   20.4475 C   0  0  0  0  0  0  0  0  0  0  0  0
  -29.8055  -26.0312   20.2516 C   0  0  0  0  0  0  0  0  0  0  0  0
  -24.3962  -28.8084   21.7202 C   0  0  0  0  0  0  0  0  0  0  0  0
  -22.3635  -23.5171   22.9770 C   0  0  0  0  0  0  0  0  0  0  0  0
  -25.0632  -12.1088   20.5316 C   0  0  0  0  0  0  0  0  0  0  0  0
  -22.6317  -27.2263   21.1785 C   0  0  0  0  0  0  0  0  0  0  0  0
  -24.4808   -9.8394   20.7131 C   0  0  0  0  0  0  0  0  0  0  0  0
  -22.6655   -7.8921   21.5470 C   0  0  0  0  0  0  0  0  0  0  0  0
  -23.9158   -8.9681   19.7818 C   0  0  0  0  0  0  0  0  0  0  0  0
  -24.0718  -16.1584   21.2495 C   0  0  0  0  0  0  0  0  0  0  0  0
  -24.4209  -23.1355   22.2037 C   0  0  0  0  0  0  0  0  0  0  0  0
  -23.4073  -18.0467   22.1595 C   0  0  0  0  0  0  0  0  0  0  0  0
  -23.2521  -23.4141   24.0219 C   0  0  0  0  0  0  0  0  0  0  0  0
  -23.2305  -16.0692   23.6784 C   0  0  0  0  0  0  0  0  0  0  0  0
  -27.8030  -28.7345   21.8469 C   0  0  0  0  0  0  0  0  0  0  0  0
  -20.5236  -24.9683   23.0312 C   0  0  0  0  0  0  0  0  0  0  0  0
  -25.4682  -22.7728   19.9902 C   0  0  0  0  0  0  0  0  0  0  0  0
  -26.7212  -31.5971   22.9228 C   0  0  0  0  0  0  0  0  0  0  0  0
  -24.0546  -33.5894   23.6756 C   0  0  0  0  0  0  0  0  0  0  0  0
  -32.2445  -25.8414   20.9697 C   0  0  0  0  0  0  0  0  0  0  0  0
  -26.1793  -29.3749   20.0278 C   0  0  0  0  0  0  0  0  0  0  0  0
  -25.0149  -29.7496   22.7201 C   0  0  0  0  0  0  0  0  0  0  0  0
  -31.8012  -26.4485   22.2968 C   0  0  0  0  0  0  0  0  0  0  0  0
  -23.7010  -20.5639   17.7908 C   0  0  0  0  0  0  0  0  0  0  0  0
  -30.7838  -27.5523   22.0493 C   0  0  0  0  0  0  0  0  0  0  0  0
  -23.6240  -19.2575   18.5798 C   0  0  0  0  0  0  0  0  0  0  0  0
  -25.0099  -21.3007   18.0570 C   0  0  0  0  0  0  0  0  0  0  0  0
  -25.1975  -20.2618   20.2947 C   0  0  0  0  0  0  0  0  0  0  0  0
  -29.5168  -26.9900   21.3925 C   0  0  1  0  0  0  0  0  0  0  0  0
  -27.0218  -29.8479   21.2084 C   0  0  1  0  0  0  0  0  0  0  0  0
  -23.8774  -19.5009   20.0782 C   0  0  2  0  0  0  0  0  0  0  0  0
  -19.0248  -25.1479   23.0828 C   0  0  0  0  0  0  0  0  0  0  0  0
  -26.7647  -23.9567   21.7300 C   0  0  0  0  0  0  0  0  0  0  0  0
  -23.4853  -35.8633   24.5716 C   0  0  0  0  0  0  0  0  0  0  0  0
  -27.4053  -30.6544   25.7430 C   0  0  0  0  0  0  0  0  0  0  0  0
  -25.9754  -32.5065   26.6339 C   0  0  0  0  0  0  0  0  0  0  0  0
  -27.9941  -33.0382   25.2683 C   0  0  0  0  0  0  0  0  0  0  0  0
  -22.6648  -34.3536   21.1770 C   0  0  0  0  0  0  0  0  0  0  0  0
  -21.3563  -26.2302   22.9212 C   0  0  0  0  0  0  0  0  0  1  0  0
  -25.6760  -22.8915   21.4791 C   0  0  1  0  0  0  0  0  0  0  0  0
  -25.9544  -32.0624   24.1372 C   0  0  1  0  0  0  0  0  0  0  0  0
  -23.7450  -35.0333   23.3240 C   0  0  2  0  0  0  0  0  0  0  0  0
  -26.8215  -32.0461   25.4277 C   0  0  0  0  0  0  0  0  0  0  0  0
  -24.2446  -17.0713   20.2899 N   0  0  0  0  0  0  0  0  0  0  0  0
  -20.9828  -23.7530   23.0479 N   0  0  0  0  0  0  0  0  0  0  0  0
  -23.8315  -18.2092   20.8735 N   0  0  0  0  0  0  0  0  0  0  0  0
  -26.2179  -30.4659   22.2648 N   0  0  0  0  0  0  0  0  0  0  0  0
  -25.2248  -21.4926   19.4924 N   0  0  0  0  0  0  0  0  0  0  0  0
  -22.9593  -19.0877   22.8929 N   0  0  0  0  0  0  0  0  0  0  0  0
  -23.0905  -23.5014   25.3589 N   0  0  0  0  0  0  0  0  0  0  0  0
  -23.4412  -14.6884   23.7927 N   0  0  0  0  0  0  0  0  0  0  0  0
  -28.6688  -28.0885   20.9852 N   0  0  0  0  0  0  0  0  0  0  0  0
  -25.4108  -33.3733   23.7991 N   0  0  0  0  0  0  0  0  0  0  0  0
  -22.5392  -35.1069   22.4513 N   0  3  0  0  0  0  0  0  0  0  0  0
  -22.7541  -16.7003   24.6522 O   0  0  0  0  0  0  0  0  0  0  0  0
  -27.6340  -28.4813   23.0339 O   0  0  0  0  0  0  0  0  0  0  0  0
  -25.5183  -23.7891   19.2925 O   0  0  0  0  0  0  0  0  0  0  0  0
  -27.7254  -32.2188   22.5669 O   0  0  0  0  0  0  0  0  0  0  0  0
  -23.1805  -32.7391   23.8293 O   0  0  0  0  0  0  0  0  0  0  0  0
  -24.5084  -23.1815   23.5590 O   0  0  0  0  0  0  0  0  0  0  0  0
  -25.3827  -10.8060   20.3008 O   0  0  0  0  0  0  0  0  0  0  0  0
  -21.5071  -26.5501   21.5387 O   0  0  0  0  0  0  0  0  0  1  0  0
  -21.7951   -6.9562   21.9477 F   0  0  0  0  0  0  0  0  0  0  0  0
  -24.2421   -9.0608   18.4853 F   0  0  0  0  0  0  0  0  0  0  0  0
  1  2  1  0  0  0  0
  1  5  2  0  0  0  0
  2  6  2  0  0  0  0
  3  8  2  0  0  0  0
  3 16  1  0  0  0  0
  4  9  1  0  0  0  0
  4 16  2  0  0  0  0
  5 18  1  0  0  0  0
  6 20  1  0  0  0  0
  7 10  2  0  0  0  0
  7 19  1  0  0  0  0
  8 23  1  0  0  0  0
  9 23  2  0  0  0  0
 10 24  1  0  0  0  0
 11 12  2  0  0  0  0
 11 25  1  0  0  0  0
 12 26  1  0  0  0  0
 13 21  1  0  0  0  0
 13 24  2  0  0  0  0
 14 22  1  0  0  0  0
 14 29  2  0  0  0  0
 15 26  2  0  0  0  0
 15 27  1  0  0  0  0
 16 28  1  0  0  0  0
 17 28  1  0  0  0  0
 17 30  2  0  0  0  0
 17 32  1  0  0  0  0
 18 20  2  0  0  0  0
 18 38  1  0  0  0  0
 19 21  2  0  0  0  0
 19 39  1  0  0  0  0
 20 47  1  0  0  0  0
 21 40  1  0  0  0  0
 22 31  2  0  0  0  0
 22 63  1  0  0  0  0
 23 79  1  0  0  0  0
 24 80  1  0  0  0  0
 25 27  2  0  0  0  0
 25 79  1  0  0  0  0
 26 81  1  0  0  0  0
 27 82  1  0  0  0  0
 28 62  2  0  0  0  0
 29 58  1  0  0  0  0
 29 78  1  0  0  0  0
 30 64  1  0  0  0  0
 30 67  1  0  0  0  0
 31 68  1  0  0  0  0
 31 78  1  0  0  0  0
 32 69  1  0  0  0  0
 32 73  2  0  0  0  0
 33 48  1  0  0  0  0
 33 70  1  0  0  0  0
 33 74  2  0  0  0  0
 34 50  1  0  0  0  0
 34 57  1  0  0  0  0
 34 63  2  0  0  0  0
 35 58  1  0  0  0  0
 35 66  1  0  0  0  0
 35 75  2  0  0  0  0
 36 59  1  0  0  0  0
 36 65  1  0  0  0  0
 36 76  2  0  0  0  0
 37 60  1  0  0  0  0
 37 71  1  0  0  0  0
 37 77  2  0  0  0  0
 38 41  1  0  0  0  0
 39 48  1  0  0  0  0
 40 65  1  0  0  0  0
 41 43  1  0  0  0  0
 42 44  1  0  0  0  0
 42 45  1  0  0  0  0
 43 47  1  0  0  0  0
 44 49  1  0  0  0  0
 45 66  1  0  0  0  0
 46 49  1  0  0  0  0
 46 66  1  0  0  0  0
 47 70  1  0  0  0  0
 48 65  1  0  0  0  0
 49 64  1  0  0  0  0
 51 58  1  0  0  0  0
 52 60  1  0  0  0  0
 53 61  1  0  0  0  0
 54 61  1  0  0  0  0
 55 61  1  0  0  0  0
 56 72  1  0  0  0  0
 57 80  1  0  0  0  0
 59 61  1  0  0  0  0
 59 71  1  0  0  0  0
 60 72  1  0  0  0  0
 62 64  1  0  0  0  0
M  CHG  1  72   1
M  ISO  4  35 100  57 101  58 100  80 101
M  END
> <Batch ID>
0094

> <Smiles>
CNC(C)C(=O)NC(C(=O)N1Cc2cc([101O:1][101CH2:1]C(C)=Nc3cc([100CH:0](C)[100C:0](=O)N4CCCC(n5nc(-c6ccc(Oc7ccc(F)cc7F)cc6)c(C(N)=O)c5N)C4)oc3N)ccc2CC1C(=O)NC1CCCc2ccccc21)C(C)(C)C

> <Shape>
0.238

> <Color>
0.064

> <Negative vol penalty>
0.000

$$$$

  -OEChem-04052300403D

 85 93  0     1  0  0  0  0  0999 V2000
  -30.5474  -35.2695   21.7230 C   0  0  0  0  0  0  0  0  0  0  0  0
  -30.7857  -34.0618   21.0748 C   0  0  0  0  0  0  0  0  0  0  0  0
  -22.9429  -10.0414   19.9368 C   0  0  0  0  0  0  0  0  0  0  0  0
  -24.0410   -9.5129   22.0229 C   0  0  0  0  0  0  0  0  0  0  0  0
  -29.5589  -35.3502   22.7030 C   0  0  0  0  0  0  0  0  0  0  0  0
  -30.0363  -32.9338   21.4070 C   0  0  0  0  0  0  0  0  0  0  0  0
  -28.2361  -28.4654   17.6256 C   0  0  0  0  0  0  0  0  0  0  0  0
  -31.9539  -19.8963   19.8193 C   0  0  0  0  0  0  0  0  0  0  0  0
  -31.5293  -21.0531   19.1658 C   0  0  0  0  0  0  0  0  0  0  0  0
  -22.2073   -8.8596   20.0246 C   0  0  0  0  0  0  0  0  0  0  0  0
  -23.3053   -8.3311   22.1107 C   0  0  0  0  0  0  0  0  0  0  0  0
  -28.7501  -27.1967   17.3610 C   0  0  0  0  0  0  0  0  0  0  0  0
  -20.1807   -7.4045   23.0046 C   0  0  0  0  0  0  0  0  0  0  0  0
  -19.6088   -7.0889   24.2370 C   0  0  0  0  0  0  0  0  0  0  0  0
  -27.1917  -26.2432   18.9362 C   0  0  0  0  0  0  0  0  0  0  0  0
  -31.2868  -20.8480   21.9374 C   0  0  0  0  0  0  0  0  0  0  0  0
  -20.8819   -5.0366   24.3022 C   0  0  0  0  0  0  0  0  0  0  0  0
  -23.8598  -10.3681   20.9360 C   0  0  0  0  0  0  0  0  0  0  0  0
  -24.2637  -12.8520   21.3536 C   0  0  0  0  0  0  0  0  0  0  0  0
  -28.7904  -34.2249   23.0405 C   0  0  0  0  0  0  0  0  0  0  0  0
  -27.2017  -28.6341   18.5572 C   0  0  0  0  0  0  0  0  0  0  0  0
  -29.0375  -32.9991   22.3933 C   0  0  0  0  0  0  0  0  0  0  0  0
  -26.6646  -27.5148   19.2090 C   0  0  0  0  0  0  0  0  0  0  0  0
  -31.8326  -19.7937   21.2052 C   0  0  0  0  0  0  0  0  0  0  0  0
  -30.9835  -22.1074   19.8981 C   0  0  0  0  0  0  0  0  0  0  0  0
  -30.8623  -22.0049   21.2839 C   0  0  0  0  0  0  0  0  0  0  0  0
  -22.3885   -8.0044   21.1115 C   0  0  0  0  0  0  0  0  0  0  0  0
  -28.2299  -26.0858   18.0184 C   0  0  0  0  0  0  0  0  0  0  0  0
  -21.1032   -6.5361   22.4209 C   0  0  0  0  0  0  0  0  0  0  0  0
  -19.9594   -5.9050   24.8859 C   0  0  0  0  0  0  0  0  0  0  0  0
  -21.4538   -5.3522   23.0697 C   0  0  0  0  0  0  0  0  0  0  0  0
  -24.6204  -11.5885   20.8456 C   0  0  0  0  0  0  0  0  0  0  0  0
  -25.3128  -13.6691   21.0094 C   0  0  0  0  0  0  0  0  0  0  0  0
  -23.0893  -13.2514   22.0725 C   0  0  0  0  0  0  0  0  0  0  0  0
  -26.8963  -30.1882   21.3132 C   0  0  0  0  0  0  0  0  0  0  0  0
  -30.8259  -14.5448   20.6512 C   0  0  0  0  0  0  0  0  0  0  0  0
  -23.7995  -29.2606   21.0453 C   0  0  0  0  0  0  0  0  0  0  0  0
  -31.4379  -16.2698   22.2060 C   0  0  0  0  0  0  0  0  0  0  0  0
  -21.5354  -27.0637   19.7437 C   0  0  0  0  0  0  0  0  0  0  0  0
  -27.7652  -34.3492   24.1396 C   0  0  0  0  0  0  0  0  0  0  0  0
  -26.6400  -30.0060   18.8117 C   0  0  0  0  0  0  0  0  0  0  0  0
  -25.5399  -27.6398   20.2030 C   0  0  0  0  0  0  0  0  0  0  0  0
  -26.7607  -33.2000   24.1684 C   0  0  0  0  0  0  0  0  0  0  0  0
  -29.2212  -12.8928   17.9061 C   0  0  0  0  0  0  0  0  0  0  0  0
  -27.4787  -31.8601   24.0422 C   0  0  0  0  0  0  0  0  0  0  0  0
  -27.8641  -12.4835   18.4772 C   0  0  0  0  0  0  0  0  0  0  0  0
  -30.3189  -12.8114   18.9623 C   0  0  0  0  0  0  0  0  0  0  0  0
  -28.6750  -13.1918   20.7719 C   0  0  0  0  0  0  0  0  0  0  0  0
  -28.2286  -31.7595   22.7084 C   0  0  1  0  0  0  0  0  0  0  0  0
  -25.9354  -30.1226   20.1598 C   0  0  1  0  0  0  0  0  0  0  0  0
  -27.5323  -13.2894   19.7456 C   0  0  2  0  0  0  0  0  0  0  0  0
  -19.0815  -26.5387   19.7333 C   0  0  0  0  0  0  0  0  0  0  0  0
  -24.0451  -28.0686   23.8433 C   0  0  0  0  0  0  0  0  0  0  0  0
  -21.9518  -26.7694   23.3979 C   0  0  0  0  0  0  0  0  0  0  0  0
  -21.8924  -29.2633   23.4036 C   0  0  0  0  0  0  0  0  0  0  0  0
  -21.3423  -27.4719   16.8188 C   0  0  0  0  0  0  0  0  0  0  0  0
  -32.2862  -18.5567   21.9038 C   0  0  0  0  0  0  0  0  0  0  0  0
  -30.3816  -15.2880   21.8859 C   0  0  0  0  0  0  0  0  0  0  0  0
  -30.6637  -23.4143   17.7968 C   0  0  0  0  0  0  0  0  0  0  0  0
  -30.1042  -24.7658   17.3853 C   0  0  0  0  0  0  0  0  0  1  0  0
  -23.0033  -28.0542   21.4810 C   0  0  1  0  0  0  0  0  0  0  0  0
  -20.2099  -27.2835   19.0371 C   0  0  2  0  0  0  0  0  0  0  0  0
  -22.7456  -28.0364   23.0142 C   0  0  0  0  0  0  0  0  0  0  0  0
  -25.8034  -11.5972   20.2256 N   0  0  0  0  0  0  0  0  0  0  0  0
  -26.1993  -12.8762   20.3418 N   0  0  0  0  0  0  0  0  0  0  0  0
  -25.0289  -29.0030   20.4225 N   0  0  0  0  0  0  0  0  0  0  0  0
  -29.9560  -13.5712   20.1599 N   0  0  0  0  0  0  0  0  0  0  0  0
  -30.3114  -23.0603   22.0443 N   0  0  0  0  0  0  0  0  0  0  0  0
  -25.5541  -14.9812   21.2156 N   0  0  0  0  0  0  0  0  0  0  0  0
  -22.1103  -12.2855   22.3422 N   0  0  0  0  0  0  0  0  0  0  0  0
  -32.4180  -15.8565   23.0020 N   0  0  0  0  0  0  0  0  0  0  0  0
  -30.5671  -23.2462   19.2287 N   0  0  0  0  0  0  0  0  0  0  0  0
  -27.3070  -31.4687   21.6311 N   0  0  0  0  0  0  0  0  0  0  0  0
  -21.7899  -28.0518   20.6711 N   0  0  0  0  0  0  0  0  0  0  0  0
  -31.3159  -17.4847   21.6714 N   0  3  0  0  0  0  0  0  0  0  0  0
  -20.2888  -26.8062   17.6276 N   0  3  0  0  0  0  0  0  0  0  0  0
  -22.9057  -14.4336   22.4497 O   0  0  0  0  0  0  0  0  0  0  0  0
  -27.2384  -29.1538   21.8741 O   0  0  0  0  0  0  0  0  0  0  0  0
  -31.9126  -14.8248   20.1385 O   0  0  0  0  0  0  0  0  0  0  0  0
  -23.3440  -30.3896   21.2436 O   0  0  0  0  0  0  0  0  0  0  0  0
  -22.2697  -26.1087   19.5000 O   0  0  0  0  0  0  0  0  0  0  0  0
  -21.6707   -6.8512   21.1976 O   0  0  0  0  0  0  0  0  0  0  0  0
  -28.7303  -24.8464   17.7624 O   0  0  0  0  0  0  0  0  0  1  0  0
  -19.4113   -5.6029   26.0701 F   0  0  0  0  0  0  0  0  0  0  0  0
  -22.3403   -4.5145   22.5145 F   0  0  0  0  0  0  0  0  0  0  0  0
  1  2  1  0  0  0  0
  1  5  2  0  0  0  0
  2  6  2  0  0  0  0
  3 10  2  0  0  0  0
  3 18  1  0  0  0  0
  4 11  1  0  0  0  0
  4 18  2  0  0  0  0
  5 20  1  0  0  0  0
  6 22  1  0  0  0  0
  7 12  2  0  0  0  0
  7 21  1  0  0  0  0
  8  9  2  0  0  0  0
  8 24  1  0  0  0  0
  9 25  1  0  0  0  0
 10 27  1  0  0  0  0
 11 27  2  0  0  0  0
 12 28  1  0  0  0  0
 13 14  2  0  0  0  0
 13 29  1  0  0  0  0
 14 30  1  0  0  0  0
 15 23  1  0  0  0  0
 15 28  2  0  0  0  0
 16 24  2  0  0  0  0
 16 26  1  0  0  0  0
 17 30  2  0  0  0  0
 17 31  1  0  0  0  0
 18 32  1  0  0  0  0
 19 32  1  0  0  0  0
 19 33  2  0  0  0  0
 19 34  1  0  0  0  0
 20 22  2  0  0  0  0
 20 40  1  0  0  0  0
 21 23  2  0  0  0  0
 21 41  1  0  0  0  0
 22 49  1  0  0  0  0
 23 42  1  0  0  0  0
 24 57  1  0  0  0  0
 25 26  2  0  0  0  0
 25 72  1  0  0  0  0
 26 68  1  0  0  0  0
 27 82  1  0  0  0  0
 28 83  1  0  0  0  0
 29 31  2  0  0  0  0
 29 82  1  0  0  0  0
 30 84  1  0  0  0  0
 31 85  1  0  0  0  0
 32 64  2  0  0  0  0
 33 65  1  0  0  0  0
 33 69  1  0  0  0  0
 34 70  1  0  0  0  0
 34 77  2  0  0  0  0
 35 50  1  0  0  0  0
 35 73  1  0  0  0  0
 35 78  2  0  0  0  0
 36 58  1  0  0  0  0
 36 67  1  0  0  0  0
 36 79  2  0  0  0  0
 37 61  1  0  0  0  0
 37 66  1  0  0  0  0
 37 80  2  0  0  0  0
 38 58  1  0  0  0  0
 38 71  1  0  0  0  0
 38 75  2  0  0  0  0
 39 62  1  0  0  0  0
 39 74  1  0  0  0  0
 39 81  2  0  0  0  0
 40 43  1  0  0  0  0
 41 50  1  0  0  0  0
 42 66  1  0  0  0  0
 43 45  1  0  0  0  0
 44 46  1  0  0  0  0
 44 47  1  0  0  0  0
 45 49  1  0  0  0  0
 46 51  1  0  0  0  0
 47 67  1  0  0  0  0
 48 51  1  0  0  0  0
 48 67  1  0  0  0  0
 49 73  1  0  0  0  0
 50 66  1  0  0  0  0
 51 65  1  0  0  0  0
 52 62  1  0  0  0  0
 53 63  1  0  0  0  0
 54 63  1  0  0  0  0
 55 63  1  0  0  0  0
 56 76  1  0  0  0  0
 57 75  1  0  0  0  0
 59 60  1  0  0  0  0
 59 72  1  0  0  0  0
 60 83  1  0  0  0  0
 61 63  1  0  0  0  0
 61 74  1  0  0  0  0
 62 76  1  0  0  0  0
 64 65  1  0  0  0  0
M  CHG  2  75   1  76   1
M  ISO  4  36 100  58 100  60 101  83 101
M  END
> <Batch ID>
0094

> <Smiles>
CNC(C)C(=O)NC(C(=O)N1Cc2cc([101O:1][101CH2:1]CNc3ccc(CNC(=N)[100CH2:0][100C:0](=O)N4CCCC(n5nc(-c6ccc(Oc7ccc(F)cc7F)cc6)c(C(N)=O)c5N)C4)cc3N)ccc2CC1C(=O)NC1CCCc2ccccc21)C(C)(C)C

> <Shape>
0.326

> <Color>
0.154

> <Negative vol penalty>
0.000

$$$$

  -OEChem-04052300403D

 87 96  0     1  0  0  0  0  0999 V2000
  -18.8009  -22.9779   25.9829 C   0  0  0  0  0  0  0  0  0  0  0  0
  -19.3287  -23.4252   24.7759 C   0  0  0  0  0  0  0  0  0  0  0  0
  -26.5858  -13.0099   18.9007 C   0  0  0  0  0  0  0  0  0  0  0  0
  -26.3427  -12.8966   21.3018 C   0  0  0  0  0  0  0  0  0  0  0  0
  -18.9552  -23.7450   27.1369 C   0  0  0  0  0  0  0  0  0  0  0  0
  -20.0103  -24.6405   24.7220 C   0  0  0  0  0  0  0  0  0  0  0  0
  -24.3030  -24.3435   22.0520 C   0  0  0  0  0  0  0  0  0  0  0  0
  -25.3560  -12.3704   18.7459 C   0  0  0  0  0  0  0  0  0  0  0  0
  -25.1128  -12.2570   21.1470 C   0  0  0  0  0  0  0  0  0  0  0  0
  -24.1905  -24.3533   20.6624 C   0  0  0  0  0  0  0  0  0  0  0  0
  -23.9942   -9.1465   20.4369 C   0  0  0  0  0  0  0  0  0  0  0  0
  -23.7381   -8.0322   21.2359 C   0  0  0  0  0  0  0  0  0  0  0  0
  -24.7718  -26.6943   20.6377 C   0  0  0  0  0  0  0  0  0  0  0  0
  -28.7969  -22.6261   20.0302 C   0  0  0  0  0  0  0  0  0  0  0  0
  -28.6948  -21.2443   18.0511 C   0  0  0  0  0  0  0  0  0  0  0  0
  -21.8216   -9.1547   22.1869 C   0  0  0  0  0  0  0  0  0  0  0  0
  -27.0792  -13.2730   20.1786 C   0  0  0  0  0  0  0  0  0  0  0  0
  -29.6038  -13.4864   19.8811 C   0  0  0  0  0  0  0  0  0  0  0  0
  -19.6474  -24.9657   27.0990 C   0  0  0  0  0  0  0  0  0  0  0  0
  -24.6407  -25.5138   22.7470 C   0  0  0  0  0  0  0  0  0  0  0  0
  -20.1729  -25.4253   25.8763 C   0  0  0  0  0  0  0  0  0  0  0  0
  -24.8905  -26.6962   22.0360 C   0  0  0  0  0  0  0  0  0  0  0  0
  -27.9939  -23.5542   17.9491 C   0  0  0  0  0  0  0  0  0  0  0  0
  -28.9964  -21.3956   19.4045 C   0  0  0  0  0  0  0  0  0  0  0  0
  -28.2956  -23.7055   19.3025 C   0  0  0  0  0  0  0  0  0  0  0  0
  -24.6194  -11.9939   19.8691 C   0  0  0  0  0  0  0  0  0  0  0  0
  -24.4221  -25.5294   19.9553 C   0  0  0  0  0  0  0  0  0  0  0  0
  -23.1640  -10.2649   20.5129 C   0  0  0  0  0  0  0  0  0  0  0  0
  -22.6518   -8.0363   22.1109 C   0  0  0  0  0  0  0  0  0  0  0  0
  -28.1935  -22.3237   17.3233 C   0  0  0  0  0  0  0  0  0  0  0  0
  -22.0777  -10.2689   21.3879 C   0  0  0  0  0  0  0  0  0  0  0  0
  -28.3499  -13.9331   20.3391 C   0  0  0  0  0  0  0  0  0  0  0  0
  -30.4835  -14.4616   20.2829 C   0  0  0  0  0  0  0  0  0  0  0  0
  -27.7599  -26.8503   16.2378 C   0  0  0  0  0  0  0  0  0  0  0  0
  -29.9430  -12.2963   19.1570 C   0  0  0  0  0  0  0  0  0  0  0  0
  -23.2024  -27.3186   24.9328 C   0  0  0  0  0  0  0  0  0  0  0  0
  -26.0507  -28.8708   24.9606 C   0  0  0  0  0  0  0  0  0  0  0  0
  -28.4757  -29.9679   22.5248 C   0  0  0  0  0  0  0  0  0  0  0  0
  -29.8548  -20.2792   21.4933 C   0  0  0  0  0  0  0  0  0  0  0  0
  -19.7479  -25.7828   28.3627 C   0  0  0  0  0  0  0  0  0  0  0  0
  -24.7842  -25.4803   24.2439 C   0  0  0  0  0  0  0  0  0  0  0  0
  -25.2756  -27.9745   22.7332 C   0  0  0  0  0  0  0  0  0  0  0  0
  -26.3505  -26.8234   15.6963 C   0  0  0  0  0  0  0  0  0  0  0  0
  -28.4233  -25.5208   16.5177 C   0  0  0  0  0  0  0  0  0  0  0  0
  -20.8080  -26.8792   28.2966 C   0  0  0  0  0  0  0  0  0  0  0  0
  -31.1063  -17.7707   23.6883 C   0  0  0  0  0  0  0  0  0  0  0  0
  -20.6992  -27.6484   26.9838 C   0  0  0  0  0  0  0  0  0  0  0  0
  -30.6608  -16.4610   23.0337 C   0  0  0  0  0  0  0  0  0  0  0  0
  -30.0570  -18.8696   23.5298 C   0  0  0  0  0  0  0  0  0  0  0  0
  -26.1411  -24.5008   16.6379 C   0  0  0  0  0  0  0  0  0  0  0  0
  -29.1680  -17.8005   21.4960 C   0  0  0  0  0  0  0  0  0  0  0  0
  -20.9401  -26.7263   25.7825 C   0  0  1  0  0  0  0  0  0  0  0  0
  -24.6307  -26.8538   24.8897 C   0  0  1  0  0  0  0  0  0  0  0  0
  -25.4750  -25.8770   16.5149 C   0  0  1  0  0  0  0  0  0  0  0  0
  -30.2203  -16.6823   21.5733 C   0  0  2  0  0  0  0  0  0  0  0  0
  -30.9461  -30.3519   22.7407 C   0  0  0  0  0  0  0  0  0  0  0  0
  -25.2591  -31.7649   25.5151 C   0  0  0  0  0  0  0  0  0  0  0  0
  -27.2532  -32.4916   24.1870 C   0  0  0  0  0  0  0  0  0  0  0  0
  -27.5637  -31.1512   26.2678 C   0  0  0  0  0  0  0  0  0  0  0  0
  -29.0744  -28.1321   20.2820 C   0  0  0  0  0  0  0  0  0  0  0  0
  -25.1375  -26.4645   17.8889 C   0  0  0  0  0  0  0  0  0  1  0  0
  -26.6440  -30.0299   24.1968 C   0  0  1  0  0  0  0  0  0  0  0  0
  -29.8590  -29.3868   22.2942 C   0  0  2  0  0  0  0  0  0  0  0  0
  -26.6603  -31.3425   25.0301 C   0  0  0  0  0  0  0  0  0  0  0  0
  -28.4223  -15.1012   20.9829 N   0  0  0  0  0  0  0  0  0  0  0  0
  -29.7324  -15.3966   20.9323 N   0  0  0  0  0  0  0  0  0  0  0  0
  -27.4909  -24.6261   17.2029 N   0  0  1  0  0  0  0  0  0  0  0  0
  -25.3970  -27.8924   24.1981 N   0  0  0  0  0  0  0  0  0  0  0  0
  -29.6915  -19.0258   22.1202 N   0  0  0  0  0  0  0  0  0  0  0  0
  -28.1010  -24.9429   19.9564 N   0  0  0  0  0  0  0  0  0  0  0  0
  -31.8186  -14.6019   20.1407 N   0  0  0  0  0  0  0  0  0  0  0  0
  -30.2769  -11.1448   19.8829 N   0  0  0  0  0  0  0  0  0  0  0  0
  -29.5049  -20.2988   20.1436 N   0  0  0  0  0  0  0  0  0  0  0  0
  -22.3549  -26.4694   25.6183 N   0  0  0  0  0  0  0  0  0  0  0  0
  -27.9608  -29.5912   23.7472 N   0  0  0  0  0  0  0  0  0  0  0  0
  -30.0608  -29.0879   20.8482 N   0  3  0  0  0  0  0  0  0  0  0  0
  -28.3822  -27.9078   16.3393 O   0  0  0  0  0  0  0  0  0  0  0  0
  -29.9658  -12.2598   17.9033 O   0  0  0  0  0  0  0  0  0  0  0  0
  -22.8926  -28.3705   24.3858 O   0  0  0  0  0  0  0  0  0  0  0  0
  -26.1692  -28.8311   26.1878 O   0  0  0  0  0  0  0  0  0  0  0  0
  -27.9101  -30.6872   21.7043 O   0  0  0  0  0  0  0  0  0  0  0  0
  -30.2998  -21.2559   22.1016 O   0  0  0  0  0  0  0  0  0  0  0  0
  -23.4191  -11.3700   19.7184 O   0  0  0  0  0  0  0  0  0  0  0  0
  -24.3123  -25.5419   18.5989 O   0  0  0  0  0  0  0  0  0  1  0  0
  -22.4051   -6.9656   22.8770 F   0  0  0  0  0  0  0  0  0  0  0  0
  -27.9073  -22.1667   16.0230 F   0  0  0  0  0  0  0  0  0  0  0  0
  -21.2760  -11.3400   21.4644 F   0  0  0  0  0  0  0  0  0  0  0  0
  1  2  1  0  0  0  0
  1  5  2  0  0  0  0
  2  6  2  0  0  0  0
  3  8  2  0  0  0  0
  3 17  1  0  0  0  0
  4  9  1  0  0  0  0
  4 17  2  0  0  0  0
  5 19  1  0  0  0  0
  6 21  1  0  0  0  0
  7 10  2  0  0  0  0
  7 20  1  0  0  0  0
  8 26  1  0  0  0  0
  9 26  2  0  0  0  0
 10 27  1  0  0  0  0
 11 12  2  0  0  0  0
 11 28  1  0  0  0  0
 12 29  1  0  0  0  0
 13 22  1  0  0  0  0
 13 27  2  0  0  0  0
 14 24  1  0  0  0  0
 14 25  2  0  0  0  0
 15 24  2  0  0  0  0
 15 30  1  0  0  0  0
 16 29  2  0  0  0  0
 16 31  1  0  0  0  0
 17 32  1  0  0  0  0
 18 32  1  0  0  0  0
 18 33  2  0  0  0  0
 18 35  1  0  0  0  0
 19 21  2  0  0  0  0
 19 40  1  0  0  0  0
 20 22  2  0  0  0  0
 20 41  1  0  0  0  0
 21 52  1  0  0  0  0
 22 42  1  0  0  0  0
 23 25  1  0  0  0  0
 23 30  2  0  0  0  0
 23 67  1  0  0  0  0
 24 73  1  0  0  0  0
 25 70  1  0  0  0  0
 26 83  1  0  0  0  0
 27 84  1  0  0  0  0
 28 31  2  0  0  0  0
 28 83  1  0  0  0  0
 29 85  1  0  0  0  0
 30 86  1  0  0  0  0
 31 87  1  0  0  0  0
 32 65  2  0  0  0  0
 33 66  1  0  0  0  0
 33 71  1  0  0  0  0
 34 43  1  0  0  0  0
 34 44  1  0  0  0  0
 34 77  2  0  0  0  0
 35 72  1  0  0  0  0
 35 78  2  0  0  0  0
 36 53  1  0  0  0  0
 36 74  1  0  0  0  0
 36 79  2  0  0  0  0
 37 62  1  0  0  0  0
 37 68  1  0  0  0  0
 37 80  2  0  0  0  0
 38 63  1  0  0  0  0
 38 75  1  0  0  0  0
 38 81  2  0  0  0  0
 39 69  1  0  0  0  0
 39 73  1  0  0  0  0
 39 82  2  0  0  0  0
 40 45  1  0  0  0  0
 41 53  1  0  0  0  0
 42 68  1  0  0  0  0
 43 54  1  0  0  0  0
 44 67  1  0  0  0  0
 45 47  1  0  0  0  0
 46 48  1  0  0  0  0
 46 49  1  0  0  0  0
 47 52  1  0  0  0  0
 48 55  1  0  0  0  0
 49 69  1  0  0  0  0
 50 54  1  0  0  0  0
 50 67  1  0  0  0  0
 51 55  1  0  0  0  0
 51 69  1  0  0  0  0
 52 74  1  0  0  0  0
 53 68  1  0  0  0  0
 54 61  1  0  0  0  0
 55 66  1  0  0  0  0
 56 63  1  0  0  0  0
 57 64  1  0  0  0  0
 58 64  1  0  0  0  0
 59 64  1  0  0  0  0
 60 76  1  0  0  0  0
 61 84  1  0  0  0  0
 62 64  1  0  0  0  0
 62 75  1  0  0  0  0
 63 76  1  0  0  0  0
 65 66  1  0  0  0  0
M  CHG  1  76   1
M  ISO  4  39 100  61 101  73 100  84 101
M  END
> <Batch ID>
0094

> <Smiles>
CNC(C)C(=O)NC(C(=O)N1Cc2cc([101O:1][101CH2:1]C3CC(=O)CN(c4c(N)cc([100NH:0][100C:0](=O)N5CCCC(n6nc(-c7ccc(Oc8ccc(F)cc8F)cc7)c(C(N)=O)c6N)C5)cc4F)C3)ccc2CC1C(=O)NC1CCCc2ccccc21)C(C)(C)C

> <Shape>
0.234

> <Color>
0.065

> <Negative vol penalty>
0.000

$$$$

  -OEChem-04052300403D

 86 94  0     1  0  0  0  0  0999 V2000
  -29.4397  -28.6784   26.7770 C   0  0  0  0  0  0  0  0  0  0  0  0
  -28.8901  -27.8102   25.8391 C   0  0  0  0  0  0  0  0  0  0  0  0
  -22.9025  -10.0447   20.0594 C   0  0  0  0  0  0  0  0  0  0  0  0
  -23.6714  -10.1126   22.3487 C   0  0  0  0  0  0  0  0  0  0  0  0
  -29.0351  -17.6236   21.9220 C   0  0  0  0  0  0  0  0  0  0  0  0
  -28.6710  -29.7194   27.2960 C   0  0  0  0  0  0  0  0  0  0  0  0
  -27.5711  -27.9819   25.4206 C   0  0  0  0  0  0  0  0  0  0  0  0
  -27.0558  -27.5625   20.4003 C   0  0  0  0  0  0  0  0  0  0  0  0
  -28.3828  -18.7447   21.4088 C   0  0  0  0  0  0  0  0  0  0  0  0
  -22.1047   -8.9407   20.3600 C   0  0  0  0  0  0  0  0  0  0  0  0
  -22.8735   -9.0087   22.6494 C   0  0  0  0  0  0  0  0  0  0  0  0
  -27.0501  -26.2747   19.8662 C   0  0  0  0  0  0  0  0  0  0  0  0
  -23.0009   -5.6557   22.2343 C   0  0  0  0  0  0  0  0  0  0  0  0
  -23.5690   -4.6333   22.9942 C   0  0  0  0  0  0  0  0  0  0  0  0
  -29.4487  -16.8361   19.6757 C   0  0  0  0  0  0  0  0  0  0  0  0
  -24.6424  -26.3460   19.7357 C   0  0  0  0  0  0  0  0  0  0  0  0
  -21.8851   -4.9620   24.6953 C   0  0  0  0  0  0  0  0  0  0  0  0
  -23.6859  -10.6306   21.0537 C   0  0  0  0  0  0  0  0  0  0  0  0
  -29.5681  -16.6693   21.0554 C   0  0  0  0  0  0  0  0  0  0  0  0
  -24.1491  -13.1287   20.8249 C   0  0  0  0  0  0  0  0  0  0  0  0
  -27.3450  -29.9098   26.8764 C   0  0  0  0  0  0  0  0  0  0  0  0
  -25.8522  -28.2487   20.6166 C   0  0  0  0  0  0  0  0  0  0  0  0
  -26.7836  -29.0256   25.9355 C   0  0  0  0  0  0  0  0  0  0  0  0
  -24.6357  -27.6434   20.2702 C   0  0  0  0  0  0  0  0  0  0  0  0
  -28.2634  -18.9114   20.0291 C   0  0  0  0  0  0  0  0  0  0  0  0
  -22.0902   -8.4227   21.6551 C   0  0  0  0  0  0  0  0  0  0  0  0
  -25.8431  -25.6651   19.5365 C   0  0  0  0  0  0  0  0  0  0  0  0
  -21.8749   -6.3314   22.7049 C   0  0  0  0  0  0  0  0  0  0  0  0
  -28.7963  -17.9571   19.1625 C   0  0  0  0  0  0  0  0  0  0  0  0
  -23.0111   -4.2864   24.2247 C   0  0  0  0  0  0  0  0  0  0  0  0
  -21.3170   -5.9845   23.9354 C   0  0  0  0  0  0  0  0  0  0  0  0
  -24.5106  -11.7706   20.7436 C   0  0  0  0  0  0  0  0  0  0  0  0
  -25.2747  -13.8081   20.4275 C   0  0  0  0  0  0  0  0  0  0  0  0
  -26.3706  -23.3978   19.7640 C   0  0  0  0  0  0  0  0  0  1  0  0
  -30.2485  -15.5007   21.5904 C   0  0  0  0  0  0  0  0  0  0  0  0
  -22.9069  -13.7231   21.2240 C   0  0  0  0  0  0  0  0  0  0  0  0
  -26.4150  -22.1255   19.3507 C   0  0  0  0  0  0  0  0  0  0  0  0
  -30.8226  -14.4739   20.6908 C   0  0  0  0  0  0  0  0  0  0  0  0
  -27.0238  -21.0899   20.2480 C   0  0  0  0  0  0  0  0  0  0  0  0
  -24.3630  -29.4152   23.1711 C   0  0  0  0  0  0  0  0  0  0  0  0
  -22.3222  -30.6119   20.9517 C   0  0  0  0  0  0  0  0  0  0  0  0
  -21.0020  -30.3917   17.8124 C   0  0  0  0  0  0  0  0  0  0  0  0
  -26.5383  -31.0206   27.5010 C   0  0  0  0  0  0  0  0  0  0  0  0
  -25.8770  -29.6476   21.1686 C   0  0  0  0  0  0  0  0  0  0  0  0
  -23.3172  -28.3453   20.4640 C   0  0  0  0  0  0  0  0  0  0  0  0
  -25.2677  -31.3605   26.7262 C   0  0  0  0  0  0  0  0  0  0  0  0
  -29.5339  -12.1669   18.2672 C   0  0  0  0  0  0  0  0  0  0  0  0
  -24.5153  -30.0881   26.3501 C   0  0  0  0  0  0  0  0  0  0  0  0
  -28.0939  -11.9404   18.7262 C   0  0  0  0  0  0  0  0  0  0  0  0
  -30.4716  -12.3736   19.4523 C   0  0  0  0  0  0  0  0  0  0  0  0
  -28.6089  -13.2567   20.8304 C   0  0  0  0  0  0  0  0  0  0  0  0
  -25.3643  -29.1942   25.4381 C   0  0  1  0  0  0  0  0  0  0  0  0
  -24.5615  -30.0541   21.8257 C   0  0  1  0  0  0  0  0  0  0  0  0
  -27.6275  -13.0716   19.6599 C   0  0  2  0  0  0  0  0  0  0  0  0
  -19.3271  -31.4872   16.2985 C   0  0  0  0  0  0  0  0  0  0  0  0
  -20.0551  -29.2821   22.5016 C   0  0  0  0  0  0  0  0  0  0  0  0
  -18.5951  -29.5867   20.4906 C   0  0  0  0  0  0  0  0  0  0  0  0
  -19.5363  -31.5792   21.6598 C   0  0  0  0  0  0  0  0  0  0  0  0
  -23.0806  -31.0855   15.8232 C   0  0  0  0  0  0  0  0  0  0  0  0
  -27.5400  -17.5380   17.1873 C   0  0  0  0  0  0  0  0  0  0  0  0
  -21.0660  -30.1162   20.2771 C   0  0  1  0  0  0  0  0  0  0  0  0
  -20.7827  -31.4395   16.7361 C   0  0  2  0  0  0  0  0  0  0  0  0
  -19.8377  -30.1268   21.2303 C   0  0  0  0  0  0  0  0  0  0  0  0
  -25.7676  -11.5957   20.3271 N   0  0  0  0  0  0  0  0  0  0  0  0
  -26.2057  -12.8528   20.1431 N   0  0  0  0  0  0  0  0  0  0  0  0
  -29.9811  -13.4286   20.3367 N   0  0  0  0  0  0  0  0  0  0  0  0
  -23.3934  -29.7094   21.0127 N   0  0  0  0  0  0  0  0  0  0  0  0
  -25.5491  -15.1234   20.2971 N   0  0  0  0  0  0  0  0  0  0  0  0
  -21.8535  -12.8793   21.6020 N   0  0  0  0  0  0  0  0  0  0  0  0
  -27.6002  -20.0556   19.5236 N   0  0  0  0  0  0  0  0  0  0  0  0
  -25.3594  -29.7044   24.0838 N   0  0  0  0  0  0  0  0  0  0  0  0
  -20.8985  -30.9298   19.0777 N   0  0  0  0  0  0  0  0  0  0  0  0
  -21.6228  -31.1394   15.5423 N   0  3  0  0  0  0  0  0  0  0  0  0
  -22.7307  -14.9650   21.2291 O   0  0  0  0  0  0  0  0  0  0  0  0
  -31.9850  -14.6581   20.3542 O   0  0  0  0  0  0  0  0  0  0  0  0
  -26.9799  -21.2088   21.4678 O   0  0  0  0  0  0  0  0  0  0  0  0
  -23.3779  -28.7131   23.3671 O   0  0  0  0  0  0  0  0  0  0  0  0
  -22.3543  -31.7601   21.4015 O   0  0  0  0  0  0  0  0  0  0  0  0
  -21.2374  -29.2129   17.5564 O   0  0  0  0  0  0  0  0  0  0  0  0
  -25.9195  -21.7251   18.1264 O   0  0  0  0  0  0  0  0  0  0  0  0
  -21.3116   -7.3457   21.9489 O   0  0  0  0  0  0  0  0  0  0  0  0
  -25.8346  -24.4080   19.0156 O   0  0  0  0  0  0  0  0  0  1  0  0
  -28.6917  -18.1013   17.8113 O   0  0  0  0  0  0  0  0  0  0  0  0
  -23.5558   -3.3035   24.9537 F   0  0  0  0  0  0  0  0  0  0  0  0
  -20.2347   -6.6292   24.3922 F   0  0  0  0  0  0  0  0  0  0  0  0
  -30.5194  -15.0707   23.1996 S   0  0  0  0  0  0  0  0  0  0  0  0
  1  2  1  0  0  0  0
  1  6  2  0  0  0  0
  2  7  2  0  0  0  0
  3 10  2  0  0  0  0
  3 18  1  0  0  0  0
  4 11  1  0  0  0  0
  4 18  2  0  0  0  0
  5  9  2  0  0  0  0
  5 19  1  0  0  0  0
  6 21  1  0  0  0  0
  7 23  1  0  0  0  0
  8 12  2  0  0  0  0
  8 22  1  0  0  0  0
  9 25  1  0  0  0  0
 10 26  1  0  0  0  0
 11 26  2  0  0  0  0
 12 27  1  0  0  0  0
 13 14  2  0  0  0  0
 13 28  1  0  0  0  0
 14 30  1  0  0  0  0
 15 19  2  0  0  0  0
 15 29  1  0  0  0  0
 16 24  1  0  0  0  0
 16 27  2  0  0  0  0
 17 30  2  0  0  0  0
 17 31  1  0  0  0  0
 18 32  1  0  0  0  0
 19 35  1  0  0  0  0
 20 32  1  0  0  0  0
 20 33  2  0  0  0  0
 20 36  1  0  0  0  0
 21 23  2  0  0  0  0
 21 43  1  0  0  0  0
 22 24  2  0  0  0  0
 22 44  1  0  0  0  0
 23 52  1  0  0  0  0
 24 45  1  0  0  0  0
 25 29  2  0  0  0  0
 25 70  1  0  0  0  0
 26 81  1  0  0  0  0
 27 82  1  0  0  0  0
 28 31  2  0  0  0  0
 28 81  1  0  0  0  0
 29 83  1  0  0  0  0
 30 84  1  0  0  0  0
 31 85  1  0  0  0  0
 32 64  2  0  0  0  0
 33 65  1  0  0  0  0
 33 68  1  0  0  0  0
 34 37  2  0  0  0  0
 34 82  1  0  0  0  0
 35 38  1  0  0  0  0
 35 86  2  0  0  0  0
 36 69  1  0  0  0  0
 36 74  2  0  0  0  0
 37 39  1  0  0  0  0
 37 80  1  0  0  0  0
 38 66  1  0  0  0  0
 38 75  2  0  0  0  0
 39 70  1  0  0  0  0
 39 76  2  0  0  0  0
 40 53  1  0  0  0  0
 40 71  1  0  0  0  0
 40 77  2  0  0  0  0
 41 61  1  0  0  0  0
 41 67  1  0  0  0  0
 41 78  2  0  0  0  0
 42 62  1  0  0  0  0
 42 72  1  0  0  0  0
 42 79  2  0  0  0  0
 43 46  1  0  0  0  0
 44 53  1  0  0  0  0
 45 67  1  0  0  0  0
 46 48  1  0  0  0  0
 47 49  1  0  0  0  0
 47 50  1  0  0  0  0
 48 52  1  0  0  0  0
 49 54  1  0  0  0  0
 50 66  1  0  0  0  0
 51 54  1  0  0  0  0
 51 66  1  0  0  0  0
 52 71  1  0  0  0  0
 53 67  1  0  0  0  0
 54 65  1  0  0  0  0
 55 62  1  0  0  0  0
 56 63  1  0  0  0  0
 57 63  1  0  0  0  0
 58 63  1  0  0  0  0
 59 73  1  0  0  0  0
 60 83  1  0  0  0  0
 61 63  1  0  0  0  0
 61 72  1  0  0  0  0
 62 73  1  0  0  0  0
 64 65  1  0  0  0  0
M  CHG  1  73   1
M  ISO  4  34 101  35 100  38 100  82 101
M  END
> <Batch ID>
0094

> <Smiles>
CNC(C)C(=O)NC(C(=O)N1Cc2cc([101O:1][101CH2:1]C(=O)C(=O)Nc3ccc([100C:0](=S)[100C:0](=O)N4CCCC(n5nc(-c6ccc(Oc7ccc(F)cc7F)cc6)c(C(N)=O)c5N)C4)cc3OC)ccc2CC1C(=O)NC1CCCc2ccccc21)C(C)(C)C

> <Shape>
0.342

> <Color>
0.218

> <Negative vol penalty>
0.000

$$$$

  -OEChem-04052300403D

 86 95  0     1  0  0  0  0  0999 V2000
  -32.4221  -13.8761   21.1442 C   0  0  0  0  0  0  0  0  0  0  0  0
  -31.6560  -15.0057   21.4135 C   0  0  0  0  0  0  0  0  0  0  0  0
  -28.5618  -25.3416   21.0031 C   0  0  0  0  0  0  0  0  0  0  0  0
  -28.8866  -26.3708   18.8416 C   0  0  0  0  0  0  0  0  0  0  0  0
  -31.8531  -12.7920   20.4774 C   0  0  0  0  0  0  0  0  0  0  0  0
  -30.3205  -15.0522   21.0151 C   0  0  0  0  0  0  0  0  0  0  0  0
  -25.6938  -17.7803   23.9573 C   0  0  0  0  0  0  0  0  0  0  0  0
  -28.6629  -24.0797   20.4175 C   0  0  0  0  0  0  0  0  0  0  0  0
  -28.9878  -25.1089   18.2559 C   0  0  0  0  0  0  0  0  0  0  0  0
  -25.0709  -19.0156   23.7848 C   0  0  0  0  0  0  0  0  0  0  0  0
  -26.6887  -21.9980   18.6305 C   0  0  0  0  0  0  0  0  0  0  0  0
  -25.7542  -21.0331   19.0063 C   0  0  0  0  0  0  0  0  0  0  0  0
  -23.3605  -17.9602   22.4508 C   0  0  0  0  0  0  0  0  0  0  0  0
  -21.7469  -22.6709   22.7109 C   0  0  0  0  0  0  0  0  0  0  0  0
  -21.7278  -27.0468   22.2454 C   0  0  0  0  0  0  0  0  0  0  0  0
  -27.5391  -19.6180   19.8116 C   0  0  0  0  0  0  0  0  0  0  0  0
  -28.6736  -26.4872   20.2152 C   0  0  0  0  0  0  0  0  0  0  0  0
  -29.6155  -28.5700   21.3475 C   0  0  0  0  0  0  0  0  0  0  0  0
  -30.5073  -12.8213   20.0792 C   0  0  0  0  0  0  0  0  0  0  0  0
  -25.1598  -16.6254   23.3678 C   0  0  0  0  0  0  0  0  0  0  0  0
  -29.7333  -13.9679   20.3411 C   0  0  0  0  0  0  0  0  0  0  0  0
  -23.9771  -16.7110   22.6194 C   0  0  0  0  0  0  0  0  0  0  0  0
  -23.0749  -22.6595   23.2040 C   0  0  0  0  0  0  0  0  0  0  0  0
  -21.9954  -28.3987   22.6072 C   0  0  0  0  0  0  0  0  0  0  0  0
  -28.8760  -23.9633   19.0439 C   0  0  0  0  0  0  0  0  0  0  0  0
  -23.9057  -19.1062   23.0291 C   0  0  0  0  0  0  0  0  0  0  0  0
  -28.0485  -21.7729   18.8451 C   0  0  0  0  0  0  0  0  0  0  0  0
  -26.1794  -19.8432   19.5969 C   0  0  0  0  0  0  0  0  0  0  0  0
  -28.4737  -20.5829   19.4357 C   0  0  0  0  0  0  0  0  0  0  0  0
  -28.5686  -27.7910   20.8194 C   0  0  0  0  0  0  0  0  0  0  0  0
  -29.0000  -29.7122   21.7980 C   0  0  0  0  0  0  0  0  0  0  0  0
  -21.3606  -23.9883   22.5998 C   0  0  0  0  0  0  0  0  0  0  0  0
  -23.4597  -23.9705   23.3794 C   0  0  0  0  0  0  0  0  0  0  0  0
  -22.4077  -26.1532   23.0434 C   0  0  0  0  0  0  0  0  0  0  0  0
  -22.8697  -28.4868   23.6683 C   0  0  0  0  0  0  0  0  0  0  0  0
  -31.0189  -28.2865   21.4239 C   0  0  0  0  0  0  0  0  0  0  0  0
  -26.1861  -14.5281   21.2110 C   0  0  0  0  0  0  0  0  0  0  0  0
  -23.4456  -12.9764   21.9881 C   0  0  0  0  0  0  0  0  0  0  0  0
  -20.2755  -13.1458   23.2404 C   0  0  0  0  0  0  0  0  0  0  0  0
  -23.6167  -30.8601   23.7007 C   0  0  0  0  0  0  0  0  0  0  0  0
  -29.9492  -11.6441   19.3192 C   0  0  0  0  0  0  0  0  0  0  0  0
  -25.8289  -15.2961   23.5856 C   0  0  0  0  0  0  0  0  0  0  0  0
  -23.3521  -15.4976   21.9825 C   0  0  0  0  0  0  0  0  0  0  0  0
  -28.4239  -11.6232   19.2628 C   0  0  0  0  0  0  0  0  0  0  0  0
  -25.2117  -32.5050   20.9816 C   0  0  0  0  0  0  0  0  0  0  0  0
  -27.8844  -13.0016   18.8942 C   0  0  0  0  0  0  0  0  0  0  0  0
  -26.3587  -31.5426   20.6754 C   0  0  0  0  0  0  0  0  0  0  0  0
  -23.9229  -31.7641   21.3394 C   0  0  0  0  0  0  0  0  0  0  0  0
  -25.2280  -29.8144   22.1266 C   0  0  0  0  0  0  0  0  0  0  0  0
  -28.2743  -14.0463   19.9469 C   0  0  1  0  0  0  0  0  0  0  0  0
  -25.4811  -14.2691   22.5123 C   0  0  1  0  0  0  0  0  0  0  0  0
  -26.5518  -30.5318   21.8196 C   0  0  1  0  0  0  0  0  0  0  0  0
  -18.2662  -11.7194   23.7156 C   0  0  0  0  0  0  0  0  0  0  0  0
  -22.7670  -12.9456   19.0134 C   0  0  0  0  0  0  0  0  0  0  0  0
  -20.4029  -12.3983   19.6295 C   0  0  0  0  0  0  0  0  0  0  0  0
  -22.2421  -10.8218   20.2251 C   0  0  0  0  0  0  0  0  0  0  0  0
  -23.5254  -29.5728   25.8244 C   0  0  0  0  0  0  0  0  0  0  0  0
  -20.3957  -13.7381   26.1376 C   0  0  0  0  0  0  0  0  0  0  0  0
  -23.9049  -21.4409   23.4822 C   0  0  0  0  0  0  0  0  0  1  0  0
  -22.0225  -13.0028   21.4849 C   0  0  1  0  0  0  0  0  0  0  0  0
  -19.5549  -12.3011   24.2757 C   0  0  2  0  0  0  0  0  0  0  0  0
  -21.8712  -12.3155   20.0985 C   0  0  0  0  0  0  0  0  0  0  0  0
  -27.3783  -28.3878   20.9242 N   0  0  0  0  0  0  0  0  0  0  0  0
  -27.6735  -29.5540   21.5234 N   0  0  0  0  0  0  0  0  0  0  0  0
  -22.4096  -24.7694   23.0093 N   0  0  0  0  0  0  0  0  0  0  0  0
  -24.0473  -14.2215   22.2191 N   0  0  0  0  0  0  0  0  0  0  0  0
  -24.1650  -30.7829   22.4065 N   0  0  0  0  0  0  0  0  0  0  0  0
  -21.4497  -29.4663   21.9779 N   0  0  0  0  0  0  0  0  0  0  0  0
  -29.4696  -30.8265   22.3983 N   0  0  0  0  0  0  0  0  0  0  0  0
  -31.4828  -27.0664   20.9135 N   0  0  0  0  0  0  0  0  0  0  0  0
  -27.4271  -13.9281   21.1142 N   0  0  0  0  0  0  0  0  0  0  0  0
  -21.2060  -12.4094   22.5383 N   0  0  0  0  0  0  0  0  0  0  0  0
  -23.4133  -29.6302   24.3629 N   0  0  0  0  0  0  0  0  0  0  0  0
  -19.2183  -13.1235   25.4720 N   0  3  0  0  0  0  0  0  0  0  0  0
  -31.8350  -29.0842   21.9446 O   0  0  0  0  0  0  0  0  0  0  0  0
  -25.6436  -15.2199   20.3572 O   0  0  0  0  0  0  0  0  0  0  0  0
  -24.0004  -11.8908   22.1762 O   0  0  0  0  0  0  0  0  0  0  0  0
  -20.0341  -14.3387   23.0691 O   0  0  0  0  0  0  0  0  0  0  0  0
  -23.3537  -31.9447   24.2339 O   0  0  0  0  0  0  0  0  0  0  0  0
  -20.2150  -24.5168   22.1866 O   0  0  0  0  0  0  0  0  0  0  0  0
  -24.6036  -24.4842   23.8170 O   0  0  0  0  0  0  0  0  0  0  0  0
  -28.9750  -22.7321   18.4722 O   0  0  0  0  0  0  0  0  0  0  0  0
  -23.2961  -20.3108   22.8586 O   0  0  0  0  0  0  0  0  0  1  0  0
  -25.2817  -18.9173   19.9592 F   0  0  0  0  0  0  0  0  0  0  0  0
  -29.7785  -20.3615   19.6456 F   0  0  0  0  0  0  0  0  0  0  0  0
  -23.3640  -26.9442   24.2233 S   0  0  0  0  0  0  0  0  0  0  0  0
  1  2  1  0  0  0  0
  1  5  2  0  0  0  0
  2  6  2  0  0  0  0
  3  8  2  0  0  0  0
  3 17  1  0  0  0  0
  4  9  1  0  0  0  0
  4 17  2  0  0  0  0
  5 19  1  0  0  0  0
  6 21  1  0  0  0  0
  7 10  2  0  0  0  0
  7 20  1  0  0  0  0
  8 25  1  0  0  0  0
  9 25  2  0  0  0  0
 10 26  1  0  0  0  0
 11 12  2  0  0  0  0
 11 27  1  0  0  0  0
 12 28  1  0  0  0  0
 13 22  1  0  0  0  0
 13 26  2  0  0  0  0
 14 23  1  0  0  0  0
 14 32  2  0  0  0  0
 15 24  1  0  0  0  0
 15 34  2  0  0  0  0
 16 28  2  0  0  0  0
 16 29  1  0  0  0  0
 17 30  1  0  0  0  0
 18 30  1  0  0  0  0
 18 31  2  0  0  0  0
 18 36  1  0  0  0  0
 19 21  2  0  0  0  0
 19 41  1  0  0  0  0
 20 22  2  0  0  0  0
 20 42  1  0  0  0  0
 21 50  1  0  0  0  0
 22 43  1  0  0  0  0
 23 33  2  0  0  0  0
 23 59  1  0  0  0  0
 24 35  2  0  0  0  0
 24 68  1  0  0  0  0
 25 82  1  0  0  0  0
 26 83  1  0  0  0  0
 27 29  2  0  0  0  0
 27 82  1  0  0  0  0
 28 84  1  0  0  0  0
 29 85  1  0  0  0  0
 30 63  2  0  0  0  0
 31 64  1  0  0  0  0
 31 69  1  0  0  0  0
 32 65  1  0  0  0  0
 32 80  1  0  0  0  0
 33 65  1  0  0  0  0
 33 81  1  0  0  0  0
 34 65  1  0  0  0  0
 34 86  1  0  0  0  0
 35 73  1  0  0  0  0
 35 86  1  0  0  0  0
 36 70  1  0  0  0  0
 36 75  2  0  0  0  0
 37 51  1  0  0  0  0
 37 71  1  0  0  0  0
 37 76  2  0  0  0  0
 38 60  1  0  0  0  0
 38 66  1  0  0  0  0
 38 77  2  0  0  0  0
 39 61  1  0  0  0  0
 39 72  1  0  0  0  0
 39 78  2  0  0  0  0
 40 67  1  0  0  0  0
 40 73  1  0  0  0  0
 40 79  2  0  0  0  0
 41 44  1  0  0  0  0
 42 51  1  0  0  0  0
 43 66  1  0  0  0  0
 44 46  1  0  0  0  0
 45 47  1  0  0  0  0
 45 48  1  0  0  0  0
 46 50  1  0  0  0  0
 47 52  1  0  0  0  0
 48 67  1  0  0  0  0
 49 52  1  0  0  0  0
 49 67  1  0  0  0  0
 50 71  1  0  0  0  0
 51 66  1  0  0  0  0
 52 64  1  0  0  0  0
 53 61  1  0  0  0  0
 54 62  1  0  0  0  0
 55 62  1  0  0  0  0
 56 62  1  0  0  0  0
 57 73  1  0  0  0  0
 58 74  1  0  0  0  0
 59 83  1  0  0  0  0
 60 62  1  0  0  0  0
 60 72  1  0  0  0  0
 61 74  1  0  0  0  0
 63 64  1  0  0  0  0
M  CHG  1  74   1
M  ISO  4  40 100  59 101  73 100  83 101
M  END
> <Batch ID>
0094

> <Smiles>
CNC(C)C(=O)NC(C(=O)N1Cc2cc([101O:1][101CH2:1]C3CC(=O)N(c4cc(N)c([100N:0](C)[100C:0](=O)N5CCCC(n6nc(-c7ccc(Oc8ccc(F)cc8F)cc7)c(C(N)=O)c6N)C5)s4)C3=O)ccc2CC1C(=O)NC1CCCc2ccccc21)C(C)(C)C

> <Shape>
0.242

> <Color>
0.088

> <Negative vol penalty>
0.000

$$$$

  -OEChem-04052300403D

 88 97  0     1  0  0  0  0  0999 V2000
  -29.8938  -31.6083   25.7602 C   0  0  0  0  0  0  0  0  0  0  0  0
  -29.5429  -30.5334   24.9497 C   0  0  0  0  0  0  0  0  0  0  0  0
  -23.2157  -10.2897   20.7847 C   0  0  0  0  0  0  0  0  0  0  0  0
  -24.5964   -8.8988   22.1975 C   0  0  0  0  0  0  0  0  0  0  0  0
  -28.9027  -32.3421   26.4106 C   0  0  0  0  0  0  0  0  0  0  0  0
  -28.2006  -30.1911   24.7900 C   0  0  0  0  0  0  0  0  0  0  0  0
  -26.9992  -29.2406   19.9632 C   0  0  0  0  0  0  0  0  0  0  0  0
  -22.2895   -9.2532   20.6693 C   0  0  0  0  0  0  0  0  0  0  0  0
  -23.6702   -7.8622   22.0822 C   0  0  0  0  0  0  0  0  0  0  0  0
  -27.3696  -27.9994   19.4474 C   0  0  0  0  0  0  0  0  0  0  0  0
  -20.6817   -7.0337   23.4248 C   0  0  0  0  0  0  0  0  0  0  0  0
  -20.3298   -6.3487   24.5878 C   0  0  0  0  0  0  0  0  0  0  0  0
  -25.1191  -27.1967   19.7791 C   0  0  0  0  0  0  0  0  0  0  0  0
  -27.8055  -19.7419   17.6310 C   0  0  0  0  0  0  0  0  0  0  0  0
  -28.4532  -23.8753   16.5245 C   0  0  0  0  0  0  0  0  0  0  0  0
  -29.9137  -18.9257   19.2657 C   0  0  0  0  0  0  0  0  0  0  0  0
  -21.1414   -4.2890   23.6204 C   0  0  0  0  0  0  0  0  0  0  0  0
  -24.3692  -10.1125   21.5487 C   0  0  0  0  0  0  0  0  0  0  0  0
  -25.3507  -12.1972   22.6435 C   0  0  0  0  0  0  0  0  0  0  0  0
  -27.5469  -32.0147   26.2511 C   0  0  0  0  0  0  0  0  0  0  0  0
  -25.6864  -29.4661   20.4016 C   0  0  0  0  0  0  0  0  0  0  0  0
  -27.1905  -30.9205   25.4399 C   0  0  0  0  0  0  0  0  0  0  0  0
  -24.7339  -28.4424   20.2976 C   0  0  0  0  0  0  0  0  0  0  0  0
  -27.9364  -18.3982   17.9815 C   0  0  0  0  0  0  0  0  0  0  0  0
  -28.3345  -24.2244   17.8924 C   0  0  0  0  0  0  0  0  0  0  0  0
  -28.7288  -20.6776   18.0977 C   0  0  0  0  0  0  0  0  0  0  0  0
  -28.9905  -17.9901   18.7989 C   0  0  0  0  0  0  0  0  0  0  0  0
  -22.5167   -8.0395   21.3181 C   0  0  0  0  0  0  0  0  0  0  0  0
  -26.4302  -26.9763   19.3579 C   0  0  0  0  0  0  0  0  0  0  0  0
  -21.2635   -6.3463   22.3596 C   0  0  0  0  0  0  0  0  0  0  0  0
  -20.5596   -4.9764   24.6856 C   0  0  0  0  0  0  0  0  0  0  0  0
  -29.7829  -20.2695   18.9151 C   0  0  0  0  0  0  0  0  0  0  0  0
  -21.4933   -4.9740   22.4574 C   0  0  0  0  0  0  0  0  0  0  0  0
  -25.3267  -11.1827   21.6678 C   0  0  0  0  0  0  0  0  0  0  0  0
  -26.4481  -12.9577   22.3212 C   0  0  0  0  0  0  0  0  0  0  0  0
  -28.6136  -22.5087   16.4612 C   0  0  0  0  0  0  0  0  0  0  0  0
  -28.4263  -23.0605   18.6234 C   0  0  0  0  0  0  0  0  0  0  0  0
  -24.4606  -12.4312   23.7429 C   0  0  0  0  0  0  0  0  0  0  0  0
  -24.3488  -30.2121   23.1869 C   0  0  0  0  0  0  0  0  0  0  0  0
  -21.6559  -30.4317   21.3918 C   0  0  0  0  0  0  0  0  0  0  0  0
  -19.9767  -29.5202   18.5640 C   0  0  0  0  0  0  0  0  0  0  0  0
  -29.3208  -15.5967   18.2008 C   0  0  0  0  0  0  0  0  0  0  0  0
  -26.5142  -32.8078   27.0120 C   0  0  0  0  0  0  0  0  0  0  0  0
  -25.2961  -30.8189   20.9307 C   0  0  0  0  0  0  0  0  0  0  0  0
  -23.3065  -28.6398   20.7358 C   0  0  0  0  0  0  0  0  0  0  0  0
  -25.0921  -32.6128   26.4924 C   0  0  0  0  0  0  0  0  0  0  0  0
  -30.2122  -12.1218   19.0613 C   0  0  0  0  0  0  0  0  0  0  0  0
  -24.8019  -31.1312   26.2743 C   0  0  0  0  0  0  0  0  0  0  0  0
  -28.9889  -11.6391   19.8388 C   0  0  0  0  0  0  0  0  0  0  0  0
  -29.8445  -13.1817   18.0272 C   0  0  0  0  0  0  0  0  0  0  0  0
  -27.8822  -13.8628   19.3746 C   0  0  0  0  0  0  0  0  0  0  0  0
  -25.7438  -30.5336   25.2220 C   0  0  1  0  0  0  0  0  0  0  0  0
  -24.0606  -30.7771   21.8248 C   0  0  1  0  0  0  0  0  0  0  0  0
  -28.2265  -12.8254   20.4540 C   0  0  1  0  0  0  0  0  0  0  0  0
  -26.9342  -17.4173   17.4654 C   0  0  0  0  0  0  0  0  0  0  0  0
  -17.7795  -29.8290   17.3918 C   0  0  0  0  0  0  0  0  0  0  0  0
  -20.3406  -28.5004   23.3539 C   0  0  0  0  0  0  0  0  0  0  0  0
  -18.5407  -28.1123   21.6574 C   0  0  0  0  0  0  0  0  0  0  0  0
  -18.8804  -30.3910   22.6137 C   0  0  0  0  0  0  0  0  0  0  0  0
  -29.3569  -16.2812   20.5882 C   0  0  0  0  0  0  0  0  0  0  0  0
  -21.2744  -30.7591   16.2102 C   0  0  0  0  0  0  0  0  0  0  0  0
  -28.1453  -25.6090   18.4387 C   0  0  0  0  0  0  0  0  0  1  0  0
  -20.5693  -29.4712   20.9725 C   0  0  1  0  0  0  0  0  0  0  0  0
  -19.2048  -30.3370   17.5434 C   0  0  2  0  0  0  0  0  0  0  0  0
  -19.6101  -29.1141   22.1428 C   0  0  0  0  0  0  0  0  0  0  0  0
  -26.3291  -11.2865   20.7912 N   0  0  0  0  0  0  0  0  0  0  0  0
  -28.5960  -22.0241   17.7430 N   0  0  0  0  0  0  0  0  0  0  0  0
  -26.9932  -12.3753   21.2149 N   0  0  0  0  0  0  0  0  0  0  0  0
  -22.9753  -29.9782   21.2520 N   0  0  0  0  0  0  0  0  0  0  0  0
  -29.0814  -14.2756   18.6293 N   0  0  0  0  0  0  0  0  0  0  0  0
  -26.9902  -14.0611   22.8789 N   0  0  0  0  0  0  0  0  0  0  0  0
  -23.3841  -11.5534   23.9296 N   0  0  0  0  0  0  0  0  0  0  0  0
  -25.3150  -30.9054   23.8907 N   0  0  0  0  0  0  0  0  0  0  0  0
  -19.9085  -30.0792   19.8226 N   0  0  0  0  0  0  0  0  0  0  0  0
  -29.1434  -16.6041   19.1737 N   0  0  0  0  0  0  0  0  0  0  0  0
  -19.8724  -30.2679   16.2128 N   0  3  0  0  0  0  0  0  0  0  0  0
  -24.6059  -13.3998   24.5266 O   0  0  0  0  0  0  0  0  0  0  0  0
  -23.7386  -29.2215   23.5716 O   0  0  0  0  0  0  0  0  0  0  0  0
  -21.3458  -31.5459   21.8205 O   0  0  0  0  0  0  0  0  0  0  0  0
  -20.5769  -28.4875   18.2744 O   0  0  0  0  0  0  0  0  0  0  0  0
  -29.6925  -15.8518   17.0491 O   0  0  0  0  0  0  0  0  0  0  0  0
  -28.7658  -21.7075   15.4135 O   0  0  0  0  0  0  0  0  0  0  0  0
  -28.3764  -22.8569   19.9350 O   0  0  0  0  0  0  0  0  0  0  0  0
  -21.6130   -7.0279   21.2059 O   0  0  0  0  0  0  0  0  0  0  0  0
  -26.7893  -25.7637   18.8555 O   0  0  0  0  0  0  0  0  0  1  0  0
  -20.2230   -4.3190   25.8031 F   0  0  0  0  0  0  0  0  0  0  0  0
  -30.6779  -21.1582   19.3704 F   0  0  0  0  0  0  0  0  0  0  0  0
  -22.0530   -4.3084   21.4377 F   0  0  0  0  0  0  0  0  0  0  0  0
  1  2  1  0  0  0  0
  1  5  2  0  0  0  0
  2  6  2  0  0  0  0
  3  8  2  0  0  0  0
  3 18  1  0  0  0  0
  4  9  1  0  0  0  0
  4 18  2  0  0  0  0
  5 20  1  0  0  0  0
  6 22  1  0  0  0  0
  7 10  2  0  0  0  0
  7 21  1  0  0  0  0
  8 28  1  0  0  0  0
  9 28  2  0  0  0  0
 10 29  1  0  0  0  0
 11 12  2  0  0  0  0
 11 30  1  0  0  0  0
 12 31  1  0  0  0  0
 13 23  1  0  0  0  0
 13 29  2  0  0  0  0
 14 24  2  0  0  0  0
 14 26  1  0  0  0  0
 15 25  1  0  0  0  0
 15 36  2  0  0  0  0
 16 27  2  0  0  0  0
 16 32  1  0  0  0  0
 17 31  2  0  0  0  0
 17 33  1  0  0  0  0
 18 34  1  0  0  0  0
 19 34  1  0  0  0  0
 19 35  2  0  0  0  0
 19 38  1  0  0  0  0
 20 22  2  0  0  0  0
 20 43  1  0  0  0  0
 21 23  2  0  0  0  0
 21 44  1  0  0  0  0
 22 52  1  0  0  0  0
 23 45  1  0  0  0  0
 24 27  1  0  0  0  0
 24 55  1  0  0  0  0
 25 37  2  0  0  0  0
 25 62  1  0  0  0  0
 26 32  2  0  0  0  0
 26 67  1  0  0  0  0
 27 75  1  0  0  0  0
 28 84  1  0  0  0  0
 29 85  1  0  0  0  0
 30 33  2  0  0  0  0
 30 84  1  0  0  0  0
 31 86  1  0  0  0  0
 32 87  1  0  0  0  0
 33 88  1  0  0  0  0
 34 66  2  0  0  0  0
 35 68  1  0  0  0  0
 35 71  1  0  0  0  0
 36 67  1  0  0  0  0
 36 82  1  0  0  0  0
 37 67  1  0  0  0  0
 37 83  1  0  0  0  0
 38 72  1  0  0  0  0
 38 77  2  0  0  0  0
 39 53  1  0  0  0  0
 39 73  1  0  0  0  0
 39 78  2  0  0  0  0
 40 63  1  0  0  0  0
 40 69  1  0  0  0  0
 40 79  2  0  0  0  0
 41 64  1  0  0  0  0
 41 74  1  0  0  0  0
 41 80  2  0  0  0  0
 42 70  1  0  0  0  0
 42 75  1  0  0  0  0
 42 81  2  0  0  0  0
 43 46  1  0  0  0  0
 44 53  1  0  0  0  0
 45 69  1  0  0  0  0
 46 48  1  0  0  0  0
 47 49  1  0  0  0  0
 47 50  1  0  0  0  0
 48 52  1  0  0  0  0
 49 54  1  0  0  0  0
 50 70  1  0  0  0  0
 51 54  1  0  0  0  0
 51 70  1  0  0  0  0
 52 73  1  0  0  0  0
 53 69  1  0  0  0  0
 54 68  1  0  0  0  0
 56 64  1  0  0  0  0
 57 65  1  0  0  0  0
 58 65  1  0  0  0  0
 59 65  1  0  0  0  0
 60 75  1  0  0  0  0
 61 76  1  0  0  0  0
 62 85  1  0  0  0  0
 63 65  1  0  0  0  0
 63 74  1  0  0  0  0
 64 76  1  0  0  0  0
 66 68  1  0  0  0  0
M  CHG  1  76   1
M  ISO  4  42 100  62 101  75 100  85 101
M  END
> <Batch ID>
0094

> <Smiles>
CNC(C)C(=O)NC(C(=O)N1Cc2cc([101O:1][101CH2:1]C3CC(=O)N(c4cc(C)c([100N:0](C)[100C:0](=O)N5CCCC(n6nc(-c7ccc(Oc8ccc(F)cc8F)cc7)c(C(N)=O)c6N)C5)cc4F)C3=O)ccc2CC1C(=O)NC1CCCc2ccccc21)C(C)(C)C

> <Shape>
0.343

> <Color>
0.126

> <Negative vol penalty>
0.000

$$$$

  -OEChem-04052300403D

 85 93  0     1  0  0  0  0  0999 V2000
  -18.6493  -24.7055   24.2139 C   0  0  0  0  0  0  0  0  0  0  0  0
  -19.9986  -24.4875   23.9545 C   0  0  0  0  0  0  0  0  0  0  0  0
  -23.7655  -11.5522   19.1695 C   0  0  0  0  0  0  0  0  0  0  0  0
  -23.8075  -11.1735   21.5553 C   0  0  0  0  0  0  0  0  0  0  0  0
  -18.0551  -25.9109   23.8424 C   0  0  0  0  0  0  0  0  0  0  0  0
  -20.7542  -25.4744   23.3225 C   0  0  0  0  0  0  0  0  0  0  0  0
  -26.6540  -26.7892   24.3072 C   0  0  0  0  0  0  0  0  0  0  0  0
  -23.8680  -10.1786   18.9497 C   0  0  0  0  0  0  0  0  0  0  0  0
  -23.9099   -9.7999   21.3355 C   0  0  0  0  0  0  0  0  0  0  0  0
  -27.8199  -26.4337   23.6303 C   0  0  0  0  0  0  0  0  0  0  0  0
  -21.8495   -7.2498   20.5156 C   0  0  0  0  0  0  0  0  0  0  0  0
  -21.0401   -6.4104   21.2810 C   0  0  0  0  0  0  0  0  0  0  0  0
  -27.7454  -28.5186   22.4192 C   0  0  0  0  0  0  0  0  0  0  0  0
  -25.8200  -22.2931   20.2469 C   0  0  0  0  0  0  0  0  0  0  0  0
  -27.9545  -22.9137   19.3007 C   0  0  0  0  0  0  0  0  0  0  0  0
  -23.0068   -5.3262   22.1719 C   0  0  0  0  0  0  0  0  0  0  0  0
  -23.7354  -12.0497   20.4724 C   0  0  0  0  0  0  0  0  0  0  0  0
  -22.4491  -14.2216   20.8406 C   0  0  0  0  0  0  0  0  0  0  0  0
  -18.8061  -26.9168   23.2142 C   0  0  0  0  0  0  0  0  0  0  0  0
  -26.0180  -28.0094   24.0368 C   0  0  0  0  0  0  0  0  0  0  0  0
  -20.1692  -26.6938   22.9410 C   0  0  0  0  0  0  0  0  0  0  0  0
  -26.5730  -28.8884   23.0959 C   0  0  0  0  0  0  0  0  0  0  0  0
  -27.0297  -21.9312   19.6542 C   0  0  0  0  0  0  0  0  0  0  0  0
  -25.5351  -23.6375   20.4860 C   0  0  0  0  0  0  0  0  0  0  0  0
  -26.4599  -24.6200   20.1324 C   0  0  0  0  0  0  0  0  0  0  0  0
  -23.9402   -9.3024   20.0326 C   0  0  0  0  0  0  0  0  0  0  0  0
  -28.3642  -27.2971   22.6841 C   0  0  0  0  0  0  0  0  0  0  0  0
  -23.2376   -7.1274   20.5783 C   0  0  0  0  0  0  0  0  0  0  0  0
  -27.6696  -24.2581   19.5397 C   0  0  0  0  0  0  0  0  0  0  0  0
  -21.6187   -5.4486   22.1092 C   0  0  0  0  0  0  0  0  0  0  0  0
  -23.8162   -6.1656   21.4065 C   0  0  0  0  0  0  0  0  0  0  0  0
  -23.6301  -13.4685   20.7001 C   0  0  0  0  0  0  0  0  0  0  0  0
  -22.8844  -15.5092   21.0382 C   0  0  0  0  0  0  0  0  0  0  0  0
  -28.6306  -20.0498   19.4125 C   0  0  0  0  0  0  0  0  0  0  0  0
  -21.0808  -13.7954   20.7966 C   0  0  0  0  0  0  0  0  0  0  0  0
  -23.1683  -28.8518   22.9084 C   0  0  0  0  0  0  0  0  0  0  0  0
  -24.2014  -31.8419   23.6256 C   0  0  0  0  0  0  0  0  0  0  0  0
  -26.8337  -33.9510   24.1445 C   0  0  0  0  0  0  0  0  0  0  0  0
  -26.2576  -19.6214   19.3529 C   0  0  0  0  0  0  0  0  0  0  0  0
  -18.1089  -28.1846   22.7885 C   0  0  0  0  0  0  0  0  0  0  0  0
  -24.7758  -28.3900   24.7948 C   0  0  0  0  0  0  0  0  0  0  0  0
  -25.9400  -30.2189   22.7837 C   0  0  0  0  0  0  0  0  0  0  0  0
  -19.0676  -29.3263   22.4604 C   0  0  0  0  0  0  0  0  0  0  0  0
  -27.4927  -17.3286   21.9995 C   0  0  0  0  0  0  0  0  0  0  0  0
  -20.2032  -28.8307   21.5706 C   0  0  0  0  0  0  0  0  0  0  0  0
  -26.5211  -16.1584   21.8574 C   0  0  0  0  0  0  0  0  0  0  0  0
  -27.7382  -18.0141   20.6599 C   0  0  0  0  0  0  0  0  0  0  0  0
  -25.5121  -17.3050   19.8343 C   0  0  0  0  0  0  0  0  0  0  0  0
  -21.0280  -27.7498   22.2796 C   0  0  1  0  0  0  0  0  0  0  0  0
  -23.9279  -29.4298   24.0688 C   0  0  1  0  0  0  0  0  0  0  0  0
  -25.2188  -16.6047   21.1716 C   0  0  1  0  0  0  0  0  0  0  0  0
  -27.3643  -36.3454   24.6764 C   0  0  0  0  0  0  0  0  0  0  0  0
  -23.5413  -32.6242   20.7512 C   0  0  0  0  0  0  0  0  0  0  0  0
  -24.9399  -34.6773   21.0624 C   0  0  0  0  0  0  0  0  0  0  0  0
  -22.9086  -34.3293   22.4678 C   0  0  0  0  0  0  0  0  0  0  0  0
  -28.2034  -33.2096   26.6612 C   0  0  0  0  0  0  0  0  0  0  0  0
  -30.5034  -26.4985   19.8739 C   0  0  0  0  0  0  0  0  0  0  0  0
  -29.6616  -27.4603   20.6976 C   0  0  0  0  0  0  0  0  0  1  0  0
  -29.8728  -25.1172   19.7921 C   0  0  0  0  0  0  0  0  0  0  0  0
  -24.9627  -32.9159   22.8867 C   0  0  1  0  0  0  0  0  0  0  0  0
  -27.1165  -34.9571   25.2456 C   0  0  2  0  0  0  0  0  0  0  0  0
  -24.0992  -33.6108   21.7963 C   0  0  0  0  0  0  0  0  0  0  0  0
  -24.7329  -14.2155   20.7997 N   0  0  0  0  0  0  0  0  0  0  0  0
  -24.2466  -15.4514   21.0049 N   0  0  0  0  0  0  0  0  0  0  0  0
  -24.7232  -30.5430   23.5467 N   0  0  0  0  0  0  0  0  0  0  0  0
  -26.4761  -18.3941   20.0099 N   0  0  0  0  0  0  0  0  0  0  0  0
  -24.3028  -23.9810   21.0864 N   0  0  0  0  0  0  0  0  0  0  0  0
  -26.1767  -25.9855   20.3687 N   0  0  0  0  0  0  0  0  0  0  0  0
  -22.2310  -16.6740   21.2353 N   0  0  0  0  0  0  0  0  0  0  0  0
  -20.8108  -12.4365   20.5849 N   0  0  0  0  0  0  0  0  0  0  0  0
  -21.9253  -28.3498   23.2436 N   0  0  0  0  0  0  0  0  0  0  0  0
  -25.4819  -33.8223   23.9051 N   0  0  0  0  0  0  0  0  0  0  0  0
  -27.3237  -20.5391   19.4051 N   0  0  0  0  0  0  0  0  0  0  0  0
  -28.3185  -34.5474   26.0254 N   0  3  0  0  0  0  0  0  0  0  0  0
  -29.6100  -20.5703   19.9408 O   0  0  0  0  0  0  0  0  0  0  0  0
  -20.1257  -14.5984   20.9243 O   0  0  0  0  0  0  0  0  0  0  0  0
  -23.6720  -28.8620   21.7913 O   0  0  0  0  0  0  0  0  0  0  0  0
  -23.1853  -32.1456   24.2556 O   0  0  0  0  0  0  0  0  0  0  0  0
  -27.7233  -33.3431   23.5532 O   0  0  0  0  0  0  0  0  0  0  0  0
  -25.1829  -19.9121   18.8148 O   0  0  0  0  0  0  0  0  0  0  0  0
  -24.0399   -7.9620   19.8185 O   0  0  0  0  0  0  0  0  0  0  0  0
  -29.5017  -26.9523   22.0215 O   0  0  0  0  0  0  0  0  0  1  0  0
  -28.5921  -25.2069   19.1827 O   0  0  0  0  0  0  0  0  0  0  0  0
  -20.8413   -4.6436   22.8453 F   0  0  0  0  0  0  0  0  0  0  0  0
  -25.1492   -6.0441   21.4719 F   0  0  0  0  0  0  0  0  0  0  0  0
  1  2  1  0  0  0  0
  1  5  2  0  0  0  0
  2  6  2  0  0  0  0
  3  8  2  0  0  0  0
  3 17  1  0  0  0  0
  4  9  1  0  0  0  0
  4 17  2  0  0  0  0
  5 19  1  0  0  0  0
  6 21  1  0  0  0  0
  7 10  2  0  0  0  0
  7 20  1  0  0  0  0
  8 26  1  0  0  0  0
  9 26  2  0  0  0  0
 10 27  1  0  0  0  0
 11 12  2  0  0  0  0
 11 28  1  0  0  0  0
 12 30  1  0  0  0  0
 13 22  1  0  0  0  0
 13 27  2  0  0  0  0
 14 23  1  0  0  0  0
 14 24  2  0  0  0  0
 15 23  2  0  0  0  0
 15 29  1  0  0  0  0
 16 30  2  0  0  0  0
 16 31  1  0  0  0  0
 17 32  1  0  0  0  0
 18 32  1  0  0  0  0
 18 33  2  0  0  0  0
 18 35  1  0  0  0  0
 19 21  2  0  0  0  0
 19 40  1  0  0  0  0
 20 22  2  0  0  0  0
 20 41  1  0  0  0  0
 21 49  1  0  0  0  0
 22 42  1  0  0  0  0
 23 73  1  0  0  0  0
 24 25  1  0  0  0  0
 24 67  1  0  0  0  0
 25 29  2  0  0  0  0
 25 68  1  0  0  0  0
 26 81  1  0  0  0  0
 27 82  1  0  0  0  0
 28 31  2  0  0  0  0
 28 81  1  0  0  0  0
 29 83  1  0  0  0  0
 30 84  1  0  0  0  0
 31 85  1  0  0  0  0
 32 63  2  0  0  0  0
 33 64  1  0  0  0  0
 33 69  1  0  0  0  0
 34 73  1  0  0  0  0
 34 75  2  0  0  0  0
 35 70  1  0  0  0  0
 35 76  2  0  0  0  0
 36 50  1  0  0  0  0
 36 71  1  0  0  0  0
 36 77  2  0  0  0  0
 37 60  1  0  0  0  0
 37 65  1  0  0  0  0
 37 78  2  0  0  0  0
 38 61  1  0  0  0  0
 38 72  1  0  0  0  0
 38 79  2  0  0  0  0
 39 66  1  0  0  0  0
 39 73  1  0  0  0  0
 39 80  2  0  0  0  0
 40 43  1  0  0  0  0
 41 50  1  0  0  0  0
 42 65  1  0  0  0  0
 43 45  1  0  0  0  0
 44 46  1  0  0  0  0
 44 47  1  0  0  0  0
 45 49  1  0  0  0  0
 46 51  1  0  0  0  0
 47 66  1  0  0  0  0
 48 51  1  0  0  0  0
 48 66  1  0  0  0  0
 49 71  1  0  0  0  0
 50 65  1  0  0  0  0
 51 64  1  0  0  0  0
 52 61  1  0  0  0  0
 53 62  1  0  0  0  0
 54 62  1  0  0  0  0
 55 62  1  0  0  0  0
 56 74  1  0  0  0  0
 57 58  1  0  0  0  0
 57 59  1  0  0  0  0
 58 82  1  0  0  0  0
 59 83  1  0  0  0  0
 60 62  1  0  0  0  0
 60 72  1  0  0  0  0
 61 74  1  0  0  0  0
 63 64  1  0  0  0  0
M  CHG  1  74   1
M  ISO  4  39 100  58 101  73 100  82 101
M  END
> <Batch ID>
0094

> <Smiles>
CNC(C)C(=O)NC(C(=O)N1Cc2cc([101O:1][101CH2:1]CCOc3cc([100N:0](C=O)[100C:0](=O)N4CCCC(n5nc(-c6ccc(Oc7ccc(F)cc7F)cc6)c(C(N)=O)c5N)C4)cc(N)c3N)ccc2CC1C(=O)NC1CCCc2ccccc21)C(C)(C)C

> <Shape>
0.264

> <Color>
0.073

> <Negative vol penalty>
0.000

$$$$

  -OEChem-04052300403D

 85 94  0     1  0  0  0  0  0999 V2000
  -28.9691  -25.3024   16.5638 C   0  0  0  0  0  0  0  0  0  0  0  0
  -27.8124  -25.2872   17.3367 C   0  0  0  0  0  0  0  0  0  0  0  0
  -26.3910  -12.1873   21.0965 C   0  0  0  0  0  0  0  0  0  0  0  0
  -23.9789  -12.3130   21.0437 C   0  0  0  0  0  0  0  0  0  0  0  0
  -30.0862  -26.0153   16.9971 C   0  0  0  0  0  0  0  0  0  0  0  0
  -27.7726  -25.9840   18.5438 C   0  0  0  0  0  0  0  0  0  0  0  0
  -23.4926  -28.6288   19.1200 C   0  0  0  0  0  0  0  0  0  0  0  0
  -20.0956  -19.4213   20.3016 C   0  0  0  0  0  0  0  0  0  0  0  0
  -18.8865  -19.9139   20.7925 C   0  0  0  0  0  0  0  0  0  0  0  0
  -26.3169  -11.1590   22.0360 C   0  0  0  0  0  0  0  0  0  0  0  0
  -23.9048  -11.2847   21.9832 C   0  0  0  0  0  0  0  0  0  0  0  0
  -22.3529  -27.9210   19.4993 C   0  0  0  0  0  0  0  0  0  0  0  0
  -23.0731   -8.4473   24.0988 C   0  0  0  0  0  0  0  0  0  0  0  0
  -22.1497   -7.4266   23.8728 C   0  0  0  0  0  0  0  0  0  0  0  0
  -22.6703  -28.6434   21.7789 C   0  0  0  0  0  0  0  0  0  0  0  0
  -21.2342  -21.3803   21.1400 C   0  0  0  0  0  0  0  0  0  0  0  0
  -23.2495   -6.8931   21.7888 C   0  0  0  0  0  0  0  0  0  0  0  0
  -25.2220  -12.7643   20.6003 C   0  0  0  0  0  0  0  0  0  0  0  0
  -25.3217  -13.6982   18.2285 C   0  0  0  0  0  0  0  0  0  0  0  0
  -30.0568  -26.7291   18.2055 C   0  0  0  0  0  0  0  0  0  0  0  0
  -24.2372  -29.3416   20.0709 C   0  0  0  0  0  0  0  0  0  0  0  0
  -28.8908  -26.7060   18.9943 C   0  0  0  0  0  0  0  0  0  0  0  0
  -23.8176  -29.3616   21.4087 C   0  0  0  0  0  0  0  0  0  0  0  0
  -20.0251  -21.8730   21.6308 C   0  0  0  0  0  0  0  0  0  0  0  0
  -21.2695  -20.1544   20.4754 C   0  0  0  0  0  0  0  0  0  0  0  0
  -18.8512  -21.1398   21.4570 C   0  0  0  0  0  0  0  0  0  0  0  0
  -25.0738  -10.7077   22.4794 C   0  0  0  0  0  0  0  0  0  0  0  0
  -21.9432  -27.9259   20.8294 C   0  0  0  0  0  0  0  0  0  0  0  0
  -24.0847   -8.6910   23.1698 C   0  0  0  0  0  0  0  0  0  0  0  0
  -22.2379   -6.6495   22.7178 C   0  0  0  0  0  0  0  0  0  0  0  0
  -24.1729   -7.9139   22.0148 C   0  0  0  0  0  0  0  0  0  0  0  0
  -25.2979  -13.8269   19.6302 C   0  0  0  0  0  0  0  0  0  0  0  0
  -25.3982  -14.9893   17.7664 C   0  0  0  0  0  0  0  0  0  0  0  0
  -19.6088  -23.3630   23.6353 C   0  0  0  0  0  0  0  0  0  0  0  0
  -25.2784  -12.5171   17.4168 C   0  0  0  0  0  0  0  0  0  0  0  0
  -27.2143  -29.1757   21.1721 C   0  0  0  0  0  0  0  0  0  0  0  0
  -26.3650  -31.8772   22.7542 C   0  0  0  0  0  0  0  0  0  0  0  0
  -23.8716  -33.8097   24.0562 C   0  0  0  0  0  0  0  0  0  0  0  0
  -23.7535  -20.2529   20.0674 C   0  0  0  0  0  0  0  0  0  0  0  0
  -31.3050  -27.4463   18.6554 C   0  0  0  0  0  0  0  0  0  0  0  0
  -25.4490  -30.1218   19.6409 C   0  0  0  0  0  0  0  0  0  0  0  0
  -24.5705  -30.1276   22.4645 C   0  0  0  0  0  0  0  0  0  0  0  0
  -19.8674  -24.8218   23.9358 C   0  0  0  0  0  0  0  0  0  0  0  0
  -31.0556  -28.4656   19.7642 C   0  0  0  0  0  0  0  0  0  0  0  0
  -27.0219  -19.3206   19.0067 C   0  0  0  0  0  0  0  0  0  0  0  0
  -30.1741  -27.8639   20.8540 C   0  0  0  0  0  0  0  0  0  0  0  0
  -26.9511  -17.7947   18.9128 C   0  0  0  0  0  0  0  0  0  0  0  0
  -26.2037  -19.8551   20.1809 C   0  0  0  0  0  0  0  0  0  0  0  0
  -20.5147  -24.3430   21.6909 C   0  0  0  0  0  0  0  0  0  0  0  0
  -24.7365  -17.8768   20.1275 C   0  0  0  0  0  0  0  0  0  0  0  0
  -28.8005  -27.4698   20.2976 C   0  0  1  0  0  0  0  0  0  0  0  0
  -26.4222  -30.3922   20.7842 C   0  0  1  0  0  0  0  0  0  0  0  0
  -19.9539  -25.4605   22.5570 C   0  0  2  0  0  0  0  0  0  0  0  0
  -25.4925  -17.2966   18.9211 C   0  0  2  0  0  0  0  0  0  0  0  0
  -23.4895  -35.9415   25.3238 C   0  0  0  0  0  0  0  0  0  0  0  0
  -27.2812  -30.5106   25.3239 C   0  0  0  0  0  0  0  0  0  0  0  0
  -26.0250  -32.2499   26.6143 C   0  0  0  0  0  0  0  0  0  0  0  0
  -27.9212  -32.9211   25.1389 C   0  0  0  0  0  0  0  0  0  0  0  0
  -22.2778  -34.9719   21.8499 C   0  0  0  0  0  0  0  0  0  0  0  0
  -20.8033  -26.7194   22.5326 C   0  0  0  0  0  0  0  0  0  1  0  0
  -25.7411  -32.1794   24.0952 C   0  0  1  0  0  0  0  0  0  0  0  0
  -23.5906  -35.2977   23.9497 C   0  0  2  0  0  0  0  0  0  0  0  0
  -26.7288  -31.9491   25.2738 C   0  0  0  0  0  0  0  0  0  0  0  0
  -25.3549  -15.0994   20.0322 N   0  0  0  0  0  0  0  0  0  0  0  0
  -25.4153  -15.7820   18.8761 N   0  0  0  0  0  0  0  0  0  0  0  0
  -20.0139  -23.1291   22.3078 N   0  0  0  0  0  0  0  0  0  0  0  0
  -25.7524  -30.8697   21.9956 N   0  0  0  0  0  0  0  0  0  0  0  0
  -24.8322  -19.3450   20.1205 N   0  0  0  0  0  0  0  0  0  0  0  0
  -17.6151  -21.6208   21.9441 N   0  0  0  0  0  0  0  0  0  0  0  0
  -25.4520  -15.5126   16.5231 N   0  0  0  0  0  0  0  0  0  0  0  0
  -25.2003  -11.2711   18.0537 N   0  0  0  0  0  0  0  0  0  0  0  0
  -22.4981  -19.6521   19.9794 N   0  0  0  0  0  0  0  0  0  0  0  0
  -27.9636  -28.6402   20.1419 N   0  0  0  0  0  0  0  0  0  0  0  0
  -25.2230  -33.5403   24.0070 N   0  0  0  0  0  0  0  0  0  0  0  0
  -22.3095  -35.5323   23.2254 N   0  3  0  0  0  0  0  0  0  0  0  0
  -19.1790  -22.5864   24.4760 O   0  0  0  0  0  0  0  0  0  0  0  0
  -25.3246  -12.5644   16.1641 O   0  0  0  0  0  0  0  0  0  0  0  0
  -27.1516  -28.7551   22.3213 O   0  0  0  0  0  0  0  0  0  0  0  0
  -27.3551  -32.5166   22.3900 O   0  0  0  0  0  0  0  0  0  0  0  0
  -22.9815  -32.9705   24.1751 O   0  0  0  0  0  0  0  0  0  0  0  0
  -23.9319  -21.4736   20.0703 O   0  0  0  0  0  0  0  0  0  0  0  0
  -25.0011   -9.7042   23.3960 O   0  0  0  0  0  0  0  0  0  0  0  0
  -20.8315  -27.2353   21.2024 O   0  0  0  0  0  0  0  0  0  1  0  0
  -21.3520   -5.6683   22.5016 F   0  0  0  0  0  0  0  0  0  0  0  0
  -25.1432   -8.1425   21.1193 F   0  0  0  0  0  0  0  0  0  0  0  0
  1  2  1  0  0  0  0
  1  5  2  0  0  0  0
  2  6  2  0  0  0  0
  3 10  2  0  0  0  0
  3 18  1  0  0  0  0
  4 11  1  0  0  0  0
  4 18  2  0  0  0  0
  5 20  1  0  0  0  0
  6 22  1  0  0  0  0
  7 12  2  0  0  0  0
  7 21  1  0  0  0  0
  8  9  2  0  0  0  0
  8 25  1  0  0  0  0
  9 26  1  0  0  0  0
 10 27  1  0  0  0  0
 11 27  2  0  0  0  0
 12 28  1  0  0  0  0
 13 14  2  0  0  0  0
 13 29  1  0  0  0  0
 14 30  1  0  0  0  0
 15 23  1  0  0  0  0
 15 28  2  0  0  0  0
 16 24  1  0  0  0  0
 16 25  2  0  0  0  0
 17 30  2  0  0  0  0
 17 31  1  0  0  0  0
 18 32  1  0  0  0  0
 19 32  1  0  0  0  0
 19 33  2  0  0  0  0
 19 35  1  0  0  0  0
 20 22  2  0  0  0  0
 20 40  1  0  0  0  0
 21 23  2  0  0  0  0
 21 41  1  0  0  0  0
 22 51  1  0  0  0  0
 23 42  1  0  0  0  0
 24 26  2  0  0  0  0
 24 66  1  0  0  0  0
 25 72  1  0  0  0  0
 26 69  1  0  0  0  0
 27 82  1  0  0  0  0
 28 83  1  0  0  0  0
 29 31  2  0  0  0  0
 29 82  1  0  0  0  0
 30 84  1  0  0  0  0
 31 85  1  0  0  0  0
 32 64  2  0  0  0  0
 33 65  1  0  0  0  0
 33 70  1  0  0  0  0
 34 43  1  0  0  0  0
 34 66  1  0  0  0  0
 34 76  2  0  0  0  0
 35 71  1  0  0  0  0
 35 77  2  0  0  0  0
 36 52  1  0  0  0  0
 36 73  1  0  0  0  0
 36 78  2  0  0  0  0
 37 61  1  0  0  0  0
 37 67  1  0  0  0  0
 37 79  2  0  0  0  0
 38 62  1  0  0  0  0
 38 74  1  0  0  0  0
 38 80  2  0  0  0  0
 39 68  1  0  0  0  0
 39 72  1  0  0  0  0
 39 81  2  0  0  0  0
 40 44  1  0  0  0  0
 41 52  1  0  0  0  0
 42 67  1  0  0  0  0
 43 53  1  0  0  0  0
 44 46  1  0  0  0  0
 45 47  1  0  0  0  0
 45 48  1  0  0  0  0
 46 51  1  0  0  0  0
 47 54  1  0  0  0  0
 48 68  1  0  0  0  0
 49 53  1  0  0  0  0
 49 66  1  0  0  0  0
 50 54  1  0  0  0  0
 50 68  1  0  0  0  0
 51 73  1  0  0  0  0
 52 67  1  0  0  0  0
 53 60  1  0  0  0  0
 54 65  1  0  0  0  0
 55 62  1  0  0  0  0
 56 63  1  0  0  0  0
 57 63  1  0  0  0  0
 58 63  1  0  0  0  0
 59 75  1  0  0  0  0
 60 83  1  0  0  0  0
 61 63  1  0  0  0  0
 61 74  1  0  0  0  0
 62 75  1  0  0  0  0
 64 65  1  0  0  0  0
M  CHG  1  75   1
M  ISO  4  39 100  60 101  72 100  83 101
M  END
> <Batch ID>
0094

> <Smiles>
CNC(C)C(=O)NC(C(=O)N1Cc2cc([101O:1][101CH2:1]C3CC(=O)N(c4cc([100NH:0][100C:0](=O)N5CCCC(n6nc(-c7ccc(Oc8ccc(F)cc8F)cc7)c(C(N)=O)c6N)C5)ccc4N)C3)ccc2CC1C(=O)NC1CCCc2ccccc21)C(C)(C)C

> <Shape>
0.255

> <Color>
0.068

> <Negative vol penalty>
0.000

$$$$

  -OEChem-04052300403D

 89 98  0     1  0  0  0  0  0999 V2000
  -29.3301  -31.5976   27.5142 C   0  0  0  0  0  0  0  0  0  0  0  0
  -29.3096  -30.6326   26.5123 C   0  0  0  0  0  0  0  0  0  0  0  0
  -24.1135   -9.7139   21.2755 C   0  0  0  0  0  0  0  0  0  0  0  0
  -24.5424  -10.7034   23.4374 C   0  0  0  0  0  0  0  0  0  0  0  0
  -28.1351  -32.1510   27.9720 C   0  0  0  0  0  0  0  0  0  0  0  0
  -28.0938  -30.2197   25.9683 C   0  0  0  0  0  0  0  0  0  0  0  0
  -27.0249  -28.5797   20.1654 C   0  0  0  0  0  0  0  0  0  0  0  0
  -23.6572   -8.5520   21.8978 C   0  0  0  0  0  0  0  0  0  0  0  0
  -24.0860   -9.5414   24.0598 C   0  0  0  0  0  0  0  0  0  0  0  0
  -26.9380  -27.3350   19.5433 C   0  0  0  0  0  0  0  0  0  0  0  0
  -20.8408   -7.4944   23.4413 C   0  0  0  0  0  0  0  0  0  0  0  0
  -19.6620   -6.9227   22.9625 C   0  0  0  0  0  0  0  0  0  0  0  0
  -28.6555  -18.3452   18.9061 C   0  0  0  0  0  0  0  0  0  0  0  0
  -24.5378  -27.3919   19.7782 C   0  0  0  0  0  0  0  0  0  0  0  0
  -26.1603  -19.2056   19.8096 C   0  0  0  0  0  0  0  0  0  0  0  0
  -26.5639  -23.3505   16.2705 C   0  0  0  0  0  0  0  0  0  0  0  0
  -20.8589   -4.8892   22.4436 C   0  0  0  0  0  0  0  0  0  0  0  0
  -24.5561  -10.7896   22.0453 C   0  0  0  0  0  0  0  0  0  0  0  0
  -28.2831  -18.1327   20.2334 C   0  0  0  0  0  0  0  0  0  0  0  0
  -24.2652  -13.1158   21.0393 C   0  0  0  0  0  0  0  0  0  0  0  0
  -26.9047  -31.7517   27.4265 C   0  0  0  0  0  0  0  0  0  0  0  0
  -25.8678  -29.2359   20.6091 C   0  0  0  0  0  0  0  0  0  0  0  0
  -26.8811  -30.7674   26.4201 C   0  0  0  0  0  0  0  0  0  0  0  0
  -24.6125  -28.6460   20.4033 C   0  0  0  0  0  0  0  0  0  0  0  0
  -26.5327  -19.4181   18.4823 C   0  0  0  0  0  0  0  0  0  0  0  0
  -26.5229  -23.6078   17.6631 C   0  0  0  0  0  0  0  0  0  0  0  0
  -27.7803  -18.9880   18.0305 C   0  0  0  0  0  0  0  0  0  0  0  0
  -27.0355  -18.5629   20.6852 C   0  0  0  0  0  0  0  0  0  0  0  0
  -23.6434   -8.4657   23.2899 C   0  0  0  0  0  0  0  0  0  0  0  0
  -25.6946  -26.7396   19.3521 C   0  0  0  0  0  0  0  0  0  0  0  0
  -22.0287   -6.7635   23.4211 C   0  0  0  0  0  0  0  0  0  0  0  0
  -19.6710   -5.6201   22.4637 C   0  0  0  0  0  0  0  0  0  0  0  0
  -22.0377   -5.4609   22.9223 C   0  0  0  0  0  0  0  0  0  0  0  0
  -25.0281  -11.9899   21.4030 C   0  0  0  0  0  0  0  0  0  0  0  0
  -25.1717  -13.9746   20.4674 C   0  0  0  0  0  0  0  0  0  0  0  0
  -26.2152  -22.0308   16.0857 C   0  0  0  0  0  0  0  0  0  0  0  0
  -26.1504  -22.4375   18.2868 C   0  0  0  0  0  0  0  0  0  0  0  0
  -29.2200  -17.4584   21.1233 C   0  0  0  0  0  0  0  0  0  0  0  0
  -22.8626  -13.3632   21.2039 C   0  0  0  0  0  0  0  0  0  0  0  0
  -30.1827  -16.4569   20.6100 C   0  0  0  0  0  0  0  0  0  0  0  0
  -24.7776  -30.1949   23.4368 C   0  0  0  0  0  0  0  0  0  0  0  0
  -22.4301  -31.5325   21.6417 C   0  0  0  0  0  0  0  0  0  0  0  0
  -20.6563  -31.5326   18.7261 C   0  0  0  0  0  0  0  0  0  0  0  0
  -25.6359  -32.3441   27.9867 C   0  0  0  0  0  0  0  0  0  0  0  0
  -25.9763  -30.5903   21.2544 C   0  0  0  0  0  0  0  0  0  0  0  0
  -23.3386  -29.3184   20.8431 C   0  0  0  0  0  0  0  0  0  0  0  0
  -24.4159  -32.1242   27.0959 C   0  0  0  0  0  0  0  0  0  0  0  0
  -29.9567  -13.2479   19.0263 C   0  0  0  0  0  0  0  0  0  0  0  0
  -24.3524  -30.6743   26.6261 C   0  0  0  0  0  0  0  0  0  0  0  0
  -28.6084  -12.7116   19.5059 C   0  0  0  0  0  0  0  0  0  0  0  0
  -30.6370  -14.0898   20.1009 C   0  0  0  0  0  0  0  0  0  0  0  0
  -28.4418  -14.6844   21.0888 C   0  0  0  0  0  0  0  0  0  0  0  0
  -25.5841  -30.3116   25.7877 C   0  0  1  0  0  0  0  0  0  0  0  0
  -24.7741  -30.9338   22.1285 C   0  0  1  0  0  0  0  0  0  0  0  0
  -27.7119  -13.8520   20.0203 C   0  0  2  0  0  0  0  0  0  0  0  0
  -18.7757  -32.7207   17.5645 C   0  0  0  0  0  0  0  0  0  0  0  0
  -20.4179  -30.0689   23.4076 C   0  0  0  0  0  0  0  0  0  0  0  0
  -18.6747  -30.5073   21.6648 C   0  0  0  0  0  0  0  0  0  0  0  0
  -19.7821  -32.4168   22.8267 C   0  0  0  0  0  0  0  0  0  0  0  0
  -22.4159  -32.3927   16.5074 C   0  0  0  0  0  0  0  0  0  0  0  0
  -25.5693  -20.1146   17.5596 C   0  0  0  0  0  0  0  0  0  0  0  0
  -26.8293  -24.9163   18.3304 C   0  0  0  0  0  0  0  0  0  1  0  0
  -21.0867  -31.0758   21.1262 C   0  0  1  0  0  0  0  0  0  0  0  0
  -20.2803  -32.6551   17.7759 C   0  0  2  0  0  0  0  0  0  0  0  0
  -20.0143  -31.0034   22.2497 C   0  0  0  0  0  0  0  0  0  0  0  0
  -26.3198  -12.1188   21.0884 N   0  0  0  0  0  0  0  0  0  0  0  0
  -29.2760  -17.6867   22.4059 N   0  0  0  0  0  0  0  0  0  0  0  0
  -26.3755  -13.3357   20.5208 N   0  0  0  0  0  0  0  0  0  0  0  0
  -25.9663  -21.4857   17.3182 N   0  0  0  0  0  0  0  0  0  0  0  0
  -29.7466  -15.1394   20.5924 N   0  0  0  0  0  0  0  0  0  0  0  0
  -23.4974  -30.6386   21.4749 N   0  0  0  0  0  0  0  0  0  0  0  0
  -28.1739  -19.1948   16.6901 N   0  0  0  0  0  0  0  0  0  0  0  0
  -26.6391  -18.3572   22.0254 N   0  0  0  0  0  0  0  0  0  0  0  0
  -25.0486  -15.2064   19.9288 N   0  0  0  0  0  0  0  0  0  0  0  0
  -22.0765  -12.3746   21.8115 N   0  0  0  0  0  0  0  0  0  0  0  0
  -25.4587  -30.8450   24.4482 N   0  0  0  0  0  0  0  0  0  0  0  0
  -20.7433  -31.9744   20.0294 N   0  0  0  0  0  0  0  0  0  0  0  0
  -20.9325  -32.4528   16.4513 N   0  3  0  0  0  0  0  0  0  0  0  0
  -22.3194  -14.4225   20.8086 O   0  0  0  0  0  0  0  0  0  0  0  0
  -31.2665  -16.9010   20.2544 O   0  0  0  0  0  0  0  0  0  0  0  0
  -24.2036  -29.1156   23.5227 O   0  0  0  0  0  0  0  0  0  0  0  0
  -22.5304  -32.6444   22.1663 O   0  0  0  0  0  0  0  0  0  0  0  0
  -20.8495  -30.3785   18.3504 O   0  0  0  0  0  0  0  0  0  0  0  0
  -26.1053  -21.3100   14.9776 O   0  0  0  0  0  0  0  0  0  0  0  0
  -25.9693  -22.1547   19.5707 O   0  0  0  0  0  0  0  0  0  0  0  0
  -23.1980   -7.3321   23.8975 O   0  0  0  0  0  0  0  0  0  0  0  0
  -25.6070  -25.5245   18.7458 O   0  0  0  0  0  0  0  0  0  1  0  0
  -18.5386   -5.0707   22.0054 F   0  0  0  0  0  0  0  0  0  0  0  0
  -23.1756   -4.7534   22.9015 F   0  0  0  0  0  0  0  0  0  0  0  0
  1  2  1  0  0  0  0
  1  5  2  0  0  0  0
  2  6  2  0  0  0  0
  3  8  2  0  0  0  0
  3 18  1  0  0  0  0
  4  9  1  0  0  0  0
  4 18  2  0  0  0  0
  5 21  1  0  0  0  0
  6 23  1  0  0  0  0
  7 10  2  0  0  0  0
  7 22  1  0  0  0  0
  8 29  1  0  0  0  0
  9 29  2  0  0  0  0
 10 30  1  0  0  0  0
 11 12  2  0  0  0  0
 11 31  1  0  0  0  0
 12 32  1  0  0  0  0
 13 19  2  0  0  0  0
 13 27  1  0  0  0  0
 14 24  1  0  0  0  0
 14 30  2  0  0  0  0
 15 25  1  0  0  0  0
 15 28  2  0  0  0  0
 16 26  1  0  0  0  0
 16 36  2  0  0  0  0
 17 32  2  0  0  0  0
 17 33  1  0  0  0  0
 18 34  1  0  0  0  0
 19 28  1  0  0  0  0
 19 38  1  0  0  0  0
 20 34  1  0  0  0  0
 20 35  2  0  0  0  0
 20 39  1  0  0  0  0
 21 23  2  0  0  0  0
 21 44  1  0  0  0  0
 22 24  2  0  0  0  0
 22 45  1  0  0  0  0
 23 53  1  0  0  0  0
 24 46  1  0  0  0  0
 25 27  2  0  0  0  0
 25 61  1  0  0  0  0
 26 37  2  0  0  0  0
 26 62  1  0  0  0  0
 27 72  1  0  0  0  0
 28 73  1  0  0  0  0
 29 86  1  0  0  0  0
 30 87  1  0  0  0  0
 31 33  2  0  0  0  0
 31 86  1  0  0  0  0
 32 88  1  0  0  0  0
 33 89  1  0  0  0  0
 34 66  2  0  0  0  0
 35 68  1  0  0  0  0
 35 74  1  0  0  0  0
 36 69  1  0  0  0  0
 36 84  1  0  0  0  0
 37 69  1  0  0  0  0
 37 85  1  0  0  0  0
 38 40  1  0  0  0  0
 38 67  2  0  0  0  0
 39 75  1  0  0  0  0
 39 79  2  0  0  0  0
 40 70  1  0  0  0  0
 40 80  2  0  0  0  0
 41 54  1  0  0  0  0
 41 76  1  0  0  0  0
 41 81  2  0  0  0  0
 42 63  1  0  0  0  0
 42 71  1  0  0  0  0
 42 82  2  0  0  0  0
 43 64  1  0  0  0  0
 43 77  1  0  0  0  0
 43 83  2  0  0  0  0
 44 47  1  0  0  0  0
 45 54  1  0  0  0  0
 46 71  1  0  0  0  0
 47 49  1  0  0  0  0
 48 50  1  0  0  0  0
 48 51  1  0  0  0  0
 49 53  1  0  0  0  0
 50 55  1  0  0  0  0
 51 70  1  0  0  0  0
 52 55  1  0  0  0  0
 52 70  1  0  0  0  0
 53 76  1  0  0  0  0
 54 71  1  0  0  0  0
 55 68  1  0  0  0  0
 56 64  1  0  0  0  0
 57 65  1  0  0  0  0
 58 65  1  0  0  0  0
 59 65  1  0  0  0  0
 60 78  1  0  0  0  0
 61 69  1  0  0  0  0
 62 87  1  0  0  0  0
 63 65  1  0  0  0  0
 63 77  1  0  0  0  0
 64 78  1  0  0  0  0
 66 68  1  0  0  0  0
M  CHG  1  78   1
M  ISO  4  38 100  40 100  62 101  87 101
M  END
> <Batch ID>
0094

> <Smiles>
CNC(C)C(=O)NC(C(=O)N1Cc2cc([101O:1][101CH2:1]C3CC(=O)N(Cc4cc(N)c([100C:0](=N)[100C:0](=O)N5CCCC(n6nc(-c7ccc(Oc8ccc(F)cc8F)cc7)c(C(N)=O)c6N)C5)cc4N)C3=O)ccc2CC1C(=O)NC1CCCc2ccccc21)C(C)(C)C

> <Shape>
0.299

> <Color>
0.131

> <Negative vol penalty>
0.000

$$$$

  -OEChem-04052300403D

 86 94  0     1  0  0  0  0  0999 V2000
  -22.1503   -7.5362   17.8971 C   0  0  0  0  0  0  0  0  0  0  0  0
  -21.5094   -8.7596   17.7298 C   0  0  0  0  0  0  0  0  0  0  0  0
  -28.0510  -28.6953   20.5132 C   0  0  0  0  0  0  0  0  0  0  0  0
  -26.4385  -26.9400   20.1187 C   0  0  0  0  0  0  0  0  0  0  0  0
  -22.9134   -7.3009   19.0401 C   0  0  0  0  0  0  0  0  0  0  0  0
  -21.6302   -9.7480   18.7060 C   0  0  0  0  0  0  0  0  0  0  0  0
  -21.8998  -16.8690   19.4372 C   0  0  0  0  0  0  0  0  0  0  0  0
  -19.1188  -27.4396   21.2576 C   0  0  0  0  0  0  0  0  0  0  0  0
  -18.9817  -28.7543   21.7030 C   0  0  0  0  0  0  0  0  0  0  0  0
  -29.0894  -27.7956   20.2725 C   0  0  0  0  0  0  0  0  0  0  0  0
  -27.4768  -26.0403   19.8779 C   0  0  0  0  0  0  0  0  0  0  0  0
  -21.2935  -17.9022   20.1503 C   0  0  0  0  0  0  0  0  0  0  0  0
  -29.5823  -25.2892   17.3435 C   0  0  0  0  0  0  0  0  0  0  0  0
  -29.4632  -24.4447   16.2398 C   0  0  0  0  0  0  0  0  0  0  0  0
  -22.7025  -17.4125   22.0462 C   0  0  0  0  0  0  0  0  0  0  0  0
  -19.9352  -26.7868   23.4358 C   0  0  0  0  0  0  0  0  0  0  0  0
  -29.5751  -22.5221   17.6987 C   0  0  0  0  0  0  0  0  0  0  0  0
  -26.7256  -28.2675   20.4363 C   0  0  0  0  0  0  0  0  0  0  0  0
  -24.9968  -30.0104   19.7425 C   0  0  0  0  0  0  0  0  0  0  0  0
  -23.0515   -8.2904   20.0262 C   0  0  0  0  0  0  0  0  0  0  0  0
  -22.9062  -16.0914   20.0280 C   0  0  0  0  0  0  0  0  0  0  0  0
  -22.3947   -9.5251   19.8638 C   0  0  0  0  0  0  0  0  0  0  0  0
  -23.3218  -16.3717   21.3375 C   0  0  0  0  0  0  0  0  0  0  0  0
  -19.5954  -26.4558   22.1240 C   0  0  0  0  0  0  0  0  0  0  0  0
  -19.3214  -29.0853   23.0147 C   0  0  0  0  0  0  0  0  0  0  0  0
  -28.8023  -26.4681   19.9549 C   0  0  0  0  0  0  0  0  0  0  0  0
  -21.6927  -18.1723   21.4560 C   0  0  0  0  0  0  0  0  0  0  0  0
  -29.6979  -24.7501   18.6249 C   0  0  0  0  0  0  0  0  0  0  0  0
  -29.4596  -23.0612   16.4174 C   0  0  0  0  0  0  0  0  0  0  0  0
  -19.7981  -28.1015   23.8811 C   0  0  0  0  0  0  0  0  0  0  0  0
  -29.6942  -23.3666   18.8025 C   0  0  0  0  0  0  0  0  0  0  0  0
  -25.6526  -29.1963   20.6854 C   0  0  0  0  0  0  0  0  0  0  0  0
  -24.0636  -30.7018   20.4757 C   0  0  0  0  0  0  0  0  0  0  0  0
  -18.0643  -32.5637   23.3699 C   0  0  0  0  0  0  0  0  0  0  0  0
  -18.2129  -31.3019   22.9605 C   0  0  0  0  0  0  0  0  0  0  0  0
  -25.2120  -30.1308   18.3300 C   0  0  0  0  0  0  0  0  0  0  0  0
  -23.2278  -13.0134   20.7533 C   0  0  0  0  0  0  0  0  0  0  0  0
  -26.2452  -13.9132   21.5328 C   0  0  0  0  0  0  0  0  0  0  0  0
  -20.1915  -24.0241   22.3962 C   0  0  0  0  0  0  0  0  0  0  0  0
  -28.3700  -16.4091   22.4828 C   0  0  0  0  0  0  0  0  0  0  0  0
  -20.1532  -30.9805   24.3596 C   0  0  0  0  0  0  0  0  0  0  0  0
  -23.8481   -7.9726   21.2668 C   0  0  0  0  0  0  0  0  0  0  0  0
  -23.5689  -14.9977   19.2361 C   0  0  0  0  0  0  0  0  0  0  0  0
  -24.4118  -15.5794   22.0103 C   0  0  0  0  0  0  0  0  0  0  0  0
  -24.2318   -9.2080   22.0773 C   0  0  0  0  0  0  0  0  0  0  0  0
  -23.4590  -31.1499   25.4691 C   0  0  0  0  0  0  0  0  0  0  0  0
  -23.0287  -10.1303   22.2466 C   0  0  0  0  0  0  0  0  0  0  0  0
  -24.2789  -30.7188   24.2534 C   0  0  0  0  0  0  0  0  0  0  0  0
  -22.1942  -30.3095   25.6018 C   0  0  0  0  0  0  0  0  0  0  0  0
  -22.1313  -29.9041   23.1615 C   0  0  0  0  0  0  0  0  0  0  0  0
  -22.5221  -10.6313   20.8887 C   0  0  1  0  0  0  0  0  0  0  0  0
  -24.2257  -13.9377   20.1149 C   0  0  1  0  0  0  0  0  0  0  0  0
  -23.4204  -30.7297   22.9763 C   0  0  2  0  0  0  0  0  0  0  0  0
  -30.7704  -16.8317   23.0805 C   0  0  0  0  0  0  0  0  0  0  0  0
  -25.7887  -12.6299   24.2630 C   0  0  0  0  0  0  0  0  0  0  0  0
  -27.7833  -13.8846   25.1088 C   0  0  0  0  0  0  0  0  0  0  0  0
  -28.0490  -12.2109   23.2783 C   0  0  0  0  0  0  0  0  0  0  0  0
  -28.7145  -18.3104   20.2410 C   0  0  0  0  0  0  0  0  0  0  0  0
  -20.1846  -22.7727   21.5292 C   0  0  0  0  0  0  0  0  0  0  0  0
  -20.6768  -21.5379   22.2761 C   0  0  0  0  0  0  0  0  0  0  0  0
  -20.6159  -20.2921   21.4044 C   0  0  0  0  0  0  0  0  0  1  0  0
  -26.9203  -14.4188   22.7848 C   0  0  1  0  0  0  0  0  0  0  0  0
  -29.7367  -16.8200   21.9651 C   0  0  2  0  0  0  0  0  0  0  0  0
  -27.1134  -13.2999   23.8470 C   0  0  0  0  0  0  0  0  0  0  0  0
  -25.1764  -29.3549   21.9232 N   0  0  0  0  0  0  0  0  0  0  0  0
  -24.2116  -30.2766   21.7631 N   0  0  0  0  0  0  0  0  0  0  0  0
  -25.0248  -14.5163   21.1969 N   0  0  0  0  0  0  0  0  0  0  0  0
  -21.4091  -30.3417   24.3674 N   0  0  0  0  0  0  0  0  0  0  0  0
  -23.1392  -31.6259   20.1383 N   0  0  0  0  0  0  0  0  0  0  0  0
  -26.2113  -29.3471   17.7372 N   0  0  0  0  0  0  0  0  0  0  0  0
  -19.7352  -25.1220   21.6722 N   0  0  0  0  0  0  0  0  0  0  0  0
  -23.3753  -11.6884   20.3898 N   0  0  0  0  0  0  0  0  0  0  0  0
  -28.1611  -15.0525   22.3521 N   0  0  0  0  0  0  0  0  0  0  0  0
  -19.1785  -30.4515   23.4740 N   0  0  0  0  0  0  0  0  0  0  0  0
  -29.6755  -18.1835   21.3668 N   0  3  0  0  0  0  0  0  0  0  0  0
  -24.5491  -30.9224   17.6176 O   0  0  0  0  0  0  0  0  0  0  0  0
  -22.3872  -13.4684   21.5202 O   0  0  0  0  0  0  0  0  0  0  0  0
  -26.7844  -13.0213   20.8730 O   0  0  0  0  0  0  0  0  0  0  0  0
  -20.5604  -24.0040   23.5658 O   0  0  0  0  0  0  0  0  0  0  0  0
  -27.5695  -17.2109   22.9591 O   0  0  0  0  0  0  0  0  0  0  0  0
  -19.9061  -31.9399   25.1018 O   0  0  0  0  0  0  0  0  0  0  0  0
  -29.8152  -25.5899   19.7197 O   0  0  0  0  0  0  0  0  0  0  0  0
  -21.1021  -19.1798   22.1545 O   0  0  0  0  0  0  0  0  0  1  0  0
  -29.3437  -22.2503   15.3575 F   0  0  0  0  0  0  0  0  0  0  0  0
  -20.1292  -28.4085   25.1437 F   0  0  0  0  0  0  0  0  0  0  0  0
  -29.8037  -22.8430   20.0311 F   0  0  0  0  0  0  0  0  0  0  0  0
  1  2  1  0  0  0  0
  1  5  2  0  0  0  0
  2  6  2  0  0  0  0
  3 10  2  0  0  0  0
  3 18  1  0  0  0  0
  4 11  1  0  0  0  0
  4 18  2  0  0  0  0
  5 20  1  0  0  0  0
  6 22  1  0  0  0  0
  7 12  2  0  0  0  0
  7 21  1  0  0  0  0
  8  9  2  0  0  0  0
  8 24  1  0  0  0  0
  9 25  1  0  0  0  0
 10 26  1  0  0  0  0
 11 26  2  0  0  0  0
 12 27  1  0  0  0  0
 13 14  2  0  0  0  0
 13 28  1  0  0  0  0
 14 29  1  0  0  0  0
 15 23  1  0  0  0  0
 15 27  2  0  0  0  0
 16 24  2  0  0  0  0
 16 30  1  0  0  0  0
 17 29  2  0  0  0  0
 17 31  1  0  0  0  0
 18 32  1  0  0  0  0
 19 32  1  0  0  0  0
 19 33  2  0  0  0  0
 19 36  1  0  0  0  0
 20 22  2  0  0  0  0
 20 42  1  0  0  0  0
 21 23  2  0  0  0  0
 21 43  1  0  0  0  0
 22 51  1  0  0  0  0
 23 44  1  0  0  0  0
 24 71  1  0  0  0  0
 25 30  2  0  0  0  0
 25 74  1  0  0  0  0
 26 82  1  0  0  0  0
 27 83  1  0  0  0  0
 28 31  2  0  0  0  0
 28 82  1  0  0  0  0
 29 84  1  0  0  0  0
 30 85  1  0  0  0  0
 31 86  1  0  0  0  0
 32 65  2  0  0  0  0
 33 66  1  0  0  0  0
 33 69  1  0  0  0  0
 34 35  2  0  0  0  0
 35 74  1  0  0  0  0
 36 70  1  0  0  0  0
 36 76  2  0  0  0  0
 37 52  1  0  0  0  0
 37 72  1  0  0  0  0
 37 77  2  0  0  0  0
 38 62  1  0  0  0  0
 38 67  1  0  0  0  0
 38 78  2  0  0  0  0
 39 59  1  0  0  0  0
 39 71  1  0  0  0  0
 39 79  2  0  0  0  0
 40 63  1  0  0  0  0
 40 73  1  0  0  0  0
 40 80  2  0  0  0  0
 41 68  1  0  0  0  0
 41 74  1  0  0  0  0
 41 81  2  0  0  0  0
 42 45  1  0  0  0  0
 43 52  1  0  0  0  0
 44 67  1  0  0  0  0
 45 47  1  0  0  0  0
 46 48  1  0  0  0  0
 46 49  1  0  0  0  0
 47 51  1  0  0  0  0
 48 53  1  0  0  0  0
 49 68  1  0  0  0  0
 50 53  1  0  0  0  0
 50 68  1  0  0  0  0
 51 72  1  0  0  0  0
 52 67  1  0  0  0  0
 53 66  1  0  0  0  0
 54 63  1  0  0  0  0
 55 64  1  0  0  0  0
 56 64  1  0  0  0  0
 57 64  1  0  0  0  0
 58 75  1  0  0  0  0
 59 60  1  0  0  0  0
 60 61  1  0  0  0  0
 61 83  1  0  0  0  0
 62 64  1  0  0  0  0
 62 73  1  0  0  0  0
 63 75  1  0  0  0  0
 65 66  1  0  0  0  0
M  CHG  1  75   1
M  ISO  4  41 100  61 101  74 100  83 101
M  END
> <Batch ID>
0094

> <Smiles>
C=C[100N:0](c1ccc(NC(=O)CC[101CH2:1][101O:1]c2ccc3c(c2)CN(C(=O)C(NC(=O)C(C)NC)C(C)(C)C)C(C(=O)NC2CCCc4ccccc42)C3)cc1F)[100C:0](=O)N1CCCC(n2nc(-c3ccc(Oc4ccc(F)cc4F)cc3)c(C(N)=O)c2N)C1

> <Shape>
0.282

> <Color>
0.068

> <Negative vol penalty>
0.000

$$$$

  -OEChem-04052300403D

 83 91  0     1  0  0  0  0  0999 V2000
  -27.4411  -20.8548   27.6778 C   0  0  0  0  0  0  0  0  0  0  0  0
  -27.7071  -21.9100   26.8126 C   0  0  0  0  0  0  0  0  0  0  0  0
  -27.5266  -12.3393   19.3258 C   0  0  0  0  0  0  0  0  0  0  0  0
  -26.5076  -12.8177   21.4635 C   0  0  0  0  0  0  0  0  0  0  0  0
  -30.7714  -21.0292   21.0962 C   0  0  0  0  0  0  0  0  0  0  0  0
  -26.1355  -20.3909   27.8246 C   0  0  0  0  0  0  0  0  0  0  0  0
  -26.6661  -22.5095   26.1028 C   0  0  0  0  0  0  0  0  0  0  0  0
  -27.7607  -26.5472   23.5140 C   0  0  0  0  0  0  0  0  0  0  0  0
  -27.0231  -11.0395   19.3767 C   0  0  0  0  0  0  0  0  0  0  0  0
  -26.0041  -11.5179   21.5144 C   0  0  0  0  0  0  0  0  0  0  0  0
  -30.3903  -21.8033   20.0003 C   0  0  0  0  0  0  0  0  0  0  0  0
  -28.5119  -26.5093   22.3401 C   0  0  0  0  0  0  0  0  0  0  0  0
  -23.4289   -9.7915   20.1695 C   0  0  0  0  0  0  0  0  0  0  0  0
  -22.0998   -9.6278   20.5596 C   0  0  0  0  0  0  0  0  0  0  0  0
  -28.7878  -21.7325   22.2828 C   0  0  0  0  0  0  0  0  0  0  0  0
  -26.4953  -26.7949   21.0475 C   0  0  0  0  0  0  0  0  0  0  0  0
  -22.8150   -8.2740   22.4285 C   0  0  0  0  0  0  0  0  0  0  0  0
  -27.2688  -13.2285   20.3693 C   0  0  0  0  0  0  0  0  0  0  0  0
  -29.9701  -20.9937   22.2375 C   0  0  0  0  0  0  0  0  0  0  0  0
  -27.1629  -15.7048   19.7656 C   0  0  0  0  0  0  0  0  0  0  0  0
  -25.0804  -20.9774   27.1064 C   0  0  0  0  0  0  0  0  0  0  0  0
  -26.3675  -26.6986   23.4629 C   0  0  0  0  0  0  0  0  0  0  0  0
  -25.3382  -22.0713   26.2553 C   0  0  0  0  0  0  0  0  0  0  0  0
  -25.7290  -26.8370   22.2222 C   0  0  0  0  0  0  0  0  0  0  0  0
  -28.4068  -22.5067   21.1868 C   0  0  0  0  0  0  0  0  0  0  0  0
  -26.2619  -10.6288   20.4710 C   0  0  0  0  0  0  0  0  0  0  0  0
  -27.8789  -26.6302   21.1065 C   0  0  0  0  0  0  0  0  0  0  0  0
  -29.2081  -22.5421   20.0456 C   0  0  0  0  0  0  0  0  0  0  0  0
  -24.4511   -9.1964   20.9089 C   0  0  0  0  0  0  0  0  0  0  0  0
  -21.7928   -8.8691   21.6891 C   0  0  0  0  0  0  0  0  0  0  0  0
  -24.1442   -8.4377   22.0384 C   0  0  0  0  0  0  0  0  0  0  0  0
  -27.7891  -14.5711   20.3175 C   0  0  0  0  0  0  0  0  0  0  0  0
  -28.0607  -16.7247   19.9662 C   0  0  0  0  0  0  0  0  0  0  0  0
  -30.3681  -20.1860   23.3796 C   0  0  0  0  0  0  0  0  0  0  0  0
  -25.8841  -15.8251   19.1286 C   0  0  0  0  0  0  0  0  0  0  0  0
  -31.6169  -19.3901   23.3634 C   0  0  0  0  0  0  0  0  0  0  0  0
  -23.8846  -24.9312   24.3657 C   0  0  0  0  0  0  0  0  0  0  0  0
  -22.1940  -27.5582   23.4921 C   0  0  0  0  0  0  0  0  0  0  0  0
  -22.0274  -30.4049   21.6171 C   0  0  0  0  0  0  0  0  0  0  0  0
  -23.6853  -20.4409   27.3092 C   0  0  0  0  0  0  0  0  0  0  0  0
  -25.5745  -26.7644   24.7393 C   0  0  0  0  0  0  0  0  0  0  0  0
  -24.2381  -27.0218   22.1139 C   0  0  0  0  0  0  0  0  0  0  0  0
  -22.7266  -20.8401   26.1921 C   0  0  0  0  0  0  0  0  0  0  0  0
  -32.8860  -16.6341   21.4527 C   0  0  0  0  0  0  0  0  0  0  0  0
  -22.8223  -22.3366   25.9352 C   0  0  0  0  0  0  0  0  0  0  0  0
  -31.6203  -15.9232   20.9749 C   0  0  0  0  0  0  0  0  0  0  0  0
  -32.6967  -17.2386   22.8402 C   0  0  0  0  0  0  0  0  0  0  0  0
  -30.2559  -17.4571   22.4618 C   0  0  0  0  0  0  0  0  0  0  0  0
  -24.2263  -22.7188   25.4499 C   0  0  1  0  0  0  0  0  0  0  0  0
  -24.1039  -26.4064   24.5482 C   0  0  1  0  0  0  0  0  0  0  0  0
  -30.3997  -16.8574   21.0521 C   0  0  2  0  0  0  0  0  0  0  0  0
  -20.5041  -32.3269   21.0850 C   0  0  0  0  0  0  0  0  0  0  0  0
  -20.5167  -25.7332   21.7128 C   0  0  0  0  0  0  0  0  0  0  0  0
  -19.6827  -27.7734   20.5253 C   0  0  0  0  0  0  0  0  0  0  0  0
  -19.2104  -27.4664   22.9554 C   0  0  0  0  0  0  0  0  0  0  0  0
  -23.9668  -32.3818   22.6606 C   0  0  0  0  0  0  0  0  0  0  0  0
  -28.9991  -25.4414   17.8749 C   0  0  0  0  0  0  0  0  0  0  0  0
  -27.9670  -26.0722   18.7964 C   0  0  0  0  0  0  0  0  0  1  0  0
  -29.7576  -24.3139   18.5575 C   0  0  0  0  0  0  0  0  0  0  0  0
  -21.5572  -28.0428   22.2120 C   0  0  1  0  0  0  0  0  0  0  0  0
  -21.6302  -31.8254   21.9757 C   0  0  2  0  0  0  0  0  0  0  0  0
  -20.2697  -27.2485   21.8530 C   0  0  0  0  0  0  0  0  0  0  0  0
  -28.9918  -14.8447   20.8301 N   0  0  0  0  0  0  0  0  0  0  0  0
  -29.6693  -20.1070   24.4797 N   0  0  0  0  0  0  0  0  0  0  0  0
  -29.1286  -16.1618   20.6011 N   0  0  0  0  0  0  0  0  0  0  0  0
  -31.5101  -18.0905   22.8883 N   0  0  0  0  0  0  0  0  0  0  0  0
  -23.5057  -27.0735   23.3900 N   0  0  0  0  0  0  0  0  0  0  0  0
  -27.2070  -23.2489   21.2457 N   0  0  0  0  0  0  0  0  0  0  0  0
  -28.0330  -18.0391   19.6597 N   0  0  0  0  0  0  0  0  0  0  0  0
  -25.0885  -14.6779   19.0053 N   0  0  0  0  0  0  0  0  0  0  0  0
  -24.3389  -24.1604   25.4188 N   0  0  0  0  0  0  0  0  0  0  0  0
  -21.3478  -29.4770   22.3777 N   0  0  0  0  0  0  0  0  0  0  0  0
  -22.7944  -32.7431   21.8228 N   0  3  0  0  0  0  0  0  0  0  0  0
  -25.4665  -16.9143   18.6674 O   0  0  0  0  0  0  0  0  0  0  0  0
  -32.6154  -19.9671   23.7737 O   0  0  0  0  0  0  0  0  0  0  0  0
  -23.3419  -24.5227   23.3458 O   0  0  0  0  0  0  0  0  0  0  0  0
  -21.5539  -27.6146   24.5450 O   0  0  0  0  0  0  0  0  0  0  0  0
  -22.8548  -30.1442   20.7464 O   0  0  0  0  0  0  0  0  0  0  0  0
  -25.7703   -9.3606   20.5208 O   0  0  0  0  0  0  0  0  0  0  0  0
  -28.6097  -26.5929   19.9592 O   0  0  0  0  0  0  0  0  0  1  0  0
  -28.8507  -23.2956   18.9578 O   0  0  0  0  0  0  0  0  0  0  0  0
  -20.5165   -8.7132   22.0644 F   0  0  0  0  0  0  0  0  0  0  0  0
  -25.1220   -7.8645   22.7534 F   0  0  0  0  0  0  0  0  0  0  0  0
  1  2  1  0  0  0  0
  1  6  2  0  0  0  0
  2  7  2  0  0  0  0
  3  9  2  0  0  0  0
  3 18  1  0  0  0  0
  4 10  1  0  0  0  0
  4 18  2  0  0  0  0
  5 11  2  0  0  0  0
  5 19  1  0  0  0  0
  6 21  1  0  0  0  0
  7 23  1  0  0  0  0
  8 12  2  0  0  0  0
  8 22  1  0  0  0  0
  9 26  1  0  0  0  0
 10 26  2  0  0  0  0
 11 28  1  0  0  0  0
 12 27  1  0  0  0  0
 13 14  2  0  0  0  0
 13 29  1  0  0  0  0
 14 30  1  0  0  0  0
 15 19  2  0  0  0  0
 15 25  1  0  0  0  0
 16 24  1  0  0  0  0
 16 27  2  0  0  0  0
 17 30  2  0  0  0  0
 17 31  1  0  0  0  0
 18 32  1  0  0  0  0
 19 34  1  0  0  0  0
 20 32  1  0  0  0  0
 20 33  2  0  0  0  0
 20 35  1  0  0  0  0
 21 23  2  0  0  0  0
 21 40  1  0  0  0  0
 22 24  2  0  0  0  0
 22 41  1  0  0  0  0
 23 49  1  0  0  0  0
 24 42  1  0  0  0  0
 25 28  2  0  0  0  0
 25 68  1  0  0  0  0
 26 79  1  0  0  0  0
 27 80  1  0  0  0  0
 28 81  1  0  0  0  0
 29 31  2  0  0  0  0
 29 79  1  0  0  0  0
 30 82  1  0  0  0  0
 31 83  1  0  0  0  0
 32 63  2  0  0  0  0
 33 65  1  0  0  0  0
 33 69  1  0  0  0  0
 34 36  1  0  0  0  0
 34 64  2  0  0  0  0
 35 70  1  0  0  0  0
 35 74  2  0  0  0  0
 36 66  1  0  0  0  0
 36 75  2  0  0  0  0
 37 50  1  0  0  0  0
 37 71  1  0  0  0  0
 37 76  2  0  0  0  0
 38 60  1  0  0  0  0
 38 67  1  0  0  0  0
 38 77  2  0  0  0  0
 39 61  1  0  0  0  0
 39 72  1  0  0  0  0
 39 78  2  0  0  0  0
 40 43  1  0  0  0  0
 41 50  1  0  0  0  0
 42 67  1  0  0  0  0
 43 45  1  0  0  0  0
 44 46  1  0  0  0  0
 44 47  1  0  0  0  0
 45 49  1  0  0  0  0
 46 51  1  0  0  0  0
 47 66  1  0  0  0  0
 48 51  1  0  0  0  0
 48 66  1  0  0  0  0
 49 71  1  0  0  0  0
 50 67  1  0  0  0  0
 51 65  1  0  0  0  0
 52 61  1  0  0  0  0
 53 62  1  0  0  0  0
 54 62  1  0  0  0  0
 55 62  1  0  0  0  0
 56 73  1  0  0  0  0
 57 58  1  0  0  0  0
 57 59  1  0  0  0  0
 58 80  1  0  0  0  0
 59 81  1  0  0  0  0
 60 62  1  0  0  0  0
 60 72  1  0  0  0  0
 61 73  1  0  0  0  0
 63 65  1  0  0  0  0
M  CHG  1  73   1
M  ISO  4  34 100  36 100  58 101  80 101
M  END
> <Batch ID>
0094

> <Smiles>
CNC(C)C(=O)NC(C(=O)N1Cc2cc([101O:1][101CH2:1]CCOc3ccc([100C:0](=N)[100C:0](=O)N4CCCC(n5nc(-c6ccc(Oc7ccc(F)cc7F)cc6)c(C(N)=O)c5N)C4)cc3N)ccc2CC1C(=O)NC1CCCc2ccccc21)C(C)(C)C

> <Shape>
0.230

> <Color>
0.072

> <Negative vol penalty>
0.000

$$$$

  -OEChem-04052300403D

 85 93  0     1  0  0  0  0  0999 V2000
  -17.4167  -12.2677   21.1143 C   0  0  0  0  0  0  0  0  0  0  0  0
  -18.0111  -13.5254   21.0952 C   0  0  0  0  0  0  0  0  0  0  0  0
  -29.5877  -23.5150   20.6225 C   0  0  0  0  0  0  0  0  0  0  0  0
  -28.2605  -23.4252   18.6057 C   0  0  0  0  0  0  0  0  0  0  0  0
  -18.0906  -11.1880   21.6835 C   0  0  0  0  0  0  0  0  0  0  0  0
  -19.2794  -13.7043   21.6464 C   0  0  0  0  0  0  0  0  0  0  0  0
  -23.6521  -17.5063   19.6639 C   0  0  0  0  0  0  0  0  0  0  0  0
  -29.5419  -22.1240   20.7146 C   0  0  0  0  0  0  0  0  0  0  0  0
  -28.2148  -22.0341   18.6977 C   0  0  0  0  0  0  0  0  0  0  0  0
  -24.0483  -18.7773   20.0777 C   0  0  0  0  0  0  0  0  0  0  0  0
  -28.0525  -18.4360   18.2023 C   0  0  0  0  0  0  0  0  0  0  0  0
  -28.2794  -17.7005   17.0391 C   0  0  0  0  0  0  0  0  0  0  0  0
  -25.7781  -17.7888   21.4377 C   0  0  0  0  0  0  0  0  0  0  0  0
  -22.9628  -25.4317   24.7968 C   0  0  0  0  0  0  0  0  0  0  0  0
  -24.1988  -24.1583   23.1574 C   0  0  0  0  0  0  0  0  0  0  0  0
  -30.4761  -18.6872   16.8437 C   0  0  0  0  0  0  0  0  0  0  0  0
  -28.9469  -24.1657   19.5680 C   0  0  0  0  0  0  0  0  0  0  0  0
  -29.9578  -26.3794   18.8032 C   0  0  0  0  0  0  0  0  0  0  0  0
  -19.3719  -11.3517   22.2333 C   0  0  0  0  0  0  0  0  0  0  0  0
  -24.3101  -16.3644   20.1432 C   0  0  0  0  0  0  0  0  0  0  0  0
  -19.9706  -12.6261   22.2247 C   0  0  0  0  0  0  0  0  0  0  0  0
  -25.3900  -16.5045   21.0265 C   0  0  0  0  0  0  0  0  0  0  0  0
  -23.7411  -25.3843   23.6403 C   0  0  0  0  0  0  0  0  0  0  0  0
  -22.6423  -24.2531   25.4706 C   0  0  0  0  0  0  0  0  0  0  0  0
  -23.1000  -23.0271   24.9877 C   0  0  0  0  0  0  0  0  0  0  0  0
  -28.8555  -21.3835   19.7523 C   0  0  0  0  0  0  0  0  0  0  0  0
  -25.1095  -18.9186   20.9670 C   0  0  0  0  0  0  0  0  0  0  0  0
  -29.0374  -19.2972   18.6863 C   0  0  0  0  0  0  0  0  0  0  0  0
  -23.8783  -22.9797   23.8311 C   0  0  0  0  0  0  0  0  0  0  0  0
  -29.4912  -17.8260   16.3598 C   0  0  0  0  0  0  0  0  0  0  0  0
  -30.2492  -19.4227   18.0070 C   0  0  0  0  0  0  0  0  0  0  0  0
  -28.9934  -25.6026   19.4726 C   0  0  0  0  0  0  0  0  0  0  0  0
  -29.5565  -27.6768   19.0084 C   0  0  0  0  0  0  0  0  0  0  0  0
  -31.1131  -25.9653   18.0619 C   0  0  0  0  0  0  0  0  0  0  0  0
  -23.4445  -13.8288   21.8535 C   0  0  0  0  0  0  0  0  0  0  0  0
  -26.4595  -12.8358   21.1855 C   0  0  0  0  0  0  0  0  0  0  0  0
  -23.2294  -27.7223   22.9546 C   0  0  0  0  0  0  0  0  0  0  0  0
  -29.6612  -13.6613   20.3402 C   0  0  0  0  0  0  0  0  0  0  0  0
  -25.4042  -26.7490   22.4913 C   0  0  0  0  0  0  0  0  0  0  0  0
  -20.0415  -10.1650   22.8798 C   0  0  0  0  0  0  0  0  0  0  0  0
  -23.8878  -15.0018   19.6663 C   0  0  0  0  0  0  0  0  0  0  0  0
  -26.1425  -15.3115   21.5546 C   0  0  0  0  0  0  0  0  0  0  0  0
  -21.5384  -10.3593   23.1069 C   0  0  0  0  0  0  0  0  0  0  0  0
  -25.3010  -28.3761   19.1776 C   0  0  0  0  0  0  0  0  0  0  0  0
  -21.8117  -11.7272   23.7241 C   0  0  0  0  0  0  0  0  0  0  0  0
  -26.5592  -29.2352   19.2125 C   0  0  0  0  0  0  0  0  0  0  0  0
  -24.6671  -28.2426   20.5583 C   0  0  0  0  0  0  0  0  0  0  0  0
  -26.8984  -28.5301   21.6302 C   0  0  0  0  0  0  0  0  0  0  0  0
  -21.3554  -12.8548   22.7904 C   0  0  1  0  0  0  0  0  0  0  0  0
  -24.2979  -13.8822   20.6179 C   0  0  1  0  0  0  0  0  0  0  0  0
  -27.5721  -28.7596   20.2652 C   0  0  1  0  0  0  0  0  0  0  0  0
  -21.7591  -27.4693   22.7003 C   0  0  0  0  0  0  0  0  0  0  0  0
  -32.0557  -13.3172   19.6729 C   0  0  0  0  0  0  0  0  0  0  0  0
  -26.8598  -12.4411   24.1845 C   0  0  0  0  0  0  0  0  0  0  0  0
  -29.3276  -12.3490   23.7724 C   0  0  0  0  0  0  0  0  0  0  0  0
  -27.8301  -10.6325   22.7556 C   0  0  0  0  0  0  0  0  0  0  0  0
  -28.9739  -13.6177   17.4619 C   0  0  0  0  0  0  0  0  0  0  0  0
  -26.0660  -20.2658   22.6776 C   0  0  0  0  0  0  0  0  0  1  0  0
  -25.7511  -21.6371   23.2432 C   0  0  0  0  0  0  0  0  0  0  0  0
  -27.8076  -12.9917   21.8469 C   0  0  1  0  0  0  0  0  0  0  0  0
  -30.6005  -13.1033   19.2863 C   0  0  2  0  0  0  0  0  0  0  0  0
  -27.9410  -12.1261   23.1316 C   0  0  0  0  0  0  0  0  0  0  0  0
  -28.0504  -26.3446   20.0595 N   0  0  0  0  0  0  0  0  0  0  0  0
  -28.4205  -27.6012   19.7594 N   0  0  0  0  0  0  0  0  0  0  0  0
  -25.6877  -14.0000   21.0637 N   0  0  0  0  0  0  0  0  0  0  0  0
  -25.6331  -27.7924   21.5687 N   0  0  0  0  0  0  0  0  0  0  0  0
  -21.8536  -24.3251   26.6409 N   0  0  0  0  0  0  0  0  0  0  0  0
  -22.7818  -21.8281   25.6673 N   0  0  0  0  0  0  0  0  0  0  0  0
  -30.0680  -28.8636   18.6180 N   0  0  0  0  0  0  0  0  0  0  0  0
  -31.3784  -24.5937   17.9494 N   0  0  0  0  0  0  0  0  0  0  0  0
  -22.3135  -13.0457   21.7227 N   0  0  0  0  0  0  0  0  0  0  0  0
  -28.8021  -12.6960   20.8212 N   0  0  0  0  0  0  0  0  0  0  0  0
  -24.0741  -26.6037   22.9445 N   0  0  0  0  0  0  0  0  0  0  0  0
  -30.3602  -13.7679   17.9742 N   0  3  0  0  0  0  0  0  0  0  0  0
  -31.8963  -26.7877   17.5294 O   0  0  0  0  0  0  0  0  0  0  0  0
  -23.7876  -14.4508   22.8520 O   0  0  0  0  0  0  0  0  0  0  0  0
  -26.1074  -11.7235   20.7851 O   0  0  0  0  0  0  0  0  0  0  0  0
  -23.6304  -28.8785   23.1147 O   0  0  0  0  0  0  0  0  0  0  0  0
  -29.6895  -14.8351   20.7034 O   0  0  0  0  0  0  0  0  0  0  0  0
  -26.3167  -26.0396   22.9328 O   0  0  0  0  0  0  0  0  0  0  0  0
  -28.8109  -20.0261   19.8417 O   0  0  0  0  0  0  0  0  0  0  0  0
  -25.4978  -20.1580   21.3730 O   0  0  0  0  0  0  0  0  0  1  0  0
  -24.3399  -21.7869   23.3401 O   0  0  0  0  0  0  0  0  0  0  0  0
  -29.7095  -17.1185   15.2436 F   0  0  0  0  0  0  0  0  0  0  0  0
  -31.1995  -20.2475   18.4677 F   0  0  0  0  0  0  0  0  0  0  0  0
  1  2  1  0  0  0  0
  1  5  2  0  0  0  0
  2  6  2  0  0  0  0
  3  8  2  0  0  0  0
  3 17  1  0  0  0  0
  4  9  1  0  0  0  0
  4 17  2  0  0  0  0
  5 19  1  0  0  0  0
  6 21  1  0  0  0  0
  7 10  2  0  0  0  0
  7 20  1  0  0  0  0
  8 26  1  0  0  0  0
  9 26  2  0  0  0  0
 10 27  1  0  0  0  0
 11 12  2  0  0  0  0
 11 28  1  0  0  0  0
 12 30  1  0  0  0  0
 13 22  1  0  0  0  0
 13 27  2  0  0  0  0
 14 23  1  0  0  0  0
 14 24  2  0  0  0  0
 15 23  2  0  0  0  0
 15 29  1  0  0  0  0
 16 30  2  0  0  0  0
 16 31  1  0  0  0  0
 17 32  1  0  0  0  0
 18 32  1  0  0  0  0
 18 33  2  0  0  0  0
 18 34  1  0  0  0  0
 19 21  2  0  0  0  0
 19 40  1  0  0  0  0
 20 22  2  0  0  0  0
 20 41  1  0  0  0  0
 21 49  1  0  0  0  0
 22 42  1  0  0  0  0
 23 73  1  0  0  0  0
 24 25  1  0  0  0  0
 24 67  1  0  0  0  0
 25 29  2  0  0  0  0
 25 68  1  0  0  0  0
 26 81  1  0  0  0  0
 27 82  1  0  0  0  0
 28 31  2  0  0  0  0
 28 81  1  0  0  0  0
 29 83  1  0  0  0  0
 30 84  1  0  0  0  0
 31 85  1  0  0  0  0
 32 63  2  0  0  0  0
 33 64  1  0  0  0  0
 33 69  1  0  0  0  0
 34 70  1  0  0  0  0
 34 75  2  0  0  0  0
 35 50  1  0  0  0  0
 35 71  1  0  0  0  0
 35 76  2  0  0  0  0
 36 60  1  0  0  0  0
 36 65  1  0  0  0  0
 36 77  2  0  0  0  0
 37 52  1  0  0  0  0
 37 73  1  0  0  0  0
 37 78  2  0  0  0  0
 38 61  1  0  0  0  0
 38 72  1  0  0  0  0
 38 79  2  0  0  0  0
 39 66  1  0  0  0  0
 39 73  1  0  0  0  0
 39 80  2  0  0  0  0
 40 43  1  0  0  0  0
 41 50  1  0  0  0  0
 42 65  1  0  0  0  0
 43 45  1  0  0  0  0
 44 46  1  0  0  0  0
 44 47  1  0  0  0  0
 45 49  1  0  0  0  0
 46 51  1  0  0  0  0
 47 66  1  0  0  0  0
 48 51  1  0  0  0  0
 48 66  1  0  0  0  0
 49 71  1  0  0  0  0
 50 65  1  0  0  0  0
 51 64  1  0  0  0  0
 53 61  1  0  0  0  0
 54 62  1  0  0  0  0
 55 62  1  0  0  0  0
 56 62  1  0  0  0  0
 57 74  1  0  0  0  0
 58 59  1  0  0  0  0
 58 82  1  0  0  0  0
 59 83  1  0  0  0  0
 60 62  1  0  0  0  0
 60 72  1  0  0  0  0
 61 74  1  0  0  0  0
 63 64  1  0  0  0  0
M  CHG  1  74   1
M  ISO  4  39 100  58 101  73 100  82 101
M  END
> <Batch ID>
0094

> <Smiles>
CNC(C)C(=O)NC(C(=O)N1Cc2cc([101O:1][101CH2:1]COc3cc([100N:0](C(C)=O)[100C:0](=O)N4CCCC(n5nc(-c6ccc(Oc7ccc(F)cc7F)cc6)c(C(N)=O)c5N)C4)cc(N)c3N)ccc2CC1C(=O)NC1CCCc2ccccc21)C(C)(C)C

> <Shape>
0.211

> <Color>
0.091

> <Negative vol penalty>
0.000

$$$$

  -OEChem-04052300403D

 86 95  0     1  0  0  0  0  0999 V2000
  -29.4936  -36.3718   23.9082 C   0  0  0  0  0  0  0  0  0  0  0  0
  -29.7117  -35.4537   22.8859 C   0  0  0  0  0  0  0  0  0  0  0  0
  -22.9674  -16.5158   21.2015 C   0  0  0  0  0  0  0  0  0  0  0  0
  -22.2637  -15.3167   19.2257 C   0  0  0  0  0  0  0  0  0  0  0  0
  -28.7997  -35.9856   25.0541 C   0  0  0  0  0  0  0  0  0  0  0  0
  -29.2368  -34.1485   23.0095 C   0  0  0  0  0  0  0  0  0  0  0  0
  -26.6513  -28.7520   19.0713 C   0  0  0  0  0  0  0  0  0  0  0  0
  -28.4235  -19.7256   20.4939 C   0  0  0  0  0  0  0  0  0  0  0  0
  -29.3498  -19.1994   18.3255 C   0  0  0  0  0  0  0  0  0  0  0  0
  -29.0408  -18.5963   21.0317 C   0  0  0  0  0  0  0  0  0  0  0  0
  -29.9671  -18.0701   18.8632 C   0  0  0  0  0  0  0  0  0  0  0  0
  -21.8934  -17.3931   21.0516 C   0  0  0  0  0  0  0  0  0  0  0  0
  -21.1896  -16.1939   19.0758 C   0  0  0  0  0  0  0  0  0  0  0  0
  -26.8607  -27.3939   18.8357 C   0  0  0  0  0  0  0  0  0  0  0  0
  -21.1177  -20.0788   19.1518 C   0  0  0  0  0  0  0  0  0  0  0  0
  -21.3699  -21.4424   19.3018 C   0  0  0  0  0  0  0  0  0  0  0  0
  -25.6061  -26.8613   20.8261 C   0  0  0  0  0  0  0  0  0  0  0  0
  -26.6659  -22.4512   17.3403 C   0  0  0  0  0  0  0  0  0  0  0  0
  -19.7960  -21.5320   21.1327 C   0  0  0  0  0  0  0  0  0  0  0  0
  -23.1527  -15.4777   20.2884 C   0  0  0  0  0  0  0  0  0  0  0  0
  -24.2805  -13.3652   21.1678 C   0  0  0  0  0  0  0  0  0  0  0  0
  -28.3077  -34.6776   25.1876 C   0  0  0  0  0  0  0  0  0  0  0  0
  -25.9258  -29.1761   20.1940 C   0  0  0  0  0  0  0  0  0  0  0  0
  -28.5368  -33.7440   24.1589 C   0  0  0  0  0  0  0  0  0  0  0  0
  -25.3868  -28.2253   21.0723 C   0  0  0  0  0  0  0  0  0  0  0  0
  -27.3882  -23.2751   18.2384 C   0  0  0  0  0  0  0  0  0  0  0  0
  -28.5779  -20.0272   19.1408 C   0  0  0  0  0  0  0  0  0  0  0  0
  -29.8126  -17.7686   20.2164 C   0  0  0  0  0  0  0  0  0  0  0  0
  -21.0044  -17.2321   19.9889 C   0  0  0  0  0  0  0  0  0  0  0  0
  -26.3405  -26.4484   19.7147 C   0  0  0  0  0  0  0  0  0  0  0  0
  -20.2047  -19.4417   19.9922 C   0  0  0  0  0  0  0  0  0  0  0  0
  -20.7090  -22.1691   20.2922 C   0  0  0  0  0  0  0  0  0  0  0  0
  -19.5439  -20.1684   20.9826 C   0  0  0  0  0  0  0  0  0  0  0  0
  -24.2623  -14.5715   20.4423 C   0  0  0  0  0  0  0  0  0  0  0  0
  -28.1803  -22.4507   19.0065 C   0  0  0  0  0  0  0  0  0  0  0  0
  -25.5568  -12.8850   21.0036 C   0  0  0  0  0  0  0  0  0  0  0  0
  -27.0384  -21.1483   17.5872 C   0  0  0  0  0  0  0  0  0  0  0  0
  -23.2370  -12.7350   21.9225 C   0  0  0  0  0  0  0  0  0  0  0  0
  -26.5850  -30.9375   22.7565 C   0  0  0  0  0  0  0  0  0  0  0  0
  -23.4084  -30.6031   23.3219 C   0  0  0  0  0  0  0  0  0  0  0  0
  -20.5531  -28.7985   22.8344 C   0  0  0  0  0  0  0  0  0  0  0  0
  -30.6861  -15.4498   19.9888 C   0  0  0  0  0  0  0  0  0  0  0  0
  -27.6044  -34.2935   26.4653 C   0  0  0  0  0  0  0  0  0  0  0  0
  -25.6860  -30.6437   20.4195 C   0  0  0  0  0  0  0  0  0  0  0  0
  -24.5835  -28.6279   22.2811 C   0  0  0  0  0  0  0  0  0  0  0  0
  -26.8083  -32.9956   26.3559 C   0  0  0  0  0  0  0  0  0  0  0  0
  -29.2215  -12.9397   17.9401 C   0  0  0  0  0  0  0  0  0  0  0  0
  -27.6409  -31.9145   25.6741 C   0  0  0  0  0  0  0  0  0  0  0  0
  -27.7703  -12.9658   18.4188 C   0  0  0  0  0  0  0  0  0  0  0  0
  -29.8242  -14.3428   17.8632 C   0  0  0  0  0  0  0  0  0  0  0  0
  -28.2526  -15.1445   19.5986 C   0  0  0  0  0  0  0  0  0  0  0  0
  -28.0157  -32.3259   24.2452 C   0  0  1  0  0  0  0  0  0  0  0  0
  -25.3701  -30.9811   21.8734 C   0  0  1  0  0  0  0  0  0  0  0  0
  -27.6388  -13.7429   19.7406 C   0  0  1  0  0  0  0  0  0  0  0  0
  -29.1273  -22.7935   20.0915 C   0  0  0  0  0  0  0  0  0  0  0  0
  -18.1218  -28.7525   23.4542 C   0  0  0  0  0  0  0  0  0  0  0  0
  -24.1386  -29.5726   26.0995 C   0  0  0  0  0  0  0  0  0  0  0  0
  -21.8116  -28.6709   26.3004 C   0  0  0  0  0  0  0  0  0  0  0  0
  -22.1786  -31.1250   26.0447 C   0  0  0  0  0  0  0  0  0  0  0  0
  -31.0713  -16.7051   22.0986 C   0  0  0  0  0  0  0  0  0  0  0  0
  -19.7086  -29.0430   20.0084 C   0  0  0  0  0  0  0  0  0  0  0  0
  -27.2995  -24.7702   18.3291 C   0  0  0  0  0  0  0  0  0  1  0  0
  -22.5537  -29.6023   24.0615 C   0  0  1  0  0  0  0  0  0  0  0  0
  -19.1503  -29.2206   22.4365 C   0  0  2  0  0  0  0  0  0  0  0  0
  -22.6874  -29.7349   25.6049 C   0  0  0  0  0  0  0  0  0  0  0  0
  -25.4341  -14.8412   19.8607 N   0  0  0  0  0  0  0  0  0  0  0  0
  -27.9592  -21.1600   18.6022 N   0  0  0  0  0  0  0  0  0  0  0  0
  -26.2005  -13.7975   20.2206 N   0  0  0  0  0  0  0  0  0  0  0  0
  -24.3817  -30.0750   22.4619 N   0  0  0  0  0  0  0  0  0  0  0  0
  -29.6389  -15.0598   19.1327 N   0  0  0  0  0  0  0  0  0  0  0  0
  -26.1800  -11.7755   21.4541 N   0  0  0  0  0  0  0  0  0  0  0  0
  -21.9861  -13.3639   21.9872 N   0  0  0  0  0  0  0  0  0  0  0  0
  -26.8888  -32.1453   23.3552 N   0  0  0  0  0  0  0  0  0  0  0  0
  -21.1943  -29.7785   23.5621 N   0  0  0  0  0  0  0  0  0  0  0  0
  -30.4506  -16.5991   20.7737 N   0  0  0  0  0  0  0  0  0  0  0  0
  -18.7932  -28.6454   21.1088 N   0  3  0  0  0  0  0  0  0  0  0  0
  -23.4135  -11.6548   22.5352 O   0  0  0  0  0  0  0  0  0  0  0  0
  -27.2002  -29.8857   22.8862 O   0  0  0  0  0  0  0  0  0  0  0  0
  -23.2146  -31.8089   23.4952 O   0  0  0  0  0  0  0  0  0  0  0  0
  -21.0309  -27.7069   22.5331 O   0  0  0  0  0  0  0  0  0  0  0  0
  -31.7396  -14.8063   20.0657 O   0  0  0  0  0  0  0  0  0  0  0  0
  -26.6459  -20.0171   17.0135 O   0  0  0  0  0  0  0  0  0  0  0  0
  -19.9561  -18.0877   19.8425 O   0  0  0  0  0  0  0  0  0  0  0  0
  -26.5440  -25.1222   19.4874 O   0  0  0  0  0  0  0  0  0  1  0  0
  -20.9524  -23.4782   20.4372 F   0  0  0  0  0  0  0  0  0  0  0  0
  -18.6666  -19.5616   21.7938 F   0  0  0  0  0  0  0  0  0  0  0  0
  1  2  1  0  0  0  0
  1  5  2  0  0  0  0
  2  6  2  0  0  0  0
  3 12  2  0  0  0  0
  3 20  1  0  0  0  0
  4 13  1  0  0  0  0
  4 20  2  0  0  0  0
  5 22  1  0  0  0  0
  6 24  1  0  0  0  0
  7 14  2  0  0  0  0
  7 23  1  0  0  0  0
  8 10  2  0  0  0  0
  8 27  1  0  0  0  0
  9 11  1  0  0  0  0
  9 27  2  0  0  0  0
 10 28  1  0  0  0  0
 11 28  2  0  0  0  0
 12 29  1  0  0  0  0
 13 29  2  0  0  0  0
 14 30  1  0  0  0  0
 15 16  2  0  0  0  0
 15 31  1  0  0  0  0
 16 32  1  0  0  0  0
 17 25  1  0  0  0  0
 17 30  2  0  0  0  0
 18 26  1  0  0  0  0
 18 37  2  0  0  0  0
 19 32  2  0  0  0  0
 19 33  1  0  0  0  0
 20 34  1  0  0  0  0
 21 34  1  0  0  0  0
 21 36  2  0  0  0  0
 21 38  1  0  0  0  0
 22 24  2  0  0  0  0
 22 43  1  0  0  0  0
 23 25  2  0  0  0  0
 23 44  1  0  0  0  0
 24 52  1  0  0  0  0
 25 45  1  0  0  0  0
 26 35  2  0  0  0  0
 26 62  1  0  0  0  0
 27 67  1  0  0  0  0
 28 75  1  0  0  0  0
 29 83  1  0  0  0  0
 30 84  1  0  0  0  0
 31 33  2  0  0  0  0
 31 83  1  0  0  0  0
 32 85  1  0  0  0  0
 33 86  1  0  0  0  0
 34 66  2  0  0  0  0
 35 55  1  0  0  0  0
 35 67  1  0  0  0  0
 36 68  1  0  0  0  0
 36 71  1  0  0  0  0
 37 67  1  0  0  0  0
 37 82  1  0  0  0  0
 38 72  1  0  0  0  0
 38 77  2  0  0  0  0
 39 53  1  0  0  0  0
 39 73  1  0  0  0  0
 39 78  2  0  0  0  0
 40 63  1  0  0  0  0
 40 69  1  0  0  0  0
 40 79  2  0  0  0  0
 41 64  1  0  0  0  0
 41 74  1  0  0  0  0
 41 80  2  0  0  0  0
 42 70  1  0  0  0  0
 42 75  1  0  0  0  0
 42 81  2  0  0  0  0
 43 46  1  0  0  0  0
 44 53  1  0  0  0  0
 45 69  1  0  0  0  0
 46 48  1  0  0  0  0
 47 49  1  0  0  0  0
 47 50  1  0  0  0  0
 48 52  1  0  0  0  0
 49 54  1  0  0  0  0
 50 70  1  0  0  0  0
 51 54  1  0  0  0  0
 51 70  1  0  0  0  0
 52 73  1  0  0  0  0
 53 69  1  0  0  0  0
 54 68  1  0  0  0  0
 56 64  1  0  0  0  0
 57 65  1  0  0  0  0
 58 65  1  0  0  0  0
 59 65  1  0  0  0  0
 60 75  1  0  0  0  0
 61 76  1  0  0  0  0
 62 84  1  0  0  0  0
 63 65  1  0  0  0  0
 63 74  1  0  0  0  0
 64 76  1  0  0  0  0
 66 68  1  0  0  0  0
M  CHG  1  76   1
M  ISO  4  42 100  62 101  75 100  84 101
M  END
> <Batch ID>
0094

> <Smiles>
CNC(C)C(=O)NC(C(=O)N1Cc2cc([101O:1][101CH2:1]C3=C(C)N(c4ccc([100N:0](C)[100C:0](=O)N5CCCC(n6nc(-c7ccc(Oc8ccc(F)cc8F)cc7)c(C(N)=O)c6N)C5)cc4)C(=O)C3)ccc2CC1C(=O)NC1CCCc2ccccc21)C(C)(C)C

> <Shape>
0.289

> <Color>
0.106

> <Negative vol penalty>
0.000

$$$$

  -OEChem-04052300403D

 85 93  0     1  0  0  0  0  0999 V2000
  -29.2617  -28.6543   14.2256 C   0  0  0  0  0  0  0  0  0  0  0  0
  -29.0464  -27.5122   14.9903 C   0  0  0  0  0  0  0  0  0  0  0  0
  -23.2900   -9.7452   19.8984 C   0  0  0  0  0  0  0  0  0  0  0  0
  -23.7141   -9.8853   22.2728 C   0  0  0  0  0  0  0  0  0  0  0  0
  -29.8847  -28.5524   12.9825 C   0  0  0  0  0  0  0  0  0  0  0  0
  -29.4532  -26.2672   14.5116 C   0  0  0  0  0  0  0  0  0  0  0  0
  -31.8012  -23.5004   18.0439 C   0  0  0  0  0  0  0  0  0  0  0  0
  -22.5773   -8.5625   20.0954 C   0  0  0  0  0  0  0  0  0  0  0  0
  -23.0014   -8.7025   22.4698 C   0  0  0  0  0  0  0  0  0  0  0  0
  -31.0000  -22.8660   18.9923 C   0  0  0  0  0  0  0  0  0  0  0  0
  -20.9872   -5.9120   23.6419 C   0  0  0  0  0  0  0  0  0  0  0  0
  -20.0749   -5.8716   24.6963 C   0  0  0  0  0  0  0  0  0  0  0  0
  -29.8192  -13.6621   24.9494 C   0  0  0  0  0  0  0  0  0  0  0  0
  -30.1196  -15.0781   23.0151 C   0  0  0  0  0  0  0  0  0  0  0  0
  -31.1991  -20.7972   17.7677 C   0  0  0  0  0  0  0  0  0  0  0  0
  -18.8510   -7.7051   23.7076 C   0  0  0  0  0  0  0  0  0  0  0  0
  -23.8585  -10.4066   20.9871 C   0  0  0  0  0  0  0  0  0  0  0  0
  -30.1908  -13.8205   23.6143 C   0  0  0  0  0  0  0  0  0  0  0  0
  -24.0859  -12.9404   20.7979 C   0  0  0  0  0  0  0  0  0  0  0  0
  -30.3080  -27.3068   12.4927 C   0  0  0  0  0  0  0  0  0  0  0  0
  -32.2991  -22.7894   16.9426 C   0  0  0  0  0  0  0  0  0  0  0  0
  -30.0813  -26.1484   13.2602 C   0  0  0  0  0  0  0  0  0  0  0  0
  -32.0084  -21.4243   16.8081 C   0  0  0  0  0  0  0  0  0  0  0  0
  -29.3763  -14.7612   25.6853 C   0  0  0  0  0  0  0  0  0  0  0  0
  -29.6767  -16.1773   23.7510 C   0  0  0  0  0  0  0  0  0  0  0  0
  -29.3051  -16.0188   25.0861 C   0  0  0  0  0  0  0  0  0  0  0  0
  -22.4330   -8.0412   21.3811 C   0  0  0  0  0  0  0  0  0  0  0  0
  -30.6965  -21.5149   18.8527 C   0  0  0  0  0  0  0  0  0  0  0  0
  -20.8314   -6.8489   22.6203 C   0  0  0  0  0  0  0  0  0  0  0  0
  -19.0069   -6.7682   24.7292 C   0  0  0  0  0  0  0  0  0  0  0  0
  -19.7633   -7.7455   22.6532 C   0  0  0  0  0  0  0  0  0  0  0  0
  -24.5953  -11.6281   20.7841 C   0  0  0  0  0  0  0  0  0  0  0  0
  -25.1794  -13.7357   20.5566 C   0  0  0  0  0  0  0  0  0  0  0  0
  -30.6525  -12.6746   22.8470 C   0  0  0  0  0  0  0  0  0  0  0  0
  -22.7443  -13.3995   21.0101 C   0  0  0  0  0  0  0  0  0  0  0  0
  -31.0545  -12.8082   21.4279 C   0  0  0  0  0  0  0  0  0  0  0  0
  -31.9592  -23.0106   13.7899 C   0  0  0  0  0  0  0  0  0  0  0  0
  -29.7891  -19.1124   21.4155 C   0  0  0  0  0  0  0  0  0  0  0  0
  -34.2159  -20.6804   13.7745 C   0  0  0  0  0  0  0  0  0  0  0  0
  -35.7482  -18.1203   15.4312 C   0  0  0  0  0  0  0  0  0  0  0  0
  -30.9345  -27.2405   11.1224 C   0  0  0  0  0  0  0  0  0  0  0  0
  -33.1839  -23.4819   15.9426 C   0  0  0  0  0  0  0  0  0  0  0  0
  -32.5350  -20.6112   15.6548 C   0  0  0  0  0  0  0  0  0  0  0  0
  -31.6726  -25.9317   10.8528 C   0  0  0  0  0  0  0  0  0  0  0  0
  -29.4241  -13.7211   18.3677 C   0  0  0  0  0  0  0  0  0  0  0  0
  -30.8213  -24.7407   11.2811 C   0  0  0  0  0  0  0  0  0  0  0  0
  -27.9597  -13.3704   18.6296 C   0  0  0  0  0  0  0  0  0  0  0  0
  -30.3653  -12.7434   19.0637 C   0  0  0  0  0  0  0  0  0  0  0  0
  -28.6622  -12.2713   20.8031 C   0  0  0  0  0  0  0  0  0  0  0  0
  -30.5305  -24.7832   12.7862 C   0  0  1  0  0  0  0  0  0  0  0  0
  -33.2130  -22.7840   14.5863 C   0  0  1  0  0  0  0  0  0  0  0  0
  -27.6814  -13.2532   20.1388 C   0  0  2  0  0  0  0  0  0  0  0  0
  -37.5313  -16.3776   15.1468 C   0  0  0  0  0  0  0  0  0  0  0  0
  -32.3286  -19.0377   12.0282 C   0  0  0  0  0  0  0  0  0  0  0  0
  -33.7040  -17.0158   12.5650 C   0  0  0  0  0  0  0  0  0  0  0  0
  -34.7332  -18.9352   11.3487 C   0  0  0  0  0  0  0  0  0  0  0  0
  -37.3391  -19.2158   17.6734 C   0  0  0  0  0  0  0  0  0  0  0  0
  -29.9823  -17.6511   21.7610 C   0  0  0  0  0  0  0  0  0  0  0  0
  -30.1469  -19.5024   19.9945 C   0  0  0  0  0  0  0  0  0  1  0  0
  -34.1946  -19.1713   13.8076 C   0  0  1  0  0  0  0  0  0  0  0  0
  -37.2151  -17.7844   15.6303 C   0  0  2  0  0  0  0  0  0  0  0  0
  -33.7284  -18.5555   12.4582 C   0  0  0  0  0  0  0  0  0  0  0  0
  -25.9100  -11.5877   20.5522 N   0  0  0  0  0  0  0  0  0  0  0  0
  -30.7463  -11.4705   23.3434 N   0  0  0  0  0  0  0  0  0  0  0  0
  -26.2360  -12.8846   20.4179 N   0  0  0  0  0  0  0  0  0  0  0  0
  -30.0508  -12.6287   20.4864 N   0  0  0  0  0  0  0  0  0  0  0  0
  -33.3906  -21.3349   14.7000 N   0  0  0  0  0  0  0  0  0  0  0  0
  -29.0051  -14.5765   27.0362 N   0  0  0  0  0  0  0  0  0  0  0  0
  -28.8556  -17.1342   25.8329 N   0  0  0  0  0  0  0  0  0  0  0  0
  -25.3305  -15.0731   20.4514 N   0  0  0  0  0  0  0  0  0  0  0  0
  -21.7419  -12.4484   21.2444 N   0  0  0  0  0  0  0  0  0  0  0  0
  -29.6140  -17.4186   23.1341 N   0  0  0  0  0  0  0  0  0  0  0  0
  -31.6862  -24.3414   13.5369 N   0  0  0  0  0  0  0  0  0  0  0  0
  -35.5282  -18.7533   14.2262 N   0  0  0  0  0  0  0  0  0  0  0  0
  -37.5768  -17.8779   17.0730 N   0  3  0  0  0  0  0  0  0  0  0  0
  -22.4404  -14.6160   20.9760 O   0  0  0  0  0  0  0  0  0  0  0  0
  -32.2362  -13.0637   21.2363 O   0  0  0  0  0  0  0  0  0  0  0  0
  -31.2898  -22.0492   13.4303 O   0  0  0  0  0  0  0  0  0  0  0  0
  -29.3706  -19.9380   22.2261 O   0  0  0  0  0  0  0  0  0  0  0  0
  -34.9435  -21.2573   12.9625 O   0  0  0  0  0  0  0  0  0  0  0  0
  -34.8834  -17.8450   16.2600 O   0  0  0  0  0  0  0  0  0  0  0  0
  -21.7374   -6.8872   21.5738 O   0  0  0  0  0  0  0  0  0  0  0  0
  -29.9142  -20.8933   19.7767 O   0  0  0  0  0  0  0  0  0  1  0  0
  -18.1301   -6.7283   25.7410 F   0  0  0  0  0  0  0  0  0  0  0  0
  -19.6077   -8.6471   21.6740 F   0  0  0  0  0  0  0  0  0  0  0  0
  1  2  1  0  0  0  0
  1  5  2  0  0  0  0
  2  6  2  0  0  0  0
  3  8  2  0  0  0  0
  3 17  1  0  0  0  0
  4  9  1  0  0  0  0
  4 17  2  0  0  0  0
  5 20  1  0  0  0  0
  6 22  1  0  0  0  0
  7 10  2  0  0  0  0
  7 21  1  0  0  0  0
  8 27  1  0  0  0  0
  9 27  2  0  0  0  0
 10 28  1  0  0  0  0
 11 12  2  0  0  0  0
 11 29  1  0  0  0  0
 12 30  1  0  0  0  0
 13 18  1  0  0  0  0
 13 24  2  0  0  0  0
 14 18  2  0  0  0  0
 14 25  1  0  0  0  0
 15 23  1  0  0  0  0
 15 28  2  0  0  0  0
 16 30  2  0  0  0  0
 16 31  1  0  0  0  0
 17 32  1  0  0  0  0
 18 34  1  0  0  0  0
 19 32  1  0  0  0  0
 19 33  2  0  0  0  0
 19 35  1  0  0  0  0
 20 22  2  0  0  0  0
 20 41  1  0  0  0  0
 21 23  2  0  0  0  0
 21 42  1  0  0  0  0
 22 50  1  0  0  0  0
 23 43  1  0  0  0  0
 24 26  1  0  0  0  0
 24 68  1  0  0  0  0
 25 26  2  0  0  0  0
 25 72  1  0  0  0  0
 26 69  1  0  0  0  0
 27 82  1  0  0  0  0
 28 83  1  0  0  0  0
 29 31  2  0  0  0  0
 29 82  1  0  0  0  0
 30 84  1  0  0  0  0
 31 85  1  0  0  0  0
 32 63  2  0  0  0  0
 33 65  1  0  0  0  0
 33 70  1  0  0  0  0
 34 36  1  0  0  0  0
 34 64  2  0  0  0  0
 35 71  1  0  0  0  0
 35 76  2  0  0  0  0
 36 66  1  0  0  0  0
 36 77  2  0  0  0  0
 37 51  1  0  0  0  0
 37 73  1  0  0  0  0
 37 78  2  0  0  0  0
 38 58  1  0  0  0  0
 38 59  1  0  0  0  0
 38 79  2  0  0  0  0
 39 60  1  0  0  0  0
 39 67  1  0  0  0  0
 39 80  2  0  0  0  0
 40 61  1  0  0  0  0
 40 74  1  0  0  0  0
 40 81  2  0  0  0  0
 41 44  1  0  0  0  0
 42 51  1  0  0  0  0
 43 67  1  0  0  0  0
 44 46  1  0  0  0  0
 45 47  1  0  0  0  0
 45 48  1  0  0  0  0
 46 50  1  0  0  0  0
 47 52  1  0  0  0  0
 48 66  1  0  0  0  0
 49 52  1  0  0  0  0
 49 66  1  0  0  0  0
 50 73  1  0  0  0  0
 51 67  1  0  0  0  0
 52 65  1  0  0  0  0
 53 61  1  0  0  0  0
 54 62  1  0  0  0  0
 55 62  1  0  0  0  0
 56 62  1  0  0  0  0
 57 75  1  0  0  0  0
 58 72  1  0  0  0  0
 59 83  1  0  0  0  0
 60 62  1  0  0  0  0
 60 74  1  0  0  0  0
 61 75  1  0  0  0  0
 63 65  1  0  0  0  0
M  CHG  1  75   1
M  ISO  4  34 100  36 100  59 101  83 101
M  END
> <Batch ID>
0094

> <Smiles>
CNC(C)C(=O)NC(C(=O)N1Cc2cc([101O:1][101CH2:1]C(=O)CNc3cc([100C:0](=N)[100C:0](=O)N4CCCC(n5nc(-c6ccc(Oc7ccc(F)cc7F)cc6)c(C(N)=O)c5N)C4)cc(N)c3N)ccc2CC1C(=O)NC1CCCc2ccccc21)C(C)(C)C

> <Shape>
0.169

> <Color>
0.169

> <Negative vol penalty>
0.000

$$$$

  -OEChem-04052300403D

 83 91  0     1  0  0  0  0  0999 V2000
  -32.1314  -34.7767   22.5567 C   0  0  0  0  0  0  0  0  0  0  0  0
  -31.8307  -33.4375   22.3299 C   0  0  0  0  0  0  0  0  0  0  0  0
  -23.8928   -9.7848   22.0273 C   0  0  0  0  0  0  0  0  0  0  0  0
  -24.4849  -11.2505   23.8545 C   0  0  0  0  0  0  0  0  0  0  0  0
  -28.7859  -20.5319   20.0759 C   0  0  0  0  0  0  0  0  0  0  0  0
  -31.3189  -35.5403   23.3938 C   0  0  0  0  0  0  0  0  0  0  0  0
  -30.7178  -32.8607   22.9409 C   0  0  0  0  0  0  0  0  0  0  0  0
  -28.0085  -30.0106   19.7501 C   0  0  0  0  0  0  0  0  0  0  0  0
  -28.4834  -19.1858   19.8702 C   0  0  0  0  0  0  0  0  0  0  0  0
  -23.4303   -8.8355   22.9387 C   0  0  0  0  0  0  0  0  0  0  0  0
  -24.0223  -10.3012   24.7658 C   0  0  0  0  0  0  0  0  0  0  0  0
  -28.4992  -28.7384   19.4594 C   0  0  0  0  0  0  0  0  0  0  0  0
  -20.6715   -8.3333   24.8279 C   0  0  0  0  0  0  0  0  0  0  0  0
  -19.4459   -7.7227   24.5621 C   0  0  0  0  0  0  0  0  0  0  0  0
  -26.9486  -27.7852   21.0426 C   0  0  0  0  0  0  0  0  0  0  0  0
  -30.8390  -18.6864   19.6740 C   0  0  0  0  0  0  0  0  0  0  0  0
  -20.5328   -5.5656   24.5059 C   0  0  0  0  0  0  0  0  0  0  0  0
  -24.4202  -10.9923   22.4852 C   0  0  0  0  0  0  0  0  0  0  0  0
  -30.1150  -20.9552   20.0804 C   0  0  0  0  0  0  0  0  0  0  0  0
  -24.1587  -13.0129   20.9502 C   0  0  0  0  0  0  0  0  0  0  0  0
  -30.1900  -34.9752   24.0078 C   0  0  0  0  0  0  0  0  0  0  0  0
  -26.9900  -30.1810   20.6988 C   0  0  0  0  0  0  0  0  0  0  0  0
  -29.8902  -33.6172   23.7881 C   0  0  0  0  0  0  0  0  0  0  0  0
  -26.4450  -29.0604   21.3417 C   0  0  0  0  0  0  0  0  0  0  0  0
  -29.5099  -18.2631   19.6693 C   0  0  0  0  0  0  0  0  0  0  0  0
  -23.4951   -9.0937   24.3079 C   0  0  0  0  0  0  0  0  0  0  0  0
  -27.9712  -27.6257   20.1078 C   0  0  0  0  0  0  0  0  0  0  0  0
  -21.8278   -7.5601   24.9327 C   0  0  0  0  0  0  0  0  0  0  0  0
  -19.3765   -6.3388   24.4011 C   0  0  0  0  0  0  0  0  0  0  0  0
  -31.1415  -20.0325   19.8795 C   0  0  0  0  0  0  0  0  0  0  0  0
  -21.7584   -6.1763   24.7717 C   0  0  0  0  0  0  0  0  0  0  0  0
  -24.8986  -11.9731   21.5443 C   0  0  0  0  0  0  0  0  0  0  0  0
  -25.0618  -13.6581   20.1411 C   0  0  0  0  0  0  0  0  0  0  0  0
  -29.5549  -24.4749   20.6759 C   0  0  0  0  0  0  0  0  0  0  0  0
  -30.4335  -22.3963   20.2979 C   0  0  0  0  0  0  0  0  0  0  0  0
  -22.7784  -13.3643   21.1150 C   0  0  0  0  0  0  0  0  0  0  0  0
  -26.7476  -31.6981   23.4815 C   0  0  0  0  0  0  0  0  0  0  0  0
  -23.6334  -30.8217   23.2445 C   0  0  0  0  0  0  0  0  0  0  0  0
  -21.3176  -28.6792   21.9432 C   0  0  0  0  0  0  0  0  0  0  0  0
  -30.1008  -15.8511   19.2458 C   0  0  0  0  0  0  0  0  0  0  0  0
  -29.3686  -35.8279   24.9420 C   0  0  0  0  0  0  0  0  0  0  0  0
  -26.4533  -31.5574   20.9816 C   0  0  0  0  0  0  0  0  0  0  0  0
  -25.3366  -29.1876   22.3534 C   0  0  0  0  0  0  0  0  0  0  0  0
  -27.9949  -35.2399   25.2541 C   0  0  0  0  0  0  0  0  0  0  0  0
  -29.7420  -12.3468   18.7278 C   0  0  0  0  0  0  0  0  0  0  0  0
  -28.1137  -33.7581   25.5963 C   0  0  0  0  0  0  0  0  0  0  0  0
  -28.3891  -12.0227   19.3655 C   0  0  0  0  0  0  0  0  0  0  0  0
  -30.4998  -13.4133   19.5165 C   0  0  0  0  0  0  0  0  0  0  0  0
  -28.3931  -14.3226   20.4132 C   0  0  0  0  0  0  0  0  0  0  0  0
  -28.6776  -32.9622   24.4132 C   0  0  1  0  0  0  0  0  0  0  0  0
  -25.7697  -31.6644   22.3412 C   0  0  1  0  0  0  0  0  0  0  0  0
  -27.5646  -13.3002   19.6181 C   0  0  2  0  0  0  0  0  0  0  0  0
  -18.8560  -28.1918   21.9602 C   0  0  0  0  0  0  0  0  0  0  0  0
  -23.9001  -29.5844   26.0208 C   0  0  0  0  0  0  0  0  0  0  0  0
  -21.7809  -28.3240   25.5863 C   0  0  0  0  0  0  0  0  0  0  0  0
  -21.7601  -30.8181   25.6296 C   0  0  0  0  0  0  0  0  0  0  0  0
  -21.0895  -29.1341   19.0277 C   0  0  0  0  0  0  0  0  0  0  0  0
  -28.4047  -25.4171   20.8760 C   0  0  0  0  0  0  0  0  0  1  0  0
  -22.8250  -29.6213   23.6737 C   0  0  1  0  0  0  0  0  0  0  0  0
  -19.9858  -28.9298   21.2590 C   0  0  2  0  0  0  0  0  0  0  0  0
  -22.5887  -29.5844   25.2100 C   0  0  0  0  0  0  0  0  0  0  0  0
  -26.1735  -11.9549   21.1465 N   0  0  0  0  0  0  0  0  0  0  0  0
  -29.3410  -23.2164   20.4829 N   0  0  0  0  0  0  0  0  0  0  0  0
  -26.2417  -12.9912   20.2936 N   0  0  0  0  0  0  0  0  0  0  0  0
  -24.8498  -30.5549   22.6003 N   0  0  0  0  0  0  0  0  0  0  0  0
  -29.6582  -14.5956   19.7135 N   0  0  0  0  0  0  0  0  0  0  0  0
  -24.9537  -14.7251   19.3212 N   0  0  0  0  0  0  0  0  0  0  0  0
  -21.9927  -12.5960   21.9849 N   0  0  0  0  0  0  0  0  0  0  0  0
  -29.2024  -16.8958   19.4605 N   0  0  0  0  0  0  0  0  0  0  0  0
  -27.6511  -32.7417   23.4171 N   0  0  0  0  0  0  0  0  0  0  0  0
  -21.6003  -29.6493   22.8814 N   0  0  0  0  0  0  0  0  0  0  0  0
  -20.0375  -28.4724   19.8416 N   0  3  0  0  0  0  0  0  0  0  0  0
  -31.6103  -22.7475   20.2969 O   0  0  0  0  0  0  0  0  0  0  0  0
  -22.2533  -14.3208   20.4963 O   0  0  0  0  0  0  0  0  0  0  0  0
  -26.6860  -30.8417   24.3558 O   0  0  0  0  0  0  0  0  0  0  0  0
  -23.1982  -31.9545   23.4660 O   0  0  0  0  0  0  0  0  0  0  0  0
  -22.0336  -27.7170   21.6750 O   0  0  0  0  0  0  0  0  0  0  0  0
  -31.1843  -15.9844   18.6711 O   0  0  0  0  0  0  0  0  0  0  0  0
  -23.0436   -8.1677   25.1975 O   0  0  0  0  0  0  0  0  0  0  0  0
  -28.4487  -26.3829   19.8263 O   0  0  0  0  0  0  0  0  0  1  0  0
  -18.1993   -5.7524   24.1473 F   0  0  0  0  0  0  0  0  0  0  0  0
  -32.4226  -20.4281   19.8815 F   0  0  0  0  0  0  0  0  0  0  0  0
  -22.8656   -5.4281   24.8724 F   0  0  0  0  0  0  0  0  0  0  0  0
  1  2  1  0  0  0  0
  1  6  2  0  0  0  0
  2  7  2  0  0  0  0
  3 10  2  0  0  0  0
  3 18  1  0  0  0  0
  4 11  1  0  0  0  0
  4 18  2  0  0  0  0
  5  9  2  0  0  0  0
  5 19  1  0  0  0  0
  6 21  1  0  0  0  0
  7 23  1  0  0  0  0
  8 12  2  0  0  0  0
  8 22  1  0  0  0  0
  9 25  1  0  0  0  0
 10 26  1  0  0  0  0
 11 26  2  0  0  0  0
 12 27  1  0  0  0  0
 13 14  2  0  0  0  0
 13 28  1  0  0  0  0
 14 29  1  0  0  0  0
 15 24  1  0  0  0  0
 15 27  2  0  0  0  0
 16 25  2  0  0  0  0
 16 30  1  0  0  0  0
 17 29  2  0  0  0  0
 17 31  1  0  0  0  0
 18 32  1  0  0  0  0
 19 30  2  0  0  0  0
 19 35  1  0  0  0  0
 20 32  1  0  0  0  0
 20 33  2  0  0  0  0
 20 36  1  0  0  0  0
 21 23  2  0  0  0  0
 21 41  1  0  0  0  0
 22 24  2  0  0  0  0
 22 42  1  0  0  0  0
 23 50  1  0  0  0  0
 24 43  1  0  0  0  0
 25 69  1  0  0  0  0
 26 79  1  0  0  0  0
 27 80  1  0  0  0  0
 28 31  2  0  0  0  0
 28 79  1  0  0  0  0
 29 81  1  0  0  0  0
 30 82  1  0  0  0  0
 31 83  1  0  0  0  0
 32 62  2  0  0  0  0
 33 64  1  0  0  0  0
 33 67  1  0  0  0  0
 34 58  1  0  0  0  0
 34 63  2  0  0  0  0
 35 63  1  0  0  0  0
 35 73  2  0  0  0  0
 36 68  1  0  0  0  0
 36 74  2  0  0  0  0
 37 51  1  0  0  0  0
 37 70  1  0  0  0  0
 37 75  2  0  0  0  0
 38 59  1  0  0  0  0
 38 65  1  0  0  0  0
 38 76  2  0  0  0  0
 39 60  1  0  0  0  0
 39 71  1  0  0  0  0
 39 77  2  0  0  0  0
 40 66  1  0  0  0  0
 40 69  1  0  0  0  0
 40 78  2  0  0  0  0
 41 44  1  0  0  0  0
 42 51  1  0  0  0  0
 43 65  1  0  0  0  0
 44 46  1  0  0  0  0
 45 47  1  0  0  0  0
 45 48  1  0  0  0  0
 46 50  1  0  0  0  0
 47 52  1  0  0  0  0
 48 66  1  0  0  0  0
 49 52  1  0  0  0  0
 49 66  1  0  0  0  0
 50 70  1  0  0  0  0
 51 65  1  0  0  0  0
 52 64  1  0  0  0  0
 53 60  1  0  0  0  0
 54 61  1  0  0  0  0
 55 61  1  0  0  0  0
 56 61  1  0  0  0  0
 57 72  1  0  0  0  0
 58 80  1  0  0  0  0
 59 61  1  0  0  0  0
 59 71  1  0  0  0  0
 60 72  1  0  0  0  0
 62 64  1  0  0  0  0
M  CHG  1  72   1
M  ISO  4  40 100  58 101  69 100  80 101
M  END
> <Batch ID>
0094

> <Smiles>
CNC(C)C(=O)NC(C(=O)N1Cc2cc([101O:1][101CH:1]=CNC(=O)c3ccc([100NH:0][100C:0](=O)N4CCCC(n5nc(-c6ccc(Oc7ccc(F)cc7F)cc6)c(C(N)=O)c5N)C4)cc3F)ccc2CC1C(=O)NC1CCCc2ccccc21)C(C)(C)C

> <Shape>
0.303

> <Color>
0.144

> <Negative vol penalty>
0.000

$$$$

  -OEChem-04052300403D

 86 94  0     1  0  0  0  0  0999 V2000
  -30.9179  -34.5843   18.5917 C   0  0  0  0  0  0  0  0  0  0  0  0
  -30.6576  -33.2452   18.8647 C   0  0  0  0  0  0  0  0  0  0  0  0
  -24.6094   -8.7699   21.7614 C   0  0  0  0  0  0  0  0  0  0  0  0
  -22.8402   -9.8709   20.5389 C   0  0  0  0  0  0  0  0  0  0  0  0
  -30.4228  -35.5760   19.4375 C   0  0  0  0  0  0  0  0  0  0  0  0
  -29.9029  -32.8970   19.9844 C   0  0  0  0  0  0  0  0  0  0  0  0
  -26.4215  -29.3652   18.9588 C   0  0  0  0  0  0  0  0  0  0  0  0
  -23.6596   -8.0833   22.5177 C   0  0  0  0  0  0  0  0  0  0  0  0
  -21.8903   -9.1842   21.2951 C   0  0  0  0  0  0  0  0  0  0  0  0
  -26.8632  -28.0469   18.8555 C   0  0  0  0  0  0  0  0  0  0  0  0
  -21.6398   -5.3984   22.1375 C   0  0  0  0  0  0  0  0  0  0  0  0
  -21.8385   -4.0332   22.3432 C   0  0  0  0  0  0  0  0  0  0  0  0
  -26.0976  -27.6206   21.1030 C   0  0  0  0  0  0  0  0  0  0  0  0
  -22.8094  -19.9087   18.6151 C   0  0  0  0  0  0  0  0  0  0  0  0
  -24.8876  -19.0654   19.5131 C   0  0  0  0  0  0  0  0  0  0  0  0
  -23.4780  -17.6289   18.1765 C   0  0  0  0  0  0  0  0  0  0  0  0
  -21.8998   -4.4019   24.7302 C   0  0  0  0  0  0  0  0  0  0  0  0
  -24.1997   -9.6638   20.7720 C   0  0  0  0  0  0  0  0  0  0  0  0
  -25.7617   -9.9606   18.7771 C   0  0  0  0  0  0  0  0  0  0  0  0
  -29.6535  -35.2402   20.5627 C   0  0  0  0  0  0  0  0  0  0  0  0
  -25.8234  -29.8249   20.1409 C   0  0  0  0  0  0  0  0  0  0  0  0
  -29.3981  -33.8850   20.8467 C   0  0  0  0  0  0  0  0  0  0  0  0
  -25.6469  -28.9445   21.2179 C   0  0  0  0  0  0  0  0  0  0  0  0
  -23.9719  -20.1065   19.3600 C   0  0  0  0  0  0  0  0  0  0  0  0
  -22.5624  -18.6699   18.0234 C   0  0  0  0  0  0  0  0  0  0  0  0
  -24.6407  -17.8266   18.9214 C   0  0  0  0  0  0  0  0  0  0  0  0
  -22.3000   -8.2904   22.2845 C   0  0  0  0  0  0  0  0  0  0  0  0
  -26.7039  -27.1751   19.9287 C   0  0  0  0  0  0  0  0  0  0  0  0
  -21.5711   -6.2654   23.2280 C   0  0  0  0  0  0  0  0  0  0  0  0
  -21.9685   -3.5350   23.6396 C   0  0  0  0  0  0  0  0  0  0  0  0
  -21.7011   -5.7672   24.5244 C   0  0  0  0  0  0  0  0  0  0  0  0
  -25.1804  -10.3738   19.9908 C   0  0  0  0  0  0  0  0  0  0  0  0
  -26.6229  -10.9778   18.4451 C   0  0  0  0  0  0  0  0  0  0  0  0
  -25.5427   -8.7644   18.0176 C   0  0  0  0  0  0  0  0  0  0  0  0
  -26.5269  -32.0602   22.2886 C   0  0  0  0  0  0  0  0  0  0  0  0
  -23.6282  -31.2549   23.5015 C   0  0  0  0  0  0  0  0  0  0  0  0
  -25.5759  -23.4409   19.3168 C   0  0  0  0  0  0  0  0  0  0  0  0
  -21.1648  -28.9130   23.8079 C   0  0  0  0  0  0  0  0  0  0  0  0
  -26.7734  -16.7995   19.7832 C   0  0  0  0  0  0  0  0  0  0  0  0
  -29.1797  -36.3447   21.4740 C   0  0  0  0  0  0  0  0  0  0  0  0
  -25.3281  -31.2425   20.2269 C   0  0  0  0  0  0  0  0  0  0  0  0
  -24.9926  -29.3831   22.5017 C   0  0  0  0  0  0  0  0  0  0  0  0
  -28.0727  -35.9114   22.4317 C   0  0  0  0  0  0  0  0  0  0  0  0
  -29.3212  -14.3987   20.4328 C   0  0  0  0  0  0  0  0  0  0  0  0
  -28.4243  -34.5792   23.0863 C   0  0  0  0  0  0  0  0  0  0  0  0
  -28.6028  -13.0564   20.2768 C   0  0  0  0  0  0  0  0  0  0  0  0
  -28.4191  -15.4540   21.0702 C   0  0  0  0  0  0  0  0  0  0  0  0
  -26.4019  -14.2984   20.2548 C   0  0  0  0  0  0  0  0  0  0  0  0
  -28.5625  -33.4688   22.0378 C   0  0  1  0  0  0  0  0  0  0  0  0
  -25.1984  -31.7441   21.6618 C   0  0  1  0  0  0  0  0  0  0  0  0
  -27.2496  -13.2217   19.5578 C   0  0  2  0  0  0  0  0  0  0  0  0
  -23.0899  -20.7917   22.1768 C   0  0  0  0  0  0  0  0  0  0  0  0
  -18.9345  -28.5303   24.8925 C   0  0  0  0  0  0  0  0  0  0  0  0
  -25.0107  -30.8266   26.1876 C   0  0  0  0  0  0  0  0  0  0  0  0
  -22.9866  -29.5653   26.9494 C   0  0  0  0  0  0  0  0  0  0  0  0
  -22.7925  -31.9731   26.3272 C   0  0  0  0  0  0  0  0  0  0  0  0
  -19.8257  -28.5501   21.1937 C   0  0  0  0  0  0  0  0  0  0  0  0
  -26.9039  -23.7951   18.6659 C   0  0  0  0  0  0  0  0  0  0  0  0
  -24.3581  -21.3378   21.5322 C   0  0  0  0  0  0  0  0  0  0  0  0
  -27.1189  -25.2948   18.5329 C   0  0  0  0  0  0  0  0  0  1  0  0
  -24.2401  -21.4523   20.0027 C   0  0  1  0  0  0  0  0  0  0  0  0
  -23.1343  -30.2474   24.5114 C   0  0  1  0  0  0  0  0  0  0  0  0
  -19.6587  -29.0078   23.6435 C   0  0  2  0  0  0  0  0  0  0  0  0
  -23.4951  -30.6450   25.9706 C   0  0  0  0  0  0  0  0  0  0  0  0
  -25.6341  -11.5608   20.4022 N   0  0  0  0  0  0  0  0  0  0  0  0
  -26.5098  -11.9022   19.4415 N   0  0  0  0  0  0  0  0  0  0  0  0
  -24.5308  -30.7805   22.5392 N   0  0  0  0  0  0  0  0  0  0  0  0
  -27.1577  -15.5584   20.3335 N   0  0  0  0  0  0  0  0  0  0  0  0
  -21.3864  -18.4703   17.2702 N   0  0  0  0  0  0  0  0  0  0  0  0
  -27.4585  -11.1626   17.4010 N   0  0  0  0  0  0  0  0  0  0  0  0
  -24.6235   -7.8240   18.5025 N   0  0  0  0  0  0  0  0  0  0  0  0
  -25.5714  -16.7696   19.0769 N   0  0  0  0  0  0  0  0  0  0  0  0
  -27.2575  -33.0149   21.6073 N   0  0  0  0  0  0  0  0  0  0  0  0
  -25.4122  -22.0672   19.4224 N   0  0  0  0  0  0  0  0  0  0  0  0
  -21.7036  -30.0951   24.2700 N   0  0  0  0  0  0  0  0  0  0  0  0
  -19.2098  -28.1745   22.4924 N   0  3  0  0  0  0  0  0  0  0  0  0
  -26.1565   -8.5287   16.9493 O   0  0  0  0  0  0  0  0  0  0  0  0
  -26.8635  -31.4818   23.3151 O   0  0  0  0  0  0  0  0  0  0  0  0
  -23.2224  -32.4184   23.5599 O   0  0  0  0  0  0  0  0  0  0  0  0
  -24.7651  -24.2824   19.6940 O   0  0  0  0  0  0  0  0  0  0  0  0
  -21.7994  -27.8912   23.5554 O   0  0  0  0  0  0  0  0  0  0  0  0
  -27.4737  -17.8079   19.9046 O   0  0  0  0  0  0  0  0  0  0  0  0
  -21.3729   -7.6204   23.0221 O   0  0  0  0  0  0  0  0  0  0  0  0
  -27.1347  -25.8880   19.8307 O   0  0  0  0  0  0  0  0  0  1  0  0
  -22.1579   -2.2238   23.8371 F   0  0  0  0  0  0  0  0  0  0  0  0
  -21.6348   -6.5950   25.5761 F   0  0  0  0  0  0  0  0  0  0  0  0
  1  2  1  0  0  0  0
  1  5  2  0  0  0  0
  2  6  2  0  0  0  0
  3  8  2  0  0  0  0
  3 18  1  0  0  0  0
  4  9  1  0  0  0  0
  4 18  2  0  0  0  0
  5 20  1  0  0  0  0
  6 22  1  0  0  0  0
  7 10  2  0  0  0  0
  7 21  1  0  0  0  0
  8 27  1  0  0  0  0
  9 27  2  0  0  0  0
 10 28  1  0  0  0  0
 11 12  2  0  0  0  0
 11 29  1  0  0  0  0
 12 30  1  0  0  0  0
 13 23  1  0  0  0  0
 13 28  2  0  0  0  0
 14 24  1  0  0  0  0
 14 25  2  0  0  0  0
 15 24  2  0  0  0  0
 15 26  1  0  0  0  0
 16 25  1  0  0  0  0
 16 26  2  0  0  0  0
 17 30  2  0  0  0  0
 17 31  1  0  0  0  0
 18 32  1  0  0  0  0
 19 32  1  0  0  0  0
 19 33  2  0  0  0  0
 19 34  1  0  0  0  0
 20 22  2  0  0  0  0
 20 40  1  0  0  0  0
 21 23  2  0  0  0  0
 21 41  1  0  0  0  0
 22 49  1  0  0  0  0
 23 42  1  0  0  0  0
 24 61  1  0  0  0  0
 25 69  1  0  0  0  0
 26 72  1  0  0  0  0
 27 83  1  0  0  0  0
 28 84  1  0  0  0  0
 29 31  2  0  0  0  0
 29 83  1  0  0  0  0
 30 85  1  0  0  0  0
 31 86  1  0  0  0  0
 32 65  2  0  0  0  0
 33 66  1  0  0  0  0
 33 70  1  0  0  0  0
 34 71  1  0  0  0  0
 34 77  2  0  0  0  0
 35 50  1  0  0  0  0
 35 73  1  0  0  0  0
 35 78  2  0  0  0  0
 36 62  1  0  0  0  0
 36 67  1  0  0  0  0
 36 79  2  0  0  0  0
 37 58  1  0  0  0  0
 37 74  1  0  0  0  0
 37 80  2  0  0  0  0
 38 63  1  0  0  0  0
 38 75  1  0  0  0  0
 38 81  2  0  0  0  0
 39 68  1  0  0  0  0
 39 72  1  0  0  0  0
 39 82  2  0  0  0  0
 40 43  1  0  0  0  0
 41 50  1  0  0  0  0
 42 67  1  0  0  0  0
 43 45  1  0  0  0  0
 44 46  1  0  0  0  0
 44 47  1  0  0  0  0
 45 49  1  0  0  0  0
 46 51  1  0  0  0  0
 47 68  1  0  0  0  0
 48 51  1  0  0  0  0
 48 68  1  0  0  0  0
 49 73  1  0  0  0  0
 50 67  1  0  0  0  0
 51 66  1  0  0  0  0
 52 59  1  0  0  0  0
 53 63  1  0  0  0  0
 54 64  1  0  0  0  0
 55 64  1  0  0  0  0
 56 64  1  0  0  0  0
 57 76  1  0  0  0  0
 58 60  1  0  0  0  0
 59 61  1  0  0  0  0
 60 84  1  0  0  0  0
 61 74  1  0  0  0  0
 62 64  1  0  0  0  0
 62 75  1  0  0  0  0
 63 76  1  0  0  0  0
 65 66  1  0  0  0  0
M  CHG  1  76   1
M  ISO  4  39 100  60 101  72 100  84 101
M  END
> <Batch ID>
0094

> <Smiles>
CCC(NC(=O)C[101CH2:1][101O:1]c1ccc2c(c1)CN(C(=O)C(NC(=O)C(C)NC)C(C)(C)C)C(C(=O)NC1CCCc3ccccc31)C2)c1cc(N)cc([100NH:0][100C:0](=O)N2CCCC(n3nc(-c4ccc(Oc5ccc(F)cc5F)cc4)c(C(N)=O)c3N)C2)c1

> <Shape>
0.240

> <Color>
0.095

> <Negative vol penalty>
0.000

$$$$

  -OEChem-04052300403D

 88 97  0     1  0  0  0  0  0999 V2000
  -17.1478  -29.4859   24.7592 C   0  0  0  0  0  0  0  0  0  0  0  0
  -17.7058  -28.2424   24.4806 C   0  0  0  0  0  0  0  0  0  0  0  0
  -23.0253  -11.0782   18.9303 C   0  0  0  0  0  0  0  0  0  0  0  0
  -23.5732   -9.7172   20.8497 C   0  0  0  0  0  0  0  0  0  0  0  0
  -17.5048  -30.5960   23.9948 C   0  0  0  0  0  0  0  0  0  0  0  0
  -18.6203  -28.1080   23.4365 C   0  0  0  0  0  0  0  0  0  0  0  0
  -23.4574  -24.3569   23.2395 C   0  0  0  0  0  0  0  0  0  0  0  0
  -22.1896  -10.0687   18.4529 C   0  0  0  0  0  0  0  0  0  0  0  0
  -22.7374   -8.7076   20.3724 C   0  0  0  0  0  0  0  0  0  0  0  0
  -23.6518  -23.1070   22.6532 C   0  0  0  0  0  0  0  0  0  0  0  0
  -19.0771   -8.9066   19.0813 C   0  0  0  0  0  0  0  0  0  0  0  0
  -17.8192   -9.2771   18.6058 C   0  0  0  0  0  0  0  0  0  0  0  0
  -24.6282  -24.1718   20.7214 C   0  0  0  0  0  0  0  0  0  0  0  0
  -26.2198  -16.3198   17.9641 C   0  0  0  0  0  0  0  0  0  0  0  0
  -23.3901  -18.4467   20.3306 C   0  0  0  0  0  0  0  0  0  0  0  0
  -27.7398  -17.1384   19.6543 C   0  0  0  0  0  0  0  0  0  0  0  0
  -18.3709   -8.3662   16.4371 C   0  0  0  0  0  0  0  0  0  0  0  0
  -23.7172  -10.9025   20.1287 C   0  0  0  0  0  0  0  0  0  0  0  0
  -24.2294  -13.0072   21.4760 C   0  0  0  0  0  0  0  0  0  0  0  0
  -18.4314  -30.4770   22.9471 C   0  0  0  0  0  0  0  0  0  0  0  0
  -23.8376  -25.5263   22.5653 C   0  0  0  0  0  0  0  0  0  0  0  0
  -18.9890  -29.2172   22.6565 C   0  0  0  0  0  0  0  0  0  0  0  0
  -24.4398  -25.4352   21.3024 C   0  0  0  0  0  0  0  0  0  0  0  0
  -27.2577  -15.5904   17.3841 C   0  0  0  0  0  0  0  0  0  0  0  0
  -24.3228  -19.4141   20.7794 C   0  0  0  0  0  0  0  0  0  0  0  0
  -26.4609  -17.0939   19.0992 C   0  0  0  0  0  0  0  0  0  0  0  0
  -28.7776  -16.4089   19.0743 C   0  0  0  0  0  0  0  0  0  0  0  0
  -28.5365  -15.6349   17.9391 C   0  0  0  0  0  0  0  0  0  0  0  0
  -22.0456   -8.8833   19.1740 C   0  0  0  0  0  0  0  0  0  0  0  0
  -24.2346  -23.0145   21.3927 C   0  0  0  0  0  0  0  0  0  0  0  0
  -19.9819   -8.2660   18.2347 C   0  0  0  0  0  0  0  0  0  0  0  0
  -17.4661   -9.0069   17.2837 C   0  0  0  0  0  0  0  0  0  0  0  0
  -19.6288   -7.9958   16.9126 C   0  0  0  0  0  0  0  0  0  0  0  0
  -24.5811  -11.9448   20.6220 C   0  0  0  0  0  0  0  0  0  0  0  0
  -25.3957  -13.7128   21.6445 C   0  0  0  0  0  0  0  0  0  0  0  0
  -24.0965  -17.4771   19.6539 C   0  0  0  0  0  0  0  0  0  0  0  0
  -25.5708  -19.0062   20.3630 C   0  0  0  0  0  0  0  0  0  0  0  0
  -22.9618  -13.3276   22.0645 C   0  0  0  0  0  0  0  0  0  0  0  0
  -22.3017  -28.0861   21.4735 C   0  0  0  0  0  0  0  0  0  0  0  0
  -25.3044  -29.1307   20.8293 C   0  0  0  0  0  0  0  0  0  0  0  0
  -28.5690  -28.3576   20.2038 C   0  0  0  0  0  0  0  0  0  0  0  0
  -30.3226  -13.8755   18.0150 C   0  0  0  0  0  0  0  0  0  0  0  0
  -18.7505  -31.6959   22.1182 C   0  0  0  0  0  0  0  0  0  0  0  0
  -23.6454  -26.8654   23.2228 C   0  0  0  0  0  0  0  0  0  0  0  0
  -24.8842  -26.6592   20.5456 C   0  0  0  0  0  0  0  0  0  0  0  0
  -20.0100  -31.5428   21.2695 C   0  0  0  0  0  0  0  0  0  0  0  0
  -30.1473  -13.1931   21.6477 C   0  0  0  0  0  0  0  0  0  0  0  0
  -20.0076  -30.1987   20.5482 C   0  0  0  0  0  0  0  0  0  0  0  0
  -28.6840  -12.8038   21.8495 C   0  0  0  0  0  0  0  0  0  0  0  0
  -30.6364  -12.8493   20.2440 C   0  0  0  0  0  0  0  0  0  0  0  0
  -28.3298  -13.0513   19.3606 C   0  0  0  0  0  0  0  0  0  0  0  0
  -20.0033  -29.0360   21.5481 C   0  0  1  0  0  0  0  0  0  0  0  0
  -23.6005  -28.0195   22.2261 C   0  0  1  0  0  0  0  0  0  0  0  0
  -27.8016  -13.4243   20.7539 C   0  0  1  0  0  0  0  0  0  0  0  0
  -26.9685  -14.7720   16.1674 C   0  0  0  0  0  0  0  0  0  0  0  0
  -30.7797  -29.4224   19.6778 C   0  0  0  0  0  0  0  0  0  0  0  0
  -24.3856  -29.6153   17.9603 C   0  0  0  0  0  0  0  0  0  0  0  0
  -26.7929  -29.7537   17.2866 C   0  0  0  0  0  0  0  0  0  0  0  0
  -25.8546  -31.4069   18.9019 C   0  0  0  0  0  0  0  0  0  0  0  0
  -30.1410  -15.3496   16.0590 C   0  0  0  0  0  0  0  0  0  0  0  0
  -29.8083  -27.2716   22.6622 C   0  0  0  0  0  0  0  0  0  0  0  0
  -24.0039  -20.6536   21.5625 C   0  0  0  0  0  0  0  0  0  1  0  0
  -26.2439  -29.0242   19.6524 C   0  0  1  0  0  0  0  0  0  0  0  0
  -29.8623  -28.9088   20.7766 C   0  0  2  0  0  0  0  0  0  0  0  0
  -25.8092  -29.9269   18.4635 C   0  0  0  0  0  0  0  0  0  0  0  0
  -25.8699  -11.9694   20.2722 N   0  0  0  0  0  0  0  0  0  0  0  0
  -25.4212  -17.8277   19.6797 N   0  0  0  0  0  0  0  0  0  0  0  0
  -26.3382  -13.0559   20.9095 N   0  0  0  0  0  0  0  0  0  0  0  0
  -24.6692  -27.9460   21.2278 N   0  0  0  0  0  0  0  0  0  0  0  0
  -29.7533  -13.3958   19.2124 N   0  0  0  0  0  0  0  0  0  0  0  0
  -30.0650  -16.4706   19.6537 N   0  0  0  0  0  0  0  0  0  0  0  0
  -25.6966  -14.8249   22.3481 N   0  0  0  0  0  0  0  0  0  0  0  0
  -21.8674  -12.4972   21.7871 N   0  0  0  0  0  0  0  0  0  0  0  0
  -21.3266  -28.8389   22.0997 N   0  0  0  0  0  0  0  0  0  0  0  0
  -27.5776  -29.3152   20.1672 N   0  0  0  0  0  0  0  0  0  0  0  0
  -29.6069  -14.8796   17.3353 N   0  0  0  0  0  0  0  0  0  0  0  0
  -30.5855  -27.8497   21.5357 N   0  3  0  0  0  0  0  0  0  0  0  0
  -22.8006  -14.3302   22.8009 O   0  0  0  0  0  0  0  0  0  0  0  0
  -22.1928  -27.4994   20.4032 O   0  0  0  0  0  0  0  0  0  0  0  0
  -25.1456  -30.2234   21.3793 O   0  0  0  0  0  0  0  0  0  0  0  0
  -28.4513  -27.1950   19.8231 O   0  0  0  0  0  0  0  0  0  0  0  0
  -31.3684  -13.4034   17.5525 O   0  0  0  0  0  0  0  0  0  0  0  0
  -23.6785  -16.3706   19.0509 O   0  0  0  0  0  0  0  0  0  0  0  0
  -26.7638  -19.5659   20.5298 O   0  0  0  0  0  0  0  0  0  0  0  0
  -21.2300   -7.8981   18.7086 O   0  0  0  0  0  0  0  0  0  0  0  0
  -24.4250  -21.7958   20.8179 O   0  0  0  0  0  0  0  0  0  1  0  0
  -16.2576   -9.3613   16.8276 F   0  0  0  0  0  0  0  0  0  0  0  0
  -20.4933   -7.3795   16.0950 F   0  0  0  0  0  0  0  0  0  0  0  0
  1  2  1  0  0  0  0
  1  5  2  0  0  0  0
  2  6  2  0  0  0  0
  3  8  2  0  0  0  0
  3 18  1  0  0  0  0
  4  9  1  0  0  0  0
  4 18  2  0  0  0  0
  5 20  1  0  0  0  0
  6 22  1  0  0  0  0
  7 10  2  0  0  0  0
  7 21  1  0  0  0  0
  8 29  1  0  0  0  0
  9 29  2  0  0  0  0
 10 30  1  0  0  0  0
 11 12  2  0  0  0  0
 11 31  1  0  0  0  0
 12 32  1  0  0  0  0
 13 23  1  0  0  0  0
 13 30  2  0  0  0  0
 14 24  2  0  0  0  0
 14 26  1  0  0  0  0
 15 25  1  0  0  0  0
 15 36  2  0  0  0  0
 16 26  2  0  0  0  0
 16 27  1  0  0  0  0
 17 32  2  0  0  0  0
 17 33  1  0  0  0  0
 18 34  1  0  0  0  0
 19 34  1  0  0  0  0
 19 35  2  0  0  0  0
 19 38  1  0  0  0  0
 20 22  2  0  0  0  0
 20 43  1  0  0  0  0
 21 23  2  0  0  0  0
 21 44  1  0  0  0  0
 22 52  1  0  0  0  0
 23 45  1  0  0  0  0
 24 28  1  0  0  0  0
 24 55  1  0  0  0  0
 25 37  2  0  0  0  0
 25 62  1  0  0  0  0
 26 67  1  0  0  0  0
 27 28  2  0  0  0  0
 27 71  1  0  0  0  0
 28 76  1  0  0  0  0
 29 85  1  0  0  0  0
 30 86  1  0  0  0  0
 31 33  2  0  0  0  0
 31 85  1  0  0  0  0
 32 87  1  0  0  0  0
 33 88  1  0  0  0  0
 34 66  2  0  0  0  0
 35 68  1  0  0  0  0
 35 72  1  0  0  0  0
 36 67  1  0  0  0  0
 36 83  1  0  0  0  0
 37 67  1  0  0  0  0
 37 84  1  0  0  0  0
 38 73  1  0  0  0  0
 38 78  2  0  0  0  0
 39 53  1  0  0  0  0
 39 74  1  0  0  0  0
 39 79  2  0  0  0  0
 40 63  1  0  0  0  0
 40 69  1  0  0  0  0
 40 80  2  0  0  0  0
 41 64  1  0  0  0  0
 41 75  1  0  0  0  0
 41 81  2  0  0  0  0
 42 70  1  0  0  0  0
 42 76  1  0  0  0  0
 42 82  2  0  0  0  0
 43 46  1  0  0  0  0
 44 53  1  0  0  0  0
 45 69  1  0  0  0  0
 46 48  1  0  0  0  0
 47 49  1  0  0  0  0
 47 50  1  0  0  0  0
 48 52  1  0  0  0  0
 49 54  1  0  0  0  0
 50 70  1  0  0  0  0
 51 54  1  0  0  0  0
 51 70  1  0  0  0  0
 52 74  1  0  0  0  0
 53 69  1  0  0  0  0
 54 68  1  0  0  0  0
 56 64  1  0  0  0  0
 57 65  1  0  0  0  0
 58 65  1  0  0  0  0
 59 65  1  0  0  0  0
 60 76  1  0  0  0  0
 61 77  1  0  0  0  0
 62 86  1  0  0  0  0
 63 65  1  0  0  0  0
 63 75  1  0  0  0  0
 64 77  1  0  0  0  0
 66 68  1  0  0  0  0
M  CHG  1  77   1
M  ISO  4  42 100  62 101  76 100  86 101
M  END
> <Batch ID>
0094

> <Smiles>
CNC(C)C(=O)NC(C(=O)N1Cc2cc([101O:1][101CH2:1]C3CC(=O)N(c4cc(C)c([100N:0](C)[100C:0](=O)N5CCCC(n6nc(-c7ccc(Oc8ccc(F)cc8F)cc7)c(C(N)=O)c6N)C5)c(N)c4)C3=O)ccc2CC1C(=O)NC1CCCc2ccccc21)C(C)(C)C

> <Shape>
0.212

> <Color>
0.103

> <Negative vol penalty>
0.000

$$$$

  -OEChem-04052300403D

 83 91  0     1  0  0  0  0  0999 V2000
  -17.9037  -27.0270   23.6355 C   0  0  0  0  0  0  0  0  0  0  0  0
  -19.0563  -26.2492   23.5897 C   0  0  0  0  0  0  0  0  0  0  0  0
  -23.1080  -10.4030   20.8707 C   0  0  0  0  0  0  0  0  0  0  0  0
  -24.3816   -8.8715   22.2381 C   0  0  0  0  0  0  0  0  0  0  0  0
  -27.8310  -18.0187   21.7122 C   0  0  0  0  0  0  0  0  0  0  0  0
  -17.7991  -28.1639   22.8352 C   0  0  0  0  0  0  0  0  0  0  0  0
  -20.1045  -26.6073   22.7427 C   0  0  0  0  0  0  0  0  0  0  0  0
  -24.6247  -26.2869   25.0032 C   0  0  0  0  0  0  0  0  0  0  0  0
  -22.1281   -9.4269   20.6902 C   0  0  0  0  0  0  0  0  0  0  0  0
  -23.4017   -7.8954   22.0576 C   0  0  0  0  0  0  0  0  0  0  0  0
  -26.9714  -18.8454   22.4356 C   0  0  0  0  0  0  0  0  0  0  0  0
  -25.1794  -25.0151   25.1401 C   0  0  0  0  0  0  0  0  0  0  0  0
  -20.3462   -7.1745   23.3085 C   0  0  0  0  0  0  0  0  0  0  0  0
  -19.9341   -6.4566   24.4311 C   0  0  0  0  0  0  0  0  0  0  0  0
  -28.7348  -19.9511   20.5780 C   0  0  0  0  0  0  0  0  0  0  0  0
  -26.5813  -25.4264   23.2206 C   0  0  0  0  0  0  0  0  0  0  0  0
  -20.6488   -4.4021   23.3796 C   0  0  0  0  0  0  0  0  0  0  0  0
  -24.2348  -10.1253   21.6447 C   0  0  0  0  0  0  0  0  0  0  0  0
  -28.7128  -18.5716   20.7834 C   0  0  0  0  0  0  0  0  0  0  0  0
  -25.3090  -12.0975   22.8547 C   0  0  0  0  0  0  0  0  0  0  0  0
  -18.8505  -28.5415   21.9851 C   0  0  0  0  0  0  0  0  0  0  0  0
  -25.0371  -27.1353   23.9656 C   0  0  0  0  0  0  0  0  0  0  0  0
  -20.0133  -27.7496   21.9293 C   0  0  0  0  0  0  0  0  0  0  0  0
  -26.0321  -26.7094   23.0742 C   0  0  0  0  0  0  0  0  0  0  0  0
  -27.8751  -20.7777   21.3014 C   0  0  0  0  0  0  0  0  0  0  0  0
  -22.2749   -8.1732   21.2836 C   0  0  0  0  0  0  0  0  0  0  0  0
  -26.1558  -24.5836   24.2470 C   0  0  0  0  0  0  0  0  0  0  0  0
  -26.9934  -20.2248   22.2302 C   0  0  0  0  0  0  0  0  0  0  0  0
  -20.9095   -6.5063   22.2213 C   0  0  0  0  0  0  0  0  0  0  0  0
  -20.0855   -5.0704   24.4667 C   0  0  0  0  0  0  0  0  0  0  0  0
  -21.0608   -5.1201   22.2569 C   0  0  0  0  0  0  0  0  0  0  0  0
  -25.2477  -11.1330   21.8311 C   0  0  0  0  0  0  0  0  0  0  0  0
  -26.4530  -12.8092   22.5877 C   0  0  0  0  0  0  0  0  0  0  0  0
  -29.6282  -17.6905   20.0137 C   0  0  0  0  0  0  0  0  0  0  0  0
  -24.4121  -12.3294   23.9490 C   0  0  0  0  0  0  0  0  0  0  0  0
  -23.6045  -28.4893   21.4719 C   0  0  0  0  0  0  0  0  0  0  0  0
  -26.4689  -29.9719   21.1264 C   0  0  0  0  0  0  0  0  0  0  0  0
  -29.8302  -29.9541   21.7161 C   0  0  0  0  0  0  0  0  0  0  0  0
  -29.8712  -15.4089   19.0869 C   0  0  0  0  0  0  0  0  0  0  0  0
  -18.6723  -29.7524   21.1038 C   0  0  0  0  0  0  0  0  0  0  0  0
  -24.4481  -28.5143   23.8476 C   0  0  0  0  0  0  0  0  0  0  0  0
  -26.5240  -27.5897   21.9553 C   0  0  0  0  0  0  0  0  0  0  0  0
  -19.9795  -30.2717   20.5107 C   0  0  0  0  0  0  0  0  0  0  0  0
  -30.2161  -11.8985   19.3222 C   0  0  0  0  0  0  0  0  0  0  0  0
  -20.8031  -29.1200   19.9434 C   0  0  0  0  0  0  0  0  0  0  0  0
  -28.9634  -11.4631   20.0874 C   0  0  0  0  0  0  0  0  0  0  0  0
  -29.9199  -13.0416   18.3524 C   0  0  0  0  0  0  0  0  0  0  0  0
  -27.9964  -13.7660   19.7064 C   0  0  0  0  0  0  0  0  0  0  0  0
  -21.1820  -28.1192   21.0417 C   0  0  1  0  0  0  0  0  0  0  0  0
  -24.5738  -29.0996   22.4444 C   0  0  1  0  0  0  0  0  0  0  0  0
  -28.2571  -12.6646   20.7467 C   0  0  1  0  0  0  0  0  0  0  0  0
  -31.9141  -31.2819   21.2781 C   0  0  0  0  0  0  0  0  0  0  0  0
  -26.4993  -28.9689   18.2449 C   0  0  0  0  0  0  0  0  0  0  0  0
  -28.9477  -29.4855   18.1644 C   0  0  0  0  0  0  0  0  0  0  0  0
  -27.2994  -31.3199   18.5396 C   0  0  0  0  0  0  0  0  0  0  0  0
  -30.3211  -30.3561   24.6069 C   0  0  0  0  0  0  0  0  0  0  0  0
  -25.8679  -22.3265   24.9388 C   0  0  0  0  0  0  0  0  0  1  0  0
  -26.2755  -20.9824   24.3672 C   0  0  0  0  0  0  0  0  0  0  0  0
  -27.7518  -29.6616   20.3937 C   0  0  1  0  0  0  0  0  0  0  0  0
  -30.7662  -31.0271   22.2425 C   0  0  2  0  0  0  0  0  0  0  0  0
  -27.6141  -29.8414   18.8554 C   0  0  0  0  0  0  0  0  0  0  0  0
  -26.2712  -11.2212   20.9775 N   0  0  0  0  0  0  0  0  0  0  0  0
  -26.9864  -12.2497   21.4641 N   0  0  0  0  0  0  0  0  0  0  0  0
  -25.9129  -28.9268   21.8778 N   0  0  0  0  0  0  0  0  0  0  0  0
  -29.2603  -14.1431   19.0560 N   0  0  0  0  0  0  0  0  0  0  0  0
  -27.9086  -22.1726   21.0844 N   0  0  0  0  0  0  0  0  0  0  0  0
  -27.0446  -13.8528   23.2069 N   0  0  0  0  0  0  0  0  0  0  0  0
  -23.2850  -11.5059   24.0751 N   0  0  0  0  0  0  0  0  0  0  0  0
  -29.1834  -16.3824   19.8200 N   0  0  0  0  0  0  0  0  0  0  0  0
  -22.2788  -28.6308   21.8352 N   0  0  0  0  0  0  0  0  0  0  0  0
  -28.7819  -30.4960   21.0029 N   0  0  0  0  0  0  0  0  0  0  0  0
  -31.3383  -30.6166   23.5560 N   0  3  0  0  0  0  0  0  0  0  0  0
  -30.6739  -18.1565   19.5697 O   0  0  0  0  0  0  0  0  0  0  0  0
  -24.5957  -13.2503   24.7806 O   0  0  0  0  0  0  0  0  0  0  0  0
  -24.0280  -27.9325   20.4657 O   0  0  0  0  0  0  0  0  0  0  0  0
  -25.9819  -31.1020   21.0411 O   0  0  0  0  0  0  0  0  0  0  0  0
  -30.0130  -28.7550   21.9144 O   0  0  0  0  0  0  0  0  0  0  0  0
  -30.9542  -15.6426   18.5413 O   0  0  0  0  0  0  0  0  0  0  0  0
  -21.3188   -7.2205   21.1078 O   0  0  0  0  0  0  0  0  0  0  0  0
  -26.6984  -23.3425   24.3780 O   0  0  0  0  0  0  0  0  0  1  0  0
  -26.1419  -21.0197   22.9515 O   0  0  0  0  0  0  0  0  0  0  0  0
  -19.6912   -4.3813   25.5455 F   0  0  0  0  0  0  0  0  0  0  0  0
  -21.6024   -4.4727   21.2160 F   0  0  0  0  0  0  0  0  0  0  0  0
  1  2  1  0  0  0  0
  1  6  2  0  0  0  0
  2  7  2  0  0  0  0
  3  9  2  0  0  0  0
  3 18  1  0  0  0  0
  4 10  1  0  0  0  0
  4 18  2  0  0  0  0
  5 11  2  0  0  0  0
  5 19  1  0  0  0  0
  6 21  1  0  0  0  0
  7 23  1  0  0  0  0
  8 12  2  0  0  0  0
  8 22  1  0  0  0  0
  9 26  1  0  0  0  0
 10 26  2  0  0  0  0
 11 28  1  0  0  0  0
 12 27  1  0  0  0  0
 13 14  2  0  0  0  0
 13 29  1  0  0  0  0
 14 30  1  0  0  0  0
 15 19  2  0  0  0  0
 15 25  1  0  0  0  0
 16 24  1  0  0  0  0
 16 27  2  0  0  0  0
 17 30  2  0  0  0  0
 17 31  1  0  0  0  0
 18 32  1  0  0  0  0
 19 34  1  0  0  0  0
 20 32  1  0  0  0  0
 20 33  2  0  0  0  0
 20 35  1  0  0  0  0
 21 23  2  0  0  0  0
 21 40  1  0  0  0  0
 22 24  2  0  0  0  0
 22 41  1  0  0  0  0
 23 49  1  0  0  0  0
 24 42  1  0  0  0  0
 25 28  2  0  0  0  0
 25 66  1  0  0  0  0
 26 79  1  0  0  0  0
 27 80  1  0  0  0  0
 28 81  1  0  0  0  0
 29 31  2  0  0  0  0
 29 79  1  0  0  0  0
 30 82  1  0  0  0  0
 31 83  1  0  0  0  0
 32 62  2  0  0  0  0
 33 63  1  0  0  0  0
 33 67  1  0  0  0  0
 34 69  1  0  0  0  0
 34 73  2  0  0  0  0
 35 68  1  0  0  0  0
 35 74  2  0  0  0  0
 36 50  1  0  0  0  0
 36 70  1  0  0  0  0
 36 75  2  0  0  0  0
 37 59  1  0  0  0  0
 37 64  1  0  0  0  0
 37 76  2  0  0  0  0
 38 60  1  0  0  0  0
 38 71  1  0  0  0  0
 38 77  2  0  0  0  0
 39 65  1  0  0  0  0
 39 69  1  0  0  0  0
 39 78  2  0  0  0  0
 40 43  1  0  0  0  0
 41 50  1  0  0  0  0
 42 64  1  0  0  0  0
 43 45  1  0  0  0  0
 44 46  1  0  0  0  0
 44 47  1  0  0  0  0
 45 49  1  0  0  0  0
 46 51  1  0  0  0  0
 47 65  1  0  0  0  0
 48 51  1  0  0  0  0
 48 65  1  0  0  0  0
 49 70  1  0  0  0  0
 50 64  1  0  0  0  0
 51 63  1  0  0  0  0
 52 60  1  0  0  0  0
 53 61  1  0  0  0  0
 54 61  1  0  0  0  0
 55 61  1  0  0  0  0
 56 72  1  0  0  0  0
 57 58  1  0  0  0  0
 57 80  1  0  0  0  0
 58 81  1  0  0  0  0
 59 61  1  0  0  0  0
 59 71  1  0  0  0  0
 60 72  1  0  0  0  0
 62 63  1  0  0  0  0
M  CHG  1  72   1
M  ISO  4  39 100  57 101  69 100  80 101
M  END
> <Batch ID>
0094

> <Smiles>
CNC(C)C(=O)NC(C(=O)N1Cc2cc([101O:1][101CH2:1]COc3ccc(C(=O)[100NH:0][100C:0](=O)N4CCCC(n5nc(-c6ccc(Oc7ccc(F)cc7F)cc6)c(C(N)=O)c5N)C4)cc3N)ccc2CC1C(=O)NC1CCCc2ccccc21)C(C)(C)C

> <Shape>
0.240

> <Color>
0.097

> <Negative vol penalty>
0.000

$$$$

  -OEChem-04052300403D

 87 96  0     1  0  0  0  0  0999 V2000
  -24.2567  -21.5157   30.9388 C   0  0  0  0  0  0  0  0  0  0  0  0
  -24.9552  -21.7510   29.7589 C   0  0  0  0  0  0  0  0  0  0  0  0
  -23.1287   -9.8186   19.9553 C   0  0  0  0  0  0  0  0  0  0  0  0
  -23.8251   -9.9165   22.2667 C   0  0  0  0  0  0  0  0  0  0  0  0
  -22.8802  -21.7321   30.9876 C   0  0  0  0  0  0  0  0  0  0  0  0
  -24.2774  -22.2018   28.6267 C   0  0  0  0  0  0  0  0  0  0  0  0
  -26.7093  -25.9728   26.2794 C   0  0  0  0  0  0  0  0  0  0  0  0
  -31.1710  -19.2109   20.5172 C   0  0  0  0  0  0  0  0  0  0  0  0
  -31.0218  -17.8248   20.5632 C   0  0  0  0  0  0  0  0  0  0  0  0
  -22.4024   -8.6583   20.2232 C   0  0  0  0  0  0  0  0  0  0  0  0
  -23.0988   -8.7562   22.5346 C   0  0  0  0  0  0  0  0  0  0  0  0
  -27.7990  -25.6281   25.4809 C   0  0  0  0  0  0  0  0  0  0  0  0
  -19.8727   -7.9084   23.0767 C   0  0  0  0  0  0  0  0  0  0  0  0
  -19.0849   -7.8901   24.2277 C   0  0  0  0  0  0  0  0  0  0  0  0
  -26.4070  -25.7989   23.5182 C   0  0  0  0  0  0  0  0  0  0  0  0
  -29.4906  -19.4488   22.2367 C   0  0  0  0  0  0  0  0  0  0  0  0
  -20.3457   -6.0050   25.0606 C   0  0  0  0  0  0  0  0  0  0  0  0
  -23.8401  -10.4477   20.9770 C   0  0  0  0  0  0  0  0  0  0  0  0
  -24.1324  -12.9744   20.7828 C   0  0  0  0  0  0  0  0  0  0  0  0
  -22.1867  -22.1950   29.8582 C   0  0  0  0  0  0  0  0  0  0  0  0
  -25.4556  -26.2229   25.7033 C   0  0  0  0  0  0  0  0  0  0  0  0
  -22.8901  -22.4233   28.6601 C   0  0  0  0  0  0  0  0  0  0  0  0
  -25.3037  -26.1491   24.3113 C   0  0  0  0  0  0  0  0  0  0  0  0
  -30.4055  -20.0229   21.3541 C   0  0  0  0  0  0  0  0  0  0  0  0
  -30.1070  -17.2507   21.4458 C   0  0  0  0  0  0  0  0  0  0  0  0
  -22.3875   -8.1271   21.5129 C   0  0  0  0  0  0  0  0  0  0  0  0
  -27.6472  -25.5383   24.1004 C   0  0  0  0  0  0  0  0  0  0  0  0
  -20.8970   -6.9750   22.9177 C   0  0  0  0  0  0  0  0  0  0  0  0
  -29.3413  -18.0627   22.2826 C   0  0  0  0  0  0  0  0  0  0  0  0
  -19.3214   -6.9384   25.2196 C   0  0  0  0  0  0  0  0  0  0  0  0
  -21.1335   -6.0233   23.9096 C   0  0  0  0  0  0  0  0  0  0  0  0
  -24.5910  -11.6460   20.7007 C   0  0  0  0  0  0  0  0  0  0  0  0
  -25.2183  -13.7352   20.4243 C   0  0  0  0  0  0  0  0  0  0  0  0
  -29.4874  -22.3047   21.6007 C   0  0  0  0  0  0  0  0  0  0  0  0
  -29.5921  -23.6357   21.7354 C   0  0  0  0  0  0  0  0  0  0  0  0
  -31.8248  -22.0206   20.9989 C   0  0  0  0  0  0  0  0  0  0  0  0
  -22.8405  -13.4759   21.1504 C   0  0  0  0  0  0  0  0  0  0  0  0
  -22.5775  -24.8928   25.9293 C   0  0  0  0  0  0  0  0  0  0  0  0
  -21.6991  -27.4062   24.0765 C   0  0  0  0  0  0  0  0  0  0  0  0
  -22.6083  -29.7993   21.8196 C   0  0  0  0  0  0  0  0  0  0  0  0
  -30.6547  -14.9044   20.7103 C   0  0  0  0  0  0  0  0  0  0  0  0
  -20.6911  -22.3691   29.9456 C   0  0  0  0  0  0  0  0  0  0  0  0
  -24.2966  -26.6198   26.5760 C   0  0  0  0  0  0  0  0  0  0  0  0
  -23.9836  -26.4278   23.6418 C   0  0  0  0  0  0  0  0  0  0  0  0
  -30.9092  -24.3169   21.5354 C   0  0  0  0  0  0  0  0  0  0  0  0
  -31.8006  -23.4923   20.6261 C   0  0  0  0  0  0  0  0  0  0  0  0
  -20.1078  -23.2054   28.8095 C   0  0  0  0  0  0  0  0  0  0  0  0
  -29.6561  -12.3914   18.3941 C   0  0  0  0  0  0  0  0  0  0  0  0
  -20.6728  -22.7508   27.4675 C   0  0  0  0  0  0  0  0  0  0  0  0
  -28.2116  -12.0827   18.7945 C   0  0  0  0  0  0  0  0  0  0  0  0
  -30.5330  -12.6789   19.6116 C   0  0  0  0  0  0  0  0  0  0  0  0
  -28.5742  -13.4062   20.9167 C   0  0  0  0  0  0  0  0  0  0  0  0
  -22.1942  -22.9363   27.4180 C   0  0  1  0  0  0  0  0  0  0  0  0
  -22.9416  -26.3505   25.9288 C   0  0  1  0  0  0  0  0  0  0  0  0
  -27.6379  -13.1737   19.7197 C   0  0  2  0  0  0  0  0  0  0  0  0
  -21.6634  -31.6841   20.4587 C   0  0  0  0  0  0  0  0  0  0  0  0
  -20.4692  -25.3908   22.1438 C   0  0  0  0  0  0  0  0  0  0  0  0
  -20.4043  -27.1970   20.4112 C   0  0  0  0  0  0  0  0  0  0  0  0
  -19.0961  -27.4468   22.5205 C   0  0  0  0  0  0  0  0  0  0  0  0
  -24.3538  -31.7868   23.1470 C   0  0  0  0  0  0  0  0  0  0  0  0
  -27.1109  -17.3348   22.6714 C   0  0  0  0  0  0  0  0  0  0  0  0
  -28.4276  -24.5021   22.1071 C   0  0  0  0  0  0  0  0  0  1  0  0
  -21.6143  -27.6612   22.5909 C   0  0  1  0  0  0  0  0  0  0  0  0
  -22.3319  -31.2911   21.7669 C   0  0  2  0  0  0  0  0  0  0  0  0
  -20.4205  -26.9168   21.9291 C   0  0  0  0  0  0  0  0  0  0  0  0
  -25.8686  -11.5641   20.3197 N   0  0  0  0  0  0  0  0  0  0  0  0
  -26.2220  -12.8507   20.1592 N   0  0  0  0  0  0  0  0  0  0  0  0
  -30.5602  -21.4636   21.3055 N   0  0  0  0  0  0  0  0  0  0  0  0
  -22.8789  -26.8058   24.5385 N   0  0  0  0  0  0  0  0  0  0  0  0
  -29.9288  -13.7252   20.4392 N   0  0  0  0  0  0  0  0  0  0  0  0
  -25.4028  -15.0679   20.3130 N   0  0  0  0  0  0  0  0  0  0  0  0
  -21.8389  -12.5564   21.4903 N   0  0  0  0  0  0  0  0  0  0  0  0
  -29.9660  -15.8412   21.4801 N   0  0  0  0  0  0  0  0  0  0  0  0
  -22.5266  -24.3260   27.1886 N   0  0  0  0  0  0  0  0  0  0  0  0
  -21.5797  -29.1105   22.4269 N   0  0  0  0  0  0  0  0  0  0  0  0
  -23.6032  -32.0583   21.8940 N   0  3  0  0  0  0  0  0  0  0  0  0
  -32.8978  -21.4152   20.9685 O   0  0  0  0  0  0  0  0  0  0  0  0
  -22.5772  -14.7023   21.1607 O   0  0  0  0  0  0  0  0  0  0  0  0
  -22.3575  -24.3246   24.8661 O   0  0  0  0  0  0  0  0  0  0  0  0
  -20.7564  -27.7344   24.8012 O   0  0  0  0  0  0  0  0  0  0  0  0
  -23.6324  -29.2951   21.3641 O   0  0  0  0  0  0  0  0  0  0  0  0
  -31.7924  -15.0823   20.2677 O   0  0  0  0  0  0  0  0  0  0  0  0
  -21.6787   -6.9950   21.7748 O   0  0  0  0  0  0  0  0  0  0  0  0
  -28.4405  -17.5222   23.1512 O   0  0  0  0  0  0  0  0  0  0  0  0
  -28.7090  -25.2014   23.3187 O   0  0  0  0  0  0  0  0  0  1  0  0
  -18.5659   -6.9219   26.3255 F   0  0  0  0  0  0  0  0  0  0  0  0
  -22.1168   -5.1248   23.7630 F   0  0  0  0  0  0  0  0  0  0  0  0
  1  2  1  0  0  0  0
  1  5  2  0  0  0  0
  2  6  2  0  0  0  0
  3 10  2  0  0  0  0
  3 18  1  0  0  0  0
  4 11  1  0  0  0  0
  4 18  2  0  0  0  0
  5 20  1  0  0  0  0
  6 22  1  0  0  0  0
  7 12  2  0  0  0  0
  7 21  1  0  0  0  0
  8  9  2  0  0  0  0
  8 24  1  0  0  0  0
  9 25  1  0  0  0  0
 10 26  1  0  0  0  0
 11 26  2  0  0  0  0
 12 27  1  0  0  0  0
 13 14  2  0  0  0  0
 13 28  1  0  0  0  0
 14 30  1  0  0  0  0
 15 23  1  0  0  0  0
 15 27  2  0  0  0  0
 16 24  2  0  0  0  0
 16 29  1  0  0  0  0
 17 30  2  0  0  0  0
 17 31  1  0  0  0  0
 18 32  1  0  0  0  0
 19 32  1  0  0  0  0
 19 33  2  0  0  0  0
 19 37  1  0  0  0  0
 20 22  2  0  0  0  0
 20 42  1  0  0  0  0
 21 23  2  0  0  0  0
 21 43  1  0  0  0  0
 22 53  1  0  0  0  0
 23 44  1  0  0  0  0
 24 68  1  0  0  0  0
 25 29  2  0  0  0  0
 25 73  1  0  0  0  0
 26 83  1  0  0  0  0
 27 85  1  0  0  0  0
 28 31  2  0  0  0  0
 28 83  1  0  0  0  0
 29 84  1  0  0  0  0
 30 86  1  0  0  0  0
 31 87  1  0  0  0  0
 32 66  2  0  0  0  0
 33 67  1  0  0  0  0
 33 71  1  0  0  0  0
 34 35  2  0  0  0  0
 34 68  1  0  0  0  0
 35 45  1  0  0  0  0
 35 62  1  0  0  0  0
 36 46  1  0  0  0  0
 36 68  1  0  0  0  0
 36 77  2  0  0  0  0
 37 72  1  0  0  0  0
 37 78  2  0  0  0  0
 38 54  1  0  0  0  0
 38 74  1  0  0  0  0
 38 79  2  0  0  0  0
 39 63  1  0  0  0  0
 39 69  1  0  0  0  0
 39 80  2  0  0  0  0
 40 64  1  0  0  0  0
 40 75  1  0  0  0  0
 40 81  2  0  0  0  0
 41 70  1  0  0  0  0
 41 73  1  0  0  0  0
 41 82  2  0  0  0  0
 42 47  1  0  0  0  0
 43 54  1  0  0  0  0
 44 69  1  0  0  0  0
 45 46  1  0  0  0  0
 47 49  1  0  0  0  0
 48 50  1  0  0  0  0
 48 51  1  0  0  0  0
 49 53  1  0  0  0  0
 50 55  1  0  0  0  0
 51 70  1  0  0  0  0
 52 55  1  0  0  0  0
 52 70  1  0  0  0  0
 53 74  1  0  0  0  0
 54 69  1  0  0  0  0
 55 67  1  0  0  0  0
 56 64  1  0  0  0  0
 57 65  1  0  0  0  0
 58 65  1  0  0  0  0
 59 65  1  0  0  0  0
 60 76  1  0  0  0  0
 61 84  1  0  0  0  0
 62 85  1  0  0  0  0
 63 65  1  0  0  0  0
 63 75  1  0  0  0  0
 64 76  1  0  0  0  0
 66 67  1  0  0  0  0
M  CHG  1  76   1
M  ISO  4  41 100  62 101  73 100  85 101
M  END
> <Batch ID>
0094

> <Smiles>
CNC(C)C(=O)NC(C(=O)N1Cc2cc([101O:1][101CH2:1]C3=CN(c4ccc([100NH:0][100C:0](=O)N5CCCC(n6nc(-c7ccc(Oc8ccc(F)cc8F)cc7)c(C(N)=O)c6N)C5)c(OC)c4)C(=O)CC3)ccc2CC1C(=O)NC1CCCc2ccccc21)C(C)(C)C

> <Shape>
0.270

> <Color>
0.209

> <Negative vol penalty>
0.000

$$$$

  -OEChem-04052300403D

 85 94  0     1  0  0  0  0  0999 V2000
  -33.6395  -25.8096   17.4405 C   0  0  0  0  0  0  0  0  0  0  0  0
  -32.8113  -25.1966   18.3752 C   0  0  0  0  0  0  0  0  0  0  0  0
  -30.7984  -17.9821   24.7165 C   0  0  0  0  0  0  0  0  0  0  0  0
  -24.2605   -8.7522   21.0920 C   0  0  0  0  0  0  0  0  0  0  0  0
  -24.7729  -10.1170   23.0186 C   0  0  0  0  0  0  0  0  0  0  0  0
  -29.7527  -18.3612   25.5582 C   0  0  0  0  0  0  0  0  0  0  0  0
  -33.8429  -27.1881   17.4890 C   0  0  0  0  0  0  0  0  0  0  0  0
  -32.1869  -25.9616   19.3597 C   0  0  0  0  0  0  0  0  0  0  0  0
  -27.3100  -24.7403   19.9672 C   0  0  0  0  0  0  0  0  0  0  0  0
  -30.5383  -17.2059   23.5871 C   0  0  0  0  0  0  0  0  0  0  0  0
  -23.9083   -7.6969   21.9332 C   0  0  0  0  0  0  0  0  0  0  0  0
  -24.4207   -9.0616   23.8599 C   0  0  0  0  0  0  0  0  0  0  0  0
  -27.0288  -23.5856   20.6962 C   0  0  0  0  0  0  0  0  0  0  0  0
  -21.2576   -6.8035   23.8329 C   0  0  0  0  0  0  0  0  0  0  0  0
  -20.0832   -6.1086   23.5443 C   0  0  0  0  0  0  0  0  0  0  0  0
  -28.1868  -17.1876   24.1413 C   0  0  0  0  0  0  0  0  0  0  0  0
  -26.5500  -24.9353   22.6375 C   0  0  0  0  0  0  0  0  0  0  0  0
  -21.3523   -4.0684   23.2917 C   0  0  0  0  0  0  0  0  0  0  0  0
  -24.6928   -9.9623   21.6347 C   0  0  0  0  0  0  0  0  0  0  0  0
  -28.4469  -17.9639   25.2706 C   0  0  0  0  0  0  0  0  0  0  0  0
  -24.2362  -11.6994   19.8232 C   0  0  0  0  0  0  0  0  0  0  0  0
  -33.2130  -27.9717   18.4687 C   0  0  0  0  0  0  0  0  0  0  0  0
  -27.2237  -26.0025   20.5718 C   0  0  0  0  0  0  0  0  0  0  0  0
  -32.3831  -27.3517   19.4222 C   0  0  0  0  0  0  0  0  0  0  0  0
  -26.8281  -26.1045   21.9132 C   0  0  0  0  0  0  0  0  0  0  0  0
  -29.2325  -16.8086   23.2996 C   0  0  0  0  0  0  0  0  0  0  0  0
  -23.9884   -7.8515   23.3172 C   0  0  0  0  0  0  0  0  0  0  0  0
  -26.6515  -23.6828   22.0324 C   0  0  0  0  0  0  0  0  0  0  0  0
  -22.4795   -6.1309   23.8509 C   0  0  0  0  0  0  0  0  0  0  0  0
  -20.1305   -4.7411   23.2737 C   0  0  0  0  0  0  0  0  0  0  0  0
  -22.5268   -4.7633   23.5803 C   0  0  0  0  0  0  0  0  0  0  0  0
  -25.0573  -11.0527   20.7662 C   0  0  0  0  0  0  0  0  0  0  0  0
  -25.0456  -12.6570   19.2625 C   0  0  0  0  0  0  0  0  0  0  0  0
  -27.3448  -18.3645   26.1595 C   0  0  0  0  0  0  0  0  0  0  0  0
  -22.8644  -11.4564   19.4844 C   0  0  0  0  0  0  0  0  0  0  0  0
  -29.2820  -28.3511   21.1649 C   0  0  0  0  0  0  0  0  0  0  0  0
  -26.6145  -29.9163   22.1431 C   0  0  0  0  0  0  0  0  0  0  0  0
  -23.4167  -29.7346   23.3211 C   0  0  0  0  0  0  0  0  0  0  0  0
  -29.8909  -15.5590   21.2136 C   0  0  0  0  0  0  0  0  0  0  0  0
  -33.5008  -29.4517   18.5101 C   0  0  0  0  0  0  0  0  0  0  0  0
  -27.5044  -27.2400   19.7642 C   0  0  0  0  0  0  0  0  0  0  0  0
  -26.7008  -27.4372   22.6033 C   0  0  0  0  0  0  0  0  0  0  0  0
  -32.5055  -30.2423   19.3554 C   0  0  0  0  0  0  0  0  0  0  0  0
  -29.6430  -13.5639   18.2749 C   0  0  0  0  0  0  0  0  0  0  0  0
  -32.2701  -29.5469   20.6926 C   0  0  0  0  0  0  0  0  0  0  0  0
  -28.3610  -12.7569   18.4918 C   0  0  0  0  0  0  0  0  0  0  0  0
  -25.3123  -21.4418   26.1970 C   0  0  0  0  0  0  0  0  0  0  0  0
  -30.4151  -13.7630   19.5781 C   0  0  0  0  0  0  0  0  0  0  0  0
  -25.5908  -20.0329   26.6975 C   0  0  0  0  0  0  0  0  0  0  0  0
  -26.9480  -20.4608   24.7580 C   0  0  0  0  0  0  0  0  0  0  0  0
  -28.3499  -13.5236   20.8999 C   0  0  0  0  0  0  0  0  0  0  0  0
  -31.6685  -28.1510   20.4901 C   0  0  1  0  0  0  0  0  0  0  0  0
  -27.8829  -28.4418   20.6244 C   0  0  1  0  0  0  0  0  0  0  0  0
  -25.7203  -21.3694   24.7237 C   0  0  2  0  0  0  0  0  0  0  0  0
  -27.5052  -13.3526   19.6268 C   0  0  2  0  0  0  0  0  0  0  0  0
  -21.5055  -31.1818   24.0630 C   0  0  0  0  0  0  0  0  0  0  0  0
  -28.0497  -30.4551   24.7812 C   0  0  0  0  0  0  0  0  0  0  0  0
  -25.8321  -31.0339   25.7891 C   0  0  0  0  0  0  0  0  0  0  0  0
  -26.7317  -32.3878   23.8970 C   0  0  0  0  0  0  0  0  0  0  0  0
  -21.6457  -28.6868   21.1940 C   0  0  0  0  0  0  0  0  0  0  0  0
  -25.9965  -22.7305   24.1109 C   0  0  0  0  0  0  0  0  0  1  0  0
  -25.8737  -30.0518   23.4514 C   0  0  1  0  0  0  0  0  0  0  0  0
  -22.1446  -30.4456   22.8958 C   0  0  2  0  0  0  0  0  0  0  0  0
  -26.6260  -30.9568   24.4675 C   0  0  0  0  0  0  0  0  0  0  0  0
  -26.2936  -11.5568   20.8051 N   0  0  0  0  0  0  0  0  0  0  0  0
  -26.2553  -12.5304   19.8795 N   0  0  0  0  0  0  0  0  0  0  0  0
  -26.7001  -19.5603   25.8826 N   0  0  0  0  0  0  0  0  0  0  0  0
  -26.9920  -28.6177   21.7731 N   0  0  0  0  0  0  0  0  0  0  0  0
  -29.5419  -14.3345   20.6056 N   0  0  0  0  0  0  0  0  0  0  0  0
  -24.8334  -13.5866   18.3068 N   0  0  0  0  0  0  0  0  0  0  0  0
  -22.1809  -10.4344   20.1573 N   0  0  0  0  0  0  0  0  0  0  0  0
  -28.9685  -16.0203   22.1521 N   0  0  0  0  0  0  0  0  0  0  0  0
  -30.2560  -28.2480   20.1902 N   0  0  0  0  0  0  0  0  0  0  0  0
  -24.5327  -30.5177   23.1150 N   0  0  0  0  0  0  0  0  0  0  0  0
  -21.1575  -29.4655   22.3611 N   0  3  0  0  0  0  0  0  0  0  0  0
  -27.0610  -17.6060   27.0845 O   0  0  0  0  0  0  0  0  0  0  0  0
  -22.2673  -12.1148   18.5992 O   0  0  0  0  0  0  0  0  0  0  0  0
  -29.4643  -28.3744   22.3764 O   0  0  0  0  0  0  0  0  0  0  0  0
  -26.8433  -30.9248   21.4705 O   0  0  0  0  0  0  0  0  0  0  0  0
  -23.4196  -28.5997   23.7927 O   0  0  0  0  0  0  0  0  0  0  0  0
  -30.9180  -16.1680   20.9034 O   0  0  0  0  0  0  0  0  0  0  0  0
  -23.6446   -6.8220   24.1384 O   0  0  0  0  0  0  0  0  0  0  0  0
  -26.3772  -22.5574   22.7465 O   0  0  0  0  0  0  0  0  0  1  0  0
  -19.0023   -4.0736   22.9981 F   0  0  0  0  0  0  0  0  0  0  0  0
  -23.6975   -4.1114   23.5973 F   0  0  0  0  0  0  0  0  0  0  0  0
  1  2  1  0  0  0  0
  1  7  2  0  0  0  0
  2  8  2  0  0  0  0
  3  6  2  0  0  0  0
  3 10  1  0  0  0  0
  4 11  2  0  0  0  0
  4 19  1  0  0  0  0
  5 12  1  0  0  0  0
  5 19  2  0  0  0  0
  6 20  1  0  0  0  0
  7 22  1  0  0  0  0
  8 24  1  0  0  0  0
  9 13  2  0  0  0  0
  9 23  1  0  0  0  0
 10 26  2  0  0  0  0
 11 27  1  0  0  0  0
 12 27  2  0  0  0  0
 13 28  1  0  0  0  0
 14 15  2  0  0  0  0
 14 29  1  0  0  0  0
 15 30  1  0  0  0  0
 16 20  2  0  0  0  0
 16 26  1  0  0  0  0
 17 25  1  0  0  0  0
 17 28  2  0  0  0  0
 18 30  2  0  0  0  0
 18 31  1  0  0  0  0
 19 32  1  0  0  0  0
 20 34  1  0  0  0  0
 21 32  1  0  0  0  0
 21 33  2  0  0  0  0
 21 35  1  0  0  0  0
 22 24  2  0  0  0  0
 22 40  1  0  0  0  0
 23 25  2  0  0  0  0
 23 41  1  0  0  0  0
 24 52  1  0  0  0  0
 25 42  1  0  0  0  0
 26 72  1  0  0  0  0
 27 82  1  0  0  0  0
 28 83  1  0  0  0  0
 29 31  2  0  0  0  0
 29 82  1  0  0  0  0
 30 84  1  0  0  0  0
 31 85  1  0  0  0  0
 32 65  2  0  0  0  0
 33 66  1  0  0  0  0
 33 70  1  0  0  0  0
 34 67  1  0  0  0  0
 34 76  2  0  0  0  0
 35 71  1  0  0  0  0
 35 77  2  0  0  0  0
 36 53  1  0  0  0  0
 36 73  1  0  0  0  0
 36 78  2  0  0  0  0
 37 62  1  0  0  0  0
 37 68  1  0  0  0  0
 37 79  2  0  0  0  0
 38 63  1  0  0  0  0
 38 74  1  0  0  0  0
 38 80  2  0  0  0  0
 39 69  1  0  0  0  0
 39 72  1  0  0  0  0
 39 81  2  0  0  0  0
 40 43  1  0  0  0  0
 41 53  1  0  0  0  0
 42 68  1  0  0  0  0
 43 45  1  0  0  0  0
 44 46  1  0  0  0  0
 44 48  1  0  0  0  0
 45 52  1  0  0  0  0
 46 55  1  0  0  0  0
 47 49  1  0  0  0  0
 47 54  1  0  0  0  0
 48 69  1  0  0  0  0
 49 67  1  0  0  0  0
 50 54  1  0  0  0  0
 50 67  1  0  0  0  0
 51 55  1  0  0  0  0
 51 69  1  0  0  0  0
 52 73  1  0  0  0  0
 53 68  1  0  0  0  0
 54 61  1  0  0  0  0
 55 66  1  0  0  0  0
 56 63  1  0  0  0  0
 57 64  1  0  0  0  0
 58 64  1  0  0  0  0
 59 64  1  0  0  0  0
 60 75  1  0  0  0  0
 61 83  1  0  0  0  0
 62 64  1  0  0  0  0
 62 74  1  0  0  0  0
 63 75  1  0  0  0  0
 65 66  1  0  0  0  0
M  CHG  1  75   1
M  ISO  4  39 100  61 101  72 100  83 101
M  END
> <Batch ID>
0094

> <Smiles>
CNC(C)C(=O)NC(C(=O)N1Cc2cc([101O:1][101CH2:1]C3CCN(C(=O)c4cccc([100NH:0][100C:0](=O)N5CCCC(n6nc(-c7ccc(Oc8ccc(F)cc8F)cc7)c(C(N)=O)c6N)C5)c4)C3)ccc2CC1C(=O)NC1CCCc2ccccc21)C(C)(C)C

> <Shape>
0.249

> <Color>
0.098

> <Negative vol penalty>
0.000

$$$$

  -OEChem-04052300403D

 87 95  0     1  0  0  0  0  0999 V2000
  -26.4359  -24.2484   17.0663 C   0  0  0  0  0  0  0  0  0  0  0  0
  -25.3264  -24.7244   17.7575 C   0  0  0  0  0  0  0  0  0  0  0  0
  -23.4633  -12.5336   19.3212 C   0  0  0  0  0  0  0  0  0  0  0  0
  -24.5153  -13.9818   20.9439 C   0  0  0  0  0  0  0  0  0  0  0  0
  -27.7189  -24.5053   17.5478 C   0  0  0  0  0  0  0  0  0  0  0  0
  -25.4993  -25.4568   18.9315 C   0  0  0  0  0  0  0  0  0  0  0  0
  -22.5466  -29.5672   19.1093 C   0  0  0  0  0  0  0  0  0  0  0  0
  -20.9432  -22.9445   21.8546 C   0  0  0  0  0  0  0  0  0  0  0  0
  -20.5238  -24.1937   22.3120 C   0  0  0  0  0  0  0  0  0  0  0  0
  -24.6188  -11.7541   19.2677 C   0  0  0  0  0  0  0  0  0  0  0  0
  -25.6708  -13.2023   20.8905 C   0  0  0  0  0  0  0  0  0  0  0  0
  -21.2051  -29.3738   19.4360 C   0  0  0  0  0  0  0  0  0  0  0  0
  -28.3297  -12.8266   18.8363 C   0  0  0  0  0  0  0  0  0  0  0  0
  -29.5545  -13.4885   18.7502 C   0  0  0  0  0  0  0  0  0  0  0  0
  -21.6645  -30.0597   21.7027 C   0  0  0  0  0  0  0  0  0  0  0  0
  -18.8390  -24.2615   20.5817 C   0  0  0  0  0  0  0  0  0  0  0  0
  -30.2525  -12.4668   20.8253 C   0  0  0  0  0  0  0  0  0  0  0  0
  -23.4115  -13.6475   20.1592 C   0  0  0  0  0  0  0  0  0  0  0  0
  -21.1186  -14.2859   21.0771 C   0  0  0  0  0  0  0  0  0  0  0  0
  -27.9078  -25.2495   18.7230 C   0  0  0  0  0  0  0  0  0  0  0  0
  -23.4608  -29.9985   20.0812 C   0  0  0  0  0  0  0  0  0  0  0  0
  -26.7859  -25.7229   19.4299 C   0  0  0  0  0  0  0  0  0  0  0  0
  -23.0165  -30.2602   21.3851 C   0  0  0  0  0  0  0  0  0  0  0  0
  -20.3106  -22.3538   20.7608 C   0  0  0  0  0  0  0  0  0  0  0  0
  -19.4717  -24.8522   21.6756 C   0  0  0  0  0  0  0  0  0  0  0  0
  -25.7225  -12.0884   20.0524 C   0  0  0  0  0  0  0  0  0  0  0  0
  -20.7644  -29.6173   20.7336 C   0  0  0  0  0  0  0  0  0  0  0  0
  -28.0663  -11.9849   19.9170 C   0  0  0  0  0  0  0  0  0  0  0  0
  -30.5159  -13.3086   19.7446 C   0  0  0  0  0  0  0  0  0  0  0  0
  -19.2584  -23.0123   20.1243 C   0  0  0  0  0  0  0  0  0  0  0  0
  -29.0277  -11.8050   20.9115 C   0  0  0  0  0  0  0  0  0  0  0  0
  -22.2184  -14.4534   20.2144 C   0  0  0  0  0  0  0  0  0  0  0  0
  -20.2560  -15.2982   20.7341 C   0  0  0  0  0  0  0  0  0  0  0  0
  -20.6919  -19.2759   22.0981 C   0  0  0  0  0  0  0  0  0  0  0  0
  -21.3748  -20.1616   21.3628 C   0  0  0  0  0  0  0  0  0  0  0  0
  -20.8967  -13.3033   22.0973 C   0  0  0  0  0  0  0  0  0  0  0  0
  -26.0864  -28.7756   21.3906 C   0  0  0  0  0  0  0  0  0  0  0  0
  -26.2676  -31.6889   22.8056 C   0  0  0  0  0  0  0  0  0  0  0  0
  -18.0227  -26.9118   21.6261 C   0  0  0  0  0  0  0  0  0  0  0  0
  -24.6511  -34.5044   23.8575 C   0  0  0  0  0  0  0  0  0  0  0  0
  -21.5202  -20.5820   17.9018 C   0  0  0  0  0  0  0  0  0  0  0  0
  -29.3123  -25.4615   19.2301 C   0  0  0  0  0  0  0  0  0  0  0  0
  -24.8993  -30.2280   19.7061 C   0  0  0  0  0  0  0  0  0  0  0  0
  -23.9539  -30.7440   22.4602 C   0  0  0  0  0  0  0  0  0  0  0  0
  -29.4211  -26.5651   20.2791 C   0  0  0  0  0  0  0  0  0  0  0  0
  -18.9657  -18.0446   17.0426 C   0  0  0  0  0  0  0  0  0  0  0  0
  -28.3237  -26.4149   21.3278 C   0  0  0  0  0  0  0  0  0  0  0  0
  -19.4667  -16.8044   17.7807 C   0  0  0  0  0  0  0  0  0  0  0  0
  -20.1100  -18.9795   16.6628 C   0  0  0  0  0  0  0  0  0  0  0  0
  -21.4692  -18.1384   18.5494 C   0  0  0  0  0  0  0  0  0  0  0  0
  -26.9333  -26.5423   20.6936 C   0  0  1  0  0  0  0  0  0  0  0  0
  -25.8443  -30.1760   20.9026 C   0  0  1  0  0  0  0  0  0  0  0  0
  -20.3363  -17.1981   18.9874 C   0  0  2  0  0  0  0  0  0  0  0  0
  -25.0586  -36.6944   25.0130 C   0  0  0  0  0  0  0  0  0  0  0  0
  -26.4595  -30.2379   25.4828 C   0  0  0  0  0  0  0  0  0  0  0  0
  -25.9092  -32.4015   26.6159 C   0  0  0  0  0  0  0  0  0  0  0  0
  -27.9873  -32.2041   25.2501 C   0  0  0  0  0  0  0  0  0  0  0  0
  -22.8298  -22.0367   19.4012 C   0  0  0  0  0  0  0  0  0  0  0  0
  -23.7382  -36.0487   21.5036 C   0  0  0  0  0  0  0  0  0  0  0  0
  -17.8984  -28.2054   22.4231 C   0  0  0  0  0  0  0  0  0  0  0  0
  -19.1658  -29.0462   22.3992 C   0  0  0  0  0  0  0  0  0  1  0  0
  -20.7610  -21.0169   20.2760 C   0  0  2  0  0  0  0  0  0  0  0  0
  -25.7436  -32.2891   24.0878 C   0  0  1  0  0  0  0  0  0  0  0  0
  -24.9708  -35.9772   23.6749 C   0  0  2  0  0  0  0  0  0  0  0  0
  -26.5074  -31.7722   25.3396 C   0  0  0  0  0  0  0  0  0  0  0  0
  -22.0705  -15.4903   19.3856 N   0  0  0  0  0  0  0  0  0  0  0  0
  -20.8675  -15.9835   19.7259 N   0  0  0  0  0  0  0  0  0  0  0  0
  -25.3519  -30.9473   22.0458 N   0  0  0  0  0  0  0  0  0  0  0  0
  -20.9457  -19.3029   17.8196 N   0  0  0  0  0  0  0  0  0  0  0  0
  -19.0415  -15.6600   21.1996 N   0  0  0  0  0  0  0  0  0  0  0  0
  -21.8857  -12.3353   22.3190 N   0  0  0  0  0  0  0  0  0  0  0  0
  -19.0474  -26.1205   22.1383 N   0  0  0  0  0  0  0  0  0  0  0  0
  -26.6208  -27.9316   20.4358 N   0  0  0  0  0  0  0  0  0  0  0  0
  -25.7950  -33.7364   23.9120 N   0  0  0  0  0  0  0  0  0  0  0  0
  -21.7296  -21.1077   19.1857 N   0  0  0  0  0  0  0  0  0  0  0  0
  -23.9161  -36.6384   22.8555 N   0  3  0  0  0  0  0  0  0  0  0  0
  -19.8451  -13.2743   22.7806 O   0  0  0  0  0  0  0  0  0  0  0  0
  -25.8104  -28.4829   22.5481 O   0  0  0  0  0  0  0  0  0  0  0  0
  -27.4441  -31.8773   22.4862 O   0  0  0  0  0  0  0  0  0  0  0  0
  -17.2922  -26.6590   20.6739 O   0  0  0  0  0  0  0  0  0  0  0  0
  -23.5017  -34.0784   23.9469 O   0  0  0  0  0  0  0  0  0  0  0  0
  -21.8195  -21.2217   16.8854 O   0  0  0  0  0  0  0  0  0  0  0  0
  -26.8501  -11.3279   20.0007 O   0  0  0  0  0  0  0  0  0  0  0  0
  -19.4557  -29.4287   21.0553 O   0  0  0  0  0  0  0  0  0  1  0  0
  -31.6926  -13.9430   19.6610 F   0  0  0  0  0  0  0  0  0  0  0  0
  -18.6443  -22.4527   19.0726 F   0  0  0  0  0  0  0  0  0  0  0  0
  -28.7808  -10.9967   21.9514 F   0  0  0  0  0  0  0  0  0  0  0  0
  1  2  1  0  0  0  0
  1  5  2  0  0  0  0
  2  6  2  0  0  0  0
  3 10  2  0  0  0  0
  3 18  1  0  0  0  0
  4 11  1  0  0  0  0
  4 18  2  0  0  0  0
  5 20  1  0  0  0  0
  6 22  1  0  0  0  0
  7 12  2  0  0  0  0
  7 21  1  0  0  0  0
  8  9  2  0  0  0  0
  8 24  1  0  0  0  0
  9 25  1  0  0  0  0
 10 26  1  0  0  0  0
 11 26  2  0  0  0  0
 12 27  1  0  0  0  0
 13 14  2  0  0  0  0
 13 28  1  0  0  0  0
 14 29  1  0  0  0  0
 15 23  1  0  0  0  0
 15 27  2  0  0  0  0
 16 25  2  0  0  0  0
 16 30  1  0  0  0  0
 17 29  2  0  0  0  0
 17 31  1  0  0  0  0
 18 32  1  0  0  0  0
 19 32  1  0  0  0  0
 19 33  2  0  0  0  0
 19 36  1  0  0  0  0
 20 22  2  0  0  0  0
 20 42  1  0  0  0  0
 21 23  2  0  0  0  0
 21 43  1  0  0  0  0
 22 51  1  0  0  0  0
 23 44  1  0  0  0  0
 24 30  2  0  0  0  0
 24 62  1  0  0  0  0
 25 72  1  0  0  0  0
 26 83  1  0  0  0  0
 27 84  1  0  0  0  0
 28 31  2  0  0  0  0
 28 83  1  0  0  0  0
 29 85  1  0  0  0  0
 30 86  1  0  0  0  0
 31 87  1  0  0  0  0
 32 66  2  0  0  0  0
 33 67  1  0  0  0  0
 33 70  1  0  0  0  0
 34 35  2  0  0  0  0
 35 62  1  0  0  0  0
 36 71  1  0  0  0  0
 36 77  2  0  0  0  0
 37 52  1  0  0  0  0
 37 73  1  0  0  0  0
 37 78  2  0  0  0  0
 38 63  1  0  0  0  0
 38 68  1  0  0  0  0
 38 79  2  0  0  0  0
 39 60  1  0  0  0  0
 39 72  1  0  0  0  0
 39 80  2  0  0  0  0
 40 64  1  0  0  0  0
 40 74  1  0  0  0  0
 40 81  2  0  0  0  0
 41 69  1  0  0  0  0
 41 75  1  0  0  0  0
 41 82  2  0  0  0  0
 42 45  1  0  0  0  0
 43 52  1  0  0  0  0
 44 68  1  0  0  0  0
 45 47  1  0  0  0  0
 46 48  1  0  0  0  0
 46 49  1  0  0  0  0
 47 51  1  0  0  0  0
 48 53  1  0  0  0  0
 49 69  1  0  0  0  0
 50 53  1  0  0  0  0
 50 69  1  0  0  0  0
 51 73  1  0  0  0  0
 52 68  1  0  0  0  0
 53 67  1  0  0  0  0
 54 64  1  0  0  0  0
 55 65  1  0  0  0  0
 56 65  1  0  0  0  0
 57 65  1  0  0  0  0
 58 75  1  0  0  0  0
 59 76  1  0  0  0  0
 60 61  1  0  0  0  0
 61 84  1  0  0  0  0
 62 75  1  0  0  0  0
 63 65  1  0  0  0  0
 63 74  1  0  0  0  0
 64 76  1  0  0  0  0
 66 67  1  0  0  0  0
M  CHG  1  76   1
M  ISO  4  41 100  61 101  75 100  84 101
M  END
> <Batch ID>
0094

> <Smiles>
C=CC(c1ccc(NC(=O)C[101CH2:1][101O:1]c2ccc3c(c2)CN(C(=O)C(NC(=O)C(C)NC)C(C)(C)C)C(C(=O)NC2CCCc4ccccc42)C3)cc1F)[100N:0](C)[100C:0](=O)N1CCCC(n2nc(-c3ccc(Oc4ccc(F)cc4F)cc3)c(C(N)=O)c2N)C1

> <Shape>
0.293

> <Color>
0.097

> <Negative vol penalty>
0.000

$$$$

  -OEChem-04052300403D

 84 93  0     1  0  0  0  0  0999 V2000
  -28.9306  -36.9327   20.1604 C   0  0  0  0  0  0  0  0  0  0  0  0
  -29.2100  -35.5917   19.9176 C   0  0  0  0  0  0  0  0  0  0  0  0
  -23.8448  -10.3524   22.6900 C   0  0  0  0  0  0  0  0  0  0  0  0
  -23.0572  -12.6360   22.6428 C   0  0  0  0  0  0  0  0  0  0  0  0
  -28.0590  -37.2868   21.1895 C   0  0  0  0  0  0  0  0  0  0  0  0
  -28.6187  -34.6039   20.7045 C   0  0  0  0  0  0  0  0  0  0  0  0
  -26.8418  -29.0293   18.8955 C   0  0  0  0  0  0  0  0  0  0  0  0
  -27.9894  -20.1010   20.7113 C   0  0  0  0  0  0  0  0  0  0  0  0
  -27.8823  -18.7627   20.3329 C   0  0  0  0  0  0  0  0  0  0  0  0
  -23.0951  -10.1176   23.8426 C   0  0  0  0  0  0  0  0  0  0  0  0
  -22.3074  -12.4012   23.7954 C   0  0  0  0  0  0  0  0  0  0  0  0
  -27.4441  -27.7756   18.9918 C   0  0  0  0  0  0  0  0  0  0  0  0
  -19.8664   -9.4943   24.6299 C   0  0  0  0  0  0  0  0  0  0  0  0
  -19.1218   -8.3164   24.6901 C   0  0  0  0  0  0  0  0  0  0  0  0
  -26.1800  -27.3289   20.9971 C   0  0  0  0  0  0  0  0  0  0  0  0
  -30.2561  -18.4751   20.6787 C   0  0  0  0  0  0  0  0  0  0  0  0
  -20.3576   -7.6355   26.6513 C   0  0  0  0  0  0  0  0  0  0  0  0
  -23.8259  -11.6116   22.0902 C   0  0  0  0  0  0  0  0  0  0  0  0
  -24.1854  -11.6844   19.5657 C   0  0  0  0  0  0  0  0  0  0  0  0
  -27.4493  -36.3024   21.9832 C   0  0  0  0  0  0  0  0  0  0  0  0
  -25.9106  -29.4473   19.8571 C   0  0  0  0  0  0  0  0  0  0  0  0
  -27.7393  -34.9452   21.7460 C   0  0  0  0  0  0  0  0  0  0  0  0
  -25.5653  -28.5873   20.9094 C   0  0  0  0  0  0  0  0  0  0  0  0
  -29.2298  -20.6264   21.0733 C   0  0  0  0  0  0  0  0  0  0  0  0
  -29.0157  -17.9498   20.3166 C   0  0  0  0  0  0  0  0  0  0  0  0
  -30.3631  -19.8134   21.0570 C   0  0  0  0  0  0  0  0  0  0  0  0
  -22.3264  -11.1420   24.3952 C   0  0  0  0  0  0  0  0  0  0  0  0
  -27.1154  -26.9264   20.0442 C   0  0  0  0  0  0  0  0  0  0  0  0
  -20.8566   -9.7429   25.5804 C   0  0  0  0  0  0  0  0  0  0  0  0
  -19.3674   -7.3870   25.7008 C   0  0  0  0  0  0  0  0  0  0  0  0
  -21.1022   -8.8135   26.5911 C   0  0  0  0  0  0  0  0  0  0  0  0
  -24.6006  -11.8550   20.8999 C   0  0  0  0  0  0  0  0  0  0  0  0
  -25.2783  -12.0467   18.8169 C   0  0  0  0  0  0  0  0  0  0  0  0
  -29.0523  -24.2579   21.4631 C   0  0  0  0  0  0  0  0  0  0  0  0
  -28.4331  -25.4260   21.2622 C   0  0  0  0  0  0  0  0  0  1  0  0
  -22.9244  -11.2383   19.0493 C   0  0  0  0  0  0  0  0  0  0  0  0
  -25.7747  -31.8234   21.9640 C   0  0  0  0  0  0  0  0  0  0  0  0
  -22.7742  -30.6942   22.4582 C   0  0  0  0  0  0  0  0  0  0  0  0
  -20.6020  -28.0677   22.2853 C   0  0  0  0  0  0  0  0  0  0  0  0
  -29.9311  -15.6471   19.8628 C   0  0  0  0  0  0  0  0  0  0  0  0
  -26.5509  -36.7358   23.1144 C   0  0  0  0  0  0  0  0  0  0  0  0
  -25.2499  -30.7920   19.7242 C   0  0  0  0  0  0  0  0  0  0  0  0
  -24.5565  -28.9804   21.9563 C   0  0  0  0  0  0  0  0  0  0  0  0
  -29.8620  -23.9100   22.6719 C   0  0  0  0  0  0  0  0  0  0  0  0
  -28.9417  -23.0608   20.5674 C   0  0  0  0  0  0  0  0  0  0  0  0
  -25.6746  -35.6117   23.6611 C   0  0  0  0  0  0  0  0  0  0  0  0
  -30.0614  -12.1949   19.0011 C   0  0  0  0  0  0  0  0  0  0  0  0
  -26.5016  -34.3490   23.8811 C   0  0  0  0  0  0  0  0  0  0  0  0
  -28.6365  -11.7018   19.2631 C   0  0  0  0  0  0  0  0  0  0  0  0
  -29.6634  -22.4016   22.7910 C   0  0  0  0  0  0  0  0  0  0  0  0
  -30.5003  -13.2341   20.0313 C   0  0  0  0  0  0  0  0  0  0  0  0
  -28.1608  -13.8782   20.4564 C   0  0  0  0  0  0  0  0  0  0  0  0
  -27.0983  -33.8436   22.5619 C   0  0  1  0  0  0  0  0  0  0  0  0
  -24.6980  -31.3196   21.0450 C   0  0  1  0  0  0  0  0  0  0  0  0
  -27.6506  -12.8778   19.4063 C   0  0  2  0  0  0  0  0  0  0  0  0
  -18.2270  -27.4386   22.7964 C   0  0  0  0  0  0  0  0  0  0  0  0
  -23.4580  -30.5345   25.4275 C   0  0  0  0  0  0  0  0  0  0  0  0
  -21.4654  -29.0503   25.7353 C   0  0  0  0  0  0  0  0  0  0  0  0
  -21.1619  -31.3919   24.9305 C   0  0  0  0  0  0  0  0  0  0  0  0
  -20.0324  -27.4510   19.4473 C   0  0  0  0  0  0  0  0  0  0  0  0
  -22.1564  -29.6654   23.3741 C   0  0  1  0  0  0  0  0  0  0  0  0
  -19.1885  -27.9636   21.7416 C   0  0  2  0  0  0  0  0  0  0  0  0
  -22.0809  -30.1536   24.8484 C   0  0  0  0  0  0  0  0  0  0  0  0
  -25.8592  -12.2916   20.9964 N   0  0  0  0  0  0  0  0  0  0  0  0
  -26.2443  -12.3983   19.7133 N   0  0  0  0  0  0  0  0  0  0  0  0
  -29.3135  -21.9539   21.4450 N   0  0  3  0  0  0  0  0  0  0  0  0
  -23.9426  -30.3078   21.7864 N   0  0  0  0  0  0  0  0  0  0  0  0
  -29.5206  -14.3199   20.1092 N   0  0  0  0  0  0  0  0  0  0  0  0
  -31.6289  -20.3256   21.4203 N   0  0  0  0  0  0  0  0  0  0  0  0
  -25.4977  -12.0957   17.4858 N   0  0  0  0  0  0  0  0  0  0  0  0
  -21.9101  -10.9064   19.9577 N   0  0  0  0  0  0  0  0  0  0  0  0
  -28.9062  -16.5901   19.9331 N   0  0  0  0  0  0  0  0  0  0  0  0
  -26.0914  -33.1561   21.7823 N   0  0  0  0  0  0  0  0  0  0  0  0
  -20.8636  -29.3235   22.7909 N   0  0  0  0  0  0  0  0  0  0  0  0
  -19.1504  -27.0424   20.5707 N   0  3  0  0  0  0  0  0  0  0  0  0
  -22.7091  -11.1213   17.8190 O   0  0  0  0  0  0  0  0  0  0  0  0
  -26.2796  -31.0599   22.7787 O   0  0  0  0  0  0  0  0  0  0  0  0
  -22.2357  -31.7975   22.3375 O   0  0  0  0  0  0  0  0  0  0  0  0
  -21.3936  -27.1277   22.2669 O   0  0  0  0  0  0  0  0  0  0  0  0
  -31.1001  -15.9231   19.5813 O   0  0  0  0  0  0  0  0  0  0  0  0
  -21.5944  -10.9132   25.5197 O   0  0  0  0  0  0  0  0  0  0  0  0
  -27.7023  -25.7024   20.1409 O   0  0  0  0  0  0  0  0  0  1  0  0
  -18.6512   -6.2565   25.7594 F   0  0  0  0  0  0  0  0  0  0  0  0
  -22.0514   -9.0472   27.5077 F   0  0  0  0  0  0  0  0  0  0  0  0
  1  2  1  0  0  0  0
  1  5  2  0  0  0  0
  2  6  2  0  0  0  0
  3 10  2  0  0  0  0
  3 18  1  0  0  0  0
  4 11  1  0  0  0  0
  4 18  2  0  0  0  0
  5 20  1  0  0  0  0
  6 22  1  0  0  0  0
  7 12  2  0  0  0  0
  7 21  1  0  0  0  0
  8  9  2  0  0  0  0
  8 24  1  0  0  0  0
  9 25  1  0  0  0  0
 10 27  1  0  0  0  0
 11 27  2  0  0  0  0
 12 28  1  0  0  0  0
 13 14  2  0  0  0  0
 13 29  1  0  0  0  0
 14 30  1  0  0  0  0
 15 23  1  0  0  0  0
 15 28  2  0  0  0  0
 16 25  2  0  0  0  0
 16 26  1  0  0  0  0
 17 30  2  0  0  0  0
 17 31  1  0  0  0  0
 18 32  1  0  0  0  0
 19 32  1  0  0  0  0
 19 33  2  0  0  0  0
 19 36  1  0  0  0  0
 20 22  2  0  0  0  0
 20 41  1  0  0  0  0
 21 23  2  0  0  0  0
 21 42  1  0  0  0  0
 22 53  1  0  0  0  0
 23 43  1  0  0  0  0
 24 26  2  0  0  0  0
 24 66  1  0  0  0  0
 25 72  1  0  0  0  0
 26 69  1  0  0  0  0
 27 81  1  0  0  0  0
 28 82  1  0  0  0  0
 29 31  2  0  0  0  0
 29 81  1  0  0  0  0
 30 83  1  0  0  0  0
 31 84  1  0  0  0  0
 32 64  2  0  0  0  0
 33 65  1  0  0  0  0
 33 70  1  0  0  0  0
 34 35  2  0  0  0  0
 34 44  1  0  0  0  0
 34 45  1  0  0  0  0
 35 82  1  0  0  0  0
 36 71  1  0  0  0  0
 36 76  2  0  0  0  0
 37 54  1  0  0  0  0
 37 73  1  0  0  0  0
 37 77  2  0  0  0  0
 38 61  1  0  0  0  0
 38 67  1  0  0  0  0
 38 78  2  0  0  0  0
 39 62  1  0  0  0  0
 39 74  1  0  0  0  0
 39 79  2  0  0  0  0
 40 68  1  0  0  0  0
 40 72  1  0  0  0  0
 40 80  2  0  0  0  0
 41 46  1  0  0  0  0
 42 54  1  0  0  0  0
 43 67  1  0  0  0  0
 44 50  1  0  0  0  0
 45 66  1  0  0  0  0
 46 48  1  0  0  0  0
 47 49  1  0  0  0  0
 47 51  1  0  0  0  0
 48 53  1  0  0  0  0
 49 55  1  0  0  0  0
 50 66  1  0  0  0  0
 51 68  1  0  0  0  0
 52 55  1  0  0  0  0
 52 68  1  0  0  0  0
 53 73  1  0  0  0  0
 54 67  1  0  0  0  0
 55 65  1  0  0  0  0
 56 62  1  0  0  0  0
 57 63  1  0  0  0  0
 58 63  1  0  0  0  0
 59 63  1  0  0  0  0
 60 75  1  0  0  0  0
 61 63  1  0  0  0  0
 61 74  1  0  0  0  0
 62 75  1  0  0  0  0
 64 65  1  0  0  0  0
M  CHG  1  75   1
M  ISO  4  35 101  40 100  72 100  82 101
M  END
> <Batch ID>
0094

> <Smiles>
CNC(C)C(=O)NC(C(=O)N1Cc2cc([101O:1][101CH:1]=C3CCN(c4ccc([100NH:0][100C:0](=O)N5CCCC(n6nc(-c7ccc(Oc8ccc(F)cc8F)cc7)c(C(N)=O)c6N)C5)cc4N)C3)ccc2CC1C(=O)NC1CCCc2ccccc21)C(C)(C)C

> <Shape>
0.290

> <Color>
0.088

> <Negative vol penalty>
0.000

$$$$

  -OEChem-04052300403D

 86 95  0     1  0  0  0  0  0999 V2000
  -23.8115  -38.2557   19.7755 C   0  0  0  0  0  0  0  0  0  0  0  0
  -24.8022  -37.5280   20.4270 C   0  0  0  0  0  0  0  0  0  0  0  0
  -23.5311  -10.6408   23.2796 C   0  0  0  0  0  0  0  0  0  0  0  0
  -24.6525   -9.0642   21.8325 C   0  0  0  0  0  0  0  0  0  0  0  0
  -22.4803  -37.8502   19.8608 C   0  0  0  0  0  0  0  0  0  0  0  0
  -24.4621  -36.3949   21.1651 C   0  0  0  0  0  0  0  0  0  0  0  0
  -27.2822  -29.9569   19.5872 C   0  0  0  0  0  0  0  0  0  0  0  0
  -28.7596  -18.3259   22.4014 C   0  0  0  0  0  0  0  0  0  0  0  0
  -28.3568  -19.5710   21.9186 C   0  0  0  0  0  0  0  0  0  0  0  0
  -23.1661   -9.5989   24.1320 C   0  0  0  0  0  0  0  0  0  0  0  0
  -24.2874   -8.0222   22.6849 C   0  0  0  0  0  0  0  0  0  0  0  0
  -27.9391  -28.7308   19.4814 C   0  0  0  0  0  0  0  0  0  0  0  0
  -21.5311   -6.1685   23.3153 C   0  0  0  0  0  0  0  0  0  0  0  0
  -21.0262   -5.0042   22.7364 C   0  0  0  0  0  0  0  0  0  0  0  0
  -26.5424  -27.8194   21.2326 C   0  0  0  0  0  0  0  0  0  0  0  0
  -30.4632  -19.8023   20.7580 C   0  0  0  0  0  0  0  0  0  0  0  0
  -22.8365   -3.7349   23.7103 C   0  0  0  0  0  0  0  0  0  0  0  0
  -24.2743  -10.3735   22.1298 C   0  0  0  0  0  0  0  0  0  0  0  0
  -23.7908  -12.3267   20.5617 C   0  0  0  0  0  0  0  0  0  0  0  0
  -22.1248  -36.7060   20.5924 C   0  0  0  0  0  0  0  0  0  0  0  0
  -26.2414  -30.1145   20.5065 C   0  0  0  0  0  0  0  0  0  0  0  0
  -23.1246  -35.9745   21.2614 C   0  0  0  0  0  0  0  0  0  0  0  0
  -25.8724  -29.0415   21.3343 C   0  0  0  0  0  0  0  0  0  0  0  0
  -30.0142  -17.8191   22.0626 C   0  0  0  0  0  0  0  0  0  0  0  0
  -29.2086  -20.3092   21.0968 C   0  0  0  0  0  0  0  0  0  0  0  0
  -23.5442   -8.2896   23.8347 C   0  0  0  0  0  0  0  0  0  0  0  0
  -27.5702  -27.6648   20.3023 C   0  0  0  0  0  0  0  0  0  0  0  0
  -22.6888   -6.1160   24.0917 C   0  0  0  0  0  0  0  0  0  0  0  0
  -21.6789   -3.7874   22.9339 C   0  0  0  0  0  0  0  0  0  0  0  0
  -30.8660  -18.5573   21.2409 C   0  0  0  0  0  0  0  0  0  0  0  0
  -23.3415   -4.8992   24.2892 C   0  0  0  0  0  0  0  0  0  0  0  0
  -24.6512  -11.4494   21.2485 C   0  0  0  0  0  0  0  0  0  0  0  0
  -24.6331  -13.1587   19.8654 C   0  0  0  0  0  0  0  0  0  0  0  0
  -27.9965  -24.1441   19.7250 C   0  0  0  0  0  0  0  0  0  0  0  0
  -27.4710  -25.3693   19.8619 C   0  0  0  0  0  0  0  0  0  1  0  0
  -22.3582  -12.3845   20.5538 C   0  0  0  0  0  0  0  0  0  0  0  0
  -23.6392  -32.3852   21.9723 C   0  0  0  0  0  0  0  0  0  0  0  0
  -22.3422  -29.6217   21.6700 C   0  0  0  0  0  0  0  0  0  0  0  0
  -21.1627  -26.5457   20.7846 C   0  0  0  0  0  0  0  0  0  0  0  0
  -30.3124  -14.8530   20.7176 C   0  0  0  0  0  0  0  0  0  0  0  0
  -20.6669  -36.3337   20.6947 C   0  0  0  0  0  0  0  0  0  0  0  0
  -25.5470  -31.4356   20.6975 C   0  0  0  0  0  0  0  0  0  0  0  0
  -24.7702  -29.2673   22.3329 C   0  0  0  0  0  0  0  0  0  0  0  0
  -27.1758  -22.9393   19.3620 C   0  0  0  0  0  0  0  0  0  0  0  0
  -29.4537  -23.8507   19.9441 C   0  0  0  0  0  0  0  0  0  0  0  0
  -20.4355  -34.9078   21.1880 C   0  0  0  0  0  0  0  0  0  0  0  0
  -28.9643  -13.2559   17.8351 C   0  0  0  0  0  0  0  0  0  0  0  0
  -21.3099  -34.6148   22.4031 C   0  0  0  0  0  0  0  0  0  0  0  0
  -27.6284  -12.6910   18.3211 C   0  0  0  0  0  0  0  0  0  0  0  0
  -27.3744  -21.8130   20.3794 C   0  0  0  0  0  0  0  0  0  0  0  0
  -29.6342  -22.7234   20.9624 C   0  0  0  0  0  0  0  0  0  0  0  0
  -30.0389  -13.1738   18.9170 C   0  0  0  0  0  0  0  0  0  0  0  0
  -28.3308  -13.2193   20.6931 C   0  0  0  0  0  0  0  0  0  0  0  0
  -22.7983  -34.7256   22.0513 C   0  0  1  0  0  0  0  0  0  0  0  0
  -24.0525  -31.2886   21.0353 C   0  0  1  0  0  0  0  0  0  0  0  0
  -27.2009  -13.3315   19.6553 C   0  0  2  0  0  0  0  0  0  0  0  0
  -19.0862  -25.1382   20.8514 C   0  0  0  0  0  0  0  0  0  0  0  0
  -22.7887  -29.1106   24.6438 C   0  0  0  0  0  0  0  0  0  0  0  0
  -21.3669  -27.0607   24.4324 C   0  0  0  0  0  0  0  0  0  0  0  0
  -20.3891  -29.3081   23.9676 C   0  0  0  0  0  0  0  0  0  0  0  0
  -21.0651  -26.3436   17.8336 C   0  0  0  0  0  0  0  0  0  0  0  0
  -30.4418  -16.4874   22.5806 C   0  0  0  0  0  0  0  0  0  0  0  0
  -22.0172  -28.2993   22.3173 C   0  0  1  0  0  0  0  0  0  0  0  0
  -19.9105  -26.1235   20.0375 C   0  0  2  0  0  0  0  0  0  0  0  0
  -21.6636  -28.4480   23.8240 C   0  0  0  0  0  0  0  0  0  0  0  0
  -25.9412  -11.7005   21.0101 N   0  0  0  0  0  0  0  0  0  0  0  0
  -25.8976  -12.7449   20.1656 N   0  0  0  0  0  0  0  0  0  0  0  0
  -28.8035  -21.5591   20.6120 N   0  0  0  0  0  0  0  0  0  0  0  0
  -23.6793  -30.0349   21.7120 N   0  0  0  0  0  0  0  0  0  0  0  0
  -29.5711  -13.8005   20.1558 N   0  0  0  0  0  0  0  0  0  0  0  0
  -24.4081  -14.1963   19.0318 N   0  0  0  0  0  0  0  0  0  0  0  0
  -21.6477  -11.4550   21.3256 N   0  0  0  0  0  0  0  0  0  0  0  0
  -23.2384  -33.5457   21.3382 N   0  0  0  0  0  0  0  0  0  0  0  0
  -20.9591  -27.6996   21.5115 N   0  0  0  0  0  0  0  0  0  0  0  0
  -29.7957  -15.3949   21.8881 N   0  0  0  0  0  0  0  0  0  0  0  0
  -20.2720  -25.4779   18.7439 N   0  3  0  0  0  0  0  0  0  0  0  0
  -21.7265  -13.2248   19.8694 O   0  0  0  0  0  0  0  0  0  0  0  0
  -23.6790  -32.1934   23.1819 O   0  0  0  0  0  0  0  0  0  0  0  0
  -21.4361  -30.2755   21.1457 O   0  0  0  0  0  0  0  0  0  0  0  0
  -22.2150  -25.9129   20.7318 O   0  0  0  0  0  0  0  0  0  0  0  0
  -31.3544  -15.2819   20.2104 O   0  0  0  0  0  0  0  0  0  0  0  0
  -23.1884   -7.2726   24.6664 O   0  0  0  0  0  0  0  0  0  0  0  0
  -28.2127  -26.4691   20.1907 O   0  0  0  0  0  0  0  0  0  1  0  0
  -21.1930   -2.6692   22.3791 F   0  0  0  0  0  0  0  0  0  0  0  0
  -32.0739  -18.0790   20.9109 F   0  0  0  0  0  0  0  0  0  0  0  0
  -24.4534   -4.8422   25.0350 F   0  0  0  0  0  0  0  0  0  0  0  0
  1  2  1  0  0  0  0
  1  5  2  0  0  0  0
  2  6  2  0  0  0  0
  3 10  2  0  0  0  0
  3 18  1  0  0  0  0
  4 11  1  0  0  0  0
  4 18  2  0  0  0  0
  5 20  1  0  0  0  0
  6 22  1  0  0  0  0
  7 12  2  0  0  0  0
  7 21  1  0  0  0  0
  8  9  2  0  0  0  0
  8 24  1  0  0  0  0
  9 25  1  0  0  0  0
 10 26  1  0  0  0  0
 11 26  2  0  0  0  0
 12 27  1  0  0  0  0
 13 14  2  0  0  0  0
 13 28  1  0  0  0  0
 14 29  1  0  0  0  0
 15 23  1  0  0  0  0
 15 27  2  0  0  0  0
 16 25  2  0  0  0  0
 16 30  1  0  0  0  0
 17 29  2  0  0  0  0
 17 31  1  0  0  0  0
 18 32  1  0  0  0  0
 19 32  1  0  0  0  0
 19 33  2  0  0  0  0
 19 36  1  0  0  0  0
 20 22  2  0  0  0  0
 20 41  1  0  0  0  0
 21 23  2  0  0  0  0
 21 42  1  0  0  0  0
 22 54  1  0  0  0  0
 23 43  1  0  0  0  0
 24 30  2  0  0  0  0
 24 62  1  0  0  0  0
 25 68  1  0  0  0  0
 26 82  1  0  0  0  0
 27 83  1  0  0  0  0
 28 31  2  0  0  0  0
 28 82  1  0  0  0  0
 29 84  1  0  0  0  0
 30 85  1  0  0  0  0
 31 86  1  0  0  0  0
 32 66  2  0  0  0  0
 33 67  1  0  0  0  0
 33 71  1  0  0  0  0
 34 35  2  0  0  0  0
 34 44  1  0  0  0  0
 34 45  1  0  0  0  0
 35 83  1  0  0  0  0
 36 72  1  0  0  0  0
 36 77  2  0  0  0  0
 37 55  1  0  0  0  0
 37 73  1  0  0  0  0
 37 78  2  0  0  0  0
 38 63  1  0  0  0  0
 38 69  1  0  0  0  0
 38 79  2  0  0  0  0
 39 64  1  0  0  0  0
 39 74  1  0  0  0  0
 39 80  2  0  0  0  0
 40 70  1  0  0  0  0
 40 75  1  0  0  0  0
 40 81  2  0  0  0  0
 41 46  1  0  0  0  0
 42 55  1  0  0  0  0
 43 69  1  0  0  0  0
 44 50  1  0  0  0  0
 45 51  1  0  0  0  0
 46 48  1  0  0  0  0
 47 49  1  0  0  0  0
 47 52  1  0  0  0  0
 48 54  1  0  0  0  0
 49 56  1  0  0  0  0
 50 68  1  0  0  0  0
 51 68  1  0  0  0  0
 52 70  1  0  0  0  0
 53 56  1  0  0  0  0
 53 70  1  0  0  0  0
 54 73  1  0  0  0  0
 55 69  1  0  0  0  0
 56 67  1  0  0  0  0
 57 64  1  0  0  0  0
 58 65  1  0  0  0  0
 59 65  1  0  0  0  0
 60 65  1  0  0  0  0
 61 76  1  0  0  0  0
 62 75  1  0  0  0  0
 63 65  1  0  0  0  0
 63 74  1  0  0  0  0
 64 76  1  0  0  0  0
 66 67  1  0  0  0  0
M  CHG  1  76   1
M  ISO  4  35 101  40 100  75 100  83 101
M  END
> <Batch ID>
0094

> <Smiles>
CNC(C)C(=O)NC(C(=O)N1Cc2cc([101O:1][101CH:1]=C3CCN(c4ccc(C[100NH:0][100C:0](=O)N5CCCC(n6nc(-c7ccc(Oc8ccc(F)cc8F)cc7)c(C(N)=O)c6N)C5)c(F)c4)CC3)ccc2CC1C(=O)NC1CCCc2ccccc21)C(C)(C)C

> <Shape>
0.320

> <Color>
0.132

> <Negative vol penalty>
0.000

$$$$

  -OEChem-04052300403D

 83 91  0     1  0  0  0  0  0999 V2000
  -30.8402  -31.8042   24.9253 C   0  0  0  0  0  0  0  0  0  0  0  0
  -30.3471  -30.6731   24.2827 C   0  0  0  0  0  0  0  0  0  0  0  0
  -24.6260   -8.9690   21.3580 C   0  0  0  0  0  0  0  0  0  0  0  0
  -23.3460  -10.8347   22.2054 C   0  0  0  0  0  0  0  0  0  0  0  0
  -29.9675  -32.6580   25.5987 C   0  0  0  0  0  0  0  0  0  0  0  0
  -28.9812  -30.3946   24.3141 C   0  0  0  0  0  0  0  0  0  0  0  0
  -27.1746  -29.0189   19.7876 C   0  0  0  0  0  0  0  0  0  0  0  0
  -28.2109  -19.0664   20.3086 C   0  0  0  0  0  0  0  0  0  0  0  0
  -27.7786  -20.3797   20.1246 C   0  0  0  0  0  0  0  0  0  0  0  0
  -24.0710   -8.1439   22.3361 C   0  0  0  0  0  0  0  0  0  0  0  0
  -22.7909  -10.0096   23.1835 C   0  0  0  0  0  0  0  0  0  0  0  0
  -27.4244  -27.7115   19.3729 C   0  0  0  0  0  0  0  0  0  0  0  0
  -21.1630   -6.4964   22.8484 C   0  0  0  0  0  0  0  0  0  0  0  0
  -20.7117   -5.2368   22.4542 C   0  0  0  0  0  0  0  0  0  0  0  0
  -25.1947  -27.0796   20.0427 C   0  0  0  0  0  0  0  0  0  0  0  0
  -26.1747  -18.5643   21.5082 C   0  0  0  0  0  0  0  0  0  0  0  0
  -22.2641   -4.2005   23.9882 C   0  0  0  0  0  0  0  0  0  0  0  0
  -24.2636  -10.3144   21.2927 C   0  0  0  0  0  0  0  0  0  0  0  0
  -24.3353  -11.4104   18.9902 C   0  0  0  0  0  0  0  0  0  0  0  0
  -28.5890  -32.3950   25.6302 C   0  0  0  0  0  0  0  0  0  0  0  0
  -25.9347  -29.3646   20.3439 C   0  0  0  0  0  0  0  0  0  0  0  0
  -28.0894  -31.2449   24.9896 C   0  0  0  0  0  0  0  0  0  0  0  0
  -24.9308  -28.3927   20.4612 C   0  0  0  0  0  0  0  0  0  0  0  0
  -27.4089  -18.1587   21.0004 C   0  0  0  0  0  0  0  0  0  0  0  0
  -26.5444  -20.7854   20.6324 C   0  0  0  0  0  0  0  0  0  0  0  0
  -23.1534   -8.6642   23.2489 C   0  0  0  0  0  0  0  0  0  0  0  0
  -26.4354  -26.7409   19.5031 C   0  0  0  0  0  0  0  0  0  0  0  0
  -22.1649   -6.6080   23.8124 C   0  0  0  0  0  0  0  0  0  0  0  0
  -25.7424  -19.8777   21.3242 C   0  0  0  0  0  0  0  0  0  0  0  0
  -21.2622   -4.0889   23.0241 C   0  0  0  0  0  0  0  0  0  0  0  0
  -22.7154   -5.4601   24.3823 C   0  0  0  0  0  0  0  0  0  0  0  0
  -24.8371  -11.1673   20.2829 C   0  0  0  0  0  0  0  0  0  0  0  0
  -25.2360  -12.2835   18.4308 C   0  0  0  0  0  0  0  0  0  0  0  0
  -23.1600  -10.8933   18.3522 C   0  0  0  0  0  0  0  0  0  0  0  0
  -24.9716  -30.4725   23.1633 C   0  0  0  0  0  0  0  0  0  0  0  0
  -22.0980  -30.6602   21.6702 C   0  0  0  0  0  0  0  0  0  0  0  0
  -26.7995  -23.1383   19.7762 C   0  0  0  0  0  0  0  0  0  0  0  0
  -20.0560  -29.5588   19.1674 C   0  0  0  0  0  0  0  0  0  0  0  0
  -29.0458  -16.2604   20.7491 C   0  0  0  0  0  0  0  0  0  0  0  0
  -27.6908  -33.3215   26.4109 C   0  0  0  0  0  0  0  0  0  0  0  0
  -25.6718  -30.7855   20.7617 C   0  0  0  0  0  0  0  0  0  0  0  0
  -23.5759  -28.7171   21.0333 C   0  0  0  0  0  0  0  0  0  0  0  0
  -26.2098  -33.1564   26.0796 C   0  0  0  0  0  0  0  0  0  0  0  0
  -29.8570  -13.5266   18.6170 C   0  0  0  0  0  0  0  0  0  0  0  0
  -25.8286  -31.6796   26.0599 C   0  0  0  0  0  0  0  0  0  0  0  0
  -28.6137  -12.6365   18.6798 C   0  0  0  0  0  0  0  0  0  0  0  0
  -30.1557  -14.1797   19.9654 C   0  0  0  0  0  0  0  0  0  0  0  0
  -27.7879  -14.0202   20.6267 C   0  0  0  0  0  0  0  0  0  0  0  0
  -26.6110  -30.9222   24.9802 C   0  0  1  0  0  0  0  0  0  0  0  0
  -24.5503  -30.9086   21.7885 C   0  0  1  0  0  0  0  0  0  0  0  0
  -27.4094  -13.3918   19.2756 C   0  0  2  0  0  0  0  0  0  0  0  0
  -17.7518  -29.8712   18.2239 C   0  0  0  0  0  0  0  0  0  0  0  0
  -20.9375  -29.0229   23.9686 C   0  0  0  0  0  0  0  0  0  0  0  0
  -18.9337  -28.5658   22.5390 C   0  0  0  0  0  0  0  0  0  0  0  0
  -19.4877  -30.9080   23.1945 C   0  0  0  0  0  0  0  0  0  0  0  0
  -21.1210  -30.4690   16.5604 C   0  0  0  0  0  0  0  0  0  0  0  0
  -24.5204  -20.7681   23.1599 C   0  0  0  0  0  0  0  0  0  0  0  0
  -25.9918  -24.4227   19.7950 C   0  0  0  0  0  0  0  0  0  1  0  0
  -20.9267  -29.7261   21.4844 C   0  0  1  0  0  0  0  0  0  0  0  0
  -19.2068  -30.3086   18.1569 C   0  0  2  0  0  0  0  0  0  0  0  0
  -20.0975  -29.5488   22.7876 C   0  0  0  0  0  0  0  0  0  0  0  0
  -25.9688  -11.8322   20.5301 N   0  0  0  0  0  0  0  0  0  0  0  0
  -26.1857  -12.5015   19.3851 N   0  0  0  0  0  0  0  0  0  0  0  0
  -23.3695  -30.1189   21.4332 N   0  0  0  0  0  0  0  0  0  0  0  0
  -28.9709  -14.8801   20.4660 N   0  0  0  0  0  0  0  0  0  0  0  0
  -25.3003  -12.8782   17.2206 N   0  0  0  0  0  0  0  0  0  0  0  0
  -22.3451  -10.0073   19.0700 N   0  0  0  0  0  0  0  0  0  0  0  0
  -26.1202  -22.1214   20.4384 N   0  0  0  0  0  0  0  0  0  0  0  0
  -27.8485  -16.8248   21.1879 N   0  0  0  0  0  0  0  0  0  0  0  0
  -26.0450  -31.1779   23.6730 N   0  0  0  0  0  0  0  0  0  0  0  0
  -20.1629  -30.2486   20.3565 N   0  0  0  0  0  0  0  0  0  0  0  0
  -19.7082  -30.0630   16.7751 N   0  3  0  0  0  0  0  0  0  0  0  0
  -22.8507  -11.1948   17.1746 O   0  0  0  0  0  0  0  0  0  0  0  0
  -24.3667  -29.5643   23.7209 O   0  0  0  0  0  0  0  0  0  0  0  0
  -21.8919  -31.8291   22.0061 O   0  0  0  0  0  0  0  0  0  0  0  0
  -27.8970  -23.0773   19.2317 O   0  0  0  0  0  0  0  0  0  0  0  0
  -20.5699  -28.4685   18.9273 O   0  0  0  0  0  0  0  0  0  0  0  0
  -30.0878  -16.9006   20.5865 O   0  0  0  0  0  0  0  0  0  0  0  0
  -22.6114   -7.8593   24.2033 O   0  0  0  0  0  0  0  0  0  0  0  0
  -24.5338  -20.2540   21.8300 O   0  0  0  0  0  0  0  0  0  0  0  0
  -26.6767  -25.4638   19.0998 O   0  0  0  0  0  0  0  0  0  1  0  0
  -20.8276   -2.8794   22.6466 F   0  0  0  0  0  0  0  0  0  0  0  0
  -23.6774   -5.5611   25.3098 F   0  0  0  0  0  0  0  0  0  0  0  0
  1  2  1  0  0  0  0
  1  5  2  0  0  0  0
  2  6  2  0  0  0  0
  3 10  2  0  0  0  0
  3 18  1  0  0  0  0
  4 11  1  0  0  0  0
  4 18  2  0  0  0  0
  5 20  1  0  0  0  0
  6 22  1  0  0  0  0
  7 12  2  0  0  0  0
  7 21  1  0  0  0  0
  8  9  2  0  0  0  0
  8 24  1  0  0  0  0
  9 25  1  0  0  0  0
 10 26  1  0  0  0  0
 11 26  2  0  0  0  0
 12 27  1  0  0  0  0
 13 14  2  0  0  0  0
 13 28  1  0  0  0  0
 14 30  1  0  0  0  0
 15 23  1  0  0  0  0
 15 27  2  0  0  0  0
 16 24  2  0  0  0  0
 16 29  1  0  0  0  0
 17 30  2  0  0  0  0
 17 31  1  0  0  0  0
 18 32  1  0  0  0  0
 19 32  1  0  0  0  0
 19 33  2  0  0  0  0
 19 34  1  0  0  0  0
 20 22  2  0  0  0  0
 20 40  1  0  0  0  0
 21 23  2  0  0  0  0
 21 41  1  0  0  0  0
 22 49  1  0  0  0  0
 23 42  1  0  0  0  0
 24 69  1  0  0  0  0
 25 29  2  0  0  0  0
 25 68  1  0  0  0  0
 26 79  1  0  0  0  0
 27 81  1  0  0  0  0
 28 31  2  0  0  0  0
 28 79  1  0  0  0  0
 29 80  1  0  0  0  0
 30 82  1  0  0  0  0
 31 83  1  0  0  0  0
 32 62  2  0  0  0  0
 33 63  1  0  0  0  0
 33 66  1  0  0  0  0
 34 67  1  0  0  0  0
 34 73  2  0  0  0  0
 35 50  1  0  0  0  0
 35 70  1  0  0  0  0
 35 74  2  0  0  0  0
 36 59  1  0  0  0  0
 36 64  1  0  0  0  0
 36 75  2  0  0  0  0
 37 58  1  0  0  0  0
 37 68  1  0  0  0  0
 37 76  2  0  0  0  0
 38 60  1  0  0  0  0
 38 71  1  0  0  0  0
 38 77  2  0  0  0  0
 39 65  1  0  0  0  0
 39 69  1  0  0  0  0
 39 78  2  0  0  0  0
 40 43  1  0  0  0  0
 41 50  1  0  0  0  0
 42 64  1  0  0  0  0
 43 45  1  0  0  0  0
 44 46  1  0  0  0  0
 44 47  1  0  0  0  0
 45 49  1  0  0  0  0
 46 51  1  0  0  0  0
 47 65  1  0  0  0  0
 48 51  1  0  0  0  0
 48 65  1  0  0  0  0
 49 70  1  0  0  0  0
 50 64  1  0  0  0  0
 51 63  1  0  0  0  0
 52 60  1  0  0  0  0
 53 61  1  0  0  0  0
 54 61  1  0  0  0  0
 55 61  1  0  0  0  0
 56 72  1  0  0  0  0
 57 80  1  0  0  0  0
 58 81  1  0  0  0  0
 59 61  1  0  0  0  0
 59 71  1  0  0  0  0
 60 72  1  0  0  0  0
 62 63  1  0  0  0  0
M  CHG  1  72   1
M  ISO  4  39 100  58 101  69 100  81 101
M  END
> <Batch ID>
0094

> <Smiles>
CNC(C)C(=O)NC(C(=O)N1Cc2cc([101O:1][101CH2:1]C(=O)Nc3ccc([100NH:0][100C:0](=O)N4CCCC(n5nc(-c6ccc(Oc7ccc(F)cc7F)cc6)c(C(N)=O)c5N)C4)cc3OC)ccc2CC1C(=O)NC1CCCc2ccccc21)C(C)(C)C

> <Shape>
0.304

> <Color>
0.100

> <Negative vol penalty>
0.000

$$$$

  -OEChem-04052300403D

 85 94  0     1  0  0  0  0  0999 V2000
  -21.2189  -34.2980   15.5692 C   0  0  0  0  0  0  0  0  0  0  0  0
  -21.8234  -33.0463   15.6276 C   0  0  0  0  0  0  0  0  0  0  0  0
  -24.5698   -8.9804   20.5321 C   0  0  0  0  0  0  0  0  0  0  0  0
  -22.8615  -10.6037   21.0644 C   0  0  0  0  0  0  0  0  0  0  0  0
  -21.6031  -35.2986   16.4609 C   0  0  0  0  0  0  0  0  0  0  0  0
  -22.8131  -32.7949   16.5771 C   0  0  0  0  0  0  0  0  0  0  0  0
  -23.8634  -27.5111   19.4898 C   0  0  0  0  0  0  0  0  0  0  0  0
  -30.2982  -19.9443   20.1416 C   0  0  0  0  0  0  0  0  0  0  0  0
  -29.7131  -18.9820   20.9645 C   0  0  0  0  0  0  0  0  0  0  0  0
  -23.6690   -7.9474   20.7912 C   0  0  0  0  0  0  0  0  0  0  0  0
  -21.9606   -9.5707   21.3235 C   0  0  0  0  0  0  0  0  0  0  0  0
  -24.7816  -26.4852   19.2700 C   0  0  0  0  0  0  0  0  0  0  0  0
  -21.0978   -6.4284   19.2055 C   0  0  0  0  0  0  0  0  0  0  0  0
  -21.0437   -5.3722   18.2961 C   0  0  0  0  0  0  0  0  0  0  0  0
  -26.2618  -27.4687   20.9012 C   0  0  0  0  0  0  0  0  0  0  0  0
  -28.2912  -20.0163   18.7986 C   0  0  0  0  0  0  0  0  0  0  0  0
  -21.6588   -3.8297   20.0509 C   0  0  0  0  0  0  0  0  0  0  0  0
  -24.1661  -10.3085   20.6688 C   0  0  0  0  0  0  0  0  0  0  0  0
  -25.3224  -12.0183   19.1697 C   0  0  0  0  0  0  0  0  0  0  0  0
  -22.5912  -35.0564   17.4281 C   0  0  0  0  0  0  0  0  0  0  0  0
  -24.1428  -28.5311   20.4106 C   0  0  0  0  0  0  0  0  0  0  0  0
  -23.2118  -33.7937   17.4817 C   0  0  0  0  0  0  0  0  0  0  0  0
  -25.3444  -28.5050   21.1327 C   0  0  0  0  0  0  0  0  0  0  0  0
  -29.5872  -20.4615   19.0587 C   0  0  0  0  0  0  0  0  0  0  0  0
  -28.4171  -18.5367   20.7044 C   0  0  0  0  0  0  0  0  0  0  0  0
  -27.7061  -19.0539   19.6214 C   0  0  0  0  0  0  0  0  0  0  0  0
  -22.3644   -8.2426   21.1868 C   0  0  0  0  0  0  0  0  0  0  0  0
  -25.9823  -26.4655   19.9736 C   0  0  0  0  0  0  0  0  0  0  0  0
  -21.4325   -6.1853   20.5376 C   0  0  0  0  0  0  0  0  0  0  0  0
  -21.3241   -4.0728   18.7188 C   0  0  0  0  0  0  0  0  0  0  0  0
  -21.7130   -4.8860   20.9603 C   0  0  0  0  0  0  0  0  0  0  0  0
  -25.0963  -11.3760   20.4018 C   0  0  0  0  0  0  0  0  0  0  0  0
  -26.2928  -12.9514   19.4420 C   0  0  0  0  0  0  0  0  0  0  0  0
  -29.0863  -24.9071   19.0704 C   0  0  0  0  0  0  0  0  0  0  0  0
  -28.1266  -25.8049   19.3131 C   0  0  0  0  0  0  0  0  0  1  0  0
  -24.7100  -11.7918   17.8933 C   0  0  0  0  0  0  0  0  0  0  0  0
  -24.5072  -31.6833   20.2242 C   0  0  0  0  0  0  0  0  0  0  0  0
  -24.6626  -31.4650   23.4569 C   0  0  0  0  0  0  0  0  0  0  0  0
  -25.3229  -29.5493   26.2029 C   0  0  0  0  0  0  0  0  0  0  0  0
  -28.4322  -16.9557   22.6656 C   0  0  0  0  0  0  0  0  0  0  0  0
  -23.0067  -36.1838   18.3396 C   0  0  0  0  0  0  0  0  0  0  0  0
  -23.1302  -29.6160   20.6558 C   0  0  0  0  0  0  0  0  0  0  0  0
  -25.6832  -29.5654   22.1472 C   0  0  0  0  0  0  0  0  0  0  0  0
  -30.4681  -25.2211   18.5797 C   0  0  0  0  0  0  0  0  0  0  0  0
  -28.9288  -23.4246   19.1892 C   0  0  0  0  0  0  0  0  0  0  0  0
  -23.7982  -35.7204   19.5599 C   0  0  0  0  0  0  0  0  0  0  0  0
  -29.1914  -13.5894   23.5423 C   0  0  0  0  0  0  0  0  0  0  0  0
  -24.8829  -34.7301   19.1480 C   0  0  0  0  0  0  0  0  0  0  0  0
  -28.2123  -12.7663   22.7021 C   0  0  0  0  0  0  0  0  0  0  0  0
  -28.5595  -14.8886   24.0389 C   0  0  0  0  0  0  0  0  0  0  0  0
  -26.9738  -14.8999   22.1536 C   0  0  0  0  0  0  0  0  0  0  0  0
  -30.9266  -23.9121   17.9508 C   0  0  0  0  0  0  0  0  0  0  0  0
  -24.2718  -33.4748   18.5136 C   0  0  1  0  0  0  0  0  0  0  0  0
  -23.7432  -30.8842   21.2417 C   0  0  1  0  0  0  0  0  0  0  0  0
  -27.5855  -13.6127   21.5768 C   0  0  2  0  0  0  0  0  0  0  0  0
  -25.3995  -29.6585   28.7088 C   0  0  0  0  0  0  0  0  0  0  0  0
  -27.3037  -32.9857   23.3075 C   0  0  0  0  0  0  0  0  0  0  0  0
  -27.7844  -32.2415   25.6491 C   0  0  0  0  0  0  0  0  0  0  0  0
  -25.8029  -33.6832   25.1825 C   0  0  0  0  0  0  0  0  0  0  0  0
  -23.2349  -27.4694   26.4731 C   0  0  0  0  0  0  0  0  0  0  0  0
  -30.2171  -21.4967   18.1740 C   0  0  0  0  0  0  0  0  0  0  0  0
  -25.7696  -31.2599   24.4626 C   0  0  1  0  0  0  0  0  0  0  0  0
  -24.5487  -29.3341   27.4908 C   0  0  2  0  0  0  0  0  0  0  0  0
  -26.6599  -32.5235   24.6300 C   0  0  0  0  0  0  0  0  0  0  0  0
  -25.8615  -11.8600   21.3837 N   0  0  0  0  0  0  0  0  0  0  0  0
  -26.5780  -12.8164   20.7688 N   0  0  0  0  0  0  0  0  0  0  0  0
  -24.6637  -30.6086   22.3468 N   0  0  0  0  0  0  0  0  0  0  0  0
  -27.9904  -15.6396   22.9178 N   0  0  0  0  0  0  0  0  0  0  0  0
  -26.3922  -18.6169   19.3396 N   0  0  0  0  0  0  0  0  0  0  0  0
  -26.9214  -13.8661   18.6734 N   0  0  0  0  0  0  0  0  0  0  0  0
  -23.7309  -10.7943   17.7896 N   0  0  0  0  0  0  0  0  0  0  0  0
  -27.8440  -17.5583   21.5541 N   0  0  0  0  0  0  0  0  0  0  0  0
  -23.7369  -32.6012   19.5359 N   0  0  0  0  0  0  0  0  0  0  0  0
  -25.1254  -30.8154   25.6938 N   0  0  0  0  0  0  0  0  0  0  0  0
  -30.2726  -22.8486   18.8037 N   0  3  2  0  0  0  0  0  0  0  0  0
  -24.1001  -27.9167   27.5948 N   0  3  0  0  0  0  0  0  0  0  0  0
  -25.0335  -12.4431   16.8712 O   0  0  0  0  0  0  0  0  0  0  0  0
  -25.7070  -31.4831   20.0755 O   0  0  0  0  0  0  0  0  0  0  0  0
  -23.8236  -32.3478   23.6528 O   0  0  0  0  0  0  0  0  0  0  0  0
  -26.0349  -28.6823   25.7009 O   0  0  0  0  0  0  0  0  0  0  0  0
  -29.2905  -17.4976   23.3668 O   0  0  0  0  0  0  0  0  0  0  0  0
  -21.4850   -7.2349   21.4395 O   0  0  0  0  0  0  0  0  0  0  0  0
  -26.8805  -25.4657   19.7604 O   0  0  0  0  0  0  0  0  0  1  0  0
  -21.2706   -3.0584   17.8457 F   0  0  0  0  0  0  0  0  0  0  0  0
  -22.0340   -4.6461   22.2391 F   0  0  0  0  0  0  0  0  0  0  0  0
  1  2  1  0  0  0  0
  1  5  2  0  0  0  0
  2  6  2  0  0  0  0
  3 10  2  0  0  0  0
  3 18  1  0  0  0  0
  4 11  1  0  0  0  0
  4 18  2  0  0  0  0
  5 20  1  0  0  0  0
  6 22  1  0  0  0  0
  7 12  2  0  0  0  0
  7 21  1  0  0  0  0
  8  9  2  0  0  0  0
  8 24  1  0  0  0  0
  9 25  1  0  0  0  0
 10 27  1  0  0  0  0
 11 27  2  0  0  0  0
 12 28  1  0  0  0  0
 13 14  2  0  0  0  0
 13 29  1  0  0  0  0
 14 30  1  0  0  0  0
 15 23  1  0  0  0  0
 15 28  2  0  0  0  0
 16 24  2  0  0  0  0
 16 26  1  0  0  0  0
 17 30  2  0  0  0  0
 17 31  1  0  0  0  0
 18 32  1  0  0  0  0
 19 32  1  0  0  0  0
 19 33  2  0  0  0  0
 19 36  1  0  0  0  0
 20 22  2  0  0  0  0
 20 41  1  0  0  0  0
 21 23  2  0  0  0  0
 21 42  1  0  0  0  0
 22 53  1  0  0  0  0
 23 43  1  0  0  0  0
 24 61  1  0  0  0  0
 25 26  2  0  0  0  0
 25 72  1  0  0  0  0
 26 69  1  0  0  0  0
 27 82  1  0  0  0  0
 28 83  1  0  0  0  0
 29 31  2  0  0  0  0
 29 82  1  0  0  0  0
 30 84  1  0  0  0  0
 31 85  1  0  0  0  0
 32 65  2  0  0  0  0
 33 66  1  0  0  0  0
 33 70  1  0  0  0  0
 34 35  2  0  0  0  0
 34 44  1  0  0  0  0
 34 45  1  0  0  0  0
 35 83  1  0  0  0  0
 36 71  1  0  0  0  0
 36 77  2  0  0  0  0
 37 54  1  0  0  0  0
 37 73  1  0  0  0  0
 37 78  2  0  0  0  0
 38 62  1  0  0  0  0
 38 67  1  0  0  0  0
 38 79  2  0  0  0  0
 39 63  1  0  0  0  0
 39 74  1  0  0  0  0
 39 80  2  0  0  0  0
 40 68  1  0  0  0  0
 40 72  1  0  0  0  0
 40 81  2  0  0  0  0
 41 46  1  0  0  0  0
 42 54  1  0  0  0  0
 43 67  1  0  0  0  0
 44 52  1  0  0  0  0
 45 75  1  0  0  0  0
 46 48  1  0  0  0  0
 47 49  1  0  0  0  0
 47 50  1  0  0  0  0
 48 53  1  0  0  0  0
 49 55  1  0  0  0  0
 50 68  1  0  0  0  0
 51 55  1  0  0  0  0
 51 68  1  0  0  0  0
 52 75  1  0  0  0  0
 53 73  1  0  0  0  0
 54 67  1  0  0  0  0
 55 66  1  0  0  0  0
 56 63  1  0  0  0  0
 57 64  1  0  0  0  0
 58 64  1  0  0  0  0
 59 64  1  0  0  0  0
 60 76  1  0  0  0  0
 61 75  1  0  0  0  0
 62 64  1  0  0  0  0
 62 74  1  0  0  0  0
 63 76  1  0  0  0  0
 65 66  1  0  0  0  0
M  CHG  2  75   1  76   1
M  ISO  4  35 101  40 100  72 100  83 101
M  END
> <Batch ID>
0094

> <Smiles>
CNC(C)C(=O)NC(C(=O)N1Cc2cc([101O:1][101CH:1]=C3CCN(Cc4ccc([100NH:0][100C:0](=O)N5CCCC(n6nc(-c7ccc(Oc8ccc(F)cc8F)cc7)c(C(N)=O)c6N)C5)c(N)c4)C3)ccc2CC1C(=O)NC1CCCc2ccccc21)C(C)(C)C

> <Shape>
0.269

> <Color>
0.085

> <Negative vol penalty>
0.000

$$$$

  -OEChem-04052300403D

 87 96  0     1  0  0  0  0  0999 V2000
  -22.9348   -7.7341   25.2641 C   0  0  0  0  0  0  0  0  0  0  0  0
  -24.1609   -8.3883   25.2008 C   0  0  0  0  0  0  0  0  0  0  0  0
  -23.5049  -28.4069   21.8677 C   0  0  0  0  0  0  0  0  0  0  0  0
  -24.1368  -26.7865   23.5446 C   0  0  0  0  0  0  0  0  0  0  0  0
  -32.7350  -20.8341   23.7868 C   0  0  0  0  0  0  0  0  0  0  0  0
  -22.1268   -7.6586   24.1304 C   0  0  0  0  0  0  0  0  0  0  0  0
  -24.5802   -8.9667   24.0032 C   0  0  0  0  0  0  0  0  0  0  0  0
  -27.8590  -14.0968   23.3421 C   0  0  0  0  0  0  0  0  0  0  0  0
  -22.3444  -28.6969   22.5851 C   0  0  0  0  0  0  0  0  0  0  0  0
  -22.9762  -27.0765   24.2621 C   0  0  0  0  0  0  0  0  0  0  0  0
  -29.2181  -14.3201   23.1259 C   0  0  0  0  0  0  0  0  0  0  0  0
  -19.2927  -27.3193   23.0472 C   0  0  0  0  0  0  0  0  0  0  0  0
  -31.7169  -21.4841   24.4843 C   0  0  0  0  0  0  0  0  0  0  0  0
  -18.0980  -27.4168   22.3338 C   0  0  0  0  0  0  0  0  0  0  0  0
  -31.3414  -20.7675   21.8144 C   0  0  0  0  0  0  0  0  0  0  0  0
  -28.8062  -14.4940   20.7554 C   0  0  0  0  0  0  0  0  0  0  0  0
  -17.8404  -29.7011   23.0774 C   0  0  0  0  0  0  0  0  0  0  0  0
  -24.4011  -27.4517   22.3474 C   0  0  0  0  0  0  0  0  0  0  0  0
  -32.5473  -20.4758   22.4519 C   0  0  0  0  0  0  0  0  0  0  0  0
  -26.6362  -28.0422   21.2689 C   0  0  0  0  0  0  0  0  0  0  0  0
  -22.5321   -8.2447   22.9209 C   0  0  0  0  0  0  0  0  0  0  0  0
  -26.9634  -14.0596   22.2637 C   0  0  0  0  0  0  0  0  0  0  0  0
  -23.7775   -8.8978   22.8519 C   0  0  0  0  0  0  0  0  0  0  0  0
  -27.4358  -14.2727   20.9608 C   0  0  0  0  0  0  0  0  0  0  0  0
  -30.3232  -21.4175   22.5119 C   0  0  0  0  0  0  0  0  0  0  0  0
  -22.0801  -28.0317   23.7823 C   0  0  0  0  0  0  0  0  0  0  0  0
  -29.6923  -14.5158   21.8321 C   0  0  0  0  0  0  0  0  0  0  0  0
  -19.7612  -28.4127   23.7757 C   0  0  0  0  0  0  0  0  0  0  0  0
  -17.3719  -28.6077   22.3489 C   0  0  0  0  0  0  0  0  0  0  0  0
  -30.5110  -21.7758   23.8468 C   0  0  0  0  0  0  0  0  0  0  0  0
  -19.0351  -29.6035   23.7908 C   0  0  0  0  0  0  0  0  0  0  0  0
  -25.5998  -27.1513   21.6065 C   0  0  0  0  0  0  0  0  0  0  0  0
  -27.5353  -27.2741   20.5703 C   0  0  0  0  0  0  0  0  0  0  0  0
  -32.4350  -17.5183   21.6577 C   0  0  0  0  0  0  0  0  0  0  0  0
  -33.6217  -19.7904   21.7164 C   0  0  0  0  0  0  0  0  0  0  0  0
  -26.7739  -29.4392   21.5607 C   0  0  0  0  0  0  0  0  0  0  0  0
  -25.0256  -11.8615   21.0320 C   0  0  0  0  0  0  0  0  0  0  0  0
  -24.0685  -14.3225   19.1479 C   0  0  0  0  0  0  0  0  0  0  0  0
  -24.7956  -17.3432   17.7361 C   0  0  0  0  0  0  0  0  0  0  0  0
  -28.7518  -21.4239   20.5428 C   0  0  0  0  0  0  0  0  0  0  0  0
  -21.6460   -8.0963   21.7095 C   0  0  0  0  0  0  0  0  0  0  0  0
  -25.4963  -13.8443   22.5163 C   0  0  0  0  0  0  0  0  0  0  0  0
  -26.5126  -14.2625   19.7709 C   0  0  0  0  0  0  0  0  0  0  0  0
  -21.9949   -9.0596   20.5779 C   0  0  0  0  0  0  0  0  0  0  0  0
  -27.7646  -23.4067   17.7552 C   0  0  0  0  0  0  0  0  0  0  0  0
  -23.5006   -9.0740   20.3343 C   0  0  0  0  0  0  0  0  0  0  0  0
  -27.1973  -24.6756   18.3956 C   0  0  0  0  0  0  0  0  0  0  0  0
  -33.3427  -16.8386   19.5620 C   0  0  0  0  0  0  0  0  0  0  0  0
  -27.4291  -22.1603   18.5723 C   0  0  0  0  0  0  0  0  0  0  0  0
  -34.1509  -17.9928   20.1097 C   0  0  0  0  0  0  0  0  0  0  0  0
  -27.2338  -23.4984   20.6316 C   0  0  0  0  0  0  0  0  0  0  0  0
  -24.2560   -9.5591   21.5776 C   0  0  1  0  0  0  0  0  0  0  0  0
  -32.6581  -16.2813   20.8044 C   0  0  2  0  0  0  0  0  0  0  0  0
  -24.7511  -13.3152   21.2948 C   0  0  1  0  0  0  0  0  0  0  0  0
  -27.6015  -24.7874   19.8787 C   0  0  2  0  0  0  0  0  0  0  0  0
  -23.8306  -19.0898   16.2145 C   0  0  0  0  0  0  0  0  0  0  0  0
  -24.6393  -12.5370   16.7404 C   0  0  0  0  0  0  0  0  0  0  0  0
  -24.5816  -14.5824   15.2977 C   0  0  0  0  0  0  0  0  0  0  0  0
  -22.5447  -13.8915   16.5613 C   0  0  0  0  0  0  0  0  0  0  0  0
  -24.9075  -19.4122   19.8494 C   0  0  0  0  0  0  0  0  0  0  0  0
  -31.3716  -15.5397   20.4951 C   0  0  0  0  0  0  0  0  0  1  0  0
  -24.5048  -14.8808   17.8149 C   0  0  1  0  0  0  0  0  0  0  0  0
  -24.0017  -18.6346   17.6554 C   0  0  2  0  0  0  0  0  0  0  0  0
  -24.0855  -13.9712   16.6256 C   0  0  0  0  0  0  0  0  0  0  0  0
  -25.8190  -25.9120   21.1591 N   0  0  0  0  0  0  0  0  0  0  0  0
  -27.0034  -26.0187   20.5331 N   0  0  0  0  0  0  0  0  0  0  0  0
  -33.3418  -18.5154   21.1943 N   0  0  0  0  0  0  0  0  0  0  0  0
  -25.0878  -14.0417   20.0688 N   0  0  0  0  0  0  0  0  0  0  0  0
  -27.8444  -22.3372   19.9655 N   0  0  0  0  0  0  0  0  0  0  0  0
  -28.7211  -27.5567   19.9903 N   0  0  0  0  0  0  0  0  0  0  0  0
  -27.4183  -29.8135   22.7477 N   0  0  0  0  0  0  0  0  0  0  0  0
  -29.0988  -21.7120   21.8624 N   0  0  0  0  0  0  0  0  0  0  0  0
  -24.1702  -10.9993   21.6912 N   0  0  0  0  0  0  0  0  0  0  0  0
  -23.9722  -16.2372   17.7464 N   0  0  0  0  0  0  0  0  0  0  0  0
  -24.6941  -19.7164   18.4110 N   0  3  0  0  0  0  0  0  0  0  0  0
  -31.6499  -17.5791   22.5929 O   0  0  0  0  0  0  0  0  0  0  0  0
  -34.7048  -20.3655   21.6246 O   0  0  0  0  0  0  0  0  0  0  0  0
  -26.3238  -30.3290   20.7996 O   0  0  0  0  0  0  0  0  0  0  0  0
  -25.9445  -11.5455   20.2853 O   0  0  0  0  0  0  0  0  0  0  0  0
  -22.8670  -14.1488   19.3668 O   0  0  0  0  0  0  0  0  0  0  0  0
  -26.0235  -17.3179   17.7815 O   0  0  0  0  0  0  0  0  0  0  0  0
  -29.2099  -20.4729   19.9043 O   0  0  0  0  0  0  0  0  0  0  0  0
  -20.9478  -28.3146   24.4827 O   0  0  0  0  0  0  0  0  0  0  0  0
  -31.0185  -14.7333   21.6182 O   0  0  0  0  0  0  0  0  0  1  0  0
  -16.2255  -28.7016   21.6626 F   0  0  0  0  0  0  0  0  0  0  0  0
  -29.5396  -22.4010   24.5268 F   0  0  0  0  0  0  0  0  0  0  0  0
  -19.4808  -30.6577   24.4878 F   0  0  0  0  0  0  0  0  0  0  0  0
  1  2  1  0  0  0  0
  1  6  2  0  0  0  0
  2  7  2  0  0  0  0
  3  9  2  0  0  0  0
  3 18  1  0  0  0  0
  4 10  1  0  0  0  0
  4 18  2  0  0  0  0
  5 13  2  0  0  0  0
  5 19  1  0  0  0  0
  6 21  1  0  0  0  0
  7 23  1  0  0  0  0
  8 11  2  0  0  0  0
  8 22  1  0  0  0  0
  9 26  1  0  0  0  0
 10 26  2  0  0  0  0
 11 27  1  0  0  0  0
 12 14  2  0  0  0  0
 12 28  1  0  0  0  0
 13 30  1  0  0  0  0
 14 29  1  0  0  0  0
 15 19  2  0  0  0  0
 15 25  1  0  0  0  0
 16 24  1  0  0  0  0
 16 27  2  0  0  0  0
 17 29  2  0  0  0  0
 17 31  1  0  0  0  0
 18 32  1  0  0  0  0
 19 35  1  0  0  0  0
 20 32  1  0  0  0  0
 20 33  2  0  0  0  0
 20 36  1  0  0  0  0
 21 23  2  0  0  0  0
 21 41  1  0  0  0  0
 22 24  2  0  0  0  0
 22 42  1  0  0  0  0
 23 52  1  0  0  0  0
 24 43  1  0  0  0  0
 25 30  2  0  0  0  0
 25 72  1  0  0  0  0
 26 83  1  0  0  0  0
 27 84  1  0  0  0  0
 28 31  2  0  0  0  0
 28 83  1  0  0  0  0
 29 85  1  0  0  0  0
 30 86  1  0  0  0  0
 31 87  1  0  0  0  0
 32 65  2  0  0  0  0
 33 66  1  0  0  0  0
 33 70  1  0  0  0  0
 34 53  1  0  0  0  0
 34 67  1  0  0  0  0
 34 76  2  0  0  0  0
 35 67  1  0  0  0  0
 35 77  2  0  0  0  0
 36 71  1  0  0  0  0
 36 78  2  0  0  0  0
 37 54  1  0  0  0  0
 37 73  1  0  0  0  0
 37 79  2  0  0  0  0
 38 62  1  0  0  0  0
 38 68  1  0  0  0  0
 38 80  2  0  0  0  0
 39 63  1  0  0  0  0
 39 74  1  0  0  0  0
 39 81  2  0  0  0  0
 40 69  1  0  0  0  0
 40 72  1  0  0  0  0
 40 82  2  0  0  0  0
 41 44  1  0  0  0  0
 42 54  1  0  0  0  0
 43 68  1  0  0  0  0
 44 46  1  0  0  0  0
 45 47  1  0  0  0  0
 45 49  1  0  0  0  0
 46 52  1  0  0  0  0
 47 55  1  0  0  0  0
 48 50  1  0  0  0  0
 48 53  1  0  0  0  0
 49 69  1  0  0  0  0
 50 67  1  0  0  0  0
 51 55  1  0  0  0  0
 51 69  1  0  0  0  0
 52 73  1  0  0  0  0
 53 61  1  0  0  0  0
 54 68  1  0  0  0  0
 55 66  1  0  0  0  0
 56 63  1  0  0  0  0
 57 64  1  0  0  0  0
 58 64  1  0  0  0  0
 59 64  1  0  0  0  0
 60 75  1  0  0  0  0
 61 84  1  0  0  0  0
 62 64  1  0  0  0  0
 62 74  1  0  0  0  0
 63 75  1  0  0  0  0
 65 66  1  0  0  0  0
M  CHG  1  75   1
M  ISO  4  40 100  61 101  72 100  84 101
M  END
> <Batch ID>
0094

> <Smiles>
CNC(C)C(=O)NC(C(=O)N1Cc2cc([101O:1][101CH2:1]C3CCN(C(=O)c4ccc(F)c([100NH:0][100C:0](=O)N5CCCC(n6nc(-c7ccc(Oc8ccc(F)cc8F)cc7)c(C(N)=O)c6N)C5)c4)C3=O)ccc2CC1C(=O)NC1CCCc2ccccc21)C(C)(C)C

> <Shape>
0.227

> <Color>
0.070

> <Negative vol penalty>
0.000

$$$$

  -OEChem-04052300403D

 85 94  0     1  0  0  0  0  0999 V2000
  -25.2634  -38.4735   20.3272 C   0  0  0  0  0  0  0  0  0  0  0  0
  -25.9924  -37.4756   19.6884 C   0  0  0  0  0  0  0  0  0  0  0  0
  -24.8214  -10.3121   23.5870 C   0  0  0  0  0  0  0  0  0  0  0  0
  -25.3278  -12.3940   24.7035 C   0  0  0  0  0  0  0  0  0  0  0  0
  -24.6883  -38.2260   21.5730 C   0  0  0  0  0  0  0  0  0  0  0  0
  -26.1478  -36.2299   20.2955 C   0  0  0  0  0  0  0  0  0  0  0  0
  -26.7684  -29.2760   18.6913 C   0  0  0  0  0  0  0  0  0  0  0  0
  -24.6789   -9.6834   24.8239 C   0  0  0  0  0  0  0  0  0  0  0  0
  -25.1853  -11.7653   25.9405 C   0  0  0  0  0  0  0  0  0  0  0  0
  -27.5953  -28.1821   18.9434 C   0  0  0  0  0  0  0  0  0  0  0  0
  -22.3380   -9.4694   27.2544 C   0  0  0  0  0  0  0  0  0  0  0  0
  -21.2383   -8.6299   27.4320 C   0  0  0  0  0  0  0  0  0  0  0  0
  -26.4905  -27.8425   21.0607 C   0  0  0  0  0  0  0  0  0  0  0  0
  -29.4866  -20.0767   20.6594 C   0  0  0  0  0  0  0  0  0  0  0  0
  -22.7243   -6.7756   27.8684 C   0  0  0  0  0  0  0  0  0  0  0  0
  -25.1459  -11.6674   23.5268 C   0  0  0  0  0  0  0  0  0  0  0  0
  -24.3187  -12.4439   21.2420 C   0  0  0  0  0  0  0  0  0  0  0  0
  -24.8286  -36.9735   22.1913 C   0  0  0  0  0  0  0  0  0  0  0  0
  -25.8021  -29.6686   19.6285 C   0  0  0  0  0  0  0  0  0  0  0  0
  -25.5752  -35.9659   21.5513 C   0  0  0  0  0  0  0  0  0  0  0  0
  -25.6509  -28.9402   20.8171 C   0  0  0  0  0  0  0  0  0  0  0  0
  -29.1171  -21.3727   21.1223 C   0  0  0  0  0  0  0  0  0  0  0  0
  -24.8608  -10.4100   26.0007 C   0  0  0  0  0  0  0  0  0  0  0  0
  -27.4583  -27.4669   20.1295 C   0  0  0  0  0  0  0  0  0  0  0  0
  -23.6309   -8.9620   27.3837 C   0  0  0  0  0  0  0  0  0  0  0  0
  -21.4315   -7.2830   27.7390 C   0  0  0  0  0  0  0  0  0  0  0  0
  -23.8240   -7.6151   27.6907 C   0  0  0  0  0  0  0  0  0  0  0  0
  -25.2938  -12.3173   22.2493 C   0  0  0  0  0  0  0  0  0  0  0  0
  -28.0213  -21.3315   21.9559 C   0  0  0  0  0  0  0  0  0  0  0  0
  -24.9499  -13.1368   20.2381 C   0  0  0  0  0  0  0  0  0  0  0  0
  -28.6590  -19.0942   21.1573 C   0  0  0  0  0  0  0  0  0  0  0  0
  -29.1390  -23.6450   20.1027 C   0  0  0  0  0  0  0  0  0  0  0  0
  -22.9633  -11.9770   21.2160 C   0  0  0  0  0  0  0  0  0  0  0  0
  -25.2845  -32.2877   21.3537 C   0  0  0  0  0  0  0  0  0  0  0  0
  -22.5600  -30.7334   22.1807 C   0  0  0  0  0  0  0  0  0  0  0  0
  -20.9091  -27.7671   22.5309 C   0  0  0  0  0  0  0  0  0  0  0  0
  -29.5494  -16.9508   20.1780 C   0  0  0  0  0  0  0  0  0  0  0  0
  -24.2287  -36.7683   23.5598 C   0  0  0  0  0  0  0  0  0  0  0  0
  -24.9000  -30.8345   19.3298 C   0  0  0  0  0  0  0  0  0  0  0  0
  -24.6152  -29.3085   21.8467 C   0  0  0  0  0  0  0  0  0  0  0  0
  -24.1244  -35.3003   23.9652 C   0  0  0  0  0  0  0  0  0  0  0  0
  -31.6590  -24.0240   21.5951 C   0  0  0  0  0  0  0  0  0  0  0  0
  -29.2936  -13.8947   18.3692 C   0  0  0  0  0  0  0  0  0  0  0  0
  -25.4300  -34.5701   23.6671 C   0  0  0  0  0  0  0  0  0  0  0  0
  -30.7924  -25.1921   21.1367 C   0  0  0  0  0  0  0  0  0  0  0  0
  -28.1461  -13.1575   19.0634 C   0  0  0  0  0  0  0  0  0  0  0  0
  -31.2479  -22.6868   20.9792 C   0  0  0  0  0  0  0  0  0  0  0  0
  -30.1467  -14.6804   19.3634 C   0  0  0  0  0  0  0  0  0  0  0  0
  -28.2522  -14.8602   20.9279 C   0  0  0  0  0  0  0  0  0  0  0  0
  -25.7451  -34.5938   22.1665 C   0  0  1  0  0  0  0  0  0  0  0  0
  -30.0377  -24.8605   19.8522 C   0  0  2  0  0  0  0  0  0  0  0  0
  -24.2956  -31.4591   20.5836 C   0  0  1  0  0  0  0  0  0  0  0  0
  -27.3263  -14.1070   19.9589 C   0  0  2  0  0  0  0  0  0  0  0  0
  -27.3282  -22.4464   22.6413 C   0  0  0  0  0  0  0  0  0  0  0  0
  -18.7067  -26.8130   23.2635 C   0  0  0  0  0  0  0  0  0  0  0  0
  -23.3415  -31.1752   25.0968 C   0  0  0  0  0  0  0  0  0  0  0  0
  -21.6678  -29.4269   25.7376 C   0  0  0  0  0  0  0  0  0  0  0  0
  -20.9135  -31.5171   24.6041 C   0  0  0  0  0  0  0  0  0  0  0  0
  -20.3875  -26.6130   19.8560 C   0  0  0  0  0  0  0  0  0  0  0  0
  -29.2291  -26.0673   19.3805 C   0  0  0  0  0  0  0  0  0  1  0  0
  -22.1688  -29.7704   23.2755 C   0  0  1  0  0  0  0  0  0  0  0  0
  -19.5253  -27.3262   22.0891 C   0  0  2  0  0  0  0  0  0  0  0  0
  -22.0438  -30.4664   24.6602 C   0  0  0  0  0  0  0  0  0  0  0  0
  -26.4564  -12.8842   21.9158 N   0  0  0  0  0  0  0  0  0  0  0  0
  -26.2157  -13.3736   20.6875 N   0  0  0  0  0  0  0  0  0  0  0  0
  -29.7996  -22.5889   20.7683 N   0  0  0  0  0  0  0  0  0  0  0  0
  -23.7613  -30.4601   21.5114 N   0  0  0  0  0  0  0  0  0  0  0  0
  -29.3033  -15.5615   20.1740 N   0  0  0  0  0  0  0  0  0  0  0  0
  -24.5403  -13.5605   19.0235 N   0  0  0  0  0  0  0  0  0  0  0  0
  -21.9560  -12.8222   21.7012 N   0  0  0  0  0  0  0  0  0  0  0  0
  -28.6632  -17.6912   20.9596 N   0  0  0  0  0  0  0  0  0  0  0  0
  -24.9362  -33.6203   21.4648 N   0  0  0  0  0  0  0  0  0  0  0  0
  -20.9466  -29.1139   22.8242 N   0  0  0  0  0  0  0  0  0  0  0  0
  -19.6272  -26.2380   21.0759 N   0  3  0  0  0  0  0  0  0  0  0  0
  -27.9823  -23.6202   19.6829 O   0  0  0  0  0  0  0  0  0  0  0  0
  -22.6565  -10.8374   20.7909 O   0  0  0  0  0  0  0  0  0  0  0  0
  -26.2884  -31.7570   21.8145 O   0  0  0  0  0  0  0  0  0  0  0  0
  -21.8232  -31.6887   21.9238 O   0  0  0  0  0  0  0  0  0  0  0  0
  -21.8606  -26.9934   22.6115 O   0  0  0  0  0  0  0  0  0  0  0  0
  -30.4613  -17.4501   19.5138 O   0  0  0  0  0  0  0  0  0  0  0  0
  -24.7216   -9.7969   27.2078 O   0  0  0  0  0  0  0  0  0  0  0  0
  -28.2645  -26.3992   20.3783 O   0  0  0  0  0  0  0  0  0  1  0  0
  -20.3753   -6.4773   27.9111 F   0  0  0  0  0  0  0  0  0  0  0  0
  -25.0637   -7.1221   27.8174 F   0  0  0  0  0  0  0  0  0  0  0  0
  -27.4425  -19.7352   22.1778 S   0  0  0  0  0  0  0  0  0  0  0  0
  1  2  1  0  0  0  0
  1  5  2  0  0  0  0
  2  6  2  0  0  0  0
  3  8  2  0  0  0  0
  3 16  1  0  0  0  0
  4  9  1  0  0  0  0
  4 16  2  0  0  0  0
  5 18  1  0  0  0  0
  6 20  1  0  0  0  0
  7 10  2  0  0  0  0
  7 19  1  0  0  0  0
  8 23  1  0  0  0  0
  9 23  2  0  0  0  0
 10 24  1  0  0  0  0
 11 12  2  0  0  0  0
 11 25  1  0  0  0  0
 12 26  1  0  0  0  0
 13 21  1  0  0  0  0
 13 24  2  0  0  0  0
 14 22  1  0  0  0  0
 14 31  2  0  0  0  0
 15 26  2  0  0  0  0
 15 27  1  0  0  0  0
 16 28  1  0  0  0  0
 17 28  1  0  0  0  0
 17 30  2  0  0  0  0
 17 33  1  0  0  0  0
 18 20  2  0  0  0  0
 18 38  1  0  0  0  0
 19 21  2  0  0  0  0
 19 39  1  0  0  0  0
 20 50  1  0  0  0  0
 21 40  1  0  0  0  0
 22 29  2  0  0  0  0
 22 66  1  0  0  0  0
 23 81  1  0  0  0  0
 24 82  1  0  0  0  0
 25 27  2  0  0  0  0
 25 81  1  0  0  0  0
 26 83  1  0  0  0  0
 27 84  1  0  0  0  0
 28 64  2  0  0  0  0
 29 54  1  0  0  0  0
 29 85  1  0  0  0  0
 30 65  1  0  0  0  0
 30 69  1  0  0  0  0
 31 71  1  0  0  0  0
 31 85  1  0  0  0  0
 32 51  1  0  0  0  0
 32 66  1  0  0  0  0
 32 75  2  0  0  0  0
 33 70  1  0  0  0  0
 33 76  2  0  0  0  0
 34 52  1  0  0  0  0
 34 72  1  0  0  0  0
 34 77  2  0  0  0  0
 35 61  1  0  0  0  0
 35 67  1  0  0  0  0
 35 78  2  0  0  0  0
 36 62  1  0  0  0  0
 36 73  1  0  0  0  0
 36 79  2  0  0  0  0
 37 68  1  0  0  0  0
 37 71  1  0  0  0  0
 37 80  2  0  0  0  0
 38 41  1  0  0  0  0
 39 52  1  0  0  0  0
 40 67  1  0  0  0  0
 41 44  1  0  0  0  0
 42 45  1  0  0  0  0
 42 47  1  0  0  0  0
 43 46  1  0  0  0  0
 43 48  1  0  0  0  0
 44 50  1  0  0  0  0
 45 51  1  0  0  0  0
 46 53  1  0  0  0  0
 47 66  1  0  0  0  0
 48 68  1  0  0  0  0
 49 53  1  0  0  0  0
 49 68  1  0  0  0  0
 50 72  1  0  0  0  0
 51 60  1  0  0  0  0
 52 67  1  0  0  0  0
 53 65  1  0  0  0  0
 55 62  1  0  0  0  0
 56 63  1  0  0  0  0
 57 63  1  0  0  0  0
 58 63  1  0  0  0  0
 59 74  1  0  0  0  0
 60 82  1  0  0  0  0
 61 63  1  0  0  0  0
 61 73  1  0  0  0  0
 62 74  1  0  0  0  0
 64 65  1  0  0  0  0
M  CHG  1  74   1
M  ISO  4  37 100  60 101  71 100  82 101
M  END
> <Batch ID>
0094

> <Smiles>
CNC(C)C(=O)NC(C(=O)N1Cc2cc([101O:1][101CH2:1]C3CCCN(c4cc([100NH:0][100C:0](=O)N5CCCC(n6nc(-c7ccc(Oc8ccc(F)cc8F)cc7)c(C(N)=O)c6N)C5)sc4C)C3=O)ccc2CC1C(=O)NC1CCCc2ccccc21)C(C)(C)C

> <Shape>
0.289

> <Color>
0.107

> <Negative vol penalty>
0.000

$$$$

  -OEChem-04052300403D

 84 92  0     1  0  0  0  0  0999 V2000
  -21.6280  -12.5811   20.7655 C   0  0  0  0  0  0  0  0  0  0  0  0
  -21.6586  -13.9059   21.1889 C   0  0  0  0  0  0  0  0  0  0  0  0
  -27.6197  -28.3533   16.5659 C   0  0  0  0  0  0  0  0  0  0  0  0
  -29.3014  -27.3446   17.9771 C   0  0  0  0  0  0  0  0  0  0  0  0
  -22.8200  -11.9037   20.5122 C   0  0  0  0  0  0  0  0  0  0  0  0
  -22.8814  -14.5539   21.3603 C   0  0  0  0  0  0  0  0  0  0  0  0
  -22.8978  -19.2226   19.3988 C   0  0  0  0  0  0  0  0  0  0  0  0
  -18.0621  -26.1918   20.6700 C   0  0  0  0  0  0  0  0  0  0  0  0
  -17.5395  -27.4718   20.8548 C   0  0  0  0  0  0  0  0  0  0  0  0
  -28.5722  -28.5399   15.5642 C   0  0  0  0  0  0  0  0  0  0  0  0
  -30.2539  -27.5312   16.9754 C   0  0  0  0  0  0  0  0  0  0  0  0
  -22.2711  -20.2256   20.1371 C   0  0  0  0  0  0  0  0  0  0  0  0
  -30.0881  -26.6710   13.1889 C   0  0  0  0  0  0  0  0  0  0  0  0
  -29.7300  -26.3354   11.8833 C   0  0  0  0  0  0  0  0  0  0  0  0
  -19.9887  -26.7862   22.0011 C   0  0  0  0  0  0  0  0  0  0  0  0
  -24.4195  -20.9600   20.9519 C   0  0  0  0  0  0  0  0  0  0  0  0
  -30.1218  -28.6163   11.1896 C   0  0  0  0  0  0  0  0  0  0  0  0
  -27.9843  -27.7557   17.7724 C   0  0  0  0  0  0  0  0  0  0  0  0
  -19.4661  -28.0662   22.1859 C   0  0  0  0  0  0  0  0  0  0  0  0
  -26.1716  -26.4410   18.9945 C   0  0  0  0  0  0  0  0  0  0  0  0
  -24.0577  -12.5466   20.6713 C   0  0  0  0  0  0  0  0  0  0  0  0
  -24.2915  -19.0737   19.4402 C   0  0  0  0  0  0  0  0  0  0  0  0
  -24.0911  -13.8840   21.1102 C   0  0  0  0  0  0  0  0  0  0  0  0
  -25.0617  -19.9560   20.2112 C   0  0  0  0  0  0  0  0  0  0  0  0
  -19.2867  -25.8490   21.2432 C   0  0  0  0  0  0  0  0  0  0  0  0
  -18.2415  -28.4090   21.6127 C   0  0  0  0  0  0  0  0  0  0  0  0
  -29.8893  -28.1289   15.7689 C   0  0  0  0  0  0  0  0  0  0  0  0
  -23.0317  -21.0927   20.9160 C   0  0  0  0  0  0  0  0  0  0  0  0
  -30.4630  -27.9792   13.4950 C   0  0  0  0  0  0  0  0  0  0  0  0
  -29.7469  -27.3080   10.8836 C   0  0  0  0  0  0  0  0  0  0  0  0
  -30.4799  -28.9519   12.4953 C   0  0  0  0  0  0  0  0  0  0  0  0
  -27.0009  -27.5631   18.8078 C   0  0  0  0  0  0  0  0  0  0  0  0
  -25.4243  -26.7474   20.1054 C   0  0  0  0  0  0  0  0  0  0  0  0
  -20.2378  -29.0407   22.9993 C   0  0  0  0  0  0  0  0  0  0  0  0
  -26.0845  -25.2300   18.2319 C   0  0  0  0  0  0  0  0  0  0  0  0
  -26.2747  -16.7733   20.3777 C   0  0  0  0  0  0  0  0  0  0  0  0
  -28.5298  -18.7499   19.1407 C   0  0  0  0  0  0  0  0  0  0  0  0
  -21.0125  -24.0433   21.5510 C   0  0  0  0  0  0  0  0  0  0  0  0
  -29.4392  -21.9216   18.2690 C   0  0  0  0  0  0  0  0  0  0  0  0
  -22.3838  -30.2673   23.1160 C   0  0  0  0  0  0  0  0  0  0  0  0
  -25.3211  -11.7588   20.4309 C   0  0  0  0  0  0  0  0  0  0  0  0
  -24.9546  -18.0036   18.6171 C   0  0  0  0  0  0  0  0  0  0  0  0
  -26.5629  -19.8511   20.2738 C   0  0  0  0  0  0  0  0  0  0  0  0
  -26.5635  -12.6323   20.2763 C   0  0  0  0  0  0  0  0  0  0  0  0
  -25.8936  -30.5142   23.4587 C   0  0  0  0  0  0  0  0  0  0  0  0
  -26.6094  -13.6937   21.3708 C   0  0  0  0  0  0  0  0  0  0  0  0
  -26.4299  -29.6698   22.2996 C   0  0  0  0  0  0  0  0  0  0  0  0
  -24.6403  -31.2927   23.0612 C   0  0  0  0  0  0  0  0  0  0  0  0
  -24.1041  -29.6455   21.3127 C   0  0  0  0  0  0  0  0  0  0  0  0
  -25.3970  -14.6287   21.2838 C   0  0  1  0  0  0  0  0  0  0  0  0
  -26.3363  -17.6195   19.1376 C   0  0  1  0  0  0  0  0  0  0  0  0
  -25.3251  -28.7882   21.6834 C   0  0  1  0  0  0  0  0  0  0  0  0
  -30.8469  -23.7548   17.2918 C   0  0  0  0  0  0  0  0  0  0  0  0
  -29.9752  -18.5745   21.8222 C   0  0  0  0  0  0  0  0  0  0  0  0
  -31.3086  -20.5860   21.1561 C   0  0  0  0  0  0  0  0  0  0  0  0
  -31.4734  -18.4848   19.8217 C   0  0  0  0  0  0  0  0  0  0  0  0
  -28.2059  -21.6030   15.5976 C   0  0  0  0  0  0  0  0  0  0  0  0
  -21.2050  -22.6025   21.1156 C   0  0  0  0  0  0  0  0  0  1  0  0
  -29.3710  -19.8818   19.6793 C   0  0  1  0  0  0  0  0  0  0  0  0
  -30.0741  -22.4765   17.0067 C   0  0  2  0  0  0  0  0  0  0  0  0
  -30.5036  -19.3828   20.6204 C   0  0  0  0  0  0  0  0  0  0  0  0
  -26.7996  -28.5116   19.7265 N   0  0  0  0  0  0  0  0  0  0  0  0
  -25.8352  -27.9862   20.5010 N   0  0  0  0  0  0  0  0  0  0  0  0
  -27.1642  -18.7845   19.4562 N   0  0  0  0  0  0  0  0  0  0  0  0
  -23.6400  -30.3854   22.4959 N   0  0  0  0  0  0  0  0  0  0  0  0
  -17.6951  -29.7001   21.7871 N   0  0  0  0  0  0  0  0  0  0  0  0
  -24.4623  -26.0752   20.7726 N   0  0  0  0  0  0  0  0  0  0  0  0
  -26.9250  -25.0784   17.1206 N   0  0  0  0  0  0  0  0  0  0  0  0
  -19.8161  -24.5502   21.0553 N   0  0  0  0  0  0  0  0  0  0  0  0
  -21.5144  -29.3437   22.5251 N   0  0  0  0  0  0  0  0  0  0  0  0
  -25.5767  -15.5915   20.2183 N   0  0  0  0  0  0  0  0  0  0  0  0
  -29.8441  -20.6273   18.5180 N   0  0  0  0  0  0  0  0  0  0  0  0
  -29.0273  -22.7772   15.9894 N   0  3  0  0  0  0  0  0  0  0  0  0
  -19.7128  -29.5409   23.9904 O   0  0  0  0  0  0  0  0  0  0  0  0
  -25.2736  -24.3166   18.5174 O   0  0  0  0  0  0  0  0  0  0  0  0
  -26.8214  -17.1631   21.4028 O   0  0  0  0  0  0  0  0  0  0  0  0
  -29.0635  -17.8712   18.4590 O   0  0  0  0  0  0  0  0  0  0  0  0
  -21.8418  -24.6206   22.2463 O   0  0  0  0  0  0  0  0  0  0  0  0
  -28.6646  -22.5727   18.9667 O   0  0  0  0  0  0  0  0  0  0  0  0
  -22.0764  -30.9010   24.1305 O   0  0  0  0  0  0  0  0  0  0  0  0
  -30.8190  -28.3106   14.7915 O   0  0  0  0  0  0  0  0  0  0  0  0
  -22.4224  -22.0721   21.6381 O   0  0  0  0  0  0  0  0  0  1  0  0
  -29.4045  -26.9853    9.6295 F   0  0  0  0  0  0  0  0  0  0  0  0
  -30.8403  -30.2101   12.7830 F   0  0  0  0  0  0  0  0  0  0  0  0
  1  2  1  0  0  0  0
  1  5  2  0  0  0  0
  2  6  2  0  0  0  0
  3 10  2  0  0  0  0
  3 18  1  0  0  0  0
  4 11  1  0  0  0  0
  4 18  2  0  0  0  0
  5 21  1  0  0  0  0
  6 23  1  0  0  0  0
  7 12  2  0  0  0  0
  7 22  1  0  0  0  0
  8  9  2  0  0  0  0
  8 25  1  0  0  0  0
  9 26  1  0  0  0  0
 10 27  1  0  0  0  0
 11 27  2  0  0  0  0
 12 28  1  0  0  0  0
 13 14  2  0  0  0  0
 13 29  1  0  0  0  0
 14 30  1  0  0  0  0
 15 19  1  0  0  0  0
 15 25  2  0  0  0  0
 16 24  1  0  0  0  0
 16 28  2  0  0  0  0
 17 30  2  0  0  0  0
 17 31  1  0  0  0  0
 18 32  1  0  0  0  0
 19 26  2  0  0  0  0
 19 34  1  0  0  0  0
 20 32  1  0  0  0  0
 20 33  2  0  0  0  0
 20 35  1  0  0  0  0
 21 23  2  0  0  0  0
 21 41  1  0  0  0  0
 22 24  2  0  0  0  0
 22 42  1  0  0  0  0
 23 50  1  0  0  0  0
 24 43  1  0  0  0  0
 25 69  1  0  0  0  0
 26 66  1  0  0  0  0
 27 81  1  0  0  0  0
 28 82  1  0  0  0  0
 29 31  2  0  0  0  0
 29 81  1  0  0  0  0
 30 83  1  0  0  0  0
 31 84  1  0  0  0  0
 32 62  2  0  0  0  0
 33 63  1  0  0  0  0
 33 67  1  0  0  0  0
 34 70  1  0  0  0  0
 34 74  2  0  0  0  0
 35 68  1  0  0  0  0
 35 75  2  0  0  0  0
 36 51  1  0  0  0  0
 36 71  1  0  0  0  0
 36 76  2  0  0  0  0
 37 59  1  0  0  0  0
 37 64  1  0  0  0  0
 37 77  2  0  0  0  0
 38 58  1  0  0  0  0
 38 69  1  0  0  0  0
 38 78  2  0  0  0  0
 39 60  1  0  0  0  0
 39 72  1  0  0  0  0
 39 79  2  0  0  0  0
 40 65  1  0  0  0  0
 40 70  1  0  0  0  0
 40 80  2  0  0  0  0
 41 44  1  0  0  0  0
 42 51  1  0  0  0  0
 43 64  1  0  0  0  0
 44 46  1  0  0  0  0
 45 47  1  0  0  0  0
 45 48  1  0  0  0  0
 46 50  1  0  0  0  0
 47 52  1  0  0  0  0
 48 65  1  0  0  0  0
 49 52  1  0  0  0  0
 49 65  1  0  0  0  0
 50 71  1  0  0  0  0
 51 64  1  0  0  0  0
 52 63  1  0  0  0  0
 53 60  1  0  0  0  0
 54 61  1  0  0  0  0
 55 61  1  0  0  0  0
 56 61  1  0  0  0  0
 57 73  1  0  0  0  0
 58 82  1  0  0  0  0
 59 61  1  0  0  0  0
 59 72  1  0  0  0  0
 60 73  1  0  0  0  0
 62 63  1  0  0  0  0
M  CHG  1  73   1
M  ISO  4  40 100  58 101  70 100  82 101
M  END
> <Batch ID>
0094

> <Smiles>
CNC(C)C(=O)NC(C(=O)N1Cc2cc([101O:1][101CH2:1]C(=O)Nc3ccc(N)c(C(=O)[100NH:0][100C:0](=O)N4CCCC(n5nc(-c6ccc(Oc7ccc(F)cc7F)cc6)c(C(N)=O)c5N)C4)c3)ccc2CC1C(=O)NC1CCCc2ccccc21)C(C)(C)C

> <Shape>
0.228

> <Color>
0.072

> <Negative vol penalty>
0.000

$$$$

  -OEChem-04052300403D

 86 94  0     1  0  0  0  0  0999 V2000
  -19.2671  -31.6030   12.9648 C   0  0  0  0  0  0  0  0  0  0  0  0
  -19.3316  -30.2229   12.8017 C   0  0  0  0  0  0  0  0  0  0  0  0
  -23.1920   -9.8163   19.9308 C   0  0  0  0  0  0  0  0  0  0  0  0
  -23.5513  -10.0018   22.3127 C   0  0  0  0  0  0  0  0  0  0  0  0
  -20.1233  -32.2384   13.8631 C   0  0  0  0  0  0  0  0  0  0  0  0
  -20.2532  -29.4775   13.5362 C   0  0  0  0  0  0  0  0  0  0  0  0
  -19.4940  -23.8082   15.7244 C   0  0  0  0  0  0  0  0  0  0  0  0
  -22.4220   -8.6715   20.1361 C   0  0  0  0  0  0  0  0  0  0  0  0
  -22.7812   -8.8570   22.5181 C   0  0  0  0  0  0  0  0  0  0  0  0
  -19.8981  -22.5594   15.2543 C   0  0  0  0  0  0  0  0  0  0  0  0
  -23.1784   -5.5090   22.2654 C   0  0  0  0  0  0  0  0  0  0  0  0
  -23.6679   -4.5489   23.1510 C   0  0  0  0  0  0  0  0  0  0  0  0
  -28.3689  -18.3371   15.1433 C   0  0  0  0  0  0  0  0  0  0  0  0
  -21.8386  -22.6558   16.6841 C   0  0  0  0  0  0  0  0  0  0  0  0
  -25.9091  -18.1800   16.4501 C   0  0  0  0  0  0  0  0  0  0  0  0
  -21.7006   -4.8158   24.5278 C   0  0  0  0  0  0  0  0  0  0  0  0
  -23.7567  -10.4814   21.0191 C   0  0  0  0  0  0  0  0  0  0  0  0
  -28.2263  -17.5214   16.2657 C   0  0  0  0  0  0  0  0  0  0  0  0
  -24.1019  -12.9968   20.7720 C   0  0  0  0  0  0  0  0  0  0  0  0
  -21.0492  -31.4993   14.6161 C   0  0  0  0  0  0  0  0  0  0  0  0
  -20.2662  -24.4962   16.6714 C   0  0  0  0  0  0  0  0  0  0  0  0
  -21.1235  -30.1038   14.4445 C   0  0  0  0  0  0  0  0  0  0  0  0
  -21.4408  -23.9120   17.1665 C   0  0  0  0  0  0  0  0  0  0  0  0
  -27.2816  -19.0744   14.6742 C   0  0  0  0  0  0  0  0  0  0  0  0
  -26.0517  -18.9958   15.3276 C   0  0  0  0  0  0  0  0  0  0  0  0
  -22.2166   -8.1919   21.4297 C   0  0  0  0  0  0  0  0  0  0  0  0
  -21.0720  -21.9843   15.7320 C   0  0  0  0  0  0  0  0  0  0  0  0
  -21.9500   -6.1226   22.5110 C   0  0  0  0  0  0  0  0  0  0  0  0
  -22.9291   -4.2023   24.2821 C   0  0  0  0  0  0  0  0  0  0  0  0
  -26.9965  -17.4428   16.9191 C   0  0  0  0  0  0  0  0  0  0  0  0
  -21.2112   -5.7759   23.6422 C   0  0  0  0  0  0  0  0  0  0  0  0
  -24.5527  -11.6637   20.8076 C   0  0  0  0  0  0  0  0  0  0  0  0
  -25.2363  -13.7369   20.5441 C   0  0  0  0  0  0  0  0  0  0  0  0
  -29.3874  -16.7409   16.7654 C   0  0  0  0  0  0  0  0  0  0  0  0
  -22.7763  -13.5195   20.9308 C   0  0  0  0  0  0  0  0  0  0  0  0
  -21.8165  -27.2708   16.7131 C   0  0  0  0  0  0  0  0  0  0  0  0
  -22.2788  -26.5207   19.8350 C   0  0  0  0  0  0  0  0  0  0  0  0
  -22.4708  -24.1031   22.2361 C   0  0  0  0  0  0  0  0  0  0  0  0
  -23.6581  -19.7717   15.4154 C   0  0  0  0  0  0  0  0  0  0  0  0
  -30.0211  -14.6343   17.8987 C   0  0  0  0  0  0  0  0  0  0  0  0
  -21.9864  -32.2359   15.5401 C   0  0  0  0  0  0  0  0  0  0  0  0
  -19.8026  -25.8305   17.1883 C   0  0  0  0  0  0  0  0  0  0  0  0
  -22.2947  -24.6004   18.1986 C   0  0  0  0  0  0  0  0  0  0  0  0
  -22.6780  -31.3297   16.5553 C   0  0  0  0  0  0  0  0  0  0  0  0
  -30.1202  -12.3977   20.6345 C   0  0  0  0  0  0  0  0  0  0  0  0
  -23.2235  -30.0803   15.8710 C   0  0  0  0  0  0  0  0  0  0  0  0
  -28.6432  -12.1210   20.9284 C   0  0  0  0  0  0  0  0  0  0  0  0
  -30.3877  -12.5169   19.1348 C   0  0  0  0  0  0  0  0  0  0  0  0
  -28.0584  -13.1933   18.7166 C   0  0  0  0  0  0  0  0  0  0  0  0
  -22.0928  -29.2578   15.2414 C   0  0  1  0  0  0  0  0  0  0  0  0
  -20.9341  -26.6713   17.7713 C   0  0  1  0  0  0  0  0  0  0  0  0
  -27.7252  -13.1346   20.2162 C   0  0  1  0  0  0  0  0  0  0  0  0
  -27.4632  -19.9402   13.4699 C   0  0  0  0  0  0  0  0  0  0  0  0
  -22.8989  -23.7927   24.6892 C   0  0  0  0  0  0  0  0  0  0  0  0
  -22.5458  -20.2122   13.1955 C   0  0  0  0  0  0  0  0  0  0  0  0
  -25.2637  -26.9445   19.3652 C   0  0  0  0  0  0  0  0  0  0  0  0
  -25.7029  -25.7272   21.5085 C   0  0  0  0  0  0  0  0  0  0  0  0
  -24.4081  -27.8592   21.5299 C   0  0  0  0  0  0  0  0  0  0  0  0
  -19.7842  -22.9423   22.6763 C   0  0  0  0  0  0  0  0  0  0  0  0
  -23.3324  -25.7651   20.6083 C   0  0  1  0  0  0  0  0  0  0  0  0
  -21.8431  -24.0003   23.6145 C   0  0  2  0  0  0  0  0  0  0  0  0
  -22.7378  -20.6979   14.6245 C   0  0  1  0  0  0  0  0  0  1  0  0
  -24.6619  -26.5616   20.7321 C   0  0  0  0  0  0  0  0  0  0  0  0
  -25.8706  -11.5598   20.6174 N   0  0  0  0  0  0  0  0  0  0  0  0
  -26.2577  -12.8370   20.4600 N   0  0  0  0  0  0  0  0  0  0  0  0
  -21.8026  -25.9061   18.6682 N   0  0  0  0  0  0  0  0  0  0  0  0
  -29.4850  -13.5025   18.5373 N   0  0  0  0  0  0  0  0  0  0  0  0
  -25.4497  -15.0631   20.4093 N   0  0  0  0  0  0  0  0  0  0  0  0
  -21.7261  -12.6197   21.1586 N   0  0  0  0  0  0  0  0  0  0  0  0
  -24.9369  -19.7374   14.8691 N   0  0  0  0  0  0  0  0  0  0  0  0
  -29.0763  -15.5370   17.3982 N   0  0  0  0  0  0  0  0  0  0  0  0
  -21.3902  -28.5036   16.2573 N   0  0  0  0  0  0  0  0  0  0  0  0
  -22.7257  -25.4125   21.8873 N   0  0  0  0  0  0  0  0  0  0  0  0
  -20.8894  -22.8564   23.6654 N   0  3  0  0  0  0  0  0  0  0  0  0
  -30.5228  -17.1639   16.5658 O   0  0  0  0  0  0  0  0  0  0  0  0
  -22.5278  -14.7468   20.8561 O   0  0  0  0  0  0  0  0  0  0  0  0
  -22.8112  -26.6607   16.3390 O   0  0  0  0  0  0  0  0  0  0  0  0
  -21.8874  -27.6126   20.2547 O   0  0  0  0  0  0  0  0  0  0  0  0
  -22.7142  -23.1199   21.5400 O   0  0  0  0  0  0  0  0  0  0  0  0
  -23.2578  -19.1749   16.4107 O   0  0  0  0  0  0  0  0  0  0  0  0
  -31.2355  -14.8427   17.8149 O   0  0  0  0  0  0  0  0  0  0  0  0
  -21.4651   -7.0750   21.6305 O   0  0  0  0  0  0  0  0  0  0  0  0
  -21.4691  -20.7658   15.2743 O   0  0  0  0  0  0  0  0  0  1  0  0
  -23.3985   -3.2792   25.1316 F   0  0  0  0  0  0  0  0  0  0  0  0
  -26.8497  -16.6644   18.0007 F   0  0  0  0  0  0  0  0  0  0  0  0
  -20.0298   -6.3611   23.8829 F   0  0  0  0  0  0  0  0  0  0  0  0
  1  2  1  0  0  0  0
  1  5  2  0  0  0  0
  2  6  2  0  0  0  0
  3  8  2  0  0  0  0
  3 17  1  0  0  0  0
  4  9  1  0  0  0  0
  4 17  2  0  0  0  0
  5 20  1  0  0  0  0
  6 22  1  0  0  0  0
  7 10  2  0  0  0  0
  7 21  1  0  0  0  0
  8 26  1  0  0  0  0
  9 26  2  0  0  0  0
 10 27  1  0  0  0  0
 11 12  2  0  0  0  0
 11 28  1  0  0  0  0
 12 29  1  0  0  0  0
 13 18  2  0  0  0  0
 13 24  1  0  0  0  0
 14 23  1  0  0  0  0
 14 27  2  0  0  0  0
 15 25  1  0  0  0  0
 15 30  2  0  0  0  0
 16 29  2  0  0  0  0
 16 31  1  0  0  0  0
 17 32  1  0  0  0  0
 18 30  1  0  0  0  0
 18 34  1  0  0  0  0
 19 32  1  0  0  0  0
 19 33  2  0  0  0  0
 19 35  1  0  0  0  0
 20 22  2  0  0  0  0
 20 41  1  0  0  0  0
 21 23  2  0  0  0  0
 21 42  1  0  0  0  0
 22 50  1  0  0  0  0
 23 43  1  0  0  0  0
 24 25  2  0  0  0  0
 24 53  1  0  0  0  0
 25 70  1  0  0  0  0
 26 82  1  0  0  0  0
 27 83  1  0  0  0  0
 28 31  2  0  0  0  0
 28 82  1  0  0  0  0
 29 84  1  0  0  0  0
 30 85  1  0  0  0  0
 31 86  1  0  0  0  0
 32 64  2  0  0  0  0
 33 65  1  0  0  0  0
 33 68  1  0  0  0  0
 34 71  1  0  0  0  0
 34 75  2  0  0  0  0
 35 69  1  0  0  0  0
 35 76  2  0  0  0  0
 36 51  1  0  0  0  0
 36 72  1  0  0  0  0
 36 77  2  0  0  0  0
 37 60  1  0  0  0  0
 37 66  1  0  0  0  0
 37 78  2  0  0  0  0
 38 61  1  0  0  0  0
 38 73  1  0  0  0  0
 38 79  2  0  0  0  0
 39 62  1  0  0  0  0
 39 70  1  0  0  0  0
 39 80  2  0  0  0  0
 40 67  1  0  0  0  0
 40 71  1  0  0  0  0
 40 81  2  0  0  0  0
 41 44  1  0  0  0  0
 42 51  1  0  0  0  0
 43 66  1  0  0  0  0
 44 46  1  0  0  0  0
 45 47  1  0  0  0  0
 45 48  1  0  0  0  0
 46 50  1  0  0  0  0
 47 52  1  0  0  0  0
 48 67  1  0  0  0  0
 49 52  1  0  0  0  0
 49 67  1  0  0  0  0
 50 72  1  0  0  0  0
 51 66  1  0  0  0  0
 52 65  1  0  0  0  0
 54 61  1  0  0  0  0
 55 62  1  0  0  0  0
 56 63  1  0  0  0  0
 57 63  1  0  0  0  0
 58 63  1  0  0  0  0
 59 74  1  0  0  0  0
 60 63  1  0  0  0  0
 60 73  1  0  0  0  0
 61 74  1  0  0  0  0
 62 83  1  0  0  0  0
 64 65  1  0  0  0  0
M  CHG  1  74   1
M  ISO  4  40 100  62 101  71 100  83 101
M  END
> <Batch ID>
0094

> <Smiles>
CNC(C)C(=O)NC(C(=O)N1Cc2cc([101O:1][101CH:1](C)C(=O)Nc3cc(F)c(C(=O)[100NH:0][100C:0](=O)N4CCCC(n5nc(-c6ccc(Oc7ccc(F)cc7F)cc6)c(C(N)=O)c5N)C4)cc3C)ccc2CC1C(=O)NC1CCCc2ccccc21)C(C)(C)C

> <Shape>
0.155

> <Color>
0.178

> <Negative vol penalty>
0.000

$$$$

  -OEChem-04052300403D

 85 94  0     1  0  0  0  0  0999 V2000
  -24.2478  -33.1395   21.8739 C   0  0  0  0  0  0  0  0  0  0  0  0
  -24.7204  -31.8312   21.8943 C   0  0  0  0  0  0  0  0  0  0  0  0
  -23.3297  -16.2047   22.6296 C   0  0  0  0  0  0  0  0  0  0  0  0
  -22.3996  -16.0678   20.4040 C   0  0  0  0  0  0  0  0  0  0  0  0
  -22.9777  -33.4285   22.3712 C   0  0  0  0  0  0  0  0  0  0  0  0
  -23.9235  -30.8112   22.4130 C   0  0  0  0  0  0  0  0  0  0  0  0
  -23.9229  -26.6720   19.4954 C   0  0  0  0  0  0  0  0  0  0  0  0
  -29.8399  -19.3454   20.6228 C   0  0  0  0  0  0  0  0  0  0  0  0
  -30.3460  -18.0473   20.5581 C   0  0  0  0  0  0  0  0  0  0  0  0
  -22.3581  -17.1428   22.9780 C   0  0  0  0  0  0  0  0  0  0  0  0
  -21.4279  -17.0059   20.7524 C   0  0  0  0  0  0  0  0  0  0  0  0
  -25.0349  -25.8351   19.5774 C   0  0  0  0  0  0  0  0  0  0  0  0
  -19.9022  -19.3047   24.5622 C   0  0  0  0  0  0  0  0  0  0  0  0
  -19.2591  -19.1469   25.7898 C   0  0  0  0  0  0  0  0  0  0  0  0
  -23.8071  -24.3567   21.0355 C   0  0  0  0  0  0  0  0  0  0  0  0
  -29.0804  -18.9369   22.8797 C   0  0  0  0  0  0  0  0  0  0  0  0
  -18.4499  -16.9815   25.0876 C   0  0  0  0  0  0  0  0  0  0  0  0
  -23.3505  -15.6672   21.3426 C   0  0  0  0  0  0  0  0  0  0  0  0
  -24.2676  -13.2987   21.1040 C   0  0  0  0  0  0  0  0  0  0  0  0
  -22.1610  -32.4100   22.8873 C   0  0  0  0  0  0  0  0  0  0  0  0
  -22.7462  -26.3627   20.1927 C   0  0  0  0  0  0  0  0  0  0  0  0
  -22.6418  -31.0870   22.9188 C   0  0  0  0  0  0  0  0  0  0  0  0
  -22.6807  -25.1900   20.9586 C   0  0  0  0  0  0  0  0  0  0  0  0
  -29.2071  -19.7903   21.7836 C   0  0  0  0  0  0  0  0  0  0  0  0
  -30.2193  -17.1939   21.6542 C   0  0  0  0  0  0  0  0  0  0  0  0
  -21.4072  -17.5434   22.0395 C   0  0  0  0  0  0  0  0  0  0  0  0
  -24.9781  -24.6787   20.3498 C   0  0  0  0  0  0  0  0  0  0  0  0
  -19.8191  -18.3009   23.5972 C   0  0  0  0  0  0  0  0  0  0  0  0
  -18.5330  -17.9853   26.0525 C   0  0  0  0  0  0  0  0  0  0  0  0
  -29.5865  -17.6387   22.8150 C   0  0  0  0  0  0  0  0  0  0  0  0
  -19.0930  -17.1393   23.8599 C   0  0  0  0  0  0  0  0  0  0  0  0
  -24.3543  -14.6984   20.9819 C   0  0  0  0  0  0  0  0  0  0  0  0
  -25.4707  -12.8373   20.6286 C   0  0  0  0  0  0  0  0  0  0  0  0
  -28.0607  -21.7384   22.8375 C   0  0  0  0  0  0  0  0  0  0  0  0
  -23.1952  -12.4879   21.6025 C   0  0  0  0  0  0  0  0  0  0  0  0
  -21.0667  -27.7716   22.4945 C   0  0  0  0  0  0  0  0  0  0  0  0
  -18.9814  -25.3553   21.9157 C   0  0  0  0  0  0  0  0  0  0  0  0
  -18.4624  -22.1983   20.7280 C   0  0  0  0  0  0  0  0  0  0  0  0
  -30.8077  -15.1527   20.3586 C   0  0  0  0  0  0  0  0  0  0  0  0
  -20.8140  -32.7783   23.4570 C   0  0  0  0  0  0  0  0  0  0  0  0
  -21.5466  -27.2620   20.0725 C   0  0  0  0  0  0  0  0  0  0  0  0
  -21.4344  -24.8024   21.7103 C   0  0  0  0  0  0  0  0  0  0  0  0
  -19.8847  -31.5820   23.6456 C   0  0  0  0  0  0  0  0  0  0  0  0
  -28.9679  -13.9407   17.5676 C   0  0  0  0  0  0  0  0  0  0  0  0
  -20.6266  -30.4303   24.3165 C   0  0  0  0  0  0  0  0  0  0  0  0
  -27.5538  -13.8718   18.1431 C   0  0  0  0  0  0  0  0  0  0  0  0
  -29.7242  -15.1775   18.0538 C   0  0  0  0  0  0  0  0  0  0  0  0
  -28.4504  -22.0458   20.7951 C   0  0  0  0  0  0  0  0  0  0  0  0
  -28.3396  -15.2541   20.1035 C   0  0  0  0  0  0  0  0  0  0  0  0
  -21.7973  -29.9494   23.4506 C   0  0  1  0  0  0  0  0  0  0  0  0
  -27.7099  -22.8868   21.8661 C   0  0  1  0  0  0  0  0  0  0  0  0
  -20.5713  -27.1161   21.2365 C   0  0  1  0  0  0  0  0  0  0  0  0
  -27.5756  -13.9907   19.6773 C   0  0  1  0  0  0  0  0  0  0  0  0
  -16.6589  -20.4803   20.4223 C   0  0  0  0  0  0  0  0  0  0  0  0
  -19.0880  -24.7164   24.8974 C   0  0  0  0  0  0  0  0  0  0  0  0
  -18.0689  -22.4876   24.3852 C   0  0  0  0  0  0  0  0  0  0  0  0
  -16.8066  -24.5796   23.8821 C   0  0  0  0  0  0  0  0  0  0  0  0
  -31.4347  -15.3066   22.7583 C   0  0  0  0  0  0  0  0  0  0  0  0
  -18.8112  -22.1862   17.7891 C   0  0  0  0  0  0  0  0  0  0  0  0
  -26.2288  -23.1227   21.6422 C   0  0  0  0  0  0  0  0  0  1  0  0
  -18.7929  -23.9552   22.4479 C   0  0  1  0  0  0  0  0  0  0  0  0
  -17.4137  -21.6365   19.7850 C   0  0  2  0  0  0  0  0  0  0  0  0
  -18.2134  -23.9427   23.8907 C   0  0  0  0  0  0  0  0  0  0  0  0
  -25.5205  -15.1000   20.4693 N   0  0  0  0  0  0  0  0  0  0  0  0
  -26.1776  -13.9456   20.2651 N   0  0  0  0  0  0  0  0  0  0  0  0
  -28.7071  -21.0709   21.8474 N   0  0  0  0  0  0  0  0  0  0  0  0
  -20.2900  -25.7173   21.5662 N   0  0  0  0  0  0  0  0  0  0  0  0
  -29.6832  -15.2704   19.5200 N   0  0  0  0  0  0  0  0  0  0  0  0
  -25.9824  -11.5958   20.4903 N   0  0  0  0  0  0  0  0  0  0  0  0
  -22.0297  -13.1239   22.0514 N   0  0  0  0  0  0  0  0  0  0  0  0
  -21.3162  -29.1244   22.3633 N   0  0  0  0  0  0  0  0  0  0  0  0
  -17.9714  -23.2531   21.4679 N   0  0  0  0  0  0  0  0  0  0  0  0
  -30.7439  -15.8503   21.5840 N   0  0  0  0  0  0  0  0  0  0  0  0
  -18.0536  -21.1461   18.5317 N   0  3  0  0  0  0  0  0  0  0  0  0
  -27.8364  -21.4794   23.9980 O   0  0  0  0  0  0  0  0  0  0  0  0
  -23.2748  -11.2376   21.6639 O   0  0  0  0  0  0  0  0  0  0  0  0
  -21.2105  -27.1001   23.5094 O   0  0  0  0  0  0  0  0  0  0  0  0
  -18.0024  -26.0979   21.8071 O   0  0  0  0  0  0  0  0  0  0  0  0
  -19.6020  -21.7442   20.8035 O   0  0  0  0  0  0  0  0  0  0  0  0
  -31.7824  -14.4572   20.0486 O   0  0  0  0  0  0  0  0  0  0  0  0
  -20.4588  -18.4587   22.3792 O   0  0  0  0  0  0  0  0  0  0  0  0
  -26.0622  -23.8604   20.4321 O   0  0  0  0  0  0  0  0  0  1  0  0
  -17.9167  -17.8333   27.2321 F   0  0  0  0  0  0  0  0  0  0  0  0
  -29.4577  -16.8267   23.8741 F   0  0  0  0  0  0  0  0  0  0  0  0
  -19.0106  -16.1709   22.9372 F   0  0  0  0  0  0  0  0  0  0  0  0
  1  2  1  0  0  0  0
  1  5  2  0  0  0  0
  2  6  2  0  0  0  0
  3 10  2  0  0  0  0
  3 18  1  0  0  0  0
  4 11  1  0  0  0  0
  4 18  2  0  0  0  0
  5 20  1  0  0  0  0
  6 22  1  0  0  0  0
  7 12  2  0  0  0  0
  7 21  1  0  0  0  0
  8  9  2  0  0  0  0
  8 24  1  0  0  0  0
  9 25  1  0  0  0  0
 10 26  1  0  0  0  0
 11 26  2  0  0  0  0
 12 27  1  0  0  0  0
 13 14  2  0  0  0  0
 13 28  1  0  0  0  0
 14 29  1  0  0  0  0
 15 23  1  0  0  0  0
 15 27  2  0  0  0  0
 16 24  2  0  0  0  0
 16 30  1  0  0  0  0
 17 29  2  0  0  0  0
 17 31  1  0  0  0  0
 18 32  1  0  0  0  0
 19 32  1  0  0  0  0
 19 33  2  0  0  0  0
 19 35  1  0  0  0  0
 20 22  2  0  0  0  0
 20 40  1  0  0  0  0
 21 23  2  0  0  0  0
 21 41  1  0  0  0  0
 22 50  1  0  0  0  0
 23 42  1  0  0  0  0
 24 66  1  0  0  0  0
 25 30  2  0  0  0  0
 25 73  1  0  0  0  0
 26 81  1  0  0  0  0
 27 82  1  0  0  0  0
 28 31  2  0  0  0  0
 28 81  1  0  0  0  0
 29 83  1  0  0  0  0
 30 84  1  0  0  0  0
 31 85  1  0  0  0  0
 32 64  2  0  0  0  0
 33 65  1  0  0  0  0
 33 69  1  0  0  0  0
 34 51  1  0  0  0  0
 34 66  1  0  0  0  0
 34 75  2  0  0  0  0
 35 70  1  0  0  0  0
 35 76  2  0  0  0  0
 36 52  1  0  0  0  0
 36 71  1  0  0  0  0
 36 77  2  0  0  0  0
 37 61  1  0  0  0  0
 37 67  1  0  0  0  0
 37 78  2  0  0  0  0
 38 62  1  0  0  0  0
 38 72  1  0  0  0  0
 38 79  2  0  0  0  0
 39 68  1  0  0  0  0
 39 73  1  0  0  0  0
 39 80  2  0  0  0  0
 40 43  1  0  0  0  0
 41 52  1  0  0  0  0
 42 67  1  0  0  0  0
 43 45  1  0  0  0  0
 44 46  1  0  0  0  0
 44 47  1  0  0  0  0
 45 50  1  0  0  0  0
 46 53  1  0  0  0  0
 47 68  1  0  0  0  0
 48 51  1  0  0  0  0
 48 66  1  0  0  0  0
 49 53  1  0  0  0  0
 49 68  1  0  0  0  0
 50 71  1  0  0  0  0
 51 60  1  0  0  0  0
 52 67  1  0  0  0  0
 53 65  1  0  0  0  0
 54 62  1  0  0  0  0
 55 63  1  0  0  0  0
 56 63  1  0  0  0  0
 57 63  1  0  0  0  0
 58 73  1  0  0  0  0
 59 74  1  0  0  0  0
 60 82  1  0  0  0  0
 61 63  1  0  0  0  0
 61 72  1  0  0  0  0
 62 74  1  0  0  0  0
 64 65  1  0  0  0  0
M  CHG  1  74   1
M  ISO  4  39 100  60 101  73 100  82 101
M  END
> <Batch ID>
0094

> <Smiles>
CNC(C)C(=O)NC(C(=O)N1Cc2cc([101O:1][101CH2:1]C3CN(c4ccc([100N:0](C)[100C:0](=O)N5CCCC(n6nc(-c7ccc(Oc8ccc(F)cc8F)cc7)c(C(N)=O)c6N)C5)c(F)c4)C3=O)ccc2CC1C(=O)NC1CCCc2ccccc21)C(C)(C)C

> <Shape>
0.204

> <Color>
0.099

> <Negative vol penalty>
0.000

$$$$

  -OEChem-04052300403D

 87 96  0     1  0  0  0  0  0999 V2000
  -24.9629  -22.8313   15.5638 C   0  0  0  0  0  0  0  0  0  0  0  0
  -24.9730  -22.9495   16.9499 C   0  0  0  0  0  0  0  0  0  0  0  0
  -29.7989  -20.3588   23.6262 C   0  0  0  0  0  0  0  0  0  0  0  0
  -26.4349  -12.9460   21.0606 C   0  0  0  0  0  0  0  0  0  0  0  0
  -24.9178  -14.4502   19.9324 C   0  0  0  0  0  0  0  0  0  0  0  0
  -25.0167  -23.9745   14.7674 C   0  0  0  0  0  0  0  0  0  0  0  0
  -25.0380  -24.2110   17.5405 C   0  0  0  0  0  0  0  0  0  0  0  0
  -21.7813  -24.7268   21.3840 C   0  0  0  0  0  0  0  0  0  0  0  0
  -28.8063  -20.2176   24.5959 C   0  0  0  0  0  0  0  0  0  0  0  0
  -29.5139  -21.0101   22.4261 C   0  0  0  0  0  0  0  0  0  0  0  0
  -25.6615  -11.8595   20.6521 C   0  0  0  0  0  0  0  0  0  0  0  0
  -24.1444  -13.3636   19.5238 C   0  0  0  0  0  0  0  0  0  0  0  0
  -22.1358  -24.1466   22.6012 C   0  0  0  0  0  0  0  0  0  0  0  0
  -23.8868   -8.7167   20.2085 C   0  0  0  0  0  0  0  0  0  0  0  0
  -23.5986   -7.7320   21.1535 C   0  0  0  0  0  0  0  0  0  0  0  0
  -22.8591  -26.3009   23.4105 C   0  0  0  0  0  0  0  0  0  0  0  0
  -27.2436  -21.3789   23.1654 C   0  0  0  0  0  0  0  0  0  0  0  0
  -22.4874   -9.3777   22.5296 C   0  0  0  0  0  0  0  0  0  0  0  0
  -26.0630  -14.2414   20.7008 C   0  0  0  0  0  0  0  0  0  0  0  0
  -27.1536  -15.7503   22.4448 C   0  0  0  0  0  0  0  0  0  0  0  0
  -25.0726  -25.2511   15.3486 C   0  0  0  0  0  0  0  0  0  0  0  0
  -21.9735  -26.0987   21.1667 C   0  0  0  0  0  0  0  0  0  0  0  0
  -25.0940  -25.3723   16.7512 C   0  0  0  0  0  0  0  0  0  0  0  0
  -22.5039  -26.8965   22.1906 C   0  0  0  0  0  0  0  0  0  0  0  0
  -27.5287  -20.7276   24.3656 C   0  0  0  0  0  0  0  0  0  0  0  0
  -28.2362  -21.5201   22.1957 C   0  0  0  0  0  0  0  0  0  0  0  0
  -24.5162  -12.0683   19.8837 C   0  0  0  0  0  0  0  0  0  0  0  0
  -22.6775  -24.9331   23.6136 C   0  0  0  0  0  0  0  0  0  0  0  0
  -23.4753  -10.0320   20.4241 C   0  0  0  0  0  0  0  0  0  0  0  0
  -22.8989   -8.0625   22.3140 C   0  0  0  0  0  0  0  0  0  0  0  0
  -22.7756  -10.3625   21.5847 C   0  0  0  0  0  0  0  0  0  0  0  0
  -26.8613  -15.3642   21.1230 C   0  0  0  0  0  0  0  0  0  0  0  0
  -27.9401  -16.8682   22.3101 C   0  0  0  0  0  0  0  0  0  0  0  0
  -26.9656  -22.1324   27.2508 C   0  0  0  0  0  0  0  0  0  0  0  0
  -26.7503  -15.1518   23.6838 C   0  0  0  0  0  0  0  0  0  0  0  0
  -23.7056  -27.8274   19.1381 C   0  0  0  0  0  0  0  0  0  0  0  0
  -22.1149  -30.3050   20.4997 C   0  0  0  0  0  0  0  0  0  0  0  0
  -20.4107  -31.5236   23.1936 C   0  0  0  0  0  0  0  0  0  0  0  0
  -28.5814  -21.8871   19.7386 C   0  0  0  0  0  0  0  0  0  0  0  0
  -25.1771  -26.4554   14.4467 C   0  0  0  0  0  0  0  0  0  0  0  0
  -21.5611  -26.7141   19.8576 C   0  0  0  0  0  0  0  0  0  0  0  0
  -22.7115  -28.3779   22.0148 C   0  0  0  0  0  0  0  0  0  0  0  0
  -26.6015  -23.4076   27.9857 C   0  0  0  0  0  0  0  0  0  0  0  0
  -24.8663  -27.7732   15.1517 C   0  0  0  0  0  0  0  0  0  0  0  0
  -25.9862  -24.4844   27.1137 C   0  0  0  0  0  0  0  0  0  0  0  0
  -30.1832  -18.8928   18.2684 C   0  0  0  0  0  0  0  0  0  0  0  0
  -25.5946  -27.8475   16.4899 C   0  0  0  0  0  0  0  0  0  0  0  0
  -29.4241  -17.7433   18.9284 C   0  0  0  0  0  0  0  0  0  0  0  0
  -29.3200  -20.1448   18.1452 C   0  0  0  0  0  0  0  0  0  0  0  0
  -25.3300  -22.7754   25.4452 C   0  0  0  0  0  0  0  0  0  0  0  0
  -27.9770  -19.4457   20.1070 C   0  0  0  0  0  0  0  0  0  0  0  0
  -25.1387  -26.7244   17.4292 C   0  0  1  0  0  0  0  0  0  0  0  0
  -22.2783  -28.0279   19.5628 C   0  0  1  0  0  0  0  0  0  0  0  0
  -24.8132  -23.8971   26.3405 C   0  0  2  0  0  0  0  0  0  0  0  0
  -28.8379  -18.1854   20.2794 C   0  0  1  0  0  0  0  0  0  0  0  0
  -19.2653  -33.5948   24.0276 C   0  0  0  0  0  0  0  0  0  0  0  0
  -24.8307  -31.5806   21.0544 C   0  0  0  0  0  0  0  0  0  0  0  0
  -23.7010  -33.1126   22.6806 C   0  0  0  0  0  0  0  0  0  0  0  0
  -23.0709  -33.1739   20.2678 C   0  0  0  0  0  0  0  0  0  0  0  0
  -27.1403  -23.4145   21.0121 C   0  0  0  0  0  0  0  0  0  0  0  0
  -17.8075  -30.1337   23.4183 C   0  0  0  0  0  0  0  0  0  0  0  0
  -26.4606  -20.5754   25.4097 C   0  0  0  0  0  0  0  0  0  0  0  0
  -24.1066  -24.9690   25.5142 C   0  0  0  0  0  0  0  0  0  1  0  0
  -22.3553  -31.2071   21.6860 C   0  0  1  0  0  0  0  0  0  0  0  0
  -19.0938  -32.2714   23.2983 C   0  0  2  0  0  0  0  0  0  0  0  0
  -23.4875  -32.2403   21.4251 C   0  0  0  0  0  0  0  0  0  0  0  0
  -27.4167  -16.1714   20.2153 N   0  0  0  0  0  0  0  0  0  0  0  0
  -28.0658  -17.0759   20.9680 N   0  0  0  0  0  0  0  0  0  0  0  0
  -26.2117  -21.8224   26.1209 N   0  0  0  0  0  0  0  0  0  0  0  0
  -22.2985  -28.9317   20.7147 N   0  0  0  0  0  0  0  0  0  0  0  0
  -28.7203  -20.5189   19.4270 N   0  0  0  0  0  0  0  0  0  0  0  0
  -28.5293  -17.6840   23.2099 N   0  0  0  0  0  0  0  0  0  0  0  0
  -25.5556  -15.5830   24.2763 N   0  0  0  0  0  0  0  0  0  0  0  0
  -23.8520  -27.0426   18.0102 N   0  0  0  0  0  0  0  0  0  0  0  0
  -21.0650  -31.8043   22.0128 N   0  0  0  0  0  0  0  0  0  0  0  0
  -27.9420  -22.1942   20.9548 N   0  0  0  0  0  0  0  0  0  0  0  0
  -18.0912  -31.4537   24.0380 N   0  3  0  0  0  0  0  0  0  0  0  0
  -27.8404  -21.4002   27.7217 O   0  0  0  0  0  0  0  0  0  0  0  0
  -27.4375  -14.2728   24.2569 O   0  0  0  0  0  0  0  0  0  0  0  0
  -24.6071  -28.3476   19.7849 O   0  0  0  0  0  0  0  0  0  0  0  0
  -21.7698  -30.7999   19.4238 O   0  0  0  0  0  0  0  0  0  0  0  0
  -20.8200  -30.7691   24.0732 O   0  0  0  0  0  0  0  0  0  0  0  0
  -28.9509  -22.7760   18.9615 O   0  0  0  0  0  0  0  0  0  0  0  0
  -23.7614  -11.0083   19.4847 O   0  0  0  0  0  0  0  0  0  0  0  0
  -23.0250  -24.3692   24.8024 O   0  0  0  0  0  0  0  0  0  1  0  0
  -22.6210   -7.1165   23.2206 F   0  0  0  0  0  0  0  0  0  0  0  0
  -22.3767  -11.6241   21.7968 F   0  0  0  0  0  0  0  0  0  0  0  0
  1  2  1  0  0  0  0
  1  6  2  0  0  0  0
  2  7  2  0  0  0  0
  3  9  2  0  0  0  0
  3 10  1  0  0  0  0
  4 11  2  0  0  0  0
  4 19  1  0  0  0  0
  5 12  1  0  0  0  0
  5 19  2  0  0  0  0
  6 21  1  0  0  0  0
  7 23  1  0  0  0  0
  8 13  2  0  0  0  0
  8 22  1  0  0  0  0
  9 25  1  0  0  0  0
 10 26  2  0  0  0  0
 11 27  1  0  0  0  0
 12 27  2  0  0  0  0
 13 28  1  0  0  0  0
 14 15  2  0  0  0  0
 14 29  1  0  0  0  0
 15 30  1  0  0  0  0
 16 24  1  0  0  0  0
 16 28  2  0  0  0  0
 17 25  2  0  0  0  0
 17 26  1  0  0  0  0
 18 30  2  0  0  0  0
 18 31  1  0  0  0  0
 19 32  1  0  0  0  0
 20 32  1  0  0  0  0
 20 33  2  0  0  0  0
 20 35  1  0  0  0  0
 21 23  2  0  0  0  0
 21 40  1  0  0  0  0
 22 24  2  0  0  0  0
 22 41  1  0  0  0  0
 23 52  1  0  0  0  0
 24 42  1  0  0  0  0
 25 62  1  0  0  0  0
 26 76  1  0  0  0  0
 27 84  1  0  0  0  0
 28 85  1  0  0  0  0
 29 31  2  0  0  0  0
 29 84  1  0  0  0  0
 30 86  1  0  0  0  0
 31 87  1  0  0  0  0
 32 67  2  0  0  0  0
 33 68  1  0  0  0  0
 33 72  1  0  0  0  0
 34 43  1  0  0  0  0
 34 69  1  0  0  0  0
 34 78  2  0  0  0  0
 35 73  1  0  0  0  0
 35 79  2  0  0  0  0
 36 53  1  0  0  0  0
 36 74  1  0  0  0  0
 36 80  2  0  0  0  0
 37 64  1  0  0  0  0
 37 70  1  0  0  0  0
 37 81  2  0  0  0  0
 38 65  1  0  0  0  0
 38 75  1  0  0  0  0
 38 82  2  0  0  0  0
 39 71  1  0  0  0  0
 39 76  1  0  0  0  0
 39 83  2  0  0  0  0
 40 44  1  0  0  0  0
 41 53  1  0  0  0  0
 42 70  1  0  0  0  0
 43 45  1  0  0  0  0
 44 47  1  0  0  0  0
 45 54  1  0  0  0  0
 46 48  1  0  0  0  0
 46 49  1  0  0  0  0
 47 52  1  0  0  0  0
 48 55  1  0  0  0  0
 49 71  1  0  0  0  0
 50 54  1  0  0  0  0
 50 69  1  0  0  0  0
 51 55  1  0  0  0  0
 51 71  1  0  0  0  0
 52 74  1  0  0  0  0
 53 70  1  0  0  0  0
 54 63  1  0  0  0  0
 55 68  1  0  0  0  0
 56 65  1  0  0  0  0
 57 66  1  0  0  0  0
 58 66  1  0  0  0  0
 59 66  1  0  0  0  0
 60 76  1  0  0  0  0
 61 77  1  0  0  0  0
 62 69  1  0  0  0  0
 63 85  1  0  0  0  0
 64 66  1  0  0  0  0
 64 75  1  0  0  0  0
 65 77  1  0  0  0  0
 67 68  1  0  0  0  0
M  CHG  1  77   1
M  ISO  4  39 100  63 101  76 100  85 101
M  END
> <Batch ID>
0094

> <Smiles>
CNC(C)C(=O)NC(C(=O)N1Cc2cc([101O:1][101CH2:1]C3CCC(=O)N(Cc4cccc([100N:0](C)[100C:0](=O)N5CCCC(n6nc(-c7ccc(Oc8ccc(F)cc8F)cc7)c(C(N)=O)c6N)C5)c4)C3)ccc2CC1C(=O)NC1CCCc2ccccc21)C(C)(C)C

> <Shape>
0.194

> <Color>
0.049

> <Negative vol penalty>
0.000

$$$$

  -OEChem-04052300403D

 84 92  0     1  0  0  0  0  0999 V2000
  -27.5277  -30.4424   18.2037 C   0  0  0  0  0  0  0  0  0  0  0  0
  -27.3485  -29.2020   18.8076 C   0  0  0  0  0  0  0  0  0  0  0  0
  -30.6824  -17.8240   19.5956 C   0  0  0  0  0  0  0  0  0  0  0  0
  -22.6294  -15.0637   18.4426 C   0  0  0  0  0  0  0  0  0  0  0  0
  -23.8251  -16.5773   19.8973 C   0  0  0  0  0  0  0  0  0  0  0  0
  -26.8778  -31.5653   18.7141 C   0  0  0  0  0  0  0  0  0  0  0  0
  -26.5200  -29.0840   19.9231 C   0  0  0  0  0  0  0  0  0  0  0  0
  -23.4406  -25.0737   19.6404 C   0  0  0  0  0  0  0  0  0  0  0  0
  -30.8925  -16.6100   20.2495 C   0  0  0  0  0  0  0  0  0  0  0  0
  -29.8519  -18.7888   20.1658 C   0  0  0  0  0  0  0  0  0  0  0  0
  -21.8237  -16.1166   18.0092 C   0  0  0  0  0  0  0  0  0  0  0  0
  -23.0195  -17.6303   19.4639 C   0  0  0  0  0  0  0  0  0  0  0  0
  -23.9923  -23.8259   19.9272 C   0  0  0  0  0  0  0  0  0  0  0  0
  -19.9041  -18.7960   20.0691 C   0  0  0  0  0  0  0  0  0  0  0  0
  -19.3937  -19.6620   21.0361 C   0  0  0  0  0  0  0  0  0  0  0  0
  -23.0515  -23.9266   22.1462 C   0  0  0  0  0  0  0  0  0  0  0  0
  -20.5301  -21.5131   19.9783 C   0  0  0  0  0  0  0  0  0  0  0  0
  -23.6301  -15.2940   19.3867 C   0  0  0  0  0  0  0  0  0  0  0  0
  -24.0447  -13.0252   20.4769 C   0  0  0  0  0  0  0  0  0  0  0  0
  -26.0333  -31.4593   19.8305 C   0  0  0  0  0  0  0  0  0  0  0  0
  -22.6982  -25.7635   20.6097 C   0  0  0  0  0  0  0  0  0  0  0  0
  -25.8593  -30.2068   20.4497 C   0  0  0  0  0  0  0  0  0  0  0  0
  -22.4893  -25.1819   21.8684 C   0  0  0  0  0  0  0  0  0  0  0  0
  -30.2720  -16.3608   21.4737 C   0  0  0  0  0  0  0  0  0  0  0  0
  -22.0188  -17.3999   18.5198 C   0  0  0  0  0  0  0  0  0  0  0  0
  -23.8003  -23.2534   21.1812 C   0  0  0  0  0  0  0  0  0  0  0  0
  -20.7276  -19.2885   19.0567 C   0  0  0  0  0  0  0  0  0  0  0  0
  -29.2314  -18.5396   21.3899 C   0  0  0  0  0  0  0  0  0  0  0  0
  -19.7066  -21.0205   20.9907 C   0  0  0  0  0  0  0  0  0  0  0  0
  -21.0406  -20.6471   19.0113 C   0  0  0  0  0  0  0  0  0  0  0  0
  -29.4415  -17.3256   22.0439 C   0  0  0  0  0  0  0  0  0  0  0  0
  -24.4623  -14.2066   19.8352 C   0  0  0  0  0  0  0  0  0  0  0  0
  -25.2053  -12.3234   20.6934 C   0  0  0  0  0  0  0  0  0  0  0  0
  -22.7255  -12.6002   20.8443 C   0  0  0  0  0  0  0  0  0  0  0  0
  -23.0157  -28.5416   22.1213 C   0  0  0  0  0  0  0  0  0  0  0  0
  -26.3961  -20.7756   21.6581 C   0  0  0  0  0  0  0  0  0  0  0  0
  -20.0867  -27.7926   23.2968 C   0  0  0  0  0  0  0  0  0  0  0  0
  -17.7969  -25.3754   24.0458 C   0  0  0  0  0  0  0  0  0  0  0  0
  -30.7578  -13.9209   21.4245 C   0  0  0  0  0  0  0  0  0  0  0  0
  -25.3894  -32.7098   20.3750 C   0  0  0  0  0  0  0  0  0  0  0  0
  -22.0872  -27.0967   20.2757 C   0  0  0  0  0  0  0  0  0  0  0  0
  -21.6831  -25.8723   22.9370 C   0  0  0  0  0  0  0  0  0  0  0  0
  -24.2336  -32.4322   21.3327 C   0  0  0  0  0  0  0  0  0  0  0  0
  -29.5929  -11.6872   18.9152 C   0  0  0  0  0  0  0  0  0  0  0  0
  -24.6246  -31.3600   22.3448 C   0  0  0  0  0  0  0  0  0  0  0  0
  -28.0924  -11.9773   18.9237 C   0  0  0  0  0  0  0  0  0  0  0  0
  -30.4228  -12.9595   19.0900 C   0  0  0  0  0  0  0  0  0  0  0  0
  -28.5527  -14.0493   20.2897 C   0  0  0  0  0  0  0  0  0  0  0  0
  -24.9491  -30.0340   21.6463 C   0  0  1  0  0  0  0  0  0  0  0  0
  -21.7820  -27.9401   21.5098 C   0  0  1  0  0  0  0  0  0  0  0  0
  -27.6924  -12.7813   20.1733 C   0  0  1  0  0  0  0  0  0  0  0  0
  -15.5101  -25.0660   25.0319 C   0  0  0  0  0  0  0  0  0  0  0  0
  -21.2357  -28.2231   26.0904 C   0  0  0  0  0  0  0  0  0  0  0  0
  -19.2535  -27.0068   27.0174 C   0  0  0  0  0  0  0  0  0  0  0  0
  -18.9312  -29.1359   25.7582 C   0  0  0  0  0  0  0  0  0  0  0  0
  -30.6781  -15.1130   23.6035 C   0  0  0  0  0  0  0  0  0  0  0  0
  -16.7461  -24.2085   21.5372 C   0  0  0  0  0  0  0  0  0  0  0  0
  -25.5509  -21.6905   20.7958 C   0  0  0  0  0  0  0  0  0  1  0  0
  -27.7238  -20.3500   21.0656 C   0  0  0  0  0  0  0  0  0  0  0  0
  -19.5793  -27.0393   24.5027 C   0  0  1  0  0  0  0  0  0  0  0  0
  -16.3105  -25.2712   23.7552 C   0  0  2  0  0  0  0  0  0  0  0  0
  -19.7668  -27.8389   25.8229 C   0  0  0  0  0  0  0  0  0  0  0  0
  -25.7849  -14.2561   19.6559 N   0  0  0  0  0  0  0  0  0  0  0  0
  -26.2085  -13.0971   20.1882 N   0  0  0  0  0  0  0  0  0  0  0  0
  -21.1114  -27.1769   22.5643 N   0  0  0  0  0  0  0  0  0  0  0  0
  -29.9784  -13.7134   20.2708 N   0  0  0  0  0  0  0  0  0  0  0  0
  -25.4554  -11.1262   21.2647 N   0  0  0  0  0  0  0  0  0  0  0  0
  -22.2388  -12.9518   22.1107 N   0  0  0  0  0  0  0  0  0  0  0  0
  -23.7308  -29.3539   21.2620 N   0  0  0  0  0  0  0  0  0  0  0  0
  -18.1945  -26.6854   24.2100 N   0  0  0  0  0  0  0  0  0  0  0  0
  -30.4923  -15.1032   22.1484 N   0  0  0  0  0  0  0  0  0  0  0  0
  -16.0404  -24.1250   22.8418 N   0  3  0  0  0  0  0  0  0  0  0  0
  -22.0063  -11.9146   20.0787 O   0  0  0  0  0  0  0  0  0  0  0  0
  -23.2972  -28.2887   23.2868 O   0  0  0  0  0  0  0  0  0  0  0  0
  -26.0269  -20.4011   22.7702 O   0  0  0  0  0  0  0  0  0  0  0  0
  -19.5871  -28.8836   23.0110 O   0  0  0  0  0  0  0  0  0  0  0  0
  -18.5309  -24.3927   24.1233 O   0  0  0  0  0  0  0  0  0  0  0  0
  -31.6070  -13.1010   21.7941 O   0  0  0  0  0  0  0  0  0  0  0  0
  -21.2330  -18.4276   18.0969 O   0  0  0  0  0  0  0  0  0  0  0  0
  -24.3382  -22.0358   21.4640 O   0  0  0  0  0  0  0  0  0  1  0  0
  -28.4140  -19.4926   21.9500 O   0  0  0  0  0  0  0  0  0  0  0  0
  -19.2151  -21.8522   21.9185 F   0  0  0  0  0  0  0  0  0  0  0  0
  -21.8303  -21.1263   18.0404 F   0  0  0  0  0  0  0  0  0  0  0  0
  -28.8428  -17.0911   23.2211 F   0  0  0  0  0  0  0  0  0  0  0  0
  1  2  1  0  0  0  0
  1  6  2  0  0  0  0
  2  7  2  0  0  0  0
  3  9  1  0  0  0  0
  3 10  2  0  0  0  0
  4 11  2  0  0  0  0
  4 18  1  0  0  0  0
  5 12  1  0  0  0  0
  5 18  2  0  0  0  0
  6 20  1  0  0  0  0
  7 22  1  0  0  0  0
  8 13  2  0  0  0  0
  8 21  1  0  0  0  0
  9 24  2  0  0  0  0
 10 28  1  0  0  0  0
 11 25  1  0  0  0  0
 12 25  2  0  0  0  0
 13 26  1  0  0  0  0
 14 15  2  0  0  0  0
 14 27  1  0  0  0  0
 15 29  1  0  0  0  0
 16 23  1  0  0  0  0
 16 26  2  0  0  0  0
 17 29  2  0  0  0  0
 17 30  1  0  0  0  0
 18 32  1  0  0  0  0
 19 32  1  0  0  0  0
 19 33  2  0  0  0  0
 19 34  1  0  0  0  0
 20 22  2  0  0  0  0
 20 40  1  0  0  0  0
 21 23  2  0  0  0  0
 21 41  1  0  0  0  0
 22 49  1  0  0  0  0
 23 42  1  0  0  0  0
 24 31  1  0  0  0  0
 24 71  1  0  0  0  0
 25 79  1  0  0  0  0
 26 80  1  0  0  0  0
 27 30  2  0  0  0  0
 27 79  1  0  0  0  0
 28 31  2  0  0  0  0
 28 81  1  0  0  0  0
 29 82  1  0  0  0  0
 30 83  1  0  0  0  0
 31 84  1  0  0  0  0
 32 63  2  0  0  0  0
 33 64  1  0  0  0  0
 33 67  1  0  0  0  0
 34 68  1  0  0  0  0
 34 73  2  0  0  0  0
 35 50  1  0  0  0  0
 35 69  1  0  0  0  0
 35 74  2  0  0  0  0
 36 58  1  0  0  0  0
 36 59  1  0  0  0  0
 36 75  2  0  0  0  0
 37 60  1  0  0  0  0
 37 65  1  0  0  0  0
 37 76  2  0  0  0  0
 38 61  1  0  0  0  0
 38 70  1  0  0  0  0
 38 77  2  0  0  0  0
 39 66  1  0  0  0  0
 39 71  1  0  0  0  0
 39 78  2  0  0  0  0
 40 43  1  0  0  0  0
 41 50  1  0  0  0  0
 42 65  1  0  0  0  0
 43 45  1  0  0  0  0
 44 46  1  0  0  0  0
 44 47  1  0  0  0  0
 45 49  1  0  0  0  0
 46 51  1  0  0  0  0
 47 66  1  0  0  0  0
 48 51  1  0  0  0  0
 48 66  1  0  0  0  0
 49 69  1  0  0  0  0
 50 65  1  0  0  0  0
 51 64  1  0  0  0  0
 52 61  1  0  0  0  0
 53 62  1  0  0  0  0
 54 62  1  0  0  0  0
 55 62  1  0  0  0  0
 56 71  1  0  0  0  0
 57 72  1  0  0  0  0
 58 80  1  0  0  0  0
 59 81  1  0  0  0  0
 60 62  1  0  0  0  0
 60 70  1  0  0  0  0
 61 72  1  0  0  0  0
 63 64  1  0  0  0  0
M  CHG  1  72   1
M  ISO  4  39 100  58 101  71 100  80 101
M  END
> <Batch ID>
0094

> <Smiles>
CNC(C)C(=O)NC(C(=O)N1Cc2cc([101O:1][101CH2:1]C(=O)COc3cccc([100N:0](C)[100C:0](=O)N4CCCC(n5nc(-c6ccc(Oc7ccc(F)cc7F)cc6)c(C(N)=O)c5N)C4)c3F)ccc2CC1C(=O)NC1CCCc2ccccc21)C(C)(C)C

> <Shape>
0.222

> <Color>
0.076

> <Negative vol penalty>
0.000

$$$$

  -OEChem-04052300403D

 86 94  0     1  0  0  0  0  0999 V2000
  -15.1220  -13.4993    7.1511 C   0  0  0  0  0  0  0  0  0  0  0  0
  -15.8897  -13.5776    8.3087 C   0  0  0  0  0  0  0  0  0  0  0  0
  -23.1700   -9.8476   19.9145 C   0  0  0  0  0  0  0  0  0  0  0  0
  -23.8274   -9.9027   22.2387 C   0  0  0  0  0  0  0  0  0  0  0  0
  -15.0328  -14.5997    6.2995 C   0  0  0  0  0  0  0  0  0  0  0  0
  -16.5695  -14.7560    8.6147 C   0  0  0  0  0  0  0  0  0  0  0  0
  -17.5897  -17.0757   14.1901 C   0  0  0  0  0  0  0  0  0  0  0  0
  -22.4426   -8.6806   20.1479 C   0  0  0  0  0  0  0  0  0  0  0  0
  -23.0999   -8.7357   22.4721 C   0  0  0  0  0  0  0  0  0  0  0  0
  -18.6964  -17.0303   15.0368 C   0  0  0  0  0  0  0  0  0  0  0  0
  -19.8675   -7.8698   22.9436 C   0  0  0  0  0  0  0  0  0  0  0  0
  -19.0606   -7.8274   24.0805 C   0  0  0  0  0  0  0  0  0  0  0  0
  -19.4095  -19.1814   14.2102 C   0  0  0  0  0  0  0  0  0  0  0  0
  -25.8504  -13.8519   15.9681 C   0  0  0  0  0  0  0  0  0  0  0  0
  -28.3945  -14.7449   16.6842 C   0  0  0  0  0  0  0  0  0  0  0  0
  -20.3125   -5.9297   24.8982 C   0  0  0  0  0  0  0  0  0  0  0  0
  -23.8625  -10.4586   20.9599 C   0  0  0  0  0  0  0  0  0  0  0  0
  -24.1510  -12.9894   20.8192 C   0  0  0  0  0  0  0  0  0  0  0  0
  -15.7040  -15.7953    6.6002 C   0  0  0  0  0  0  0  0  0  0  0  0
  -17.3901  -18.1712   13.3377 C   0  0  0  0  0  0  0  0  0  0  0  0
  -16.4902  -15.8729    7.7657 C   0  0  0  0  0  0  0  0  0  0  0  0
  -18.2981  -19.2395   13.3555 C   0  0  0  0  0  0  0  0  0  0  0  0
  -26.9469  -12.9971   15.8555 C   0  0  0  0  0  0  0  0  0  0  0  0
  -26.0260  -15.1532   16.4387 C   0  0  0  0  0  0  0  0  0  0  0  0
  -28.2189  -13.4436   16.2136 C   0  0  0  0  0  0  0  0  0  0  0  0
  -27.2980  -15.5997   16.7968 C   0  0  0  0  0  0  0  0  0  0  0  0
  -22.4075   -8.1246   21.4267 C   0  0  0  0  0  0  0  0  0  0  0  0
  -19.6080  -18.0819   15.0449 C   0  0  0  0  0  0  0  0  0  0  0  0
  -20.8969   -6.9421   22.7838 C   0  0  0  0  0  0  0  0  0  0  0  0
  -19.2831   -6.8574   25.0579 C   0  0  0  0  0  0  0  0  0  0  0  0
  -21.1194   -5.9721   23.7612 C   0  0  0  0  0  0  0  0  0  0  0  0
  -24.6146  -11.6639   20.7193 C   0  0  0  0  0  0  0  0  0  0  0  0
  -25.2406  -13.7596   20.4936 C   0  0  0  0  0  0  0  0  0  0  0  0
  -21.5744  -17.0095   15.7186 C   0  0  0  0  0  0  0  0  0  1  0  0
  -22.8517  -13.4805   21.1745 C   0  0  0  0  0  0  0  0  0  0  0  0
  -22.6704  -16.8696   16.4741 C   0  0  0  0  0  0  0  0  0  0  0  0
  -23.5799  -15.7033   16.2277 C   0  0  0  0  0  0  0  0  0  0  0  0
  -17.2341  -18.5629   10.1872 C   0  0  0  0  0  0  0  0  0  0  0  0
  -16.4288  -21.5992   10.9962 C   0  0  0  0  0  0  0  0  0  0  0  0
  -16.5432  -24.1094   13.3055 C   0  0  0  0  0  0  0  0  0  0  0  0
  -30.1678  -12.2152   17.2055 C   0  0  0  0  0  0  0  0  0  0  0  0
  -15.6157  -16.9425    5.6251 C   0  0  0  0  0  0  0  0  0  0  0  0
  -16.1770  -18.2173   12.4497 C   0  0  0  0  0  0  0  0  0  0  0  0
  -18.1183  -20.4478   12.4745 C   0  0  0  0  0  0  0  0  0  0  0  0
  -16.0644  -18.2778    6.2132 C   0  0  0  0  0  0  0  0  0  0  0  0
  -30.0200  -13.7501   20.5693 C   0  0  0  0  0  0  0  0  0  0  0  0
  -17.3794  -18.1134    6.9686 C   0  0  0  0  0  0  0  0  0  0  0  0
  -28.5998  -13.4251   21.0284 C   0  0  0  0  0  0  0  0  0  0  0  0
  -30.5559  -12.7008   19.6000 C   0  0  0  0  0  0  0  0  0  0  0  0
  -28.2506  -12.1541   18.8734 C   0  0  0  0  0  0  0  0  0  0  0  0
  -17.2223  -17.1420    8.1447 C   0  0  1  0  0  0  0  0  0  0  0  0
  -16.3484  -19.1461   11.2516 C   0  0  1  0  0  0  0  0  0  0  0  0
  -27.6730  -13.2176   19.8192 C   0  0  1  0  0  0  0  0  0  0  0  0
  -26.7299  -11.6087   15.3473 C   0  0  0  0  0  0  0  0  0  0  0  0
  -15.8289  -26.4878   13.6667 C   0  0  0  0  0  0  0  0  0  0  0  0
  -18.6784  -22.5500    9.1673 C   0  0  0  0  0  0  0  0  0  0  0  0
  -18.5426  -24.7888   10.2799 C   0  0  0  0  0  0  0  0  0  0  0  0
  -16.5779  -23.9000    9.0258 C   0  0  0  0  0  0  0  0  0  0  0  0
  -29.8644  -12.2621   14.7688 C   0  0  0  0  0  0  0  0  0  0  0  0
  -14.8723  -23.3757   15.6355 C   0  0  0  0  0  0  0  0  0  0  0  0
  -17.1930  -22.8754   11.2538 C   0  0  1  0  0  0  0  0  0  0  0  0
  -15.4625  -25.0237   13.8538 C   0  0  2  0  0  0  0  0  0  0  0  0
  -17.7527  -23.5050    9.9470 C   0  0  0  0  0  0  0  0  0  0  0  0
  -25.8986  -11.5925   20.3584 N   0  0  0  0  0  0  0  0  0  0  0  0
  -26.2511  -12.8828   20.2285 N   0  0  0  0  0  0  0  0  0  0  0  0
  -16.9199  -20.4432   11.6193 N   0  0  0  0  0  0  0  0  0  0  0  0
  -29.6350  -12.4705   18.4858 N   0  0  0  0  0  0  0  0  0  0  0  0
  -27.4988  -16.9150   17.2731 N   0  0  0  0  0  0  0  0  0  0  0  0
  -25.4233  -15.0946   20.4110 N   0  0  0  0  0  0  0  0  0  0  0  0
  -21.8471  -12.5522   21.4799 N   0  0  0  0  0  0  0  0  0  0  0  0
  -24.8982  -16.0028   16.5427 N   0  0  0  0  0  0  0  0  0  0  0  0
  -16.5626  -17.7950    9.2550 N   0  0  0  0  0  0  0  0  0  0  0  0
  -16.2916  -23.7476   11.9989 N   0  0  0  0  0  0  0  0  0  0  0  0
  -29.3648  -12.5739   16.1061 N   0  0  0  0  0  0  0  0  0  0  0  0
  -15.2600  -24.7720   15.3086 N   0  3  0  0  0  0  0  0  0  0  0  0
  -22.5849  -14.7058   21.2040 O   0  0  0  0  0  0  0  0  0  0  0  0
  -23.1410  -14.6419   15.7981 O   0  0  0  0  0  0  0  0  0  0  0  0
  -18.4374  -18.7937   10.2091 O   0  0  0  0  0  0  0  0  0  0  0  0
  -15.4287  -21.6283   10.2748 O   0  0  0  0  0  0  0  0  0  0  0  0
  -17.5153  -23.7548   13.9686 O   0  0  0  0  0  0  0  0  0  0  0  0
  -31.2600  -11.6549   17.0511 O   0  0  0  0  0  0  0  0  0  0  0  0
  -23.0004  -17.7605   17.4752 O   0  0  0  0  0  0  0  0  0  0  0  0
  -21.6976   -6.9860   21.6548 O   0  0  0  0  0  0  0  0  0  0  0  0
  -20.6894  -18.0398   15.8699 O   0  0  0  0  0  0  0  0  0  1  0  0
  -18.5092   -6.8177   26.1504 F   0  0  0  0  0  0  0  0  0  0  0  0
  -22.1075   -5.0789   23.6139 F   0  0  0  0  0  0  0  0  0  0  0  0
  1  2  1  0  0  0  0
  1  5  2  0  0  0  0
  2  6  2  0  0  0  0
  3  8  2  0  0  0  0
  3 17  1  0  0  0  0
  4  9  1  0  0  0  0
  4 17  2  0  0  0  0
  5 19  1  0  0  0  0
  6 21  1  0  0  0  0
  7 10  2  0  0  0  0
  7 20  1  0  0  0  0
  8 27  1  0  0  0  0
  9 27  2  0  0  0  0
 10 28  1  0  0  0  0
 11 12  2  0  0  0  0
 11 29  1  0  0  0  0
 12 30  1  0  0  0  0
 13 22  1  0  0  0  0
 13 28  2  0  0  0  0
 14 23  2  0  0  0  0
 14 24  1  0  0  0  0
 15 25  2  0  0  0  0
 15 26  1  0  0  0  0
 16 30  2  0  0  0  0
 16 31  1  0  0  0  0
 17 32  1  0  0  0  0
 18 32  1  0  0  0  0
 18 33  2  0  0  0  0
 18 35  1  0  0  0  0
 19 21  2  0  0  0  0
 19 42  1  0  0  0  0
 20 22  2  0  0  0  0
 20 43  1  0  0  0  0
 21 51  1  0  0  0  0
 22 44  1  0  0  0  0
 23 25  1  0  0  0  0
 23 54  1  0  0  0  0
 24 26  2  0  0  0  0
 24 71  1  0  0  0  0
 25 74  1  0  0  0  0
 26 68  1  0  0  0  0
 27 83  1  0  0  0  0
 28 84  1  0  0  0  0
 29 31  2  0  0  0  0
 29 83  1  0  0  0  0
 30 85  1  0  0  0  0
 31 86  1  0  0  0  0
 32 64  2  0  0  0  0
 33 65  1  0  0  0  0
 33 69  1  0  0  0  0
 34 36  2  0  0  0  0
 34 84  1  0  0  0  0
 35 70  1  0  0  0  0
 35 76  2  0  0  0  0
 36 37  1  0  0  0  0
 36 82  1  0  0  0  0
 37 71  1  0  0  0  0
 37 77  2  0  0  0  0
 38 52  1  0  0  0  0
 38 72  1  0  0  0  0
 38 78  2  0  0  0  0
 39 61  1  0  0  0  0
 39 66  1  0  0  0  0
 39 79  2  0  0  0  0
 40 62  1  0  0  0  0
 40 73  1  0  0  0  0
 40 80  2  0  0  0  0
 41 67  1  0  0  0  0
 41 74  1  0  0  0  0
 41 81  2  0  0  0  0
 42 45  1  0  0  0  0
 43 52  1  0  0  0  0
 44 66  1  0  0  0  0
 45 47  1  0  0  0  0
 46 48  1  0  0  0  0
 46 49  1  0  0  0  0
 47 51  1  0  0  0  0
 48 53  1  0  0  0  0
 49 67  1  0  0  0  0
 50 53  1  0  0  0  0
 50 67  1  0  0  0  0
 51 72  1  0  0  0  0
 52 66  1  0  0  0  0
 53 65  1  0  0  0  0
 55 62  1  0  0  0  0
 56 63  1  0  0  0  0
 57 63  1  0  0  0  0
 58 63  1  0  0  0  0
 59 74  1  0  0  0  0
 60 75  1  0  0  0  0
 61 63  1  0  0  0  0
 61 73  1  0  0  0  0
 62 75  1  0  0  0  0
 64 65  1  0  0  0  0
M  CHG  1  75   1
M  ISO  4  34 101  41 100  74 100  84 101
M  END
> <Batch ID>
0094

> <Smiles>
CNC(C)C(=O)NC(C(=O)N1Cc2cc([101O:1][101CH2:1]C(=O)C(=O)Nc3cc(C)c([100N:0](C)[100C:0](=O)N4CCCC(n5nc(-c6ccc(Oc7ccc(F)cc7F)cc6)c(C(N)=O)c5N)C4)cc3N)ccc2CC1C(=O)NC1CCCc2ccccc21)C(C)(C)C

> <Shape>
0.144

> <Color>
0.164

> <Negative vol penalty>
0.000

$$$$

  -OEChem-04052300403D

 89 98  0     1  0  0  0  0  0999 V2000
  -18.5517  -26.9454   17.7754 C   0  0  0  0  0  0  0  0  0  0  0  0
  -19.9082  -27.1425   17.5375 C   0  0  0  0  0  0  0  0  0  0  0  0
  -20.4557  -23.6176   20.9924 C   0  0  0  0  0  0  0  0  0  0  0  0
  -19.5086  -22.7560   23.0413 C   0  0  0  0  0  0  0  0  0  0  0  0
  -17.8194  -27.9088   18.4680 C   0  0  0  0  0  0  0  0  0  0  0  0
  -20.5329  -28.3037   17.9912 C   0  0  0  0  0  0  0  0  0  0  0  0
  -25.0010  -27.3749   20.1863 C   0  0  0  0  0  0  0  0  0  0  0  0
  -19.1774  -23.9418   20.5379 C   0  0  0  0  0  0  0  0  0  0  0  0
  -18.2303  -23.0802   22.5867 C   0  0  0  0  0  0  0  0  0  0  0  0
  -26.0850  -27.1291   19.3447 C   0  0  0  0  0  0  0  0  0  0  0  0
  -14.7470  -24.0106   22.1185 C   0  0  0  0  0  0  0  0  0  0  0  0
  -13.8801  -24.6390   23.0124 C   0  0  0  0  0  0  0  0  0  0  0  0
  -26.8274  -29.4044   19.6463 C   0  0  0  0  0  0  0  0  0  0  0  0
  -29.8787  -23.0986   17.7143 C   0  0  0  0  0  0  0  0  0  0  0  0
  -29.3547  -23.9863   19.8993 C   0  0  0  0  0  0  0  0  0  0  0  0
  -15.4351  -26.4753   23.2295 C   0  0  0  0  0  0  0  0  0  0  0  0
  -20.6213  -23.0246   22.2441 C   0  0  0  0  0  0  0  0  0  0  0  0
  -29.2328  -21.6064   19.5013 C   0  0  0  0  0  0  0  0  0  0  0  0
  -22.8115  -23.5063   23.4601 C   0  0  0  0  0  0  0  0  0  0  0  0
  -18.4377  -29.0779   18.9388 C   0  0  0  0  0  0  0  0  0  0  0  0
  -24.8157  -28.6426   20.7565 C   0  0  0  0  0  0  0  0  0  0  0  0
  -19.8080  -29.2842   18.6896 C   0  0  0  0  0  0  0  0  0  0  0  0
  -25.7417  -29.6630   20.4968 C   0  0  0  0  0  0  0  0  0  0  0  0
  -29.7446  -24.1877   18.5753 C   0  0  0  0  0  0  0  0  0  0  0  0
  -29.6227  -21.8079   18.1773 C   0  0  0  0  0  0  0  0  0  0  0  0
  -18.0648  -23.6732   21.3350 C   0  0  0  0  0  0  0  0  0  0  0  0
  -26.9968  -28.1447   19.0723 C   0  0  0  0  0  0  0  0  0  0  0  0
  -15.9581  -24.6144   21.7801 C   0  0  0  0  0  0  0  0  0  0  0  0
  -14.2241  -25.8714   23.5679 C   0  0  0  0  0  0  0  0  0  0  0  0
  -29.0988  -22.6956   20.3623 C   0  0  0  0  0  0  0  0  0  0  0  0
  -16.3021  -25.8468   22.3356 C   0  0  0  0  0  0  0  0  0  0  0  0
  -21.9414  -22.6890   22.7139 C   0  0  0  0  0  0  0  0  0  0  0  0
  -23.9295  -22.7319   23.6522 C   0  0  0  0  0  0  0  0  0  0  0  0
  -29.8123  -25.9218   16.7861 C   0  0  0  0  0  0  0  0  0  0  0  0
  -30.4900  -26.5442   18.8967 C   0  0  0  0  0  0  0  0  0  0  0  0
  -28.9555  -20.2430   20.0221 C   0  0  0  0  0  0  0  0  0  0  0  0
  -22.6257  -24.8456   23.9369 C   0  0  0  0  0  0  0  0  0  0  0  0
  -22.5533  -30.8690   20.5881 C   0  0  0  0  0  0  0  0  0  0  0  0
  -24.3420  -32.3058   22.8812 C   0  0  0  0  0  0  0  0  0  0  0  0
  -27.3932  -32.6841   24.3625 C   0  0  0  0  0  0  0  0  0  0  0  0
  -27.1856  -18.8142   20.9963 C   0  0  0  0  0  0  0  0  0  0  0  0
  -17.5946  -30.1125   19.6413 C   0  0  0  0  0  0  0  0  0  0  0  0
  -23.6561  -28.8840   21.6835 C   0  0  0  0  0  0  0  0  0  0  0  0
  -25.5990  -31.0357   21.1001 C   0  0  0  0  0  0  0  0  0  0  0  0
  -30.3554  -27.3164   16.6548 C   0  0  0  0  0  0  0  0  0  0  0  0
  -18.4136  -31.1423   20.4153 C   0  0  0  0  0  0  0  0  0  0  0  0
  -24.8742  -17.8732   23.5002 C   0  0  0  0  0  0  0  0  0  0  0  0
  -19.5686  -31.6565   19.5618 C   0  0  0  0  0  0  0  0  0  0  0  0
  -23.9693  -19.1008   23.6360 C   0  0  0  0  0  0  0  0  0  0  0  0
  -25.2809  -17.6260   22.0481 C   0  0  0  0  0  0  0  0  0  0  0  0
  -24.9646  -20.0037   21.4963 C   0  0  0  0  0  0  0  0  0  0  0  0
  -20.5268  -30.5193   19.1874 C   0  0  1  0  0  0  0  0  0  0  0  0
  -30.4505  -27.8155   18.0859 C   0  0  1  0  0  0  0  0  0  0  0  0
  -23.2808  -30.3582   21.7995 C   0  0  1  0  0  0  0  0  0  0  0  0
  -24.5847  -20.3361   22.9483 C   0  0  1  0  0  0  0  0  0  0  0  0
  -28.5524  -33.9575   26.1879 C   0  0  0  0  0  0  0  0  0  0  0  0
  -24.3695  -34.7984   21.1217 C   0  0  0  0  0  0  0  0  0  0  0  0
  -26.2721  -35.6649   22.4992 C   0  0  0  0  0  0  0  0  0  0  0  0
  -24.0541  -35.2473   23.5616 C   0  0  0  0  0  0  0  0  0  0  0  0
  -28.0968  -30.1993   25.8079 C   0  0  0  0  0  0  0  0  0  0  0  0
  -29.2467  -28.6545   18.4943 C   0  0  0  0  0  0  0  0  0  1  0  0
  -25.4933  -33.2823   22.8836 C   0  0  1  0  0  0  0  0  0  0  0  0
  -27.8119  -32.6807   25.8216 C   0  0  2  0  0  0  0  0  0  0  0  0
  -25.0491  -34.7230   22.5035 C   0  0  0  0  0  0  0  0  0  0  0  0
  -22.4619  -21.4876   22.4500 N   0  0  0  0  0  0  0  0  0  0  0  0
  -23.6713  -21.5443   23.0333 N   0  0  0  0  0  0  0  0  0  0  0  0
  -30.0061  -25.5132   18.0997 N   0  0  0  0  0  0  0  0  0  0  0  0
  -24.4453  -31.2242   21.9950 N   0  0  0  0  0  0  0  0  0  0  0  0
  -25.8632  -18.8397   21.4728 N   0  0  0  0  0  0  0  0  0  0  0  0
  -29.7644  -20.7183   17.2889 N   0  0  0  0  0  0  0  0  0  0  0  0
  -25.0985  -22.9579   24.2885 N   0  0  0  0  0  0  0  0  0  0  0  0
  -21.4172  -25.4951   23.6505 N   0  0  0  0  0  0  0  0  0  0  0  0
  -27.6636  -20.0343   20.5054 N   0  0  0  0  0  0  0  0  0  0  0  0
  -21.3828  -30.1905   20.3071 N   0  0  0  0  0  0  0  0  0  0  0  0
  -26.1156  -33.1764   24.1989 N   0  0  0  0  0  0  0  0  0  0  0  0
  -28.7064  -31.5219   26.1011 N   0  3  0  0  0  0  0  0  0  0  0  0
  -29.3043  -25.3280   15.8447 O   0  0  0  0  0  0  0  0  0  0  0  0
  -30.8962  -26.5165   20.0511 O   0  0  0  0  0  0  0  0  0  0  0  0
  -29.8369  -19.3900   19.9642 O   0  0  0  0  0  0  0  0  0  0  0  0
  -23.5118  -25.4544   24.5832 O   0  0  0  0  0  0  0  0  0  0  0  0
  -23.0187  -31.8100   19.9560 O   0  0  0  0  0  0  0  0  0  0  0  0
  -23.3897  -32.4918   23.6428 O   0  0  0  0  0  0  0  0  0  0  0  0
  -28.1275  -32.2930   23.4578 O   0  0  0  0  0  0  0  0  0  0  0  0
  -27.8927  -17.8026   21.0393 O   0  0  0  0  0  0  0  0  0  0  0  0
  -16.8173  -23.9896   20.8919 O   0  0  0  0  0  0  0  0  0  0  0  0
  -28.0554  -27.9077   18.2506 O   0  0  0  0  0  0  0  0  0  1  0  0
  -13.3908  -26.4755   24.4251 F   0  0  0  0  0  0  0  0  0  0  0  0
  -28.7259  -22.5147   21.6374 F   0  0  0  0  0  0  0  0  0  0  0  0
  -17.4636  -26.4324   22.0135 F   0  0  0  0  0  0  0  0  0  0  0  0
  1  2  1  0  0  0  0
  1  5  2  0  0  0  0
  2  6  2  0  0  0  0
  3  8  2  0  0  0  0
  3 17  1  0  0  0  0
  4  9  1  0  0  0  0
  4 17  2  0  0  0  0
  5 20  1  0  0  0  0
  6 22  1  0  0  0  0
  7 10  2  0  0  0  0
  7 21  1  0  0  0  0
  8 26  1  0  0  0  0
  9 26  2  0  0  0  0
 10 27  1  0  0  0  0
 11 12  2  0  0  0  0
 11 28  1  0  0  0  0
 12 29  1  0  0  0  0
 13 23  1  0  0  0  0
 13 27  2  0  0  0  0
 14 24  1  0  0  0  0
 14 25  2  0  0  0  0
 15 24  2  0  0  0  0
 15 30  1  0  0  0  0
 16 29  2  0  0  0  0
 16 31  1  0  0  0  0
 17 32  1  0  0  0  0
 18 25  1  0  0  0  0
 18 30  2  0  0  0  0
 18 36  1  0  0  0  0
 19 32  1  0  0  0  0
 19 33  2  0  0  0  0
 19 37  1  0  0  0  0
 20 22  2  0  0  0  0
 20 42  1  0  0  0  0
 21 23  2  0  0  0  0
 21 43  1  0  0  0  0
 22 52  1  0  0  0  0
 23 44  1  0  0  0  0
 24 67  1  0  0  0  0
 25 70  1  0  0  0  0
 26 85  1  0  0  0  0
 27 86  1  0  0  0  0
 28 31  2  0  0  0  0
 28 85  1  0  0  0  0
 29 87  1  0  0  0  0
 30 88  1  0  0  0  0
 31 89  1  0  0  0  0
 32 65  2  0  0  0  0
 33 66  1  0  0  0  0
 33 71  1  0  0  0  0
 34 45  1  0  0  0  0
 34 67  1  0  0  0  0
 34 77  2  0  0  0  0
 35 53  1  0  0  0  0
 35 67  1  0  0  0  0
 35 78  2  0  0  0  0
 36 73  1  0  0  0  0
 36 79  2  0  0  0  0
 37 72  1  0  0  0  0
 37 80  2  0  0  0  0
 38 54  1  0  0  0  0
 38 74  1  0  0  0  0
 38 81  2  0  0  0  0
 39 62  1  0  0  0  0
 39 68  1  0  0  0  0
 39 82  2  0  0  0  0
 40 63  1  0  0  0  0
 40 75  1  0  0  0  0
 40 83  2  0  0  0  0
 41 69  1  0  0  0  0
 41 73  1  0  0  0  0
 41 84  2  0  0  0  0
 42 46  1  0  0  0  0
 43 54  1  0  0  0  0
 44 68  1  0  0  0  0
 45 53  1  0  0  0  0
 46 48  1  0  0  0  0
 47 49  1  0  0  0  0
 47 50  1  0  0  0  0
 48 52  1  0  0  0  0
 49 55  1  0  0  0  0
 50 69  1  0  0  0  0
 51 55  1  0  0  0  0
 51 69  1  0  0  0  0
 52 74  1  0  0  0  0
 53 61  1  0  0  0  0
 54 68  1  0  0  0  0
 55 66  1  0  0  0  0
 56 63  1  0  0  0  0
 57 64  1  0  0  0  0
 58 64  1  0  0  0  0
 59 64  1  0  0  0  0
 60 76  1  0  0  0  0
 61 86  1  0  0  0  0
 62 64  1  0  0  0  0
 62 75  1  0  0  0  0
 63 76  1  0  0  0  0
 65 66  1  0  0  0  0
M  CHG  1  76   1
M  ISO  4  41 100  61 101  73 100  86 101
M  END
> <Batch ID>
0094

> <Smiles>
CNC(C)C(=O)NC(C(=O)N1Cc2cc([101O:1][101CH2:1]C3CC(=O)N(c4cc(N)c(C(=O)[100NH:0][100C:0](=O)N5CCCC(n6nc(-c7ccc(Oc8ccc(F)cc8F)cc7)c(C(N)=O)c6N)C5)c(F)c4)C3=O)ccc2CC1C(=O)NC1CCCc2ccccc21)C(C)(C)C

> <Shape>
0.213

> <Color>
0.064

> <Negative vol penalty>
0.000

$$$$

  -OEChem-04052300403D

 87 96  0     1  0  0  0  0  0999 V2000
  -22.8584   -7.5563   24.3806 C   0  0  0  0  0  0  0  0  0  0  0  0
  -23.8492   -8.4631   24.7433 C   0  0  0  0  0  0  0  0  0  0  0  0
  -24.2063  -29.8309   24.2090 C   0  0  0  0  0  0  0  0  0  0  0  0
  -23.0674  -30.6373   22.2367 C   0  0  0  0  0  0  0  0  0  0  0  0
  -22.4335   -7.4834   23.0547 C   0  0  0  0  0  0  0  0  0  0  0  0
  -24.4164   -9.2967   23.7801 C   0  0  0  0  0  0  0  0  0  0  0  0
  -27.1907  -15.8560   23.0085 C   0  0  0  0  0  0  0  0  0  0  0  0
  -30.5658  -23.6101   20.6472 C   0  0  0  0  0  0  0  0  0  0  0  0
  -30.1718  -24.9434   20.5338 C   0  0  0  0  0  0  0  0  0  0  0  0
  -22.9795  -29.4877   24.7771 C   0  0  0  0  0  0  0  0  0  0  0  0
  -21.8406  -30.2941   22.8049 C   0  0  0  0  0  0  0  0  0  0  0  0
  -28.3332  -16.4922   22.5249 C   0  0  0  0  0  0  0  0  0  0  0  0
  -20.0068  -27.4929   23.2644 C   0  0  0  0  0  0  0  0  0  0  0  0
  -19.0832  -26.8295   22.4567 C   0  0  0  0  0  0  0  0  0  0  0  0
  -27.4643  -16.3332   20.2802 C   0  0  0  0  0  0  0  0  0  0  0  0
  -30.1843  -24.7422   18.1262 C   0  0  0  0  0  0  0  0  0  0  0  0
  -17.5081  -28.6334   22.7761 C   0  0  0  0  0  0  0  0  0  0  0  0
  -24.2503  -30.4057   22.9388 C   0  0  0  0  0  0  0  0  0  0  0  0
  -26.4659  -31.6676   22.8611 C   0  0  0  0  0  0  0  0  0  0  0  0
  -22.9889   -8.3232   22.0765 C   0  0  0  0  0  0  0  0  0  0  0  0
  -26.1797  -15.4432   22.1288 C   0  0  0  0  0  0  0  0  0  0  0  0
  -23.9994   -9.2340   22.4396 C   0  0  0  0  0  0  0  0  0  0  0  0
  -26.3088  -15.6943   20.7554 C   0  0  0  0  0  0  0  0  0  0  0  0
  -30.7691  -22.8429   19.5001 C   0  0  0  0  0  0  0  0  0  0  0  0
  -29.9811  -25.5094   19.2733 C   0  0  0  0  0  0  0  0  0  0  0  0
  -30.5783  -23.4090   18.2396 C   0  0  0  0  0  0  0  0  0  0  0  0
  -21.7966  -29.7193   24.0751 C   0  0  0  0  0  0  0  0  0  0  0  0
  -28.4714  -16.7283   21.1603 C   0  0  0  0  0  0  0  0  0  0  0  0
  -19.6810  -28.7266   23.8281 C   0  0  0  0  0  0  0  0  0  0  0  0
  -17.8339  -27.3997   22.2125 C   0  0  0  0  0  0  0  0  0  0  0  0
  -18.4317  -29.2968   23.5838 C   0  0  0  0  0  0  0  0  0  0  0  0
  -25.5172  -30.7609   22.3516 C   0  0  0  0  0  0  0  0  0  0  0  0
  -27.4854  -31.6510   21.9409 C   0  0  0  0  0  0  0  0  0  0  0  0
  -30.9375  -19.3324   20.7393 C   0  0  0  0  0  0  0  0  0  0  0  0
  -30.3981  -20.5057   20.3318 C   0  0  0  0  0  0  0  0  0  0  0  0
  -32.4508  -21.1261   19.1183 C   0  0  0  0  0  0  0  0  0  0  0  0
  -26.4290  -32.4544   24.0591 C   0  0  0  0  0  0  0  0  0  0  0  0
  -24.9018  -12.6428   21.3359 C   0  0  0  0  0  0  0  0  0  0  0  0
  -22.8502  -14.4992   19.6426 C   0  0  0  0  0  0  0  0  0  0  0  0
  -23.0656  -17.4324   17.5527 C   0  0  0  0  0  0  0  0  0  0  0  0
  -29.3472  -27.5788   17.9841 C   0  0  0  0  0  0  0  0  0  0  0  0
  -22.5307   -8.1750   20.6473 C   0  0  0  0  0  0  0  0  0  0  0  0
  -24.9413  -14.7822   22.6692 C   0  0  0  0  0  0  0  0  0  0  0  0
  -25.2429  -15.2891   19.7715 C   0  0  0  0  0  0  0  0  0  0  0  0
  -32.3632  -18.9938   20.4096 C   0  0  0  0  0  0  0  0  0  0  0  0
  -32.7652  -19.6491   19.1071 C   0  0  0  0  0  0  0  0  0  0  0  0
  -22.9173   -9.3542   19.7583 C   0  0  0  0  0  0  0  0  0  0  0  0
  -28.3133  -30.9128   17.2821 C   0  0  0  0  0  0  0  0  0  0  0  0
  -24.3784   -9.7329   19.9793 C   0  0  0  0  0  0  0  0  0  0  0  0
  -27.5706  -31.3369   18.5512 C   0  0  0  0  0  0  0  0  0  0  0  0
  -28.0708  -29.4421   16.9477 C   0  0  0  0  0  0  0  0  0  0  0  0
  -27.6045  -28.9268   19.3112 C   0  0  0  0  0  0  0  0  0  0  0  0
  -24.6213  -10.1723   21.4282 C   0  0  1  0  0  0  0  0  0  0  0  0
  -24.2082  -13.9437   21.6267 C   0  0  1  0  0  0  0  0  0  0  0  0
  -27.8702  -30.3835   19.7247 C   0  0  2  0  0  0  0  0  0  0  0  0
  -28.9261  -20.7899   20.5369 C   0  0  0  0  0  0  0  0  0  0  0  0
  -21.3625  -19.2051   17.0486 C   0  0  0  0  0  0  0  0  0  0  0  0
  -22.2055  -12.7786   17.2067 C   0  0  0  0  0  0  0  0  0  0  0  0
  -21.8996  -14.8842   15.8872 C   0  0  0  0  0  0  0  0  0  0  0  0
  -20.4162  -14.4087   17.8355 C   0  0  0  0  0  0  0  0  0  0  0  0
  -24.8862  -19.5946   18.4297 C   0  0  0  0  0  0  0  0  0  0  0  0
  -30.2282  -18.2827   21.5522 C   0  0  0  0  0  0  0  0  0  1  0  0
  -22.8247  -15.0614   18.2418 C   0  0  1  0  0  0  0  0  0  0  0  0
  -22.5712  -18.8273   17.8906 C   0  0  2  0  0  0  0  0  0  0  0  0
  -21.8610  -14.2780   17.3063 C   0  0  0  0  0  0  0  0  0  0  0  0
  -25.8998  -30.2086   21.1972 N   0  0  0  0  0  0  0  0  0  0  0  0
  -27.1002  -30.7699   20.9736 N   0  0  0  0  0  0  0  0  0  0  0  0
  -31.1788  -21.4646   19.6430 N   0  0  0  0  0  0  0  0  0  0  0  0
  -24.0537  -14.6403   20.3480 N   0  0  0  0  0  0  0  0  0  0  0  0
  -28.3797  -28.5987   18.1045 N   0  0  0  0  0  0  0  0  0  0  0  0
  -30.7799  -22.6504   17.0645 N   0  0  0  0  0  0  0  0  0  0  0  0
  -28.6648  -32.3043   21.8727 N   0  0  0  0  0  0  0  0  0  0  0  0
  -25.8682  -33.7375   23.9987 N   0  0  0  0  0  0  0  0  0  0  0  0
  -29.5803  -26.8636   19.1583 N   0  0  0  0  0  0  0  0  0  0  0  0
  -24.1469  -11.5242   21.6327 N   0  0  0  0  0  0  0  0  0  0  0  0
  -22.5060  -16.4787   18.3764 N   0  0  0  0  0  0  0  0  0  0  0  0
  -23.6457  -19.8308   17.6472 N   0  3  0  0  0  0  0  0  0  0  0  0
  -33.2721  -21.9178   18.6502 O   0  0  0  0  0  0  0  0  0  0  0  0
  -26.8948  -32.0386   25.1470 O   0  0  0  0  0  0  0  0  0  0  0  0
  -26.0371  -12.6533   20.8749 O   0  0  0  0  0  0  0  0  0  0  0  0
  -21.8373  -13.9613   20.0969 O   0  0  0  0  0  0  0  0  0  0  0  0
  -23.8652  -17.2105   16.6461 O   0  0  0  0  0  0  0  0  0  0  0  0
  -29.9461  -27.3742   16.9251 O   0  0  0  0  0  0  0  0  0  0  0  0
  -20.5994  -29.3844   24.6291 O   0  0  0  0  0  0  0  0  0  0  0  0
  -29.5858  -17.3485   20.6856 O   0  0  0  0  0  0  0  0  0  1  0  0
  -16.9477  -26.7632   21.4356 F   0  0  0  0  0  0  0  0  0  0  0  0
  -18.1135  -30.4823   24.1215 F   0  0  0  0  0  0  0  0  0  0  0  0
  1  2  1  0  0  0  0
  1  5  2  0  0  0  0
  2  6  2  0  0  0  0
  3 10  2  0  0  0  0
  3 18  1  0  0  0  0
  4 11  1  0  0  0  0
  4 18  2  0  0  0  0
  5 20  1  0  0  0  0
  6 22  1  0  0  0  0
  7 12  2  0  0  0  0
  7 21  1  0  0  0  0
  8  9  2  0  0  0  0
  8 24  1  0  0  0  0
  9 25  1  0  0  0  0
 10 27  1  0  0  0  0
 11 27  2  0  0  0  0
 12 28  1  0  0  0  0
 13 14  2  0  0  0  0
 13 29  1  0  0  0  0
 14 30  1  0  0  0  0
 15 23  1  0  0  0  0
 15 28  2  0  0  0  0
 16 25  2  0  0  0  0
 16 26  1  0  0  0  0
 17 30  2  0  0  0  0
 17 31  1  0  0  0  0
 18 32  1  0  0  0  0
 19 32  1  0  0  0  0
 19 33  2  0  0  0  0
 19 37  1  0  0  0  0
 20 22  2  0  0  0  0
 20 42  1  0  0  0  0
 21 23  2  0  0  0  0
 21 43  1  0  0  0  0
 22 53  1  0  0  0  0
 23 44  1  0  0  0  0
 24 26  2  0  0  0  0
 24 68  1  0  0  0  0
 25 74  1  0  0  0  0
 26 71  1  0  0  0  0
 27 84  1  0  0  0  0
 28 85  1  0  0  0  0
 29 31  2  0  0  0  0
 29 84  1  0  0  0  0
 30 86  1  0  0  0  0
 31 87  1  0  0  0  0
 32 66  2  0  0  0  0
 33 67  1  0  0  0  0
 33 72  1  0  0  0  0
 34 35  2  0  0  0  0
 34 45  1  0  0  0  0
 34 62  1  0  0  0  0
 35 56  1  0  0  0  0
 35 68  1  0  0  0  0
 36 46  1  0  0  0  0
 36 68  1  0  0  0  0
 36 78  2  0  0  0  0
 37 73  1  0  0  0  0
 37 79  2  0  0  0  0
 38 54  1  0  0  0  0
 38 75  1  0  0  0  0
 38 80  2  0  0  0  0
 39 63  1  0  0  0  0
 39 69  1  0  0  0  0
 39 81  2  0  0  0  0
 40 64  1  0  0  0  0
 40 76  1  0  0  0  0
 40 82  2  0  0  0  0
 41 70  1  0  0  0  0
 41 74  1  0  0  0  0
 41 83  2  0  0  0  0
 42 47  1  0  0  0  0
 43 54  1  0  0  0  0
 44 69  1  0  0  0  0
 45 46  1  0  0  0  0
 47 49  1  0  0  0  0
 48 50  1  0  0  0  0
 48 51  1  0  0  0  0
 49 53  1  0  0  0  0
 50 55  1  0  0  0  0
 51 70  1  0  0  0  0
 52 55  1  0  0  0  0
 52 70  1  0  0  0  0
 53 75  1  0  0  0  0
 54 69  1  0  0  0  0
 55 67  1  0  0  0  0
 57 64  1  0  0  0  0
 58 65  1  0  0  0  0
 59 65  1  0  0  0  0
 60 65  1  0  0  0  0
 61 77  1  0  0  0  0
 62 85  1  0  0  0  0
 63 65  1  0  0  0  0
 63 76  1  0  0  0  0
 64 77  1  0  0  0  0
 66 67  1  0  0  0  0
M  CHG  1  77   1
M  ISO  4  41 100  62 101  74 100  85 101
M  END
> <Batch ID>
0094

> <Smiles>
CNC(C)C(=O)NC(C(=O)N1Cc2cc([101O:1][101CH2:1]C3=C(C)N(c4ccc([100NH:0][100C:0](=O)N5CCCC(n6nc(-c7ccc(Oc8ccc(F)cc8F)cc7)c(C(N)=O)c6N)C5)cc4N)C(=O)CC3)ccc2CC1C(=O)NC1CCCc2ccccc21)C(C)(C)C

> <Shape>
0.288

> <Color>
0.060

> <Negative vol penalty>
0.000

$$$$

  -OEChem-04052300403D

 85 93  0     1  0  0  0  0  0999 V2000
  -30.4024  -33.7901   20.8225 C   0  0  0  0  0  0  0  0  0  0  0  0
  -30.2624  -32.5436   21.4241 C   0  0  0  0  0  0  0  0  0  0  0  0
  -32.6998  -17.0657   23.6148 C   0  0  0  0  0  0  0  0  0  0  0  0
  -23.0869   -9.9414   19.9821 C   0  0  0  0  0  0  0  0  0  0  0  0
  -23.9947   -9.9445   22.2210 C   0  0  0  0  0  0  0  0  0  0  0  0
  -29.2739  -34.4828   20.3858 C   0  0  0  0  0  0  0  0  0  0  0  0
  -28.9937  -31.9894   21.5904 C   0  0  0  0  0  0  0  0  0  0  0  0
  -28.8291  -27.0930   20.3086 C   0  0  0  0  0  0  0  0  0  0  0  0
  -32.2856  -18.3741   23.8639 C   0  0  0  0  0  0  0  0  0  0  0  0
  -32.0348  -16.2928   22.6629 C   0  0  0  0  0  0  0  0  0  0  0  0
  -22.3904   -8.7668   20.2661 C   0  0  0  0  0  0  0  0  0  0  0  0
  -23.2981   -8.7699   22.5051 C   0  0  0  0  0  0  0  0  0  0  0  0
  -29.3415  -26.1770   21.2263 C   0  0  0  0  0  0  0  0  0  0  0  0
  -20.1375   -7.8821   23.3069 C   0  0  0  0  0  0  0  0  0  0  0  0
  -19.4600   -7.8104   24.5240 C   0  0  0  0  0  0  0  0  0  0  0  0
  -27.1014  -25.6769   21.9687 C   0  0  0  0  0  0  0  0  0  0  0  0
  -30.5412  -18.1368   22.2092 C   0  0  0  0  0  0  0  0  0  0  0  0
  -20.7955   -5.8985   25.1548 C   0  0  0  0  0  0  0  0  0  0  0  0
  -23.8891  -10.5303   20.9595 C   0  0  0  0  0  0  0  0  0  0  0  0
  -24.1584  -13.0646   20.8478 C   0  0  0  0  0  0  0  0  0  0  0  0
  -27.9915  -33.9326   20.5381 C   0  0  0  0  0  0  0  0  0  0  0  0
  -27.4474  -27.3162   20.2215 C   0  0  0  0  0  0  0  0  0  0  0  0
  -27.8469  -32.6760   21.1566 C   0  0  0  0  0  0  0  0  0  0  0  0
  -26.5738  -26.5944   21.0473 C   0  0  0  0  0  0  0  0  0  0  0  0
  -31.2063  -18.9097   23.1611 C   0  0  0  0  0  0  0  0  0  0  0  0
  -30.9555  -16.8284   21.9601 C   0  0  0  0  0  0  0  0  0  0  0  0
  -22.4960   -8.1810   21.5276 C   0  0  0  0  0  0  0  0  0  0  0  0
  -28.4779  -25.4709   22.0585 C   0  0  0  0  0  0  0  0  0  0  0  0
  -21.1440   -6.9620   23.0136 C   0  0  0  0  0  0  0  0  0  0  0  0
  -19.7890   -6.8186   25.4480 C   0  0  0  0  0  0  0  0  0  0  0  0
  -21.4730   -5.9701   23.9376 C   0  0  0  0  0  0  0  0  0  0  0  0
  -24.6094  -11.7433   20.6666 C   0  0  0  0  0  0  0  0  0  0  0  0
  -25.2052  -13.8459   20.4232 C   0  0  0  0  0  0  0  0  0  0  0  0
  -28.9006  -16.1099   19.0111 C   0  0  0  0  0  0  0  0  0  0  0  0
  -29.1891  -16.5149   20.2498 C   0  0  0  0  0  0  0  0  0  0  0  0
  -29.1292  -23.2797   22.5534 C   0  0  0  0  0  0  0  0  0  1  0  0
  -22.9054  -13.5428   21.3547 C   0  0  0  0  0  0  0  0  0  0  0  0
  -29.6088  -22.3183   23.3518 C   0  0  0  0  0  0  0  0  0  0  0  0
  -29.7401  -20.9247   22.8143 C   0  0  0  0  0  0  0  0  0  0  0  0
  -25.5476  -29.8245   20.6716 C   0  0  0  0  0  0  0  0  0  0  0  0
  -23.2672  -27.8058   19.5550 C   0  0  0  0  0  0  0  0  0  0  0  0
  -22.2293  -24.5910   19.0701 C   0  0  0  0  0  0  0  0  0  0  0  0
  -30.8055  -14.7610   20.6184 C   0  0  0  0  0  0  0  0  0  0  0  0
  -26.7977  -34.7398   20.0932 C   0  0  0  0  0  0  0  0  0  0  0  0
  -26.9087  -28.2881   19.2078 C   0  0  0  0  0  0  0  0  0  0  0  0
  -25.0810  -26.7825   20.9791 C   0  0  0  0  0  0  0  0  0  0  0  0
  -25.5183  -33.9167   19.9678 C   0  0  0  0  0  0  0  0  0  0  0  0
  -29.4275  -12.6479   17.9273 C   0  0  0  0  0  0  0  0  0  0  0  0
  -25.3329  -33.0282   21.1938 C   0  0  0  0  0  0  0  0  0  0  0  0
  -28.0396  -12.2860   18.4536 C   0  0  0  0  0  0  0  0  0  0  0  0
  -30.4233  -12.8734   19.0612 C   0  0  0  0  0  0  0  0  0  0  0  0
  -28.5872  -13.5162   20.5914 C   0  0  0  0  0  0  0  0  0  0  0  0
  -26.4894  -32.0308   21.3323 C   0  0  1  0  0  0  0  0  0  0  0  0
  -25.5203  -28.8122   19.5616 C   0  0  1  0  0  0  0  0  0  0  0  0
  -27.5499  -13.3282   19.4740 C   0  0  2  0  0  0  0  0  0  0  0  0
  -20.3046  -23.2573   18.1678 C   0  0  0  0  0  0  0  0  0  0  0  0
  -21.6541  -28.4392   22.0663 C   0  0  0  0  0  0  0  0  0  0  0  0
  -20.2501  -26.4220   21.5888 C   0  0  0  0  0  0  0  0  0  0  0  0
  -20.3053  -28.3140   19.9640 C   0  0  0  0  0  0  0  0  0  0  0  0
  -23.9298  -23.3108   17.0138 C   0  0  0  0  0  0  0  0  0  0  0  0
  -22.3239  -26.8072   20.1811 C   0  0  1  0  0  0  0  0  0  0  0  0
  -21.6503  -23.8922   17.8532 C   0  0  2  0  0  0  0  0  0  0  0  0
  -21.1616  -27.4932   20.9529 C   0  0  0  0  0  0  0  0  0  0  0  0
  -25.8462  -11.6848   20.1657 N   0  0  0  0  0  0  0  0  0  0  0  0
  -26.1813  -12.9790   20.0285 N   0  0  0  0  0  0  0  0  0  0  0  0
  -24.6033  -27.7486   19.9762 N   0  0  0  0  0  0  0  0  0  0  0  0
  -29.9127  -13.8363   20.0377 N   0  0  0  0  0  0  0  0  0  0  0  0
  -25.3767  -15.1831   20.3527 N   0  0  0  0  0  0  0  0  0  0  0  0
  -21.9410  -12.6042   21.7462 N   0  0  0  0  0  0  0  0  0  0  0  0
  -30.7867  -20.2380   23.4141 N   0  0  0  0  0  0  0  0  0  0  0  0
  -26.3253  -30.9344   20.4019 N   0  0  0  0  0  0  0  0  0  0  0  0
  -21.8875  -25.9265   19.1030 N   0  0  0  0  0  0  0  0  0  0  0  0
  -30.2654  -16.0253   20.9716 N   0  0  0  0  0  0  0  0  0  0  0  0
  -22.5752  -22.8235   17.3807 N   0  3  0  0  0  0  0  0  0  0  0  0
  -22.6424  -14.7662   21.4421 O   0  0  0  0  0  0  0  0  0  0  0  0
  -28.9777  -20.5090   21.9483 O   0  0  0  0  0  0  0  0  0  0  0  0
  -24.9090  -29.6149   21.6963 O   0  0  0  0  0  0  0  0  0  0  0  0
  -22.8360  -28.6024   18.7176 O   0  0  0  0  0  0  0  0  0  0  0  0
  -22.9131  -24.0096   19.9097 O   0  0  0  0  0  0  0  0  0  0  0  0
  -32.0020  -14.4924   20.7872 O   0  0  0  0  0  0  0  0  0  0  0  0
  -29.9908  -22.5585   24.6560 O   0  0  0  0  0  0  0  0  0  0  0  0
  -21.8162   -7.0349   21.8051 O   0  0  0  0  0  0  0  0  0  0  0  0
  -28.9754  -24.5767   22.9556 O   0  0  0  0  0  0  0  0  0  1  0  0
  -19.1394   -6.7508   26.6174 F   0  0  0  0  0  0  0  0  0  0  0  0
  -22.4398   -5.0841   23.6620 F   0  0  0  0  0  0  0  0  0  0  0  0
  1  2  1  0  0  0  0
  1  6  2  0  0  0  0
  2  7  2  0  0  0  0
  3  9  1  0  0  0  0
  3 10  2  0  0  0  0
  4 11  2  0  0  0  0
  4 19  1  0  0  0  0
  5 12  1  0  0  0  0
  5 19  2  0  0  0  0
  6 21  1  0  0  0  0
  7 23  1  0  0  0  0
  8 13  2  0  0  0  0
  8 22  1  0  0  0  0
  9 25  2  0  0  0  0
 10 26  1  0  0  0  0
 11 27  1  0  0  0  0
 12 27  2  0  0  0  0
 13 28  1  0  0  0  0
 14 15  2  0  0  0  0
 14 29  1  0  0  0  0
 15 30  1  0  0  0  0
 16 24  1  0  0  0  0
 16 28  2  0  0  0  0
 17 25  1  0  0  0  0
 17 26  2  0  0  0  0
 18 30  2  0  0  0  0
 18 31  1  0  0  0  0
 19 32  1  0  0  0  0
 20 32  1  0  0  0  0
 20 33  2  0  0  0  0
 20 37  1  0  0  0  0
 21 23  2  0  0  0  0
 21 44  1  0  0  0  0
 22 24  2  0  0  0  0
 22 45  1  0  0  0  0
 23 53  1  0  0  0  0
 24 46  1  0  0  0  0
 25 70  1  0  0  0  0
 26 73  1  0  0  0  0
 27 82  1  0  0  0  0
 28 83  1  0  0  0  0
 29 31  2  0  0  0  0
 29 82  1  0  0  0  0
 30 84  1  0  0  0  0
 31 85  1  0  0  0  0
 32 64  2  0  0  0  0
 33 65  1  0  0  0  0
 33 68  1  0  0  0  0
 34 35  2  0  0  0  0
 35 73  1  0  0  0  0
 36 38  2  0  0  0  0
 36 83  1  0  0  0  0
 37 69  1  0  0  0  0
 37 75  2  0  0  0  0
 38 39  1  0  0  0  0
 38 81  1  0  0  0  0
 39 70  1  0  0  0  0
 39 76  2  0  0  0  0
 40 54  1  0  0  0  0
 40 71  1  0  0  0  0
 40 77  2  0  0  0  0
 41 61  1  0  0  0  0
 41 66  1  0  0  0  0
 41 78  2  0  0  0  0
 42 62  1  0  0  0  0
 42 72  1  0  0  0  0
 42 79  2  0  0  0  0
 43 67  1  0  0  0  0
 43 73  1  0  0  0  0
 43 80  2  0  0  0  0
 44 47  1  0  0  0  0
 45 54  1  0  0  0  0
 46 66  1  0  0  0  0
 47 49  1  0  0  0  0
 48 50  1  0  0  0  0
 48 51  1  0  0  0  0
 49 53  1  0  0  0  0
 50 55  1  0  0  0  0
 51 67  1  0  0  0  0
 52 55  1  0  0  0  0
 52 67  1  0  0  0  0
 53 71  1  0  0  0  0
 54 66  1  0  0  0  0
 55 65  1  0  0  0  0
 56 62  1  0  0  0  0
 57 63  1  0  0  0  0
 58 63  1  0  0  0  0
 59 63  1  0  0  0  0
 60 74  1  0  0  0  0
 61 63  1  0  0  0  0
 61 72  1  0  0  0  0
 62 74  1  0  0  0  0
 64 65  1  0  0  0  0
M  CHG  1  74   1
M  ISO  4  36 101  43 100  73 100  83 101
M  END
> <Batch ID>
0094

> <Smiles>
C=C[100N:0](c1cccc(NC(=O)C(=O)[101CH2:1][101O:1]c2ccc3c(c2)CN(C(=O)C(NC(=O)C(C)NC)C(C)(C)C)C(C(=O)NC2CCCc4ccccc42)C3)c1)[100C:0](=O)N1CCCC(n2nc(-c3ccc(Oc4ccc(F)cc4F)cc3)c(C(N)=O)c2N)C1

> <Shape>
0.289

> <Color>
0.191

> <Negative vol penalty>
0.000

$$$$

  -OEChem-04052300403D

 84 92  0     1  0  0  0  0  0999 V2000
  -30.8893  -22.9984   25.3952 C   0  0  0  0  0  0  0  0  0  0  0  0
  -29.5064  -23.1463   25.3637 C   0  0  0  0  0  0  0  0  0  0  0  0
  -30.0335  -28.1514   18.8233 C   0  0  0  0  0  0  0  0  0  0  0  0
  -29.6711  -26.7868   20.7838 C   0  0  0  0  0  0  0  0  0  0  0  0
  -31.5339  -22.2671   24.3984 C   0  0  0  0  0  0  0  0  0  0  0  0
  -28.7673  -22.5638   24.3347 C   0  0  0  0  0  0  0  0  0  0  0  0
  -23.1392  -20.1828   24.7362 C   0  0  0  0  0  0  0  0  0  0  0  0
  -19.2052  -29.3279   22.9683 C   0  0  0  0  0  0  0  0  0  0  0  0
  -31.4055  -27.9169   18.9137 C   0  0  0  0  0  0  0  0  0  0  0  0
  -31.0432  -26.5523   20.8742 C   0  0  0  0  0  0  0  0  0  0  0  0
  -21.8804  -20.6925   24.4208 C   0  0  0  0  0  0  0  0  0  0  0  0
  -17.8996  -28.8632   23.1264 C   0  0  0  0  0  0  0  0  0  0  0  0
  -33.3346  -24.5743   19.3717 C   0  0  0  0  0  0  0  0  0  0  0  0
  -33.7522  -23.2658   19.6142 C   0  0  0  0  0  0  0  0  0  0  0  0
  -19.8836  -27.1507   22.1703 C   0  0  0  0  0  0  0  0  0  0  0  0
  -21.9879  -19.6096   22.2680 C   0  0  0  0  0  0  0  0  0  0  0  0
  -34.8309  -23.9878   21.6519 C   0  0  0  0  0  0  0  0  0  0  0  0
  -29.1663  -27.5864   19.7584 C   0  0  0  0  0  0  0  0  0  0  0  0
  -18.5779  -26.6860   22.3285 C   0  0  0  0  0  0  0  0  0  0  0  0
  -26.8003  -27.0653   18.9595 C   0  0  0  0  0  0  0  0  0  0  0  0
  -30.8013  -21.6672   23.3620 C   0  0  0  0  0  0  0  0  0  0  0  0
  -23.8377  -19.3903   23.8139 C   0  0  0  0  0  0  0  0  0  0  0  0
  -29.4028  -21.8249   23.3223 C   0  0  0  0  0  0  0  0  0  0  0  0
  -23.2543  -19.0889   22.5750 C   0  0  0  0  0  0  0  0  0  0  0  0
  -20.1972  -28.4717   22.4902 C   0  0  0  0  0  0  0  0  0  0  0  0
  -31.9103  -27.1174   19.9390 C   0  0  0  0  0  0  0  0  0  0  0  0
  -21.3058  -20.4083   23.1855 C   0  0  0  0  0  0  0  0  0  0  0  0
  -17.5860  -27.5422   22.8065 C   0  0  0  0  0  0  0  0  0  0  0  0
  -33.6651  -25.5896   20.2692 C   0  0  0  0  0  0  0  0  0  0  0  0
  -34.5004  -22.9725   20.7543 C   0  0  0  0  0  0  0  0  0  0  0  0
  -34.4133  -25.2964   21.4093 C   0  0  0  0  0  0  0  0  0  0  0  0
  -27.7489  -27.8287   19.6660 C   0  0  0  0  0  0  0  0  0  0  0  0
  -25.6066  -27.7060   19.1858 C   0  0  0  0  0  0  0  0  0  0  0  0
  -18.2653  -25.2761   21.9818 C   0  0  0  0  0  0  0  0  0  0  0  0
  -26.9818  -25.8828   18.1694 C   0  0  0  0  0  0  0  0  0  0  0  0
  -26.6028  -19.6562   22.2689 C   0  0  0  0  0  0  0  0  0  0  0  0
  -25.9008  -16.6435   21.2928 C   0  0  0  0  0  0  0  0  0  0  0  0
  -18.7981  -22.9316   22.5429 C   0  0  0  0  0  0  0  0  0  0  0  0
  -23.5215  -14.2674   20.7097 C   0  0  0  0  0  0  0  0  0  0  0  0
  -22.0019  -30.2259   22.6003 C   0  0  0  0  0  0  0  0  0  0  0  0
  -31.5470  -20.9259   22.2807 C   0  0  0  0  0  0  0  0  0  0  0  0
  -25.1831  -18.8260   24.1797 C   0  0  0  0  0  0  0  0  0  0  0  0
  -23.9540  -18.2263   21.5578 C   0  0  0  0  0  0  0  0  0  0  0  0
  -30.6531  -20.0255   21.4320 C   0  0  0  0  0  0  0  0  0  0  0  0
  -24.6320  -32.2182   21.2623 C   0  0  0  0  0  0  0  0  0  0  0  0
  -29.3893  -20.7699   21.0131 C   0  0  0  0  0  0  0  0  0  0  0  0
  -25.5993  -31.1910   20.6696 C   0  0  0  0  0  0  0  0  0  0  0  0
  -23.9913  -31.7143   22.5543 C   0  0  0  0  0  0  0  0  0  0  0  0
  -24.3131  -29.3718   21.8625 C   0  0  0  0  0  0  0  0  0  0  0  0
  -28.5639  -21.1872   22.2362 C   0  0  1  0  0  0  0  0  0  0  0  0
  -26.0262  -18.4551   22.9636 C   0  0  1  0  0  0  0  0  0  0  0  0
  -24.9342  -29.8081   20.5255 C   0  0  2  0  0  0  0  0  0  0  0  0
  -23.2484  -11.9156   19.8778 C   0  0  0  0  0  0  0  0  0  0  0  0
  -26.2981  -17.6135   18.4273 C   0  0  0  0  0  0  0  0  0  0  0  0
  -25.1131  -15.5535   17.6395 C   0  0  0  0  0  0  0  0  0  0  0  0
  -27.2534  -15.3522   18.9050 C   0  0  0  0  0  0  0  0  0  0  0  0
  -22.3849  -13.3638   23.2886 C   0  0  0  0  0  0  0  0  0  0  0  0
  -19.7137  -22.1529   23.4639 C   0  0  0  0  0  0  0  0  0  1  0  0
  -25.1513  -16.0447   20.1271 C   0  0  1  0  0  0  0  0  0  0  0  0
  -23.4451  -12.8018   21.0979 C   0  0  2  0  0  0  0  0  0  0  0  0
  -25.9414  -16.1589   18.7929 C   0  0  0  0  0  0  0  0  0  0  0  0
  -27.2049  -28.8745   20.2939 N   0  0  0  0  0  0  0  0  0  0  0  0
  -25.9015  -28.7728   19.9828 N   0  0  0  0  0  0  0  0  0  0  0  0
  -25.2702  -17.7033   21.9598 N   0  0  0  0  0  0  0  0  0  0  0  0
  -23.3775  -30.4018   22.3407 N   0  0  0  0  0  0  0  0  0  0  0  0
  -24.3441  -27.4553   18.7789 N   0  0  0  0  0  0  0  0  0  0  0  0
  -28.2746  -25.3567   18.0413 N   0  0  0  0  0  0  0  0  0  0  0  0
  -21.5233  -28.9444   22.3296 N   0  0  0  0  0  0  0  0  0  0  0  0
  -18.9685  -24.3083   22.6971 N   0  0  0  0  0  0  0  0  0  0  0  0
  -27.8307  -20.0553   22.7613 N   0  0  0  0  0  0  0  0  0  0  0  0
  -24.8234  -14.6763   20.5122 N   0  0  0  0  0  0  0  0  0  0  0  0
  -22.3081  -12.5724   22.0336 N   0  3  0  0  0  0  0  0  0  0  0  0
  -17.4114  -25.0451   21.1300 O   0  0  0  0  0  0  0  0  0  0  0  0
  -26.0285  -25.3189   17.5806 O   0  0  0  0  0  0  0  0  0  0  0  0
  -25.9805  -20.1811   21.3530 O   0  0  0  0  0  0  0  0  0  0  0  0
  -27.0018  -16.1829   21.6046 O   0  0  0  0  0  0  0  0  0  0  0  0
  -18.0167  -22.3878   21.7674 O   0  0  0  0  0  0  0  0  0  0  0  0
  -22.5255  -14.9774   20.5897 O   0  0  0  0  0  0  0  0  0  0  0  0
  -21.2943  -31.1519   23.0052 O   0  0  0  0  0  0  0  0  0  0  0  0
  -16.3046  -27.1070   22.9686 O   0  0  0  0  0  0  0  0  0  0  0  0
  -33.2491  -26.8881   20.0274 O   0  0  0  0  0  0  0  0  0  0  0  0
  -20.0775  -20.9051   22.8749 O   0  0  0  0  0  0  0  0  0  1  0  0
  -34.9001  -21.7156   20.9879 F   0  0  0  0  0  0  0  0  0  0  0  0
  -34.7329  -26.2674   22.2758 F   0  0  0  0  0  0  0  0  0  0  0  0
  1  2  1  0  0  0  0
  1  5  2  0  0  0  0
  2  6  2  0  0  0  0
  3  9  2  0  0  0  0
  3 18  1  0  0  0  0
  4 10  1  0  0  0  0
  4 18  2  0  0  0  0
  5 21  1  0  0  0  0
  6 23  1  0  0  0  0
  7 11  2  0  0  0  0
  7 22  1  0  0  0  0
  8 12  2  0  0  0  0
  8 25  1  0  0  0  0
  9 26  1  0  0  0  0
 10 26  2  0  0  0  0
 11 27  1  0  0  0  0
 12 28  1  0  0  0  0
 13 14  2  0  0  0  0
 13 29  1  0  0  0  0
 14 30  1  0  0  0  0
 15 19  1  0  0  0  0
 15 25  2  0  0  0  0
 16 24  1  0  0  0  0
 16 27  2  0  0  0  0
 17 30  2  0  0  0  0
 17 31  1  0  0  0  0
 18 32  1  0  0  0  0
 19 28  2  0  0  0  0
 19 34  1  0  0  0  0
 20 32  1  0  0  0  0
 20 33  2  0  0  0  0
 20 35  1  0  0  0  0
 21 23  2  0  0  0  0
 21 41  1  0  0  0  0
 22 24  2  0  0  0  0
 22 42  1  0  0  0  0
 23 50  1  0  0  0  0
 24 43  1  0  0  0  0
 25 68  1  0  0  0  0
 26 81  1  0  0  0  0
 27 82  1  0  0  0  0
 28 80  1  0  0  0  0
 29 31  2  0  0  0  0
 29 81  1  0  0  0  0
 30 83  1  0  0  0  0
 31 84  1  0  0  0  0
 32 62  2  0  0  0  0
 33 63  1  0  0  0  0
 33 66  1  0  0  0  0
 34 69  1  0  0  0  0
 34 73  2  0  0  0  0
 35 67  1  0  0  0  0
 35 74  2  0  0  0  0
 36 51  1  0  0  0  0
 36 70  1  0  0  0  0
 36 75  2  0  0  0  0
 37 59  1  0  0  0  0
 37 64  1  0  0  0  0
 37 76  2  0  0  0  0
 38 58  1  0  0  0  0
 38 69  1  0  0  0  0
 38 77  2  0  0  0  0
 39 60  1  0  0  0  0
 39 71  1  0  0  0  0
 39 78  2  0  0  0  0
 40 65  1  0  0  0  0
 40 68  1  0  0  0  0
 40 79  2  0  0  0  0
 41 44  1  0  0  0  0
 42 51  1  0  0  0  0
 43 64  1  0  0  0  0
 44 46  1  0  0  0  0
 45 47  1  0  0  0  0
 45 48  1  0  0  0  0
 46 50  1  0  0  0  0
 47 52  1  0  0  0  0
 48 65  1  0  0  0  0
 49 52  1  0  0  0  0
 49 65  1  0  0  0  0
 50 70  1  0  0  0  0
 51 64  1  0  0  0  0
 52 63  1  0  0  0  0
 53 60  1  0  0  0  0
 54 61  1  0  0  0  0
 55 61  1  0  0  0  0
 56 61  1  0  0  0  0
 57 72  1  0  0  0  0
 58 82  1  0  0  0  0
 59 61  1  0  0  0  0
 59 71  1  0  0  0  0
 60 72  1  0  0  0  0
 62 63  1  0  0  0  0
M  CHG  1  72   1
M  ISO  4  40 100  58 101  68 100  82 101
M  END
> <Batch ID>
0094

> <Smiles>
CNC(C)C(=O)NC(C(=O)N1Cc2cc([101O:1][101CH2:1]C(=O)NC(=O)c3cc([100NH:0][100C:0](=O)N4CCCC(n5nc(-c6ccc(Oc7ccc(F)cc7F)cc6)c(C(N)=O)c5N)C4)ccc3O)ccc2CC1C(=O)NC1CCCc2ccccc21)C(C)(C)C

> <Shape>
0.207

> <Color>
0.089

> <Negative vol penalty>
0.000

$$$$

  -OEChem-04052300403D

 88 97  0     1  0  0  0  0  0999 V2000
  -14.6377  -28.5491   18.7947 C   0  0  0  0  0  0  0  0  0  0  0  0
  -15.5208  -27.4769   18.8715 C   0  0  0  0  0  0  0  0  0  0  0  0
  -22.9849   -9.9163   19.9875 C   0  0  0  0  0  0  0  0  0  0  0  0
  -23.7700   -9.9347   22.2723 C   0  0  0  0  0  0  0  0  0  0  0  0
  -15.1282  -29.8451   18.6410 C   0  0  0  0  0  0  0  0  0  0  0  0
  -16.8951  -27.7000   18.7934 C   0  0  0  0  0  0  0  0  0  0  0  0
  -21.2979  -24.6175   21.7292 C   0  0  0  0  0  0  0  0  0  0  0  0
  -22.2235   -8.7794   20.2582 C   0  0  0  0  0  0  0  0  0  0  0  0
  -23.0086   -8.7978   22.5431 C   0  0  0  0  0  0  0  0  0  0  0  0
  -22.1409  -23.5803   21.3326 C   0  0  0  0  0  0  0  0  0  0  0  0
  -23.2344   -5.4652   22.0194 C   0  0  0  0  0  0  0  0  0  0  0  0
  -23.8395   -4.4370   22.7419 C   0  0  0  0  0  0  0  0  0  0  0  0
  -23.8638  -25.1870   20.8137 C   0  0  0  0  0  0  0  0  0  0  0  0
  -26.5400  -21.5524   18.2888 C   0  0  0  0  0  0  0  0  0  0  0  0
  -27.7333  -18.3924   21.4003 C   0  0  0  0  0  0  0  0  0  0  0  0
  -29.1441  -18.3859   19.4391 C   0  0  0  0  0  0  0  0  0  0  0  0
  -22.1603   -4.6595   24.4648 C   0  0  0  0  0  0  0  0  0  0  0  0
  -23.7582  -10.4939   20.9945 C   0  0  0  0  0  0  0  0  0  0  0  0
  -29.4512  -16.7116   21.1535 C   0  0  0  0  0  0  0  0  0  0  0  0
  -24.1434  -13.0111   20.8429 C   0  0  0  0  0  0  0  0  0  0  0  0
  -16.5096  -30.0852   18.5707 C   0  0  0  0  0  0  0  0  0  0  0  0
  -21.7284  -25.9503   21.6606 C   0  0  0  0  0  0  0  0  0  0  0  0
  -17.4045  -29.0003   18.6372 C   0  0  0  0  0  0  0  0  0  0  0  0
  -23.0253  -26.2391   21.2124 C   0  0  0  0  0  0  0  0  0  0  0  0
  -26.2882  -21.9780   19.6164 C   0  0  0  0  0  0  0  0  0  0  0  0
  -28.1012  -18.9484   20.1751 C   0  0  0  0  0  0  0  0  0  0  0  0
  -28.4083  -17.2740   21.8895 C   0  0  0  0  0  0  0  0  0  0  0  0
  -22.2353   -8.2201   21.5360 C   0  0  0  0  0  0  0  0  0  0  0  0
  -23.4230  -23.8651   20.8720 C   0  0  0  0  0  0  0  0  0  0  0  0
  -22.0923   -6.0907   22.5195 C   0  0  0  0  0  0  0  0  0  0  0  0
  -23.3025   -4.0340   23.9646 C   0  0  0  0  0  0  0  0  0  0  0  0
  -29.8191  -17.2676   19.9282 C   0  0  0  0  0  0  0  0  0  0  0  0
  -21.5553   -5.6878   23.7422 C   0  0  0  0  0  0  0  0  0  0  0  0
  -24.5454  -11.6680   20.7153 C   0  0  0  0  0  0  0  0  0  0  0  0
  -25.2446  -13.7370   20.4595 C   0  0  0  0  0  0  0  0  0  0  0  0
  -27.2463  -20.3721   18.3622 C   0  0  0  0  0  0  0  0  0  0  0  0
  -26.8486  -21.0450   20.4607 C   0  0  0  0  0  0  0  0  0  0  0  0
  -30.1740  -15.5432   21.6405 C   0  0  0  0  0  0  0  0  0  0  0  0
  -22.8870  -13.5540   21.2698 C   0  0  0  0  0  0  0  0  0  0  0  0
  -30.7716  -14.5637   20.7042 C   0  0  0  0  0  0  0  0  0  0  0  0
  -20.7755  -28.5367   20.0774 C   0  0  0  0  0  0  0  0  0  0  0  0
  -23.0263  -30.0022   21.8964 C   0  0  0  0  0  0  0  0  0  0  0  0
  -25.8963  -29.7386   23.7240 C   0  0  0  0  0  0  0  0  0  0  0  0
  -16.9907  -31.4985   18.3569 C   0  0  0  0  0  0  0  0  0  0  0  0
  -20.8165  -27.0558   22.1174 C   0  0  0  0  0  0  0  0  0  0  0  0
  -23.5426  -27.6517   21.1387 C   0  0  0  0  0  0  0  0  0  0  0  0
  -18.4749  -31.6889   18.6588 C   0  0  0  0  0  0  0  0  0  0  0  0
  -29.5340  -12.2969   18.2170 C   0  0  0  0  0  0  0  0  0  0  0  0
  -19.2971  -30.5752   18.0181 C   0  0  0  0  0  0  0  0  0  0  0  0
  -28.1052  -12.0118   18.6788 C   0  0  0  0  0  0  0  0  0  0  0  0
  -30.4746  -12.4942   19.4014 C   0  0  0  0  0  0  0  0  0  0  0  0
  -28.5972  -13.2754   20.8205 C   0  0  0  0  0  0  0  0  0  0  0  0
  -18.9029  -29.2045   18.5814 C   0  0  1  0  0  0  0  0  0  0  0  0
  -21.1767  -28.4126   21.5201 C   0  0  1  0  0  0  0  0  0  0  0  0
  -27.6124  -13.0978   19.6517 C   0  0  2  0  0  0  0  0  0  0  0  0
  -27.5152  -31.1153   25.0587 C   0  0  0  0  0  0  0  0  0  0  0  0
  -24.2225  -31.0970   19.3117 C   0  0  0  0  0  0  0  0  0  0  0  0
  -26.3075  -31.6382   20.5878 C   0  0  0  0  0  0  0  0  0  0  0  0
  -24.1515  -32.7319   21.2029 C   0  0  0  0  0  0  0  0  0  0  0  0
  -25.3498  -28.1994   26.1920 C   0  0  0  0  0  0  0  0  0  0  0  0
  -25.5480  -23.2185   20.0223 C   0  0  0  0  0  0  0  0  0  1  0  0
  -24.5012  -30.2879   21.7476 C   0  0  1  0  0  0  0  0  0  0  0  0
  -26.2626  -30.2541   25.1041 C   0  0  2  0  0  0  0  0  0  0  0  0
  -24.7855  -31.4122   20.7119 C   0  0  0  0  0  0  0  0  0  0  0  0
  -25.8037  -11.5451   20.2844 N   0  0  0  0  0  0  0  0  0  0  0  0
  -30.3427  -15.2858   22.9076 N   0  0  0  0  0  0  0  0  0  0  0  0
  -27.4284  -20.0735   19.6873 N   0  0  0  0  0  0  0  0  0  0  0  0
  -26.2019  -12.8202   20.1378 N   0  0  0  0  0  0  0  0  0  0  0  0
  -29.9594  -13.5050   20.3228 N   0  0  0  0  0  0  0  0  0  0  0  0
  -22.6111  -28.6984   21.5906 N   0  0  0  0  0  0  0  0  0  0  0  0
  -28.0197  -16.7262   23.1324 N   0  0  0  0  0  0  0  0  0  0  0  0
  -25.4778  -15.0636   20.3695 N   0  0  0  0  0  0  0  0  0  0  0  0
  -21.8629  -12.6668   21.6280 N   0  0  0  0  0  0  0  0  0  0  0  0
  -19.4901  -29.0077   19.8894 N   0  0  0  0  0  0  0  0  0  0  0  0
  -24.9994  -30.5715   23.0892 N   0  0  0  0  0  0  0  0  0  0  0  0
  -26.5084  -29.1157   26.0339 N   0  3  0  0  0  0  0  0  0  0  0  0
  -22.6732  -14.7892   21.3161 O   0  0  0  0  0  0  0  0  0  0  0  0
  -31.9251  -14.7941   20.3654 O   0  0  0  0  0  0  0  0  0  0  0  0
  -21.5736  -28.2293   19.1999 O   0  0  0  0  0  0  0  0  0  0  0  0
  -22.2716  -30.9006   22.2769 O   0  0  0  0  0  0  0  0  0  0  0  0
  -26.3624  -28.7028   23.2545 O   0  0  0  0  0  0  0  0  0  0  0  0
  -27.7138  -19.5875   17.3987 O   0  0  0  0  0  0  0  0  0  0  0  0
  -26.8861  -20.9913   21.7873 O   0  0  0  0  0  0  0  0  0  0  0  0
  -21.4923   -7.1109   21.8006 O   0  0  0  0  0  0  0  0  0  0  0  0
  -24.2476  -22.8546   20.4837 O   0  0  0  0  0  0  0  0  0  1  0  0
  -23.8827   -3.0455   24.6576 F   0  0  0  0  0  0  0  0  0  0  0  0
  -30.8201  -16.7365   19.2117 F   0  0  0  0  0  0  0  0  0  0  0  0
  -20.4576   -6.2841   24.2272 F   0  0  0  0  0  0  0  0  0  0  0  0
  1  2  1  0  0  0  0
  1  5  2  0  0  0  0
  2  6  2  0  0  0  0
  3  8  2  0  0  0  0
  3 18  1  0  0  0  0
  4  9  1  0  0  0  0
  4 18  2  0  0  0  0
  5 21  1  0  0  0  0
  6 23  1  0  0  0  0
  7 10  2  0  0  0  0
  7 22  1  0  0  0  0
  8 28  1  0  0  0  0
  9 28  2  0  0  0  0
 10 29  1  0  0  0  0
 11 12  2  0  0  0  0
 11 30  1  0  0  0  0
 12 31  1  0  0  0  0
 13 24  1  0  0  0  0
 13 29  2  0  0  0  0
 14 25  1  0  0  0  0
 14 36  2  0  0  0  0
 15 26  1  0  0  0  0
 15 27  2  0  0  0  0
 16 26  2  0  0  0  0
 16 32  1  0  0  0  0
 17 31  2  0  0  0  0
 17 33  1  0  0  0  0
 18 34  1  0  0  0  0
 19 27  1  0  0  0  0
 19 32  2  0  0  0  0
 19 38  1  0  0  0  0
 20 34  1  0  0  0  0
 20 35  2  0  0  0  0
 20 39  1  0  0  0  0
 21 23  2  0  0  0  0
 21 44  1  0  0  0  0
 22 24  2  0  0  0  0
 22 45  1  0  0  0  0
 23 53  1  0  0  0  0
 24 46  1  0  0  0  0
 25 37  2  0  0  0  0
 25 61  1  0  0  0  0
 26 67  1  0  0  0  0
 27 71  1  0  0  0  0
 28 84  1  0  0  0  0
 29 85  1  0  0  0  0
 30 33  2  0  0  0  0
 30 84  1  0  0  0  0
 31 86  1  0  0  0  0
 32 87  1  0  0  0  0
 33 88  1  0  0  0  0
 34 65  2  0  0  0  0
 35 68  1  0  0  0  0
 35 72  1  0  0  0  0
 36 67  1  0  0  0  0
 36 82  1  0  0  0  0
 37 67  1  0  0  0  0
 37 83  1  0  0  0  0
 38 40  1  0  0  0  0
 38 66  2  0  0  0  0
 39 73  1  0  0  0  0
 39 77  2  0  0  0  0
 40 69  1  0  0  0  0
 40 78  2  0  0  0  0
 41 54  1  0  0  0  0
 41 74  1  0  0  0  0
 41 79  2  0  0  0  0
 42 62  1  0  0  0  0
 42 70  1  0  0  0  0
 42 80  2  0  0  0  0
 43 63  1  0  0  0  0
 43 75  1  0  0  0  0
 43 81  2  0  0  0  0
 44 47  1  0  0  0  0
 45 54  1  0  0  0  0
 46 70  1  0  0  0  0
 47 49  1  0  0  0  0
 48 50  1  0  0  0  0
 48 51  1  0  0  0  0
 49 53  1  0  0  0  0
 50 55  1  0  0  0  0
 51 69  1  0  0  0  0
 52 55  1  0  0  0  0
 52 69  1  0  0  0  0
 53 74  1  0  0  0  0
 54 70  1  0  0  0  0
 55 68  1  0  0  0  0
 56 63  1  0  0  0  0
 57 64  1  0  0  0  0
 58 64  1  0  0  0  0
 59 64  1  0  0  0  0
 60 76  1  0  0  0  0
 61 85  1  0  0  0  0
 62 64  1  0  0  0  0
 62 75  1  0  0  0  0
 63 76  1  0  0  0  0
 65 68  1  0  0  0  0
M  CHG  1  76   1
M  ISO  4  38 100  40 100  61 101  85 101
M  END
> <Batch ID>
0094

> <Smiles>
CNC(C)C(=O)NC(C(=O)N1Cc2cc([101O:1][101CH2:1]C3CC(=O)N(c4cc(N)c([100C:0](=N)[100C:0](=O)N5CCCC(n6nc(-c7ccc(Oc8ccc(F)cc8F)cc7)c(C(N)=O)c6N)C5)c(F)c4)C3=O)ccc2CC1C(=O)NC1CCCc2ccccc21)C(C)(C)C

> <Shape>
0.318

> <Color>
0.172

> <Negative vol penalty>
0.000

$$$$

  -OEChem-04052300403D

 86 95  0     1  0  0  0  0  0999 V2000
  -19.8565  -35.3089   17.1015 C   0  0  0  0  0  0  0  0  0  0  0  0
  -21.0916  -34.7506   16.7880 C   0  0  0  0  0  0  0  0  0  0  0  0
  -28.7439  -17.7159   18.0259 C   0  0  0  0  0  0  0  0  0  0  0  0
  -24.6576   -8.7670   21.8371 C   0  0  0  0  0  0  0  0  0  0  0  0
  -23.4890  -10.0050   20.1227 C   0  0  0  0  0  0  0  0  0  0  0  0
  -19.5742  -35.6806   18.4153 C   0  0  0  0  0  0  0  0  0  0  0  0
  -22.0455  -34.5647   17.7879 C   0  0  0  0  0  0  0  0  0  0  0  0
  -24.6752  -28.0159   19.2334 C   0  0  0  0  0  0  0  0  0  0  0  0
  -28.5900  -19.0977   18.1382 C   0  0  0  0  0  0  0  0  0  0  0  0
  -29.3681  -16.9984   19.0463 C   0  0  0  0  0  0  0  0  0  0  0  0
  -23.4771   -8.0967   22.1577 C   0  0  0  0  0  0  0  0  0  0  0  0
  -22.3086   -9.3346   20.4433 C   0  0  0  0  0  0  0  0  0  0  0  0
  -25.3811  -26.8284   19.4272 C   0  0  0  0  0  0  0  0  0  0  0  0
  -21.6528   -5.5335   20.9189 C   0  0  0  0  0  0  0  0  0  0  0  0
  -21.7211   -4.1527   21.1039 C   0  0  0  0  0  0  0  0  0  0  0  0
  -26.6407  -27.8567   21.2172 C   0  0  0  0  0  0  0  0  0  0  0  0
  -20.9210   -4.4164   23.3682 C   0  0  0  0  0  0  0  0  0  0  0  0
  -24.6635   -9.7212   20.8196 C   0  0  0  0  0  0  0  0  0  0  0  0
  -27.0906   -9.8445   20.0437 C   0  0  0  0  0  0  0  0  0  0  0  0
  -20.5216  -35.4904   19.4336 C   0  0  0  0  0  0  0  0  0  0  0  0
  -24.9389  -29.1250   20.0420 C   0  0  0  0  0  0  0  0  0  0  0  0
  -21.7761  -34.9356   19.1163 C   0  0  0  0  0  0  0  0  0  0  0  0
  -25.9281  -29.0451   21.0360 C   0  0  0  0  0  0  0  0  0  0  0  0
  -29.0604  -19.7620   19.2710 C   0  0  0  0  0  0  0  0  0  0  0  0
  -29.8384  -17.6627   20.1790 C   0  0  0  0  0  0  0  0  0  0  0  0
  -22.3026   -8.3805   21.4608 C   0  0  0  0  0  0  0  0  0  0  0  0
  -26.3616  -26.7491   20.4165 C   0  0  0  0  0  0  0  0  0  0  0  0
  -21.2186   -6.3558   21.9587 C   0  0  0  0  0  0  0  0  0  0  0  0
  -21.3552   -3.5941   22.3285 C   0  0  0  0  0  0  0  0  0  0  0  0
  -20.8527   -5.7972   23.1833 C   0  0  0  0  0  0  0  0  0  0  0  0
  -29.6846  -19.0445   20.2914 C   0  0  0  0  0  0  0  0  0  0  0  0
  -25.8825  -10.4144   20.4883 C   0  0  0  0  0  0  0  0  0  0  0  0
  -27.9321  -10.9160   19.8697 C   0  0  0  0  0  0  0  0  0  0  0  0
  -28.4800  -23.9565   19.6267 C   0  0  0  0  0  0  0  0  0  0  0  0
  -27.7710  -25.0916   19.5567 C   0  0  0  0  0  0  0  0  0  1  0  0
  -27.4224   -8.4696   19.8090 C   0  0  0  0  0  0  0  0  0  0  0  0
  -24.1110  -32.6853   20.8876 C   0  0  0  0  0  0  0  0  0  0  0  0
  -24.5504  -31.2173   23.5451 C   0  0  0  0  0  0  0  0  0  0  0  0
  -24.6998  -29.1451   26.2508 C   0  0  0  0  0  0  0  0  0  0  0  0
  -30.1397  -15.5736   21.4967 C   0  0  0  0  0  0  0  0  0  0  0  0
  -20.1884  -35.9515   20.8304 C   0  0  0  0  0  0  0  0  0  0  0  0
  -24.2460  -30.4434   19.8282 C   0  0  0  0  0  0  0  0  0  0  0  0
  -26.2021  -30.2740   21.8591 C   0  0  0  0  0  0  0  0  0  0  0  0
  -29.2773  -23.4191   18.4725 C   0  0  0  0  0  0  0  0  0  0  0  0
  -28.5282  -23.0977   20.8587 C   0  0  0  0  0  0  0  0  0  0  0  0
  -21.1142  -35.3757   21.8989 C   0  0  0  0  0  0  0  0  0  0  0  0
  -26.9990  -15.8792   19.8579 C   0  0  0  0  0  0  0  0  0  0  0  0
  -22.5711  -35.4925   21.4623 C   0  0  0  0  0  0  0  0  0  0  0  0
  -26.5190  -14.4283   19.8490 C   0  0  0  0  0  0  0  0  0  0  0  0
  -28.8876  -21.9716   18.1627 C   0  0  0  0  0  0  0  0  0  0  0  0
  -28.1368  -21.6554   20.5317 C   0  0  0  0  0  0  0  0  0  0  0  0
  -27.7042  -16.2408   21.1655 C   0  0  0  0  0  0  0  0  0  0  0  0
  -28.3306  -13.8725   21.5163 C   0  0  0  0  0  0  0  0  0  0  0  0
  -22.8276  -34.6952   20.1777 C   0  0  1  0  0  0  0  0  0  0  0  0
  -23.9914  -31.2107   21.1380 C   0  0  1  0  0  0  0  0  0  0  0  0
  -27.6685  -13.4642   20.1911 C   0  0  1  0  0  0  0  0  0  0  0  0
  -24.5416  -29.1610   28.7552 C   0  0  0  0  0  0  0  0  0  0  0  0
  -27.3561  -32.4023   23.7111 C   0  0  0  0  0  0  0  0  0  0  0  0
  -27.5105  -31.5271   26.0517 C   0  0  0  0  0  0  0  0  0  0  0  0
  -25.7729  -33.2186   25.4666 C   0  0  0  0  0  0  0  0  0  0  0  0
  -31.6737  -17.4926   21.8705 C   0  0  0  0  0  0  0  0  0  0  0  0
  -22.3597  -27.3332   26.2304 C   0  0  0  0  0  0  0  0  0  0  0  0
  -25.5188  -30.8433   24.6386 C   0  0  1  0  0  0  0  0  0  0  0  0
  -23.7820  -28.9854   27.4495 C   0  0  2  0  0  0  0  0  0  0  0  0
  -26.5341  -31.9802   24.9453 C   0  0  0  0  0  0  0  0  0  0  0  0
  -25.9467  -11.7446   20.5905 N   0  0  0  0  0  0  0  0  0  0  0  0
  -27.2053  -12.0195   20.2078 N   0  0  0  0  0  0  0  0  0  0  0  0
  -28.9041  -21.1494   19.3812 N   0  0  0  0  0  0  0  0  0  0  0  0
  -24.9348  -30.9221   22.2315 N   0  0  0  0  0  0  0  0  0  0  0  0
  -28.7653  -15.2707   21.4708 N   0  0  0  0  0  0  0  0  0  0  0  0
  -29.2154  -11.0125   19.4621 N   0  0  0  0  0  0  0  0  0  0  0  0
  -27.1983   -7.9367   18.5322 N   0  0  0  0  0  0  0  0  0  0  0  0
  -22.9360  -33.2826   20.4728 N   0  0  0  0  0  0  0  0  0  0  0  0
  -24.7075  -30.4420   25.7827 N   0  0  0  0  0  0  0  0  0  0  0  0
  -30.4843  -16.9168   21.2335 N   0  0  0  0  0  0  0  0  0  0  0  0
  -23.1578  -27.6321   27.4472 N   0  3  0  0  0  0  0  0  0  0  0  0
  -27.8880   -7.7308   20.7095 O   0  0  0  0  0  0  0  0  0  0  0  0
  -25.1892  -33.2418   21.0592 O   0  0  0  0  0  0  0  0  0  0  0  0
  -23.4838  -31.7615   23.8442 O   0  0  0  0  0  0  0  0  0  0  0  0
  -25.3480  -28.2133   25.7794 O   0  0  0  0  0  0  0  0  0  0  0  0
  -30.9916  -14.7163   21.7603 O   0  0  0  0  0  0  0  0  0  0  0  0
  -21.1506   -7.7265   21.7732 O   0  0  0  0  0  0  0  0  0  0  0  0
  -27.0438  -25.5853   20.6033 O   0  0  0  0  0  0  0  0  0  1  0  0
  -21.4194   -2.2679   22.5054 F   0  0  0  0  0  0  0  0  0  0  0  0
  -20.4337   -6.5820   24.1855 F   0  0  0  0  0  0  0  0  0  0  0  0
  -30.1367  -19.6839   21.3810 F   0  0  0  0  0  0  0  0  0  0  0  0
  1  2  1  0  0  0  0
  1  6  2  0  0  0  0
  2  7  2  0  0  0  0
  3  9  2  0  0  0  0
  3 10  1  0  0  0  0
  4 11  2  0  0  0  0
  4 18  1  0  0  0  0
  5 12  1  0  0  0  0
  5 18  2  0  0  0  0
  6 20  1  0  0  0  0
  7 22  1  0  0  0  0
  8 13  2  0  0  0  0
  8 21  1  0  0  0  0
  9 24  1  0  0  0  0
 10 25  2  0  0  0  0
 11 26  1  0  0  0  0
 12 26  2  0  0  0  0
 13 27  1  0  0  0  0
 14 15  2  0  0  0  0
 14 28  1  0  0  0  0
 15 29  1  0  0  0  0
 16 23  1  0  0  0  0
 16 27  2  0  0  0  0
 17 29  2  0  0  0  0
 17 30  1  0  0  0  0
 18 32  1  0  0  0  0
 19 32  1  0  0  0  0
 19 33  2  0  0  0  0
 19 36  1  0  0  0  0
 20 22  2  0  0  0  0
 20 41  1  0  0  0  0
 21 23  2  0  0  0  0
 21 42  1  0  0  0  0
 22 54  1  0  0  0  0
 23 43  1  0  0  0  0
 24 31  2  0  0  0  0
 24 68  1  0  0  0  0
 25 31  1  0  0  0  0
 25 75  1  0  0  0  0
 26 82  1  0  0  0  0
 27 83  1  0  0  0  0
 28 30  2  0  0  0  0
 28 82  1  0  0  0  0
 29 84  1  0  0  0  0
 30 85  1  0  0  0  0
 31 86  1  0  0  0  0
 32 66  2  0  0  0  0
 33 67  1  0  0  0  0
 33 71  1  0  0  0  0
 34 35  2  0  0  0  0
 34 44  1  0  0  0  0
 34 45  1  0  0  0  0
 35 83  1  0  0  0  0
 36 72  1  0  0  0  0
 36 77  2  0  0  0  0
 37 55  1  0  0  0  0
 37 73  1  0  0  0  0
 37 78  2  0  0  0  0
 38 63  1  0  0  0  0
 38 69  1  0  0  0  0
 38 79  2  0  0  0  0
 39 64  1  0  0  0  0
 39 74  1  0  0  0  0
 39 80  2  0  0  0  0
 40 70  1  0  0  0  0
 40 75  1  0  0  0  0
 40 81  2  0  0  0  0
 41 46  1  0  0  0  0
 42 55  1  0  0  0  0
 43 69  1  0  0  0  0
 44 50  1  0  0  0  0
 45 51  1  0  0  0  0
 46 48  1  0  0  0  0
 47 49  1  0  0  0  0
 47 52  1  0  0  0  0
 48 54  1  0  0  0  0
 49 56  1  0  0  0  0
 50 68  1  0  0  0  0
 51 68  1  0  0  0  0
 52 70  1  0  0  0  0
 53 56  1  0  0  0  0
 53 70  1  0  0  0  0
 54 73  1  0  0  0  0
 55 69  1  0  0  0  0
 56 67  1  0  0  0  0
 57 64  1  0  0  0  0
 58 65  1  0  0  0  0
 59 65  1  0  0  0  0
 60 65  1  0  0  0  0
 61 75  1  0  0  0  0
 62 76  1  0  0  0  0
 63 65  1  0  0  0  0
 63 74  1  0  0  0  0
 64 76  1  0  0  0  0
 66 67  1  0  0  0  0
M  CHG  1  76   1
M  ISO  4  35 101  40 100  75 100  83 101
M  END
> <Batch ID>
0094

> <Smiles>
CNC(C)C(=O)NC(C(=O)N1Cc2cc([101O:1][101CH:1]=C3CCN(c4cccc([100N:0](C)[100C:0](=O)N5CCCC(n6nc(-c7ccc(Oc8ccc(F)cc8F)cc7)c(C(N)=O)c6N)C5)c4F)CC3)ccc2CC1C(=O)NC1CCCc2ccccc21)C(C)(C)C

> <Shape>
0.319

> <Color>
0.110

> <Negative vol penalty>
0.000

$$$$

  -OEChem-04052300403D

 90 99  0     1  0  0  0  0  0999 V2000
  -26.4588  -35.9173   22.2400 C   0  0  0  0  0  0  0  0  0  0  0  0
  -26.8917  -34.5992   22.1381 C   0  0  0  0  0  0  0  0  0  0  0  0
  -22.7609  -10.1890   20.1001 C   0  0  0  0  0  0  0  0  0  0  0  0
  -24.3885   -9.2897   21.6426 C   0  0  0  0  0  0  0  0  0  0  0  0
  -27.1806  -19.0014   15.8789 C   0  0  0  0  0  0  0  0  0  0  0  0
  -25.2468  -36.2054   22.8662 C   0  0  0  0  0  0  0  0  0  0  0  0
  -26.1134  -33.5683   22.6634 C   0  0  0  0  0  0  0  0  0  0  0  0
  -23.7303  -28.2159   18.4724 C   0  0  0  0  0  0  0  0  0  0  0  0
  -26.0303  -19.7816   15.7619 C   0  0  0  0  0  0  0  0  0  0  0  0
  -22.0372   -8.9986   20.1697 C   0  0  0  0  0  0  0  0  0  0  0  0
  -23.6649   -8.0993   21.7122 C   0  0  0  0  0  0  0  0  0  0  0  0
  -23.4134  -27.0470   17.7800 C   0  0  0  0  0  0  0  0  0  0  0  0
  -20.8934   -6.9588   23.2738 C   0  0  0  0  0  0  0  0  0  0  0  0
  -20.6859   -6.4010   24.5353 C   0  0  0  0  0  0  0  0  0  0  0  0
  -22.2536  -26.1970   19.7243 C   0  0  0  0  0  0  0  0  0  0  0  0
  -25.5391  -19.4074   18.0977 C   0  0  0  0  0  0  0  0  0  0  0  0
  -21.8467   -4.3991   23.8410 C   0  0  0  0  0  0  0  0  0  0  0  0
  -23.9366  -10.3345   20.8365 C   0  0  0  0  0  0  0  0  0  0  0  0
  -27.5101  -18.4241   17.1053 C   0  0  0  0  0  0  0  0  0  0  0  0
  -24.2372  -12.8529   21.1102 C   0  0  0  0  0  0  0  0  0  0  0  0
  -24.4486  -35.1767   23.3909 C   0  0  0  0  0  0  0  0  0  0  0  0
  -23.2964  -28.3865   19.7900 C   0  0  0  0  0  0  0  0  0  0  0  0
  -24.8903  -33.8430   23.2984 C   0  0  0  0  0  0  0  0  0  0  0  0
  -22.5574  -27.3709   20.4188 C   0  0  0  0  0  0  0  0  0  0  0  0
  -25.2096  -19.9846   16.8713 C   0  0  0  0  0  0  0  0  0  0  0  0
  -22.4892   -7.9537   20.9758 C   0  0  0  0  0  0  0  0  0  0  0  0
  -22.6771  -26.0400   18.4045 C   0  0  0  0  0  0  0  0  0  0  0  0
  -21.5774   -6.2367   22.2958 C   0  0  0  0  0  0  0  0  0  0  0  0
  -26.6894  -18.6272   18.2146 C   0  0  0  0  0  0  0  0  0  0  0  0
  -21.1627   -5.1212   24.8190 C   0  0  0  0  0  0  0  0  0  0  0  0
  -22.0541   -4.9569   22.5795 C   0  0  0  0  0  0  0  0  0  0  0  0
  -24.6849  -11.5638   20.7646 C   0  0  0  0  0  0  0  0  0  0  0  0
  -25.3149  -13.6681   20.8640 C   0  0  0  0  0  0  0  0  0  0  0  0
  -22.5798  -22.5132   17.6316 C   0  0  0  0  0  0  0  0  0  0  0  0
  -23.8133  -21.9677   17.5117 C   0  0  0  0  0  0  0  0  0  0  0  0
  -23.0139  -20.3095   15.8738 C   0  0  0  0  0  0  0  0  0  0  0  0
  -28.7397  -17.5968   17.2076 C   0  0  0  0  0  0  0  0  0  0  0  0
  -22.9613  -13.2758   21.6091 C   0  0  0  0  0  0  0  0  0  0  0  0
  -23.1849  -30.6007   22.8167 C   0  0  0  0  0  0  0  0  0  0  0  0
  -20.4145  -29.3097   22.5545 C   0  0  0  0  0  0  0  0  0  0  0  0
  -17.0808  -28.5897   22.6285 C   0  0  0  0  0  0  0  0  0  0  0  0
  -29.5597  -15.3162   17.7076 C   0  0  0  0  0  0  0  0  0  0  0  0
  -23.1689  -35.5411   24.1009 C   0  0  0  0  0  0  0  0  0  0  0  0
  -23.6670  -29.6027   20.5945 C   0  0  0  0  0  0  0  0  0  0  0  0
  -22.1413  -27.5833   21.8487 C   0  0  0  0  0  0  0  0  0  0  0  0
  -21.4092  -21.9188   16.9020 C   0  0  0  0  0  0  0  0  0  0  0  0
  -21.8735  -21.2660   15.6191 C   0  0  0  0  0  0  0  0  0  0  0  0
  -22.2243  -34.3585   24.2993 C   0  0  0  0  0  0  0  0  0  0  0  0
  -30.1358  -12.5305   19.8064 C   0  0  0  0  0  0  0  0  0  0  0  0
  -22.9875  -33.1488   24.8293 C   0  0  0  0  0  0  0  0  0  0  0  0
  -28.7334  -12.1388   20.2797 C   0  0  0  0  0  0  0  0  0  0  0  0
  -30.1348  -12.9918   18.3496 C   0  0  0  0  0  0  0  0  0  0  0  0
  -27.7695  -13.6549   18.5030 C   0  0  0  0  0  0  0  0  0  0  0  0
  -24.0622  -32.6950   23.8339 C   0  0  1  0  0  0  0  0  0  0  0  0
  -22.5616  -30.0392   21.5726 C   0  0  1  0  0  0  0  0  0  0  0  0
  -27.7059  -13.2499   19.9846 C   0  0  1  0  0  0  0  0  0  0  0  0
  -25.0185  -22.6436   18.1282 C   0  0  0  0  0  0  0  0  0  0  0  0
  -15.1349  -28.4284   24.2048 C   0  0  0  0  0  0  0  0  0  0  0  0
  -21.4876  -26.6533   23.6015 C   0  0  0  0  0  0  0  0  0  0  0  0
  -19.1723  -26.1067   24.3818 C   0  0  0  0  0  0  0  0  0  0  0  0
  -20.3712  -28.0802   25.3256 C   0  0  0  0  0  0  0  0  0  0  0  0
  -15.5884  -30.6994   21.1861 C   0  0  0  0  0  0  0  0  0  0  0  0
  -27.8099  -18.8417   20.3013 C   0  0  0  0  0  0  0  0  0  0  0  0
  -22.2328  -23.7046   18.4837 C   0  0  0  0  0  0  0  0  0  1  0  0
  -19.5051  -28.1746   22.9522 C   0  0  1  0  0  0  0  0  0  0  0  0
  -15.9049  -29.3241   23.2469 C   0  0  2  0  0  0  0  0  0  0  0  0
  -20.1390  -27.2599   24.0379 C   0  0  0  0  0  0  0  0  0  0  0  0
  -25.9484  -11.5555   20.3318 N   0  0  0  0  0  0  0  0  0  0  0  0
  -26.3039  -12.8495   20.4036 N   0  0  0  0  0  0  0  0  0  0  0  0
  -24.0176  -20.7925   16.7497 N   0  0  0  0  0  0  0  0  0  0  0  0
  -21.6676  -28.9638   22.0344 N   0  0  0  0  0  0  0  0  0  0  0  0
  -29.1426  -14.0506   18.1556 N   0  0  0  0  0  0  0  0  0  0  0  0
  -25.5035  -14.9980   20.9986 N   0  0  0  0  0  0  0  0  0  0  0  0
  -22.7610  -13.3004   22.9961 N   0  0  0  0  0  0  0  0  0  0  0  0
  -28.5430  -16.2710   17.5949 N   0  0  0  0  0  0  0  0  0  0  0  0
  -23.4624  -31.9525   22.7461 N   0  0  0  0  0  0  0  0  0  0  0  0
  -18.2405  -28.7844   23.3486 N   0  0  0  0  0  0  0  0  0  0  0  0
  -14.9692  -29.7907   22.1850 N   0  3  0  0  0  0  0  0  0  0  0  0
  -23.0246  -19.2209   15.2945 O   0  0  0  0  0  0  0  0  0  0  0  0
  -29.8229  -18.0968   16.9166 O   0  0  0  0  0  0  0  0  0  0  0  0
  -22.0212  -13.6060   20.8471 O   0  0  0  0  0  0  0  0  0  0  0  0
  -23.3975  -29.8630   23.7718 O   0  0  0  0  0  0  0  0  0  0  0  0
  -20.0290  -30.4724   22.7053 O   0  0  0  0  0  0  0  0  0  0  0  0
  -16.9799  -27.9082   21.6107 O   0  0  0  0  0  0  0  0  0  0  0  0
  -30.7407  -15.5843   17.4654 O   0  0  0  0  0  0  0  0  0  0  0  0
  -21.7832   -6.7921   21.0441 O   0  0  0  0  0  0  0  0  0  0  0  0
  -26.9942  -18.0714   19.4212 O   0  0  0  0  0  0  0  0  0  0  0  0
  -22.3673  -24.9033   17.7212 O   0  0  0  0  0  0  0  0  0  1  0  0
  -20.9648   -4.5863   26.0310 F   0  0  0  0  0  0  0  0  0  0  0  0
  -22.7130   -4.2588   21.6444 F   0  0  0  0  0  0  0  0  0  0  0  0
  1  2  1  0  0  0  0
  1  6  2  0  0  0  0
  2  7  2  0  0  0  0
  3 10  2  0  0  0  0
  3 18  1  0  0  0  0
  4 11  1  0  0  0  0
  4 18  2  0  0  0  0
  5  9  2  0  0  0  0
  5 19  1  0  0  0  0
  6 21  1  0  0  0  0
  7 23  1  0  0  0  0
  8 12  2  0  0  0  0
  8 22  1  0  0  0  0
  9 25  1  0  0  0  0
 10 26  1  0  0  0  0
 11 26  2  0  0  0  0
 12 27  1  0  0  0  0
 13 14  2  0  0  0  0
 13 28  1  0  0  0  0
 14 30  1  0  0  0  0
 15 24  1  0  0  0  0
 15 27  2  0  0  0  0
 16 25  2  0  0  0  0
 16 29  1  0  0  0  0
 17 30  2  0  0  0  0
 17 31  1  0  0  0  0
 18 32  1  0  0  0  0
 19 29  2  0  0  0  0
 19 37  1  0  0  0  0
 20 32  1  0  0  0  0
 20 33  2  0  0  0  0
 20 38  1  0  0  0  0
 21 23  2  0  0  0  0
 21 43  1  0  0  0  0
 22 24  2  0  0  0  0
 22 44  1  0  0  0  0
 23 54  1  0  0  0  0
 24 45  1  0  0  0  0
 25 70  1  0  0  0  0
 26 86  1  0  0  0  0
 27 88  1  0  0  0  0
 28 31  2  0  0  0  0
 28 86  1  0  0  0  0
 29 87  1  0  0  0  0
 30 89  1  0  0  0  0
 31 90  1  0  0  0  0
 32 68  2  0  0  0  0
 33 69  1  0  0  0  0
 33 73  1  0  0  0  0
 34 35  2  0  0  0  0
 34 46  1  0  0  0  0
 34 64  1  0  0  0  0
 35 57  1  0  0  0  0
 35 70  1  0  0  0  0
 36 47  1  0  0  0  0
 36 70  1  0  0  0  0
 36 79  2  0  0  0  0
 37 75  1  0  0  0  0
 37 80  2  0  0  0  0
 38 74  1  0  0  0  0
 38 81  2  0  0  0  0
 39 55  1  0  0  0  0
 39 76  1  0  0  0  0
 39 82  2  0  0  0  0
 40 65  1  0  0  0  0
 40 71  1  0  0  0  0
 40 83  2  0  0  0  0
 41 66  1  0  0  0  0
 41 77  1  0  0  0  0
 41 84  2  0  0  0  0
 42 72  1  0  0  0  0
 42 75  1  0  0  0  0
 42 85  2  0  0  0  0
 43 48  1  0  0  0  0
 44 55  1  0  0  0  0
 45 71  1  0  0  0  0
 46 47  1  0  0  0  0
 48 50  1  0  0  0  0
 49 51  1  0  0  0  0
 49 52  1  0  0  0  0
 50 54  1  0  0  0  0
 51 56  1  0  0  0  0
 52 72  1  0  0  0  0
 53 56  1  0  0  0  0
 53 72  1  0  0  0  0
 54 76  1  0  0  0  0
 55 71  1  0  0  0  0
 56 69  1  0  0  0  0
 58 66  1  0  0  0  0
 59 67  1  0  0  0  0
 60 67  1  0  0  0  0
 61 67  1  0  0  0  0
 62 78  1  0  0  0  0
 63 87  1  0  0  0  0
 64 88  1  0  0  0  0
 65 67  1  0  0  0  0
 65 77  1  0  0  0  0
 66 78  1  0  0  0  0
 68 69  1  0  0  0  0
M  CHG  1  78   1
M  ISO  4  42 100  64 101  75 100  88 101
M  END
> <Batch ID>
0094

> <Smiles>
CNC(C)C(=O)NC(C(=O)N1Cc2cc([101O:1][101CH2:1]C3=C(C)N(c4ccc(C(=O)[100NH:0][100C:0](=O)N5CCCC(n6nc(-c7ccc(Oc8ccc(F)cc8F)cc7)c(C(N)=O)c6N)C5)c(OC)c4)C(=O)CC3)ccc2CC1C(=O)NC1CCCc2ccccc21)C(C)(C)C

> <Shape>
0.316

> <Color>
0.143

> <Negative vol penalty>
0.000

$$$$

  -OEChem-04052300403D

 87 96  0     1  0  0  0  0  0999 V2000
  -28.5113  -24.6109   12.8769 C   0  0  0  0  0  0  0  0  0  0  0  0
  -27.4023  -25.3875   13.1970 C   0  0  0  0  0  0  0  0  0  0  0  0
  -24.0431  -13.2274   21.2362 C   0  0  0  0  0  0  0  0  0  0  0  0
  -25.8629  -13.3152   19.6495 C   0  0  0  0  0  0  0  0  0  0  0  0
  -22.4323  -24.8550   23.2201 C   0  0  0  0  0  0  0  0  0  0  0  0
  -29.0914  -23.7932   13.8457 C   0  0  0  0  0  0  0  0  0  0  0  0
  -26.8721  -25.3460   14.4860 C   0  0  0  0  0  0  0  0  0  0  0  0
  -23.5844  -29.5014   19.3068 C   0  0  0  0  0  0  0  0  0  0  0  0
  -23.2707  -23.9652   22.5486 C   0  0  0  0  0  0  0  0  0  0  0  0
  -24.4054  -11.9249   21.5796 C   0  0  0  0  0  0  0  0  0  0  0  0
  -26.2252  -12.0128   19.9929 C   0  0  0  0  0  0  0  0  0  0  0  0
  -22.4492  -29.5213   20.1160 C   0  0  0  0  0  0  0  0  0  0  0  0
  -24.0342   -8.8178   20.3019 C   0  0  0  0  0  0  0  0  0  0  0  0
  -23.0164   -7.8703   20.4114 C   0  0  0  0  0  0  0  0  0  0  0  0
  -23.5825  -28.1317   21.7297 C   0  0  0  0  0  0  0  0  0  0  0  0
  -21.3521  -22.6495   21.8966 C   0  0  0  0  0  0  0  0  0  0  0  0
  -23.6118   -7.4978   22.7231 C   0  0  0  0  0  0  0  0  0  0  0  0
  -24.7718  -13.9225   20.2711 C   0  0  0  0  0  0  0  0  0  0  0  0
  -21.0537  -24.6421   23.2298 C   0  0  0  0  0  0  0  0  0  0  0  0
  -23.1673  -15.6950   19.3814 C   0  0  0  0  0  0  0  0  0  0  0  0
  -28.5739  -23.7489   15.1499 C   0  0  0  0  0  0  0  0  0  0  0  0
  -24.7253  -28.7863   19.6986 C   0  0  0  0  0  0  0  0  0  0  0  0
  -27.4450  -24.5259   15.4729 C   0  0  0  0  0  0  0  0  0  0  0  0
  -24.7318  -28.1065   20.9249 C   0  0  0  0  0  0  0  0  0  0  0  0
  -22.7306  -22.8625   21.8869 C   0  0  0  0  0  0  0  0  0  0  0  0
  -25.4965  -11.3176   20.9580 C   0  0  0  0  0  0  0  0  0  0  0  0
  -22.4472  -28.8340   21.3263 C   0  0  0  0  0  0  0  0  0  0  0  0
  -24.8409   -9.1053   21.4030 C   0  0  0  0  0  0  0  0  0  0  0  0
  -22.8052   -7.2104   21.6219 C   0  0  0  0  0  0  0  0  0  0  0  0
  -20.5137  -23.5394   22.5681 C   0  0  0  0  0  0  0  0  0  0  0  0
  -24.6296   -8.4453   22.6136 C   0  0  0  0  0  0  0  0  0  0  0  0
  -24.3978  -15.2678   19.9155 C   0  0  0  0  0  0  0  0  0  0  0  0
  -23.3146  -17.0512   19.2218 C   0  0  0  0  0  0  0  0  0  0  0  0
  -18.9845  -29.1440   22.1063 C   0  0  0  0  0  0  0  0  0  0  0  0
  -20.1705  -25.5838   23.9407 C   0  0  0  0  0  0  0  0  0  0  0  0
  -21.9959  -14.9339   19.0585 C   0  0  0  0  0  0  0  0  0  0  0  0
  -26.3508  -26.3282   18.5072 C   0  0  0  0  0  0  0  0  0  0  0  0
  -28.3948  -27.0063   20.9330 C   0  0  0  0  0  0  0  0  0  0  0  0
  -28.1395  -27.9311   24.4110 C   0  0  0  0  0  0  0  0  0  0  0  0
  -24.9716  -22.0249   21.0977 C   0  0  0  0  0  0  0  0  0  0  0  0
  -29.2060  -22.8139   16.1504 C   0  0  0  0  0  0  0  0  0  0  0  0
  -25.9511  -28.7968   18.8269 C   0  0  0  0  0  0  0  0  0  0  0  0
  -25.9382  -27.3405   21.4006 C   0  0  0  0  0  0  0  0  0  0  0  0
  -18.0164  -28.4295   23.0173 C   0  0  0  0  0  0  0  0  0  0  0  0
  -28.8124  -23.1111   17.5950 C   0  0  0  0  0  0  0  0  0  0  0  0
  -27.4326  -19.9773   19.5397 C   0  0  0  0  0  0  0  0  0  0  0  0
  -27.3059  -23.3239   17.7049 C   0  0  0  0  0  0  0  0  0  0  0  0
  -26.7613  -18.6047   19.4546 C   0  0  0  0  0  0  0  0  0  0  0  0
  -18.7898  -27.5748   24.0046 C   0  0  0  0  0  0  0  0  0  0  0  0
  -27.0632  -20.7105   20.8279 C   0  0  0  0  0  0  0  0  0  0  0  0
  -20.0079  -26.8454   21.8649 C   0  0  0  0  0  0  0  0  0  0  0  0
  -24.9506  -19.4548   20.9992 C   0  0  0  0  0  0  0  0  0  0  0  0
  -26.8562  -24.5269   16.8670 C   0  0  1  0  0  0  0  0  0  0  0  0
  -20.1438  -28.3323   21.5643 C   0  0  2  0  0  0  0  0  0  1  0  0
  -26.8771  -27.6120   19.0839 C   0  0  1  0  0  0  0  0  0  0  0  0
  -25.2412  -18.7054   19.6886 C   0  0  2  0  0  0  0  0  0  0  0  0
  -29.7100  -29.2328   25.8727 C   0  0  0  0  0  0  0  0  0  0  0  0
  -29.4795  -24.2636   21.7146 C   0  0  0  0  0  0  0  0  0  0  0  0
  -29.7305  -25.1079   24.0582 C   0  0  0  0  0  0  0  0  0  0  0  0
  -31.0183  -26.1727   22.2060 C   0  0  0  0  0  0  0  0  0  0  0  0
  -26.0294  -29.8704   25.1496 C   0  0  0  0  0  0  0  0  0  0  0  0
  -28.5273  -26.5715   22.3726 C   0  0  1  0  0  0  0  0  0  0  0  0
  -28.4544  -29.2871   25.0163 C   0  0  2  0  0  0  0  0  0  0  0  0
  -29.6636  -25.5297   22.5748 C   0  0  0  0  0  0  0  0  0  0  0  0
  -25.2630  -16.2713   20.0838 N   0  0  0  0  0  0  0  0  0  0  0  0
  -24.5753  -17.3425   19.6529 N   0  0  0  0  0  0  0  0  0  0  0  0
  -19.6757  -26.6304   23.2913 N   0  0  0  0  0  0  0  0  0  0  0  0
  -27.1101  -27.3756   20.5101 N   0  0  0  0  0  0  0  0  0  0  0  0
  -25.6078  -20.7710   20.9805 N   0  0  0  0  0  0  0  0  0  0  0  0
  -22.4874  -18.0110   18.7561 N   0  0  0  0  0  0  0  0  0  0  0  0
  -22.0141  -13.5509   19.2852 N   0  0  0  0  0  0  0  0  0  0  0  0
  -23.5828  -21.9590   21.2048 N   0  0  0  0  0  0  0  0  0  0  0  0
  -27.1710  -25.7639   17.5490 N   0  0  0  0  0  0  0  0  0  0  0  0
  -28.6899  -27.7924   23.1544 N   0  0  0  0  0  0  0  0  0  0  0  0
  -19.8819  -25.3693   25.2209 N   0  3  0  0  0  0  0  0  0  0  0  0
  -27.3232  -29.7489   25.8696 N   0  3  0  0  0  0  0  0  0  0  0  0
  -18.8364  -30.3297   21.8126 O   0  0  0  0  0  0  0  0  0  0  0  0
  -20.9694  -15.4621   18.5677 O   0  0  0  0  0  0  0  0  0  0  0  0
  -25.2805  -25.8819   18.9035 O   0  0  0  0  0  0  0  0  0  0  0  0
  -29.3958  -27.0247   20.2123 O   0  0  0  0  0  0  0  0  0  0  0  0
  -27.4750  -27.0786   24.9961 O   0  0  0  0  0  0  0  0  0  0  0  0
  -25.6093  -23.0808   21.0755 O   0  0  0  0  0  0  0  0  0  0  0  0
  -25.8504  -10.0468   21.2930 O   0  0  0  0  0  0  0  0  0  0  0  0
  -21.3402  -28.8512   22.1177 O   0  0  0  0  0  0  0  0  0  1  0  0
  -21.8268   -6.3016   21.7273 F   0  0  0  0  0  0  0  0  0  0  0  0
  -19.1904  -23.3253   22.5734 F   0  0  0  0  0  0  0  0  0  0  0  0
  -25.4006   -8.7181   23.6752 F   0  0  0  0  0  0  0  0  0  0  0  0
  1  2  1  0  0  0  0
  1  6  2  0  0  0  0
  2  7  2  0  0  0  0
  3 10  2  0  0  0  0
  3 18  1  0  0  0  0
  4 11  1  0  0  0  0
  4 18  2  0  0  0  0
  5  9  2  0  0  0  0
  5 19  1  0  0  0  0
  6 21  1  0  0  0  0
  7 23  1  0  0  0  0
  8 12  2  0  0  0  0
  8 22  1  0  0  0  0
  9 25  1  0  0  0  0
 10 26  1  0  0  0  0
 11 26  2  0  0  0  0
 12 27  1  0  0  0  0
 13 14  2  0  0  0  0
 13 28  1  0  0  0  0
 14 29  1  0  0  0  0
 15 24  1  0  0  0  0
 15 27  2  0  0  0  0
 16 25  2  0  0  0  0
 16 30  1  0  0  0  0
 17 29  2  0  0  0  0
 17 31  1  0  0  0  0
 18 32  1  0  0  0  0
 19 30  2  0  0  0  0
 19 35  1  0  0  0  0
 20 32  1  0  0  0  0
 20 33  2  0  0  0  0
 20 36  1  0  0  0  0
 21 23  2  0  0  0  0
 21 41  1  0  0  0  0
 22 24  2  0  0  0  0
 22 42  1  0  0  0  0
 23 53  1  0  0  0  0
 24 43  1  0  0  0  0
 25 72  1  0  0  0  0
 26 83  1  0  0  0  0
 27 84  1  0  0  0  0
 28 31  2  0  0  0  0
 28 83  1  0  0  0  0
 29 85  1  0  0  0  0
 30 86  1  0  0  0  0
 31 87  1  0  0  0  0
 32 65  2  0  0  0  0
 33 66  1  0  0  0  0
 33 70  1  0  0  0  0
 34 44  1  0  0  0  0
 34 54  1  0  0  0  0
 34 77  2  0  0  0  0
 35 67  1  0  0  0  0
 35 75  2  0  0  0  0
 36 71  1  0  0  0  0
 36 78  2  0  0  0  0
 37 55  1  0  0  0  0
 37 73  1  0  0  0  0
 37 79  2  0  0  0  0
 38 62  1  0  0  0  0
 38 68  1  0  0  0  0
 38 80  2  0  0  0  0
 39 63  1  0  0  0  0
 39 74  1  0  0  0  0
 39 81  2  0  0  0  0
 40 69  1  0  0  0  0
 40 72  1  0  0  0  0
 40 82  2  0  0  0  0
 41 45  1  0  0  0  0
 42 55  1  0  0  0  0
 43 68  1  0  0  0  0
 44 49  1  0  0  0  0
 45 47  1  0  0  0  0
 46 48  1  0  0  0  0
 46 50  1  0  0  0  0
 47 53  1  0  0  0  0
 48 56  1  0  0  0  0
 49 67  1  0  0  0  0
 50 69  1  0  0  0  0
 51 54  1  0  0  0  0
 51 67  1  0  0  0  0
 52 56  1  0  0  0  0
 52 69  1  0  0  0  0
 53 73  1  0  0  0  0
 54 84  1  0  0  0  0
 55 68  1  0  0  0  0
 56 66  1  0  0  0  0
 57 63  1  0  0  0  0
 58 64  1  0  0  0  0
 59 64  1  0  0  0  0
 60 64  1  0  0  0  0
 61 76  1  0  0  0  0
 62 64  1  0  0  0  0
 62 74  1  0  0  0  0
 63 76  1  0  0  0  0
 65 66  1  0  0  0  0
M  CHG  2  75   1  76   1
M  ISO  4  40 100  54 101  72 100  84 101
M  END
> <Batch ID>
0094

> <Smiles>
CNC(C)C(=O)NC(C(=O)N1Cc2cc([101O:1][101CH:1]3CN(C(=N)c4ccc([100NH:0][100C:0](=O)N5CCCC(n6nc(-c7ccc(Oc8ccc(F)cc8F)cc7)c(C(N)=O)c6N)C5)cc4F)CCC3=O)ccc2CC1C(=O)NC1CCCc2ccccc21)C(C)(C)C

> <Shape>
0.212

> <Color>
0.069

> <Negative vol penalty>
0.000

$$$$

  -OEChem-04052300403D

 84 92  0     1  0  0  0  0  0999 V2000
  -28.6897  -36.8742   19.0988 C   0  0  0  0  0  0  0  0  0  0  0  0
  -29.0066  -35.5222   19.0137 C   0  0  0  0  0  0  0  0  0  0  0  0
  -24.4977   -9.2878   21.5739 C   0  0  0  0  0  0  0  0  0  0  0  0
  -23.7486  -10.8725   23.2366 C   0  0  0  0  0  0  0  0  0  0  0  0
  -31.2165  -22.5776   20.4895 C   0  0  0  0  0  0  0  0  0  0  0  0
  -27.8221  -37.3243   20.0930 C   0  0  0  0  0  0  0  0  0  0  0  0
  -28.4570  -34.6198   19.9235 C   0  0  0  0  0  0  0  0  0  0  0  0
  -26.8267  -28.8192   18.8274 C   0  0  0  0  0  0  0  0  0  0  0  0
  -30.6752  -23.8015   20.0963 C   0  0  0  0  0  0  0  0  0  0  0  0
  -24.1693   -8.2356   22.4286 C   0  0  0  0  0  0  0  0  0  0  0  0
  -23.4200   -9.8203   24.0913 C   0  0  0  0  0  0  0  0  0  0  0  0
  -27.4684  -27.6041   19.0627 C   0  0  0  0  0  0  0  0  0  0  0  0
  -21.3785   -6.5879   23.3927 C   0  0  0  0  0  0  0  0  0  0  0  0
  -20.6904   -5.5026   22.8502 C   0  0  0  0  0  0  0  0  0  0  0  0
  -29.0100  -21.5940   20.4657 C   0  0  0  0  0  0  0  0  0  0  0  0
  -26.2465  -27.3658   21.1290 C   0  0  0  0  0  0  0  0  0  0  0  0
  -22.5011   -4.0357   23.4879 C   0  0  0  0  0  0  0  0  0  0  0  0
  -24.2874  -10.6063   21.9778 C   0  0  0  0  0  0  0  0  0  0  0  0
  -30.3839  -21.4738   20.6741 C   0  0  0  0  0  0  0  0  0  0  0  0
  -23.7941  -12.3039   20.1388 C   0  0  0  0  0  0  0  0  0  0  0  0
  -27.2539  -36.4255   21.0095 C   0  0  0  0  0  0  0  0  0  0  0  0
  -25.8965  -29.3229   19.7480 C   0  0  0  0  0  0  0  0  0  0  0  0
  -27.5820  -35.0585   20.9318 C   0  0  0  0  0  0  0  0  0  0  0  0
  -25.5925  -28.5863   20.9018 C   0  0  0  0  0  0  0  0  0  0  0  0
  -29.3013  -23.9217   19.8879 C   0  0  0  0  0  0  0  0  0  0  0  0
  -28.4686  -22.8180   20.0726 C   0  0  0  0  0  0  0  0  0  0  0  0
  -23.6304   -8.5019   23.6873 C   0  0  0  0  0  0  0  0  0  0  0  0
  -27.1805  -26.8785   20.2150 C   0  0  0  0  0  0  0  0  0  0  0  0
  -22.6280   -6.3971   23.9827 C   0  0  0  0  0  0  0  0  0  0  0  0
  -21.2517   -4.2265   22.8978 C   0  0  0  0  0  0  0  0  0  0  0  0
  -23.1892   -5.1210   24.0304 C   0  0  0  0  0  0  0  0  0  0  0  0
  -24.6271  -11.6936   21.0955 C   0  0  0  0  0  0  0  0  0  0  0  0
  -24.5803  -13.2751   19.5686 C   0  0  0  0  0  0  0  0  0  0  0  0
  -30.9485  -20.1979   21.0845 C   0  0  0  0  0  0  0  0  0  0  0  0
  -22.4314  -12.0186   19.7961 C   0  0  0  0  0  0  0  0  0  0  0  0
  -25.7172  -31.9305   21.5569 C   0  0  0  0  0  0  0  0  0  0  0  0
  -30.7410  -18.1777   22.2355 C   0  0  0  0  0  0  0  0  0  0  0  0
  -29.2873  -16.2135   21.6866 C   0  0  0  0  0  0  0  0  0  0  0  0
  -22.7598  -30.7832   22.2352 C   0  0  0  0  0  0  0  0  0  0  0  0
  -20.6670  -28.0936   22.4165 C   0  0  0  0  0  0  0  0  0  0  0  0
  -26.3584  -36.9659   22.0962 C   0  0  0  0  0  0  0  0  0  0  0  0
  -25.1932  -30.6223   19.4664 C   0  0  0  0  0  0  0  0  0  0  0  0
  -24.5867  -29.0734   21.9115 C   0  0  0  0  0  0  0  0  0  0  0  0
  -25.5247  -35.8911   22.7890 C   0  0  0  0  0  0  0  0  0  0  0  0
  -29.1387  -14.3157   18.5877 C   0  0  0  0  0  0  0  0  0  0  0  0
  -26.3929  -34.6883   23.1442 C   0  0  0  0  0  0  0  0  0  0  0  0
  -27.8933  -13.4594   18.8131 C   0  0  0  0  0  0  0  0  0  0  0  0
  -29.9130  -14.5327   19.8851 C   0  0  0  0  0  0  0  0  0  0  0  0
  -27.8438  -14.2602   21.2150 C   0  0  0  0  0  0  0  0  0  0  0  0
  -26.9865  -34.0452   21.8850 C   0  0  1  0  0  0  0  0  0  0  0  0
  -24.6438  -31.2890   20.7238 C   0  0  1  0  0  0  0  0  0  0  0  0
  -27.0181  -14.0431   19.9360 C   0  0  2  0  0  0  0  0  0  0  0  0
  -32.3804  -19.8457   20.6643 C   0  0  0  0  0  0  0  0  0  0  0  0
  -18.3197  -27.4626   23.0408 C   0  0  0  0  0  0  0  0  0  0  0  0
  -23.4895  -31.0018   25.1899 C   0  0  0  0  0  0  0  0  0  0  0  0
  -21.5477  -29.5088   25.7082 C   0  0  0  0  0  0  0  0  0  0  0  0
  -21.1614  -31.7267   24.6338 C   0  0  0  0  0  0  0  0  0  0  0  0
  -20.0772  -27.1236   19.6833 C   0  0  0  0  0  0  0  0  0  0  0  0
  -28.7459  -25.2511   19.4687 C   0  0  0  0  0  0  0  0  0  1  0  0
  -30.5598  -16.9604   21.3758 C   0  0  0  0  0  0  0  0  0  0  0  0
  -22.1867  -29.8548   23.2786 C   0  0  1  0  0  0  0  0  0  0  0  0
  -19.2499  -27.8843   21.9140 C   0  0  2  0  0  0  0  0  0  0  0  0
  -22.1167  -30.5145   24.6847 C   0  0  0  0  0  0  0  0  0  0  0  0
  -25.8489  -12.2318   21.1338 N   0  0  0  0  0  0  0  0  0  0  0  0
  -30.2306  -19.3739   21.8211 N   0  0  0  0  0  0  0  0  0  0  0  0
  -25.7895  -13.1905   20.1939 N   0  0  0  0  0  0  0  0  0  0  0  0
  -23.9301  -30.3525   21.5944 N   0  0  0  0  0  0  0  0  0  0  0  0
  -29.0379  -15.0635   20.9373 N   0  0  0  0  0  0  0  0  0  0  0  0
  -27.0750  -22.9223   19.8682 N   0  0  0  0  0  0  0  0  0  0  0  0
  -24.3485  -14.1846   18.5983 N   0  0  0  0  0  0  0  0  0  0  0  0
  -21.7722  -10.9881   20.4802 N   0  0  0  0  0  0  0  0  0  0  0  0
  -25.9903  -33.2402   21.2112 N   0  0  0  0  0  0  0  0  0  0  0  0
  -20.8969  -29.4082   22.7633 N   0  0  0  0  0  0  0  0  0  0  0  0
  -31.3010  -18.0103   23.3772 N   0  3  0  0  0  0  0  0  0  0  0  0
  -19.2238  -26.8281   20.8629 N   0  3  0  0  0  0  0  0  0  0  0  0
  -21.8218  -12.6475   18.8982 O   0  0  0  0  0  0  0  0  0  0  0  0
  -26.2565  -31.2854   22.4483 O   0  0  0  0  0  0  0  0  0  0  0  0
  -28.5373  -16.6424   22.5673 O   0  0  0  0  0  0  0  0  0  0  0  0
  -22.1862  -31.8479   21.9926 O   0  0  0  0  0  0  0  0  0  0  0  0
  -21.4867  -27.1814   22.4972 O   0  0  0  0  0  0  0  0  0  0  0  0
  -23.3095   -7.4754   24.5216 O   0  0  0  0  0  0  0  0  0  0  0  0
  -27.8060  -25.6925   20.4475 O   0  0  0  0  0  0  0  0  0  1  0  0
  -20.5901   -3.1842   22.3782 F   0  0  0  0  0  0  0  0  0  0  0  0
  -24.3887   -4.9313   24.5971 F   0  0  0  0  0  0  0  0  0  0  0  0
  1  2  1  0  0  0  0
  1  6  2  0  0  0  0
  2  7  2  0  0  0  0
  3 10  2  0  0  0  0
  3 18  1  0  0  0  0
  4 11  1  0  0  0  0
  4 18  2  0  0  0  0
  5  9  2  0  0  0  0
  5 19  1  0  0  0  0
  6 21  1  0  0  0  0
  7 23  1  0  0  0  0
  8 12  2  0  0  0  0
  8 22  1  0  0  0  0
  9 25  1  0  0  0  0
 10 27  1  0  0  0  0
 11 27  2  0  0  0  0
 12 28  1  0  0  0  0
 13 14  2  0  0  0  0
 13 29  1  0  0  0  0
 14 30  1  0  0  0  0
 15 19  2  0  0  0  0
 15 26  1  0  0  0  0
 16 24  1  0  0  0  0
 16 28  2  0  0  0  0
 17 30  2  0  0  0  0
 17 31  1  0  0  0  0
 18 32  1  0  0  0  0
 19 34  1  0  0  0  0
 20 32  1  0  0  0  0
 20 33  2  0  0  0  0
 20 35  1  0  0  0  0
 21 23  2  0  0  0  0
 21 41  1  0  0  0  0
 22 24  2  0  0  0  0
 22 42  1  0  0  0  0
 23 50  1  0  0  0  0
 24 43  1  0  0  0  0
 25 26  2  0  0  0  0
 25 59  1  0  0  0  0
 26 69  1  0  0  0  0
 27 81  1  0  0  0  0
 28 82  1  0  0  0  0
 29 31  2  0  0  0  0
 29 81  1  0  0  0  0
 30 83  1  0  0  0  0
 31 84  1  0  0  0  0
 32 64  2  0  0  0  0
 33 66  1  0  0  0  0
 33 70  1  0  0  0  0
 34 53  1  0  0  0  0
 34 65  2  0  0  0  0
 35 71  1  0  0  0  0
 35 76  2  0  0  0  0
 36 51  1  0  0  0  0
 36 72  1  0  0  0  0
 36 77  2  0  0  0  0
 37 60  1  0  0  0  0
 37 65  1  0  0  0  0
 37 74  2  0  0  0  0
 38 60  1  0  0  0  0
 38 68  1  0  0  0  0
 38 78  2  0  0  0  0
 39 61  1  0  0  0  0
 39 67  1  0  0  0  0
 39 79  2  0  0  0  0
 40 62  1  0  0  0  0
 40 73  1  0  0  0  0
 40 80  2  0  0  0  0
 41 44  1  0  0  0  0
 42 51  1  0  0  0  0
 43 67  1  0  0  0  0
 44 46  1  0  0  0  0
 45 47  1  0  0  0  0
 45 48  1  0  0  0  0
 46 50  1  0  0  0  0
 47 52  1  0  0  0  0
 48 68  1  0  0  0  0
 49 52  1  0  0  0  0
 49 68  1  0  0  0  0
 50 72  1  0  0  0  0
 51 67  1  0  0  0  0
 52 66  1  0  0  0  0
 54 62  1  0  0  0  0
 55 63  1  0  0  0  0
 56 63  1  0  0  0  0
 57 63  1  0  0  0  0
 58 75  1  0  0  0  0
 59 82  1  0  0  0  0
 61 63  1  0  0  0  0
 61 73  1  0  0  0  0
 62 75  1  0  0  0  0
 64 66  1  0  0  0  0
M  CHG  2  74   1  75   1
M  ISO  4  38 100  59 101  60 100  82 101
M  END
> <Batch ID>
0094

> <Smiles>
CNC(C)C(=O)NC(C(=O)N1Cc2cc([101O:1][101CH2:1]c3ccc(C(C)=NC(=N)[100CH2:0][100C:0](=O)N4CCCC(n5nc(-c6ccc(Oc7ccc(F)cc7F)cc6)c(C(N)=O)c5N)C4)cc3N)ccc2CC1C(=O)NC1CCCc2ccccc21)C(C)(C)C

> <Shape>
0.316

> <Color>
0.091

> <Negative vol penalty>
0.000

$$$$

  -OEChem-04052300403D

 87 96  0     1  0  0  0  0  0999 V2000
  -27.7437  -32.7790   27.1657 C   0  0  0  0  0  0  0  0  0  0  0  0
  -27.9348  -31.6880   26.3240 C   0  0  0  0  0  0  0  0  0  0  0  0
  -23.7407  -19.8268   16.8570 C   0  0  0  0  0  0  0  0  0  0  0  0
  -22.5108  -19.4749   18.9065 C   0  0  0  0  0  0  0  0  0  0  0  0
  -26.4515  -33.2044   27.4712 C   0  0  0  0  0  0  0  0  0  0  0  0
  -26.8337  -31.0209   25.7881 C   0  0  0  0  0  0  0  0  0  0  0  0
  -27.3840  -30.0139   20.8557 C   0  0  0  0  0  0  0  0  0  0  0  0
  -22.6415  -19.3842   16.1212 C   0  0  0  0  0  0  0  0  0  0  0  0
  -21.4115  -19.0324   18.1707 C   0  0  0  0  0  0  0  0  0  0  0  0
  -28.1960  -28.9336   20.5132 C   0  0  0  0  0  0  0  0  0  0  0  0
  -21.2268  -16.4289   15.2913 C   0  0  0  0  0  0  0  0  0  0  0  0
  -21.4635  -15.5313   14.2502 C   0  0  0  0  0  0  0  0  0  0  0  0
  -26.2336  -27.5672   20.1949 C   0  0  0  0  0  0  0  0  0  0  0  0
  -29.7976  -21.1737   17.1920 C   0  0  0  0  0  0  0  0  0  0  0  0
  -30.8112  -21.6615   19.3301 C   0  0  0  0  0  0  0  0  0  0  0  0
  -20.5219  -17.1060   12.6784 C   0  0  0  0  0  0  0  0  0  0  0  0
  -23.6754  -19.8721   18.2496 C   0  0  0  0  0  0  0  0  0  0  0  0
  -25.0930  -21.6496   19.4065 C   0  0  0  0  0  0  0  0  0  0  0  0
  -25.3342  -32.5482   26.9311 C   0  0  0  0  0  0  0  0  0  0  0  0
  -25.9887  -29.8757   20.8811 C   0  0  0  0  0  0  0  0  0  0  0  0
  -25.5254  -31.4371   26.0877 C   0  0  0  0  0  0  0  0  0  0  0  0
  -25.4060  -28.6480   20.5357 C   0  0  0  0  0  0  0  0  0  0  0  0
  -30.0978  -19.8217   17.3580 C   0  0  0  0  0  0  0  0  0  0  0  0
  -30.1543  -22.0936   18.1780 C   0  0  0  0  0  0  0  0  0  0  0  0
  -31.1114  -20.3094   19.4963 C   0  0  0  0  0  0  0  0  0  0  0  0
  -30.7547  -19.3896   18.5102 C   0  0  0  0  0  0  0  0  0  0  0  0
  -21.4768  -18.9870   16.7781 C   0  0  0  0  0  0  0  0  0  0  0  0
  -27.6210  -27.7093   20.1855 C   0  0  0  0  0  0  0  0  0  0  0  0
  -20.6375  -17.6650   15.0259 C   0  0  0  0  0  0  0  0  0  0  0  0
  -21.1111  -15.8698   12.9437 C   0  0  0  0  0  0  0  0  0  0  0  0
  -20.2851  -18.0036   13.7195 C   0  0  0  0  0  0  0  0  0  0  0  0
  -24.8109  -20.3286   19.0102 C   0  0  0  0  0  0  0  0  0  0  0  0
  -26.2746  -21.5550   20.1004 C   0  0  0  0  0  0  0  0  0  0  0  0
  -29.1970  -24.0632   16.9068 C   0  0  0  0  0  0  0  0  0  0  0  0
  -24.3531  -22.8545   19.1689 C   0  0  0  0  0  0  0  0  0  0  0  0
  -23.7501  -30.1274   23.1236 C   0  0  0  0  0  0  0  0  0  0  0  0
  -21.7386  -29.7311   20.6098 C   0  0  0  0  0  0  0  0  0  0  0  0
  -21.2543  -28.5491   17.4452 C   0  0  0  0  0  0  0  0  0  0  0  0
  -30.5772  -17.2148   19.7472 C   0  0  0  0  0  0  0  0  0  0  0  0
  -23.9561  -33.0152   27.3279 C   0  0  0  0  0  0  0  0  0  0  0  0
  -25.1257  -31.0581   21.2268 C   0  0  0  0  0  0  0  0  0  0  0  0
  -23.9125  -28.4533   20.5280 C   0  0  0  0  0  0  0  0  0  0  0  0
  -29.0104  -25.5300   17.2210 C   0  0  0  0  0  0  0  0  0  0  0  0
  -22.8489  -32.4862   26.4199 C   0  0  0  0  0  0  0  0  0  0  0  0
  -28.8571  -18.5278   22.7489 C   0  0  0  0  0  0  0  0  0  0  0  0
  -23.0275  -30.9912   26.1755 C   0  0  0  0  0  0  0  0  0  0  0  0
  -27.6041  -19.1776   22.1649 C   0  0  0  0  0  0  0  0  0  0  0  0
  -29.3470  -17.3674   21.8881 C   0  0  0  0  0  0  0  0  0  0  0  0
  -30.1277  -24.4613   19.0368 C   0  0  0  0  0  0  0  0  0  0  0  0
  -28.3291  -18.3941   19.8754 C   0  0  0  0  0  0  0  0  0  0  0  0
  -24.3567  -30.7030   25.4670 C   0  0  1  0  0  0  0  0  0  0  0  0
  -23.7373  -30.6609   21.7190 C   0  0  1  0  0  0  0  0  0  0  0  0
  -30.0386  -25.7952   18.3115 C   0  0  2  0  0  0  0  0  0  0  0  0
  -27.8390  -19.5918   20.7029 C   0  0  1  0  0  0  0  0  0  0  0  0
  -29.7022  -18.8603   16.2843 C   0  0  0  0  0  0  0  0  0  0  0  0
  -19.4940  -28.3376   15.6692 C   0  0  0  0  0  0  0  0  0  0  0  0
  -20.4518  -27.4407   22.1614 C   0  0  0  0  0  0  0  0  0  0  0  0
  -19.3905  -26.6818   20.0246 C   0  0  0  0  0  0  0  0  0  0  0  0
  -18.8360  -28.9258   20.9623 C   0  0  0  0  0  0  0  0  0  0  0  0
  -32.1277  -17.4212   17.8538 C   0  0  0  0  0  0  0  0  0  0  0  0
  -22.8180  -30.1842   15.5372 C   0  0  0  0  0  0  0  0  0  0  0  0
  -29.6589  -26.9480   19.2246 C   0  0  0  0  0  0  0  0  0  1  0  0
  -21.1083  -28.5445   19.9217 C   0  0  1  0  0  0  0  0  0  0  0  0
  -20.6313  -29.1863   16.2162 C   0  0  2  0  0  0  0  0  0  0  0  0
  -19.9749  -27.9010   20.7694 C   0  0  0  0  0  0  0  0  0  0  0  0
  -25.7386  -19.4586   19.4181 N   0  0  0  0  0  0  0  0  0  0  0  0
  -26.6153  -20.2345   20.0780 N   0  0  0  0  0  0  0  0  0  0  0  0
  -29.8495  -23.4772   18.0076 N   0  0  0  0  0  0  0  0  0  0  0  0
  -23.1114  -29.6375   20.8793 N   0  0  0  0  0  0  0  0  0  0  0  0
  -29.5086  -17.7608   20.4875 N   0  0  0  0  0  0  0  0  0  0  0  0
  -31.7776  -19.8950   20.6719 N   0  0  0  0  0  0  0  0  0  0  0  0
  -27.0450  -22.4733   20.7212 N   0  0  0  0  0  0  0  0  0  0  0  0
  -23.1600  -22.7727   18.4380 N   0  0  0  0  0  0  0  0  0  0  0  0
  -24.2552  -31.0124   24.0569 N   0  0  0  0  0  0  0  0  0  0  0  0
  -20.6793  -29.0144   18.6088 N   0  0  0  0  0  0  0  0  0  0  0  0
  -31.0636  -17.9905   18.6777 N   0  0  0  0  0  0  0  0  0  0  0  0
  -21.6529  -29.3508   15.1437 N   0  3  0  0  0  0  0  0  0  0  0  0
  -28.7706  -23.5528   15.8809 O   0  0  0  0  0  0  0  0  0  0  0  0
  -24.7470  -23.9730   19.5780 O   0  0  0  0  0  0  0  0  0  0  0  0
  -23.3312  -28.9972   23.3445 O   0  0  0  0  0  0  0  0  0  0  0  0
  -21.0403  -30.7082   20.8912 O   0  0  0  0  0  0  0  0  0  0  0  0
  -22.1580  -27.7186   17.3793 O   0  0  0  0  0  0  0  0  0  0  0  0
  -31.0311  -16.0890   19.9864 O   0  0  0  0  0  0  0  0  0  0  0  0
  -20.4038  -18.5554   16.0605 O   0  0  0  0  0  0  0  0  0  0  0  0
  -28.4113  -26.6530   19.8514 O   0  0  0  0  0  0  0  0  0  1  0  0
  -21.3399  -15.0084   11.9439 F   0  0  0  0  0  0  0  0  0  0  0  0
  -19.7198  -19.1902   13.4582 F   0  0  0  0  0  0  0  0  0  0  0  0
  1  2  1  0  0  0  0
  1  5  2  0  0  0  0
  2  6  2  0  0  0  0
  3  8  2  0  0  0  0
  3 17  1  0  0  0  0
  4  9  1  0  0  0  0
  4 17  2  0  0  0  0
  5 19  1  0  0  0  0
  6 21  1  0  0  0  0
  7 10  2  0  0  0  0
  7 20  1  0  0  0  0
  8 27  1  0  0  0  0
  9 27  2  0  0  0  0
 10 28  1  0  0  0  0
 11 12  2  0  0  0  0
 11 29  1  0  0  0  0
 12 30  1  0  0  0  0
 13 22  1  0  0  0  0
 13 28  2  0  0  0  0
 14 23  2  0  0  0  0
 14 24  1  0  0  0  0
 15 24  2  0  0  0  0
 15 25  1  0  0  0  0
 16 30  2  0  0  0  0
 16 31  1  0  0  0  0
 17 32  1  0  0  0  0
 18 32  1  0  0  0  0
 18 33  2  0  0  0  0
 18 35  1  0  0  0  0
 19 21  2  0  0  0  0
 19 40  1  0  0  0  0
 20 22  2  0  0  0  0
 20 41  1  0  0  0  0
 21 51  1  0  0  0  0
 22 42  1  0  0  0  0
 23 26  1  0  0  0  0
 23 55  1  0  0  0  0
 24 68  1  0  0  0  0
 25 26  2  0  0  0  0
 25 71  1  0  0  0  0
 26 76  1  0  0  0  0
 27 84  1  0  0  0  0
 28 85  1  0  0  0  0
 29 31  2  0  0  0  0
 29 84  1  0  0  0  0
 30 86  1  0  0  0  0
 31 87  1  0  0  0  0
 32 66  2  0  0  0  0
 33 67  1  0  0  0  0
 33 72  1  0  0  0  0
 34 43  1  0  0  0  0
 34 68  1  0  0  0  0
 34 78  2  0  0  0  0
 35 73  1  0  0  0  0
 35 79  2  0  0  0  0
 36 52  1  0  0  0  0
 36 74  1  0  0  0  0
 36 80  2  0  0  0  0
 37 63  1  0  0  0  0
 37 69  1  0  0  0  0
 37 81  2  0  0  0  0
 38 64  1  0  0  0  0
 38 75  1  0  0  0  0
 38 82  2  0  0  0  0
 39 70  1  0  0  0  0
 39 76  1  0  0  0  0
 39 83  2  0  0  0  0
 40 44  1  0  0  0  0
 41 52  1  0  0  0  0
 42 69  1  0  0  0  0
 43 53  1  0  0  0  0
 44 46  1  0  0  0  0
 45 47  1  0  0  0  0
 45 48  1  0  0  0  0
 46 51  1  0  0  0  0
 47 54  1  0  0  0  0
 48 70  1  0  0  0  0
 49 53  1  0  0  0  0
 49 68  1  0  0  0  0
 50 54  1  0  0  0  0
 50 70  1  0  0  0  0
 51 74  1  0  0  0  0
 52 69  1  0  0  0  0
 53 62  1  0  0  0  0
 54 67  1  0  0  0  0
 56 64  1  0  0  0  0
 57 65  1  0  0  0  0
 58 65  1  0  0  0  0
 59 65  1  0  0  0  0
 60 76  1  0  0  0  0
 61 77  1  0  0  0  0
 62 85  1  0  0  0  0
 63 65  1  0  0  0  0
 63 75  1  0  0  0  0
 64 77  1  0  0  0  0
 66 67  1  0  0  0  0
M  CHG  1  77   1
M  ISO  4  39 100  62 101  76 100  85 101
M  END
> <Batch ID>
0094

> <Smiles>
CNC(C)C(=O)NC(C(=O)N1Cc2cc([101O:1][101CH2:1]C3CC(=O)N(c4cc(C)c([100N:0](C)[100C:0](=O)N5CCCC(n6nc(-c7ccc(Oc8ccc(F)cc8F)cc7)c(C(N)=O)c6N)C5)c(N)c4)C3)ccc2CC1C(=O)NC1CCCc2ccccc21)C(C)(C)C

> <Shape>
0.217

> <Color>
0.060

> <Negative vol penalty>
0.000

$$$$

  -OEChem-04052300403D

 85 93  0     1  0  0  0  0  0999 V2000
  -28.3371  -35.2561   24.3313 C   0  0  0  0  0  0  0  0  0  0  0  0
  -28.5172  -33.9197   23.9894 C   0  0  0  0  0  0  0  0  0  0  0  0
  -23.6222  -12.6309   23.4946 C   0  0  0  0  0  0  0  0  0  0  0  0
  -22.7022  -14.1339   21.8419 C   0  0  0  0  0  0  0  0  0  0  0  0
  -27.0791  -35.7104   24.7249 C   0  0  0  0  0  0  0  0  0  0  0  0
  -27.4395  -33.0364   24.0420 C   0  0  0  0  0  0  0  0  0  0  0  0
  -27.1858  -30.0366   19.9699 C   0  0  0  0  0  0  0  0  0  0  0  0
  -27.9759  -19.0454   17.5366 C   0  0  0  0  0  0  0  0  0  0  0  0
  -28.1310  -20.3613   17.9722 C   0  0  0  0  0  0  0  0  0  0  0  0
  -22.7318  -13.1306   24.4448 C   0  0  0  0  0  0  0  0  0  0  0  0
  -21.8116  -14.6336   22.7921 C   0  0  0  0  0  0  0  0  0  0  0  0
  -28.0620  -28.9532   19.9216 C   0  0  0  0  0  0  0  0  0  0  0  0
  -19.4711  -12.7408   25.2506 C   0  0  0  0  0  0  0  0  0  0  0  0
  -18.8042  -11.8216   26.0605 C   0  0  0  0  0  0  0  0  0  0  0  0
  -26.2862  -27.4922   20.6503 C   0  0  0  0  0  0  0  0  0  0  0  0
  -30.2441  -19.0534   16.7046 C   0  0  0  0  0  0  0  0  0  0  0  0
  -19.7873  -12.8354   28.0208 C   0  0  0  0  0  0  0  0  0  0  0  0
  -23.6075  -13.1326   22.1932 C   0  0  0  0  0  0  0  0  0  0  0  0
  -24.3202  -11.5317   20.3393 C   0  0  0  0  0  0  0  0  0  0  0  0
  -25.9832  -34.8343   24.7730 C   0  0  0  0  0  0  0  0  0  0  0  0
  -25.8537  -29.8574   20.3700 C   0  0  0  0  0  0  0  0  0  0  0  0
  -26.1659  -33.4791   24.4379 C   0  0  0  0  0  0  0  0  0  0  0  0
  -25.3944  -28.5745   20.7004 C   0  0  0  0  0  0  0  0  0  0  0  0
  -29.0325  -18.3914   16.9028 C   0  0  0  0  0  0  0  0  0  0  0  0
  -29.3426  -21.0234   17.7740 C   0  0  0  0  0  0  0  0  0  0  0  0
  -30.3992  -20.3694   17.1402 C   0  0  0  0  0  0  0  0  0  0  0  0
  -21.8264  -14.1319   24.0936 C   0  0  0  0  0  0  0  0  0  0  0  0
  -27.6130  -27.6813   20.2646 C   0  0  0  0  0  0  0  0  0  0  0  0
  -20.2963  -13.7073   25.8258 C   0  0  0  0  0  0  0  0  0  0  0  0
  -18.9622  -11.8689   27.4455 C   0  0  0  0  0  0  0  0  0  0  0  0
  -20.4543  -13.7546   27.2109 C   0  0  0  0  0  0  0  0  0  0  0  0
  -24.5275  -12.6173   21.2113 C   0  0  0  0  0  0  0  0  0  0  0  0
  -25.4833  -11.4472   19.6136 C   0  0  0  0  0  0  0  0  0  0  0  0
  -23.1783  -10.6764   20.1978 C   0  0  0  0  0  0  0  0  0  0  0  0
  -24.0652  -30.9422   22.7633 C   0  0  0  0  0  0  0  0  0  0  0  0
  -28.9111  -24.4561   19.2274 C   0  0  0  0  0  0  0  0  0  0  0  0
  -21.6917  -29.4114   21.1678 C   0  0  0  0  0  0  0  0  0  0  0  0
  -20.7902  -26.9640   18.9668 C   0  0  0  0  0  0  0  0  0  0  0  0
  -29.7058  -15.4493   18.1978 C   0  0  0  0  0  0  0  0  0  0  0  0
  -24.6530  -35.3612   25.2500 C   0  0  0  0  0  0  0  0  0  0  0  0
  -24.9142  -31.0318   20.3911 C   0  0  0  0  0  0  0  0  0  0  0  0
  -23.9685  -28.3256   21.1170 C   0  0  0  0  0  0  0  0  0  0  0  0
  -23.4798  -34.4425   24.9190 C   0  0  0  0  0  0  0  0  0  0  0  0
  -30.1673  -12.3710   19.9264 C   0  0  0  0  0  0  0  0  0  0  0  0
  -23.8170  -32.9974   25.2726 C   0  0  0  0  0  0  0  0  0  0  0  0
  -28.7555  -11.9871   20.3730 C   0  0  0  0  0  0  0  0  0  0  0  0
  -30.3882  -13.8807   19.9895 C   0  0  0  0  0  0  0  0  0  0  0  0
  -27.9759  -14.3001   19.7089 C   0  0  0  0  0  0  0  0  0  0  0  0
  -25.0158  -32.4957   24.4585 C   0  0  1  0  0  0  0  0  0  0  0  0
  -23.7132  -30.8197   21.3077 C   0  0  1  0  0  0  0  0  0  0  0  0
  -27.6873  -12.7925   19.6091 C   0  0  2  0  0  0  0  0  0  0  0  0
  -27.7440  -16.8268   15.4016 C   0  0  0  0  0  0  0  0  0  0  0  0
  -18.7740  -25.9284   17.8897 C   0  0  0  0  0  0  0  0  0  0  0  0
  -21.0546  -27.9512   23.7701 C   0  0  0  0  0  0  0  0  0  0  0  0
  -19.7266  -26.2997   22.4368 C   0  0  0  0  0  0  0  0  0  0  0  0
  -19.0497  -28.7003   22.4763 C   0  0  0  0  0  0  0  0  0  0  0  0
  -21.7212  -27.6931   16.2537 C   0  0  0  0  0  0  0  0  0  0  0  0
  -28.4270  -23.0647   18.8787 C   0  0  0  0  0  0  0  0  0  0  0  0
  -27.9011  -25.3449   19.9269 C   0  0  0  0  0  0  0  0  0  1  0  0
  -28.8667  -16.9842   16.4374 C   0  0  2  0  0  0  0  0  0  0  0  0
  -21.1158  -28.0161   21.1897 C   0  0  1  0  0  0  0  0  0  0  0  0
  -19.8636  -26.9820   17.7645 C   0  0  2  0  0  0  0  0  0  0  0  0
  -20.2641  -27.7465   22.4623 C   0  0  0  0  0  0  0  0  0  0  0  0
  -25.7280  -13.1817   21.0556 N   0  0  0  0  0  0  0  0  0  0  0  0
  -26.2855  -12.4480   20.0773 N   0  0  0  0  0  0  0  0  0  0  0  0
  -23.0900  -29.5069   21.1281 N   0  0  0  0  0  0  0  0  0  0  0  0
  -29.3425  -14.5857   19.2443 N   0  0  0  0  0  0  0  0  0  0  0  0
  -31.6349  -21.0210   16.9305 N   0  0  0  0  0  0  0  0  0  0  0  0
  -25.8879  -10.6151   18.6306 N   0  0  0  0  0  0  0  0  0  0  0  0
  -22.0679  -10.9023   21.0225 N   0  0  0  0  0  0  0  0  0  0  0  0
  -29.4755  -22.3317   18.2165 N   0  0  0  0  0  0  0  0  0  0  0  0
  -24.6080  -32.1647   23.1099 N   0  0  0  0  0  0  0  0  0  0  0  0
  -20.3854  -27.8562   19.9370 N   0  0  0  0  0  0  0  0  0  0  0  0
  -28.6530  -16.0726   17.5393 N   0  0  0  0  0  0  0  0  0  0  0  0
  -20.6314  -26.7178   16.5148 N   0  3  0  0  0  0  0  0  0  0  0  0
  -23.1499   -9.7291   19.3759 O   0  0  0  0  0  0  0  0  0  0  0  0
  -23.8581  -29.9980   23.5165 O   0  0  0  0  0  0  0  0  0  0  0  0
  -30.0467  -24.8506   18.9652 O   0  0  0  0  0  0  0  0  0  0  0  0
  -20.9289  -30.3807   21.1780 O   0  0  0  0  0  0  0  0  0  0  0  0
  -21.7726  -26.2290   19.0397 O   0  0  0  0  0  0  0  0  0  0  0  0
  -30.8811  -15.6458   17.8708 O   0  0  0  0  0  0  0  0  0  0  0  0
  -20.9571  -14.6196   25.0205 O   0  0  0  0  0  0  0  0  0  0  0  0
  -28.4663  -26.6222   20.2189 O   0  0  0  0  0  0  0  0  0  1  0  0
  -18.3204  -10.9872   28.2232 F   0  0  0  0  0  0  0  0  0  0  0  0
  -21.2447  -14.6815   27.7693 F   0  0  0  0  0  0  0  0  0  0  0  0
  1  2  1  0  0  0  0
  1  5  2  0  0  0  0
  2  6  2  0  0  0  0
  3 10  2  0  0  0  0
  3 18  1  0  0  0  0
  4 11  1  0  0  0  0
  4 18  2  0  0  0  0
  5 20  1  0  0  0  0
  6 22  1  0  0  0  0
  7 12  2  0  0  0  0
  7 21  1  0  0  0  0
  8  9  2  0  0  0  0
  8 24  1  0  0  0  0
  9 25  1  0  0  0  0
 10 27  1  0  0  0  0
 11 27  2  0  0  0  0
 12 28  1  0  0  0  0
 13 14  2  0  0  0  0
 13 29  1  0  0  0  0
 14 30  1  0  0  0  0
 15 23  1  0  0  0  0
 15 28  2  0  0  0  0
 16 24  2  0  0  0  0
 16 26  1  0  0  0  0
 17 30  2  0  0  0  0
 17 31  1  0  0  0  0
 18 32  1  0  0  0  0
 19 32  1  0  0  0  0
 19 33  2  0  0  0  0
 19 34  1  0  0  0  0
 20 22  2  0  0  0  0
 20 40  1  0  0  0  0
 21 23  2  0  0  0  0
 21 41  1  0  0  0  0
 22 49  1  0  0  0  0
 23 42  1  0  0  0  0
 24 60  1  0  0  0  0
 25 26  2  0  0  0  0
 25 71  1  0  0  0  0
 26 68  1  0  0  0  0
 27 82  1  0  0  0  0
 28 83  1  0  0  0  0
 29 31  2  0  0  0  0
 29 82  1  0  0  0  0
 30 84  1  0  0  0  0
 31 85  1  0  0  0  0
 32 64  2  0  0  0  0
 33 65  1  0  0  0  0
 33 69  1  0  0  0  0
 34 70  1  0  0  0  0
 34 76  2  0  0  0  0
 35 50  1  0  0  0  0
 35 72  1  0  0  0  0
 35 77  2  0  0  0  0
 36 58  1  0  0  0  0
 36 59  1  0  0  0  0
 36 78  2  0  0  0  0
 37 61  1  0  0  0  0
 37 66  1  0  0  0  0
 37 79  2  0  0  0  0
 38 62  1  0  0  0  0
 38 73  1  0  0  0  0
 38 80  2  0  0  0  0
 39 67  1  0  0  0  0
 39 74  1  0  0  0  0
 39 81  2  0  0  0  0
 40 43  1  0  0  0  0
 41 50  1  0  0  0  0
 42 66  1  0  0  0  0
 43 45  1  0  0  0  0
 44 46  1  0  0  0  0
 44 47  1  0  0  0  0
 45 49  1  0  0  0  0
 46 51  1  0  0  0  0
 47 67  1  0  0  0  0
 48 51  1  0  0  0  0
 48 67  1  0  0  0  0
 49 72  1  0  0  0  0
 50 66  1  0  0  0  0
 51 65  1  0  0  0  0
 52 60  1  0  0  0  0
 53 62  1  0  0  0  0
 54 63  1  0  0  0  0
 55 63  1  0  0  0  0
 56 63  1  0  0  0  0
 57 75  1  0  0  0  0
 58 71  1  0  0  0  0
 59 83  1  0  0  0  0
 60 74  1  0  0  0  0
 61 63  1  0  0  0  0
 61 73  1  0  0  0  0
 62 75  1  0  0  0  0
 64 65  1  0  0  0  0
M  CHG  1  75   1
M  ISO  4  39 100  59 101  74 100  83 101
M  END
> <Batch ID>
0094

> <Smiles>
CNC(C)C(=O)NC(C(=O)N1Cc2cc([101O:1][101CH2:1]C(=O)CNc3ccc(C(C)[100NH:0][100C:0](=O)N4CCCC(n5nc(-c6ccc(Oc7ccc(F)cc7F)cc6)c(C(N)=O)c5N)C4)cc3N)ccc2CC1C(=O)NC1CCCc2ccccc21)C(C)(C)C

> <Shape>
0.274

> <Color>
0.082

> <Negative vol penalty>
0.000

$$$$

  -OEChem-04052300403D

 88 97  0     1  0  0  0  0  0999 V2000
  -20.5057  -25.3421   25.3017 C   0  0  0  0  0  0  0  0  0  0  0  0
  -21.5719  -25.2480   24.4130 C   0  0  0  0  0  0  0  0  0  0  0  0
  -24.8915  -20.0923   19.6982 C   0  0  0  0  0  0  0  0  0  0  0  0
  -24.8233  -19.6242   22.0675 C   0  0  0  0  0  0  0  0  0  0  0  0
  -19.4623  -26.2306   25.0451 C   0  0  0  0  0  0  0  0  0  0  0  0
  -21.5948  -26.0415   23.2666 C   0  0  0  0  0  0  0  0  0  0  0  0
  -26.1264  -28.1507   22.4538 C   0  0  0  0  0  0  0  0  0  0  0  0
  -31.9839  -22.0728   16.7828 C   0  0  0  0  0  0  0  0  0  0  0  0
  -32.3239  -20.7208   16.7388 C   0  0  0  0  0  0  0  0  0  0  0  0
  -23.5790  -19.6378   19.5707 C   0  0  0  0  0  0  0  0  0  0  0  0
  -23.5108  -19.1697   21.9399 C   0  0  0  0  0  0  0  0  0  0  0  0
  -27.1170  -27.3389   21.9028 C   0  0  0  0  0  0  0  0  0  0  0  0
  -20.3676  -18.2638   18.5592 C   0  0  0  0  0  0  0  0  0  0  0  0
  -20.0747  -17.4145   17.4923 C   0  0  0  0  0  0  0  0  0  0  0  0
  -30.6464  -21.6723   18.7545 C   0  0  0  0  0  0  0  0  0  0  0  0
  -26.6910  -28.3023   19.7327 C   0  0  0  0  0  0  0  0  0  0  0  0
  -30.9141  -26.1106   17.6015 C   0  0  0  0  0  0  0  0  0  0  0  0
  -21.6836  -15.8153   18.3236 C   0  0  0  0  0  0  0  0  0  0  0  0
  -25.5137  -20.0855   20.9467 C   0  0  0  0  0  0  0  0  0  0  0  0
  -30.9864  -20.3202   18.7105 C   0  0  0  0  0  0  0  0  0  0  0  0
  -27.2916  -21.8696   21.3512 C   0  0  0  0  0  0  0  0  0  0  0  0
  -19.4770  -27.0424   23.8999 C   0  0  0  0  0  0  0  0  0  0  0  0
  -25.4020  -29.0381   21.6450 C   0  0  0  0  0  0  0  0  0  0  0  0
  -20.5499  -26.9407   22.9938 C   0  0  0  0  0  0  0  0  0  0  0  0
  -25.6936  -29.1261   20.2763 C   0  0  0  0  0  0  0  0  0  0  0  0
  -29.6699  -25.7797   18.1928 C   0  0  0  0  0  0  0  0  0  0  0  0
  -31.1452  -22.5486   17.7907 C   0  0  0  0  0  0  0  0  0  0  0  0
  -31.8251  -19.8445   17.7026 C   0  0  0  0  0  0  0  0  0  0  0  0
  -22.8886  -19.1765   20.6915 C   0  0  0  0  0  0  0  0  0  0  0  0
  -27.3974  -27.4125   20.5416 C   0  0  0  0  0  0  0  0  0  0  0  0
  -21.3186  -17.8890   19.5083 C   0  0  0  0  0  0  0  0  0  0  0  0
  -20.7326  -16.1902   17.3745 C   0  0  0  0  0  0  0  0  0  0  0  0
  -21.9766  -16.6647   19.3905 C   0  0  0  0  0  0  0  0  0  0  0  0
  -26.8697  -20.5544   21.0790 C   0  0  0  0  0  0  0  0  0  0  0  0
  -28.6627  -21.7920   21.3762 C   0  0  0  0  0  0  0  0  0  0  0  0
  -31.5954  -24.9322   17.3903 C   0  0  0  0  0  0  0  0  0  0  0  0
  -29.6289  -24.4092   18.3251 C   0  0  0  0  0  0  0  0  0  0  0  0
  -29.3127  -18.7636   19.5998 C   0  0  0  0  0  0  0  0  0  0  0  0
  -30.4461  -19.4343   19.7350 C   0  0  0  0  0  0  0  0  0  0  0  0
  -26.5138  -23.0553   21.5626 C   0  0  0  0  0  0  0  0  0  0  0  0
  -22.3408  -29.3614   20.8524 C   0  0  0  0  0  0  0  0  0  0  0  0
  -23.4037  -32.0636   19.4064 C   0  0  0  0  0  0  0  0  0  0  0  0
  -26.0077  -33.7676   18.0055 C   0  0  0  0  0  0  0  0  0  0  0  0
  -32.3033  -17.6220   18.7625 C   0  0  0  0  0  0  0  0  0  0  0  0
  -18.3035  -27.9536   23.6409 C   0  0  0  0  0  0  0  0  0  0  0  0
  -24.3551  -29.9262   22.2595 C   0  0  0  0  0  0  0  0  0  0  0  0
  -24.9585  -30.0769   19.3685 C   0  0  0  0  0  0  0  0  0  0  0  0
  -18.5867  -29.0292   22.5954 C   0  0  0  0  0  0  0  0  0  0  0  0
  -32.2499  -18.7654   22.2814 C   0  0  0  0  0  0  0  0  0  0  0  0
  -19.2710  -28.4208   21.3754 C   0  0  0  0  0  0  0  0  0  0  0  0
  -30.8626  -19.3910   22.4139 C   0  0  0  0  0  0  0  0  0  0  0  0
  -32.2727  -17.6544   21.2360 C   0  0  0  0  0  0  0  0  0  0  0  0
  -30.3882  -18.7158   20.0263 C   0  0  0  0  0  0  0  0  0  0  0  0
  -20.6228  -27.8026   21.7521 C   0  0  1  0  0  0  0  0  0  0  0  0
  -23.3261  -30.4242   21.2492 C   0  0  1  0  0  0  0  0  0  0  0  0
  -30.3484  -19.8651   21.0446 C   0  0  1  0  0  0  0  0  0  0  0  0
  -26.5607  -35.9390   16.8758 C   0  0  0  0  0  0  0  0  0  0  0  0
  -22.0717  -31.0688   16.8479 C   0  0  0  0  0  0  0  0  0  0  0  0
  -23.4302  -32.7414   15.5731 C   0  0  0  0  0  0  0  0  0  0  0  0
  -21.7910  -33.5148   17.2871 C   0  0  0  0  0  0  0  0  0  0  0  0
  -32.7293  -17.9505   16.3662 C   0  0  0  0  0  0  0  0  0  0  0  0
  -27.9458  -34.5061   20.1168 C   0  0  0  0  0  0  0  0  0  0  0  0
  -28.5984  -26.7481   18.5994 C   0  0  0  0  0  0  0  0  0  1  0  0
  -23.9355  -32.4040   18.0352 C   0  0  1  0  0  0  0  0  0  0  0  0
  -26.5004  -35.1905   18.1982 C   0  0  2  0  0  0  0  0  0  0  0  0
  -22.8198  -32.4128   16.9523 C   0  0  0  0  0  0  0  0  0  0  0  0
  -27.8901  -19.7037   20.9408 N   0  0  0  0  0  0  0  0  0  0  0  0
  -30.8047  -23.9046   17.8342 N   0  0  0  0  0  0  0  0  0  0  0  0
  -28.9668  -20.4861   21.1268 N   0  0  0  0  0  0  0  0  0  0  0  0
  -23.9394  -30.9199   20.0154 N   0  0  0  0  0  0  0  0  0  0  0  0
  -31.7248  -18.1032   19.9549 N   0  0  0  0  0  0  0  0  0  0  0  0
  -29.6258  -22.7143   21.5868 N   0  0  0  0  0  0  0  0  0  0  0  0
  -25.1169  -22.9576   21.5024 N   0  0  0  0  0  0  0  0  0  0  0  0
  -21.6243  -28.8353   21.9104 N   0  0  0  0  0  0  0  0  0  0  0  0
  -24.6426  -33.6724   18.1749 N   0  0  0  0  0  0  0  0  0  0  0  0
  -32.1953  -18.4521   17.6304 N   0  0  0  0  0  0  0  0  0  0  0  0
  -27.8636  -35.1896   18.8003 N   0  3  0  0  0  0  0  0  0  0  0  0
  -27.0422  -24.1716   21.7817 O   0  0  0  0  0  0  0  0  0  0  0  0
  -22.2372  -29.0434   19.6735 O   0  0  0  0  0  0  0  0  0  0  0  0
  -22.5499  -32.7898   19.9214 O   0  0  0  0  0  0  0  0  0  0  0  0
  -26.7583  -32.8346   17.7286 O   0  0  0  0  0  0  0  0  0  0  0  0
  -32.8312  -16.5052   18.6954 O   0  0  0  0  0  0  0  0  0  0  0  0
  -32.7950  -24.7138   16.8648 O   0  0  0  0  0  0  0  0  0  0  0  0
  -28.6857  -23.6161   18.8206 O   0  0  0  0  0  0  0  0  0  0  0  0
  -21.6078  -18.7330   20.5674 O   0  0  0  0  0  0  0  0  0  0  0  0
  -28.3633  -26.6208   20.0011 O   0  0  0  0  0  0  0  0  0  1  0  0
  -20.4501  -15.3739   16.3507 F   0  0  0  0  0  0  0  0  0  0  0  0
  -22.8903  -16.2987   20.2999 F   0  0  0  0  0  0  0  0  0  0  0  0
  1  2  1  0  0  0  0
  1  5  2  0  0  0  0
  2  6  2  0  0  0  0
  3 10  2  0  0  0  0
  3 19  1  0  0  0  0
  4 11  1  0  0  0  0
  4 19  2  0  0  0  0
  5 22  1  0  0  0  0
  6 24  1  0  0  0  0
  7 12  2  0  0  0  0
  7 23  1  0  0  0  0
  8  9  2  0  0  0  0
  8 27  1  0  0  0  0
  9 28  1  0  0  0  0
 10 29  1  0  0  0  0
 11 29  2  0  0  0  0
 12 30  1  0  0  0  0
 13 14  2  0  0  0  0
 13 31  1  0  0  0  0
 14 32  1  0  0  0  0
 15 20  1  0  0  0  0
 15 27  2  0  0  0  0
 16 25  1  0  0  0  0
 16 30  2  0  0  0  0
 17 26  1  0  0  0  0
 17 36  2  0  0  0  0
 18 32  2  0  0  0  0
 18 33  1  0  0  0  0
 19 34  1  0  0  0  0
 20 28  2  0  0  0  0
 20 39  1  0  0  0  0
 21 34  1  0  0  0  0
 21 35  2  0  0  0  0
 21 40  1  0  0  0  0
 22 24  2  0  0  0  0
 22 45  1  0  0  0  0
 23 25  2  0  0  0  0
 23 46  1  0  0  0  0
 24 54  1  0  0  0  0
 25 47  1  0  0  0  0
 26 37  2  0  0  0  0
 26 63  1  0  0  0  0
 27 68  1  0  0  0  0
 28 76  1  0  0  0  0
 29 85  1  0  0  0  0
 30 86  1  0  0  0  0
 31 33  2  0  0  0  0
 31 85  1  0  0  0  0
 32 87  1  0  0  0  0
 33 88  1  0  0  0  0
 34 67  2  0  0  0  0
 35 69  1  0  0  0  0
 35 72  1  0  0  0  0
 36 68  1  0  0  0  0
 36 83  1  0  0  0  0
 37 68  1  0  0  0  0
 37 84  1  0  0  0  0
 38 39  2  0  0  0  0
 40 73  1  0  0  0  0
 40 78  2  0  0  0  0
 41 55  1  0  0  0  0
 41 74  1  0  0  0  0
 41 79  2  0  0  0  0
 42 64  1  0  0  0  0
 42 70  1  0  0  0  0
 42 80  2  0  0  0  0
 43 65  1  0  0  0  0
 43 75  1  0  0  0  0
 43 81  2  0  0  0  0
 44 71  1  0  0  0  0
 44 76  1  0  0  0  0
 44 82  2  0  0  0  0
 45 48  1  0  0  0  0
 46 55  1  0  0  0  0
 47 70  1  0  0  0  0
 48 50  1  0  0  0  0
 49 51  1  0  0  0  0
 49 52  1  0  0  0  0
 50 54  1  0  0  0  0
 51 56  1  0  0  0  0
 52 71  1  0  0  0  0
 53 56  1  0  0  0  0
 53 71  1  0  0  0  0
 54 74  1  0  0  0  0
 55 70  1  0  0  0  0
 56 69  1  0  0  0  0
 57 65  1  0  0  0  0
 58 66  1  0  0  0  0
 59 66  1  0  0  0  0
 60 66  1  0  0  0  0
 61 76  1  0  0  0  0
 62 77  1  0  0  0  0
 63 86  1  0  0  0  0
 64 66  1  0  0  0  0
 64 75  1  0  0  0  0
 65 77  1  0  0  0  0
 67 69  1  0  0  0  0
M  CHG  1  77   1
M  ISO  4  44 100  63 101  76 100  86 101
M  END
> <Batch ID>
0094

> <Smiles>
C=Cc1cc(N2C(=O)CC([101CH2:1][101O:1]c3ccc4c(c3)CN(C(=O)C(NC(=O)C(C)NC)C(C)(C)C)C(C(=O)NC3CCCc5ccccc53)C4)C2=O)ccc1[100N:0](C)[100C:0](=O)N1CCCC(n2nc(-c3ccc(Oc4ccc(F)cc4F)cc3)c(C(N)=O)c2N)C1

> <Shape>
0.181

> <Color>
0.081

> <Negative vol penalty>
0.000

$$$$

  -OEChem-04052300403D

 86 95  0     1  0  0  0  0  0999 V2000
  -22.6970   -8.4293   20.5154 C   0  0  0  0  0  0  0  0  0  0  0  0
  -21.9729   -9.4648   19.9332 C   0  0  0  0  0  0  0  0  0  0  0  0
  -18.5470  -27.6245   23.4982 C   0  0  0  0  0  0  0  0  0  0  0  0
  -30.5338  -27.4547   20.8496 C   0  0  0  0  0  0  0  0  0  0  0  0
  -29.2705  -25.7648   22.0266 C   0  0  0  0  0  0  0  0  0  0  0  0
  -23.5471   -8.6923   21.5888 C   0  0  0  0  0  0  0  0  0  0  0  0
  -22.0976  -10.7637   20.4248 C   0  0  0  0  0  0  0  0  0  0  0  0
  -21.9799  -17.5896   18.2549 C   0  0  0  0  0  0  0  0  0  0  0  0
  -18.3616  -26.2651   23.2470 C   0  0  0  0  0  0  0  0  0  0  0  0
  -19.6374  -28.2940   22.9428 C   0  0  0  0  0  0  0  0  0  0  0  0
  -31.6869  -27.0687   21.5328 C   0  0  0  0  0  0  0  0  0  0  0  0
  -30.4237  -25.3787   22.7098 C   0  0  0  0  0  0  0  0  0  0  0  0
  -21.3602  -18.8031   18.5501 C   0  0  0  0  0  0  0  0  0  0  0  0
  -33.1803  -23.5243   22.0911 C   0  0  0  0  0  0  0  0  0  0  0  0
  -33.4399  -22.1583   22.2009 C   0  0  0  0  0  0  0  0  0  0  0  0
  -22.9189  -19.1525   20.3577 C   0  0  0  0  0  0  0  0  0  0  0  0
  -33.3697  -22.3385   24.6091 C   0  0  0  0  0  0  0  0  0  0  0  0
  -29.3256  -26.8028   21.0965 C   0  0  0  0  0  0  0  0  0  0  0  0
  -27.6637  -26.6978   19.1639 C   0  0  0  0  0  0  0  0  0  0  0  0
  -23.6896   -9.9967   22.0876 C   0  0  0  0  0  0  0  0  0  0  0  0
  -23.0688  -17.1426   19.0170 C   0  0  0  0  0  0  0  0  0  0  0  0
  -22.9493  -11.0441   21.5068 C   0  0  0  0  0  0  0  0  0  0  0  0
  -23.5523  -17.9342   20.0685 C   0  0  0  0  0  0  0  0  0  0  0  0
  -19.2666  -25.5751   22.4404 C   0  0  0  0  0  0  0  0  0  0  0  0
  -20.5424  -27.6041   22.1362 C   0  0  0  0  0  0  0  0  0  0  0  0
  -31.6319  -26.0306   22.4629 C   0  0  0  0  0  0  0  0  0  0  0  0
  -21.8278  -19.5834   19.6034 C   0  0  0  0  0  0  0  0  0  0  0  0
  -33.0154  -24.2975   23.2403 C   0  0  0  0  0  0  0  0  0  0  0  0
  -33.5346  -21.5653   23.4599 C   0  0  0  0  0  0  0  0  0  0  0  0
  -33.1101  -23.7046   24.4993 C   0  0  0  0  0  0  0  0  0  0  0  0
  -20.3570  -26.2446   21.8850 C   0  0  0  0  0  0  0  0  0  0  0  0
  -28.1339  -27.2016   20.3915 C   0  0  0  0  0  0  0  0  0  0  0  0
  -26.5056  -27.3971   18.9267 C   0  0  0  0  0  0  0  0  0  0  0  0
  -20.1607  -23.3231   21.9516 C   0  0  0  0  0  0  0  0  0  0  0  0
  -20.0546  -22.0482   21.5468 C   0  0  0  0  0  0  0  0  0  0  0  0
  -17.7569  -23.6390   22.1170 C   0  0  0  0  0  0  0  0  0  0  0  0
  -28.2237  -25.6879   18.3140 C   0  0  0  0  0  0  0  0  0  0  0  0
  -23.6250  -14.6206   20.8701 C   0  0  0  0  0  0  0  0  0  0  0  0
  -26.6269  -15.8457   20.9704 C   0  0  0  0  0  0  0  0  0  0  0  0
  -28.6537  -18.5751   20.6716 C   0  0  0  0  0  0  0  0  0  0  0  0
  -21.9757  -29.6347   21.7255 C   0  0  0  0  0  0  0  0  0  0  0  0
  -24.5846  -10.2241   23.2801 C   0  0  0  0  0  0  0  0  0  0  0  0
  -23.7431  -15.8439   18.6688 C   0  0  0  0  0  0  0  0  0  0  0  0
  -24.7309  -17.5088   20.9043 C   0  0  0  0  0  0  0  0  0  0  0  0
  -18.7091  -21.4259   21.3454 C   0  0  0  0  0  0  0  0  0  0  0  0
  -17.6678  -22.1256   22.1983 C   0  0  0  0  0  0  0  0  0  0  0  0
  -24.9450  -11.6911   23.5002 C   0  0  0  0  0  0  0  0  0  0  0  0
  -24.6323  -31.6850   20.5355 C   0  0  0  0  0  0  0  0  0  0  0  0
  -23.7016  -12.5682   23.3928 C   0  0  0  0  0  0  0  0  0  0  0  0
  -25.7611  -30.6900   20.2564 C   0  0  0  0  0  0  0  0  0  0  0  0
  -23.8247  -31.2942   21.7720 C   0  0  0  0  0  0  0  0  0  0  0  0
  -24.4365  -28.9248   21.4880 C   0  0  0  0  0  0  0  0  0  0  0  0
  -23.0766  -12.4705   21.9959 C   0  0  1  0  0  0  0  0  0  0  0  0
  -24.5201  -15.2425   19.8358 C   0  0  1  0  0  0  0  0  0  0  0  0
  -25.2375  -29.2409   20.2143 C   0  0  2  0  0  0  0  0  0  0  0  0
  -31.0580  -19.2719   20.8470 C   0  0  0  0  0  0  0  0  0  0  0  0
  -26.4314  -15.7453   24.0137 C   0  0  0  0  0  0  0  0  0  0  0  0
  -28.3974  -17.2918   24.1214 C   0  0  0  0  0  0  0  0  0  0  0  0
  -28.6429  -15.0354   23.0864 C   0  0  0  0  0  0  0  0  0  0  0  0
  -28.7321  -19.4333   17.8403 C   0  0  0  0  0  0  0  0  0  0  0  0
  -21.2501  -21.1930   21.2561 C   0  0  0  0  0  0  0  0  0  1  0  0
  -27.3513  -16.8285   21.8582 C   0  0  1  0  0  0  0  0  0  0  0  0
  -29.9554  -18.7856   19.9194 C   0  0  2  0  0  0  0  0  0  0  0  0
  -27.6823  -16.2326   23.2556 C   0  0  0  0  0  0  0  0  0  0  0  0
  -27.3395  -28.1480   20.8987 N   0  0  0  0  0  0  0  0  0  0  0  0
  -26.3585  -28.2445   19.9852 N   0  0  0  0  0  0  0  0  0  0  0  0
  -19.0705  -24.1621   22.1813 N   0  0  0  0  0  0  0  0  0  0  0  0
  -25.3524  -16.2282   20.5286 N   0  0  0  0  0  0  0  0  0  0  0  0
  -23.3578  -29.9107   21.6596 N   0  0  0  0  0  0  0  0  0  0  0  0
  -25.6091  -27.3637   17.9180 N   0  0  0  0  0  0  0  0  0  0  0  0
  -29.4186  -25.0703   18.7081 N   0  0  0  0  0  0  0  0  0  0  0  0
  -21.6489  -28.2875   21.5738 N   0  0  0  0  0  0  0  0  0  0  0  0
  -23.8287  -13.2656   21.0490 N   0  0  0  0  0  0  0  0  0  0  0  0
  -28.5197  -17.2734   21.1063 N   0  0  0  0  0  0  0  0  0  0  0  0
  -29.7715  -19.7947   18.8383 N   0  3  0  0  0  0  0  0  0  0  0  0
  -16.7158  -24.2949   22.0478 O   0  0  0  0  0  0  0  0  0  0  0  0
  -27.6893  -25.3551   17.2291 O   0  0  0  0  0  0  0  0  0  0  0  0
  -22.8109  -15.3186   21.4630 O   0  0  0  0  0  0  0  0  0  0  0  0
  -27.1746  -14.7809   20.6739 O   0  0  0  0  0  0  0  0  0  0  0  0
  -27.8390  -19.4762   20.8582 O   0  0  0  0  0  0  0  0  0  0  0  0
  -21.1414  -30.5309   21.8762 O   0  0  0  0  0  0  0  0  0  0  0  0
  -32.7570  -25.6534   23.1296 O   0  0  0  0  0  0  0  0  0  0  0  0
  -21.2244  -20.7680   19.8941 O   0  0  0  0  0  0  0  0  0  1  0  0
  -33.7823  -20.2532   23.5651 F   0  0  0  0  0  0  0  0  0  0  0  0
  -32.9514  -24.4420   25.6070 F   0  0  0  0  0  0  0  0  0  0  0  0
  -21.2281  -25.5804   21.1098 F   0  0  0  0  0  0  0  0  0  0  0  0
  1  2  1  0  0  0  0
  1  6  2  0  0  0  0
  2  7  2  0  0  0  0
  3  9  2  0  0  0  0
  3 10  1  0  0  0  0
  4 11  2  0  0  0  0
  4 18  1  0  0  0  0
  5 12  1  0  0  0  0
  5 18  2  0  0  0  0
  6 20  1  0  0  0  0
  7 22  1  0  0  0  0
  8 13  2  0  0  0  0
  8 21  1  0  0  0  0
  9 24  1  0  0  0  0
 10 25  2  0  0  0  0
 11 26  1  0  0  0  0
 12 26  2  0  0  0  0
 13 27  1  0  0  0  0
 14 15  2  0  0  0  0
 14 28  1  0  0  0  0
 15 29  1  0  0  0  0
 16 23  1  0  0  0  0
 16 27  2  0  0  0  0
 17 29  2  0  0  0  0
 17 30  1  0  0  0  0
 18 32  1  0  0  0  0
 19 32  1  0  0  0  0
 19 33  2  0  0  0  0
 19 37  1  0  0  0  0
 20 22  2  0  0  0  0
 20 42  1  0  0  0  0
 21 23  2  0  0  0  0
 21 43  1  0  0  0  0
 22 53  1  0  0  0  0
 23 44  1  0  0  0  0
 24 31  2  0  0  0  0
 24 67  1  0  0  0  0
 25 31  1  0  0  0  0
 25 72  1  0  0  0  0
 26 82  1  0  0  0  0
 27 83  1  0  0  0  0
 28 30  2  0  0  0  0
 28 82  1  0  0  0  0
 29 84  1  0  0  0  0
 30 85  1  0  0  0  0
 31 86  1  0  0  0  0
 32 65  2  0  0  0  0
 33 66  1  0  0  0  0
 33 70  1  0  0  0  0
 34 35  2  0  0  0  0
 34 67  1  0  0  0  0
 35 45  1  0  0  0  0
 35 61  1  0  0  0  0
 36 46  1  0  0  0  0
 36 67  1  0  0  0  0
 36 76  2  0  0  0  0
 37 71  1  0  0  0  0
 37 77  2  0  0  0  0
 38 54  1  0  0  0  0
 38 73  1  0  0  0  0
 38 78  2  0  0  0  0
 39 62  1  0  0  0  0
 39 68  1  0  0  0  0
 39 79  2  0  0  0  0
 40 63  1  0  0  0  0
 40 74  1  0  0  0  0
 40 80  2  0  0  0  0
 41 69  1  0  0  0  0
 41 72  1  0  0  0  0
 41 81  2  0  0  0  0
 42 47  1  0  0  0  0
 43 54  1  0  0  0  0
 44 68  1  0  0  0  0
 45 46  1  0  0  0  0
 47 49  1  0  0  0  0
 48 50  1  0  0  0  0
 48 51  1  0  0  0  0
 49 53  1  0  0  0  0
 50 55  1  0  0  0  0
 51 69  1  0  0  0  0
 52 55  1  0  0  0  0
 52 69  1  0  0  0  0
 53 73  1  0  0  0  0
 54 68  1  0  0  0  0
 55 66  1  0  0  0  0
 56 63  1  0  0  0  0
 57 64  1  0  0  0  0
 58 64  1  0  0  0  0
 59 64  1  0  0  0  0
 60 75  1  0  0  0  0
 61 83  1  0  0  0  0
 62 64  1  0  0  0  0
 62 74  1  0  0  0  0
 63 75  1  0  0  0  0
 65 66  1  0  0  0  0
M  CHG  1  75   1
M  ISO  4  41 100  61 101  72 100  83 101
M  END
> <Batch ID>
0094

> <Smiles>
CNC(C)C(=O)NC(C(=O)N1Cc2cc([101O:1][101CH2:1]C3=CN(c4cccc([100NH:0][100C:0](=O)N5CCCC(n6nc(-c7ccc(Oc8ccc(F)cc8F)cc7)c(C(N)=O)c6N)C5)c4F)C(=O)CC3)ccc2CC1C(=O)NC1CCCc2ccccc21)C(C)(C)C

> <Shape>
0.238

> <Color>
0.054

> <Negative vol penalty>
0.000

$$$$

  -OEChem-04052300403D

 83 91  0     1  0  0  0  0  0999 V2000
  -31.2918  -30.7376   14.0565 C   0  0  0  0  0  0  0  0  0  0  0  0
  -30.8076  -29.5082   14.4916 C   0  0  0  0  0  0  0  0  0  0  0  0
  -22.9058  -10.0199   20.0012 C   0  0  0  0  0  0  0  0  0  0  0  0
  -23.6699  -10.0168   22.2932 C   0  0  0  0  0  0  0  0  0  0  0  0
  -29.0872  -17.4973   22.1098 C   0  0  0  0  0  0  0  0  0  0  0  0
  -31.4300  -31.7905   14.9599 C   0  0  0  0  0  0  0  0  0  0  0  0
  -30.4622  -29.3306   15.8309 C   0  0  0  0  0  0  0  0  0  0  0  0
  -25.9173  -25.8660   18.0325 C   0  0  0  0  0  0  0  0  0  0  0  0
  -28.4421  -18.6400   21.6368 C   0  0  0  0  0  0  0  0  0  0  0  0
  -22.0998   -8.9133   20.2684 C   0  0  0  0  0  0  0  0  0  0  0  0
  -22.8638   -8.9102   22.5604 C   0  0  0  0  0  0  0  0  0  0  0  0
  -25.8945  -24.5804   18.5714 C   0  0  0  0  0  0  0  0  0  0  0  0
  -22.9692   -5.5698   22.0496 C   0  0  0  0  0  0  0  0  0  0  0  0
  -23.5286   -4.5221   22.7810 C   0  0  0  0  0  0  0  0  0  0  0  0
  -29.4928  -16.7853   19.8370 C   0  0  0  0  0  0  0  0  0  0  0  0
  -26.0131  -25.5157   20.7919 C   0  0  0  0  0  0  0  0  0  0  0  0
  -21.8430   -4.8135   24.4873 C   0  0  0  0  0  0  0  0  0  0  0  0
  -23.6909  -10.5716   21.0136 C   0  0  0  0  0  0  0  0  0  0  0  0
  -29.6126  -16.5700   21.2100 C   0  0  0  0  0  0  0  0  0  0  0  0
  -24.1717  -13.0720   20.8575 C   0  0  0  0  0  0  0  0  0  0  0  0
  -31.0770  -31.6286   16.3089 C   0  0  0  0  0  0  0  0  0  0  0  0
  -25.9994  -26.9876   18.8702 C   0  0  0  0  0  0  0  0  0  0  0  0
  -30.5970  -30.3819   16.7535 C   0  0  0  0  0  0  0  0  0  0  0  0
  -26.0342  -26.8145   20.2612 C   0  0  0  0  0  0  0  0  0  0  0  0
  -28.3223  -18.8553   20.2638 C   0  0  0  0  0  0  0  0  0  0  0  0
  -28.8476  -17.9280   19.3639 C   0  0  0  0  0  0  0  0  0  0  0  0
  -22.0788   -8.3585   21.5480 C   0  0  0  0  0  0  0  0  0  0  0  0
  -25.9453  -24.4049   19.9512 C   0  0  0  0  0  0  0  0  0  0  0  0
  -21.8468   -6.2394   22.5370 C   0  0  0  0  0  0  0  0  0  0  0  0
  -22.9655   -4.1439   23.9999 C   0  0  0  0  0  0  0  0  0  0  0  0
  -21.2837   -5.8613   23.7558 C   0  0  0  0  0  0  0  0  0  0  0  0
  -24.5242  -11.7144   20.7381 C   0  0  0  0  0  0  0  0  0  0  0  0
  -25.3029  -13.7547   20.4823 C   0  0  0  0  0  0  0  0  0  0  0  0
  -30.2854  -15.3790   21.7038 C   0  0  0  0  0  0  0  0  0  0  0  0
  -22.9327  -13.6632   21.2709 C   0  0  0  0  0  0  0  0  0  0  0  0
  -30.8546  -14.3745   20.7763 C   0  0  0  0  0  0  0  0  0  0  0  0
  -28.0988  -29.3407   19.2691 C   0  0  0  0  0  0  0  0  0  0  0  0
  -25.8352  -30.4940   21.2860 C   0  0  0  0  0  0  0  0  0  0  0  0
  -27.0963  -21.0307   20.5779 C   0  0  0  0  0  0  0  0  0  0  0  0
  -23.1590  -29.8576   23.3059 C   0  0  0  0  0  0  0  0  0  0  0  0
  -31.2884  -32.7816   17.2580 C   0  0  0  0  0  0  0  0  0  0  0  0
  -25.9961  -28.3687   18.2743 C   0  0  0  0  0  0  0  0  0  0  0  0
  -26.1023  -27.9865   21.2047 C   0  0  0  0  0  0  0  0  0  0  0  0
  -30.5468  -32.6237   18.5829 C   0  0  0  0  0  0  0  0  0  0  0  0
  -29.5558  -12.1468   18.2848 C   0  0  0  0  0  0  0  0  0  0  0  0
  -30.7509  -31.2204   19.1450 C   0  0  0  0  0  0  0  0  0  0  0  0
  -28.1131  -11.9172   18.7340 C   0  0  0  0  0  0  0  0  0  0  0  0
  -30.4921  -12.3130   19.4773 C   0  0  0  0  0  0  0  0  0  0  0  0
  -28.6323  -13.1690   20.8762 C   0  0  0  0  0  0  0  0  0  0  0  0
  -30.1883  -30.1577   18.1933 C   0  0  1  0  0  0  0  0  0  0  0  0
  -26.6000  -29.4203   19.1999 C   0  0  1  0  0  0  0  0  0  0  0  0
  -27.6524  -13.0243   19.6988 C   0  0  2  0  0  0  0  0  0  0  0  0
  -21.5441  -30.9959   24.8531 C   0  0  0  0  0  0  0  0  0  0  0  0
  -28.0032  -30.6546   23.4269 C   0  0  0  0  0  0  0  0  0  0  0  0
  -26.1939  -30.8698   25.1440 C   0  0  0  0  0  0  0  0  0  0  0  0
  -26.4434  -32.6088   23.3730 C   0  0  0  0  0  0  0  0  0  0  0  0
  -20.8379  -29.0796   21.6429 C   0  0  0  0  0  0  0  0  0  0  0  0
  -26.4915  -22.1047   19.6930 C   0  0  0  0  0  0  0  0  0  1  0  0
  -25.5309  -30.3332   22.7558 C   0  0  1  0  0  0  0  0  0  0  0  0
  -21.8056  -30.5343   23.4278 C   0  0  2  0  0  0  0  0  0  0  0  0
  -26.5435  -31.0942   23.6574 C   0  0  0  0  0  0  0  0  0  0  0  0
  -25.7809  -11.5428   20.3194 N   0  0  0  0  0  0  0  0  0  0  0  0
  -30.4353  -15.1151   22.9737 N   0  0  0  0  0  0  0  0  0  0  0  0
  -26.2280  -12.8016   20.1725 N   0  0  0  0  0  0  0  0  0  0  0  0
  -30.0068  -13.3456   20.3906 N   0  0  0  0  0  0  0  0  0  0  0  0
  -26.1031  -29.3166   20.5734 N   0  0  0  0  0  0  0  0  0  0  0  0
  -28.7389  -18.1260   17.9692 N   0  0  0  0  0  0  0  0  0  0  0  0
  -25.5866  -15.0714   20.3902 N   0  0  0  0  0  0  0  0  0  0  0  0
  -21.8727  -12.8163   21.6223 N   0  0  0  0  0  0  0  0  0  0  0  0
  -27.6649  -20.0223   19.8073 N   0  0  0  0  0  0  0  0  0  0  0  0
  -28.7471  -30.0903   18.3061 N   0  0  0  0  0  0  0  0  0  0  0  0
  -24.1436  -30.7482   22.9333 N   0  0  0  0  0  0  0  0  0  0  0  0
  -20.7191  -29.5945   23.0313 N   0  3  0  0  0  0  0  0  0  0  0  0
  -22.7650  -14.9057   21.3112 O   0  0  0  0  0  0  0  0  0  0  0  0
  -32.0190  -14.5602   20.4476 O   0  0  0  0  0  0  0  0  0  0  0  0
  -28.6280  -28.6514   20.1331 O   0  0  0  0  0  0  0  0  0  0  0  0
  -25.8281  -31.6220   20.7868 O   0  0  0  0  0  0  0  0  0  0  0  0
  -27.0527  -21.1065   21.8014 O   0  0  0  0  0  0  0  0  0  0  0  0
  -23.3268  -28.6597   23.5234 O   0  0  0  0  0  0  0  0  0  0  0  0
  -21.2922   -7.2788   21.8092 O   0  0  0  0  0  0  0  0  0  0  0  0
  -25.9238  -23.1512   20.4798 O   0  0  0  0  0  0  0  0  0  1  0  0
  -23.5018   -3.1368   24.7015 F   0  0  0  0  0  0  0  0  0  0  0  0
  -20.2047   -6.5000   24.2286 F   0  0  0  0  0  0  0  0  0  0  0  0
  1  2  1  0  0  0  0
  1  6  2  0  0  0  0
  2  7  2  0  0  0  0
  3 10  2  0  0  0  0
  3 18  1  0  0  0  0
  4 11  1  0  0  0  0
  4 18  2  0  0  0  0
  5  9  2  0  0  0  0
  5 19  1  0  0  0  0
  6 21  1  0  0  0  0
  7 23  1  0  0  0  0
  8 12  2  0  0  0  0
  8 22  1  0  0  0  0
  9 25  1  0  0  0  0
 10 27  1  0  0  0  0
 11 27  2  0  0  0  0
 12 28  1  0  0  0  0
 13 14  2  0  0  0  0
 13 29  1  0  0  0  0
 14 30  1  0  0  0  0
 15 19  2  0  0  0  0
 15 26  1  0  0  0  0
 16 24  1  0  0  0  0
 16 28  2  0  0  0  0
 17 30  2  0  0  0  0
 17 31  1  0  0  0  0
 18 32  1  0  0  0  0
 19 34  1  0  0  0  0
 20 32  1  0  0  0  0
 20 33  2  0  0  0  0
 20 35  1  0  0  0  0
 21 23  2  0  0  0  0
 21 41  1  0  0  0  0
 22 24  2  0  0  0  0
 22 42  1  0  0  0  0
 23 50  1  0  0  0  0
 24 43  1  0  0  0  0
 25 26  2  0  0  0  0
 25 70  1  0  0  0  0
 26 67  1  0  0  0  0
 27 80  1  0  0  0  0
 28 81  1  0  0  0  0
 29 31  2  0  0  0  0
 29 80  1  0  0  0  0
 30 82  1  0  0  0  0
 31 83  1  0  0  0  0
 32 62  2  0  0  0  0
 33 64  1  0  0  0  0
 33 68  1  0  0  0  0
 34 36  1  0  0  0  0
 34 63  2  0  0  0  0
 35 69  1  0  0  0  0
 35 74  2  0  0  0  0
 36 65  1  0  0  0  0
 36 75  2  0  0  0  0
 37 51  1  0  0  0  0
 37 71  1  0  0  0  0
 37 76  2  0  0  0  0
 38 59  1  0  0  0  0
 38 66  1  0  0  0  0
 38 77  2  0  0  0  0
 39 58  1  0  0  0  0
 39 70  1  0  0  0  0
 39 78  2  0  0  0  0
 40 60  1  0  0  0  0
 40 72  1  0  0  0  0
 40 79  2  0  0  0  0
 41 44  1  0  0  0  0
 42 51  1  0  0  0  0
 43 66  1  0  0  0  0
 44 46  1  0  0  0  0
 45 47  1  0  0  0  0
 45 48  1  0  0  0  0
 46 50  1  0  0  0  0
 47 52  1  0  0  0  0
 48 65  1  0  0  0  0
 49 52  1  0  0  0  0
 49 65  1  0  0  0  0
 50 71  1  0  0  0  0
 51 66  1  0  0  0  0
 52 64  1  0  0  0  0
 53 60  1  0  0  0  0
 54 61  1  0  0  0  0
 55 61  1  0  0  0  0
 56 61  1  0  0  0  0
 57 73  1  0  0  0  0
 58 81  1  0  0  0  0
 59 61  1  0  0  0  0
 59 72  1  0  0  0  0
 60 73  1  0  0  0  0
 62 64  1  0  0  0  0
M  CHG  1  73   1
M  ISO  4  34 100  36 100  58 101  81 101
M  END
> <Batch ID>
0094

> <Smiles>
CNC(C)C(=O)NC(C(=O)N1Cc2cc([101O:1][101CH2:1]C(=O)Nc3ccc([100C:0](=N)[100C:0](=O)N4CCCC(n5nc(-c6ccc(Oc7ccc(F)cc7F)cc6)c(C(N)=O)c5N)C4)cc3N)ccc2CC1C(=O)NC1CCCc2ccccc21)C(C)(C)C

> <Shape>
0.350

> <Color>
0.234

> <Negative vol penalty>
0.000

$$$$

  -OEChem-04052300403D

 85 93  0     1  0  0  0  0  0999 V2000
  -29.7070  -31.9234   26.0683 C   0  0  0  0  0  0  0  0  0  0  0  0
  -29.4110  -30.8423   25.2443 C   0  0  0  0  0  0  0  0  0  0  0  0
  -24.1943   -8.3004   20.8516 C   0  0  0  0  0  0  0  0  0  0  0  0
  -22.9142  -10.3399   20.6537 C   0  0  0  0  0  0  0  0  0  0  0  0
  -28.6763  -32.6301   26.6864 C   0  0  0  0  0  0  0  0  0  0  0  0
  -28.0839  -30.4666   25.0387 C   0  0  0  0  0  0  0  0  0  0  0  0
  -27.0703  -29.4997   20.1722 C   0  0  0  0  0  0  0  0  0  0  0  0
  -30.0142  -20.0839   19.7106 C   0  0  0  0  0  0  0  0  0  0  0  0
  -28.1584  -19.9300   18.1713 C   0  0  0  0  0  0  0  0  0  0  0  0
  -30.0340  -21.4691   19.5483 C   0  0  0  0  0  0  0  0  0  0  0  0
  -28.1782  -21.3152   18.0090 C   0  0  0  0  0  0  0  0  0  0  0  0
  -23.2015   -7.7564   21.6663 C   0  0  0  0  0  0  0  0  0  0  0  0
  -21.9214   -9.7958   21.4685 C   0  0  0  0  0  0  0  0  0  0  0  0
  -27.4892  -28.2698   19.6668 C   0  0  0  0  0  0  0  0  0  0  0  0
  -20.1571   -6.3383   21.2741 C   0  0  0  0  0  0  0  0  0  0  0  0
  -19.7541   -5.0278   21.0177 C   0  0  0  0  0  0  0  0  0  0  0  0
  -25.2499  -27.4095   19.9207 C   0  0  0  0  0  0  0  0  0  0  0  0
  -20.4310   -4.3838   23.2458 C   0  0  0  0  0  0  0  0  0  0  0  0
  -24.0507   -9.5923   20.3453 C   0  0  0  0  0  0  0  0  0  0  0  0
  -25.1642  -10.0745   18.1013 C   0  0  0  0  0  0  0  0  0  0  0  0
  -27.3354  -32.2689   26.4805 C   0  0  0  0  0  0  0  0  0  0  0  0
  -25.7382  -29.6908   20.5666 C   0  0  0  0  0  0  0  0  0  0  0  0
  -27.0343  -31.1684   25.6556 C   0  0  0  0  0  0  0  0  0  0  0  0
  -24.8160  -28.6436   20.4285 C   0  0  0  0  0  0  0  0  0  0  0  0
  -29.0765  -19.3143   19.0221 C   0  0  0  0  0  0  0  0  0  0  0  0
  -29.1160  -22.0848   18.6975 C   0  0  0  0  0  0  0  0  0  0  0  0
  -22.0650   -8.5040   21.9748 C   0  0  0  0  0  0  0  0  0  0  0  0
  -26.5796  -27.2235   19.5436 C   0  0  0  0  0  0  0  0  0  0  0  0
  -20.6971   -6.6716   22.5163 C   0  0  0  0  0  0  0  0  0  0  0  0
  -19.8911   -4.0505   22.0035 C   0  0  0  0  0  0  0  0  0  0  0  0
  -20.8340   -5.6943   23.5022 C   0  0  0  0  0  0  0  0  0  0  0  0
  -25.0762  -10.1551   19.5040 C   0  0  0  0  0  0  0  0  0  0  0  0
  -26.3100  -10.7643   17.7890 C   0  0  0  0  0  0  0  0  0  0  0  0
  -28.3968  -24.1520   19.3574 C   0  0  0  0  0  0  0  0  0  0  0  0
  -24.2884   -9.4334   17.1645 C   0  0  0  0  0  0  0  0  0  0  0  0
  -24.2890  -30.3949   23.3066 C   0  0  0  0  0  0  0  0  0  0  0  0
  -21.6535  -30.5514   21.4220 C   0  0  0  0  0  0  0  0  0  0  0  0
  -20.0942  -29.6058   18.5374 C   0  0  0  0  0  0  0  0  0  0  0  0
  -29.3317  -15.1222   20.5692 C   0  0  0  0  0  0  0  0  0  0  0  0
  -26.2578  -33.0336   27.2077 C   0  0  0  0  0  0  0  0  0  0  0  0
  -25.2961  -31.0318   21.0849 C   0  0  0  0  0  0  0  0  0  0  0  0
  -23.3701  -28.8037   20.8186 C   0  0  0  0  0  0  0  0  0  0  0  0
  -24.8595  -32.8041   26.6400 C   0  0  0  0  0  0  0  0  0  0  0  0
  -30.5843  -11.9360   19.5915 C   0  0  0  0  0  0  0  0  0  0  0  0
  -24.6145  -31.3163   26.4094 C   0  0  0  0  0  0  0  0  0  0  0  0
  -29.3226  -11.1110   19.3316 C   0  0  0  0  0  0  0  0  0  0  0  0
  -30.3994  -12.8955   20.7650 C   0  0  0  0  0  0  0  0  0  0  0  0
  -27.9625  -12.9557   20.4022 C   0  0  0  0  0  0  0  0  0  0  0  0
  -25.6061  -30.7457   25.3882 C   0  0  1  0  0  0  0  0  0  0  0  0
  -24.0327  -30.9562   21.9366 C   0  0  1  0  0  0  0  0  0  0  0  0
  -28.0816  -12.0131   19.1924 C   0  0  2  0  0  0  0  0  0  0  0  0
  -17.9305  -29.8623   17.2924 C   0  0  0  0  0  0  0  0  0  0  0  0
  -20.3221  -28.5819   23.3348 C   0  0  0  0  0  0  0  0  0  0  0  0
  -18.5909  -28.1533   21.5778 C   0  0  0  0  0  0  0  0  0  0  0  0
  -18.8403  -30.4372   22.5495 C   0  0  0  0  0  0  0  0  0  0  0  0
  -26.6666  -17.7286   20.1034 C   0  0  0  0  0  0  0  0  0  0  0  0
  -28.5439  -17.7981   21.7278 C   0  0  0  0  0  0  0  0  0  0  0  0
  -21.4386  -30.8838   16.2312 C   0  0  0  0  0  0  0  0  0  0  0  0
  -28.3432  -25.6488   19.2866 C   0  0  0  0  0  0  0  0  0  1  0  0
  -29.0557  -17.8331   19.1946 C   0  0  1  0  0  0  0  0  0  0  0  0
  -20.6063  -29.5650   20.9644 C   0  0  1  0  0  0  0  0  0  0  0  0
  -19.3366  -30.4057   17.4930 C   0  0  2  0  0  0  0  0  0  0  0  0
  -19.6175  -29.1804   22.1010 C   0  0  0  0  0  0  0  0  0  0  0  0
  -28.1216  -17.2767   20.3388 C   0  0  0  0  0  0  0  0  0  0  0  0
  -26.0858  -10.8418   20.0454 N   0  0  0  0  0  0  0  0  0  0  0  0
  -29.1351  -23.4804   18.5354 N   0  0  0  0  0  0  0  0  0  0  0  0
  -26.8191  -11.1990   18.9773 N   0  0  0  0  0  0  0  0  0  0  0  0
  -22.9879  -30.1318   21.3260 N   0  0  0  0  0  0  0  0  0  0  0  0
  -29.2065  -13.7232   20.5703 N   0  0  0  0  0  0  0  0  0  0  0  0
  -26.9218  -11.0354   16.6165 N   0  0  0  0  0  0  0  0  0  0  0  0
  -23.1559   -8.7693   17.6551 N   0  0  0  0  0  0  0  0  0  0  0  0
  -25.2131  -31.1103   24.0439 N   0  0  0  0  0  0  0  0  0  0  0  0
  -19.9694  -30.1593   19.7941 N   0  0  0  0  0  0  0  0  0  0  0  0
  -28.1532  -15.8314   20.3718 N   0  0  0  0  0  0  0  0  0  0  0  0
  -28.7376  -17.1020   17.9080 N   0  3  0  0  0  0  0  0  0  0  0  0
  -20.0501  -30.3573   16.1855 N   0  3  0  0  0  0  0  0  0  0  0  0
  -24.5125   -9.4350   15.9303 O   0  0  0  0  0  0  0  0  0  0  0  0
  -23.6915  -29.3880   23.6685 O   0  0  0  0  0  0  0  0  0  0  0  0
  -21.3009  -31.6563   21.8423 O   0  0  0  0  0  0  0  0  0  0  0  0
  -20.7297  -28.5894   18.2662 O   0  0  0  0  0  0  0  0  0  0  0  0
  -30.4144  -15.6966   20.7267 O   0  0  0  0  0  0  0  0  0  0  0  0
  -21.0959   -7.9733   22.7696 O   0  0  0  0  0  0  0  0  0  0  0  0
  -26.9860  -26.0218   19.0512 O   0  0  0  0  0  0  0  0  0  1  0  0
  -19.5026   -2.7924   21.7577 F   0  0  0  0  0  0  0  0  0  0  0  0
  -21.3509   -6.0088   24.6979 F   0  0  0  0  0  0  0  0  0  0  0  0
  1  2  1  0  0  0  0
  1  5  2  0  0  0  0
  2  6  2  0  0  0  0
  3 12  2  0  0  0  0
  3 19  1  0  0  0  0
  4 13  1  0  0  0  0
  4 19  2  0  0  0  0
  5 21  1  0  0  0  0
  6 23  1  0  0  0  0
  7 14  2  0  0  0  0
  7 22  1  0  0  0  0
  8 10  2  0  0  0  0
  8 25  1  0  0  0  0
  9 11  1  0  0  0  0
  9 25  2  0  0  0  0
 10 26  1  0  0  0  0
 11 26  2  0  0  0  0
 12 27  1  0  0  0  0
 13 27  2  0  0  0  0
 14 28  1  0  0  0  0
 15 16  2  0  0  0  0
 15 29  1  0  0  0  0
 16 30  1  0  0  0  0
 17 24  1  0  0  0  0
 17 28  2  0  0  0  0
 18 30  2  0  0  0  0
 18 31  1  0  0  0  0
 19 32  1  0  0  0  0
 20 32  1  0  0  0  0
 20 33  2  0  0  0  0
 20 35  1  0  0  0  0
 21 23  2  0  0  0  0
 21 40  1  0  0  0  0
 22 24  2  0  0  0  0
 22 41  1  0  0  0  0
 23 49  1  0  0  0  0
 24 42  1  0  0  0  0
 25 60  1  0  0  0  0
 26 66  1  0  0  0  0
 27 82  1  0  0  0  0
 28 83  1  0  0  0  0
 29 31  2  0  0  0  0
 29 82  1  0  0  0  0
 30 84  1  0  0  0  0
 31 85  1  0  0  0  0
 32 65  2  0  0  0  0
 33 67  1  0  0  0  0
 33 70  1  0  0  0  0
 34 59  1  0  0  0  0
 34 66  2  0  0  0  0
 35 71  1  0  0  0  0
 35 77  2  0  0  0  0
 36 50  1  0  0  0  0
 36 72  1  0  0  0  0
 36 78  2  0  0  0  0
 37 61  1  0  0  0  0
 37 68  1  0  0  0  0
 37 79  2  0  0  0  0
 38 62  1  0  0  0  0
 38 73  1  0  0  0  0
 38 80  2  0  0  0  0
 39 69  1  0  0  0  0
 39 74  1  0  0  0  0
 39 81  2  0  0  0  0
 40 43  1  0  0  0  0
 41 50  1  0  0  0  0
 42 68  1  0  0  0  0
 43 45  1  0  0  0  0
 44 46  1  0  0  0  0
 44 47  1  0  0  0  0
 45 49  1  0  0  0  0
 46 51  1  0  0  0  0
 47 69  1  0  0  0  0
 48 51  1  0  0  0  0
 48 69  1  0  0  0  0
 49 72  1  0  0  0  0
 50 68  1  0  0  0  0
 51 67  1  0  0  0  0
 52 62  1  0  0  0  0
 53 63  1  0  0  0  0
 54 63  1  0  0  0  0
 55 63  1  0  0  0  0
 56 64  1  0  0  0  0
 57 64  1  0  0  0  0
 58 76  1  0  0  0  0
 59 83  1  0  0  0  0
 60 64  1  0  0  0  0
 60 75  1  0  0  0  0
 61 63  1  0  0  0  0
 61 73  1  0  0  0  0
 62 76  1  0  0  0  0
 64 74  1  0  0  0  0
 65 67  1  0  0  0  0
M  CHG  2  75   1  76   1
M  ISO  4  39 100  59 101  74 100  83 101
M  END
> <Batch ID>
0094

> <Smiles>
CNC(C)C(=O)NC(C(=O)N1Cc2cc([101O:1][101CH:1]=CNc3ccc(C(N)C(C)(C)[100NH:0][100C:0](=O)N4CCCC(n5nc(-c6ccc(Oc7ccc(F)cc7F)cc6)c(C(N)=O)c5N)C4)cc3)ccc2CC1C(=O)NC1CCCc2ccccc21)C(C)(C)C

> <Shape>
0.326

> <Color>
0.100

> <Negative vol penalty>
0.000

$$$$

  -OEChem-04052300403D

 86 95  0     1  0  0  0  0  0999 V2000
  -22.7526   -8.5734   21.9433 C   0  0  0  0  0  0  0  0  0  0  0  0
  -23.9808   -9.1495   22.2515 C   0  0  0  0  0  0  0  0  0  0  0  0
  -22.1990  -29.0550   23.5663 C   0  0  0  0  0  0  0  0  0  0  0  0
  -21.2368  -28.6253   21.3923 C   0  0  0  0  0  0  0  0  0  0  0  0
  -31.9128  -23.5236   20.0060 C   0  0  0  0  0  0  0  0  0  0  0  0
  -21.9842   -9.0888   20.9003 C   0  0  0  0  0  0  0  0  0  0  0  0
  -24.4419  -10.2409   21.5161 C   0  0  0  0  0  0  0  0  0  0  0  0
  -28.3025  -16.2314   22.2407 C   0  0  0  0  0  0  0  0  0  0  0  0
  -30.8392  -24.3905   19.8025 C   0  0  0  0  0  0  0  0  0  0  0  0
  -21.0495  -28.5510   24.1747 C   0  0  0  0  0  0  0  0  0  0  0  0
  -20.0873  -28.1212   22.0007 C   0  0  0  0  0  0  0  0  0  0  0  0
  -29.3867  -16.8905   21.6629 C   0  0  0  0  0  0  0  0  0  0  0  0
  -17.3094  -29.3521   23.4837 C   0  0  0  0  0  0  0  0  0  0  0  0
  -16.0758  -29.7633   22.9792 C   0  0  0  0  0  0  0  0  0  0  0  0
  -32.5786  -23.8070   17.7009 C   0  0  0  0  0  0  0  0  0  0  0  0
  -27.9379  -17.7460   19.9344 C   0  0  0  0  0  0  0  0  0  0  0  0
  -15.5171  -27.4676   22.4742 C   0  0  0  0  0  0  0  0  0  0  0  0
  -22.2926  -29.0922   22.1751 C   0  0  0  0  0  0  0  0  0  0  0  0
  -32.7826  -23.2319   18.9552 C   0  0  0  0  0  0  0  0  0  0  0  0
  -24.0117  -30.9100   21.6770 C   0  0  0  0  0  0  0  0  0  0  0  0
  -22.4317  -10.1930   20.1580 C   0  0  0  0  0  0  0  0  0  0  0  0
  -27.0278  -16.3160   21.6625 C   0  0  0  0  0  0  0  0  0  0  0  0
  -23.6794  -10.7707   20.4613 C   0  0  0  0  0  0  0  0  0  0  0  0
  -26.8386  -17.0892   20.5082 C   0  0  0  0  0  0  0  0  0  0  0  0
  -30.6352  -24.9656   18.5482 C   0  0  0  0  0  0  0  0  0  0  0  0
  -19.9936  -28.0841   23.3919 C   0  0  0  0  0  0  0  0  0  0  0  0
  -29.2051  -17.6456   20.5080 C   0  0  0  0  0  0  0  0  0  0  0  0
  -17.6470  -27.9987   23.4834 C   0  0  0  0  0  0  0  0  0  0  0  0
  -15.1796  -28.8211   22.4745 C   0  0  0  0  0  0  0  0  0  0  0  0
  -31.5049  -24.6739   17.4974 C   0  0  0  0  0  0  0  0  0  0  0  0
  -16.7509  -27.0565   22.9787 C   0  0  0  0  0  0  0  0  0  0  0  0
  -23.4796  -29.6133   21.5460 C   0  0  0  0  0  0  0  0  0  0  0  0
  -25.1351  -30.9016   20.8869 C   0  0  0  0  0  0  0  0  0  0  0  0
  -33.9150  -22.3172   19.1699 C   0  0  0  0  0  0  0  0  0  0  0  0
  -23.5333  -32.0227   22.4444 C   0  0  0  0  0  0  0  0  0  0  0  0
  -24.9926  -14.2240   20.4034 C   0  0  0  0  0  0  0  0  0  0  0  0
  -23.0323  -16.8047   20.2643 C   0  0  0  0  0  0  0  0  0  0  0  0
  -22.7177  -20.2007   20.1419 C   0  0  0  0  0  0  0  0  0  0  0  0
  -28.5816  -26.2448   19.2768 C   0  0  0  0  0  0  0  0  0  0  0  0
  -21.5878  -10.6855   19.0091 C   0  0  0  0  0  0  0  0  0  0  0  0
  -25.8633  -15.6209   22.3130 C   0  0  0  0  0  0  0  0  0  0  0  0
  -25.4863  -17.2285   19.8598 C   0  0  0  0  0  0  0  0  0  0  0  0
  -21.9766  -12.0786   18.5210 C   0  0  0  0  0  0  0  0  0  0  0  0
  -26.2815  -28.2852   16.9811 C   0  0  0  0  0  0  0  0  0  0  0  0
  -23.4899  -12.1854   18.3617 C   0  0  0  0  0  0  0  0  0  0  0  0
  -25.9196  -29.4238   17.9319 C   0  0  0  0  0  0  0  0  0  0  0  0
  -33.9710  -18.8441   20.4095 C   0  0  0  0  0  0  0  0  0  0  0  0
  -27.5916  -27.6080   17.3632 C   0  0  0  0  0  0  0  0  0  0  0  0
  -34.6785  -20.0424   19.7959 C   0  0  0  0  0  0  0  0  0  0  0  0
  -32.3040  -20.4252   19.7539 C   0  0  0  0  0  0  0  0  0  0  0  0
  -26.5398  -27.6200   19.6325 C   0  0  0  0  0  0  0  0  0  0  0  0
  -24.2023  -11.9711   19.7026 C   0  0  1  0  0  0  0  0  0  0  0  0
  -24.7106  -15.3570   21.3491 C   0  0  1  0  0  0  0  0  0  0  0  0
  -32.5708  -18.9216   19.7964 C   0  0  2  0  0  0  0  0  0  0  0  0
  -26.2617  -29.1137   19.4027 C   0  0  2  0  0  0  0  0  0  0  0  0
  -20.9902  -22.0150   19.9954 C   0  0  0  0  0  0  0  0  0  0  0  0
  -22.6494  -16.1973   17.2987 C   0  0  0  0  0  0  0  0  0  0  0  0
  -21.7299  -18.5087   17.0154 C   0  0  0  0  0  0  0  0  0  0  0  0
  -20.5653  -16.8785   18.5017 C   0  0  0  0  0  0  0  0  0  0  0  0
  -23.5434  -21.3565   22.7383 C   0  0  0  0  0  0  0  0  0  0  0  0
  -31.5284  -18.1480   20.5836 C   0  0  0  0  0  0  0  0  0  1  0  0
  -22.7603  -17.8871   19.2477 C   0  0  1  0  0  0  0  0  0  0  0  0
  -21.8382  -21.1597   20.9239 C   0  0  2  0  0  0  0  0  0  0  0  0
  -21.9522  -17.3639   18.0268 C   0  0  0  0  0  0  0  0  0  0  0  0
  -24.2052  -28.8376   20.7362 N   0  0  0  0  0  0  0  0  0  0  0  0
  -25.2047  -29.6492   20.3512 N   0  0  0  0  0  0  0  0  0  0  0  0
  -33.6259  -21.0221   19.5713 N   0  0  0  0  0  0  0  0  0  0  0  0
  -24.3802  -16.5248   20.5299 N   0  0  0  0  0  0  0  0  0  0  0  0
  -27.6143  -27.1390   18.7563 N   0  0  0  0  0  0  0  0  0  0  0  0
  -26.0603  -31.8434   20.6049 N   0  0  0  0  0  0  0  0  0  0  0  0
  -22.6368  -32.9147   21.8404 N   0  0  0  0  0  0  0  0  0  0  0  0
  -29.5430  -25.8456   18.3446 N   0  0  0  0  0  0  0  0  0  0  0  0
  -24.1141  -13.1635   20.5181 N   0  0  0  0  0  0  0  0  0  0  0  0
  -22.1111  -18.9741   19.9725 N   0  0  0  0  0  0  0  0  0  0  0  0
  -22.6753  -22.0639   21.7621 N   0  3  0  0  0  0  0  0  0  0  0  0
  -35.0443  -22.7597   18.9687 O   0  0  0  0  0  0  0  0  0  0  0  0
  -23.9030  -32.2291   23.6251 O   0  0  0  0  0  0  0  0  0  0  0  0
  -25.9364  -14.3064   19.6262 O   0  0  0  0  0  0  0  0  0  0  0  0
  -22.0837  -16.2337   20.8081 O   0  0  0  0  0  0  0  0  0  0  0  0
  -23.8298  -20.5102   19.7202 O   0  0  0  0  0  0  0  0  0  0  0  0
  -28.5592  -25.8797   20.4541 O   0  0  0  0  0  0  0  0  0  0  0  0
  -18.8719  -27.5919   23.9853 O   0  0  0  0  0  0  0  0  0  0  0  0
  -30.2618  -18.2894   19.9417 O   0  0  0  0  0  0  0  0  0  1  0  0
  -13.9943  -29.2159   21.9915 F   0  0  0  0  0  0  0  0  0  0  0  0
  -31.3184  -25.2203   16.2872 F   0  0  0  0  0  0  0  0  0  0  0  0
  -17.0691  -25.7547   22.9768 F   0  0  0  0  0  0  0  0  0  0  0  0
  1  2  1  0  0  0  0
  1  6  2  0  0  0  0
  2  7  2  0  0  0  0
  3 10  2  0  0  0  0
  3 18  1  0  0  0  0
  4 11  1  0  0  0  0
  4 18  2  0  0  0  0
  5  9  2  0  0  0  0
  5 19  1  0  0  0  0
  6 21  1  0  0  0  0
  7 23  1  0  0  0  0
  8 12  2  0  0  0  0
  8 22  1  0  0  0  0
  9 25  1  0  0  0  0
 10 26  1  0  0  0  0
 11 26  2  0  0  0  0
 12 27  1  0  0  0  0
 13 14  2  0  0  0  0
 13 28  1  0  0  0  0
 14 29  1  0  0  0  0
 15 19  2  0  0  0  0
 15 30  1  0  0  0  0
 16 24  1  0  0  0  0
 16 27  2  0  0  0  0
 17 29  2  0  0  0  0
 17 31  1  0  0  0  0
 18 32  1  0  0  0  0
 19 34  1  0  0  0  0
 20 32  1  0  0  0  0
 20 33  2  0  0  0  0
 20 35  1  0  0  0  0
 21 23  2  0  0  0  0
 21 40  1  0  0  0  0
 22 24  2  0  0  0  0
 22 41  1  0  0  0  0
 23 52  1  0  0  0  0
 24 42  1  0  0  0  0
 25 30  2  0  0  0  0
 25 72  1  0  0  0  0
 26 82  1  0  0  0  0
 27 83  1  0  0  0  0
 28 31  2  0  0  0  0
 28 82  1  0  0  0  0
 29 84  1  0  0  0  0
 30 85  1  0  0  0  0
 31 86  1  0  0  0  0
 32 65  2  0  0  0  0
 33 66  1  0  0  0  0
 33 70  1  0  0  0  0
 34 67  1  0  0  0  0
 34 76  2  0  0  0  0
 35 71  1  0  0  0  0
 35 77  2  0  0  0  0
 36 53  1  0  0  0  0
 36 73  1  0  0  0  0
 36 78  2  0  0  0  0
 37 62  1  0  0  0  0
 37 68  1  0  0  0  0
 37 79  2  0  0  0  0
 38 63  1  0  0  0  0
 38 74  1  0  0  0  0
 38 80  2  0  0  0  0
 39 69  1  0  0  0  0
 39 72  1  0  0  0  0
 39 81  2  0  0  0  0
 40 43  1  0  0  0  0
 41 53  1  0  0  0  0
 42 68  1  0  0  0  0
 43 45  1  0  0  0  0
 44 46  1  0  0  0  0
 44 48  1  0  0  0  0
 45 52  1  0  0  0  0
 46 55  1  0  0  0  0
 47 49  1  0  0  0  0
 47 54  1  0  0  0  0
 48 69  1  0  0  0  0
 49 67  1  0  0  0  0
 50 54  1  0  0  0  0
 50 67  1  0  0  0  0
 51 55  1  0  0  0  0
 51 69  1  0  0  0  0
 52 73  1  0  0  0  0
 53 68  1  0  0  0  0
 54 61  1  0  0  0  0
 55 66  1  0  0  0  0
 56 63  1  0  0  0  0
 57 64  1  0  0  0  0
 58 64  1  0  0  0  0
 59 64  1  0  0  0  0
 60 75  1  0  0  0  0
 61 83  1  0  0  0  0
 62 64  1  0  0  0  0
 62 74  1  0  0  0  0
 63 75  1  0  0  0  0
 65 66  1  0  0  0  0
M  CHG  1  75   1
M  ISO  4  39 100  61 101  72 100  83 101
M  END
> <Batch ID>
0094

> <Smiles>
CNC(C)C(=O)NC(C(=O)N1Cc2cc([101O:1][101CH2:1]C3CCN(C(=O)c4ccc([100NH:0][100C:0](=O)N5CCCC(n6nc(-c7ccc(Oc8ccc(F)cc8F)cc7)c(C(N)=O)c6N)C5)c(F)c4)C3)ccc2CC1C(=O)NC1CCCc2ccccc21)C(C)(C)C

> <Shape>
0.251

> <Color>
0.076

> <Negative vol penalty>
0.000

$$$$

  -OEChem-04052300403D

 84 92  0     1  0  0  0  0  0999 V2000
  -21.7453  -12.5823   19.3164 C   0  0  0  0  0  0  0  0  0  0  0  0
  -22.0005  -13.7729   18.6434 C   0  0  0  0  0  0  0  0  0  0  0  0
  -24.3012  -23.6316   22.7700 C   0  0  0  0  0  0  0  0  0  0  0  0
  -22.2034  -24.0426   21.6442 C   0  0  0  0  0  0  0  0  0  0  0  0
  -22.3309  -12.3461   20.5594 C   0  0  0  0  0  0  0  0  0  0  0  0
  -22.8408  -14.7284   19.2137 C   0  0  0  0  0  0  0  0  0  0  0  0
  -27.6165  -19.7533   17.4080 C   0  0  0  0  0  0  0  0  0  0  0  0
  -27.5301  -28.7394   21.8184 C   0  0  0  0  0  0  0  0  0  0  0  0
  -27.8218  -27.4553   21.3584 C   0  0  0  0  0  0  0  0  0  0  0  0
  -23.6886  -22.6548   23.5550 C   0  0  0  0  0  0  0  0  0  0  0  0
  -21.5908  -23.0658   22.4292 C   0  0  0  0  0  0  0  0  0  0  0  0
  -27.8930  -21.1029   17.6221 C   0  0  0  0  0  0  0  0  0  0  0  0
  -19.3899  -20.9334   24.3834 C   0  0  0  0  0  0  0  0  0  0  0  0
  -18.1447  -21.2326   24.9360 C   0  0  0  0  0  0  0  0  0  0  0  0
  -28.9121  -20.5523   19.7381 C   0  0  0  0  0  0  0  0  0  0  0  0
  -28.0104  -28.0384   24.0801 C   0  0  0  0  0  0  0  0  0  0  0  0
  -19.1193  -23.0982   26.1222 C   0  0  0  0  0  0  0  0  0  0  0  0
  -23.5586  -24.3255   21.8147 C   0  0  0  0  0  0  0  0  0  0  0  0
  -24.8228  -25.1530   19.7592 C   0  0  0  0  0  0  0  0  0  0  0  0
  -23.1865  -13.2951   21.1408 C   0  0  0  0  0  0  0  0  0  0  0  0
  -27.9766  -18.7926   18.3640 C   0  0  0  0  0  0  0  0  0  0  0  0
  -23.4374  -14.5053   20.4663 C   0  0  0  0  0  0  0  0  0  0  0  0
  -28.6413  -19.1908   19.5326 C   0  0  0  0  0  0  0  0  0  0  0  0
  -27.6244  -29.0310   23.1793 C   0  0  0  0  0  0  0  0  0  0  0  0
  -28.2078  -26.4628   22.2592 C   0  0  0  0  0  0  0  0  0  0  0  0
  -28.3021  -26.7543   23.6201 C   0  0  0  0  0  0  0  0  0  0  0  0
  -22.3334  -22.3719   23.3846 C   0  0  0  0  0  0  0  0  0  0  0  0
  -28.5383  -21.5029   18.7886 C   0  0  0  0  0  0  0  0  0  0  0  0
  -20.4999  -21.7165   24.7003 C   0  0  0  0  0  0  0  0  0  0  0  0
  -18.0093  -22.3150   25.8054 C   0  0  0  0  0  0  0  0  0  0  0  0
  -20.3646  -22.7989   25.5696 C   0  0  0  0  0  0  0  0  0  0  0  0
  -24.1907  -25.3351   21.0039 C   0  0  0  0  0  0  0  0  0  0  0  0
  -25.2564  -26.4079   19.4075 C   0  0  0  0  0  0  0  0  0  0  0  0
  -25.0018  -23.9566   18.9897 C   0  0  0  0  0  0  0  0  0  0  0  0
  -26.3834  -16.7153   20.1670 C   0  0  0  0  0  0  0  0  0  0  0  0
  -29.3646  -15.7219   20.9722 C   0  0  0  0  0  0  0  0  0  0  0  0
  -28.4507  -24.7310   20.4493 C   0  0  0  0  0  0  0  0  0  0  0  0
  -32.6858  -16.4552   21.2519 C   0  0  0  0  0  0  0  0  0  0  0  0
  -26.3951  -31.2120   23.0267 C   0  0  0  0  0  0  0  0  0  0  0  0
  -23.7589  -13.0154   22.5078 C   0  0  0  0  0  0  0  0  0  0  0  0
  -27.6951  -17.3377   18.1059 C   0  0  0  0  0  0  0  0  0  0  0  0
  -29.0669  -18.1965   20.5808 C   0  0  0  0  0  0  0  0  0  0  0  0
  -24.9345  -13.9183   22.8723 C   0  0  0  0  0  0  0  0  0  0  0  0
  -24.2613  -31.0444   20.0081 C   0  0  0  0  0  0  0  0  0  0  0  0
  -24.6129  -15.3725   22.5428 C   0  0  0  0  0  0  0  0  0  0  0  0
  -23.9880  -29.5480   19.8685 C   0  0  0  0  0  0  0  0  0  0  0  0
  -24.4931  -31.4446   21.4620 C   0  0  0  0  0  0  0  0  0  0  0  0
  -25.3047  -29.1634   21.9898 C   0  0  0  0  0  0  0  0  0  0  0  0
  -24.3630  -15.5556   21.0409 C   0  0  1  0  0  0  0  0  0  0  0  0
  -27.6468  -16.5029   19.3819 C   0  0  1  0  0  0  0  0  0  0  0  0
  -25.1079  -28.7280   20.5299 C   0  0  1  0  0  0  0  0  0  0  0  0
  -27.5847  -30.8573   26.0529 C   0  0  0  0  0  0  0  0  0  0  0  0
  -34.8701  -15.4538   21.9755 C   0  0  0  0  0  0  0  0  0  0  0  0
  -28.5621  -16.0883   23.8931 C   0  0  0  0  0  0  0  0  0  0  0  0
  -30.9902  -16.0062   24.4979 C   0  0  0  0  0  0  0  0  0  0  0  0
  -29.9051  -14.0299   23.4305 C   0  0  0  0  0  0  0  0  0  0  0  0
  -33.8539  -16.7608   18.5498 C   0  0  0  0  0  0  0  0  0  0  0  0
  -28.8384  -23.2670   20.3551 C   0  0  0  0  0  0  0  0  0  1  0  0
  -28.1994  -30.9381   24.6702 C   0  0  0  0  0  0  0  0  0  0  0  0
  -30.3624  -16.0930   22.0425 C   0  0  1  0  0  0  0  0  0  0  0  0
  -33.9252  -15.6985   20.8093 C   0  0  2  0  0  0  0  0  0  0  0  0
  -29.9453  -15.5736   23.4473 C   0  0  0  0  0  0  0  0  0  0  0  0
  -24.2183  -26.6055   21.4153 N   0  0  0  0  0  0  0  0  0  0  0  0
  -24.8730  -27.2331   20.4235 N   0  0  0  0  0  0  0  0  0  0  0  0
  -28.7637  -16.7865   20.2854 N   0  0  0  0  0  0  0  0  0  0  0  0
  -25.5194  -30.6157   22.0962 N   0  0  0  0  0  0  0  0  0  0  0  0
  -28.6915  -25.7640   24.5498 N   0  0  0  0  0  0  0  0  0  0  0  0
  -25.9245  -26.8749   18.3315 N   0  0  0  0  0  0  0  0  0  0  0  0
  -24.4941  -22.7531   19.4979 N   0  0  0  0  0  0  0  0  0  0  0  0
  -28.4990  -25.1677   21.7688 N   0  0  0  0  0  0  0  0  0  0  0  0
  -25.6170  -15.5756   20.3187 N   0  0  0  0  0  0  0  0  0  0  0  0
  -31.6563  -15.5998   21.5829 N   0  0  0  0  0  0  0  0  0  0  0  0
  -27.3228  -30.3591   23.6546 N   0  0  0  0  0  0  0  0  0  0  0  0
  -34.6573  -16.4694   19.7649 N   0  3  0  0  0  0  0  0  0  0  0  0
  -25.6088  -23.9519   17.8920 O   0  0  0  0  0  0  0  0  0  0  0  0
  -26.1240  -17.8304   20.6041 O   0  0  0  0  0  0  0  0  0  0  0  0
  -29.1322  -14.5313   20.7486 O   0  0  0  0  0  0  0  0  0  0  0  0
  -28.1469  -25.3805   19.4541 O   0  0  0  0  0  0  0  0  0  0  0  0
  -32.6372  -17.6822   21.3027 O   0  0  0  0  0  0  0  0  0  0  0  0
  -26.3200  -32.4114   23.3204 O   0  0  0  0  0  0  0  0  0  0  0  0
  -21.7354  -21.4186   24.1502 O   0  0  0  0  0  0  0  0  0  0  0  0
  -28.8088  -22.8197   19.0003 O   0  0  0  0  0  0  0  0  0  1  0  0
  -16.8131  -22.6032   26.3347 F   0  0  0  0  0  0  0  0  0  0  0  0
  -21.4271  -23.5555   25.8768 F   0  0  0  0  0  0  0  0  0  0  0  0
  1  2  1  0  0  0  0
  1  5  2  0  0  0  0
  2  6  2  0  0  0  0
  3 10  2  0  0  0  0
  3 18  1  0  0  0  0
  4 11  1  0  0  0  0
  4 18  2  0  0  0  0
  5 20  1  0  0  0  0
  6 22  1  0  0  0  0
  7 12  2  0  0  0  0
  7 21  1  0  0  0  0
  8  9  2  0  0  0  0
  8 24  1  0  0  0  0
  9 25  1  0  0  0  0
 10 27  1  0  0  0  0
 11 27  2  0  0  0  0
 12 28  1  0  0  0  0
 13 14  2  0  0  0  0
 13 29  1  0  0  0  0
 14 30  1  0  0  0  0
 15 23  1  0  0  0  0
 15 28  2  0  0  0  0
 16 24  2  0  0  0  0
 16 26  1  0  0  0  0
 17 30  2  0  0  0  0
 17 31  1  0  0  0  0
 18 32  1  0  0  0  0
 19 32  1  0  0  0  0
 19 33  2  0  0  0  0
 19 34  1  0  0  0  0
 20 22  2  0  0  0  0
 20 40  1  0  0  0  0
 21 23  2  0  0  0  0
 21 41  1  0  0  0  0
 22 49  1  0  0  0  0
 23 42  1  0  0  0  0
 24 73  1  0  0  0  0
 25 26  2  0  0  0  0
 25 70  1  0  0  0  0
 26 67  1  0  0  0  0
 27 81  1  0  0  0  0
 28 82  1  0  0  0  0
 29 31  2  0  0  0  0
 29 81  1  0  0  0  0
 30 83  1  0  0  0  0
 31 84  1  0  0  0  0
 32 63  2  0  0  0  0
 33 64  1  0  0  0  0
 33 68  1  0  0  0  0
 34 69  1  0  0  0  0
 34 75  2  0  0  0  0
 35 50  1  0  0  0  0
 35 71  1  0  0  0  0
 35 76  2  0  0  0  0
 36 60  1  0  0  0  0
 36 65  1  0  0  0  0
 36 77  2  0  0  0  0
 37 58  1  0  0  0  0
 37 70  1  0  0  0  0
 37 78  2  0  0  0  0
 38 61  1  0  0  0  0
 38 72  1  0  0  0  0
 38 79  2  0  0  0  0
 39 66  1  0  0  0  0
 39 73  1  0  0  0  0
 39 80  2  0  0  0  0
 40 43  1  0  0  0  0
 41 50  1  0  0  0  0
 42 65  1  0  0  0  0
 43 45  1  0  0  0  0
 44 46  1  0  0  0  0
 44 47  1  0  0  0  0
 45 49  1  0  0  0  0
 46 51  1  0  0  0  0
 47 66  1  0  0  0  0
 48 51  1  0  0  0  0
 48 66  1  0  0  0  0
 49 71  1  0  0  0  0
 50 65  1  0  0  0  0
 51 64  1  0  0  0  0
 52 59  1  0  0  0  0
 53 61  1  0  0  0  0
 54 62  1  0  0  0  0
 55 62  1  0  0  0  0
 56 62  1  0  0  0  0
 57 74  1  0  0  0  0
 58 82  1  0  0  0  0
 59 73  1  0  0  0  0
 60 62  1  0  0  0  0
 60 72  1  0  0  0  0
 61 74  1  0  0  0  0
 63 64  1  0  0  0  0
M  CHG  1  74   1
M  ISO  4  39 100  58 101  73 100  82 101
M  END
> <Batch ID>
0094

> <Smiles>
CC[100N:0](c1ccc(NC(=O)[101CH2:1][101O:1]c2ccc3c(c2)CN(C(=O)C(NC(=O)C(C)NC)C(C)(C)C)C(C(=O)NC2CCCc4ccccc42)C3)c(N)c1)[100C:0](=O)N1CCCC(n2nc(-c3ccc(Oc4ccc(F)cc4F)cc3)c(C(N)=O)c2N)C1

> <Shape>
0.199

> <Color>
0.053

> <Negative vol penalty>
0.000

$$$$

  -OEChem-04052300403D

 84 92  0     1  0  0  0  0  0999 V2000
  -18.0671  -33.2058   22.6948 C   0  0  0  0  0  0  0  0  0  0  0  0
  -19.3753  -33.0766   23.1502 C   0  0  0  0  0  0  0  0  0  0  0  0
  -26.9461  -11.7106   21.6711 C   0  0  0  0  0  0  0  0  0  0  0  0
  -26.2076  -12.4963   19.5091 C   0  0  0  0  0  0  0  0  0  0  0  0
  -17.2658  -32.0741   22.5497 C   0  0  0  0  0  0  0  0  0  0  0  0
  -19.8826  -31.8156   23.4617 C   0  0  0  0  0  0  0  0  0  0  0  0
  -25.7217  -29.2388   20.1215 C   0  0  0  0  0  0  0  0  0  0  0  0
  -25.8949  -10.7941   21.6971 C   0  0  0  0  0  0  0  0  0  0  0  0
  -25.1564  -11.5799   19.5351 C   0  0  0  0  0  0  0  0  0  0  0  0
  -26.9559  -28.7630   19.6781 C   0  0  0  0  0  0  0  0  0  0  0  0
  -23.1931   -8.4943   22.4939 C   0  0  0  0  0  0  0  0  0  0  0  0
  -22.4629   -8.3761   23.6764 C   0  0  0  0  0  0  0  0  0  0  0  0
  -26.6363  -26.7257   20.9412 C   0  0  0  0  0  0  0  0  0  0  0  0
  -28.8408  -21.8297   18.5241 C   0  0  0  0  0  0  0  0  0  0  0  0
  -27.8282  -21.0786   16.0355 C   0  0  0  0  0  0  0  0  0  0  0  0
  -21.8453  -10.7071   23.5280 C   0  0  0  0  0  0  0  0  0  0  0  0
  -27.1024  -12.5617   20.5771 C   0  0  0  0  0  0  0  0  0  0  0  0
  -29.4815  -13.3050   20.0336 C   0  0  0  0  0  0  0  0  0  0  0  0
  -17.7666  -30.7976   22.8504 C   0  0  0  0  0  0  0  0  0  0  0  0
  -24.9323  -28.4523   20.9651 C   0  0  0  0  0  0  0  0  0  0  0  0
  -19.0868  -30.6659   23.3217 C   0  0  0  0  0  0  0  0  0  0  0  0
  -25.3936  -27.1917   21.3785 C   0  0  0  0  0  0  0  0  0  0  0  0
  -29.1132  -22.6054   17.3974 C   0  0  0  0  0  0  0  0  0  0  0  0
  -28.0622  -20.6783   18.4066 C   0  0  0  0  0  0  0  0  0  0  0  0
  -28.6069  -22.2299   16.1531 C   0  0  0  0  0  0  0  0  0  0  0  0
  -25.0000  -10.7287   20.6291 C   0  0  0  0  0  0  0  0  0  0  0  0
  -27.4121  -27.5097   20.0871 C   0  0  0  0  0  0  0  0  0  0  0  0
  -23.2495   -9.7189   21.8284 C   0  0  0  0  0  0  0  0  0  0  0  0
  -21.7890   -9.4825   24.1935 C   0  0  0  0  0  0  0  0  0  0  0  0
  -27.5559  -20.3028   17.1623 C   0  0  0  0  0  0  0  0  0  0  0  0
  -22.5756  -10.8253   22.3455 C   0  0  0  0  0  0  0  0  0  0  0  0
  -28.1878  -13.5090   20.5499 C   0  0  0  0  0  0  0  0  0  0  0  0
  -30.1279  -14.4982   20.2455 C   0  0  0  0  0  0  0  0  0  0  0  0
  -30.0482  -12.1410   19.4174 C   0  0  0  0  0  0  0  0  0  0  0  0
  -21.7269  -28.1178   22.8860 C   0  0  0  0  0  0  0  0  0  0  0  0
  -29.1478  -25.1282   17.5327 C   0  0  0  0  0  0  0  0  0  0  0  0
  -22.2999  -25.3806   21.6251 C   0  0  0  0  0  0  0  0  0  0  0  0
  -23.0701  -22.6563   19.7219 C   0  0  0  0  0  0  0  0  0  0  0  0
  -28.2134  -20.1252   20.8597 C   0  0  0  0  0  0  0  0  0  0  0  0
  -16.8475  -29.6086   22.7227 C   0  0  0  0  0  0  0  0  0  0  0  0
  -23.6239  -28.9502   21.5167 C   0  0  0  0  0  0  0  0  0  0  0  0
  -24.5262  -26.3950   22.3143 C   0  0  0  0  0  0  0  0  0  0  0  0
  -17.5808  -28.2698   22.7174 C   0  0  0  0  0  0  0  0  0  0  0  0
  -30.1556  -18.2696   23.1968 C   0  0  0  0  0  0  0  0  0  0  0  0
  -18.6174  -28.2243   23.8355 C   0  0  0  0  0  0  0  0  0  0  0  0
  -29.9940  -16.8202   22.7326 C   0  0  0  0  0  0  0  0  0  0  0  0
  -28.8681  -19.0709   23.0126 C   0  0  0  0  0  0  0  0  0  0  0  0
  -28.1352  -17.5764   21.1964 C   0  0  0  0  0  0  0  0  0  0  0  0
  -19.6811  -29.3126   23.6463 C   0  0  1  0  0  0  0  0  0  0  0  0
  -22.5750  -27.8358   21.6808 C   0  0  1  0  0  0  0  0  0  0  0  0
  -29.4252  -16.7467   21.3020 C   0  0  2  0  0  0  0  0  0  0  0  0
  -22.2714  -20.3386   19.1857 C   0  0  0  0  0  0  0  0  0  0  0  0
  -23.3733  -24.3949   24.3046 C   0  0  0  0  0  0  0  0  0  0  0  0
  -23.4360  -22.0820   23.3482 C   0  0  0  0  0  0  0  0  0  0  0  0
  -21.2609  -23.2857   23.5548 C   0  0  0  0  0  0  0  0  0  0  0  0
  -22.7002  -23.3203   16.8616 C   0  0  0  0  0  0  0  0  0  0  0  0
  -29.9568  -23.8435   17.5531 C   0  0  0  0  0  0  0  0  0  0  0  0
  -29.9205  -26.4196   17.7292 C   0  0  0  0  0  0  0  0  0  0  0  0
  -29.0472  -27.4896   18.3598 C   0  0  0  0  0  0  0  0  0  1  0  0
  -22.9190  -24.0159   21.7914 C   0  0  1  0  0  0  0  0  0  0  0  0
  -22.2248  -21.8064   18.7905 C   0  0  2  0  0  0  0  0  0  0  0  0
  -22.7613  -23.4659   23.2371 C   0  0  0  0  0  0  0  0  0  0  0  0
  -28.0205  -14.7353   21.0521 N   0  0  0  0  0  0  0  0  0  0  0  0
  -29.2176  -15.3125   20.8525 N   0  0  0  0  0  0  0  0  0  0  0  0
  -23.1192  -26.4839   21.8934 N   0  0  0  0  0  0  0  0  0  0  0  0
  -28.3905  -18.9582   21.6327 N   0  0  0  0  0  0  0  0  0  0  0  0
  -28.8725  -23.0030   15.0015 N   0  0  0  0  0  0  0  0  0  0  0  0
  -31.3804  -14.9197   19.9700 N   0  0  0  0  0  0  0  0  0  0  0  0
  -29.2451  -11.0008   19.2782 N   0  0  0  0  0  0  0  0  0  0  0  0
  -27.7870  -19.8918   19.5526 N   0  0  0  0  0  0  0  0  0  0  0  0
  -20.6311  -28.9190   22.6279 N   0  0  0  0  0  0  0  0  0  0  0  0
  -22.3248  -23.1699   20.7621 N   0  0  0  0  0  0  0  0  0  0  0  0
  -22.7139  -21.9313   17.3883 N   0  3  0  0  0  0  0  0  0  0  0  0
  -31.2366  -12.1074   19.0175 O   0  0  0  0  0  0  0  0  0  0  0  0
  -22.0417  -27.6427   23.9709 O   0  0  0  0  0  0  0  0  0  0  0  0
  -27.9300  -25.1483   17.3519 O   0  0  0  0  0  0  0  0  0  0  0  0
  -21.1204  -25.4689   21.2725 O   0  0  0  0  0  0  0  0  0  0  0  0
  -24.2722  -22.8427   19.5465 O   0  0  0  0  0  0  0  0  0  0  0  0
  -28.4506  -21.2471   21.3146 O   0  0  0  0  0  0  0  0  0  0  0  0
  -23.9743   -9.8344   20.6541 O   0  0  0  0  0  0  0  0  0  0  0  0
  -28.6159  -27.0494   19.6469 O   0  0  0  0  0  0  0  0  0  1  0  0
  -21.0865   -9.3684   25.3282 F   0  0  0  0  0  0  0  0  0  0  0  0
  -26.8064  -19.1981   17.0375 F   0  0  0  0  0  0  0  0  0  0  0  0
  -22.6251  -12.0041   21.7100 F   0  0  0  0  0  0  0  0  0  0  0  0
  1  2  1  0  0  0  0
  1  5  2  0  0  0  0
  2  6  2  0  0  0  0
  3  8  2  0  0  0  0
  3 17  1  0  0  0  0
  4  9  1  0  0  0  0
  4 17  2  0  0  0  0
  5 19  1  0  0  0  0
  6 21  1  0  0  0  0
  7 10  2  0  0  0  0
  7 20  1  0  0  0  0
  8 26  1  0  0  0  0
  9 26  2  0  0  0  0
 10 27  1  0  0  0  0
 11 12  2  0  0  0  0
 11 28  1  0  0  0  0
 12 29  1  0  0  0  0
 13 22  1  0  0  0  0
 13 27  2  0  0  0  0
 14 23  1  0  0  0  0
 14 24  2  0  0  0  0
 15 25  1  0  0  0  0
 15 30  2  0  0  0  0
 16 29  2  0  0  0  0
 16 31  1  0  0  0  0
 17 32  1  0  0  0  0
 18 32  1  0  0  0  0
 18 33  2  0  0  0  0
 18 34  1  0  0  0  0
 19 21  2  0  0  0  0
 19 40  1  0  0  0  0
 20 22  2  0  0  0  0
 20 41  1  0  0  0  0
 21 49  1  0  0  0  0
 22 42  1  0  0  0  0
 23 25  2  0  0  0  0
 23 57  1  0  0  0  0
 24 30  1  0  0  0  0
 24 70  1  0  0  0  0
 25 67  1  0  0  0  0
 26 80  1  0  0  0  0
 27 81  1  0  0  0  0
 28 31  2  0  0  0  0
 28 80  1  0  0  0  0
 29 82  1  0  0  0  0
 30 83  1  0  0  0  0
 31 84  1  0  0  0  0
 32 63  2  0  0  0  0
 33 64  1  0  0  0  0
 33 68  1  0  0  0  0
 34 69  1  0  0  0  0
 34 74  2  0  0  0  0
 35 50  1  0  0  0  0
 35 71  1  0  0  0  0
 35 75  2  0  0  0  0
 36 57  1  0  0  0  0
 36 58  1  0  0  0  0
 36 76  2  0  0  0  0
 37 60  1  0  0  0  0
 37 65  1  0  0  0  0
 37 77  2  0  0  0  0
 38 61  1  0  0  0  0
 38 72  1  0  0  0  0
 38 78  2  0  0  0  0
 39 66  1  0  0  0  0
 39 70  1  0  0  0  0
 39 79  2  0  0  0  0
 40 43  1  0  0  0  0
 41 50  1  0  0  0  0
 42 65  1  0  0  0  0
 43 45  1  0  0  0  0
 44 46  1  0  0  0  0
 44 47  1  0  0  0  0
 45 49  1  0  0  0  0
 46 51  1  0  0  0  0
 47 66  1  0  0  0  0
 48 51  1  0  0  0  0
 48 66  1  0  0  0  0
 49 71  1  0  0  0  0
 50 65  1  0  0  0  0
 51 64  1  0  0  0  0
 52 61  1  0  0  0  0
 53 62  1  0  0  0  0
 54 62  1  0  0  0  0
 55 62  1  0  0  0  0
 56 73  1  0  0  0  0
 58 59  1  0  0  0  0
 59 81  1  0  0  0  0
 60 62  1  0  0  0  0
 60 72  1  0  0  0  0
 61 73  1  0  0  0  0
 63 64  1  0  0  0  0
M  CHG  1  73   1
M  ISO  4  39 100  59 101  70 100  81 101
M  END
> <Batch ID>
0094

> <Smiles>
CNC(C)C(=O)NC(C(=O)N1Cc2cc([101O:1][101CH2:1]CC(=O)Cc3cc([100NH:0][100C:0](=O)N4CCCC(n5nc(-c6ccc(Oc7ccc(F)cc7F)cc6)c(C(N)=O)c5N)C4)c(F)cc3N)ccc2CC1C(=O)NC1CCCc2ccccc21)C(C)(C)C

> <Shape>
0.261

> <Color>
0.072

> <Negative vol penalty>
0.000

$$$$

  -OEChem-04052300403D

 87 96  0     1  0  0  0  0  0999 V2000
  -22.4595   -8.5134   20.7015 C   0  0  0  0  0  0  0  0  0  0  0  0
  -21.8624   -9.7395   20.9763 C   0  0  0  0  0  0  0  0  0  0  0  0
  -25.3011  -25.8244   17.0192 C   0  0  0  0  0  0  0  0  0  0  0  0
  -26.8102  -27.5266   16.2056 C   0  0  0  0  0  0  0  0  0  0  0  0
  -18.7385  -26.9222   23.5624 C   0  0  0  0  0  0  0  0  0  0  0  0
  -23.8355   -8.3575   20.8637 C   0  0  0  0  0  0  0  0  0  0  0  0
  -22.6409  -10.8102   21.4146 C   0  0  0  0  0  0  0  0  0  0  0  0
  -21.8021  -16.7396   20.1322 C   0  0  0  0  0  0  0  0  0  0  0  0
  -18.4436  -25.5608   23.4908 C   0  0  0  0  0  0  0  0  0  0  0  0
  -25.2147  -25.2871   15.7350 C   0  0  0  0  0  0  0  0  0  0  0  0
  -26.7239  -26.9892   14.9212 C   0  0  0  0  0  0  0  0  0  0  0  0
  -21.2037  -17.7778   20.8447 C   0  0  0  0  0  0  0  0  0  0  0  0
  -24.8805  -23.2499   12.7427 C   0  0  0  0  0  0  0  0  0  0  0  0
  -24.9731  -21.8644   12.6119 C   0  0  0  0  0  0  0  0  0  0  0  0
  -23.3679  -18.4499   21.6715 C   0  0  0  0  0  0  0  0  0  0  0  0
  -20.7243  -25.1010   22.8394 C   0  0  0  0  0  0  0  0  0  0  0  0
  -27.1766  -21.9182   13.6013 C   0  0  0  0  0  0  0  0  0  0  0  0
  -26.0988  -26.9442   17.2545 C   0  0  0  0  0  0  0  0  0  0  0  0
  -20.0263  -27.3731   23.2725 C   0  0  0  0  0  0  0  0  0  0  0  0
  -27.1140  -27.1594   19.5849 C   0  0  0  0  0  0  0  0  0  0  0  0
  -24.6326   -9.4295   21.2949 C   0  0  0  0  0  0  0  0  0  0  0  0
  -23.1891  -16.5417   20.1928 C   0  0  0  0  0  0  0  0  0  0  0  0
  -24.0286  -10.6681   21.5840 C   0  0  0  0  0  0  0  0  0  0  0  0
  -23.9818  -17.4100   20.9568 C   0  0  0  0  0  0  0  0  0  0  0  0
  -19.4365  -24.6502   23.1293 C   0  0  0  0  0  0  0  0  0  0  0  0
  -25.9261  -25.8694   14.6860 C   0  0  0  0  0  0  0  0  0  0  0  0
  -21.9862  -18.6314   21.6168 C   0  0  0  0  0  0  0  0  0  0  0  0
  -25.9360  -23.9697   13.3028 C   0  0  0  0  0  0  0  0  0  0  0  0
  -26.1211  -21.1985   13.0412 C   0  0  0  0  0  0  0  0  0  0  0  0
  -21.0192  -26.4625   22.9110 C   0  0  0  0  0  0  0  0  0  0  0  0
  -27.0840  -23.3038   13.7321 C   0  0  0  0  0  0  0  0  0  0  0  0
  -26.1880  -27.5001   18.5809 C   0  0  0  0  0  0  0  0  0  0  0  0
  -26.7805  -27.9639   20.6470 C   0  0  0  0  0  0  0  0  0  0  0  0
  -17.8904  -22.6538   23.3177 C   0  0  0  0  0  0  0  0  0  0  0  0
  -20.3350  -28.8243   23.3474 C   0  0  0  0  0  0  0  0  0  0  0  0
  -28.1804  -26.2013   19.5598 C   0  0  0  0  0  0  0  0  0  0  0  0
  -25.0776  -14.1896   21.1952 C   0  0  0  0  0  0  0  0  0  0  0  0
  -27.4161  -16.0611   19.9495 C   0  0  0  0  0  0  0  0  0  0  0  0
  -28.4486  -19.1816   19.0315 C   0  0  0  0  0  0  0  0  0  0  0  0
  -21.7396  -30.6067   22.3606 C   0  0  0  0  0  0  0  0  0  0  0  0
  -26.1089   -9.1996   21.5008 C   0  0  0  0  0  0  0  0  0  0  0  0
  -23.8224  -15.4335   19.3971 C   0  0  0  0  0  0  0  0  0  0  0  0
  -25.4775  -17.2527   21.0391 C   0  0  0  0  0  0  0  0  0  0  0  0
  -18.0308  -21.1798   23.0132 C   0  0  0  0  0  0  0  0  0  0  0  0
  -26.9169  -10.4901   21.6099 C   0  0  0  0  0  0  0  0  0  0  0  0
  -24.8066  -32.2152   21.6510 C   0  0  0  0  0  0  0  0  0  0  0  0
  -26.2321  -11.4703   22.5570 C   0  0  0  0  0  0  0  0  0  0  0  0
  -25.6029  -31.1536   20.8873 C   0  0  0  0  0  0  0  0  0  0  0  0
  -23.3230  -32.1830   21.2864 C   0  0  0  0  0  0  0  0  0  0  0  0
  -20.1083  -22.2791   22.6093 C   0  0  0  0  0  0  0  0  0  0  0  0
  -23.4756  -29.8125   20.6421 C   0  0  0  0  0  0  0  0  0  0  0  0
  -24.8430  -11.8602   22.0376 C   0  0  1  0  0  0  0  0  0  0  0  0
  -25.1835  -15.0100   19.9408 C   0  0  1  0  0  0  0  0  0  0  0  0
  -19.5339  -20.9462   23.0643 C   0  0  2  0  0  0  0  0  0  0  0  0
  -24.9630  -29.7576   21.0265 C   0  0  1  0  0  0  0  0  0  0  0  0
  -29.9323  -20.9449   18.0381 C   0  0  0  0  0  0  0  0  0  0  0  0
  -28.8240  -15.8837   22.6507 C   0  0  0  0  0  0  0  0  0  0  0  0
  -30.2363  -17.8336   21.9642 C   0  0  0  0  0  0  0  0  0  0  0  0
  -30.3403  -15.7036   20.6701 C   0  0  0  0  0  0  0  0  0  0  0  0
  -27.2347  -18.8579   16.3518 C   0  0  0  0  0  0  0  0  0  0  0  0
  -19.9874  -19.7763   22.2084 C   0  0  0  0  0  0  0  0  0  1  0  0
  -28.2913  -17.1720   20.4776 C   0  0  1  0  0  0  0  0  0  0  0  0
  -29.1172  -19.6900   17.7670 C   0  0  2  0  0  0  0  0  0  0  0  0
  -29.3946  -16.6503   21.4409 C   0  0  0  0  0  0  0  0  0  0  0  0
  -25.3305  -28.4472   18.9703 N   0  0  0  0  0  0  0  0  0  0  0  0
  -25.7162  -28.7084   20.2308 N   0  0  0  0  0  0  0  0  0  0  0  0
  -19.1346  -23.2575   23.0561 N   0  0  0  0  0  0  0  0  0  0  0  0
  -26.0491  -16.1503   20.2482 N   0  0  0  0  0  0  0  0  0  0  0  0
  -22.7907  -30.8296   21.4540 N   0  0  0  0  0  0  0  0  0  0  0  0
  -27.2967  -28.1000   21.8869 N   0  0  0  0  0  0  0  0  0  0  0  0
  -28.3845  -25.4593   18.3884 N   0  0  0  0  0  0  0  0  0  0  0  0
  -21.3309  -29.2737   22.4799 N   0  0  0  0  0  0  0  0  0  0  0  0
  -24.9566  -12.8315   20.9708 N   0  0  0  0  0  0  0  0  0  0  0  0
  -28.8039  -17.8785   19.3086 N   0  0  0  0  0  0  0  0  0  0  0  0
  -28.0934  -20.0090   16.7321 N   0  3  0  0  0  0  0  0  0  0  0  0
  -16.8302  -23.1535   23.6657 O   0  0  0  0  0  0  0  0  0  0  0  0
  -19.6906  -29.5339   24.1149 O   0  0  0  0  0  0  0  0  0  0  0  0
  -28.9197  -25.9972   20.5524 O   0  0  0  0  0  0  0  0  0  0  0  0
  -25.1053  -14.7474   22.2860 O   0  0  0  0  0  0  0  0  0  0  0  0
  -27.9254  -15.1514   19.2902 O   0  0  0  0  0  0  0  0  0  0  0  0
  -27.6902  -19.8727   19.7080 O   0  0  0  0  0  0  0  0  0  0  0  0
  -21.2341  -31.5101   23.0340 O   0  0  0  0  0  0  0  0  0  0  0  0
  -25.8422  -25.3452   13.4327 O   0  0  0  0  0  0  0  0  0  0  0  0
  -21.4045  -19.6452   22.3137 O   0  0  0  0  0  0  0  0  0  1  0  0
  -26.2093  -19.8677   12.9169 F   0  0  0  0  0  0  0  0  0  0  0  0
  -22.2603  -26.8846   22.6298 F   0  0  0  0  0  0  0  0  0  0  0  0
  -28.1007  -23.9898   14.2720 F   0  0  0  0  0  0  0  0  0  0  0  0
  1  2  1  0  0  0  0
  1  6  2  0  0  0  0
  2  7  2  0  0  0  0
  3 10  2  0  0  0  0
  3 18  1  0  0  0  0
  4 11  1  0  0  0  0
  4 18  2  0  0  0  0
  5  9  2  0  0  0  0
  5 19  1  0  0  0  0
  6 21  1  0  0  0  0
  7 23  1  0  0  0  0
  8 12  2  0  0  0  0
  8 22  1  0  0  0  0
  9 25  1  0  0  0  0
 10 26  1  0  0  0  0
 11 26  2  0  0  0  0
 12 27  1  0  0  0  0
 13 14  2  0  0  0  0
 13 28  1  0  0  0  0
 14 29  1  0  0  0  0
 15 24  1  0  0  0  0
 15 27  2  0  0  0  0
 16 25  2  0  0  0  0
 16 30  1  0  0  0  0
 17 29  2  0  0  0  0
 17 31  1  0  0  0  0
 18 32  1  0  0  0  0
 19 30  2  0  0  0  0
 19 35  1  0  0  0  0
 20 32  1  0  0  0  0
 20 33  2  0  0  0  0
 20 36  1  0  0  0  0
 21 23  2  0  0  0  0
 21 41  1  0  0  0  0
 22 24  2  0  0  0  0
 22 42  1  0  0  0  0
 23 52  1  0  0  0  0
 24 43  1  0  0  0  0
 25 67  1  0  0  0  0
 26 83  1  0  0  0  0
 27 84  1  0  0  0  0
 28 31  2  0  0  0  0
 28 83  1  0  0  0  0
 29 85  1  0  0  0  0
 30 86  1  0  0  0  0
 31 87  1  0  0  0  0
 32 65  2  0  0  0  0
 33 66  1  0  0  0  0
 33 70  1  0  0  0  0
 34 44  1  0  0  0  0
 34 67  1  0  0  0  0
 34 76  2  0  0  0  0
 35 72  1  0  0  0  0
 35 77  2  0  0  0  0
 36 71  1  0  0  0  0
 36 78  2  0  0  0  0
 37 53  1  0  0  0  0
 37 73  1  0  0  0  0
 37 79  2  0  0  0  0
 38 62  1  0  0  0  0
 38 68  1  0  0  0  0
 38 80  2  0  0  0  0
 39 63  1  0  0  0  0
 39 74  1  0  0  0  0
 39 81  2  0  0  0  0
 40 69  1  0  0  0  0
 40 72  1  0  0  0  0
 40 82  2  0  0  0  0
 41 45  1  0  0  0  0
 42 53  1  0  0  0  0
 43 68  1  0  0  0  0
 44 54  1  0  0  0  0
 45 47  1  0  0  0  0
 46 48  1  0  0  0  0
 46 49  1  0  0  0  0
 47 52  1  0  0  0  0
 48 55  1  0  0  0  0
 49 69  1  0  0  0  0
 50 54  1  0  0  0  0
 50 67  1  0  0  0  0
 51 55  1  0  0  0  0
 51 69  1  0  0  0  0
 52 73  1  0  0  0  0
 53 68  1  0  0  0  0
 54 61  1  0  0  0  0
 55 66  1  0  0  0  0
 56 63  1  0  0  0  0
 57 64  1  0  0  0  0
 58 64  1  0  0  0  0
 59 64  1  0  0  0  0
 60 75  1  0  0  0  0
 61 84  1  0  0  0  0
 62 64  1  0  0  0  0
 62 74  1  0  0  0  0
 63 75  1  0  0  0  0
 65 66  1  0  0  0  0
M  CHG  1  75   1
M  ISO  4  40 100  61 101  72 100  84 101
M  END
> <Batch ID>
0094

> <Smiles>
CNC(C)C(=O)NC(C(=O)N1Cc2cc([101O:1][101CH2:1]C3CC(=O)N(c4ccc(C(=O)[100NH:0][100C:0](=O)N5CCCC(n6nc(-c7ccc(Oc8ccc(F)cc8F)cc7)c(C(N)=O)c6N)C5)c(F)c4)C3)ccc2CC1C(=O)NC1CCCc2ccccc21)C(C)(C)C

> <Shape>
0.233

> <Color>
0.062

> <Negative vol penalty>
0.000

$$$$

  -OEChem-04052300403D

 85 94  0     1  0  0  0  0  0999 V2000
  -28.7076  -36.1284   20.3949 C   0  0  0  0  0  0  0  0  0  0  0  0
  -28.8926  -34.7594   20.5588 C   0  0  0  0  0  0  0  0  0  0  0  0
  -26.2114  -11.6837   21.0334 C   0  0  0  0  0  0  0  0  0  0  0  0
  -25.6154  -13.8154   20.0651 C   0  0  0  0  0  0  0  0  0  0  0  0
  -27.6228  -36.7614   21.0002 C   0  0  0  0  0  0  0  0  0  0  0  0
  -27.9935  -34.0227   21.3290 C   0  0  0  0  0  0  0  0  0  0  0  0
  -26.6579  -29.6658   19.1202 C   0  0  0  0  0  0  0  0  0  0  0  0
  -24.8976  -11.5148   21.4704 C   0  0  0  0  0  0  0  0  0  0  0  0
  -24.3015  -13.6465   20.5021 C   0  0  0  0  0  0  0  0  0  0  0  0
  -27.5684  -28.6122   19.1882 C   0  0  0  0  0  0  0  0  0  0  0  0
  -21.9298  -10.5889   20.1409 C   0  0  0  0  0  0  0  0  0  0  0  0
  -21.3350   -9.3433   19.9403 C   0  0  0  0  0  0  0  0  0  0  0  0
  -26.3084  -27.6487   21.0058 C   0  0  0  0  0  0  0  0  0  0  0  0
  -30.5756  -21.5460   20.3348 C   0  0  0  0  0  0  0  0  0  0  0  0
  -32.3310  -20.1967   22.0320 C   0  0  0  0  0  0  0  0  0  0  0  0
  -21.0211   -9.1091   22.3243 C   0  0  0  0  0  0  0  0  0  0  0  0
  -26.5703  -12.8341   20.3308 C   0  0  0  0  0  0  0  0  0  0  0  0
  -28.4728  -12.6023   18.6472 C   0  0  0  0  0  0  0  0  0  0  0  0
  -26.7045  -36.0305   21.7703 C   0  0  0  0  0  0  0  0  0  0  0  0
  -25.5701  -29.7247   20.0031 C   0  0  0  0  0  0  0  0  0  0  0  0
  -26.8962  -34.6468   21.9464 C   0  0  0  0  0  0  0  0  0  0  0  0
  -25.3841  -28.7029   20.9452 C   0  0  0  0  0  0  0  0  0  0  0  0
  -31.2960  -22.2526   21.2978 C   0  0  0  0  0  0  0  0  0  0  0  0
  -30.7328  -20.1647   20.2204 C   0  0  0  0  0  0  0  0  0  0  0  0
  -31.6106  -19.4901   21.0690 C   0  0  0  0  0  0  0  0  0  0  0  0
  -23.9427  -12.4962   21.2048 C   0  0  0  0  0  0  0  0  0  0  0  0
  -27.3953  -27.6049   20.1330 C   0  0  0  0  0  0  0  0  0  0  0  0
  -22.0704  -11.0945   21.4333 C   0  0  0  0  0  0  0  0  0  0  0  0
  -20.8806   -8.6034   21.0319 C   0  0  0  0  0  0  0  0  0  0  0  0
  -32.1737  -21.5779   22.1464 C   0  0  0  0  0  0  0  0  0  0  0  0
  -21.6160  -10.3547   22.5250 C   0  0  0  0  0  0  0  0  0  0  0  0
  -27.9274  -13.0094   19.8795 C   0  0  0  0  0  0  0  0  0  0  0  0
  -29.7869  -12.9975   18.7060 C   0  0  0  0  0  0  0  0  0  0  0  0
  -30.3008  -25.7689   21.1685 C   0  0  0  0  0  0  0  0  0  0  0  0
  -29.3665  -26.7145   21.0231 C   0  0  0  0  0  0  0  0  0  1  0  0
  -27.8475  -11.9275   17.5476 C   0  0  0  0  0  0  0  0  0  0  0  0
  -24.6144  -31.7567   22.2529 C   0  0  0  0  0  0  0  0  0  0  0  0
  -22.0040  -29.8327   22.3332 C   0  0  0  0  0  0  0  0  0  0  0  0
  -20.6516  -26.7577   21.7313 C   0  0  0  0  0  0  0  0  0  0  0  0
  -32.6277  -17.2868   21.7452 C   0  0  0  0  0  0  0  0  0  0  0  0
  -25.5737  -36.7667   22.4441 C   0  0  0  0  0  0  0  0  0  0  0  0
  -24.5820  -30.8539   19.8992 C   0  0  0  0  0  0  0  0  0  0  0  0
  -24.2214  -28.7089   21.9025 C   0  0  0  0  0  0  0  0  0  0  0  0
  -31.5022  -25.8752   22.0536 C   0  0  0  0  0  0  0  0  0  0  0  0
  -30.2399  -24.3993   20.5618 C   0  0  0  0  0  0  0  0  0  0  0  0
  -24.4570  -35.8494   22.9359 C   0  0  0  0  0  0  0  0  0  0  0  0
  -33.3207  -13.7956   21.8381 C   0  0  0  0  0  0  0  0  0  0  0  0
  -25.0390  -34.6502   23.6775 C   0  0  0  0  0  0  0  0  0  0  0  0
  -32.0684  -13.1611   21.2287 C   0  0  0  0  0  0  0  0  0  0  0  0
  -31.7519  -24.4263   22.4626 C   0  0  0  0  0  0  0  0  0  0  0  0
  -32.9801  -15.0162   22.6914 C   0  0  0  0  0  0  0  0  0  0  0  0
  -30.9115  -15.4006   21.4099 C   0  0  0  0  0  0  0  0  0  0  0  0
  -25.9286  -33.8091   22.7540 C   0  0  1  0  0  0  0  0  0  0  0  0
  -23.7975  -31.0820   21.1875 C   0  0  1  0  0  0  0  0  0  0  0  0
  -31.2101  -14.2061   20.4892 C   0  0  2  0  0  0  0  0  0  0  0  0
  -18.5032  -25.4768   21.9334 C   0  0  0  0  0  0  0  0  0  0  0  0
  -22.4514  -29.5613   25.3392 C   0  0  0  0  0  0  0  0  0  0  0  0
  -20.9194  -27.5812   25.3179 C   0  0  0  0  0  0  0  0  0  0  0  0
  -20.0592  -29.8286   24.6604 C   0  0  0  0  0  0  0  0  0  0  0  0
  -20.5141  -26.3012   18.8104 C   0  0  0  0  0  0  0  0  0  0  0  0
  -21.6143  -28.5908   23.0979 C   0  0  1  0  0  0  0  0  0  0  0  0
  -19.3712  -26.3400   21.0310 C   0  0  2  0  0  0  0  0  0  0  0  0
  -21.2842  -28.8911   24.5872 C   0  0  0  0  0  0  0  0  0  0  0  0
  -28.8220  -13.6164   20.6640 N   0  0  0  0  0  0  0  0  0  0  0  0
  -29.9428  -13.5936   19.9228 N   0  0  0  0  0  0  0  0  0  0  0  0
  -31.1382  -23.6200   21.4101 N   0  0  3  0  0  0  0  0  0  0  0  0
  -23.2861  -29.8376   21.7656 N   0  0  0  0  0  0  0  0  0  0  0  0
  -32.1695  -15.9643   21.9240 N   0  0  0  0  0  0  0  0  0  0  0  0
  -29.9929  -19.4681   19.2386 N   0  0  0  0  0  0  0  0  0  0  0  0
  -30.8128  -12.8896   17.8352 N   0  0  0  0  0  0  0  0  0  0  0  0
  -26.4901  -11.5947   17.6526 N   0  0  0  0  0  0  0  0  0  0  0  0
  -31.7891  -18.0878   20.9709 N   0  0  0  0  0  0  0  0  0  0  0  0
  -25.1174  -32.9887   21.8805 N   0  0  0  0  0  0  0  0  0  0  0  0
  -20.5176  -27.9807   22.3540 N   0  0  0  0  0  0  0  0  0  0  0  0
  -19.6847  -25.5639   19.7980 N   0  3  0  0  0  0  0  0  0  0  0  0
  -28.4780  -11.6137   16.5095 O   0  0  0  0  0  0  0  0  0  0  0  0
  -24.7753  -31.2013   23.3334 O   0  0  0  0  0  0  0  0  0  0  0  0
  -21.1978  -30.7614   22.2367 O   0  0  0  0  0  0  0  0  0  0  0  0
  -21.6678  -26.0664   21.7296 O   0  0  0  0  0  0  0  0  0  0  0  0
  -33.6994  -17.6720   22.2197 O   0  0  0  0  0  0  0  0  0  0  0  0
  -22.6605  -12.3316   21.6309 O   0  0  0  0  0  0  0  0  0  0  0  0
  -28.2829  -26.5757   20.2020 O   0  0  0  0  0  0  0  0  0  1  0  0
  -20.3079   -7.4080   20.8390 F   0  0  0  0  0  0  0  0  0  0  0  0
  -32.8728  -22.2475   23.0739 F   0  0  0  0  0  0  0  0  0  0  0  0
  -21.7473  -10.8358   23.7688 F   0  0  0  0  0  0  0  0  0  0  0  0
  1  2  1  0  0  0  0
  1  5  2  0  0  0  0
  2  6  2  0  0  0  0
  3  8  2  0  0  0  0
  3 17  1  0  0  0  0
  4  9  1  0  0  0  0
  4 17  2  0  0  0  0
  5 19  1  0  0  0  0
  6 21  1  0  0  0  0
  7 10  2  0  0  0  0
  7 20  1  0  0  0  0
  8 26  1  0  0  0  0
  9 26  2  0  0  0  0
 10 27  1  0  0  0  0
 11 12  2  0  0  0  0
 11 28  1  0  0  0  0
 12 29  1  0  0  0  0
 13 22  1  0  0  0  0
 13 27  2  0  0  0  0
 14 23  1  0  0  0  0
 14 24  2  0  0  0  0
 15 25  2  0  0  0  0
 15 30  1  0  0  0  0
 16 29  2  0  0  0  0
 16 31  1  0  0  0  0
 17 32  1  0  0  0  0
 18 32  1  0  0  0  0
 18 33  2  0  0  0  0
 18 36  1  0  0  0  0
 19 21  2  0  0  0  0
 19 41  1  0  0  0  0
 20 22  2  0  0  0  0
 20 42  1  0  0  0  0
 21 53  1  0  0  0  0
 22 43  1  0  0  0  0
 23 30  2  0  0  0  0
 23 66  1  0  0  0  0
 24 25  1  0  0  0  0
 24 69  1  0  0  0  0
 25 72  1  0  0  0  0
 26 81  1  0  0  0  0
 27 82  1  0  0  0  0
 28 31  2  0  0  0  0
 28 81  1  0  0  0  0
 29 83  1  0  0  0  0
 30 84  1  0  0  0  0
 31 85  1  0  0  0  0
 32 64  2  0  0  0  0
 33 65  1  0  0  0  0
 33 70  1  0  0  0  0
 34 35  2  0  0  0  0
 34 44  1  0  0  0  0
 34 45  1  0  0  0  0
 35 82  1  0  0  0  0
 36 71  1  0  0  0  0
 36 76  2  0  0  0  0
 37 54  1  0  0  0  0
 37 73  1  0  0  0  0
 37 77  2  0  0  0  0
 38 61  1  0  0  0  0
 38 67  1  0  0  0  0
 38 78  2  0  0  0  0
 39 62  1  0  0  0  0
 39 74  1  0  0  0  0
 39 79  2  0  0  0  0
 40 68  1  0  0  0  0
 40 72  1  0  0  0  0
 40 80  2  0  0  0  0
 41 46  1  0  0  0  0
 42 54  1  0  0  0  0
 43 67  1  0  0  0  0
 44 50  1  0  0  0  0
 45 66  1  0  0  0  0
 46 48  1  0  0  0  0
 47 49  1  0  0  0  0
 47 51  1  0  0  0  0
 48 53  1  0  0  0  0
 49 55  1  0  0  0  0
 50 66  1  0  0  0  0
 51 68  1  0  0  0  0
 52 55  1  0  0  0  0
 52 68  1  0  0  0  0
 53 73  1  0  0  0  0
 54 67  1  0  0  0  0
 55 65  1  0  0  0  0
 56 62  1  0  0  0  0
 57 63  1  0  0  0  0
 58 63  1  0  0  0  0
 59 63  1  0  0  0  0
 60 75  1  0  0  0  0
 61 63  1  0  0  0  0
 61 74  1  0  0  0  0
 62 75  1  0  0  0  0
 64 65  1  0  0  0  0
M  CHG  1  75   1
M  ISO  4  35 101  40 100  72 100  82 101
M  END
> <Batch ID>
0094

> <Smiles>
CNC(C)C(=O)NC(C(=O)N1Cc2cc([101O:1][101CH:1]=C3CCN(c4cc(N)c([100NH:0][100C:0](=O)N5CCCC(n6nc(-c7ccc(Oc8ccc(F)cc8F)cc7)c(C(N)=O)c6N)C5)cc4F)C3)ccc2CC1C(=O)NC1CCCc2ccccc21)C(C)(C)C

> <Shape>
0.316

> <Color>
0.089

> <Negative vol penalty>
0.000

$$$$

  -OEChem-04052300403D

 85 93  0     1  0  0  0  0  0999 V2000
  -31.0354  -24.3790   17.7535 C   0  0  0  0  0  0  0  0  0  0  0  0
  -29.7179  -24.7743   17.9552 C   0  0  0  0  0  0  0  0  0  0  0  0
  -25.8276  -14.6682   20.6303 C   0  0  0  0  0  0  0  0  0  0  0  0
  -25.4150  -13.7159   22.8120 C   0  0  0  0  0  0  0  0  0  0  0  0
  -32.0326  -24.8230   18.6193 C   0  0  0  0  0  0  0  0  0  0  0  0
  -29.3988  -25.6233   19.0155 C   0  0  0  0  0  0  0  0  0  0  0  0
  -24.7797  -27.3040   19.2210 C   0  0  0  0  0  0  0  0  0  0  0  0
  -26.4035  -21.7264   20.3490 C   0  0  0  0  0  0  0  0  0  0  0  0
  -26.3783  -22.3149   22.6921 C   0  0  0  0  0  0  0  0  0  0  0  0
  -27.7718  -21.4675   20.4287 C   0  0  0  0  0  0  0  0  0  0  0  0
  -27.7466  -22.0559   22.7718 C   0  0  0  0  0  0  0  0  0  0  0  0
  -25.7464  -13.3977   20.0604 C   0  0  0  0  0  0  0  0  0  0  0  0
  -25.3337  -12.4454   22.2421 C   0  0  0  0  0  0  0  0  0  0  0  0
  -23.6984  -26.4958   19.5695 C   0  0  0  0  0  0  0  0  0  0  0  0
  -24.6593   -8.9956   21.3138 C   0  0  0  0  0  0  0  0  0  0  0  0
  -23.6145   -8.1665   21.7219 C   0  0  0  0  0  0  0  0  0  0  0  0
  -23.6644  -27.4978   21.7636 C   0  0  0  0  0  0  0  0  0  0  0  0
  -22.0139   -9.7958   20.9341 C   0  0  0  0  0  0  0  0  0  0  0  0
  -25.6619  -14.8273   22.0061 C   0  0  0  0  0  0  0  0  0  0  0  0
  -24.6925  -17.0513   22.7944 C   0  0  0  0  0  0  0  0  0  0  0  0
  -31.7229  -25.6678   19.6979 C   0  0  0  0  0  0  0  0  0  0  0  0
  -25.3193  -28.2089   20.1464 C   0  0  0  0  0  0  0  0  0  0  0  0
  -30.3948  -26.1015   19.8862 C   0  0  0  0  0  0  0  0  0  0  0  0
  -24.7509  -28.3182   21.4235 C   0  0  0  0  0  0  0  0  0  0  0  0
  -25.7068  -22.1502   21.4807 C   0  0  0  0  0  0  0  0  0  0  0  0
  -28.4434  -21.6322   21.6401 C   0  0  0  0  0  0  0  0  0  0  0  0
  -25.4994  -12.2863   20.8663 C   0  0  0  0  0  0  0  0  0  0  0  0
  -23.1424  -26.5906   20.8419 C   0  0  0  0  0  0  0  0  0  0  0  0
  -24.3814  -10.2248   20.7158 C   0  0  0  0  0  0  0  0  0  0  0  0
  -22.2918   -8.5666   21.5321 C   0  0  0  0  0  0  0  0  0  0  0  0
  -23.0587  -10.6249   20.5260 C   0  0  0  0  0  0  0  0  0  0  0  0
  -25.7463  -16.1394   22.5955 C   0  0  0  0  0  0  0  0  0  0  0  0
  -25.2873  -18.1404   23.3832 C   0  0  0  0  0  0  0  0  0  0  0  0
  -23.3003  -16.9253   22.4756 C   0  0  0  0  0  0  0  0  0  0  0  0
  -28.1498  -28.5630   21.5488 C   0  0  0  0  0  0  0  0  0  0  0  0
  -26.8051  -31.2828   22.6962 C   0  0  0  0  0  0  0  0  0  0  0  0
  -23.4748  -22.8396   22.4216 C   0  0  0  0  0  0  0  0  0  0  0  0
  -23.9641  -32.9950   23.4986 C   0  0  0  0  0  0  0  0  0  0  0  0
  -30.4909  -20.9092   22.8954 C   0  0  0  0  0  0  0  0  0  0  0  0
  -32.8425  -26.1248   20.5996 C   0  0  0  0  0  0  0  0  0  0  0  0
  -26.4688  -29.0926   19.7461 C   0  0  0  0  0  0  0  0  0  0  0  0
  -25.2803  -29.2882   22.4468 C   0  0  0  0  0  0  0  0  0  0  0  0
  -32.3468  -26.6539   21.9414 C   0  0  0  0  0  0  0  0  0  0  0  0
  -29.4759  -18.9467   25.8637 C   0  0  0  0  0  0  0  0  0  0  0  0
  -31.2293  -27.6626   21.7217 C   0  0  0  0  0  0  0  0  0  0  0  0
  -28.3695  -18.0482   25.3143 C   0  0  0  0  0  0  0  0  0  0  0  0
  -30.4926  -19.3157   24.7877 C   0  0  0  0  0  0  0  0  0  0  0  0
  -28.7698  -19.0433   23.0272 C   0  0  0  0  0  0  0  0  0  0  0  0
  -30.0195  -26.9998   21.0508 C   0  0  1  0  0  0  0  0  0  0  0  0
  -27.2656  -29.6133   20.9383 C   0  0  1  0  0  0  0  0  0  0  0  0
  -27.7108  -18.6905   24.0823 C   0  0  1  0  0  0  0  0  0  0  0  0
  -31.0698  -20.7020   19.6827 C   0  0  0  0  0  0  0  0  0  0  0  0
  -23.1849  -35.1818   24.4514 C   0  0  0  0  0  0  0  0  0  0  0  0
  -27.5815  -30.3385   25.4919 C   0  0  0  0  0  0  0  0  0  0  0  0
  -25.9852  -32.0244   26.4288 C   0  0  0  0  0  0  0  0  0  0  0  0
  -27.9417  -32.7784   25.0773 C   0  0  0  0  0  0  0  0  0  0  0  0
  -22.5028  -33.6871   21.0197 C   0  0  0  0  0  0  0  0  0  0  0  0
  -22.0516  -23.0016   21.9058 C   0  0  0  0  0  0  0  0  0  0  0  0
  -21.2769  -24.0839   22.6498 C   0  0  0  0  0  0  0  0  0  0  0  0
  -30.7080  -21.8292   20.6286 C   0  0  0  0  0  0  0  0  0  0  0  0
  -21.9706  -25.4352   22.5588 C   0  0  0  0  0  0  0  0  0  1  0  0
  -26.0006  -31.6430   23.9218 C   0  0  1  0  0  0  0  0  0  0  0  0
  -23.5189  -34.4117   23.1833 C   0  0  2  0  0  0  0  0  0  0  0  0
  -26.8683  -31.6763   25.2115 C   0  0  0  0  0  0  0  0  0  0  0  0
  -26.9216  -16.6084   23.0230 N   0  0  0  0  0  0  0  0  0  0  0  0
  -26.6098  -17.8269   23.4964 N   0  0  0  0  0  0  0  0  0  0  0  0
  -26.4093  -30.1260   22.0099 N   0  0  0  0  0  0  0  0  0  0  0  0
  -29.8460  -19.8702   23.5973 N   0  0  0  0  0  0  0  0  0  0  0  0
  -24.8029  -19.3260   23.8098 N   0  0  0  0  0  0  0  0  0  0  0  0
  -22.8574  -15.7396   21.8736 N   0  0  0  0  0  0  0  0  0  0  0  0
  -24.3186  -22.4133   21.3999 N   0  0  0  0  0  0  0  0  0  0  0  0
  -29.0708  -28.0234   20.6711 N   0  0  0  0  0  0  0  0  0  0  0  0
  -25.3349  -32.9048   23.6167 N   0  0  0  0  0  0  0  0  0  0  0  0
  -29.8584  -21.3646   21.7229 N   0  0  0  0  0  0  0  0  0  0  0  0
  -22.3096  -34.3929   22.3126 N   0  3  0  0  0  0  0  0  0  0  0  0
  -22.4763  -17.8435   22.7025 O   0  0  0  0  0  0  0  0  0  0  0  0
  -28.0081  -28.2653   22.7290 O   0  0  0  0  0  0  0  0  0  0  0  0
  -27.7454  -32.0052   22.3562 O   0  0  0  0  0  0  0  0  0  0  0  0
  -23.7744  -23.0685   23.5888 O   0  0  0  0  0  0  0  0  0  0  0  0
  -23.1745  -32.0625   23.6307 O   0  0  0  0  0  0  0  0  0  0  0  0
  -31.5838  -21.3630   23.2567 O   0  0  0  0  0  0  0  0  0  0  0  0
  -25.4198  -11.0464   20.3105 O   0  0  0  0  0  0  0  0  0  0  0  0
  -22.0873  -25.8025   21.1848 O   0  0  0  0  0  0  0  0  0  1  0  0
  -21.2885   -7.7697   21.9227 F   0  0  0  0  0  0  0  0  0  0  0  0
  -22.7856  -11.8041   19.9510 F   0  0  0  0  0  0  0  0  0  0  0  0
  1  2  1  0  0  0  0
  1  5  2  0  0  0  0
  2  6  2  0  0  0  0
  3 12  2  0  0  0  0
  3 19  1  0  0  0  0
  4 13  1  0  0  0  0
  4 19  2  0  0  0  0
  5 21  1  0  0  0  0
  6 23  1  0  0  0  0
  7 14  2  0  0  0  0
  7 22  1  0  0  0  0
  8 10  2  0  0  0  0
  8 25  1  0  0  0  0
  9 11  1  0  0  0  0
  9 25  2  0  0  0  0
 10 26  1  0  0  0  0
 11 26  2  0  0  0  0
 12 27  1  0  0  0  0
 13 27  2  0  0  0  0
 14 28  1  0  0  0  0
 15 16  2  0  0  0  0
 15 29  1  0  0  0  0
 16 30  1  0  0  0  0
 17 24  1  0  0  0  0
 17 28  2  0  0  0  0
 18 30  2  0  0  0  0
 18 31  1  0  0  0  0
 19 32  1  0  0  0  0
 20 32  1  0  0  0  0
 20 33  2  0  0  0  0
 20 34  1  0  0  0  0
 21 23  2  0  0  0  0
 21 40  1  0  0  0  0
 22 24  2  0  0  0  0
 22 41  1  0  0  0  0
 23 49  1  0  0  0  0
 24 42  1  0  0  0  0
 25 71  1  0  0  0  0
 26 74  1  0  0  0  0
 27 82  1  0  0  0  0
 28 83  1  0  0  0  0
 29 31  2  0  0  0  0
 29 82  1  0  0  0  0
 30 84  1  0  0  0  0
 31 85  1  0  0  0  0
 32 65  2  0  0  0  0
 33 66  1  0  0  0  0
 33 69  1  0  0  0  0
 34 70  1  0  0  0  0
 34 76  2  0  0  0  0
 35 50  1  0  0  0  0
 35 72  1  0  0  0  0
 35 77  2  0  0  0  0
 36 62  1  0  0  0  0
 36 67  1  0  0  0  0
 36 78  2  0  0  0  0
 37 58  1  0  0  0  0
 37 71  1  0  0  0  0
 37 79  2  0  0  0  0
 38 63  1  0  0  0  0
 38 73  1  0  0  0  0
 38 80  2  0  0  0  0
 39 68  1  0  0  0  0
 39 74  1  0  0  0  0
 39 81  2  0  0  0  0
 40 43  1  0  0  0  0
 41 50  1  0  0  0  0
 42 67  1  0  0  0  0
 43 45  1  0  0  0  0
 44 46  1  0  0  0  0
 44 47  1  0  0  0  0
 45 49  1  0  0  0  0
 46 51  1  0  0  0  0
 47 68  1  0  0  0  0
 48 51  1  0  0  0  0
 48 68  1  0  0  0  0
 49 72  1  0  0  0  0
 50 67  1  0  0  0  0
 51 66  1  0  0  0  0
 52 60  1  0  0  0  0
 53 63  1  0  0  0  0
 54 64  1  0  0  0  0
 55 64  1  0  0  0  0
 56 64  1  0  0  0  0
 57 75  1  0  0  0  0
 58 59  1  0  0  0  0
 59 61  1  0  0  0  0
 60 74  1  0  0  0  0
 61 83  1  0  0  0  0
 62 64  1  0  0  0  0
 62 73  1  0  0  0  0
 63 75  1  0  0  0  0
 65 66  1  0  0  0  0
M  CHG  1  75   1
M  ISO  4  39 100  61 101  74 100  83 101
M  END
> <Batch ID>
0094

> <Smiles>
CC[100N:0](c1ccc(NC(=O)CC[101CH2:1][101O:1]c2ccc3c(c2)CN(C(=O)C(NC(=O)C(C)NC)C(C)(C)C)C(C(=O)NC2CCCc4ccccc42)C3)cc1)[100C:0](=O)N1CCCC(n2nc(-c3ccc(Oc4ccc(F)cc4F)cc3)c(C(N)=O)c2N)C1

> <Shape>
0.244

> <Color>
0.073

> <Negative vol penalty>
0.000

$$$$

  -OEChem-04052300403D

 88 97  0     1  0  0  0  0  0999 V2000
  -22.4944  -30.7041   22.8199 C   0  0  0  0  0  0  0  0  0  0  0  0
  -22.3186  -29.4251   23.3382 C   0  0  0  0  0  0  0  0  0  0  0  0
  -28.7240  -13.0838   20.6712 C   0  0  0  0  0  0  0  0  0  0  0  0
  -28.1429  -12.2701   18.4718 C   0  0  0  0  0  0  0  0  0  0  0  0
  -23.0389  -30.8706   21.5473 C   0  0  0  0  0  0  0  0  0  0  0  0
  -22.6864  -28.3117   22.5836 C   0  0  0  0  0  0  0  0  0  0  0  0
  -25.0003  -23.0437   24.6813 C   0  0  0  0  0  0  0  0  0  0  0  0
  -30.0749  -13.0550   20.3249 C   0  0  0  0  0  0  0  0  0  0  0  0
  -29.4938  -12.2414   18.1255 C   0  0  0  0  0  0  0  0  0  0  0  0
  -24.4186  -21.8064   24.9540 C   0  0  0  0  0  0  0  0  0  0  0  0
  -33.6526  -13.5388   19.8996 C   0  0  0  0  0  0  0  0  0  0  0  0
  -34.4344  -14.6408   20.2457 C   0  0  0  0  0  0  0  0  0  0  0  0
  -25.0841  -21.0196   22.7729 C   0  0  0  0  0  0  0  0  0  0  0  0
  -21.9009  -17.2557   24.0738 C   0  0  0  0  0  0  0  0  0  0  0  0
  -24.2515  -13.4201   24.9990 C   0  0  0  0  0  0  0  0  0  0  0  0
  -21.9459  -13.0115   24.4041 C   0  0  0  0  0  0  0  0  0  0  0  0
  -33.0182  -16.0668   18.9049 C   0  0  0  0  0  0  0  0  0  0  0  0
  -27.7580  -12.6913   19.7446 C   0  0  0  0  0  0  0  0  0  0  0  0
  -25.4659  -13.7938   19.9414 C   0  0  0  0  0  0  0  0  0  0  0  0
  -23.4225  -29.7590   20.7806 C   0  0  0  0  0  0  0  0  0  0  0  0
  -25.6197  -23.2822   23.4461 C   0  0  0  0  0  0  0  0  0  0  0  0
  -23.2354  -28.4634   21.2989 C   0  0  0  0  0  0  0  0  0  0  0  0
  -25.6751  -22.2599   22.4880 C   0  0  0  0  0  0  0  0  0  0  0  0
  -23.2649  -17.3545   23.7039 C   0  0  0  0  0  0  0  0  0  0  0  0
  -23.0132  -13.8947   24.5667 C   0  0  0  0  0  0  0  0  0  0  0  0
  -24.4226  -12.0623   25.2686 C   0  0  0  0  0  0  0  0  0  0  0  0
  -23.3552  -11.1791   25.1061 C   0  0  0  0  0  0  0  0  0  0  0  0
  -30.4598  -12.6338   19.0521 C   0  0  0  0  0  0  0  0  0  0  0  0
  -24.4579  -20.7950   23.9987 C   0  0  0  0  0  0  0  0  0  0  0  0
  -32.5535  -13.7008   19.0560 C   0  0  0  0  0  0  0  0  0  0  0  0
  -34.1172  -15.9048   19.7484 C   0  0  0  0  0  0  0  0  0  0  0  0
  -22.1169  -11.6537   24.6738 C   0  0  0  0  0  0  0  0  0  0  0  0
  -32.2363  -14.9648   18.5587 C   0  0  0  0  0  0  0  0  0  0  0  0
  -26.3624  -12.7203   20.1018 C   0  0  0  0  0  0  0  0  0  0  0  0
  -24.2729  -13.3208   20.4306 C   0  0  0  0  0  0  0  0  0  0  0  0
  -21.6664  -15.9474   24.4351 C   0  0  0  0  0  0  0  0  0  0  0  0
  -23.8224  -16.1034   23.8504 C   0  0  0  0  0  0  0  0  0  0  0  0
  -25.6915  -15.1015   19.3985 C   0  0  0  0  0  0  0  0  0  0  0  0
  -25.1203  -25.2961   21.0380 C   0  0  0  0  0  0  0  0  0  0  0  0
  -27.8861  -24.0264   19.9151 C   0  0  0  0  0  0  0  0  0  0  0  0
  -30.0697  -21.4038   19.8894 C   0  0  0  0  0  0  0  0  0  0  0  0
  -23.3086   -8.7699   24.4097 C   0  0  0  0  0  0  0  0  0  0  0  0
  -23.9630  -29.9871   19.3911 C   0  0  0  0  0  0  0  0  0  0  0  0
  -26.2660  -24.6137   23.1776 C   0  0  0  0  0  0  0  0  0  0  0  0
  -26.3459  -22.4587   21.1541 C   0  0  0  0  0  0  0  0  0  0  0  0
  -24.6739  -28.7693   18.8065 C   0  0  0  0  0  0  0  0  0  0  0  0
  -21.7984   -9.2816   21.0705 C   0  0  0  0  0  0  0  0  0  0  0  0
  -23.8422  -27.5095   19.0257 C   0  0  0  0  0  0  0  0  0  0  0  0
  -22.7727  -10.2500   20.4023 C   0  0  0  0  0  0  0  0  0  0  0  0
  -22.4946   -8.4002   22.1030 C   0  0  0  0  0  0  0  0  0  0  0  0
  -24.2150  -10.1450   22.4736 C   0  0  0  0  0  0  0  0  0  0  0  0
  -23.6450  -27.2317   20.5209 C   0  0  1  0  0  0  0  0  0  0  0  0
  -26.4192  -24.9143   21.6898 C   0  0  1  0  0  0  0  0  0  0  0  0
  -23.5302  -11.0719   21.4581 C   0  0  1  0  0  0  0  0  0  0  0  0
  -32.2206  -20.6415   18.8453 C   0  0  0  0  0  0  0  0  0  0  0  0
  -26.4074  -23.4230   17.3153 C   0  0  0  0  0  0  0  0  0  0  0  0
  -28.2636  -21.8580   16.7042 C   0  0  0  0  0  0  0  0  0  0  0  0
  -28.7347  -24.2878   17.0152 C   0  0  0  0  0  0  0  0  0  0  0  0
  -23.6288   -9.3530   26.7738 C   0  0  0  0  0  0  0  0  0  0  0  0
  -31.4167  -21.2231   22.5184 C   0  0  0  0  0  0  0  0  0  0  0  0
  -23.9674  -18.5958   23.2379 C   0  0  0  0  0  0  0  0  0  1  0  0
  -28.2443  -22.8517   19.0373 C   0  0  1  0  0  0  0  0  0  0  0  0
  -31.5803  -21.3495   20.0293 C   0  0  2  0  0  0  0  0  0  0  0  0
  -27.8981  -23.1017   17.5423 C   0  0  0  0  0  0  0  0  0  0  0  0
  -25.7880  -11.6464   20.6503 N   0  0  0  0  0  0  0  0  0  0  0  0
  -22.8414  -15.2561   24.2951 N   0  0  0  0  0  0  0  0  0  0  0  0
  -24.5178  -12.0427   20.8388 N   0  0  0  0  0  0  0  0  0  0  0  0
  -26.9577  -23.7799   20.9365 N   0  0  0  0  0  0  0  0  0  0  0  0
  -23.2607   -9.1933   23.0656 N   0  0  0  0  0  0  0  0  0  0  0  0
  -25.6857  -11.6033   25.7053 N   0  0  0  0  0  0  0  0  0  0  0  0
  -23.0487  -13.8778   20.5472 N   0  0  0  0  0  0  0  0  0  0  0  0
  -26.9768  -15.4224   18.9410 N   0  0  0  0  0  0  0  0  0  0  0  0
  -24.8416  -26.6486   21.0887 N   0  0  0  0  0  0  0  0  0  0  0  0
  -29.6544  -22.5717   19.2854 N   0  0  0  0  0  0  0  0  0  0  0  0
  -23.5108   -9.7711   25.3787 N   0  0  0  0  0  0  0  0  0  0  0  0
  -31.9595  -20.6216   21.2732 N   0  3  0  0  0  0  0  0  0  0  0  0
  -24.7842  -15.9655   19.3365 O   0  0  0  0  0  0  0  0  0  0  0  0
  -24.4234  -24.4281   20.5257 O   0  0  0  0  0  0  0  0  0  0  0  0
  -28.4161  -25.1207   19.7069 O   0  0  0  0  0  0  0  0  0  0  0  0
  -29.3322  -20.4990   20.2739 O   0  0  0  0  0  0  0  0  0  0  0  0
  -23.2325   -7.5753   24.7226 O   0  0  0  0  0  0  0  0  0  0  0  0
  -20.5539  -15.3564   24.8544 O   0  0  0  0  0  0  0  0  0  0  0  0
  -25.0613  -15.6777   23.6310 O   0  0  0  0  0  0  0  0  0  0  0  0
  -31.7779  -12.6058   18.7138 O   0  0  0  0  0  0  0  0  0  0  0  0
  -23.8903  -19.5865   24.2620 O   0  0  0  0  0  0  0  0  0  1  0  0
  -34.8672  -16.9633   20.0822 F   0  0  0  0  0  0  0  0  0  0  0  0
  -21.0834  -10.8146   24.5136 F   0  0  0  0  0  0  0  0  0  0  0  0
  -31.1810  -15.1268   17.7488 F   0  0  0  0  0  0  0  0  0  0  0  0
  1  2  1  0  0  0  0
  1  5  2  0  0  0  0
  2  6  2  0  0  0  0
  3  8  2  0  0  0  0
  3 18  1  0  0  0  0
  4  9  1  0  0  0  0
  4 18  2  0  0  0  0
  5 20  1  0  0  0  0
  6 22  1  0  0  0  0
  7 10  2  0  0  0  0
  7 21  1  0  0  0  0
  8 28  1  0  0  0  0
  9 28  2  0  0  0  0
 10 29  1  0  0  0  0
 11 12  2  0  0  0  0
 11 30  1  0  0  0  0
 12 31  1  0  0  0  0
 13 23  1  0  0  0  0
 13 29  2  0  0  0  0
 14 24  1  0  0  0  0
 14 36  2  0  0  0  0
 15 25  1  0  0  0  0
 15 26  2  0  0  0  0
 16 25  2  0  0  0  0
 16 32  1  0  0  0  0
 17 31  2  0  0  0  0
 17 33  1  0  0  0  0
 18 34  1  0  0  0  0
 19 34  1  0  0  0  0
 19 35  2  0  0  0  0
 19 38  1  0  0  0  0
 20 22  2  0  0  0  0
 20 43  1  0  0  0  0
 21 23  2  0  0  0  0
 21 44  1  0  0  0  0
 22 52  1  0  0  0  0
 23 45  1  0  0  0  0
 24 37  2  0  0  0  0
 24 61  1  0  0  0  0
 25 66  1  0  0  0  0
 26 27  1  0  0  0  0
 26 70  1  0  0  0  0
 27 32  2  0  0  0  0
 27 75  1  0  0  0  0
 28 84  1  0  0  0  0
 29 85  1  0  0  0  0
 30 33  2  0  0  0  0
 30 84  1  0  0  0  0
 31 86  1  0  0  0  0
 32 87  1  0  0  0  0
 33 88  1  0  0  0  0
 34 65  2  0  0  0  0
 35 67  1  0  0  0  0
 35 71  1  0  0  0  0
 36 66  1  0  0  0  0
 36 82  1  0  0  0  0
 37 66  1  0  0  0  0
 37 83  1  0  0  0  0
 38 72  1  0  0  0  0
 38 77  2  0  0  0  0
 39 53  1  0  0  0  0
 39 73  1  0  0  0  0
 39 78  2  0  0  0  0
 40 62  1  0  0  0  0
 40 68  1  0  0  0  0
 40 79  2  0  0  0  0
 41 63  1  0  0  0  0
 41 74  1  0  0  0  0
 41 80  2  0  0  0  0
 42 69  1  0  0  0  0
 42 75  1  0  0  0  0
 42 81  2  0  0  0  0
 43 46  1  0  0  0  0
 44 53  1  0  0  0  0
 45 68  1  0  0  0  0
 46 48  1  0  0  0  0
 47 49  1  0  0  0  0
 47 50  1  0  0  0  0
 48 52  1  0  0  0  0
 49 54  1  0  0  0  0
 50 69  1  0  0  0  0
 51 54  1  0  0  0  0
 51 69  1  0  0  0  0
 52 73  1  0  0  0  0
 53 68  1  0  0  0  0
 54 67  1  0  0  0  0
 55 63  1  0  0  0  0
 56 64  1  0  0  0  0
 57 64  1  0  0  0  0
 58 64  1  0  0  0  0
 59 75  1  0  0  0  0
 60 76  1  0  0  0  0
 61 85  1  0  0  0  0
 62 64  1  0  0  0  0
 62 74  1  0  0  0  0
 63 76  1  0  0  0  0
 65 67  1  0  0  0  0
M  CHG  1  76   1
M  ISO  4  42 100  61 101  75 100  85 101
M  END
> <Batch ID>
0094

> <Smiles>
CNC(C)C(=O)NC(C(=O)N1Cc2cc([101O:1][101CH2:1]C3CC(=O)N(c4cc(N)c([100N:0](C)[100C:0](=O)N5CCCC(n6nc(-c7ccc(Oc8ccc(F)cc8F)cc7)c(C(N)=O)c6N)C5)c(F)c4)C3=O)ccc2CC1C(=O)NC1CCCc2ccccc21)C(C)(C)C

> <Shape>
0.193

> <Color>
0.090

> <Negative vol penalty>
0.000

$$$$

  -OEChem-04052300403D

 88 97  0     1  0  0  0  0  0999 V2000
  -28.1690  -37.6825   21.8260 C   0  0  0  0  0  0  0  0  0  0  0  0
  -28.6298  -36.4382   21.4080 C   0  0  0  0  0  0  0  0  0  0  0  0
  -24.6634   -8.8839   23.2882 C   0  0  0  0  0  0  0  0  0  0  0  0
  -25.4168   -8.3835   21.0479 C   0  0  0  0  0  0  0  0  0  0  0  0
  -30.9864  -19.3328   18.4732 C   0  0  0  0  0  0  0  0  0  0  0  0
  -27.1876  -37.7656   22.8129 C   0  0  0  0  0  0  0  0  0  0  0  0
  -28.1103  -35.2762   21.9775 C   0  0  0  0  0  0  0  0  0  0  0  0
  -27.1765  -29.9067   19.1844 C   0  0  0  0  0  0  0  0  0  0  0  0
  -31.2088  -20.7058   18.5777 C   0  0  0  0  0  0  0  0  0  0  0  0
  -23.4752   -8.1959   23.0423 C   0  0  0  0  0  0  0  0  0  0  0  0
  -24.2286   -7.6954   20.8020 C   0  0  0  0  0  0  0  0  0  0  0  0
  -27.9214  -28.7289   19.1429 C   0  0  0  0  0  0  0  0  0  0  0  0
  -22.4367   -4.9801   22.9283 C   0  0  0  0  0  0  0  0  0  0  0  0
  -21.9809   -4.1018   23.9114 C   0  0  0  0  0  0  0  0  0  0  0  0
  -26.5800  -27.8247   20.9324 C   0  0  0  0  0  0  0  0  0  0  0  0
  -31.4226  -24.8752   19.4117 C   0  0  0  0  0  0  0  0  0  0  0  0
  -28.9303  -21.0187   19.3176 C   0  0  0  0  0  0  0  0  0  0  0  0
  -19.9415   -5.3820   24.1093 C   0  0  0  0  0  0  0  0  0  0  0  0
  -25.6342   -8.9778   22.2909 C   0  0  0  0  0  0  0  0  0  0  0  0
  -29.7358  -18.8027   18.7908 C   0  0  0  0  0  0  0  0  0  0  0  0
  -28.0583   -9.1606   23.0643 C   0  0  0  0  0  0  0  0  0  0  0  0
  -26.6489  -36.6039   23.3879 C   0  0  0  0  0  0  0  0  0  0  0  0
  -26.1331  -30.0567   20.1091 C   0  0  0  0  0  0  0  0  0  0  0  0
  -27.1218  -35.3439   22.9740 C   0  0  0  0  0  0  0  0  0  0  0  0
  -25.8218  -29.0044   20.9818 C   0  0  0  0  0  0  0  0  0  0  0  0
  -30.0594  -25.1195   19.1133 C   0  0  0  0  0  0  0  0  0  0  0  0
  -30.1809  -21.5487   19.0000 C   0  0  0  0  0  0  0  0  0  0  0  0
  -23.2578   -7.6016   21.7993 C   0  0  0  0  0  0  0  0  0  0  0  0
  -27.6251  -27.6888   20.0190 C   0  0  0  0  0  0  0  0  0  0  0  0
  -21.6450   -6.0594   22.5358 C   0  0  0  0  0  0  0  0  0  0  0  0
  -20.7333   -4.3027   24.5019 C   0  0  0  0  0  0  0  0  0  0  0  0
  -28.7078  -19.6456   19.2131 C   0  0  0  0  0  0  0  0  0  0  0  0
  -20.3974   -6.2603   23.1263 C   0  0  0  0  0  0  0  0  0  0  0  0
  -26.8615   -9.6888   22.5441 C   0  0  0  0  0  0  0  0  0  0  0  0
  -28.9149  -10.2331   23.1119 C   0  0  0  0  0  0  0  0  0  0  0  0
  -31.6080  -23.5103   19.4001 C   0  0  0  0  0  0  0  0  0  0  0  0
  -29.4531  -23.8965   18.9287 C   0  0  0  0  0  0  0  0  0  0  0  0
  -29.5030  -17.3475   18.6791 C   0  0  0  0  0  0  0  0  0  0  0  0
  -28.3679   -7.8202   23.4684 C   0  0  0  0  0  0  0  0  0  0  0  0
  -25.5499  -32.0293   22.5325 C   0  0  0  0  0  0  0  0  0  0  0  0
  -22.6851  -30.5082   22.5719 C   0  0  0  0  0  0  0  0  0  0  0  0
  -20.8747  -27.7195   21.8022 C   0  0  0  0  0  0  0  0  0  0  0  0
  -28.8744  -15.2613   19.8746 C   0  0  0  0  0  0  0  0  0  0  0  0
  -25.6237  -36.7452   24.4850 C   0  0  0  0  0  0  0  0  0  0  0  0
  -25.3218  -31.3232   20.1230 C   0  0  0  0  0  0  0  0  0  0  0  0
  -24.6984  -29.1077   21.9797 C   0  0  0  0  0  0  0  0  0  0  0  0
  -24.8564  -35.4569   24.7713 C   0  0  0  0  0  0  0  0  0  0  0  0
  -28.9861  -14.9713   23.5707 C   0  0  0  0  0  0  0  0  0  0  0  0
  -25.8158  -34.2751   24.8708 C   0  0  0  0  0  0  0  0  0  0  0  0
  -28.4796  -13.5458   23.7604 C   0  0  0  0  0  0  0  0  0  0  0  0
  -28.3681  -15.6459   22.3467 C   0  0  0  0  0  0  0  0  0  0  0  0
  -28.0332  -13.4259   21.2811 C   0  0  0  0  0  0  0  0  0  0  0  0
  -26.5651  -34.0601   23.5502 C   0  0  1  0  0  0  0  0  0  0  0  0
  -24.6139  -31.5648   21.4527 C   0  0  1  0  0  0  0  0  0  0  0  0
  -28.6918  -12.7268   22.4792 C   0  0  2  0  0  0  0  0  0  0  0  0
  -18.5655  -26.7556   21.9918 C   0  0  0  0  0  0  0  0  0  0  0  0
  -23.1656  -29.9456   25.5320 C   0  0  0  0  0  0  0  0  0  0  0  0
  -21.3558  -28.2189   25.4261 C   0  0  0  0  0  0  0  0  0  0  0  0
  -20.8230  -30.6115   24.9636 C   0  0  0  0  0  0  0  0  0  0  0  0
  -20.5942  -27.5122   18.8633 C   0  0  0  0  0  0  0  0  0  0  0  0
  -29.4020  -26.4649   19.0186 C   0  0  0  0  0  0  0  0  0  1  0  0
  -22.1350  -29.2821   23.2597 C   0  0  1  0  0  0  0  0  0  0  0  0
  -19.5284  -27.5485   21.1219 C   0  0  2  0  0  0  0  0  0  0  0  0
  -21.8923  -29.5130   24.7780 C   0  0  0  0  0  0  0  0  0  0  0  0
  -26.9464  -10.9954   22.2803 N   0  0  0  0  0  0  0  0  0  0  0  0
  -30.4040  -22.9255   19.1057 N   0  0  0  0  0  0  0  0  0  0  0  0
  -28.2067  -11.2972   22.6362 N   0  0  0  0  0  0  0  0  0  0  0  0
  -23.9383  -30.3683   21.9588 N   0  0  0  0  0  0  0  0  0  0  0  0
  -28.4838  -14.8147   21.1405 N   0  0  0  0  0  0  0  0  0  0  0  0
  -30.1973  -10.3604   23.5140 N   0  0  0  0  0  0  0  0  0  0  0  0
  -27.3720   -6.8407   23.3531 N   0  0  0  0  0  0  0  0  0  0  0  0
  -29.1442  -16.6803   19.7869 N   0  0  0  0  0  0  0  0  0  0  0  0
  -25.7108  -33.4006   22.5860 N   0  0  0  0  0  0  0  0  0  0  0  0
  -20.9406  -28.8978   22.5153 N   0  0  0  0  0  0  0  0  0  0  0  0
  -29.6702  -16.7864   17.4818 N   0  3  0  0  0  0  0  0  0  0  0  0
  -19.6904  -26.8312   19.8257 N   0  3  0  0  0  0  0  0  0  0  0  0
  -29.4891   -7.5040   23.9336 O   0  0  0  0  0  0  0  0  0  0  0  0
  -26.0852  -31.2046   23.2639 O   0  0  0  0  0  0  0  0  0  0  0  0
  -22.0239  -31.5496   22.5722 O   0  0  0  0  0  0  0  0  0  0  0  0
  -21.7762  -26.8889   21.7132 O   0  0  0  0  0  0  0  0  0  0  0  0
  -28.9697  -14.5641   18.8702 O   0  0  0  0  0  0  0  0  0  0  0  0
  -32.7004  -22.7882   19.6186 O   0  0  0  0  0  0  0  0  0  0  0  0
  -28.1945  -23.5908   18.6346 O   0  0  0  0  0  0  0  0  0  0  0  0
  -22.0986   -6.9300   21.5591 O   0  0  0  0  0  0  0  0  0  0  0  0
  -28.3510  -26.5383   19.9811 O   0  0  0  0  0  0  0  0  0  1  0  0
  -20.2950   -3.4584   25.4448 F   0  0  0  0  0  0  0  0  0  0  0  0
  -27.5027  -19.1455   19.5204 F   0  0  0  0  0  0  0  0  0  0  0  0
  -19.6317   -7.2946   22.7525 F   0  0  0  0  0  0  0  0  0  0  0  0
  1  2  1  0  0  0  0
  1  6  2  0  0  0  0
  2  7  2  0  0  0  0
  3 10  2  0  0  0  0
  3 19  1  0  0  0  0
  4 11  1  0  0  0  0
  4 19  2  0  0  0  0
  5  9  2  0  0  0  0
  5 20  1  0  0  0  0
  6 22  1  0  0  0  0
  7 24  1  0  0  0  0
  8 12  2  0  0  0  0
  8 23  1  0  0  0  0
  9 27  1  0  0  0  0
 10 28  1  0  0  0  0
 11 28  2  0  0  0  0
 12 29  1  0  0  0  0
 13 14  2  0  0  0  0
 13 30  1  0  0  0  0
 14 31  1  0  0  0  0
 15 25  1  0  0  0  0
 15 29  2  0  0  0  0
 16 26  1  0  0  0  0
 16 36  2  0  0  0  0
 17 27  2  0  0  0  0
 17 32  1  0  0  0  0
 18 31  2  0  0  0  0
 18 33  1  0  0  0  0
 19 34  1  0  0  0  0
 20 32  2  0  0  0  0
 20 38  1  0  0  0  0
 21 34  1  0  0  0  0
 21 35  2  0  0  0  0
 21 39  1  0  0  0  0
 22 24  2  0  0  0  0
 22 44  1  0  0  0  0
 23 25  2  0  0  0  0
 23 45  1  0  0  0  0
 24 53  1  0  0  0  0
 25 46  1  0  0  0  0
 26 37  2  0  0  0  0
 26 61  1  0  0  0  0
 27 66  1  0  0  0  0
 28 84  1  0  0  0  0
 29 85  1  0  0  0  0
 30 33  2  0  0  0  0
 30 84  1  0  0  0  0
 31 86  1  0  0  0  0
 32 87  1  0  0  0  0
 33 88  1  0  0  0  0
 34 65  2  0  0  0  0
 35 67  1  0  0  0  0
 35 70  1  0  0  0  0
 36 66  1  0  0  0  0
 36 82  1  0  0  0  0
 37 66  1  0  0  0  0
 37 83  1  0  0  0  0
 38 72  1  0  0  0  0
 38 75  2  0  0  0  0
 39 71  1  0  0  0  0
 39 77  2  0  0  0  0
 40 54  1  0  0  0  0
 40 73  1  0  0  0  0
 40 78  2  0  0  0  0
 41 62  1  0  0  0  0
 41 68  1  0  0  0  0
 41 79  2  0  0  0  0
 42 63  1  0  0  0  0
 42 74  1  0  0  0  0
 42 80  2  0  0  0  0
 43 69  1  0  0  0  0
 43 72  1  0  0  0  0
 43 81  2  0  0  0  0
 44 47  1  0  0  0  0
 45 54  1  0  0  0  0
 46 68  1  0  0  0  0
 47 49  1  0  0  0  0
 48 50  1  0  0  0  0
 48 51  1  0  0  0  0
 49 53  1  0  0  0  0
 50 55  1  0  0  0  0
 51 69  1  0  0  0  0
 52 55  1  0  0  0  0
 52 69  1  0  0  0  0
 53 73  1  0  0  0  0
 54 68  1  0  0  0  0
 55 67  1  0  0  0  0
 56 63  1  0  0  0  0
 57 64  1  0  0  0  0
 58 64  1  0  0  0  0
 59 64  1  0  0  0  0
 60 76  1  0  0  0  0
 61 85  1  0  0  0  0
 62 64  1  0  0  0  0
 62 74  1  0  0  0  0
 63 76  1  0  0  0  0
 65 67  1  0  0  0  0
M  CHG  2  75   1  76   1
M  ISO  4  43 100  61 101  72 100  85 101
M  END
> <Batch ID>
0094

> <Smiles>
CNC(C)C(=O)NC(C(=O)N1Cc2cc([101O:1][101CH2:1]C3CC(=O)N(c4ccc(C(=N)[100NH:0][100C:0](=O)N5CCCC(n6nc(-c7ccc(Oc8ccc(F)cc8F)cc7)c(C(N)=O)c6N)C5)c(F)c4)C3=O)ccc2CC1C(=O)NC1CCCc2ccccc21)C(C)(C)C

> <Shape>
0.317

> <Color>
0.089

> <Negative vol penalty>
0.000

$$$$

  -OEChem-04052300403D

 86 95  0     1  0  0  0  0  0999 V2000
  -28.0036  -34.6684   25.3046 C   0  0  0  0  0  0  0  0  0  0  0  0
  -28.1789  -33.3637   24.8548 C   0  0  0  0  0  0  0  0  0  0  0  0
  -24.4964   -9.5311   21.6004 C   0  0  0  0  0  0  0  0  0  0  0  0
  -25.1393  -10.9957   23.4111 C   0  0  0  0  0  0  0  0  0  0  0  0
  -26.7194  -35.1548   25.5457 C   0  0  0  0  0  0  0  0  0  0  0  0
  -27.0701  -32.5442   24.6468 C   0  0  0  0  0  0  0  0  0  0  0  0
  -27.3409  -29.9781   20.2894 C   0  0  0  0  0  0  0  0  0  0  0  0
  -24.4045   -8.4651   22.4952 C   0  0  0  0  0  0  0  0  0  0  0  0
  -25.0473   -9.9297   24.3060 C   0  0  0  0  0  0  0  0  0  0  0  0
  -28.1669  -28.8552   20.2621 C   0  0  0  0  0  0  0  0  0  0  0  0
  -22.2034   -7.3264   24.7955 C   0  0  0  0  0  0  0  0  0  0  0  0
  -21.0874   -6.4950   24.7010 C   0  0  0  0  0  0  0  0  0  0  0  0
  -26.2373  -27.4363   20.5496 C   0  0  0  0  0  0  0  0  0  0  0  0
  -28.3712  -19.9369   17.7351 C   0  0  0  0  0  0  0  0  0  0  0  0
  -22.5310   -4.6065   24.2688 C   0  0  0  0  0  0  0  0  0  0  0  0
  -26.6792  -21.3405   18.4896 C   0  0  0  0  0  0  0  0  0  0  0  0
  -24.8638  -10.7964   22.0583 C   0  0  0  0  0  0  0  0  0  0  0  0
  -23.9367  -12.7949   20.7721 C   0  0  0  0  0  0  0  0  0  0  0  0
  -25.5937  -34.3439   25.3313 C   0  0  0  0  0  0  0  0  0  0  0  0
  -25.9558  -29.8388   20.4583 C   0  0  0  0  0  0  0  0  0  0  0  0
  -25.7697  -33.0197   24.8865 C   0  0  0  0  0  0  0  0  0  0  0  0
  -25.3957  -28.5588   20.5762 C   0  0  0  0  0  0  0  0  0  0  0  0
  -27.8317  -21.2556   17.7399 C   0  0  0  0  0  0  0  0  0  0  0  0
  -24.6800   -8.6644   23.8480 C   0  0  0  0  0  0  0  0  0  0  0  0
  -27.6154  -27.5842   20.3950 C   0  0  0  0  0  0  0  0  0  0  0  0
  -23.4832   -6.7979   24.6266 C   0  0  0  0  0  0  0  0  0  0  0  0
  -21.2512   -5.1351   24.4376 C   0  0  0  0  0  0  0  0  0  0  0  0
  -23.6470   -5.4379   24.3633 C   0  0  0  0  0  0  0  0  0  0  0  0
  -24.9594  -11.8979   21.1343 C   0  0  0  0  0  0  0  0  0  0  0  0
  -24.5300  -13.6472   19.8732 C   0  0  0  0  0  0  0  0  0  0  0  0
  -27.6104  -19.0640   18.4816 C   0  0  0  0  0  0  0  0  0  0  0  0
  -31.1692  -24.6340   19.4175 C   0  0  0  0  0  0  0  0  0  0  0  0
  -30.0030  -25.2146   19.1004 C   0  0  0  0  0  0  0  0  0  0  0  0
  -29.0573  -24.5258   18.1623 C   0  0  0  0  0  0  0  0  0  0  0  0
  -22.5724  -12.8526   21.2092 C   0  0  0  0  0  0  0  0  0  0  0  0
  -23.8566  -30.7866   22.6490 C   0  0  0  0  0  0  0  0  0  0  0  0
  -21.7047  -29.5612   20.5538 C   0  0  0  0  0  0  0  0  0  0  0  0
  -21.0621  -27.3984   17.9933 C   0  0  0  0  0  0  0  0  0  0  0  0
  -28.7982  -16.8511   18.2857 C   0  0  0  0  0  0  0  0  0  0  0  0
  -24.2280  -34.8985   25.6509 C   0  0  0  0  0  0  0  0  0  0  0  0
  -25.0755  -31.0585   20.4589 C   0  0  0  0  0  0  0  0  0  0  0  0
  -23.9124  -28.3542   20.7394 C   0  0  0  0  0  0  0  0  0  0  0  0
  -31.5672  -23.2781   18.9406 C   0  0  0  0  0  0  0  0  0  0  0  0
  -23.0845  -34.0869   25.0476 C   0  0  0  0  0  0  0  0  0  0  0  0
  -29.0153  -13.3757   17.5430 C   0  0  0  0  0  0  0  0  0  0  0  0
  -23.2996  -32.5970   25.2937 C   0  0  0  0  0  0  0  0  0  0  0  0
  -27.8953  -12.7552   18.3813 C   0  0  0  0  0  0  0  0  0  0  0  0
  -30.3467  -22.4373   18.6108 C   0  0  0  0  0  0  0  0  0  0  0  0
  -29.6946  -14.5335   18.2722 C   0  0  0  0  0  0  0  0  0  0  0  0
  -27.6652  -14.9551   19.6037 C   0  0  0  0  0  0  0  0  0  0  0  0
  -24.5903  -32.1081   24.6254 C   0  0  1  0  0  0  0  0  0  0  0  0
  -23.7360  -30.8283   21.1519 C   0  0  1  0  0  0  0  0  0  0  0  0
  -26.9083  -13.8267   18.8845 C   0  0  2  0  0  0  0  0  0  0  0  0
  -29.1937  -21.9954   15.7425 C   0  0  0  0  0  0  0  0  0  0  0  0
  -19.2010  -26.5933   16.5149 C   0  0  0  0  0  0  0  0  0  0  0  0
  -20.6000  -27.8928   22.8572 C   0  0  0  0  0  0  0  0  0  0  0  0
  -19.4324  -26.4606   21.1679 C   0  0  0  0  0  0  0  0  0  0  0  0
  -18.8603  -28.8812   21.3569 C   0  0  0  0  0  0  0  0  0  0  0  0
  -22.4432  -28.3342   15.5488 C   0  0  0  0  0  0  0  0  0  0  0  0
  -29.6136  -26.5743   19.5930 C   0  0  0  0  0  0  0  0  0  1  0  0
  -28.4533  -22.4251   17.0073 C   0  0  2  0  0  0  0  0  0  0  0  0
  -21.0739  -28.2067   20.3387 C   0  0  1  0  0  0  0  0  0  0  0  0
  -20.3403  -27.5884   16.6714 C   0  0  2  0  0  0  0  0  0  0  0  0
  -20.0198  -27.8639   21.4291 C   0  0  0  0  0  0  0  0  0  0  0  0
  -26.1148  -12.1562   20.5159 N   0  0  0  0  0  0  0  0  0  0  0  0
  -25.8216  -13.2251   19.7559 N   0  0  0  0  0  0  0  0  0  0  0  0
  -29.3321  -23.1887   17.8807 N   0  0  0  0  0  0  0  0  0  0  0  0
  -23.0942  -29.5781   20.7402 N   0  0  0  0  0  0  0  0  0  0  0  0
  -28.6985  -15.5110   18.7159 N   0  0  0  0  0  0  0  0  0  0  0  0
  -24.0676  -14.7090   19.1795 N   0  0  0  0  0  0  0  0  0  0  0  0
  -22.1271  -11.9006   22.1364 N   0  0  0  0  0  0  0  0  0  0  0  0
  -27.7767  -17.6817   18.7450 N   0  0  0  0  0  0  0  0  0  0  0  0
  -24.3888  -31.9354   23.2027 N   0  0  0  0  0  0  0  0  0  0  0  0
  -20.5462  -28.2134   18.9786 N   0  0  0  0  0  0  0  0  0  0  0  0
  -21.2853  -27.4036   15.5340 N   0  3  0  0  0  0  0  0  0  0  0  0
  -28.1079  -25.1545   17.6939 O   0  0  0  0  0  0  0  0  0  0  0  0
  -21.7676  -13.7125   20.7776 O   0  0  0  0  0  0  0  0  0  0  0  0
  -23.4924  -29.7869   23.2569 O   0  0  0  0  0  0  0  0  0  0  0  0
  -20.9918  -30.5679   20.5492 O   0  0  0  0  0  0  0  0  0  0  0  0
  -21.9882  -26.6036   18.1383 O   0  0  0  0  0  0  0  0  0  0  0  0
  -29.7068  -17.2276   17.5408 O   0  0  0  0  0  0  0  0  0  0  0  0
  -24.5902   -7.6244   24.7216 O   0  0  0  0  0  0  0  0  0  0  0  0
  -28.4194  -26.4866   20.3693 O   0  0  0  0  0  0  0  0  0  1  0  0
  -20.1795   -4.3365   24.3484 F   0  0  0  0  0  0  0  0  0  0  0  0
  -24.8740   -4.9242   24.2012 F   0  0  0  0  0  0  0  0  0  0  0  0
  -26.2519  -19.8345   19.1837 S   0  0  0  0  0  0  0  0  0  0  0  0
  1  2  1  0  0  0  0
  1  5  2  0  0  0  0
  2  6  2  0  0  0  0
  3  8  2  0  0  0  0
  3 17  1  0  0  0  0
  4  9  1  0  0  0  0
  4 17  2  0  0  0  0
  5 19  1  0  0  0  0
  6 21  1  0  0  0  0
  7 10  2  0  0  0  0
  7 20  1  0  0  0  0
  8 24  1  0  0  0  0
  9 24  2  0  0  0  0
 10 25  1  0  0  0  0
 11 12  2  0  0  0  0
 11 26  1  0  0  0  0
 12 27  1  0  0  0  0
 13 22  1  0  0  0  0
 13 25  2  0  0  0  0
 14 23  1  0  0  0  0
 14 31  2  0  0  0  0
 15 27  2  0  0  0  0
 15 28  1  0  0  0  0
 16 23  2  0  0  0  0
 16 86  1  0  0  0  0
 17 29  1  0  0  0  0
 18 29  1  0  0  0  0
 18 30  2  0  0  0  0
 18 35  1  0  0  0  0
 19 21  2  0  0  0  0
 19 40  1  0  0  0  0
 20 22  2  0  0  0  0
 20 41  1  0  0  0  0
 21 51  1  0  0  0  0
 22 42  1  0  0  0  0
 23 61  1  0  0  0  0
 24 82  1  0  0  0  0
 25 83  1  0  0  0  0
 26 28  2  0  0  0  0
 26 82  1  0  0  0  0
 27 84  1  0  0  0  0
 28 85  1  0  0  0  0
 29 65  2  0  0  0  0
 30 66  1  0  0  0  0
 30 70  1  0  0  0  0
 31 72  1  0  0  0  0
 31 86  1  0  0  0  0
 32 33  2  0  0  0  0
 32 43  1  0  0  0  0
 33 34  1  0  0  0  0
 33 60  1  0  0  0  0
 34 67  1  0  0  0  0
 34 76  2  0  0  0  0
 35 71  1  0  0  0  0
 35 77  2  0  0  0  0
 36 52  1  0  0  0  0
 36 73  1  0  0  0  0
 36 78  2  0  0  0  0
 37 62  1  0  0  0  0
 37 68  1  0  0  0  0
 37 79  2  0  0  0  0
 38 63  1  0  0  0  0
 38 74  1  0  0  0  0
 38 80  2  0  0  0  0
 39 69  1  0  0  0  0
 39 72  1  0  0  0  0
 39 81  2  0  0  0  0
 40 44  1  0  0  0  0
 41 52  1  0  0  0  0
 42 68  1  0  0  0  0
 43 48  1  0  0  0  0
 44 46  1  0  0  0  0
 45 47  1  0  0  0  0
 45 49  1  0  0  0  0
 46 51  1  0  0  0  0
 47 53  1  0  0  0  0
 48 67  1  0  0  0  0
 49 69  1  0  0  0  0
 50 53  1  0  0  0  0
 50 69  1  0  0  0  0
 51 73  1  0  0  0  0
 52 68  1  0  0  0  0
 53 66  1  0  0  0  0
 54 61  1  0  0  0  0
 55 63  1  0  0  0  0
 56 64  1  0  0  0  0
 57 64  1  0  0  0  0
 58 64  1  0  0  0  0
 59 75  1  0  0  0  0
 60 83  1  0  0  0  0
 61 67  1  0  0  0  0
 62 64  1  0  0  0  0
 62 74  1  0  0  0  0
 63 75  1  0  0  0  0
 65 66  1  0  0  0  0
M  CHG  1  75   1
M  ISO  4  39 100  60 101  72 100  83 101
M  END
> <Batch ID>
0094

> <Smiles>
CNC(C)C(=O)NC(C(=O)N1Cc2cc([101O:1][101CH2:1]C3=CCCN(C(C)c4csc([100NH:0][100C:0](=O)N5CCCC(n6nc(-c7ccc(Oc8ccc(F)cc8F)cc7)c(C(N)=O)c6N)C5)c4)C3=O)ccc2CC1C(=O)NC1CCCc2ccccc21)C(C)(C)C

> <Shape>
0.324

> <Color>
0.099

> <Negative vol penalty>
0.000

$$$$

  -OEChem-04052300403D

 87 96  0     1  0  0  0  0  0999 V2000
  -25.8094  -36.2770   16.1087 C   0  0  0  0  0  0  0  0  0  0  0  0
  -26.1326  -34.9240   16.0852 C   0  0  0  0  0  0  0  0  0  0  0  0
  -23.5703   -8.9862   20.2153 C   0  0  0  0  0  0  0  0  0  0  0  0
  -23.1650  -10.6261   21.9426 C   0  0  0  0  0  0  0  0  0  0  0  0
  -25.8364  -36.9781   17.3135 C   0  0  0  0  0  0  0  0  0  0  0  0
  -26.4840  -34.2716   17.2664 C   0  0  0  0  0  0  0  0  0  0  0  0
  -25.2463  -28.4665   18.7745 C   0  0  0  0  0  0  0  0  0  0  0  0
  -22.7981   -8.0587   20.9146 C   0  0  0  0  0  0  0  0  0  0  0  0
  -22.3927   -9.6985   22.6419 C   0  0  0  0  0  0  0  0  0  0  0  0
  -26.0065  -27.2994   18.7147 C   0  0  0  0  0  0  0  0  0  0  0  0
  -23.1727   -6.0072   23.5746 C   0  0  0  0  0  0  0  0  0  0  0  0
  -23.6741   -4.7118   23.7011 C   0  0  0  0  0  0  0  0  0  0  0  0
  -26.6111  -27.5816   21.0329 C   0  0  0  0  0  0  0  0  0  0  0  0
  -30.2967  -23.9893   20.5450 C   0  0  0  0  0  0  0  0  0  0  0  0
  -28.5666  -20.0708   19.0889 C   0  0  0  0  0  0  0  0  0  0  0  0
  -29.9887  -19.6958   21.0056 C   0  0  0  0  0  0  0  0  0  0  0  0
  -21.7332   -3.8483   22.5501 C   0  0  0  0  0  0  0  0  0  0  0  0
  -23.7538  -10.2699   20.7293 C   0  0  0  0  0  0  0  0  0  0  0  0
  -24.1076  -12.1437   19.0348 C   0  0  0  0  0  0  0  0  0  0  0  0
  -26.1790  -36.3317   18.5116 C   0  0  0  0  0  0  0  0  0  0  0  0
  -25.1715  -29.2071   19.9629 C   0  0  0  0  0  0  0  0  0  0  0  0
  -26.5169  -34.9651   18.4882 C   0  0  0  0  0  0  0  0  0  0  0  0
  -25.8472  -28.7564   21.1059 C   0  0  0  0  0  0  0  0  0  0  0  0
  -28.8923  -24.0743   20.7108 C   0  0  0  0  0  0  0  0  0  0  0  0
  -29.3300  -20.5721   20.1432 C   0  0  0  0  0  0  0  0  0  0  0  0
  -28.4619  -18.6931   18.8971 C   0  0  0  0  0  0  0  0  0  0  0  0
  -29.1207  -17.8168   19.7595 C   0  0  0  0  0  0  0  0  0  0  0  0
  -22.2093   -8.4148   22.1279 C   0  0  0  0  0  0  0  0  0  0  0  0
  -26.6914  -26.8583   19.8432 C   0  0  0  0  0  0  0  0  0  0  0  0
  -21.9516   -6.2233   22.9359 C   0  0  0  0  0  0  0  0  0  0  0  0
  -22.9543   -3.6323   23.1888 C   0  0  0  0  0  0  0  0  0  0  0  0
  -29.8841  -18.3181   20.8138 C   0  0  0  0  0  0  0  0  0  0  0  0
  -21.2319   -5.1438   22.4236 C   0  0  0  0  0  0  0  0  0  0  0  0
  -24.5518  -11.2283   20.0077 C   0  0  0  0  0  0  0  0  0  0  0  0
  -28.3846  -22.8009   20.5773 C   0  0  0  0  0  0  0  0  0  0  0  0
  -25.2412  -12.8217   18.6583 C   0  0  0  0  0  0  0  0  0  0  0  0
  -30.6044  -22.6665   20.3151 C   0  0  0  0  0  0  0  0  0  0  0  0
  -22.7882  -12.3616   18.5176 C   0  0  0  0  0  0  0  0  0  0  0  0
  -26.0005  -32.1516   20.8270 C   0  0  0  0  0  0  0  0  0  0  0  0
  -24.5166  -31.3381   23.5944 C   0  0  0  0  0  0  0  0  0  0  0  0
  -23.4781  -28.8674   25.7073 C   0  0  0  0  0  0  0  0  0  0  0  0
  -29.9842  -15.4551   19.9121 C   0  0  0  0  0  0  0  0  0  0  0  0
  -26.2402  -37.1424   19.7820 C   0  0  0  0  0  0  0  0  0  0  0  0
  -24.3255  -30.4496   20.0185 C   0  0  0  0  0  0  0  0  0  0  0  0
  -25.7829  -29.5043   22.4117 C   0  0  0  0  0  0  0  0  0  0  0  0
  -26.2596  -36.2899   21.0482 C   0  0  0  0  0  0  0  0  0  0  0  0
  -30.1158  -11.9054   19.6685 C   0  0  0  0  0  0  0  0  0  0  0  0
  -27.2622  -35.1488   20.9082 C   0  0  0  0  0  0  0  0  0  0  0  0
  -28.6434  -11.4881   19.6550 C   0  0  0  0  0  0  0  0  0  0  0  0
  -30.3595  -13.0955   20.5948 C   0  0  0  0  0  0  0  0  0  0  0  0
  -28.0261  -13.8422   20.3363 C   0  0  0  0  0  0  0  0  0  0  0  0
  -26.8792  -34.2166   19.7525 C   0  0  1  0  0  0  0  0  0  0  0  0
  -24.7357  -31.4021   21.1373 C   0  0  1  0  0  0  0  0  0  0  0  0
  -27.7201  -12.6883   19.3675 C   0  0  2  0  0  0  0  0  0  0  0  0
  -26.9838  -22.3291   20.6600 C   0  0  0  0  0  0  0  0  0  0  0  0
  -22.3274  -28.5129   27.9090 C   0  0  0  0  0  0  0  0  0  0  0  0
  -27.0672  -32.1553   25.0562 C   0  0  0  0  0  0  0  0  0  0  0  0
  -26.2303  -30.9161   27.0643 C   0  0  0  0  0  0  0  0  0  0  0  0
  -24.9482  -32.8645   26.1794 C   0  0  0  0  0  0  0  0  0  0  0  0
  -21.2688  -27.3587   24.4416 C   0  0  0  0  0  0  0  0  0  0  0  0
  -28.1104  -25.3260   20.9811 C   0  0  0  0  0  0  0  0  0  1  0  0
  -24.9475  -30.6907   24.8884 C   0  0  1  0  0  0  0  0  0  0  0  0
  -22.1501  -28.6293   26.4031 C   0  0  2  0  0  0  0  0  0  0  0  0
  -25.8013  -31.6434   25.7721 C   0  0  0  0  0  0  0  0  0  0  0  0
  -25.8652  -11.3143   20.2350 N   0  0  0  0  0  0  0  0  0  0  0  0
  -29.4344  -21.9534   20.3366 N   0  0  0  0  0  0  0  0  0  0  0  0
  -26.2560  -12.2916   19.3995 N   0  0  0  0  0  0  0  0  0  0  0  0
  -24.9477  -30.7167   22.4138 N   0  0  0  0  0  0  0  0  0  0  0  0
  -29.4523  -14.1956   20.2607 N   0  0  0  0  0  0  0  0  0  0  0  0
  -27.6830  -18.2072   17.8228 N   0  0  0  0  0  0  0  0  0  0  0  0
  -25.4589  -13.8135   17.7688 N   0  0  0  0  0  0  0  0  0  0  0  0
  -21.7379  -11.5777   19.0143 N   0  0  0  0  0  0  0  0  0  0  0  0
  -29.0268  -16.4141   19.5826 N   0  0  0  0  0  0  0  0  0  0  0  0
  -25.7992  -33.3383   20.1483 N   0  0  0  0  0  0  0  0  0  0  0  0
  -23.7285  -30.2118   25.5310 N   0  0  0  0  0  0  0  0  0  0  0  0
  -21.5224  -27.3727   25.9053 N   0  3  0  0  0  0  0  0  0  0  0  0
  -22.5505  -13.2147   17.6292 O   0  0  0  0  0  0  0  0  0  0  0  0
  -27.0791  -31.6882   21.1787 O   0  0  0  0  0  0  0  0  0  0  0  0
  -23.8170  -32.3535   23.6299 O   0  0  0  0  0  0  0  0  0  0  0  0
  -24.2208  -27.9524   25.3585 O   0  0  0  0  0  0  0  0  0  0  0  0
  -31.2003  -15.6596   19.8798 O   0  0  0  0  0  0  0  0  0  0  0  0
  -31.7760  -22.0799   20.1002 O   0  0  0  0  0  0  0  0  0  0  0  0
  -21.4556   -7.5101   22.8104 O   0  0  0  0  0  0  0  0  0  0  0  0
  -27.4347  -25.7197   19.7874 O   0  0  0  0  0  0  0  0  0  1  0  0
  -23.4366   -2.3885   23.3090 F   0  0  0  0  0  0  0  0  0  0  0  0
  -30.5219  -17.4860   21.6495 F   0  0  0  0  0  0  0  0  0  0  0  0
  -20.0587   -5.3452   21.8080 F   0  0  0  0  0  0  0  0  0  0  0  0
  1  2  1  0  0  0  0
  1  5  2  0  0  0  0
  2  6  2  0  0  0  0
  3  8  2  0  0  0  0
  3 18  1  0  0  0  0
  4  9  1  0  0  0  0
  4 18  2  0  0  0  0
  5 20  1  0  0  0  0
  6 22  1  0  0  0  0
  7 10  2  0  0  0  0
  7 21  1  0  0  0  0
  8 28  1  0  0  0  0
  9 28  2  0  0  0  0
 10 29  1  0  0  0  0
 11 12  2  0  0  0  0
 11 30  1  0  0  0  0
 12 31  1  0  0  0  0
 13 23  1  0  0  0  0
 13 29  2  0  0  0  0
 14 24  1  0  0  0  0
 14 37  2  0  0  0  0
 15 25  1  0  0  0  0
 15 26  2  0  0  0  0
 16 25  2  0  0  0  0
 16 32  1  0  0  0  0
 17 31  2  0  0  0  0
 17 33  1  0  0  0  0
 18 34  1  0  0  0  0
 19 34  1  0  0  0  0
 19 36  2  0  0  0  0
 19 38  1  0  0  0  0
 20 22  2  0  0  0  0
 20 43  1  0  0  0  0
 21 23  2  0  0  0  0
 21 44  1  0  0  0  0
 22 52  1  0  0  0  0
 23 45  1  0  0  0  0
 24 35  2  0  0  0  0
 24 61  1  0  0  0  0
 25 66  1  0  0  0  0
 26 27  1  0  0  0  0
 26 70  1  0  0  0  0
 27 32  2  0  0  0  0
 27 73  1  0  0  0  0
 28 83  1  0  0  0  0
 29 84  1  0  0  0  0
 30 33  2  0  0  0  0
 30 83  1  0  0  0  0
 31 85  1  0  0  0  0
 32 86  1  0  0  0  0
 33 87  1  0  0  0  0
 34 65  2  0  0  0  0
 35 55  1  0  0  0  0
 35 66  1  0  0  0  0
 36 67  1  0  0  0  0
 36 71  1  0  0  0  0
 37 66  1  0  0  0  0
 37 82  1  0  0  0  0
 38 72  1  0  0  0  0
 38 77  2  0  0  0  0
 39 53  1  0  0  0  0
 39 74  1  0  0  0  0
 39 78  2  0  0  0  0
 40 62  1  0  0  0  0
 40 68  1  0  0  0  0
 40 79  2  0  0  0  0
 41 63  1  0  0  0  0
 41 75  1  0  0  0  0
 41 80  2  0  0  0  0
 42 69  1  0  0  0  0
 42 73  1  0  0  0  0
 42 81  2  0  0  0  0
 43 46  1  0  0  0  0
 44 53  1  0  0  0  0
 45 68  1  0  0  0  0
 46 48  1  0  0  0  0
 47 49  1  0  0  0  0
 47 50  1  0  0  0  0
 48 52  1  0  0  0  0
 49 54  1  0  0  0  0
 50 69  1  0  0  0  0
 51 54  1  0  0  0  0
 51 69  1  0  0  0  0
 52 74  1  0  0  0  0
 53 68  1  0  0  0  0
 54 67  1  0  0  0  0
 56 63  1  0  0  0  0
 57 64  1  0  0  0  0
 58 64  1  0  0  0  0
 59 64  1  0  0  0  0
 60 76  1  0  0  0  0
 61 84  1  0  0  0  0
 62 64  1  0  0  0  0
 62 75  1  0  0  0  0
 63 76  1  0  0  0  0
 65 67  1  0  0  0  0
M  CHG  1  76   1
M  ISO  4  42 100  61 101  73 100  84 101
M  END
> <Batch ID>
0094

> <Smiles>
CNC(C)C(=O)NC(C(=O)N1Cc2cc([101O:1][101CH2:1]C3=C(C)N(c4cc(N)c([100NH:0][100C:0](=O)N5CCCC(n6nc(-c7ccc(Oc8ccc(F)cc8F)cc7)c(C(N)=O)c6N)C5)c(F)c4)C(=O)C3)ccc2CC1C(=O)NC1CCCc2ccccc21)C(C)(C)C

> <Shape>
0.314

> <Color>
0.123

> <Negative vol penalty>
0.000

$$$$

  -OEChem-04052300403D

 88 97  0     1  0  0  0  0  0999 V2000
  -32.2254  -29.7759   12.4884 C   0  0  0  0  0  0  0  0  0  0  0  0
  -31.0589  -29.0243   12.3888 C   0  0  0  0  0  0  0  0  0  0  0  0
  -23.2859   -9.7632   20.0736 C   0  0  0  0  0  0  0  0  0  0  0  0
  -23.7517  -10.0589   22.4258 C   0  0  0  0  0  0  0  0  0  0  0  0
  -27.7814  -17.6446   14.4868 C   0  0  0  0  0  0  0  0  0  0  0  0
  -33.2744  -29.3297   13.2911 C   0  0  0  0  0  0  0  0  0  0  0  0
  -30.9413  -27.8254   13.0912 C   0  0  0  0  0  0  0  0  0  0  0  0
  -25.8565  -25.5139   15.6027 C   0  0  0  0  0  0  0  0  0  0  0  0
  -26.6589  -18.3285   14.0200 C   0  0  0  0  0  0  0  0  0  0  0  0
  -22.5561   -8.6103   20.3630 C   0  0  0  0  0  0  0  0  0  0  0  0
  -23.0217   -8.9060   22.7152 C   0  0  0  0  0  0  0  0  0  0  0  0
  -24.9504  -24.5482   15.1666 C   0  0  0  0  0  0  0  0  0  0  0  0
  -19.7724   -8.0260   23.0114 C   0  0  0  0  0  0  0  0  0  0  0  0
  -18.8764   -8.0790   24.0791 C   0  0  0  0  0  0  0  0  0  0  0  0
  -26.1254  -22.8757   16.4478 C   0  0  0  0  0  0  0  0  0  0  0  0
  -25.8608  -18.5667   16.2879 C   0  0  0  0  0  0  0  0  0  0  0  0
  -20.0805   -6.2959   25.1781 C   0  0  0  0  0  0  0  0  0  0  0  0
  -23.8838  -10.4875   21.1050 C   0  0  0  0  0  0  0  0  0  0  0  0
  -27.9435  -17.4216   15.8542 C   0  0  0  0  0  0  0  0  0  0  0  0
  -24.1523  -12.9975   20.7372 C   0  0  0  0  0  0  0  0  0  0  0  0
  -33.1658  -28.1296   14.0113 C   0  0  0  0  0  0  0  0  0  0  0  0
  -26.9121  -25.1650   16.4574 C   0  0  0  0  0  0  0  0  0  0  0  0
  -31.9904  -27.3621   13.9033 C   0  0  0  0  0  0  0  0  0  0  0  0
  -27.0420  -23.8393   16.8953 C   0  0  0  0  0  0  0  0  0  0  0  0
  -25.6987  -18.7896   14.9205 C   0  0  0  0  0  0  0  0  0  0  0  0
  -22.4239   -8.1817   21.6838 C   0  0  0  0  0  0  0  0  0  0  0  0
  -25.0864  -23.2284   15.5868 C   0  0  0  0  0  0  0  0  0  0  0  0
  -20.8224   -7.1079   23.0270 C   0  0  0  0  0  0  0  0  0  0  0  0
  -26.9832  -17.8826   16.7547 C   0  0  0  0  0  0  0  0  0  0  0  0
  -19.0305   -7.2140   25.1625 C   0  0  0  0  0  0  0  0  0  0  0  0
  -20.9765   -6.2429   24.1104 C   0  0  0  0  0  0  0  0  0  0  0  0
  -24.6384  -11.6781   20.8066 C   0  0  0  0  0  0  0  0  0  0  0  0
  -25.2554  -13.7538   20.4246 C   0  0  0  0  0  0  0  0  0  0  0  0
  -23.2739  -19.5066   15.0343 C   0  0  0  0  0  0  0  0  0  0  0  0
  -29.1463  -16.6909   16.3297 C   0  0  0  0  0  0  0  0  0  0  0  0
  -22.8226  -13.4950   20.9375 C   0  0  0  0  0  0  0  0  0  0  0  0
  -30.0832  -25.2415   16.2525 C   0  0  0  0  0  0  0  0  0  0  0  0
  -29.9168  -24.3477   19.3663 C   0  0  0  0  0  0  0  0  0  0  0  0
  -28.1241  -22.8646   21.8629 C   0  0  0  0  0  0  0  0  0  0  0  0
  -29.8864  -14.6503   17.5180 C   0  0  0  0  0  0  0  0  0  0  0  0
  -34.3447  -27.6644   14.8288 C   0  0  0  0  0  0  0  0  0  0  0  0
  -27.8654  -26.2236   16.9401 C   0  0  0  0  0  0  0  0  0  0  0  0
  -28.1460  -23.4171   17.8289 C   0  0  0  0  0  0  0  0  0  0  0  0
  -22.3640  -20.2958   14.1206 C   0  0  0  0  0  0  0  0  0  0  0  0
  -33.9947  -26.5712   15.8351 C   0  0  0  0  0  0  0  0  0  0  0  0
  -30.1710  -12.5357   20.3366 C   0  0  0  0  0  0  0  0  0  0  0  0
  -33.1426  -25.4915   15.1756 C   0  0  0  0  0  0  0  0  0  0  0  0
  -28.7170  -12.2369   20.7121 C   0  0  0  0  0  0  0  0  0  0  0  0
  -30.3647  -12.5970   18.8221 C   0  0  0  0  0  0  0  0  0  0  0  0
  -24.5619  -20.2316   13.1956 C   0  0  0  0  0  0  0  0  0  0  0  0
  -28.0018  -13.1995   18.4882 C   0  0  0  0  0  0  0  0  0  0  0  0
  -31.8153  -26.0688   14.6693 C   0  0  1  0  0  0  0  0  0  0  0  0
  -29.2053  -25.6566   17.3991 C   0  0  1  0  0  0  0  0  0  0  0  0
  -23.3191  -21.1097   13.2558 C   0  0  2  0  0  0  0  0  0  0  0  0
  -27.7409  -13.1971   20.0031 C   0  0  1  0  0  0  0  0  0  0  0  0
  -28.2659  -22.2484   24.2914 C   0  0  0  0  0  0  0  0  0  0  0  0
  -31.7517  -22.0131   18.6643 C   0  0  0  0  0  0  0  0  0  0  0  0
  -31.0953  -20.9374   20.8277 C   0  0  0  0  0  0  0  0  0  0  0  0
  -32.2756  -23.1350   20.8372 C   0  0  0  0  0  0  0  0  0  0  0  0
  -25.8040  -24.5687   22.5502 C   0  0  0  0  0  0  0  0  0  0  0  0
  -27.8172  -18.6753   18.8360 C   0  0  0  0  0  0  0  0  0  0  0  0
  -23.6164  -22.4752   13.8758 C   0  0  0  0  0  0  0  0  0  1  0  0
  -29.8601  -23.0287   20.0984 C   0  0  1  0  0  0  0  0  0  0  0  0
  -27.8269  -23.3016   23.2860 C   0  0  2  0  0  0  0  0  0  0  0  0
  -31.2259  -22.2858   20.0878 C   0  0  0  0  0  0  0  0  0  0  0  0
  -25.9482  -11.5974   20.5579 N   0  0  0  0  0  0  0  0  0  0  0  0
  -26.2946  -12.8756   20.3292 N   0  0  0  0  0  0  0  0  0  0  0  0
  -24.5500  -19.4888   14.4425 N   0  0  0  0  0  0  0  0  0  0  0  0
  -29.0565  -24.4874   18.2680 N   0  0  0  0  0  0  0  0  0  0  0  0
  -29.4100  -13.5344   18.2281 N   0  0  0  0  0  0  0  0  0  0  0  0
  -25.4281  -15.0776   20.2248 N   0  0  0  0  0  0  0  0  0  0  0  0
  -21.8078  -12.5811   21.2526 N   0  0  0  0  0  0  0  0  0  0  0  0
  -28.8963  -15.5082   17.0262 N   0  0  0  0  0  0  0  0  0  0  0  0
  -30.8919  -26.2521   15.7685 N   0  0  0  0  0  0  0  0  0  0  0  0
  -29.3510  -23.3242   21.4332 N   0  0  0  0  0  0  0  0  0  0  0  0
  -26.3659  -23.5381   23.4608 N   0  3  0  0  0  0  0  0  0  0  0  0
  -22.8705  -18.9654   16.0535 O   0  0  0  0  0  0  0  0  0  0  0  0
  -30.2599  -17.1317   16.0586 O   0  0  0  0  0  0  0  0  0  0  0  0
  -22.5396  -14.7117   20.8239 O   0  0  0  0  0  0  0  0  0  0  0  0
  -30.0319  -24.0892   15.8386 O   0  0  0  0  0  0  0  0  0  0  0  0
  -30.6906  -25.2245   19.7589 O   0  0  0  0  0  0  0  0  0  0  0  0
  -27.3473  -22.1805   21.2002 O   0  0  0  0  0  0  0  0  0  0  0  0
  -31.0898  -14.8836   17.3675 O   0  0  0  0  0  0  0  0  0  0  0  0
  -21.7116   -7.0570   21.9666 O   0  0  0  0  0  0  0  0  0  0  0  0
  -27.1236  -17.6743   18.0943 O   0  0  0  0  0  0  0  0  0  0  0  0
  -24.2037  -22.2837   15.1621 O   0  0  0  0  0  0  0  0  0  1  0  0
  -18.1709   -7.2661   26.1884 F   0  0  0  0  0  0  0  0  0  0  0  0
  -21.9840   -5.3595   24.1316 F   0  0  0  0  0  0  0  0  0  0  0  0
  1  2  1  0  0  0  0
  1  6  2  0  0  0  0
  2  7  2  0  0  0  0
  3 10  2  0  0  0  0
  3 18  1  0  0  0  0
  4 11  1  0  0  0  0
  4 18  2  0  0  0  0
  5  9  2  0  0  0  0
  5 19  1  0  0  0  0
  6 21  1  0  0  0  0
  7 23  1  0  0  0  0
  8 12  2  0  0  0  0
  8 22  1  0  0  0  0
  9 25  1  0  0  0  0
 10 26  1  0  0  0  0
 11 26  2  0  0  0  0
 12 27  1  0  0  0  0
 13 14  2  0  0  0  0
 13 28  1  0  0  0  0
 14 30  1  0  0  0  0
 15 24  1  0  0  0  0
 15 27  2  0  0  0  0
 16 25  2  0  0  0  0
 16 29  1  0  0  0  0
 17 30  2  0  0  0  0
 17 31  1  0  0  0  0
 18 32  1  0  0  0  0
 19 29  2  0  0  0  0
 19 35  1  0  0  0  0
 20 32  1  0  0  0  0
 20 33  2  0  0  0  0
 20 36  1  0  0  0  0
 21 23  2  0  0  0  0
 21 41  1  0  0  0  0
 22 24  2  0  0  0  0
 22 42  1  0  0  0  0
 23 52  1  0  0  0  0
 24 43  1  0  0  0  0
 25 68  1  0  0  0  0
 26 84  1  0  0  0  0
 27 86  1  0  0  0  0
 28 31  2  0  0  0  0
 28 84  1  0  0  0  0
 29 85  1  0  0  0  0
 30 87  1  0  0  0  0
 31 88  1  0  0  0  0
 32 66  2  0  0  0  0
 33 67  1  0  0  0  0
 33 71  1  0  0  0  0
 34 44  1  0  0  0  0
 34 68  1  0  0  0  0
 34 77  2  0  0  0  0
 35 73  1  0  0  0  0
 35 78  2  0  0  0  0
 36 72  1  0  0  0  0
 36 79  2  0  0  0  0
 37 53  1  0  0  0  0
 37 74  1  0  0  0  0
 37 80  2  0  0  0  0
 38 63  1  0  0  0  0
 38 69  1  0  0  0  0
 38 81  2  0  0  0  0
 39 64  1  0  0  0  0
 39 75  1  0  0  0  0
 39 82  2  0  0  0  0
 40 70  1  0  0  0  0
 40 73  1  0  0  0  0
 40 83  2  0  0  0  0
 41 45  1  0  0  0  0
 42 53  1  0  0  0  0
 43 69  1  0  0  0  0
 44 54  1  0  0  0  0
 45 47  1  0  0  0  0
 46 48  1  0  0  0  0
 46 49  1  0  0  0  0
 47 52  1  0  0  0  0
 48 55  1  0  0  0  0
 49 70  1  0  0  0  0
 50 54  1  0  0  0  0
 50 68  1  0  0  0  0
 51 55  1  0  0  0  0
 51 70  1  0  0  0  0
 52 74  1  0  0  0  0
 53 69  1  0  0  0  0
 54 62  1  0  0  0  0
 55 67  1  0  0  0  0
 56 64  1  0  0  0  0
 57 65  1  0  0  0  0
 58 65  1  0  0  0  0
 59 65  1  0  0  0  0
 60 76  1  0  0  0  0
 61 85  1  0  0  0  0
 62 86  1  0  0  0  0
 63 65  1  0  0  0  0
 63 75  1  0  0  0  0
 64 76  1  0  0  0  0
 66 67  1  0  0  0  0
M  CHG  1  76   1
M  ISO  4  40 100  62 101  73 100  86 101
M  END
> <Batch ID>
0094

> <Smiles>
CNC(C)C(=O)NC(C(=O)N1Cc2cc([101O:1][101CH2:1]C3CC(=O)N(c4ccc(C(=O)[100NH:0][100C:0](=O)N5CCCC(n6nc(-c7ccc(Oc8ccc(F)cc8F)cc7)c(C(N)=O)c6N)C5)c(OC)c4)C3)ccc2CC1C(=O)NC1CCCc2ccccc21)C(C)(C)C

> <Shape>
0.188

> <Color>
0.181

> <Negative vol penalty>
0.000

$$$$

  -OEChem-04052300403D

 86 95  0     1  0  0  0  0  0999 V2000
  -34.3669  -11.6186   18.7105 C   0  0  0  0  0  0  0  0  0  0  0  0
  -33.7779  -12.8516   18.4494 C   0  0  0  0  0  0  0  0  0  0  0  0
  -24.7827  -28.8636   22.1790 C   0  0  0  0  0  0  0  0  0  0  0  0
  -24.5299  -30.4833   20.4042 C   0  0  0  0  0  0  0  0  0  0  0  0
  -33.6046  -10.4535   18.6362 C   0  0  0  0  0  0  0  0  0  0  0  0
  -32.4265  -12.9202   18.1127 C   0  0  0  0  0  0  0  0  0  0  0  0
  -28.4848  -17.3674   19.5929 C   0  0  0  0  0  0  0  0  0  0  0  0
  -27.0764  -22.6178   17.8484 C   0  0  0  0  0  0  0  0  0  0  0  0
  -28.3669  -23.0558   18.1454 C   0  0  0  0  0  0  0  0  0  0  0  0
  -24.3774  -29.8201   23.1097 C   0  0  0  0  0  0  0  0  0  0  0  0
  -24.1246  -31.4398   21.3350 C   0  0  0  0  0  0  0  0  0  0  0  0
  -28.0077  -18.4711   18.8872 C   0  0  0  0  0  0  0  0  0  0  0  0
  -21.4742  -31.1936   24.1669 C   0  0  0  0  0  0  0  0  0  0  0  0
  -20.5450  -30.8058   25.1322 C   0  0  0  0  0  0  0  0  0  0  0  0
  -26.0575  -17.2071   18.2406 C   0  0  0  0  0  0  0  0  0  0  0  0
  -27.9277  -22.7524   20.5017 C   0  0  0  0  0  0  0  0  0  0  0  0
  -22.1301  -31.3440   26.8742 C   0  0  0  0  0  0  0  0  0  0  0  0
  -24.8591  -29.1951   20.8262 C   0  0  0  0  0  0  0  0  0  0  0  0
  -24.4584  -27.3067   19.1586 C   0  0  0  0  0  0  0  0  0  0  0  0
  -32.2409  -10.5087   18.3079 C   0  0  0  0  0  0  0  0  0  0  0  0
  -27.7558  -16.1697   19.6187 C   0  0  0  0  0  0  0  0  0  0  0  0
  -31.6456  -11.7546   18.0326 C   0  0  0  0  0  0  0  0  0  0  0  0
  -26.5262  -16.0905   18.9494 C   0  0  0  0  0  0  0  0  0  0  0  0
  -26.2114  -22.2472   18.8781 C   0  0  0  0  0  0  0  0  0  0  0  0
  -28.7926  -23.1231   19.4720 C   0  0  0  0  0  0  0  0  0  0  0  0
  -24.0483  -31.1082   22.6877 C   0  0  0  0  0  0  0  0  0  0  0  0
  -26.7953  -18.3902   18.2085 C   0  0  0  0  0  0  0  0  0  0  0  0
  -22.7314  -31.6565   24.5552 C   0  0  0  0  0  0  0  0  0  0  0  0
  -20.8729  -30.8811   26.4858 C   0  0  0  0  0  0  0  0  0  0  0  0
  -26.6371  -22.3144   20.2047 C   0  0  0  0  0  0  0  0  0  0  0  0
  -23.0593  -31.7318   25.9089 C   0  0  0  0  0  0  0  0  0  0  0  0
  -25.2782  -28.2076   19.8643 C   0  0  0  0  0  0  0  0  0  0  0  0
  -25.3305  -26.5884   18.3776 C   0  0  0  0  0  0  0  0  0  0  0  0
  -23.7453  -21.9479   19.3859 C   0  0  0  0  0  0  0  0  0  0  0  0
  -23.0358  -27.1346   19.2048 C   0  0  0  0  0  0  0  0  0  0  0  0
  -28.2976  -13.1925   18.6459 C   0  0  0  0  0  0  0  0  0  0  0  0
  -25.4726  -12.6082   20.1293 C   0  0  0  0  0  0  0  0  0  0  0  0
  -22.4850  -13.8173   21.2515 C   0  0  0  0  0  0  0  0  0  0  0  0
  -30.8311  -24.5005   18.9836 C   0  0  0  0  0  0  0  0  0  0  0  0
  -31.4689   -9.2181   18.1936 C   0  0  0  0  0  0  0  0  0  0  0  0
  -28.2711  -14.9967   20.4067 C   0  0  0  0  0  0  0  0  0  0  0  0
  -25.6955  -14.8342   18.9628 C   0  0  0  0  0  0  0  0  0  0  0  0
  -22.5751  -21.3424   18.6476 C   0  0  0  0  0  0  0  0  0  0  0  0
  -29.9547   -9.4118   18.1966 C   0  0  0  0  0  0  0  0  0  0  0  0
  -23.0534  -21.2914   17.2089 C   0  0  0  0  0  0  0  0  0  0  0  0
  -29.9205  -27.2638   16.6972 C   0  0  0  0  0  0  0  0  0  0  0  0
  -29.5589  -10.5394   17.2486 C   0  0  0  0  0  0  0  0  0  0  0  0
  -28.5940  -27.7569   17.2723 C   0  0  0  0  0  0  0  0  0  0  0  0
  -30.8151  -26.6590   17.7749 C   0  0  0  0  0  0  0  0  0  0  0  0
  -28.8272  -26.0578   19.1271 C   0  0  0  0  0  0  0  0  0  0  0  0
  -30.1767  -11.8723   17.6884 C   0  0  1  0  0  0  0  0  0  0  0  0
  -27.6952  -13.6636   19.9393 C   0  0  1  0  0  0  0  0  0  0  0  0
  -27.8914  -26.6349   18.0544 C   0  0  1  0  0  0  0  0  0  0  0  0
  -24.5595  -21.0909   17.3352 C   0  0  2  0  0  0  0  0  0  0  0  0
  -20.3686  -13.0926   22.3885 C   0  0  0  0  0  0  0  0  0  0  0  0
  -24.5106  -11.3412   17.5257 C   0  0  0  0  0  0  0  0  0  0  0  0
  -22.1674  -11.5075   18.3918 C   0  0  0  0  0  0  0  0  0  0  0  0
  -23.8438  -10.1062   19.5956 C   0  0  0  0  0  0  0  0  0  0  0  0
  -30.8753  -22.8555   20.8067 C   0  0  0  0  0  0  0  0  0  0  0  0
  -22.9586  -15.6293   23.5431 C   0  0  0  0  0  0  0  0  0  0  0  0
  -24.9114  -19.6035   17.4120 C   0  0  0  0  0  0  0  0  0  1  0  0
  -24.0221  -12.6255   19.7115 C   0  0  1  0  0  0  0  0  0  0  0  0
  -21.7681  -13.6561   22.5798 C   0  0  2  0  0  0  0  0  0  0  0  0
  -23.6523  -11.4183   18.8041 C   0  0  0  0  0  0  0  0  0  0  0  0
  -26.5718  -28.0756   19.5588 N   0  0  0  0  0  0  0  0  0  0  0  0
  -26.5714  -27.0832   18.6526 N   0  0  0  0  0  0  0  0  0  0  0  0
  -24.8870  -21.7980   18.5702 N   0  0  0  0  0  0  0  0  0  0  0  0
  -26.2450  -13.7124   19.7421 N   0  0  0  0  0  0  0  0  0  0  0  0
  -30.1139  -25.6346   18.5506 N   0  0  0  0  0  0  0  0  0  0  0  0
  -25.1494  -25.5880   17.4895 N   0  0  0  0  0  0  0  0  0  0  0  0
  -22.2909  -27.9562   20.0617 N   0  0  0  0  0  0  0  0  0  0  0  0
  -29.4384  -12.4285   18.8019 N   0  0  0  0  0  0  0  0  0  0  0  0
  -23.2436  -12.7081   20.9426 N   0  0  0  0  0  0  0  0  0  0  0  0
  -30.1273  -23.5760   19.7788 N   0  0  0  0  0  0  0  0  0  0  0  0
  -21.6546  -14.9719   23.2702 N   0  3  0  0  0  0  0  0  0  0  0  0
  -23.6300  -22.4314   20.5029 O   0  0  0  0  0  0  0  0  0  0  0  0
  -22.4445  -26.2665   18.5190 O   0  0  0  0  0  0  0  0  0  0  0  0
  -27.7659  -13.4982   17.5850 O   0  0  0  0  0  0  0  0  0  0  0  0
  -25.9028  -11.6537   20.7816 O   0  0  0  0  0  0  0  0  0  0  0  0
  -22.3795  -14.8248   20.5556 O   0  0  0  0  0  0  0  0  0  0  0  0
  -32.0317  -24.3482   18.7270 O   0  0  0  0  0  0  0  0  0  0  0  0
  -23.6525  -32.0418   23.5957 O   0  0  0  0  0  0  0  0  0  0  0  0
  -26.3277  -19.4658   17.5184 O   0  0  0  0  0  0  0  0  0  1  0  0
  -19.9799  -30.5102   27.4128 F   0  0  0  0  0  0  0  0  0  0  0  0
  -25.8141  -21.9613   21.2026 F   0  0  0  0  0  0  0  0  0  0  0  0
  -24.2651  -32.1768   26.2881 F   0  0  0  0  0  0  0  0  0  0  0  0
  1  2  1  0  0  0  0
  1  5  2  0  0  0  0
  2  6  2  0  0  0  0
  3 10  2  0  0  0  0
  3 18  1  0  0  0  0
  4 11  1  0  0  0  0
  4 18  2  0  0  0  0
  5 20  1  0  0  0  0
  6 22  1  0  0  0  0
  7 12  2  0  0  0  0
  7 21  1  0  0  0  0
  8  9  2  0  0  0  0
  8 24  1  0  0  0  0
  9 25  1  0  0  0  0
 10 26  1  0  0  0  0
 11 26  2  0  0  0  0
 12 27  1  0  0  0  0
 13 14  2  0  0  0  0
 13 28  1  0  0  0  0
 14 29  1  0  0  0  0
 15 23  1  0  0  0  0
 15 27  2  0  0  0  0
 16 25  2  0  0  0  0
 16 30  1  0  0  0  0
 17 29  2  0  0  0  0
 17 31  1  0  0  0  0
 18 32  1  0  0  0  0
 19 32  1  0  0  0  0
 19 33  2  0  0  0  0
 19 35  1  0  0  0  0
 20 22  2  0  0  0  0
 20 40  1  0  0  0  0
 21 23  2  0  0  0  0
 21 41  1  0  0  0  0
 22 51  1  0  0  0  0
 23 42  1  0  0  0  0
 24 30  2  0  0  0  0
 24 67  1  0  0  0  0
 25 74  1  0  0  0  0
 26 82  1  0  0  0  0
 27 83  1  0  0  0  0
 28 31  2  0  0  0  0
 28 82  1  0  0  0  0
 29 84  1  0  0  0  0
 30 85  1  0  0  0  0
 31 86  1  0  0  0  0
 32 65  2  0  0  0  0
 33 66  1  0  0  0  0
 33 70  1  0  0  0  0
 34 43  1  0  0  0  0
 34 67  1  0  0  0  0
 34 76  2  0  0  0  0
 35 71  1  0  0  0  0
 35 77  2  0  0  0  0
 36 52  1  0  0  0  0
 36 72  1  0  0  0  0
 36 78  2  0  0  0  0
 37 62  1  0  0  0  0
 37 68  1  0  0  0  0
 37 79  2  0  0  0  0
 38 63  1  0  0  0  0
 38 73  1  0  0  0  0
 38 80  2  0  0  0  0
 39 69  1  0  0  0  0
 39 74  1  0  0  0  0
 39 81  2  0  0  0  0
 40 44  1  0  0  0  0
 41 52  1  0  0  0  0
 42 68  1  0  0  0  0
 43 45  1  0  0  0  0
 44 47  1  0  0  0  0
 45 54  1  0  0  0  0
 46 48  1  0  0  0  0
 46 49  1  0  0  0  0
 47 51  1  0  0  0  0
 48 53  1  0  0  0  0
 49 69  1  0  0  0  0
 50 53  1  0  0  0  0
 50 69  1  0  0  0  0
 51 72  1  0  0  0  0
 52 68  1  0  0  0  0
 53 66  1  0  0  0  0
 54 61  1  0  0  0  0
 54 67  1  0  0  0  0
 55 63  1  0  0  0  0
 56 64  1  0  0  0  0
 57 64  1  0  0  0  0
 58 64  1  0  0  0  0
 59 74  1  0  0  0  0
 60 75  1  0  0  0  0
 61 83  1  0  0  0  0
 62 64  1  0  0  0  0
 62 73  1  0  0  0  0
 63 75  1  0  0  0  0
 65 66  1  0  0  0  0
M  CHG  1  75   1
M  ISO  4  39 100  61 101  74 100  83 101
M  END
> <Batch ID>
0094

> <Smiles>
CNC(C)C(=O)NC(C(=O)N1Cc2cc([101O:1][101CH2:1]C3CCC(=O)N3c3ccc([100N:0](C)[100C:0](=O)N4CCCC(n5nc(-c6ccc(Oc7ccc(F)cc7F)cc6)c(C(N)=O)c5N)C4)cc3F)ccc2CC1C(=O)NC1CCCc2ccccc21)C(C)(C)C

> <Shape>
0.221

> <Color>
0.071

> <Negative vol penalty>
0.000

$$$$

  -OEChem-04052300403D

 87 96  0     1  0  0  0  0  0999 V2000
  -29.7738  -33.1050   24.5485 C   0  0  0  0  0  0  0  0  0  0  0  0
  -29.5504  -31.8167   24.0733 C   0  0  0  0  0  0  0  0  0  0  0  0
  -23.0429  -10.0109   19.8551 C   0  0  0  0  0  0  0  0  0  0  0  0
  -24.0436   -9.6270   22.0204 C   0  0  0  0  0  0  0  0  0  0  0  0
  -28.7055  -33.8693   25.0159 C   0  0  0  0  0  0  0  0  0  0  0  0
  -28.2586  -31.2916   24.0661 C   0  0  0  0  0  0  0  0  0  0  0  0
  -27.1464  -28.9277   19.7279 C   0  0  0  0  0  0  0  0  0  0  0  0
  -31.4149  -18.6302   20.6677 C   0  0  0  0  0  0  0  0  0  0  0  0
  -31.1170  -19.8031   19.9741 C   0  0  0  0  0  0  0  0  0  0  0  0
  -22.3488   -8.8058   19.9622 C   0  0  0  0  0  0  0  0  0  0  0  0
  -23.3494   -8.4218   22.1275 C   0  0  0  0  0  0  0  0  0  0  0  0
  -27.6614  -27.6441   19.5521 C   0  0  0  0  0  0  0  0  0  0  0  0
  -20.2176   -7.4131   22.8987 C   0  0  0  0  0  0  0  0  0  0  0  0
  -19.5910   -7.1335   24.1131 C   0  0  0  0  0  0  0  0  0  0  0  0
  -25.5278  -26.7088   20.1786 C   0  0  0  0  0  0  0  0  0  0  0  0
  -29.2168  -23.0347   17.8090 C   0  0  0  0  0  0  0  0  0  0  0  0
  -28.9581  -19.8939   21.0550 C   0  0  0  0  0  0  0  0  0  0  0  0
  -20.9353   -5.1398   24.3477 C   0  0  0  0  0  0  0  0  0  0  0  0
  -23.8903  -10.4215   20.8842 C   0  0  0  0  0  0  0  0  0  0  0  0
  -24.1764  -12.9368   21.1990 C   0  0  0  0  0  0  0  0  0  0  0  0
  -27.3986  -33.3569   25.0055 C   0  0  0  0  0  0  0  0  0  0  0  0
  -25.8192  -29.1117   20.1417 C   0  0  0  0  0  0  0  0  0  0  0  0
  -27.1721  -32.0493   24.5351 C   0  0  0  0  0  0  0  0  0  0  0  0
  -24.9977  -27.9958   20.3565 C   0  0  0  0  0  0  0  0  0  0  0  0
  -30.4844  -18.0890   21.5549 C   0  0  0  0  0  0  0  0  0  0  0  0
  -29.0673  -23.7252   19.0370 C   0  0  0  0  0  0  0  0  0  0  0  0
  -29.8886  -20.4350   20.1678 C   0  0  0  0  0  0  0  0  0  0  0  0
  -29.2561  -18.7209   21.7486 C   0  0  0  0  0  0  0  0  0  0  0  0
  -22.5021   -8.0112   21.0983 C   0  0  0  0  0  0  0  0  0  0  0  0
  -26.8529  -26.5344   19.7802 C   0  0  0  0  0  0  0  0  0  0  0  0
  -21.2030   -6.5560   22.4087 C   0  0  0  0  0  0  0  0  0  0  0  0
  -19.9499   -5.9969   24.8376 C   0  0  0  0  0  0  0  0  0  0  0  0
  -21.5619   -5.4194   23.1332 C   0  0  0  0  0  0  0  0  0  0  0  0
  -24.6080  -11.6660   20.7740 C   0  0  0  0  0  0  0  0  0  0  0  0
  -29.3041  -22.8211   20.0488 C   0  0  0  0  0  0  0  0  0  0  0  0
  -25.2111  -13.7783   20.8710 C   0  0  0  0  0  0  0  0  0  0  0  0
  -29.5402  -21.7295   18.1078 C   0  0  0  0  0  0  0  0  0  0  0  0
  -22.9498  -13.3220   21.8337 C   0  0  0  0  0  0  0  0  0  0  0  0
  -24.4212  -30.4305   22.6735 C   0  0  0  0  0  0  0  0  0  0  0  0
  -21.7085  -29.8401   20.9957 C   0  0  0  0  0  0  0  0  0  0  0  0
  -20.1320  -28.0042   18.5893 C   0  0  0  0  0  0  0  0  0  0  0  0
  -30.6663  -14.9407   20.6832 C   0  0  0  0  0  0  0  0  0  0  0  0
  -26.2826  -34.2032   25.5648 C   0  0  0  0  0  0  0  0  0  0  0  0
  -25.2709  -30.5032   20.3010 C   0  0  0  0  0  0  0  0  0  0  0  0
  -23.5601  -28.1397   20.7822 C   0  0  0  0  0  0  0  0  0  0  0  0
  -24.8910  -33.7113   25.1750 C   0  0  0  0  0  0  0  0  0  0  0  0
  -29.3187  -12.9920   18.0256 C   0  0  0  0  0  0  0  0  0  0  0  0
  -24.7818  -32.2033   25.3771 C   0  0  0  0  0  0  0  0  0  0  0  0
  -27.9407  -12.5733   18.5413 C   0  0  0  0  0  0  0  0  0  0  0  0
  -30.3553  -13.0228   19.1465 C   0  0  0  0  0  0  0  0  0  0  0  0
  -28.6012  -13.4208   20.8313 C   0  0  0  0  0  0  0  0  0  0  0  0
  -25.7816  -31.4538   24.4882 C   0  0  1  0  0  0  0  0  0  0  0  0
  -24.0564  -30.5651   21.2221 C   0  0  1  0  0  0  0  0  0  0  0  0
  -27.5096  -13.4291   19.7475 C   0  0  2  0  0  0  0  0  0  0  0  0
  -29.2790  -23.0176   21.5158 C   0  0  0  0  0  0  0  0  0  0  0  0
  -17.9049  -27.7262   17.4668 C   0  0  0  0  0  0  0  0  0  0  0  0
  -20.6526  -28.3797   23.4579 C   0  0  0  0  0  0  0  0  0  0  0  0
  -18.9010  -27.3386   22.0032 C   0  0  0  0  0  0  0  0  0  0  0  0
  -18.9677  -29.8152   22.2940 C   0  0  0  0  0  0  0  0  0  0  0  0
  -21.2518  -28.6944   15.9381 C   0  0  0  0  0  0  0  0  0  0  0  0
  -30.8293  -16.8308   22.2832 C   0  0  0  0  0  0  0  0  0  0  0  0
  -28.7149  -25.1750   19.1961 C   0  0  0  0  0  0  0  0  0  1  0  0
  -20.7439  -28.6832   20.8956 C   0  0  1  0  0  0  0  0  0  0  0  0
  -19.2589  -28.4168   17.4180 C   0  0  2  0  0  0  0  0  0  0  0  0
  -19.8439  -28.5511   22.1566 C   0  0  0  0  0  0  0  0  0  0  0  0
  -25.8222  -11.6931   20.2182 N   0  0  0  0  0  0  0  0  0  0  0  0
  -29.5902  -21.6112   19.4723 N   0  0  0  0  0  0  0  0  0  0  0  0
  -26.1624  -12.9912   20.2916 N   0  0  0  0  0  0  0  0  0  0  0  0
  -23.0722  -29.5208   20.9307 N   0  0  0  0  0  0  0  0  0  0  0  0
  -29.8861  -13.8524   20.2589 N   0  0  0  0  0  0  0  0  0  0  0  0
  -28.3014  -18.1859   22.6412 N   0  0  0  0  0  0  0  0  0  0  0  0
  -25.3909  -15.1075   21.0243 N   0  0  0  0  0  0  0  0  0  0  0  0
  -21.9947  -12.3312   22.0986 N   0  0  0  0  0  0  0  0  0  0  0  0
  -25.3010  -31.3960   23.1243 N   0  0  0  0  0  0  0  0  0  0  0  0
  -20.0055  -28.8738   19.6518 N   0  0  0  0  0  0  0  0  0  0  0  0
  -30.1457  -15.6786   21.7393 N   0  0  0  0  0  0  0  0  0  0  0  0
  -19.9200  -28.0645   16.1297 N   0  3  0  0  0  0  0  0  0  0  0  0
  -22.7012  -14.5124   22.1415 O   0  0  0  0  0  0  0  0  0  0  0  0
  -23.9390  -29.5191   23.3357 O   0  0  0  0  0  0  0  0  0  0  0  0
  -21.2681  -30.9857   21.1198 O   0  0  0  0  0  0  0  0  0  0  0  0
  -20.8513  -27.0079   18.5655 O   0  0  0  0  0  0  0  0  0  0  0  0
  -31.7442  -15.2362   20.1562 O   0  0  0  0  0  0  0  0  0  0  0  0
  -29.7799  -20.6972   17.3081 O   0  0  0  0  0  0  0  0  0  0  0  0
  -21.8247   -6.8353   21.2032 O   0  0  0  0  0  0  0  0  0  0  0  0
  -27.3533  -25.2804   19.6100 O   0  0  0  0  0  0  0  0  0  1  0  0
  -19.3492   -5.7294   26.0046 F   0  0  0  0  0  0  0  0  0  0  0  0
  -22.5087   -4.5928   22.6682 F   0  0  0  0  0  0  0  0  0  0  0  0
  1  2  1  0  0  0  0
  1  5  2  0  0  0  0
  2  6  2  0  0  0  0
  3 10  2  0  0  0  0
  3 19  1  0  0  0  0
  4 11  1  0  0  0  0
  4 19  2  0  0  0  0
  5 21  1  0  0  0  0
  6 23  1  0  0  0  0
  7 12  2  0  0  0  0
  7 22  1  0  0  0  0
  8  9  2  0  0  0  0
  8 25  1  0  0  0  0
  9 27  1  0  0  0  0
 10 29  1  0  0  0  0
 11 29  2  0  0  0  0
 12 30  1  0  0  0  0
 13 14  2  0  0  0  0
 13 31  1  0  0  0  0
 14 32  1  0  0  0  0
 15 24  1  0  0  0  0
 15 30  2  0  0  0  0
 16 26  1  0  0  0  0
 16 37  2  0  0  0  0
 17 27  2  0  0  0  0
 17 28  1  0  0  0  0
 18 32  2  0  0  0  0
 18 33  1  0  0  0  0
 19 34  1  0  0  0  0
 20 34  1  0  0  0  0
 20 36  2  0  0  0  0
 20 38  1  0  0  0  0
 21 23  2  0  0  0  0
 21 43  1  0  0  0  0
 22 24  2  0  0  0  0
 22 44  1  0  0  0  0
 23 52  1  0  0  0  0
 24 45  1  0  0  0  0
 25 28  2  0  0  0  0
 25 61  1  0  0  0  0
 26 35  2  0  0  0  0
 26 62  1  0  0  0  0
 27 67  1  0  0  0  0
 28 71  1  0  0  0  0
 29 84  1  0  0  0  0
 30 85  1  0  0  0  0
 31 33  2  0  0  0  0
 31 84  1  0  0  0  0
 32 86  1  0  0  0  0
 33 87  1  0  0  0  0
 34 66  2  0  0  0  0
 35 55  1  0  0  0  0
 35 67  1  0  0  0  0
 36 68  1  0  0  0  0
 36 72  1  0  0  0  0
 37 67  1  0  0  0  0
 37 83  1  0  0  0  0
 38 73  1  0  0  0  0
 38 78  2  0  0  0  0
 39 53  1  0  0  0  0
 39 74  1  0  0  0  0
 39 79  2  0  0  0  0
 40 63  1  0  0  0  0
 40 69  1  0  0  0  0
 40 80  2  0  0  0  0
 41 64  1  0  0  0  0
 41 75  1  0  0  0  0
 41 81  2  0  0  0  0
 42 70  1  0  0  0  0
 42 76  1  0  0  0  0
 42 82  2  0  0  0  0
 43 46  1  0  0  0  0
 44 53  1  0  0  0  0
 45 69  1  0  0  0  0
 46 48  1  0  0  0  0
 47 49  1  0  0  0  0
 47 50  1  0  0  0  0
 48 52  1  0  0  0  0
 49 54  1  0  0  0  0
 50 70  1  0  0  0  0
 51 54  1  0  0  0  0
 51 70  1  0  0  0  0
 52 74  1  0  0  0  0
 53 69  1  0  0  0  0
 54 68  1  0  0  0  0
 56 64  1  0  0  0  0
 57 65  1  0  0  0  0
 58 65  1  0  0  0  0
 59 65  1  0  0  0  0
 60 77  1  0  0  0  0
 61 76  1  0  0  0  0
 62 85  1  0  0  0  0
 63 65  1  0  0  0  0
 63 75  1  0  0  0  0
 64 77  1  0  0  0  0
 66 68  1  0  0  0  0
M  CHG  1  77   1
M  ISO  4  42 100  62 101  76 100  85 101
M  END
> <Batch ID>
0094

> <Smiles>
CNC(C)C(=O)NC(C(=O)N1Cc2cc([101O:1][101CH2:1]C3=C(C)N(c4ccc(C[100NH:0][100C:0](=O)N5CCCC(n6nc(-c7ccc(Oc8ccc(F)cc8F)cc7)c(C(N)=O)c6N)C5)c(N)c4)C(=O)C3)ccc2CC1C(=O)NC1CCCc2ccccc21)C(C)(C)C

> <Shape>
0.423

> <Color>
0.187

> <Negative vol penalty>
0.000

$$$$

  -OEChem-04052300403D

 86 95  0     1  0  0  0  0  0999 V2000
  -37.5525  -32.5473   22.3623 C   0  0  0  0  0  0  0  0  0  0  0  0
  -36.8490  -31.3885   22.6747 C   0  0  0  0  0  0  0  0  0  0  0  0
  -23.0561   -9.7470   20.0174 C   0  0  0  0  0  0  0  0  0  0  0  0
  -23.6716   -9.9887   22.3412 C   0  0  0  0  0  0  0  0  0  0  0  0
  -37.0183  -33.7941   22.6847 C   0  0  0  0  0  0  0  0  0  0  0  0
  -35.6112  -31.4758   23.3108 C   0  0  0  0  0  0  0  0  0  0  0  0
  -32.1503  -28.4017   21.2573 C   0  0  0  0  0  0  0  0  0  0  0  0
  -22.2990   -8.6195   20.3352 C   0  0  0  0  0  0  0  0  0  0  0  0
  -22.9144   -8.8612   22.6590 C   0  0  0  0  0  0  0  0  0  0  0  0
  -32.2196  -27.0503   21.5933 C   0  0  0  0  0  0  0  0  0  0  0  0
  -23.2421   -5.5022   22.4567 C   0  0  0  0  0  0  0  0  0  0  0  0
  -23.8124   -4.5582   23.3106 C   0  0  0  0  0  0  0  0  0  0  0  0
  -30.4476  -27.3652   23.1996 C   0  0  0  0  0  0  0  0  0  0  0  0
  -30.4184  -18.9430   23.2253 C   0  0  0  0  0  0  0  0  0  0  0  0
  -32.7658  -22.4974   23.9250 C   0  0  0  0  0  0  0  0  0  0  0  0
  -31.3819  -17.6502   20.9487 C   0  0  0  0  0  0  0  0  0  0  0  0
  -22.0078   -4.8898   24.8825 C   0  0  0  0  0  0  0  0  0  0  0  0
  -31.7306  -21.9482   22.0024 C   0  0  0  0  0  0  0  0  0  0  0  0
  -23.7425  -10.4317   21.0204 C   0  0  0  0  0  0  0  0  0  0  0  0
  -24.0892  -12.9345   20.6692 C   0  0  0  0  0  0  0  0  0  0  0  0
  -35.7689  -33.8971   23.3164 C   0  0  0  0  0  0  0  0  0  0  0  0
  -31.2351  -29.2486   21.8987 C   0  0  0  0  0  0  0  0  0  0  0  0
  -35.0603  -32.7251   23.6433 C   0  0  0  0  0  0  0  0  0  0  0  0
  -30.3670  -28.7263   22.8681 C   0  0  0  0  0  0  0  0  0  0  0  0
  -29.9397  -17.6774   22.8868 C   0  0  0  0  0  0  0  0  0  0  0  0
  -32.2974  -23.0008   22.6864 C   0  0  0  0  0  0  0  0  0  0  0  0
  -31.3789  -19.5623   22.4254 C   0  0  0  0  0  0  0  0  0  0  0  0
  -30.4215  -17.0310   21.7485 C   0  0  0  0  0  0  0  0  0  0  0  0
  -31.8606  -18.9159   21.2871 C   0  0  0  0  0  0  0  0  0  0  0  0
  -22.2281   -8.1766   21.6560 C   0  0  0  0  0  0  0  0  0  0  0  0
  -31.3702  -26.5325   22.5667 C   0  0  0  0  0  0  0  0  0  0  0  0
  -22.0546   -6.1401   22.8157 C   0  0  0  0  0  0  0  0  0  0  0  0
  -23.1953   -4.2520   24.5235 C   0  0  0  0  0  0  0  0  0  0  0  0
  -21.4375   -5.8338   24.0285 C   0  0  0  0  0  0  0  0  0  0  0  0
  -24.5252  -11.5961   20.6927 C   0  0  0  0  0  0  0  0  0  0  0  0
  -25.2013  -13.6515   20.3009 C   0  0  0  0  0  0  0  0  0  0  0  0
  -32.4710  -21.1523   23.9602 C   0  0  0  0  0  0  0  0  0  0  0  0
  -22.7947  -13.4807   20.9548 C   0  0  0  0  0  0  0  0  0  0  0  0
  -31.4760  -31.8325   23.7344 C   0  0  0  0  0  0  0  0  0  0  0  0
  -28.2440  -31.8526   23.4576 C   0  0  0  0  0  0  0  0  0  0  0  0
  -25.3763  -30.1012   22.8616 C   0  0  0  0  0  0  0  0  0  0  0  0
  -30.6451  -14.7476   20.7081 C   0  0  0  0  0  0  0  0  0  0  0  0
  -35.2538  -35.2651   23.6879 C   0  0  0  0  0  0  0  0  0  0  0  0
  -31.1546  -30.6983   21.5058 C   0  0  0  0  0  0  0  0  0  0  0  0
  -29.3528  -29.5892   23.5718 C   0  0  0  0  0  0  0  0  0  0  0  0
  -33.7649  -35.2848   24.0242 C   0  0  0  0  0  0  0  0  0  0  0  0
  -29.6824  -12.1012   18.5294 C   0  0  0  0  0  0  0  0  0  0  0  0
  -33.4150  -34.1363   24.9651 C   0  0  0  0  0  0  0  0  0  0  0  0
  -28.2190  -11.8440   18.8960 C   0  0  0  0  0  0  0  0  0  0  0  0
  -30.5206  -12.4555   19.7564 C   0  0  0  0  0  0  0  0  0  0  0  0
  -28.5307  -13.3011   20.9372 C   0  0  0  0  0  0  0  0  0  0  0  0
  -33.7033  -32.7797   24.3109 C   0  0  1  0  0  0  0  0  0  0  0  0
  -30.5374  -31.5775   22.5891 C   0  0  1  0  0  0  0  0  0  0  0  0
  -27.6333  -13.0041   19.7248 C   0  0  2  0  0  0  0  0  0  0  0  0
  -28.9107  -17.0377   23.7615 C   0  0  0  0  0  0  0  0  0  0  0  0
  -22.8855  -30.3822   22.7411 C   0  0  0  0  0  0  0  0  0  0  0  0
  -28.1088  -31.9390   26.5046 C   0  0  0  0  0  0  0  0  0  0  0  0
  -25.7025  -31.2659   26.3474 C   0  0  0  0  0  0  0  0  0  0  0  0
  -26.4611  -33.4204   25.3449 C   0  0  0  0  0  0  0  0  0  0  0  0
  -25.3040  -29.2749   20.0207 C   0  0  0  0  0  0  0  0  0  0  0  0
  -32.3991  -24.4188   22.2066 C   0  0  0  0  0  0  0  0  0  1  0  0
  -27.1009  -31.2423   24.2320 C   0  0  1  0  0  0  0  0  0  0  0  0
  -24.1898  -30.3882   21.9592 C   0  0  2  0  0  0  0  0  0  0  0  0
  -26.8637  -31.9508   25.5955 C   0  0  0  0  0  0  0  0  0  0  0  0
  -25.8138  -11.4678   20.3653 N   0  0  0  0  0  0  0  0  0  0  0  0
  -31.8421  -20.8295   22.7861 N   0  0  0  0  0  0  0  0  0  0  0  0
  -26.1969  -12.7347   20.1325 N   0  0  0  0  0  0  0  0  0  0  0  0
  -29.3169  -31.0015   23.1573 N   0  0  0  0  0  0  0  0  0  0  0  0
  -29.9073  -13.5650   20.4896 N   0  0  0  0  0  0  0  0  0  0  0  0
  -32.8339  -19.5218   20.4602 N   0  0  0  0  0  0  0  0  0  0  0  0
  -25.4148  -14.9704   20.1079 N   0  0  0  0  0  0  0  0  0  0  0  0
  -21.7644  -12.6027   21.3182 N   0  0  0  0  0  0  0  0  0  0  0  0
  -29.9473  -15.7453   21.3879 N   0  0  0  0  0  0  0  0  0  0  0  0
  -32.6601  -32.4422   23.3663 N   0  0  0  0  0  0  0  0  0  0  0  0
  -25.9469  -31.2619   23.3397 N   0  0  0  0  0  0  0  0  0  0  0  0
  -24.0973  -29.3616   20.8829 N   0  3  0  0  0  0  0  0  0  0  0  0
  -22.5544  -14.7092   20.8737 O   0  0  0  0  0  0  0  0  0  0  0  0
  -31.1493  -31.5019   24.8683 O   0  0  0  0  0  0  0  0  0  0  0  0
  -28.1839  -33.0390   23.1251 O   0  0  0  0  0  0  0  0  0  0  0  0
  -25.7564  -28.9613   23.1199 O   0  0  0  0  0  0  0  0  0  0  0  0
  -31.8011  -14.8766   20.2967 O   0  0  0  0  0  0  0  0  0  0  0  0
  -32.7050  -20.2427   24.8985 O   0  0  0  0  0  0  0  0  0  0  0  0
  -21.4892   -7.0765   21.9665 O   0  0  0  0  0  0  0  0  0  0  0  0
  -31.4361  -25.2140   22.8970 O   0  0  0  0  0  0  0  0  0  1  0  0
  -23.7423   -3.3443   25.3426 F   0  0  0  0  0  0  0  0  0  0  0  0
  -20.2960   -6.4424   24.3783 F   0  0  0  0  0  0  0  0  0  0  0  0
  1  2  1  0  0  0  0
  1  5  2  0  0  0  0
  2  6  2  0  0  0  0
  3  8  2  0  0  0  0
  3 19  1  0  0  0  0
  4  9  1  0  0  0  0
  4 19  2  0  0  0  0
  5 21  1  0  0  0  0
  6 23  1  0  0  0  0
  7 10  2  0  0  0  0
  7 22  1  0  0  0  0
  8 30  1  0  0  0  0
  9 30  2  0  0  0  0
 10 31  1  0  0  0  0
 11 12  2  0  0  0  0
 11 32  1  0  0  0  0
 12 33  1  0  0  0  0
 13 24  1  0  0  0  0
 13 31  2  0  0  0  0
 14 25  2  0  0  0  0
 14 27  1  0  0  0  0
 15 26  1  0  0  0  0
 15 37  2  0  0  0  0
 16 28  2  0  0  0  0
 16 29  1  0  0  0  0
 17 33  2  0  0  0  0
 17 34  1  0  0  0  0
 18 26  2  0  0  0  0
 18 66  1  0  0  0  0
 19 35  1  0  0  0  0
 20 35  1  0  0  0  0
 20 36  2  0  0  0  0
 20 38  1  0  0  0  0
 21 23  2  0  0  0  0
 21 43  1  0  0  0  0
 22 24  2  0  0  0  0
 22 44  1  0  0  0  0
 23 52  1  0  0  0  0
 24 45  1  0  0  0  0
 25 28  1  0  0  0  0
 25 55  1  0  0  0  0
 26 61  1  0  0  0  0
 27 29  2  0  0  0  0
 27 66  1  0  0  0  0
 28 73  1  0  0  0  0
 29 70  1  0  0  0  0
 30 83  1  0  0  0  0
 31 84  1  0  0  0  0
 32 34  2  0  0  0  0
 32 83  1  0  0  0  0
 33 85  1  0  0  0  0
 34 86  1  0  0  0  0
 35 65  2  0  0  0  0
 36 67  1  0  0  0  0
 36 71  1  0  0  0  0
 37 66  1  0  0  0  0
 37 82  1  0  0  0  0
 38 72  1  0  0  0  0
 38 77  2  0  0  0  0
 39 53  1  0  0  0  0
 39 74  1  0  0  0  0
 39 78  2  0  0  0  0
 40 62  1  0  0  0  0
 40 68  1  0  0  0  0
 40 79  2  0  0  0  0
 41 63  1  0  0  0  0
 41 75  1  0  0  0  0
 41 80  2  0  0  0  0
 42 69  1  0  0  0  0
 42 73  1  0  0  0  0
 42 81  2  0  0  0  0
 43 46  1  0  0  0  0
 44 53  1  0  0  0  0
 45 68  1  0  0  0  0
 46 48  1  0  0  0  0
 47 49  1  0  0  0  0
 47 50  1  0  0  0  0
 48 52  1  0  0  0  0
 49 54  1  0  0  0  0
 50 69  1  0  0  0  0
 51 54  1  0  0  0  0
 51 69  1  0  0  0  0
 52 74  1  0  0  0  0
 53 68  1  0  0  0  0
 54 67  1  0  0  0  0
 56 63  1  0  0  0  0
 57 64  1  0  0  0  0
 58 64  1  0  0  0  0
 59 64  1  0  0  0  0
 60 76  1  0  0  0  0
 61 84  1  0  0  0  0
 62 64  1  0  0  0  0
 62 75  1  0  0  0  0
 63 76  1  0  0  0  0
 65 67  1  0  0  0  0
M  CHG  1  76   1
M  ISO  4  42 100  61 101  73 100  84 101
M  END
> <Batch ID>
0094

> <Smiles>
CNC(C)C(=O)NC(C(=O)N1Cc2cc([101O:1][101CH2:1]C3=CN(c4cc(C)c([100NH:0][100C:0](=O)N5CCCC(n6nc(-c7ccc(Oc8ccc(F)cc8F)cc7)c(C(N)=O)c6N)C5)cc4N)C(=O)C3)ccc2CC1C(=O)NC1CCCc2ccccc21)C(C)(C)C

> <Shape>
0.266

> <Color>
0.189

> <Negative vol penalty>
0.000

$$$$

  -OEChem-04052300403D

 88 97  0     1  0  0  0  0  0999 V2000
  -30.1154  -32.6347   25.7831 C   0  0  0  0  0  0  0  0  0  0  0  0
  -29.7908  -31.4858   25.0690 C   0  0  0  0  0  0  0  0  0  0  0  0
  -24.1346   -9.3754   21.4635 C   0  0  0  0  0  0  0  0  0  0  0  0
  -24.6996  -10.5157   23.5172 C   0  0  0  0  0  0  0  0  0  0  0  0
  -29.1053  -33.4090   26.3524 C   0  0  0  0  0  0  0  0  0  0  0  0
  -28.4558  -31.1099   24.9246 C   0  0  0  0  0  0  0  0  0  0  0  0
  -27.3331  -29.7090   20.1894 C   0  0  0  0  0  0  0  0  0  0  0  0
  -29.9843  -20.1222   18.4183 C   0  0  0  0  0  0  0  0  0  0  0  0
  -30.1294  -18.8186   18.8928 C   0  0  0  0  0  0  0  0  0  0  0  0
  -23.7240   -8.2611   22.1951 C   0  0  0  0  0  0  0  0  0  0  0  0
  -24.2889   -9.4013   24.2488 C   0  0  0  0  0  0  0  0  0  0  0  0
  -27.7281  -28.4322   19.7925 C   0  0  0  0  0  0  0  0  0  0  0  0
  -21.0178   -7.3186   23.9899 C   0  0  0  0  0  0  0  0  0  0  0  0
  -19.8125   -6.7155   23.6307 C   0  0  0  0  0  0  0  0  0  0  0  0
  -25.4850  -27.6281   20.1682 C   0  0  0  0  0  0  0  0  0  0  0  0
  -28.9095  -24.0783   17.2681 C   0  0  0  0  0  0  0  0  0  0  0  0
  -28.5798  -20.6546   20.3107 C   0  0  0  0  0  0  0  0  0  0  0  0
  -20.9806   -4.6491   23.1806 C   0  0  0  0  0  0  0  0  0  0  0  0
  -24.6224  -10.5027   22.1245 C   0  0  0  0  0  0  0  0  0  0  0  0
  -24.2582  -12.7518   20.9770 C   0  0  0  0  0  0  0  0  0  0  0  0
  -27.7567  -33.0476   26.2068 C   0  0  0  0  0  0  0  0  0  0  0  0
  -26.0115  -29.9530   20.5898 C   0  0  0  0  0  0  0  0  0  0  0  0
  -27.4268  -31.8793   25.4936 C   0  0  0  0  0  0  0  0  0  0  0  0
  -25.0751  -28.9095   20.5673 C   0  0  0  0  0  0  0  0  0  0  0  0
  -28.7675  -24.5476   18.5972 C   0  0  0  0  0  0  0  0  0  0  0  0
  -29.2095  -21.0402   19.1273 C   0  0  0  0  0  0  0  0  0  0  0  0
  -29.4997  -18.4329   20.0762 C   0  0  0  0  0  0  0  0  0  0  0  0
  -23.8011   -8.2740   23.5877 C   0  0  0  0  0  0  0  0  0  0  0  0
  -26.8047  -27.3909   19.7847 C   0  0  0  0  0  0  0  0  0  0  0  0
  -22.2046   -6.5870   23.9443 C   0  0  0  0  0  0  0  0  0  0  0  0
  -19.7939   -5.3807   23.2261 C   0  0  0  0  0  0  0  0  0  0  0  0
  -28.7249  -19.3509   20.7852 C   0  0  0  0  0  0  0  0  0  0  0  0
  -22.1860   -5.2522   23.5398 C   0  0  0  0  0  0  0  0  0  0  0  0
  -25.0472  -11.6539   21.3693 C   0  0  0  0  0  0  0  0  0  0  0  0
  -25.1224  -13.5669   20.2877 C   0  0  0  0  0  0  0  0  0  0  0  0
  -29.0903  -22.7142   17.3306 C   0  0  0  0  0  0  0  0  0  0  0  0
  -28.8660  -23.4560   19.4316 C   0  0  0  0  0  0  0  0  0  0  0  0
  -29.7485  -15.5360   22.3895 C   0  0  0  0  0  0  0  0  0  0  0  0
  -29.6114  -16.7770   21.9176 C   0  0  0  0  0  0  0  0  0  0  0  0
  -22.8683  -13.0116   21.2146 C   0  0  0  0  0  0  0  0  0  0  0  0
  -24.6260  -30.9267   23.2797 C   0  0  0  0  0  0  0  0  0  0  0  0
  -21.9547  -30.9418   21.4396 C   0  0  0  0  0  0  0  0  0  0  0  0
  -20.3268  -29.7530   18.6858 C   0  0  0  0  0  0  0  0  0  0  0  0
  -30.0064  -16.0553   19.6485 C   0  0  0  0  0  0  0  0  0  0  0  0
  -26.7025  -33.8902   26.8802 C   0  0  0  0  0  0  0  0  0  0  0  0
  -25.5948  -31.3418   20.9895 C   0  0  0  0  0  0  0  0  0  0  0  0
  -23.6393  -29.1237   20.9685 C   0  0  0  0  0  0  0  0  0  0  0  0
  -25.2905  -33.6271   26.3632 C   0  0  0  0  0  0  0  0  0  0  0  0
  -29.8063  -12.7331   18.5945 C   0  0  0  0  0  0  0  0  0  0  0  0
  -25.0245  -32.1276   26.2766 C   0  0  0  0  0  0  0  0  0  0  0  0
  -28.4902  -12.2352   19.1912 C   0  0  0  0  0  0  0  0  0  0  0  0
  -30.5461  -13.6340   19.5767 C   0  0  0  0  0  0  0  0  0  0  0  0
  -28.4219  -14.3216   20.6439 C   0  0  0  0  0  0  0  0  0  0  0  0
  -25.9888  -31.4521   25.2941 C   0  0  1  0  0  0  0  0  0  0  0  0
  -24.3482  -31.3619   21.8687 C   0  0  1  0  0  0  0  0  0  0  0  0
  -27.6286  -13.4104   19.6859 C   0  0  2  0  0  0  0  0  0  0  0  0
  -18.1413  -29.9208   17.4640 C   0  0  0  0  0  0  0  0  0  0  0  0
  -20.6407  -29.1755   23.5523 C   0  0  0  0  0  0  0  0  0  0  0  0
  -18.8696  -28.6081   21.8762 C   0  0  0  0  0  0  0  0  0  0  0  0
  -19.1639  -30.9688   22.6265 C   0  0  0  0  0  0  0  0  0  0  0  0
  -21.6383  -30.7942   16.2455 C   0  0  0  0  0  0  0  0  0  0  0  0
  -28.5513  -25.9728   19.0137 C   0  0  0  0  0  0  0  0  0  1  0  0
  -20.8876  -29.9308   21.0958 C   0  0  1  0  0  0  0  0  0  0  0  0
  -19.5572  -30.4623   17.5862 C   0  0  2  0  0  0  0  0  0  0  0  0
  -19.9179  -29.6660   22.2820 C   0  0  0  0  0  0  0  0  0  0  0  0
  -26.3152  -11.7588   20.9628 N   0  0  0  0  0  0  0  0  0  0  0  0
  -29.0623  -22.3470   18.6507 N   0  0  0  0  0  0  0  0  0  0  0  0
  -26.3295  -12.9323   20.3079 N   0  0  0  0  0  0  0  0  0  0  0  0
  -23.2821  -30.4979   21.3575 N   0  0  0  0  0  0  0  0  0  0  0  0
  -29.6929  -14.7346   20.0265 N   0  0  0  0  0  0  0  0  0  0  0  0
  -24.9599  -14.7574   19.6722 N   0  0  0  0  0  0  0  0  0  0  0  0
  -22.1271  -12.0694   21.9407 N   0  0  0  0  0  0  0  0  0  0  0  0
  -25.5727  -31.6955   23.9295 N   0  0  0  0  0  0  0  0  0  0  0  0
  -20.2338  -30.4222   19.8877 N   0  0  0  0  0  0  0  0  0  0  0  0
  -29.6512  -17.0783   20.5658 N   0  0  0  0  0  0  0  0  0  0  0  0
  -20.2434  -30.2837   16.2755 N   0  3  0  0  0  0  0  0  0  0  0  0
  -22.2966  -14.0406   20.7813 O   0  0  0  0  0  0  0  0  0  0  0  0
  -24.0249  -29.9655   23.7450 O   0  0  0  0  0  0  0  0  0  0  0  0
  -21.6229  -32.0853   21.7620 O   0  0  0  0  0  0  0  0  0  0  0  0
  -20.9455  -28.7077   18.4981 O   0  0  0  0  0  0  0  0  0  0  0  0
  -30.5806  -16.3084   18.5815 O   0  0  0  0  0  0  0  0  0  0  0  0
  -29.2679  -21.8241   16.3616 O   0  0  0  0  0  0  0  0  0  0  0  0
  -28.8015  -23.3708   20.7555 O   0  0  0  0  0  0  0  0  0  0  0  0
  -23.4003   -7.1869   24.3020 O   0  0  0  0  0  0  0  0  0  0  0  0
  -27.1877  -26.1435   19.3984 O   0  0  0  0  0  0  0  0  0  1  0  0
  -18.6361   -4.8013   22.8827 F   0  0  0  0  0  0  0  0  0  0  0  0
  -28.1139  -18.9907   21.9228 F   0  0  0  0  0  0  0  0  0  0  0  0
  -23.3227   -4.5439   23.4952 F   0  0  0  0  0  0  0  0  0  0  0  0
  1  2  1  0  0  0  0
  1  5  2  0  0  0  0
  2  6  2  0  0  0  0
  3 10  2  0  0  0  0
  3 19  1  0  0  0  0
  4 11  1  0  0  0  0
  4 19  2  0  0  0  0
  5 21  1  0  0  0  0
  6 23  1  0  0  0  0
  7 12  2  0  0  0  0
  7 22  1  0  0  0  0
  8  9  2  0  0  0  0
  8 26  1  0  0  0  0
  9 27  1  0  0  0  0
 10 28  1  0  0  0  0
 11 28  2  0  0  0  0
 12 29  1  0  0  0  0
 13 14  2  0  0  0  0
 13 30  1  0  0  0  0
 14 31  1  0  0  0  0
 15 24  1  0  0  0  0
 15 29  2  0  0  0  0
 16 25  1  0  0  0  0
 16 36  2  0  0  0  0
 17 26  2  0  0  0  0
 17 32  1  0  0  0  0
 18 31  2  0  0  0  0
 18 33  1  0  0  0  0
 19 34  1  0  0  0  0
 20 34  1  0  0  0  0
 20 35  2  0  0  0  0
 20 40  1  0  0  0  0
 21 23  2  0  0  0  0
 21 45  1  0  0  0  0
 22 24  2  0  0  0  0
 22 46  1  0  0  0  0
 23 54  1  0  0  0  0
 24 47  1  0  0  0  0
 25 37  2  0  0  0  0
 25 62  1  0  0  0  0
 26 67  1  0  0  0  0
 27 32  2  0  0  0  0
 27 75  1  0  0  0  0
 28 84  1  0  0  0  0
 29 85  1  0  0  0  0
 30 33  2  0  0  0  0
 30 84  1  0  0  0  0
 31 86  1  0  0  0  0
 32 87  1  0  0  0  0
 33 88  1  0  0  0  0
 34 66  2  0  0  0  0
 35 68  1  0  0  0  0
 35 71  1  0  0  0  0
 36 67  1  0  0  0  0
 36 82  1  0  0  0  0
 37 67  1  0  0  0  0
 37 83  1  0  0  0  0
 38 39  2  0  0  0  0
 39 75  1  0  0  0  0
 40 72  1  0  0  0  0
 40 77  2  0  0  0  0
 41 55  1  0  0  0  0
 41 73  1  0  0  0  0
 41 78  2  0  0  0  0
 42 63  1  0  0  0  0
 42 69  1  0  0  0  0
 42 79  2  0  0  0  0
 43 64  1  0  0  0  0
 43 74  1  0  0  0  0
 43 80  2  0  0  0  0
 44 70  1  0  0  0  0
 44 75  1  0  0  0  0
 44 81  2  0  0  0  0
 45 48  1  0  0  0  0
 46 55  1  0  0  0  0
 47 69  1  0  0  0  0
 48 50  1  0  0  0  0
 49 51  1  0  0  0  0
 49 52  1  0  0  0  0
 50 54  1  0  0  0  0
 51 56  1  0  0  0  0
 52 70  1  0  0  0  0
 53 56  1  0  0  0  0
 53 70  1  0  0  0  0
 54 73  1  0  0  0  0
 55 69  1  0  0  0  0
 56 68  1  0  0  0  0
 57 64  1  0  0  0  0
 58 65  1  0  0  0  0
 59 65  1  0  0  0  0
 60 65  1  0  0  0  0
 61 76  1  0  0  0  0
 62 85  1  0  0  0  0
 63 65  1  0  0  0  0
 63 74  1  0  0  0  0
 64 76  1  0  0  0  0
 66 68  1  0  0  0  0
M  CHG  1  76   1
M  ISO  4  44 100  62 101  75 100  85 101
M  END
> <Batch ID>
0094

> <Smiles>
C=C[100N:0](c1ccc(N2C(=O)CC([101CH2:1][101O:1]c3ccc4c(c3)CN(C(=O)C(NC(=O)C(C)NC)C(C)(C)C)C(C(=O)NC3CCCc5ccccc53)C4)C2=O)cc1F)[100C:0](=O)N1CCCC(n2nc(-c3ccc(Oc4ccc(F)cc4F)cc3)c(C(N)=O)c2N)C1

> <Shape>
0.391

> <Color>
0.133

> <Negative vol penalty>
0.000

$$$$

  -OEChem-04052300403D

 88 97  0     1  0  0  0  0  0999 V2000
  -20.4557  -21.8046   19.3565 C   0  0  0  0  0  0  0  0  0  0  0  0
  -21.6448  -21.7184   20.0734 C   0  0  0  0  0  0  0  0  0  0  0  0
  -23.0753   -9.8699   19.9393 C   0  0  0  0  0  0  0  0  0  0  0  0
  -23.8353   -9.8744   22.2326 C   0  0  0  0  0  0  0  0  0  0  0  0
  -20.4332  -22.4497   18.1207 C   0  0  0  0  0  0  0  0  0  0  0  0
  -22.8125  -22.2764   19.5543 C   0  0  0  0  0  0  0  0  0  0  0  0
  -25.4192  -24.8967   23.0162 C   0  0  0  0  0  0  0  0  0  0  0  0
  -22.3311   -8.7168   20.1881 C   0  0  0  0  0  0  0  0  0  0  0  0
  -23.0910   -8.7212   22.4815 C   0  0  0  0  0  0  0  0  0  0  0  0
  -26.1816  -24.1661   23.9265 C   0  0  0  0  0  0  0  0  0  0  0  0
  -19.8626   -7.9238   23.0833 C   0  0  0  0  0  0  0  0  0  0  0  0
  -19.1057   -7.8829   24.2542 C   0  0  0  0  0  0  0  0  0  0  0  0
  -32.0649  -16.6040   22.5523 C   0  0  0  0  0  0  0  0  0  0  0  0
  -28.1616  -24.6250   22.6273 C   0  0  0  0  0  0  0  0  0  0  0  0
  -20.3465   -5.9444   24.9887 C   0  0  0  0  0  0  0  0  0  0  0  0
  -23.8274  -10.4487   20.9615 C   0  0  0  0  0  0  0  0  0  0  0  0
  -32.6553  -17.4861   23.4571 C   0  0  0  0  0  0  0  0  0  0  0  0
  -24.1700  -12.9739   20.8440 C   0  0  0  0  0  0  0  0  0  0  0  0
  -21.5992  -23.0244   17.5907 C   0  0  0  0  0  0  0  0  0  0  0  0
  -26.0215  -25.4888   21.8968 C   0  0  0  0  0  0  0  0  0  0  0  0
  -22.8060  -22.9287   18.3096 C   0  0  0  0  0  0  0  0  0  0  0  0
  -27.4051  -25.3647   21.7056 C   0  0  0  0  0  0  0  0  0  0  0  0
  -30.4736  -18.3377   24.0505 C   0  0  0  0  0  0  0  0  0  0  0  0
  -30.6788  -16.5888   22.3964 C   0  0  0  0  0  0  0  0  0  0  0  0
  -31.8597  -18.3530   24.2063 C   0  0  0  0  0  0  0  0  0  0  0  0
  -22.3389   -8.1424   21.4592 C   0  0  0  0  0  0  0  0  0  0  0  0
  -27.5525  -24.0277   23.7306 C   0  0  0  0  0  0  0  0  0  0  0  0
  -20.8615   -6.9749   22.8650 C   0  0  0  0  0  0  0  0  0  0  0  0
  -19.3477   -6.8933   25.2069 C   0  0  0  0  0  0  0  0  0  0  0  0
  -21.1034   -5.9852   23.8177 C   0  0  0  0  0  0  0  0  0  0  0  0
  -29.8832  -17.4556   23.1455 C   0  0  0  0  0  0  0  0  0  0  0  0
  -24.5969  -11.6396   20.7049 C   0  0  0  0  0  0  0  0  0  0  0  0
  -25.2624  -13.7234   20.4814 C   0  0  0  0  0  0  0  0  0  0  0  0
  -34.1065  -17.4750   23.5949 C   0  0  0  0  0  0  0  0  0  0  0  0
  -22.8997  -13.4897   21.2634 C   0  0  0  0  0  0  0  0  0  0  0  0
  -25.7169  -25.1616   18.7498 C   0  0  0  0  0  0  0  0  0  0  0  0
  -27.7598  -27.6804   18.6823 C   0  0  0  0  0  0  0  0  0  0  0  0
  -30.1836  -29.4880   20.2648 C   0  0  0  0  0  0  0  0  0  0  0  0
  -30.7289  -14.7671   20.6570 C   0  0  0  0  0  0  0  0  0  0  0  0
  -21.5359  -23.6703   16.2292 C   0  0  0  0  0  0  0  0  0  0  0  0
  -25.1895  -26.2961   20.9385 C   0  0  0  0  0  0  0  0  0  0  0  0
  -28.1032  -25.9980   20.5309 C   0  0  0  0  0  0  0  0  0  0  0  0
  -22.7359  -24.5624   15.9220 C   0  0  0  0  0  0  0  0  0  0  0  0
  -29.6137  -12.3560   18.2864 C   0  0  0  0  0  0  0  0  0  0  0  0
  -24.0358  -23.8545   16.2906 C   0  0  0  0  0  0  0  0  0  0  0  0
  -28.1740  -12.0645   18.7157 C   0  0  0  0  0  0  0  0  0  0  0  0
  -28.0806  -19.9608   26.3371 C   0  0  0  0  0  0  0  0  0  0  0  0
  -30.5289  -12.5834   19.4882 C   0  0  0  0  0  0  0  0  0  0  0  0
  -29.1045  -18.8556   26.0869 C   0  0  0  0  0  0  0  0  0  0  0  0
  -29.2743  -20.5227   24.3407 C   0  0  0  0  0  0  0  0  0  0  0  0
  -28.6222  -13.3070   20.8702 C   0  0  0  0  0  0  0  0  0  0  0  0
  -24.0881  -23.5432   17.7913 C   0  0  1  0  0  0  0  0  0  0  0  0
  -25.8244  -26.4242   19.5573 C   0  0  1  0  0  0  0  0  0  0  0  0
  -28.6725  -21.1580   25.5991 C   0  0  1  0  0  0  0  0  0  0  0  0
  -27.6493  -13.1352   19.6923 C   0  0  2  0  0  0  0  0  0  0  0  0
  -31.6893  -31.4697   19.9432 C   0  0  0  0  0  0  0  0  0  0  0  0
  -29.5443  -26.0232   16.8440 C   0  0  0  0  0  0  0  0  0  0  0  0
  -31.4082  -27.6238   17.3256 C   0  0  0  0  0  0  0  0  0  0  0  0
  -29.3332  -28.4306   16.2004 C   0  0  0  0  0  0  0  0  0  0  0  0
  -28.9969  -30.9105   22.5728 C   0  0  0  0  0  0  0  0  0  0  0  0
  -27.6504  -22.2393   25.2952 C   0  0  0  0  0  0  0  0  0  1  0  0
  -29.2609  -27.8390   18.6574 C   0  0  1  0  0  0  0  0  0  0  0  0
  -30.3504  -30.9822   20.4748 C   0  0  2  0  0  0  0  0  0  0  0  0
  -29.8735  -27.4655   17.2780 C   0  0  0  0  0  0  0  0  0  0  0  0
  -25.8617  -11.5438   20.2865 N   0  0  0  0  0  0  0  0  0  0  0  0
  -26.2390  -12.8274   20.1594 N   0  0  0  0  0  0  0  0  0  0  0  0
  -29.6700  -19.1867   24.7814 N   0  0  3  0  0  0  0  0  0  0  0  0
  -27.2454  -26.7722   19.6184 N   0  0  0  0  0  0  0  0  0  0  0  0
  -29.9703  -13.6135   20.3666 N   0  0  0  0  0  0  0  0  0  0  0  0
  -32.4599  -19.2475   25.1243 N   0  0  0  0  0  0  0  0  0  0  0  0
  -25.4732  -15.0549   20.4097 N   0  0  0  0  0  0  0  0  0  0  0  0
  -34.8385  -18.3199   22.7683 N   0  0  0  0  0  0  0  0  0  0  0  0
  -21.8875  -12.5805   21.5998 N   0  0  0  0  0  0  0  0  0  0  0  0
  -30.0819  -15.6916   21.4763 N   0  0  0  0  0  0  0  0  0  0  0  0
  -24.4190  -24.7346   18.5433 N   0  0  0  0  0  0  0  0  0  0  0  0
  -29.5337  -29.2080   19.0814 N   0  0  0  0  0  0  0  0  0  0  0  0
  -30.2721  -31.3132   21.9258 N   0  3  0  0  0  0  0  0  0  0  0  0
  -34.6713  -16.7264   24.4089 O   0  0  0  0  0  0  0  0  0  0  0  0
  -22.6639  -14.7203   21.3220 O   0  0  0  0  0  0  0  0  0  0  0  0
  -26.7359  -24.6160   18.3429 O   0  0  0  0  0  0  0  0  0  0  0  0
  -27.0687  -28.3433   17.9048 O   0  0  0  0  0  0  0  0  0  0  0  0
  -30.5925  -28.6527   21.0683 O   0  0  0  0  0  0  0  0  0  0  0  0
  -31.8581  -14.9360   20.1895 O   0  0  0  0  0  0  0  0  0  0  0  0
  -21.6126   -7.0173   21.7024 O   0  0  0  0  0  0  0  0  0  0  0  0
  -28.2990  -23.3146   24.6173 O   0  0  0  0  0  0  0  0  0  1  0  0
  -18.6217   -6.8551   26.3319 F   0  0  0  0  0  0  0  0  0  0  0  0
  -22.0625   -5.0716   23.6142 F   0  0  0  0  0  0  0  0  0  0  0  0
  -28.5497  -17.4405   22.9951 F   0  0  0  0  0  0  0  0  0  0  0  0
  1  2  1  0  0  0  0
  1  5  2  0  0  0  0
  2  6  2  0  0  0  0
  3  8  2  0  0  0  0
  3 16  1  0  0  0  0
  4  9  1  0  0  0  0
  4 16  2  0  0  0  0
  5 19  1  0  0  0  0
  6 21  1  0  0  0  0
  7 10  2  0  0  0  0
  7 20  1  0  0  0  0
  8 26  1  0  0  0  0
  9 26  2  0  0  0  0
 10 27  1  0  0  0  0
 11 12  2  0  0  0  0
 11 28  1  0  0  0  0
 12 29  1  0  0  0  0
 13 17  1  0  0  0  0
 13 24  2  0  0  0  0
 14 22  1  0  0  0  0
 14 27  2  0  0  0  0
 15 29  2  0  0  0  0
 15 30  1  0  0  0  0
 16 32  1  0  0  0  0
 17 25  2  0  0  0  0
 17 34  1  0  0  0  0
 18 32  1  0  0  0  0
 18 33  2  0  0  0  0
 18 35  1  0  0  0  0
 19 21  2  0  0  0  0
 19 40  1  0  0  0  0
 20 22  2  0  0  0  0
 20 41  1  0  0  0  0
 21 52  1  0  0  0  0
 22 42  1  0  0  0  0
 23 25  1  0  0  0  0
 23 31  2  0  0  0  0
 23 67  1  0  0  0  0
 24 31  1  0  0  0  0
 24 74  1  0  0  0  0
 25 70  1  0  0  0  0
 26 84  1  0  0  0  0
 27 85  1  0  0  0  0
 28 30  2  0  0  0  0
 28 84  1  0  0  0  0
 29 86  1  0  0  0  0
 30 87  1  0  0  0  0
 31 88  1  0  0  0  0
 32 65  2  0  0  0  0
 33 66  1  0  0  0  0
 33 71  1  0  0  0  0
 34 72  1  0  0  0  0
 34 78  2  0  0  0  0
 35 73  1  0  0  0  0
 35 79  2  0  0  0  0
 36 53  1  0  0  0  0
 36 75  1  0  0  0  0
 36 80  2  0  0  0  0
 37 62  1  0  0  0  0
 37 68  1  0  0  0  0
 37 81  2  0  0  0  0
 38 63  1  0  0  0  0
 38 76  1  0  0  0  0
 38 82  2  0  0  0  0
 39 69  1  0  0  0  0
 39 74  1  0  0  0  0
 39 83  2  0  0  0  0
 40 43  1  0  0  0  0
 41 53  1  0  0  0  0
 42 68  1  0  0  0  0
 43 45  1  0  0  0  0
 44 46  1  0  0  0  0
 44 48  1  0  0  0  0
 45 52  1  0  0  0  0
 46 55  1  0  0  0  0
 47 49  1  0  0  0  0
 47 54  1  0  0  0  0
 48 69  1  0  0  0  0
 49 67  1  0  0  0  0
 50 54  1  0  0  0  0
 50 67  1  0  0  0  0
 51 55  1  0  0  0  0
 51 69  1  0  0  0  0
 52 75  1  0  0  0  0
 53 68  1  0  0  0  0
 54 61  1  0  0  0  0
 55 66  1  0  0  0  0
 56 63  1  0  0  0  0
 57 64  1  0  0  0  0
 58 64  1  0  0  0  0
 59 64  1  0  0  0  0
 60 77  1  0  0  0  0
 61 85  1  0  0  0  0
 62 64  1  0  0  0  0
 62 76  1  0  0  0  0
 63 77  1  0  0  0  0
 65 66  1  0  0  0  0
M  CHG  1  77   1
M  ISO  4  39 100  61 101  74 100  85 101
M  END
> <Batch ID>
0094

> <Smiles>
CNC(C)C(=O)NC(C(=O)N1Cc2cc([101O:1][101CH2:1]C3CCN(c4c(N)c(C(N)=O)cc([100NH:0][100C:0](=O)N5CCCC(n6nc(-c7ccc(Oc8ccc(F)cc8F)cc7)c(C(N)=O)c6N)C5)c4F)C3)ccc2CC1C(=O)NC1CCCc2ccccc21)C(C)(C)C

> <Shape>
0.206

> <Color>
0.180

> <Negative vol penalty>
0.000

$$$$

  -OEChem-04052300403D

 86 95  0     1  0  0  0  0  0999 V2000
  -25.8089  -38.9243   21.8721 C   0  0  0  0  0  0  0  0  0  0  0  0
  -26.3106  -38.0138   20.9477 C   0  0  0  0  0  0  0  0  0  0  0  0
  -23.7130   -9.5225   20.6423 C   0  0  0  0  0  0  0  0  0  0  0  0
  -24.2169  -10.1963   22.9071 C   0  0  0  0  0  0  0  0  0  0  0  0
  -25.6853  -38.5592   23.2120 C   0  0  0  0  0  0  0  0  0  0  0  0
  -26.6901  -36.7379   21.3629 C   0  0  0  0  0  0  0  0  0  0  0  0
  -26.9226  -29.9575   19.0631 C   0  0  0  0  0  0  0  0  0  0  0  0
  -23.1843   -8.3222   21.1170 C   0  0  0  0  0  0  0  0  0  0  0  0
  -23.6882   -8.9960   23.3818 C   0  0  0  0  0  0  0  0  0  0  0  0
  -27.8140  -28.8930   18.9367 C   0  0  0  0  0  0  0  0  0  0  0  0
  -20.3121   -7.2595   22.5502 C   0  0  0  0  0  0  0  0  0  0  0  0
  -19.0958   -6.8315   22.0181 C   0  0  0  0  0  0  0  0  0  0  0  0
  -27.4818  -28.3465   21.2627 C   0  0  0  0  0  0  0  0  0  0  0  0
  -30.0218  -18.8107   19.8664 C   0  0  0  0  0  0  0  0  0  0  0  0
  -28.1206  -20.4299   21.1100 C   0  0  0  0  0  0  0  0  0  0  0  0
  -20.1536   -4.8084   21.2275 C   0  0  0  0  0  0  0  0  0  0  0  0
  -24.2293  -10.4596   21.5373 C   0  0  0  0  0  0  0  0  0  0  0  0
  -24.0872  -12.9096   20.8410 C   0  0  0  0  0  0  0  0  0  0  0  0
  -26.0545  -37.2749   23.6421 C   0  0  0  0  0  0  0  0  0  0  0  0
  -26.3114  -30.2316   20.2950 C   0  0  0  0  0  0  0  0  0  0  0  0
  -26.5726  -36.3556   22.7100 C   0  0  0  0  0  0  0  0  0  0  0  0
  -26.5810  -29.4135   21.4014 C   0  0  0  0  0  0  0  0  0  0  0  0
  -29.9349  -20.1633   19.5370 C   0  0  0  0  0  0  0  0  0  0  0  0
  -28.9844  -20.9729   20.1588 C   0  0  0  0  0  0  0  0  0  0  0  0
  -29.1579  -18.2676   20.8175 C   0  0  0  0  0  0  0  0  0  0  0  0
  -28.2074  -19.0772   21.4393 C   0  0  0  0  0  0  0  0  0  0  0  0
  -23.1718   -8.0590   22.4867 C   0  0  0  0  0  0  0  0  0  0  0  0
  -28.0960  -28.0891   20.0373 C   0  0  0  0  0  0  0  0  0  0  0  0
  -21.4492   -6.4620   22.4208 C   0  0  0  0  0  0  0  0  0  0  0  0
  -19.0166   -5.6059   21.3568 C   0  0  0  0  0  0  0  0  0  0  0  0
  -21.3699   -5.2364   21.7595 C   0  0  0  0  0  0  0  0  0  0  0  0
  -24.7761  -11.6994   21.0476 C   0  0  0  0  0  0  0  0  0  0  0  0
  -25.0454  -13.7744   20.3715 C   0  0  0  0  0  0  0  0  0  0  0  0
  -28.6007  -22.9079   18.5714 C   0  0  0  0  0  0  0  0  0  0  0  0
  -22.7047  -13.2239   21.0547 C   0  0  0  0  0  0  0  0  0  0  0  0
  -26.3273  -32.6907   22.3091 C   0  0  0  0  0  0  0  0  0  0  0  0
  -24.0712  -30.9417   23.8496 C   0  0  0  0  0  0  0  0  0  0  0  0
  -22.7060  -27.8761   24.4703 C   0  0  0  0  0  0  0  0  0  0  0  0
  -30.1589  -15.9665   20.5957 C   0  0  0  0  0  0  0  0  0  0  0  0
  -25.9471  -36.9418   25.1092 C   0  0  0  0  0  0  0  0  0  0  0  0
  -25.3317  -31.3673   20.4082 C   0  0  0  0  0  0  0  0  0  0  0  0
  -25.9356  -29.6532   22.7410 C   0  0  0  0  0  0  0  0  0  0  0  0
  -28.4953  -24.4062   18.7423 C   0  0  0  0  0  0  0  0  0  0  0  0
  -26.0206  -35.4453   25.4010 C   0  0  0  0  0  0  0  0  0  0  0  0
  -29.7819  -12.9096   18.8094 C   0  0  0  0  0  0  0  0  0  0  0  0
  -27.1721  -34.8071   24.6305 C   0  0  0  0  0  0  0  0  0  0  0  0
  -28.3893  -12.4218   19.2155 C   0  0  0  0  0  0  0  0  0  0  0  0
  -30.5068  -13.5865   19.9713 C   0  0  0  0  0  0  0  0  0  0  0  0
  -28.9874  -23.3961   20.8459 C   0  0  0  0  0  0  0  0  0  0  0  0
  -28.3639  -14.1771   21.0336 C   0  0  0  0  0  0  0  0  0  0  0  0
  -26.9718  -34.9539   23.1173 C   0  0  1  0  0  0  0  0  0  0  0  0
  -25.1608  -31.8686   21.8389 C   0  0  1  0  0  0  0  0  0  0  0  0
  -29.2296  -24.6690   20.0493 C   0  0  2  0  0  0  0  0  0  0  0  0
  -27.5695  -13.5461   19.8784 C   0  0  2  0  0  0  0  0  0  0  0  0
  -30.8721  -20.7181   18.5138 C   0  0  0  0  0  0  0  0  0  0  0  0
  -20.8957  -26.7589   25.8016 C   0  0  0  0  0  0  0  0  0  0  0  0
  -25.7626  -31.2149   26.3744 C   0  0  0  0  0  0  0  0  0  0  0  0
  -24.4410  -29.3406   27.3787 C   0  0  0  0  0  0  0  0  0  0  0  0
  -23.3006  -31.4641   26.7360 C   0  0  0  0  0  0  0  0  0  0  0  0
  -21.3579  -26.8898   22.0273 C   0  0  0  0  0  0  0  0  0  0  0  0
  -28.7513  -25.9213   20.7634 C   0  0  0  0  0  0  0  0  0  1  0  0
  -24.0894  -29.8841   24.9268 C   0  0  1  0  0  0  0  0  0  0  0  0
  -21.2657  -27.3963   24.4714 C   0  0  2  0  0  0  0  0  0  0  0  0
  -24.4122  -30.4724   26.3294 C   0  0  0  0  0  0  0  0  0  0  0  0
  -26.0719  -11.7838   20.7346 N   0  0  0  0  0  0  0  0  0  0  0  0
  -26.2048  -13.0574   20.3267 N   0  0  0  0  0  0  0  0  0  0  0  0
  -28.8817  -22.3592   19.8366 N   0  0  0  0  0  0  0  0  0  0  0  0
  -24.9897  -30.7796   22.8027 N   0  0  0  0  0  0  0  0  0  0  0  0
  -29.6718  -14.6431   20.5469 N   0  0  0  0  0  0  0  0  0  0  0  0
  -27.3206  -18.5470   22.4034 N   0  0  0  0  0  0  0  0  0  0  0  0
  -25.0009  -15.0704   19.9966 N   0  0  0  0  0  0  0  0  0  0  0  0
  -21.8584  -12.2184   21.5413 N   0  0  0  0  0  0  0  0  0  0  0  0
  -29.2641  -16.8906   21.1343 N   0  0  0  0  0  0  0  0  0  0  0  0
  -26.0014  -33.9920   22.6403 N   0  0  0  0  0  0  0  0  0  0  0  0
  -22.8040  -29.1987   24.8477 N   0  0  0  0  0  0  0  0  0  0  0  0
  -21.0543  -26.3898   23.3929 N   0  3  0  0  0  0  0  0  0  0  0  0
  -28.4018  -22.3545   17.4995 O   0  0  0  0  0  0  0  0  0  0  0  0
  -22.2305  -14.3582   20.8054 O   0  0  0  0  0  0  0  0  0  0  0  0
  -27.4404  -32.1815   22.3685 O   0  0  0  0  0  0  0  0  0  0  0  0
  -23.2666  -31.8732   23.9303 O   0  0  0  0  0  0  0  0  0  0  0  0
  -23.6500  -27.1492   24.1689 O   0  0  0  0  0  0  0  0  0  0  0  0
  -31.2761  -16.2631   20.1647 O   0  0  0  0  0  0  0  0  0  0  0  0
  -22.6558   -6.8879   22.9503 O   0  0  0  0  0  0  0  0  0  0  0  0
  -28.9662  -27.0498   19.9168 O   0  0  0  0  0  0  0  0  0  1  0  0
  -17.8482   -5.1944   20.8473 F   0  0  0  0  0  0  0  0  0  0  0  0
  -22.4587   -4.4653   21.6331 F   0  0  0  0  0  0  0  0  0  0  0  0
  1  2  1  0  0  0  0
  1  5  2  0  0  0  0
  2  6  2  0  0  0  0
  3  8  2  0  0  0  0
  3 17  1  0  0  0  0
  4  9  1  0  0  0  0
  4 17  2  0  0  0  0
  5 19  1  0  0  0  0
  6 21  1  0  0  0  0
  7 10  2  0  0  0  0
  7 20  1  0  0  0  0
  8 27  1  0  0  0  0
  9 27  2  0  0  0  0
 10 28  1  0  0  0  0
 11 12  2  0  0  0  0
 11 29  1  0  0  0  0
 12 30  1  0  0  0  0
 13 22  1  0  0  0  0
 13 28  2  0  0  0  0
 14 23  1  0  0  0  0
 14 25  2  0  0  0  0
 15 24  1  0  0  0  0
 15 26  2  0  0  0  0
 16 30  2  0  0  0  0
 16 31  1  0  0  0  0
 17 32  1  0  0  0  0
 18 32  1  0  0  0  0
 18 33  2  0  0  0  0
 18 35  1  0  0  0  0
 19 21  2  0  0  0  0
 19 40  1  0  0  0  0
 20 22  2  0  0  0  0
 20 41  1  0  0  0  0
 21 51  1  0  0  0  0
 22 42  1  0  0  0  0
 23 24  2  0  0  0  0
 23 55  1  0  0  0  0
 24 67  1  0  0  0  0
 25 26  1  0  0  0  0
 25 73  1  0  0  0  0
 26 70  1  0  0  0  0
 27 83  1  0  0  0  0
 28 84  1  0  0  0  0
 29 31  2  0  0  0  0
 29 83  1  0  0  0  0
 30 85  1  0  0  0  0
 31 86  1  0  0  0  0
 32 65  2  0  0  0  0
 33 66  1  0  0  0  0
 33 71  1  0  0  0  0
 34 43  1  0  0  0  0
 34 67  1  0  0  0  0
 34 77  2  0  0  0  0
 35 72  1  0  0  0  0
 35 78  2  0  0  0  0
 36 52  1  0  0  0  0
 36 74  1  0  0  0  0
 36 79  2  0  0  0  0
 37 62  1  0  0  0  0
 37 68  1  0  0  0  0
 37 80  2  0  0  0  0
 38 63  1  0  0  0  0
 38 75  1  0  0  0  0
 38 81  2  0  0  0  0
 39 69  1  0  0  0  0
 39 73  1  0  0  0  0
 39 82  2  0  0  0  0
 40 44  1  0  0  0  0
 41 52  1  0  0  0  0
 42 68  1  0  0  0  0
 43 53  1  0  0  0  0
 44 46  1  0  0  0  0
 45 47  1  0  0  0  0
 45 48  1  0  0  0  0
 46 51  1  0  0  0  0
 47 54  1  0  0  0  0
 48 69  1  0  0  0  0
 49 53  1  0  0  0  0
 49 67  1  0  0  0  0
 50 54  1  0  0  0  0
 50 69  1  0  0  0  0
 51 74  1  0  0  0  0
 52 68  1  0  0  0  0
 53 61  1  0  0  0  0
 54 66  1  0  0  0  0
 56 63  1  0  0  0  0
 57 64  1  0  0  0  0
 58 64  1  0  0  0  0
 59 64  1  0  0  0  0
 60 76  1  0  0  0  0
 61 84  1  0  0  0  0
 62 64  1  0  0  0  0
 62 75  1  0  0  0  0
 63 76  1  0  0  0  0
 65 66  1  0  0  0  0
M  CHG  1  76   1
M  ISO  4  39 100  61 101  73 100  84 101
M  END
> <Batch ID>
0094

> <Smiles>
CNC(C)C(=O)NC(C(=O)N1Cc2cc([101O:1][101CH2:1]C3CC(=O)N(c4cc(N)c([100NH:0][100C:0](=O)N5CCCC(n6nc(-c7ccc(Oc8ccc(F)cc8F)cc7)c(C(N)=O)c6N)C5)cc4C)C3)ccc2CC1C(=O)NC1CCCc2ccccc21)C(C)(C)C

> <Shape>
0.377

> <Color>
0.157

> <Negative vol penalty>
0.000

$$$$

  -OEChem-04052300403D

 88 97  0     1  0  0  0  0  0999 V2000
  -24.0680  -33.5775   14.5863 C   0  0  0  0  0  0  0  0  0  0  0  0
  -24.9599  -32.6947   15.1868 C   0  0  0  0  0  0  0  0  0  0  0  0
  -25.4288  -19.0648   18.9993 C   0  0  0  0  0  0  0  0  0  0  0  0
  -24.6618  -18.7644   21.2705 C   0  0  0  0  0  0  0  0  0  0  0  0
  -23.4773  -34.5905   15.3405 C   0  0  0  0  0  0  0  0  0  0  0  0
  -25.2625  -32.8251   16.5417 C   0  0  0  0  0  0  0  0  0  0  0  0
  -25.2331  -28.3841   18.9751 C   0  0  0  0  0  0  0  0  0  0  0  0
  -24.2729  -18.4435   18.5266 C   0  0  0  0  0  0  0  0  0  0  0  0
  -23.5058  -18.1431   20.7979 C   0  0  0  0  0  0  0  0  0  0  0  0
  -26.3472  -27.5618   18.8129 C   0  0  0  0  0  0  0  0  0  0  0  0
  -23.1003  -15.2915   18.1887 C   0  0  0  0  0  0  0  0  0  0  0  0
  -23.2440  -14.3364   17.1824 C   0  0  0  0  0  0  0  0  0  0  0  0
  -27.1980  -28.3041   20.9446 C   0  0  0  0  0  0  0  0  0  0  0  0
  -31.7182  -19.7686   18.2239 C   0  0  0  0  0  0  0  0  0  0  0  0
  -31.0579  -25.5823   18.2530 C   0  0  0  0  0  0  0  0  0  0  0  0
  -32.5366  -21.8663   19.8709 C   0  0  0  0  0  0  0  0  0  0  0  0
  -21.8358  -15.6561   15.7289 C   0  0  0  0  0  0  0  0  0  0  0  0
  -25.6233  -19.2252   20.3712 C   0  0  0  0  0  0  0  0  0  0  0  0
  -27.0052  -21.2399   21.1053 C   0  0  0  0  0  0  0  0  0  0  0  0
  -23.7654  -34.7274   16.7076 C   0  0  0  0  0  0  0  0  0  0  0  0
  -25.0982  -29.1822   20.1203 C   0  0  0  0  0  0  0  0  0  0  0  0
  -24.6761  -33.8418   17.3146 C   0  0  0  0  0  0  0  0  0  0  0  0
  -26.0800  -29.1338   21.1202 C   0  0  0  0  0  0  0  0  0  0  0  0
  -31.2169  -21.0538   18.0174 C   0  0  0  0  0  0  0  0  0  0  0  0
  -29.7384  -25.1156   18.4721 C   0  0  0  0  0  0  0  0  0  0  0  0
  -31.6261  -22.1026   18.8408 C   0  0  0  0  0  0  0  0  0  0  0  0
  -32.6286  -19.5322   19.2540 C   0  0  0  0  0  0  0  0  0  0  0  0
  -33.0378  -20.5811   20.0774 C   0  0  0  0  0  0  0  0  0  0  0  0
  -23.3114  -17.9826   19.4259 C   0  0  0  0  0  0  0  0  0  0  0  0
  -27.3313  -27.5239   19.7964 C   0  0  0  0  0  0  0  0  0  0  0  0
  -22.3243  -16.4289   17.9652 C   0  0  0  0  0  0  0  0  0  0  0  0
  -22.6118  -14.5188   15.9524 C   0  0  0  0  0  0  0  0  0  0  0  0
  -21.6921  -16.6112   16.7353 C   0  0  0  0  0  0  0  0  0  0  0  0
  -26.8174  -19.8665   20.8600 C   0  0  0  0  0  0  0  0  0  0  0  0
  -28.2993  -21.3345   21.5558 C   0  0  0  0  0  0  0  0  0  0  0  0
  -31.9017  -24.4998   18.3691 C   0  0  0  0  0  0  0  0  0  0  0  0
  -29.8159  -23.7621   18.7157 C   0  0  0  0  0  0  0  0  0  0  0  0
  -26.0916  -22.3326   20.9408 C   0  0  0  0  0  0  0  0  0  0  0  0
  -24.9199  -32.3083   20.6675 C   0  0  0  0  0  0  0  0  0  0  0  0
  -24.3455  -31.3477   23.7122 C   0  0  0  0  0  0  0  0  0  0  0  0
  -24.6750  -28.9303   26.0984 C   0  0  0  0  0  0  0  0  0  0  0  0
  -32.9567  -17.4685   20.6412 C   0  0  0  0  0  0  0  0  0  0  0  0
  -23.1385  -35.8672   17.4709 C   0  0  0  0  0  0  0  0  0  0  0  0
  -23.8773  -30.0436   20.2926 C   0  0  0  0  0  0  0  0  0  0  0  0
  -25.9725  -29.9558   22.3776 C   0  0  0  0  0  0  0  0  0  0  0  0
  -23.2252  -35.7058   18.9864 C   0  0  0  0  0  0  0  0  0  0  0  0
  -31.6881  -18.8479   23.8319 C   0  0  0  0  0  0  0  0  0  0  0  0
  -24.6336  -35.2902   19.3993 C   0  0  0  0  0  0  0  0  0  0  0  0
  -30.2771  -19.3051   23.4667 C   0  0  0  0  0  0  0  0  0  0  0  0
  -32.1448  -17.6756   22.9689 C   0  0  0  0  0  0  0  0  0  0  0  0
  -30.6461  -18.4056   21.1352 C   0  0  0  0  0  0  0  0  0  0  0  0
  -25.0107  -33.9356   18.7875 C   0  0  1  0  0  0  0  0  0  0  0  0
  -24.0951  -31.2017   21.2615 C   0  0  1  0  0  0  0  0  0  0  0  0
  -30.1784  -19.6117   21.9633 C   0  0  1  0  0  0  0  0  0  0  0  0
  -30.2428  -21.2733   16.9049 C   0  0  0  0  0  0  0  0  0  0  0  0
  -24.1375  -28.4485   28.5018 C   0  0  0  0  0  0  0  0  0  0  0  0
  -26.6273  -33.1750   24.5863 C   0  0  0  0  0  0  0  0  0  0  0  0
  -26.6688  -31.9602   26.7751 C   0  0  0  0  0  0  0  0  0  0  0  0
  -24.6261  -33.2149   26.0856 C   0  0  0  0  0  0  0  0  0  0  0  0
  -34.0835  -17.6729   18.4686 C   0  0  0  0  0  0  0  0  0  0  0  0
  -22.9938  -26.6040   25.3767 C   0  0  0  0  0  0  0  0  0  0  0  0
  -28.4899  -25.9475   18.4441 C   0  0  0  0  0  0  0  0  0  1  0  0
  -25.2025  -31.0477   24.9182 C   0  0  1  0  0  0  0  0  0  0  0  0
  -23.6710  -28.3206   27.0600 C   0  0  2  0  0  0  0  0  0  0  0  0
  -25.7845  -32.3353   25.5668 C   0  0  0  0  0  0  0  0  0  0  0  0
  -27.9052  -19.1407   21.1320 N   0  0  0  0  0  0  0  0  0  0  0  0
  -31.1357  -23.3988   18.6509 N   0  0  0  0  0  0  0  0  0  0  0  0
  -28.7890  -20.0615   21.5527 N   0  0  0  0  0  0  0  0  0  0  0  0
  -24.7632  -30.7871   22.4968 N   0  0  0  0  0  0  0  0  0  0  0  0
  -31.9888  -17.9593   21.5414 N   0  0  0  0  0  0  0  0  0  0  0  0
  -33.9591  -20.3640   21.1266 N   0  0  0  0  0  0  0  0  0  0  0  0
  -29.0547  -22.3815   21.9502 N   0  0  0  0  0  0  0  0  0  0  0  0
  -24.8009  -22.0589   20.4679 N   0  0  0  0  0  0  0  0  0  0  0  0
  -24.3812  -32.8575   19.5196 N   0  0  0  0  0  0  0  0  0  0  0  0
  -24.3775  -30.2467   25.8161 N   0  0  0  0  0  0  0  0  0  0  0  0
  -33.1330  -18.1948   19.4480 N   0  0  0  0  0  0  0  0  0  0  0  0
  -23.4746  -26.8749   26.7560 N   0  3  0  0  0  0  0  0  0  0  0  0
  -26.4155  -23.5186   21.1897 O   0  0  0  0  0  0  0  0  0  0  0  0
  -25.9668  -32.6402   21.2112 O   0  0  0  0  0  0  0  0  0  0  0  0
  -23.3385  -32.0477   23.8449 O   0  0  0  0  0  0  0  0  0  0  0  0
  -25.6300  -28.3027   25.6461 O   0  0  0  0  0  0  0  0  0  0  0  0
  -33.5823  -16.4235   20.8587 O   0  0  0  0  0  0  0  0  0  0  0  0
  -33.2217  -24.4207   18.2513 O   0  0  0  0  0  0  0  0  0  0  0  0
  -28.8631  -22.8747   18.9784 O   0  0  0  0  0  0  0  0  0  0  0  0
  -22.1832  -17.3765   18.9651 O   0  0  0  0  0  0  0  0  0  0  0  0
  -28.4201  -26.7226   19.6402 O   0  0  0  0  0  0  0  0  0  1  0  0
  -22.7511  -13.6023   14.9856 F   0  0  0  0  0  0  0  0  0  0  0  0
  -20.9463  -17.7024   16.5143 F   0  0  0  0  0  0  0  0  0  0  0  0
  1  2  1  0  0  0  0
  1  5  2  0  0  0  0
  2  6  2  0  0  0  0
  3  8  2  0  0  0  0
  3 18  1  0  0  0  0
  4  9  1  0  0  0  0
  4 18  2  0  0  0  0
  5 20  1  0  0  0  0
  6 22  1  0  0  0  0
  7 10  2  0  0  0  0
  7 21  1  0  0  0  0
  8 29  1  0  0  0  0
  9 29  2  0  0  0  0
 10 30  1  0  0  0  0
 11 12  2  0  0  0  0
 11 31  1  0  0  0  0
 12 32  1  0  0  0  0
 13 23  1  0  0  0  0
 13 30  2  0  0  0  0
 14 24  1  0  0  0  0
 14 27  2  0  0  0  0
 15 25  1  0  0  0  0
 15 36  2  0  0  0  0
 16 26  1  0  0  0  0
 16 28  2  0  0  0  0
 17 32  2  0  0  0  0
 17 33  1  0  0  0  0
 18 34  1  0  0  0  0
 19 34  1  0  0  0  0
 19 35  2  0  0  0  0
 19 38  1  0  0  0  0
 20 22  2  0  0  0  0
 20 43  1  0  0  0  0
 21 23  2  0  0  0  0
 21 44  1  0  0  0  0
 22 52  1  0  0  0  0
 23 45  1  0  0  0  0
 24 26  2  0  0  0  0
 24 55  1  0  0  0  0
 25 37  2  0  0  0  0
 25 62  1  0  0  0  0
 26 67  1  0  0  0  0
 27 28  1  0  0  0  0
 27 76  1  0  0  0  0
 28 71  1  0  0  0  0
 29 85  1  0  0  0  0
 30 86  1  0  0  0  0
 31 33  2  0  0  0  0
 31 85  1  0  0  0  0
 32 87  1  0  0  0  0
 33 88  1  0  0  0  0
 34 66  2  0  0  0  0
 35 68  1  0  0  0  0
 35 72  1  0  0  0  0
 36 67  1  0  0  0  0
 36 83  1  0  0  0  0
 37 67  1  0  0  0  0
 37 84  1  0  0  0  0
 38 73  1  0  0  0  0
 38 78  2  0  0  0  0
 39 53  1  0  0  0  0
 39 74  1  0  0  0  0
 39 79  2  0  0  0  0
 40 63  1  0  0  0  0
 40 69  1  0  0  0  0
 40 80  2  0  0  0  0
 41 64  1  0  0  0  0
 41 75  1  0  0  0  0
 41 81  2  0  0  0  0
 42 70  1  0  0  0  0
 42 76  1  0  0  0  0
 42 82  2  0  0  0  0
 43 46  1  0  0  0  0
 44 53  1  0  0  0  0
 45 69  1  0  0  0  0
 46 48  1  0  0  0  0
 47 49  1  0  0  0  0
 47 50  1  0  0  0  0
 48 52  1  0  0  0  0
 49 54  1  0  0  0  0
 50 70  1  0  0  0  0
 51 54  1  0  0  0  0
 51 70  1  0  0  0  0
 52 74  1  0  0  0  0
 53 69  1  0  0  0  0
 54 68  1  0  0  0  0
 56 64  1  0  0  0  0
 57 65  1  0  0  0  0
 58 65  1  0  0  0  0
 59 65  1  0  0  0  0
 60 76  1  0  0  0  0
 61 77  1  0  0  0  0
 62 86  1  0  0  0  0
 63 65  1  0  0  0  0
 63 75  1  0  0  0  0
 64 77  1  0  0  0  0
 66 68  1  0  0  0  0
M  CHG  1  77   1
M  ISO  4  42 100  62 101  76 100  86 101
M  END
> <Batch ID>
0094

> <Smiles>
CNC(C)C(=O)NC(C(=O)N1Cc2cc([101O:1][101CH2:1]C3CC(=O)N(c4cc(N)c([100N:0](C)[100C:0](=O)N5CCCC(n6nc(-c7ccc(Oc8ccc(F)cc8F)cc7)c(C(N)=O)c6N)C5)cc4C)C3=O)ccc2CC1C(=O)NC1CCCc2ccccc21)C(C)(C)C

> <Shape>
0.171

> <Color>
0.085

> <Negative vol penalty>
0.000

$$$$

  -OEChem-04052300403D

 84 92  0     1  0  0  0  0  0999 V2000
  -23.4136  -31.9168   18.9224 C   0  0  0  0  0  0  0  0  0  0  0  0
  -23.6683  -30.5509   18.9917 C   0  0  0  0  0  0  0  0  0  0  0  0
  -23.0678   -9.8895   20.0030 C   0  0  0  0  0  0  0  0  0  0  0  0
  -23.8236   -9.9791   22.2960 C   0  0  0  0  0  0  0  0  0  0  0  0
  -28.8094  -17.7487   21.9613 C   0  0  0  0  0  0  0  0  0  0  0  0
  -22.9300  -32.5923   20.0421 C   0  0  0  0  0  0  0  0  0  0  0  0
  -23.4405  -29.8598   20.1812 C   0  0  0  0  0  0  0  0  0  0  0  0
  -21.0516  -25.4561   19.4425 C   0  0  0  0  0  0  0  0  0  0  0  0
  -22.3248   -8.7451   20.2925 C   0  0  0  0  0  0  0  0  0  0  0  0
  -23.0806   -8.8346   22.5856 C   0  0  0  0  0  0  0  0  0  0  0  0
  -28.1021  -18.8426   21.4627 C   0  0  0  0  0  0  0  0  0  0  0  0
  -21.8160  -24.3874   18.9764 C   0  0  0  0  0  0  0  0  0  0  0  0
  -19.3750   -7.9969   21.7661 C   0  0  0  0  0  0  0  0  0  0  0  0
  -18.0690   -7.9318   21.2806 C   0  0  0  0  0  0  0  0  0  0  0  0
  -29.2616  -17.0125   19.7051 C   0  0  0  0  0  0  0  0  0  0  0  0
  -21.9517  -23.5136   21.2208 C   0  0  0  0  0  0  0  0  0  0  0  0
  -18.6334   -5.9436   20.0293 C   0  0  0  0  0  0  0  0  0  0  0  0
  -23.8172  -10.5065   21.0047 C   0  0  0  0  0  0  0  0  0  0  0  0
  -29.3892  -16.8337   21.0825 C   0  0  0  0  0  0  0  0  0  0  0  0
  -24.1562  -13.0262   20.7955 C   0  0  0  0  0  0  0  0  0  0  0  0
  -22.6869  -31.9073   21.2431 C   0  0  0  0  0  0  0  0  0  0  0  0
  -20.7401  -25.5676   20.8052 C   0  0  0  0  0  0  0  0  0  0  0  0
  -22.9544  -30.5270   21.3184 C   0  0  0  0  0  0  0  0  0  0  0  0
  -21.1810  -24.5833   21.7012 C   0  0  0  0  0  0  0  0  0  0  0  0
  -28.5542  -18.1065   19.2064 C   0  0  0  0  0  0  0  0  0  0  0  0
  -22.3312   -8.2176   21.5838 C   0  0  0  0  0  0  0  0  0  0  0  0
  -22.2687  -23.4175   19.8660 C   0  0  0  0  0  0  0  0  0  0  0  0
  -27.9745  -19.0215   20.0853 C   0  0  0  0  0  0  0  0  0  0  0  0
  -20.3102   -7.0354   21.3832 C   0  0  0  0  0  0  0  0  0  0  0  0
  -17.6982   -6.9051   20.4122 C   0  0  0  0  0  0  0  0  0  0  0  0
  -19.9394   -6.0088   20.5148 C   0  0  0  0  0  0  0  0  0  0  0  0
  -24.5853  -11.6884   20.7061 C   0  0  0  0  0  0  0  0  0  0  0  0
  -25.2481  -13.7637   20.4077 C   0  0  0  0  0  0  0  0  0  0  0  0
  -30.1268  -15.6935   21.6033 C   0  0  0  0  0  0  0  0  0  0  0  0
  -22.8844  -13.5550   21.1936 C   0  0  0  0  0  0  0  0  0  0  0  0
  -30.7548  -14.7031   20.6989 C   0  0  0  0  0  0  0  0  0  0  0  0
  -21.3648  -27.6958   23.0821 C   0  0  0  0  0  0  0  0  0  0  0  0
  -25.1477  -21.2372   19.5678 C   0  0  0  0  0  0  0  0  0  0  0  0
  -19.3714  -25.8287   24.8321 C   0  0  0  0  0  0  0  0  0  0  0  0
  -17.9536  -22.7623   25.3159 C   0  0  0  0  0  0  0  0  0  0  0  0
  -22.2087  -32.6892   22.4408 C   0  0  0  0  0  0  0  0  0  0  0  0
  -19.8920  -26.7122   21.2879 C   0  0  0  0  0  0  0  0  0  0  0  0
  -20.8569  -24.6461   23.1707 C   0  0  0  0  0  0  0  0  0  0  0  0
  -21.6388  -31.8122   23.5528 C   0  0  0  0  0  0  0  0  0  0  0  0
  -29.5920  -12.3525   18.2537 C   0  0  0  0  0  0  0  0  0  0  0  0
  -22.5613  -30.6282   23.8246 C   0  0  0  0  0  0  0  0  0  0  0  0
  -28.1633  -12.0512   18.7050 C   0  0  0  0  0  0  0  0  0  0  0  0
  -30.5137  -12.5969   19.4441 C   0  0  0  0  0  0  0  0  0  0  0  0
  -28.6041  -13.3761   20.8206 C   0  0  0  0  0  0  0  0  0  0  0  0
  -22.6963  -29.7377   22.5836 C   0  0  1  0  0  0  0  0  0  0  0  0
  -20.0684  -27.0008   22.7755 C   0  0  1  0  0  0  0  0  0  0  0  0
  -27.6376  -13.1509   19.6447 C   0  0  2  0  0  0  0  0  0  0  0  0
  -16.3952  -21.5326   26.8510 C   0  0  0  0  0  0  0  0  0  0  0  0
  -21.5801  -25.6535   26.9300 C   0  0  0  0  0  0  0  0  0  0  0  0
  -20.3729  -23.7051   27.9373 C   0  0  0  0  0  0  0  0  0  0  0  0
  -19.2774  -25.9449   27.8613 C   0  0  0  0  0  0  0  0  0  0  0  0
  -16.0455  -22.2068   23.1228 C   0  0  0  0  0  0  0  0  0  0  0  0
  -23.9659  -21.8145   20.3197 C   0  0  0  0  0  0  0  0  0  1  0  0
  -26.2228  -20.5948   20.4200 C   0  0  0  0  0  0  0  0  0  0  0  0
  -19.5439  -24.6223   25.7231 C   0  0  1  0  0  0  0  0  0  0  0  0
  -16.5164  -22.3461   25.5718 C   0  0  2  0  0  0  0  0  0  0  0  0
  -20.2015  -24.9810   27.0856 C   0  0  0  0  0  0  0  0  0  0  0  0
  -25.8510  -11.5794   20.2937 N   0  0  0  0  0  0  0  0  0  0  0  0
  -30.2874  -15.4660   22.8790 N   0  0  0  0  0  0  0  0  0  0  0  0
  -26.2266  -12.8580   20.1204 N   0  0  0  0  0  0  0  0  0  0  0  0
  -29.9678  -13.6198   20.3339 N   0  0  0  0  0  0  0  0  0  0  0  0
  -20.0299  -25.7879   23.5950 N   0  0  0  0  0  0  0  0  0  0  0  0
  -28.4336  -18.2761   17.8098 N   0  0  0  0  0  0  0  0  0  0  0  0
  -25.4570  -15.0920   20.2878 N   0  0  0  0  0  0  0  0  0  0  0  0
  -21.8729  -12.6571   21.5613 N   0  0  0  0  0  0  0  0  0  0  0  0
  -21.5236  -28.9037   22.4300 N   0  0  0  0  0  0  0  0  0  0  0  0
  -18.2254  -24.0087   25.8392 N   0  0  0  0  0  0  0  0  0  0  0  0
  -16.0066  -21.5212   24.4402 N   0  3  0  0  0  0  0  0  0  0  0  0
  -22.6465  -14.7866   21.2067 O   0  0  0  0  0  0  0  0  0  0  0  0
  -31.9079  -14.9474   20.3685 O   0  0  0  0  0  0  0  0  0  0  0  0
  -22.1614  -27.1754   23.8544 O   0  0  0  0  0  0  0  0  0  0  0  0
  -25.2292  -21.2876   18.3414 O   0  0  0  0  0  0  0  0  0  0  0  0
  -18.6722  -26.7694   25.2165 O   0  0  0  0  0  0  0  0  0  0  0  0
  -18.7561  -22.0511   24.7152 O   0  0  0  0  0  0  0  0  0  0  0  0
  -21.6062   -7.1010   21.8668 O   0  0  0  0  0  0  0  0  0  0  0  0
  -23.0156  -22.3736   19.4138 O   0  0  0  0  0  0  0  0  0  1  0  0
  -27.2743  -20.1067   19.6139 O   0  0  0  0  0  0  0  0  0  0  0  0
  -16.4436   -6.8418   19.9472 F   0  0  0  0  0  0  0  0  0  0  0  0
  -20.8332   -5.0815   20.1443 F   0  0  0  0  0  0  0  0  0  0  0  0
  1  2  1  0  0  0  0
  1  6  2  0  0  0  0
  2  7  2  0  0  0  0
  3  9  2  0  0  0  0
  3 18  1  0  0  0  0
  4 10  1  0  0  0  0
  4 18  2  0  0  0  0
  5 11  2  0  0  0  0
  5 19  1  0  0  0  0
  6 21  1  0  0  0  0
  7 23  1  0  0  0  0
  8 12  2  0  0  0  0
  8 22  1  0  0  0  0
  9 26  1  0  0  0  0
 10 26  2  0  0  0  0
 11 28  1  0  0  0  0
 12 27  1  0  0  0  0
 13 14  2  0  0  0  0
 13 29  1  0  0  0  0
 14 30  1  0  0  0  0
 15 19  2  0  0  0  0
 15 25  1  0  0  0  0
 16 24  1  0  0  0  0
 16 27  2  0  0  0  0
 17 30  2  0  0  0  0
 17 31  1  0  0  0  0
 18 32  1  0  0  0  0
 19 34  1  0  0  0  0
 20 32  1  0  0  0  0
 20 33  2  0  0  0  0
 20 35  1  0  0  0  0
 21 23  2  0  0  0  0
 21 41  1  0  0  0  0
 22 24  2  0  0  0  0
 22 42  1  0  0  0  0
 23 50  1  0  0  0  0
 24 43  1  0  0  0  0
 25 28  2  0  0  0  0
 25 68  1  0  0  0  0
 26 80  1  0  0  0  0
 27 81  1  0  0  0  0
 28 82  1  0  0  0  0
 29 31  2  0  0  0  0
 29 80  1  0  0  0  0
 30 83  1  0  0  0  0
 31 84  1  0  0  0  0
 32 63  2  0  0  0  0
 33 65  1  0  0  0  0
 33 69  1  0  0  0  0
 34 36  1  0  0  0  0
 34 64  2  0  0  0  0
 35 70  1  0  0  0  0
 35 74  2  0  0  0  0
 36 66  1  0  0  0  0
 36 75  2  0  0  0  0
 37 51  1  0  0  0  0
 37 71  1  0  0  0  0
 37 76  2  0  0  0  0
 38 58  1  0  0  0  0
 38 59  1  0  0  0  0
 38 77  2  0  0  0  0
 39 60  1  0  0  0  0
 39 67  1  0  0  0  0
 39 78  2  0  0  0  0
 40 61  1  0  0  0  0
 40 72  1  0  0  0  0
 40 79  2  0  0  0  0
 41 44  1  0  0  0  0
 42 51  1  0  0  0  0
 43 67  1  0  0  0  0
 44 46  1  0  0  0  0
 45 47  1  0  0  0  0
 45 48  1  0  0  0  0
 46 50  1  0  0  0  0
 47 52  1  0  0  0  0
 48 66  1  0  0  0  0
 49 52  1  0  0  0  0
 49 66  1  0  0  0  0
 50 71  1  0  0  0  0
 51 67  1  0  0  0  0
 52 65  1  0  0  0  0
 53 61  1  0  0  0  0
 54 62  1  0  0  0  0
 55 62  1  0  0  0  0
 56 62  1  0  0  0  0
 57 73  1  0  0  0  0
 58 81  1  0  0  0  0
 59 82  1  0  0  0  0
 60 62  1  0  0  0  0
 60 72  1  0  0  0  0
 61 73  1  0  0  0  0
 63 65  1  0  0  0  0
M  CHG  1  73   1
M  ISO  4  34 100  36 100  58 101  81 101
M  END
> <Batch ID>
0094

> <Smiles>
CNC(C)C(=O)NC(C(=O)N1Cc2cc([101O:1][101CH2:1]C(=O)COc3ccc([100C:0](=N)[100C:0](=O)N4CCCC(n5nc(-c6ccc(Oc7ccc(F)cc7F)cc6)c(C(N)=O)c5N)C4)cc3N)ccc2CC1C(=O)NC1CCCc2ccccc21)C(C)(C)C

> <Shape>
0.263

> <Color>
0.196

> <Negative vol penalty>
0.000

$$$$

  -OEChem-04052300403D

 87 96  0     1  0  0  0  0  0999 V2000
  -20.1449  -24.7111   24.3657 C   0  0  0  0  0  0  0  0  0  0  0  0
  -21.4169  -25.0665   23.9286 C   0  0  0  0  0  0  0  0  0  0  0  0
  -18.3826  -24.4835   15.1601 C   0  0  0  0  0  0  0  0  0  0  0  0
  -18.1197  -26.1959   13.4762 C   0  0  0  0  0  0  0  0  0  0  0  0
  -28.9777  -26.4718   17.5718 C   0  0  0  0  0  0  0  0  0  0  0  0
  -19.0444  -25.4908   24.0122 C   0  0  0  0  0  0  0  0  0  0  0  0
  -21.5891  -26.2013   23.1367 C   0  0  0  0  0  0  0  0  0  0  0  0
  -25.5198  -29.0280   24.6214 C   0  0  0  0  0  0  0  0  0  0  0  0
  -28.0400  -26.9696   16.6671 C   0  0  0  0  0  0  0  0  0  0  0  0
  -17.5358  -23.6430   14.4377 C   0  0  0  0  0  0  0  0  0  0  0  0
  -17.2729  -25.3553   12.7537 C   0  0  0  0  0  0  0  0  0  0  0  0
  -26.7924  -28.5900   24.2577 C   0  0  0  0  0  0  0  0  0  0  0  0
  -14.2111  -23.2809   13.9479 C   0  0  0  0  0  0  0  0  0  0  0  0
  -13.2248  -22.5929   14.6546 C   0  0  0  0  0  0  0  0  0  0  0  0
  -27.7794  -24.3758   17.6607 C   0  0  0  0  0  0  0  0  0  0  0  0
  -26.8126  -30.1765   22.4406 C   0  0  0  0  0  0  0  0  0  0  0  0
  -14.1679  -20.4916   13.9250 C   0  0  0  0  0  0  0  0  0  0  0  0
  -18.6745  -25.7600   14.6794 C   0  0  0  0  0  0  0  0  0  0  0  0
  -28.8475  -25.1749   18.0685 C   0  0  0  0  0  0  0  0  0  0  0  0
  -19.3606  -27.1005   16.7385 C   0  0  0  0  0  0  0  0  0  0  0  0
  -19.2045  -26.6412   23.2236 C   0  0  0  0  0  0  0  0  0  0  0  0
  -24.8784  -30.0377   23.8895 C   0  0  0  0  0  0  0  0  0  0  0  0
  -20.4896  -26.9964   22.7712 C   0  0  0  0  0  0  0  0  0  0  0  0
  -25.5329  -30.6273   22.7986 C   0  0  0  0  0  0  0  0  0  0  0  0
  -26.9719  -26.1705   16.2592 C   0  0  0  0  0  0  0  0  0  0  0  0
  -16.9809  -24.0789   13.2345 C   0  0  0  0  0  0  0  0  0  0  0  0
  -27.4379  -29.1622   23.1654 C   0  0  0  0  0  0  0  0  0  0  0  0
  -15.1757  -22.5743   13.2296 C   0  0  0  0  0  0  0  0  0  0  0  0
  -13.2033  -21.1983   14.6432 C   0  0  0  0  0  0  0  0  0  0  0  0
  -26.8416  -24.8736   16.7560 C   0  0  0  0  0  0  0  0  0  0  0  0
  -15.1542  -21.1797   13.2182 C   0  0  0  0  0  0  0  0  0  0  0  0
  -19.5488  -26.6289   15.4255 C   0  0  0  0  0  0  0  0  0  0  0  0
  -20.4618  -27.8841   16.9831 C   0  0  0  0  0  0  0  0  0  0  0  0
  -29.3031  -26.4782   20.7396 C   0  0  0  0  0  0  0  0  0  0  0  0
  -29.8366  -24.6500   19.0230 C   0  0  0  0  0  0  0  0  0  0  0  0
  -18.2864  -26.8523   17.6552 C   0  0  0  0  0  0  0  0  0  0  0  0
  -22.2050  -30.2151   22.1792 C   0  0  0  0  0  0  0  0  0  0  0  0
  -22.9739  -33.3627   22.0253 C   0  0  0  0  0  0  0  0  0  0  0  0
  -25.3923  -35.7654   22.1836 C   0  0  0  0  0  0  0  0  0  0  0  0
  -26.0055  -27.9444   14.7540 C   0  0  0  0  0  0  0  0  0  0  0  0
  -17.9790  -27.4261   22.8277 C   0  0  0  0  0  0  0  0  0  0  0  0
  -23.5166  -30.5175   24.3109 C   0  0  0  0  0  0  0  0  0  0  0  0
  -24.8959  -31.7285   21.9923 C   0  0  0  0  0  0  0  0  0  0  0  0
  -18.2950  -28.8224   22.2977 C   0  0  0  0  0  0  0  0  0  0  0  0
  -23.6739  -30.6352   14.7362 C   0  0  0  0  0  0  0  0  0  0  0  0
  -19.4343  -28.7638   21.2851 C   0  0  0  0  0  0  0  0  0  0  0  0
  -22.3352  -29.9569   15.0365 C   0  0  0  0  0  0  0  0  0  0  0  0
  -30.7068  -25.6012   22.4538 C   0  0  0  0  0  0  0  0  0  0  0  0
  -24.5676  -29.7619   13.8573 C   0  0  0  0  0  0  0  0  0  0  0  0
  -31.0825  -24.9788   21.1283 C   0  0  0  0  0  0  0  0  0  0  0  0
  -23.4452  -27.7189   14.6545 C   0  0  0  0  0  0  0  0  0  0  0  0
  -20.7201  -28.2340   21.9314 C   0  0  1  0  0  0  0  0  0  0  0  0
  -29.9824  -26.8763   22.0390 C   0  0  2  0  0  0  0  0  0  0  0  0
  -22.7459  -31.1947   23.1819 C   0  0  1  0  0  0  0  0  0  0  0  0
  -22.5368  -28.5328   15.5904 C   0  0  2  0  0  0  0  0  0  0  0  0
  -25.7221  -38.2448   21.9810 C   0  0  0  0  0  0  0  0  0  0  0  0
  -22.7370  -33.1437   18.9911 C   0  0  0  0  0  0  0  0  0  0  0  0
  -23.9735  -35.3130   18.8079 C   0  0  0  0  0  0  0  0  0  0  0  0
  -21.7653  -35.2320   19.9654 C   0  0  0  0  0  0  0  0  0  0  0  0
  -26.3834  -35.9779   24.9642 C   0  0  0  0  0  0  0  0  0  0  0  0
  -29.0043  -27.3746   23.0858 C   0  0  0  0  0  0  0  0  0  1  0  0
  -23.7913  -34.2189   21.0884 C   0  0  1  0  0  0  0  0  0  0  0  0
  -25.4524  -37.0865   22.9288 C   0  0  2  0  0  0  0  0  0  0  0  0
  -23.0782  -34.4548   19.7270 C   0  0  0  0  0  0  0  0  0  0  0  0
  -20.6805  -27.0758   14.8744 N   0  0  0  0  0  0  0  0  0  0  0  0
  -21.2132  -27.8364   15.8459 N   0  0  0  0  0  0  0  0  0  0  0  0
  -29.9897  -25.3324   20.2426 N   0  0  0  0  0  0  0  0  0  0  0  0
  -23.5610  -32.1588   22.4400 N   0  0  0  0  0  0  0  0  0  0  0  0
  -24.7167  -28.4296   14.4468 N   0  0  0  0  0  0  0  0  0  0  0  0
  -20.8509  -28.6024   18.0578 N   0  0  0  0  0  0  0  0  0  0  0  0
  -17.1846  -27.7185   17.6436 N   0  0  0  0  0  0  0  0  0  0  0  0
  -26.0207  -26.6794   15.3405 N   0  0  0  0  0  0  0  0  0  0  0  0
  -21.3538  -29.2698   22.7189 N   0  0  0  0  0  0  0  0  0  0  0  0
  -24.1021  -35.4423   21.8200 N   0  0  0  0  0  0  0  0  0  0  0  0
  -26.5350  -37.0551   23.9525 N   0  3  0  0  0  0  0  0  0  0  0  0
  -28.3779  -27.0923   20.2283 O   0  0  0  0  0  0  0  0  0  0  0  0
  -30.4844  -23.6609   18.6847 O   0  0  0  0  0  0  0  0  0  0  0  0
  -18.3106  -25.9006   18.4720 O   0  0  0  0  0  0  0  0  0  0  0  0
  -22.5343  -30.3106   21.0027 O   0  0  0  0  0  0  0  0  0  0  0  0
  -21.8587  -33.7511   22.3818 O   0  0  0  0  0  0  0  0  0  0  0  0
  -26.3906  -35.0895   21.9445 O   0  0  0  0  0  0  0  0  0  0  0  0
  -27.0192  -28.6139   14.5393 O   0  0  0  0  0  0  0  0  0  0  0  0
  -16.1547  -23.2589   12.5291 O   0  0  0  0  0  0  0  0  0  0  0  0
  -28.6798  -28.7361   22.8079 O   0  0  0  0  0  0  0  0  0  1  0  0
  -12.2570  -20.5376   15.3232 F   0  0  0  0  0  0  0  0  0  0  0  0
  -25.8188  -24.0965   16.3715 F   0  0  0  0  0  0  0  0  0  0  0  0
  -16.0789  -20.4954   12.5310 F   0  0  0  0  0  0  0  0  0  0  0  0
  1  2  1  0  0  0  0
  1  6  2  0  0  0  0
  2  7  2  0  0  0  0
  3 10  2  0  0  0  0
  3 18  1  0  0  0  0
  4 11  1  0  0  0  0
  4 18  2  0  0  0  0
  5  9  2  0  0  0  0
  5 19  1  0  0  0  0
  6 21  1  0  0  0  0
  7 23  1  0  0  0  0
  8 12  2  0  0  0  0
  8 22  1  0  0  0  0
  9 25  1  0  0  0  0
 10 26  1  0  0  0  0
 11 26  2  0  0  0  0
 12 27  1  0  0  0  0
 13 14  2  0  0  0  0
 13 28  1  0  0  0  0
 14 29  1  0  0  0  0
 15 19  2  0  0  0  0
 15 30  1  0  0  0  0
 16 24  1  0  0  0  0
 16 27  2  0  0  0  0
 17 29  2  0  0  0  0
 17 31  1  0  0  0  0
 18 32  1  0  0  0  0
 19 35  1  0  0  0  0
 20 32  1  0  0  0  0
 20 33  2  0  0  0  0
 20 36  1  0  0  0  0
 21 23  2  0  0  0  0
 21 41  1  0  0  0  0
 22 24  2  0  0  0  0
 22 42  1  0  0  0  0
 23 52  1  0  0  0  0
 24 43  1  0  0  0  0
 25 30  2  0  0  0  0
 25 72  1  0  0  0  0
 26 83  1  0  0  0  0
 27 84  1  0  0  0  0
 28 31  2  0  0  0  0
 28 83  1  0  0  0  0
 29 85  1  0  0  0  0
 30 86  1  0  0  0  0
 31 87  1  0  0  0  0
 32 65  2  0  0  0  0
 33 66  1  0  0  0  0
 33 70  1  0  0  0  0
 34 53  1  0  0  0  0
 34 67  1  0  0  0  0
 34 76  2  0  0  0  0
 35 67  1  0  0  0  0
 35 77  2  0  0  0  0
 36 71  1  0  0  0  0
 36 78  2  0  0  0  0
 37 54  1  0  0  0  0
 37 73  1  0  0  0  0
 37 79  2  0  0  0  0
 38 62  1  0  0  0  0
 38 68  1  0  0  0  0
 38 80  2  0  0  0  0
 39 63  1  0  0  0  0
 39 74  1  0  0  0  0
 39 81  2  0  0  0  0
 40 69  1  0  0  0  0
 40 72  1  0  0  0  0
 40 82  2  0  0  0  0
 41 44  1  0  0  0  0
 42 54  1  0  0  0  0
 43 68  1  0  0  0  0
 44 46  1  0  0  0  0
 45 47  1  0  0  0  0
 45 49  1  0  0  0  0
 46 52  1  0  0  0  0
 47 55  1  0  0  0  0
 48 50  1  0  0  0  0
 48 53  1  0  0  0  0
 49 69  1  0  0  0  0
 50 67  1  0  0  0  0
 51 55  1  0  0  0  0
 51 69  1  0  0  0  0
 52 73  1  0  0  0  0
 53 61  1  0  0  0  0
 54 68  1  0  0  0  0
 55 66  1  0  0  0  0
 56 63  1  0  0  0  0
 57 64  1  0  0  0  0
 58 64  1  0  0  0  0
 59 64  1  0  0  0  0
 60 75  1  0  0  0  0
 61 84  1  0  0  0  0
 62 64  1  0  0  0  0
 62 74  1  0  0  0  0
 63 75  1  0  0  0  0
 65 66  1  0  0  0  0
M  CHG  1  75   1
M  ISO  4  40 100  61 101  72 100  84 101
M  END
> <Batch ID>
0094

> <Smiles>
CNC(C)C(=O)NC(C(=O)N1Cc2cc([101O:1][101CH2:1]C3CCN(C(=O)c4ccc([100NH:0][100C:0](=O)N5CCCC(n6nc(-c7ccc(Oc8ccc(F)cc8F)cc7)c(C(N)=O)c6N)C5)c(F)c4)C3=O)ccc2CC1C(=O)NC1CCCc2ccccc21)C(C)(C)C

> <Shape>
0.158

> <Color>
0.103

> <Negative vol penalty>
0.000

$$$$

  -OEChem-04052300403D

 87 96  0     1  0  0  0  0  0999 V2000
  -17.2732  -32.2358   21.0557 C   0  0  0  0  0  0  0  0  0  0  0  0
  -18.5977  -32.6104   21.2572 C   0  0  0  0  0  0  0  0  0  0  0  0
  -26.7766  -12.4392   18.2867 C   0  0  0  0  0  0  0  0  0  0  0  0
  -27.1528  -11.9932   20.6311 C   0  0  0  0  0  0  0  0  0  0  0  0
  -16.7916  -31.0530   21.6153 C   0  0  0  0  0  0  0  0  0  0  0  0
  -19.4413  -31.8030   22.0194 C   0  0  0  0  0  0  0  0  0  0  0  0
  -25.5028  -29.0935   19.2251 C   0  0  0  0  0  0  0  0  0  0  0  0
  -25.9562  -11.3142   18.2042 C   0  0  0  0  0  0  0  0  0  0  0  0
  -26.3324  -10.8681   20.5487 C   0  0  0  0  0  0  0  0  0  0  0  0
  -26.7843  -28.7106   18.8286 C   0  0  0  0  0  0  0  0  0  0  0  0
  -23.0198  -10.2015   20.4942 C   0  0  0  0  0  0  0  0  0  0  0  0
  -22.0815  -10.0098   21.5083 C   0  0  0  0  0  0  0  0  0  0  0  0
  -31.1183  -22.3792   19.8778 C   0  0  0  0  0  0  0  0  0  0  0  0
  -27.1053  -27.5654   20.9341 C   0  0  0  0  0  0  0  0  0  0  0  0
  -31.0130  -21.3362   17.7011 C   0  0  0  0  0  0  0  0  0  0  0  0
  -23.1077   -7.8927   22.0578 C   0  0  0  0  0  0  0  0  0  0  0  0
  -27.3749  -12.7787   19.5001 C   0  0  0  0  0  0  0  0  0  0  0  0
  -32.2062  -23.1448   19.4584 C   0  0  0  0  0  0  0  0  0  0  0  0
  -29.4071  -14.1837   18.8644 C   0  0  0  0  0  0  0  0  0  0  0  0
  -17.6323  -30.2259   22.3767 C   0  0  0  0  0  0  0  0  0  0  0  0
  -25.0112  -28.7003   20.4730 C   0  0  0  0  0  0  0  0  0  0  0  0
  -18.9702  -30.6088   22.5909 C   0  0  0  0  0  0  0  0  0  0  0  0
  -25.8177  -27.9354   21.3317 C   0  0  0  0  0  0  0  0  0  0  0  0
  -30.5217  -21.4748   18.9992 C   0  0  0  0  0  0  0  0  0  0  0  0
  -32.1009  -22.1018   17.2816 C   0  0  0  0  0  0  0  0  0  0  0  0
  -25.7341  -10.5286   19.3352 C   0  0  0  0  0  0  0  0  0  0  0  0
  -27.5836  -27.9487   19.6811 C   0  0  0  0  0  0  0  0  0  0  0  0
  -24.0021   -9.2387   20.2619 C   0  0  0  0  0  0  0  0  0  0  0  0
  -22.1254   -8.8555   22.2901 C   0  0  0  0  0  0  0  0  0  0  0  0
  -24.0460   -8.0844   21.0436 C   0  0  0  0  0  0  0  0  0  0  0  0
  -32.6975  -23.0061   18.1603 C   0  0  0  0  0  0  0  0  0  0  0  0
  -28.2229  -13.9405   19.5858 C   0  0  0  0  0  0  0  0  0  0  0  0
  -29.8302  -15.4143   19.3038 C   0  0  0  0  0  0  0  0  0  0  0  0
  -31.0294  -27.2891   20.1498 C   0  0  0  0  0  0  0  0  0  0  0  0
  -29.8953  -27.9883   20.0382 C   0  0  0  0  0  0  0  0  0  1  0  0
  -32.8322  -24.0972   20.3878 C   0  0  0  0  0  0  0  0  0  0  0  0
  -30.0657  -13.3700   17.8847 C   0  0  0  0  0  0  0  0  0  0  0  0
  -22.1527  -28.7575   22.9023 C   0  0  0  0  0  0  0  0  0  0  0  0
  -23.3389  -25.9298   22.9885 C   0  0  0  0  0  0  0  0  0  0  0  0
  -23.8660  -22.5718   23.2768 C   0  0  0  0  0  0  0  0  0  0  0  0
  -28.8064  -20.7118   20.6790 C   0  0  0  0  0  0  0  0  0  0  0  0
  -17.0539  -28.9807   23.0010 C   0  0  0  0  0  0  0  0  0  0  0  0
  -23.6602  -29.1416   20.9666 C   0  0  0  0  0  0  0  0  0  0  0  0
  -25.2604  -27.5645   22.6788 C   0  0  0  0  0  0  0  0  0  0  0  0
  -32.2207  -27.7001   20.9610 C   0  0  0  0  0  0  0  0  0  0  0  0
  -31.2528  -25.9226   19.5806 C   0  0  0  0  0  0  0  0  0  0  0  0
  -18.1130  -27.9927   23.4831 C   0  0  0  0  0  0  0  0  0  0  0  0
  -28.2476  -18.2481   23.1880 C   0  0  0  0  0  0  0  0  0  0  0  0
  -19.2010  -28.7176   24.2690 C   0  0  0  0  0  0  0  0  0  0  0  0
  -28.2887  -16.9278   22.4151 C   0  0  0  0  0  0  0  0  0  0  0  0
  -32.7925  -26.3611   21.3924 C   0  0  0  0  0  0  0  0  0  0  0  0
  -27.5905  -19.3614   22.3740 C   0  0  0  0  0  0  0  0  0  0  0  0
  -28.1975  -18.2478   20.2620 C   0  0  0  0  0  0  0  0  0  0  0  0
  -19.9227  -29.7471   23.3909 C   0  0  1  0  0  0  0  0  0  0  0  0
  -22.9578  -28.0803   21.8324 C   0  0  1  0  0  0  0  0  0  0  0  0
  -28.9089  -17.1127   21.0163 C   0  0  2  0  0  0  0  0  0  0  0  0
  -23.5665  -20.6610   24.8758 C   0  0  0  0  0  0  0  0  0  0  0  0
  -25.7270  -26.9166   24.6093 C   0  0  0  0  0  0  0  0  0  0  0  0
  -25.9693  -24.6007   25.5293 C   0  0  0  0  0  0  0  0  0  0  0  0
  -23.8888  -25.9046   25.9699 C   0  0  0  0  0  0  0  0  0  0  0  0
  -22.0812  -21.1333   21.4049 C   0  0  0  0  0  0  0  0  0  0  0  0
  -24.3071  -24.9840   23.6527 C   0  0  1  0  0  0  0  0  0  0  0  0
  -22.9543  -21.4436   23.7244 C   0  0  2  0  0  0  0  0  0  0  0  0
  -24.9736  -25.6060   24.9122 C   0  0  0  0  0  0  0  0  0  0  0  0
  -27.9137  -14.9366   20.4202 N   0  0  0  0  0  0  0  0  0  0  0  0
  -28.9098  -15.8175   20.2260 N   0  0  0  0  0  0  0  0  0  0  0  0
  -32.3349  -25.3931   20.4061 N   0  0  0  0  0  0  0  0  0  0  0  0
  -23.8539  -27.1539   22.5449 N   0  0  0  0  0  0  0  0  0  0  0  0
  -28.2326  -19.4814   21.0632 N   0  0  0  0  0  0  0  0  0  0  0  0
  -32.5954  -21.9601   15.9680 N   0  0  0  0  0  0  0  0  0  0  0  0
  -30.8962  -16.1799   18.9875 N   0  0  0  0  0  0  0  0  0  0  0  0
  -31.0270  -12.4474   18.3194 N   0  0  0  0  0  0  0  0  0  0  0  0
  -29.4168  -20.6968   19.4253 N   0  0  0  0  0  0  0  0  0  0  0  0
  -20.8685  -29.0896   22.5148 N   0  0  0  0  0  0  0  0  0  0  0  0
  -23.5638  -23.7563   23.9147 N   0  0  0  0  0  0  0  0  0  0  0  0
  -22.7036  -20.5019   22.5969 N   0  3  0  0  0  0  0  0  0  0  0  0
  -33.7458  -23.6775   21.0951 O   0  0  0  0  0  0  0  0  0  0  0  0
  -29.8210  -13.4699   16.6585 O   0  0  0  0  0  0  0  0  0  0  0  0
  -22.6579  -28.9629   23.9997 O   0  0  0  0  0  0  0  0  0  0  0  0
  -22.1562  -25.5973   22.8700 O   0  0  0  0  0  0  0  0  0  0  0  0
  -24.7595  -22.4169   22.4473 O   0  0  0  0  0  0  0  0  0  0  0  0
  -28.7836  -21.6980   21.4199 O   0  0  0  0  0  0  0  0  0  0  0  0
  -24.9335   -9.4308   19.2552 O   0  0  0  0  0  0  0  0  0  0  0  0
  -28.8320  -27.5746   19.2858 O   0  0  0  0  0  0  0  0  0  1  0  0
  -21.2252   -8.6723   23.2648 F   0  0  0  0  0  0  0  0  0  0  0  0
  -24.9881   -7.1565   20.8259 F   0  0  0  0  0  0  0  0  0  0  0  0
  -33.7442  -23.7424   17.7570 F   0  0  0  0  0  0  0  0  0  0  0  0
  1  2  1  0  0  0  0
  1  5  2  0  0  0  0
  2  6  2  0  0  0  0
  3  8  2  0  0  0  0
  3 17  1  0  0  0  0
  4  9  1  0  0  0  0
  4 17  2  0  0  0  0
  5 20  1  0  0  0  0
  6 22  1  0  0  0  0
  7 10  2  0  0  0  0
  7 21  1  0  0  0  0
  8 26  1  0  0  0  0
  9 26  2  0  0  0  0
 10 27  1  0  0  0  0
 11 12  2  0  0  0  0
 11 28  1  0  0  0  0
 12 29  1  0  0  0  0
 13 18  1  0  0  0  0
 13 24  2  0  0  0  0
 14 23  1  0  0  0  0
 14 27  2  0  0  0  0
 15 24  1  0  0  0  0
 15 25  2  0  0  0  0
 16 29  2  0  0  0  0
 16 30  1  0  0  0  0
 17 32  1  0  0  0  0
 18 31  2  0  0  0  0
 18 36  1  0  0  0  0
 19 32  1  0  0  0  0
 19 33  2  0  0  0  0
 19 37  1  0  0  0  0
 20 22  2  0  0  0  0
 20 42  1  0  0  0  0
 21 23  2  0  0  0  0
 21 43  1  0  0  0  0
 22 54  1  0  0  0  0
 23 44  1  0  0  0  0
 24 73  1  0  0  0  0
 25 31  1  0  0  0  0
 25 70  1  0  0  0  0
 26 83  1  0  0  0  0
 27 84  1  0  0  0  0
 28 30  2  0  0  0  0
 28 83  1  0  0  0  0
 29 85  1  0  0  0  0
 30 86  1  0  0  0  0
 31 87  1  0  0  0  0
 32 65  2  0  0  0  0
 33 66  1  0  0  0  0
 33 71  1  0  0  0  0
 34 35  2  0  0  0  0
 34 45  1  0  0  0  0
 34 46  1  0  0  0  0
 35 84  1  0  0  0  0
 36 67  1  0  0  0  0
 36 77  2  0  0  0  0
 37 72  1  0  0  0  0
 37 78  2  0  0  0  0
 38 55  1  0  0  0  0
 38 74  1  0  0  0  0
 38 79  2  0  0  0  0
 39 62  1  0  0  0  0
 39 68  1  0  0  0  0
 39 80  2  0  0  0  0
 40 63  1  0  0  0  0
 40 75  1  0  0  0  0
 40 81  2  0  0  0  0
 41 69  1  0  0  0  0
 41 73  1  0  0  0  0
 41 82  2  0  0  0  0
 42 47  1  0  0  0  0
 43 55  1  0  0  0  0
 44 68  1  0  0  0  0
 45 51  1  0  0  0  0
 46 67  1  0  0  0  0
 47 49  1  0  0  0  0
 48 50  1  0  0  0  0
 48 52  1  0  0  0  0
 49 54  1  0  0  0  0
 50 56  1  0  0  0  0
 51 67  1  0  0  0  0
 52 69  1  0  0  0  0
 53 56  1  0  0  0  0
 53 69  1  0  0  0  0
 54 74  1  0  0  0  0
 55 68  1  0  0  0  0
 56 66  1  0  0  0  0
 57 63  1  0  0  0  0
 58 64  1  0  0  0  0
 59 64  1  0  0  0  0
 60 64  1  0  0  0  0
 61 76  1  0  0  0  0
 62 64  1  0  0  0  0
 62 75  1  0  0  0  0
 63 76  1  0  0  0  0
 65 66  1  0  0  0  0
M  CHG  1  76   1
M  ISO  4  35 101  41 100  73 100  84 101
M  END
> <Batch ID>
0094

> <Smiles>
CNC(C)C(=O)NC(C(=O)N1Cc2cc([101O:1][101CH:1]=C3CCN(C(=O)c4cc([100NH:0][100C:0](=O)N5CCCC(n6nc(-c7ccc(Oc8ccc(F)cc8F)cc7)c(C(N)=O)c6N)C5)cc(N)c4F)C3)ccc2CC1C(=O)NC1CCCc2ccccc21)C(C)(C)C

> <Shape>
0.230

> <Color>
0.071

> <Negative vol penalty>
0.000

$$$$

  -OEChem-04052300403D

 88 97  0     1  0  0  0  0  0999 V2000
  -17.4949  -11.4641   23.3195 C   0  0  0  0  0  0  0  0  0  0  0  0
  -17.7463  -12.4896   22.4136 C   0  0  0  0  0  0  0  0  0  0  0  0
  -25.3222  -27.4049   20.3592 C   0  0  0  0  0  0  0  0  0  0  0  0
  -27.1665  -28.5817   19.3342 C   0  0  0  0  0  0  0  0  0  0  0  0
  -18.5164  -11.0011   24.1477 C   0  0  0  0  0  0  0  0  0  0  0  0
  -19.0193  -13.0535   22.3363 C   0  0  0  0  0  0  0  0  0  0  0  0
  -21.8120  -15.1638   17.3110 C   0  0  0  0  0  0  0  0  0  0  0  0
  -24.9073  -28.5879   20.9708 C   0  0  0  0  0  0  0  0  0  0  0  0
  -26.7516  -29.7647   19.9457 C   0  0  0  0  0  0  0  0  0  0  0  0
  -21.9638  -16.4488   16.7919 C   0  0  0  0  0  0  0  0  0  0  0  0
  -23.2227  -31.3862   20.0964 C   0  0  0  0  0  0  0  0  0  0  0  0
  -21.8628  -31.6937   20.0574 C   0  0  0  0  0  0  0  0  0  0  0  0
  -26.6331  -20.0648   18.5132 C   0  0  0  0  0  0  0  0  0  0  0  0
  -24.1292  -16.6109   17.8426 C   0  0  0  0  0  0  0  0  0  0  0  0
  -26.0291  -21.1042   21.0307 C   0  0  0  0  0  0  0  0  0  0  0  0
  -21.7910  -31.6828   22.4723 C   0  0  0  0  0  0  0  0  0  0  0  0
  -26.4519  -27.4018   19.5409 C   0  0  0  0  0  0  0  0  0  0  0  0
  -27.5506  -19.9426   19.5566 C   0  0  0  0  0  0  0  0  0  0  0  0
  -26.4913  -25.6927   17.6475 C   0  0  0  0  0  0  0  0  0  0  0  0
  -19.8050  -11.5530   24.0738 C   0  0  0  0  0  0  0  0  0  0  0  0
  -22.8146  -14.5960   18.1102 C   0  0  0  0  0  0  0  0  0  0  0  0
  -20.0587  -12.5983   23.1653 C   0  0  0  0  0  0  0  0  0  0  0  0
  -23.9888  -15.3176   18.3685 C   0  0  0  0  0  0  0  0  0  0  0  0
  -25.4136  -20.7068   18.7284 C   0  0  0  0  0  0  0  0  0  0  0  0
  -27.2486  -20.4622   20.8154 C   0  0  0  0  0  0  0  0  0  0  0  0
  -25.6220  -29.7678   20.7641 C   0  0  0  0  0  0  0  0  0  0  0  0
  -23.1212  -17.1737   17.0601 C   0  0  0  0  0  0  0  0  0  0  0  0
  -23.8669  -31.2269   21.3234 C   0  0  0  0  0  0  0  0  0  0  0  0
  -21.1469  -31.8420   21.2453 C   0  0  0  0  0  0  0  0  0  0  0  0
  -25.1116  -21.2265   19.9872 C   0  0  0  0  0  0  0  0  0  0  0  0
  -23.1510  -31.3752   22.5113 C   0  0  0  0  0  0  0  0  0  0  0  0
  -26.8813  -26.1800   18.9093 C   0  0  0  0  0  0  0  0  0  0  0  0
  -27.1727  -24.5079   17.5114 C   0  0  0  0  0  0  0  0  0  0  0  0
  -24.7789  -20.9285   16.2883 C   0  0  0  0  0  0  0  0  0  0  0  0
  -29.1958  -18.1583   19.9101 C   0  0  0  0  0  0  0  0  0  0  0  0
  -28.8157  -19.2666   19.2937 C   0  0  0  0  0  0  0  0  0  0  0  0
  -25.5933  -26.2602   16.6846 C   0  0  0  0  0  0  0  0  0  0  0  0
  -22.9750  -13.5659   21.1130 C   0  0  0  0  0  0  0  0  0  0  0  0
  -25.9306  -12.5830   20.2069 C   0  0  0  0  0  0  0  0  0  0  0  0
  -28.5814  -12.9453   18.0883 C   0  0  0  0  0  0  0  0  0  0  0  0
  -29.4742  -20.8980   21.8870 C   0  0  0  0  0  0  0  0  0  0  0  0
  -20.8649  -11.0519   25.0226 C   0  0  0  0  0  0  0  0  0  0  0  0
  -22.6472  -13.1984   18.6405 C   0  0  0  0  0  0  0  0  0  0  0  0
  -25.1037  -14.7453   19.2040 C   0  0  0  0  0  0  0  0  0  0  0  0
  -23.4754  -21.1444   15.5536 C   0  0  0  0  0  0  0  0  0  0  0  0
  -22.2823  -11.4471   24.6162 C   0  0  0  0  0  0  0  0  0  0  0  0
  -31.1658  -22.2767   18.8986 C   0  0  0  0  0  0  0  0  0  0  0  0
  -22.3369  -12.9237   24.2375 C   0  0  0  0  0  0  0  0  0  0  0  0
  -30.2649  -23.4469   18.5084 C   0  0  0  0  0  0  0  0  0  0  0  0
  -31.1149  -21.9981   20.3977 C   0  0  0  0  0  0  0  0  0  0  0  0
  -23.0496  -20.9520   17.8928 C   0  0  0  0  0  0  0  0  0  0  0  0
  -28.8279  -22.9441   20.5243 C   0  0  0  0  0  0  0  0  0  0  0  0
  -21.4329  -13.2185   23.0345 C   0  0  1  0  0  0  0  0  0  0  0  0
  -23.5094  -12.9175   19.8673 C   0  0  1  0  0  0  0  0  0  0  0  0
  -22.4105  -20.6763   16.5383 C   0  0  2  0  0  0  0  0  0  0  0  0
  -28.8305  -23.2190   19.0131 C   0  0  1  0  0  0  0  0  0  0  0  0
  -30.8679  -12.0242   17.6185 C   0  0  0  0  0  0  0  0  0  0  0  0
  -27.0379  -14.1177   22.6004 C   0  0  0  0  0  0  0  0  0  0  0  0
  -29.3094  -13.9655   21.5585 C   0  0  0  0  0  0  0  0  0  0  0  0
  -28.0969  -11.8857   22.2117 C   0  0  0  0  0  0  0  0  0  0  0  0
  -27.8544  -19.4185   22.9912 C   0  0  0  0  0  0  0  0  0  0  0  0
  -27.7956  -12.0640   15.3744 C   0  0  0  0  0  0  0  0  0  0  0  0
  -22.0845  -19.1941   16.3536 C   0  0  0  0  0  0  0  0  0  1  0  0
  -27.3079  -13.2010   20.2019 C   0  0  1  0  0  0  0  0  0  0  0  0
  -29.3846  -11.9290   17.2969 C   0  0  2  0  0  0  0  0  0  0  0  0
  -27.9164  -13.3043   21.6289 C   0  0  0  0  0  0  0  0  0  0  0  0
  -27.7435  -25.3709   19.5306 N   0  0  0  0  0  0  0  0  0  0  0  0
  -27.9008  -24.3631   18.6555 N   0  0  0  0  0  0  0  0  0  0  0  0
  -24.4771  -20.8321   17.6589 N   0  0  0  0  0  0  0  0  0  0  0  0
  -24.8901  -13.3775   19.7051 N   0  0  0  0  0  0  0  0  0  0  0  0
  -29.7398  -21.8429   20.8747 N   0  0  0  0  0  0  0  0  0  0  0  0
  -27.2139  -23.5862   16.5259 N   0  0  0  0  0  0  0  0  0  0  0  0
  -24.9784  -27.4835   16.9841 N   0  0  0  0  0  0  0  0  0  0  0  0
  -22.0682  -12.7882   21.8074 N   0  0  0  0  0  0  0  0  0  0  0  0
  -28.1053  -12.4134   19.2679 N   0  0  0  0  0  0  0  0  0  0  0  0
  -28.1768  -20.3519   21.9141 N   0  0  0  0  0  0  0  0  0  0  0  0
  -29.2055  -12.1525   15.8344 N   0  3  0  0  0  0  0  0  0  0  0  0
  -25.8594  -20.9152   15.7166 O   0  0  0  0  0  0  0  0  0  0  0  0
  -25.3311  -25.6911   15.5979 O   0  0  0  0  0  0  0  0  0  0  0  0
  -23.3583  -14.6881   21.4221 O   0  0  0  0  0  0  0  0  0  0  0  0
  -25.7845  -11.4348   20.6336 O   0  0  0  0  0  0  0  0  0  0  0  0
  -28.3980  -14.0971   17.7006 O   0  0  0  0  0  0  0  0  0  0  0  0
  -30.3169  -20.6016   22.7430 O   0  0  0  0  0  0  0  0  0  0  0  0
  -25.2172  -30.9223   21.3605 O   0  0  0  0  0  0  0  0  0  0  0  0
  -23.2717  -18.4284   16.5552 O   0  0  0  0  0  0  0  0  0  1  0  0
  -19.8413  -32.1389   21.2077 F   0  0  0  0  0  0  0  0  0  0  0  0
  -23.9428  -21.8459   20.2057 F   0  0  0  0  0  0  0  0  0  0  0  0
  -23.7646  -31.2245   23.6931 F   0  0  0  0  0  0  0  0  0  0  0  0
  1  2  1  0  0  0  0
  1  5  2  0  0  0  0
  2  6  2  0  0  0  0
  3  8  2  0  0  0  0
  3 17  1  0  0  0  0
  4  9  1  0  0  0  0
  4 17  2  0  0  0  0
  5 20  1  0  0  0  0
  6 22  1  0  0  0  0
  7 10  2  0  0  0  0
  7 21  1  0  0  0  0
  8 26  1  0  0  0  0
  9 26  2  0  0  0  0
 10 27  1  0  0  0  0
 11 12  2  0  0  0  0
 11 28  1  0  0  0  0
 12 29  1  0  0  0  0
 13 18  1  0  0  0  0
 13 24  2  0  0  0  0
 14 23  1  0  0  0  0
 14 27  2  0  0  0  0
 15 25  1  0  0  0  0
 15 30  2  0  0  0  0
 16 29  2  0  0  0  0
 16 31  1  0  0  0  0
 17 32  1  0  0  0  0
 18 25  2  0  0  0  0
 18 36  1  0  0  0  0
 19 32  1  0  0  0  0
 19 33  2  0  0  0  0
 19 37  1  0  0  0  0
 20 22  2  0  0  0  0
 20 42  1  0  0  0  0
 21 23  2  0  0  0  0
 21 43  1  0  0  0  0
 22 53  1  0  0  0  0
 23 44  1  0  0  0  0
 24 30  1  0  0  0  0
 24 69  1  0  0  0  0
 25 76  1  0  0  0  0
 26 84  1  0  0  0  0
 27 85  1  0  0  0  0
 28 31  2  0  0  0  0
 28 84  1  0  0  0  0
 29 86  1  0  0  0  0
 30 87  1  0  0  0  0
 31 88  1  0  0  0  0
 32 67  2  0  0  0  0
 33 68  1  0  0  0  0
 33 72  1  0  0  0  0
 34 45  1  0  0  0  0
 34 69  1  0  0  0  0
 34 78  2  0  0  0  0
 35 36  2  0  0  0  0
 37 73  1  0  0  0  0
 37 79  2  0  0  0  0
 38 54  1  0  0  0  0
 38 74  1  0  0  0  0
 38 80  2  0  0  0  0
 39 64  1  0  0  0  0
 39 70  1  0  0  0  0
 39 81  2  0  0  0  0
 40 65  1  0  0  0  0
 40 75  1  0  0  0  0
 40 82  2  0  0  0  0
 41 71  1  0  0  0  0
 41 76  1  0  0  0  0
 41 83  2  0  0  0  0
 42 46  1  0  0  0  0
 43 54  1  0  0  0  0
 44 70  1  0  0  0  0
 45 55  1  0  0  0  0
 46 48  1  0  0  0  0
 47 49  1  0  0  0  0
 47 50  1  0  0  0  0
 48 53  1  0  0  0  0
 49 56  1  0  0  0  0
 50 71  1  0  0  0  0
 51 55  1  0  0  0  0
 51 69  1  0  0  0  0
 52 56  1  0  0  0  0
 52 71  1  0  0  0  0
 53 74  1  0  0  0  0
 54 70  1  0  0  0  0
 55 63  1  0  0  0  0
 56 68  1  0  0  0  0
 57 65  1  0  0  0  0
 58 66  1  0  0  0  0
 59 66  1  0  0  0  0
 60 66  1  0  0  0  0
 61 76  1  0  0  0  0
 62 77  1  0  0  0  0
 63 85  1  0  0  0  0
 64 66  1  0  0  0  0
 64 75  1  0  0  0  0
 65 77  1  0  0  0  0
 67 68  1  0  0  0  0
M  CHG  1  77   1
M  ISO  4  41 100  63 101  76 100  85 101
M  END
> <Batch ID>
0094

> <Smiles>
C=Cc1cc(N2CC([101CH2:1][101O:1]c3ccc4c(c3)CN(C(=O)C(NC(=O)C(C)NC)C(C)(C)C)C(C(=O)NC3CCCc5ccccc53)C4)CC2=O)c(F)cc1[100N:0](C)[100C:0](=O)N1CCCC(n2nc(-c3ccc(Oc4ccc(F)cc4F)cc3)c(C(N)=O)c2N)C1

> <Shape>
0.216

> <Color>
0.058

> <Negative vol penalty>
0.000

$$$$

  -OEChem-04052300403D

 87 96  0     1  0  0  0  0  0999 V2000
  -27.7245   -9.4519   22.2245 C   0  0  0  0  0  0  0  0  0  0  0  0
  -28.3836  -10.6130   21.8335 C   0  0  0  0  0  0  0  0  0  0  0  0
  -23.3074  -26.7902   22.5711 C   0  0  0  0  0  0  0  0  0  0  0  0
  -22.4488  -28.3207   20.9105 C   0  0  0  0  0  0  0  0  0  0  0  0
  -26.3343   -9.3810   22.1467 C   0  0  0  0  0  0  0  0  0  0  0  0
  -27.6529  -11.7035   21.3633 C   0  0  0  0  0  0  0  0  0  0  0  0
  -28.9495  -17.6326   22.1821 C   0  0  0  0  0  0  0  0  0  0  0  0
  -30.2827  -25.5584   22.3948 C   0  0  0  0  0  0  0  0  0  0  0  0
  -30.3329  -26.5544   23.3700 C   0  0  0  0  0  0  0  0  0  0  0  0
  -22.0115  -26.5687   23.0371 C   0  0  0  0  0  0  0  0  0  0  0  0
  -21.1528  -28.0991   21.3765 C   0  0  0  0  0  0  0  0  0  0  0  0
  -29.5726  -18.5776   21.3681 C   0  0  0  0  0  0  0  0  0  0  0  0
  -19.2267  -29.1177   23.9618 C   0  0  0  0  0  0  0  0  0  0  0  0
  -18.4043  -30.2295   24.1429 C   0  0  0  0  0  0  0  0  0  0  0  0
  -27.4129  -19.3414   20.6120 C   0  0  0  0  0  0  0  0  0  0  0  0
  -31.0188  -27.1493   20.7322 C   0  0  0  0  0  0  0  0  0  0  0  0
  -16.8327  -29.3273   22.5450 C   0  0  0  0  0  0  0  0  0  0  0  0
  -23.5261  -27.6663   21.5079 C   0  0  0  0  0  0  0  0  0  0  0  0
  -25.5398  -27.1817   20.0187 C   0  0  0  0  0  0  0  0  0  0  0  0
  -25.5854  -10.4747   21.6844 C   0  0  0  0  0  0  0  0  0  0  0  0
  -27.5514  -17.5274   22.2089 C   0  0  0  0  0  0  0  0  0  0  0  0
  -26.2514  -11.6467   21.2779 C   0  0  0  0  0  0  0  0  0  0  0  0
  -26.7745  -18.3960   21.4291 C   0  0  0  0  0  0  0  0  0  0  0  0
  -30.6257  -25.8558   21.0758 C   0  0  0  0  0  0  0  0  0  0  0  0
  -30.7260  -27.8478   23.0264 C   0  0  0  0  0  0  0  0  0  0  0  0
  -20.9342  -27.2231   22.4398 C   0  0  0  0  0  0  0  0  0  0  0  0
  -28.8044  -19.4303   20.5807 C   0  0  0  0  0  0  0  0  0  0  0  0
  -18.8522  -28.1106   23.0722 C   0  0  0  0  0  0  0  0  0  0  0  0
  -17.2072  -30.3344   23.4346 C   0  0  0  0  0  0  0  0  0  0  0  0
  -31.0689  -28.1453   21.7074 C   0  0  0  0  0  0  0  0  0  0  0  0
  -17.6552  -28.2154   22.3639 C   0  0  0  0  0  0  0  0  0  0  0  0
  -24.8646  -27.8960   21.0264 C   0  0  0  0  0  0  0  0  0  0  0  0
  -26.7711  -27.7848   19.9366 C   0  0  0  0  0  0  0  0  0  0  0  0
  -29.6595  -23.7719   20.1630 C   0  0  0  0  0  0  0  0  0  0  0  0
  -29.6582  -22.6974   19.3592 C   0  0  0  0  0  0  0  0  0  0  0  0
  -31.4883  -24.8525   18.9827 C   0  0  0  0  0  0  0  0  0  0  0  0
  -25.0939  -26.0723   19.2274 C   0  0  0  0  0  0  0  0  0  0  0  0
  -25.4587  -15.2503   21.4747 C   0  0  0  0  0  0  0  0  0  0  0  0
  -23.3230  -17.3572   22.7086 C   0  0  0  0  0  0  0  0  0  0  0  0
  -22.5511  -20.5955   23.4597 C   0  0  0  0  0  0  0  0  0  0  0  0
  -30.5540  -30.2389   23.7640 C   0  0  0  0  0  0  0  0  0  0  0  0
  -24.0878  -10.3342   21.5735 C   0  0  0  0  0  0  0  0  0  0  0  0
  -26.8938  -16.5207   23.1125 C   0  0  0  0  0  0  0  0  0  0  0  0
  -25.2695  -18.3373   21.4373 C   0  0  0  0  0  0  0  0  0  0  0  0
  -30.6537  -22.5799   18.2486 C   0  0  0  0  0  0  0  0  0  0  0  0
  -31.1278  -23.9537   17.8134 C   0  0  0  0  0  0  0  0  0  0  0  0
  -23.3609  -11.6674   21.4174 C   0  0  0  0  0  0  0  0  0  0  0  0
  -28.6384  -32.1600   21.2474 C   0  0  0  0  0  0  0  0  0  0  0  0
  -24.0527  -12.5332   20.3692 C   0  0  0  0  0  0  0  0  0  0  0  0
  -27.4852  -31.2178   20.9071 C   0  0  0  0  0  0  0  0  0  0  0  0
  -29.1391  -31.9503   22.6732 C   0  0  0  0  0  0  0  0  0  0  0  0
  -28.3754  -29.5932   22.6246 C   0  0  0  0  0  0  0  0  0  0  0  0
  -25.4919  -12.8597   20.7859 C   0  0  1  0  0  0  0  0  0  0  0  0
  -25.4790  -16.1572   22.6725 C   0  0  1  0  0  0  0  0  0  0  0  0
  -27.8798  -29.7569   21.1800 C   0  0  1  0  0  0  0  0  0  0  0  0
  -20.7179  -22.0101   24.4269 C   0  0  0  0  0  0  0  0  0  0  0  0
  -21.7535  -17.0992   20.1047 C   0  0  0  0  0  0  0  0  0  0  0  0
  -20.5134  -19.1832   20.7271 C   0  0  0  0  0  0  0  0  0  0  0  0
  -20.3451  -17.1557   22.1705 C   0  0  0  0  0  0  0  0  0  0  0  0
  -31.3329  -28.5259   25.3421 C   0  0  0  0  0  0  0  0  0  0  0  0
  -24.2803  -21.5281   25.6731 C   0  0  0  0  0  0  0  0  0  0  0  0
  -28.6955  -21.5624   19.5329 C   0  0  0  0  0  0  0  0  0  1  0  0
  -22.4934  -18.4885   22.1513 C   0  0  1  0  0  0  0  0  0  0  0  0
  -21.9910  -21.2314   24.7192 C   0  0  2  0  0  0  0  0  0  0  0  0
  -21.3048  -17.9817   21.2865 C   0  0  0  0  0  0  0  0  0  0  0  0
  -25.6055  -28.8777   21.5474 N   0  0  0  0  0  0  0  0  0  0  0  0
  -26.7591  -28.7844   20.8643 N   0  0  0  0  0  0  0  0  0  0  0  0
  -30.5730  -24.8209   20.0618 N   0  0  0  0  0  0  0  0  0  0  0  0
  -24.6735  -17.3318   22.3325 N   0  0  0  0  0  0  0  0  0  0  0  0
  -29.4538  -30.5453   22.9369 N   0  0  0  0  0  0  0  0  0  0  0  0
  -27.8521  -27.5521   19.1621 N   0  0  0  0  0  0  0  0  0  0  0  0
  -23.8003  -25.5767   19.4406 N   0  0  0  0  0  0  0  0  0  0  0  0
  -25.5035  -13.9049   21.7867 N   0  0  0  0  0  0  0  0  0  0  0  0
  -22.0961  -19.3045   23.2935 N   0  0  0  0  0  0  0  0  0  0  0  0
  -30.7763  -28.8758   24.0371 N   0  0  0  0  0  0  0  0  0  0  0  0
  -22.9873  -22.1660   25.3147 N   0  3  0  0  0  0  0  0  0  0  0  0
  -32.4939  -25.5604   18.9028 O   0  0  0  0  0  0  0  0  0  0  0  0
  -25.8268  -25.5259   18.3685 O   0  0  0  0  0  0  0  0  0  0  0  0
  -25.4049  -15.7353   20.3506 O   0  0  0  0  0  0  0  0  0  0  0  0
  -22.7941  -16.5305   23.4559 O   0  0  0  0  0  0  0  0  0  0  0  0
  -23.3129  -21.1863   22.6973 O   0  0  0  0  0  0  0  0  0  0  0  0
  -31.2575  -31.1215   24.2706 O   0  0  0  0  0  0  0  0  0  0  0  0
  -19.6695  -27.0070   22.8940 O   0  0  0  0  0  0  0  0  0  0  0  0
  -29.4100  -20.3531   19.7848 O   0  0  0  0  0  0  0  0  0  1  0  0
  -16.4167  -31.4014   23.6098 F   0  0  0  0  0  0  0  0  0  0  0  0
  -31.4468  -29.3854   21.3653 F   0  0  0  0  0  0  0  0  0  0  0  0
  -17.2895  -27.2506   21.5088 F   0  0  0  0  0  0  0  0  0  0  0  0
  1  2  1  0  0  0  0
  1  5  2  0  0  0  0
  2  6  2  0  0  0  0
  3 10  2  0  0  0  0
  3 18  1  0  0  0  0
  4 11  1  0  0  0  0
  4 18  2  0  0  0  0
  5 20  1  0  0  0  0
  6 22  1  0  0  0  0
  7 12  2  0  0  0  0
  7 21  1  0  0  0  0
  8  9  2  0  0  0  0
  8 24  1  0  0  0  0
  9 25  1  0  0  0  0
 10 26  1  0  0  0  0
 11 26  2  0  0  0  0
 12 27  1  0  0  0  0
 13 14  2  0  0  0  0
 13 28  1  0  0  0  0
 14 29  1  0  0  0  0
 15 23  1  0  0  0  0
 15 27  2  0  0  0  0
 16 24  2  0  0  0  0
 16 30  1  0  0  0  0
 17 29  2  0  0  0  0
 17 31  1  0  0  0  0
 18 32  1  0  0  0  0
 19 32  1  0  0  0  0
 19 33  2  0  0  0  0
 19 37  1  0  0  0  0
 20 22  2  0  0  0  0
 20 42  1  0  0  0  0
 21 23  2  0  0  0  0
 21 43  1  0  0  0  0
 22 53  1  0  0  0  0
 23 44  1  0  0  0  0
 24 68  1  0  0  0  0
 25 30  2  0  0  0  0
 25 75  1  0  0  0  0
 26 83  1  0  0  0  0
 27 84  1  0  0  0  0
 28 31  2  0  0  0  0
 28 83  1  0  0  0  0
 29 85  1  0  0  0  0
 30 86  1  0  0  0  0
 31 87  1  0  0  0  0
 32 66  2  0  0  0  0
 33 67  1  0  0  0  0
 33 71  1  0  0  0  0
 34 35  2  0  0  0  0
 34 68  1  0  0  0  0
 35 45  1  0  0  0  0
 35 62  1  0  0  0  0
 36 46  1  0  0  0  0
 36 68  1  0  0  0  0
 36 77  2  0  0  0  0
 37 72  1  0  0  0  0
 37 78  2  0  0  0  0
 38 54  1  0  0  0  0
 38 73  1  0  0  0  0
 38 79  2  0  0  0  0
 39 63  1  0  0  0  0
 39 69  1  0  0  0  0
 39 80  2  0  0  0  0
 40 64  1  0  0  0  0
 40 74  1  0  0  0  0
 40 81  2  0  0  0  0
 41 70  1  0  0  0  0
 41 75  1  0  0  0  0
 41 82  2  0  0  0  0
 42 47  1  0  0  0  0
 43 54  1  0  0  0  0
 44 69  1  0  0  0  0
 45 46  1  0  0  0  0
 47 49  1  0  0  0  0
 48 50  1  0  0  0  0
 48 51  1  0  0  0  0
 49 53  1  0  0  0  0
 50 55  1  0  0  0  0
 51 70  1  0  0  0  0
 52 55  1  0  0  0  0
 52 70  1  0  0  0  0
 53 73  1  0  0  0  0
 54 69  1  0  0  0  0
 55 67  1  0  0  0  0
 56 64  1  0  0  0  0
 57 65  1  0  0  0  0
 58 65  1  0  0  0  0
 59 65  1  0  0  0  0
 60 75  1  0  0  0  0
 61 76  1  0  0  0  0
 62 84  1  0  0  0  0
 63 65  1  0  0  0  0
 63 74  1  0  0  0  0
 64 76  1  0  0  0  0
 66 67  1  0  0  0  0
M  CHG  1  76   1
M  ISO  4  41 100  62 101  75 100  84 101
M  END
> <Batch ID>
0094

> <Smiles>
CNC(C)C(=O)NC(C(=O)N1Cc2cc([101O:1][101CH2:1]C3=CN(c4ccc([100N:0](C)[100C:0](=O)N5CCCC(n6nc(-c7ccc(Oc8ccc(F)cc8F)cc7)c(C(N)=O)c6N)C5)c(F)c4)C(=O)CC3)ccc2CC1C(=O)NC1CCCc2ccccc21)C(C)(C)C

> <Shape>
0.240

> <Color>
0.074

> <Negative vol penalty>
0.000

$$$$

  -OEChem-04052300403D

 84 92  0     1  0  0  0  0  0999 V2000
  -26.4366  -32.8752   27.1922 C   0  0  0  0  0  0  0  0  0  0  0  0
  -26.9935  -32.0311   26.2368 C   0  0  0  0  0  0  0  0  0  0  0  0
  -22.8234  -11.4969   18.7241 C   0  0  0  0  0  0  0  0  0  0  0  0
  -22.8217  -10.3603   20.8561 C   0  0  0  0  0  0  0  0  0  0  0  0
  -30.4387  -19.5320   19.3289 C   0  0  0  0  0  0  0  0  0  0  0  0
  -25.1495  -32.6322   27.6700 C   0  0  0  0  0  0  0  0  0  0  0  0
  -26.2640  -30.9428   25.7594 C   0  0  0  0  0  0  0  0  0  0  0  0
  -26.3666  -28.6468   20.0829 C   0  0  0  0  0  0  0  0  0  0  0  0
  -29.6235  -20.6631   19.2864 C   0  0  0  0  0  0  0  0  0  0  0  0
  -21.8021  -10.6590   18.2765 C   0  0  0  0  0  0  0  0  0  0  0  0
  -21.8003   -9.5223   20.4085 C   0  0  0  0  0  0  0  0  0  0  0  0
  -27.0390  -27.5619   19.5219 C   0  0  0  0  0  0  0  0  0  0  0  0
  -21.5031   -6.7873   18.4433 C   0  0  0  0  0  0  0  0  0  0  0  0
  -21.6236   -5.4224   18.7040 C   0  0  0  0  0  0  0  0  0  0  0  0
  -28.5989  -18.2392   20.2125 C   0  0  0  0  0  0  0  0  0  0  0  0
  -25.0821  -26.1891   19.8463 C   0  0  0  0  0  0  0  0  0  0  0  0
  -19.5627   -5.4810   19.9634 C   0  0  0  0  0  0  0  0  0  0  0  0
  -23.3333  -11.3476   20.0139 C   0  0  0  0  0  0  0  0  0  0  0  0
  -29.9264  -18.3200   19.7919 C   0  0  0  0  0  0  0  0  0  0  0  0
  -24.2474  -13.4484   21.1357 C   0  0  0  0  0  0  0  0  0  0  0  0
  -24.4001  -31.5460   27.1912 C   0  0  0  0  0  0  0  0  0  0  0  0
  -25.0484  -28.5079   20.5405 C   0  0  0  0  0  0  0  0  0  0  0  0
  -24.9662  -30.6843   26.2323 C   0  0  0  0  0  0  0  0  0  0  0  0
  -24.3944  -27.2744   20.4104 C   0  0  0  0  0  0  0  0  0  0  0  0
  -28.2960  -20.5822   19.7071 C   0  0  0  0  0  0  0  0  0  0  0  0
  -27.7837  -19.3702   20.1701 C   0  0  0  0  0  0  0  0  0  0  0  0
  -21.2906   -9.6717   19.1187 C   0  0  0  0  0  0  0  0  0  0  0  0
  -26.3977  -26.3320   19.4062 C   0  0  0  0  0  0  0  0  0  0  0  0
  -20.4124   -7.4991   18.9427 C   0  0  0  0  0  0  0  0  0  0  0  0
  -20.6534   -4.7692   19.4640 C   0  0  0  0  0  0  0  0  0  0  0  0
  -19.4422   -6.8459   19.7027 C   0  0  0  0  0  0  0  0  0  0  0  0
  -24.3887  -12.2125   20.4767 C   0  0  0  0  0  0  0  0  0  0  0  0
  -25.5362  -13.8667   21.3608 C   0  0  0  0  0  0  0  0  0  0  0  0
  -30.7950  -17.1157   19.8366 C   0  0  0  0  0  0  0  0  0  0  0  0
  -23.0577  -14.1550   21.5110 C   0  0  0  0  0  0  0  0  0  0  0  0
  -23.6116  -28.7931   23.3615 C   0  0  0  0  0  0  0  0  0  0  0  0
  -20.9236  -28.3557   21.5991 C   0  0  0  0  0  0  0  0  0  0  0  0
  -27.8544  -23.0111   19.2177 C   0  0  0  0  0  0  0  0  0  0  0  0
  -19.4911  -27.1236   18.7572 C   0  0  0  0  0  0  0  0  0  0  0  0
  -30.7672  -14.6446   19.7088 C   0  0  0  0  0  0  0  0  0  0  0  0
  -23.0310  -31.2962   27.7723 C   0  0  0  0  0  0  0  0  0  0  0  0
  -24.3279  -29.6948   21.1188 C   0  0  0  0  0  0  0  0  0  0  0  0
  -22.9728  -27.0785   20.8678 C   0  0  0  0  0  0  0  0  0  0  0  0
  -22.1814  -30.3391   26.9401 C   0  0  0  0  0  0  0  0  0  0  0  0
  -29.9358  -11.4075   20.8610 C   0  0  0  0  0  0  0  0  0  0  0  0
  -22.9958  -29.1130   26.5396 C   0  0  0  0  0  0  0  0  0  0  0  0
  -28.4062  -11.4294   20.9267 C   0  0  0  0  0  0  0  0  0  0  0  0
  -30.4631  -12.1848   19.6557 C   0  0  0  0  0  0  0  0  0  0  0  0
  -28.4340  -13.5765   19.5950 C   0  0  0  0  0  0  0  0  0  0  0  0
  -24.1968  -29.5078   25.6718 C   0  0  1  0  0  0  0  0  0  0  0  0
  -23.1621  -29.3043   22.0220 C   0  0  1  0  0  0  0  0  0  0  0  0
  -27.8564  -12.8668   20.8302 C   0  0  1  0  0  0  0  0  0  0  0  0
  -17.2691  -26.8828   17.6161 C   0  0  0  0  0  0  0  0  0  0  0  0
  -20.1925  -26.0889   23.5062 C   0  0  0  0  0  0  0  0  0  0  0  0
  -18.5268  -25.2957   21.8138 C   0  0  0  0  0  0  0  0  0  0  0  0
  -18.2768  -27.5538   22.8439 C   0  0  0  0  0  0  0  0  0  0  0  0
  -20.3790  -28.7297   16.4353 C   0  0  0  0  0  0  0  0  0  0  0  0
  -26.6854  -23.9727   19.3240 C   0  0  0  0  0  0  0  0  0  1  0  0
  -20.1181  -27.1579   21.1572 C   0  0  1  0  0  0  0  0  0  0  0  0
  -18.5150  -27.7408   17.7720 C   0  0  2  0  0  0  0  0  0  0  0  0
  -19.3060  -26.5269   22.3233 C   0  0  0  0  0  0  0  0  0  0  0  0
  -25.6663  -11.8682   20.2947 N   0  0  0  0  0  0  0  0  0  0  0  0
  -26.3397  -12.8940   20.8427 N   0  0  0  0  0  0  0  0  0  0  0  0
  -22.3129  -28.2674   21.4322 N   0  0  0  0  0  0  0  0  0  0  0  0
  -29.9033  -13.5375   19.6425 N   0  0  0  0  0  0  0  0  0  0  0  0
  -26.4420  -19.2647   20.6002 N   0  0  0  0  0  0  0  0  0  0  0  0
  -26.0491  -14.9681   21.9492 N   0  0  0  0  0  0  0  0  0  0  0  0
  -21.8157  -13.5827   21.2040 N   0  0  0  0  0  0  0  0  0  0  0  0
  -27.4876  -21.7424   19.6537 N   0  0  0  0  0  0  0  0  0  0  0  0
  -30.1333  -15.8918   19.7333 N   0  0  0  0  0  0  0  0  0  0  0  0
  -23.7724  -29.7800   24.3152 N   0  0  0  0  0  0  0  0  0  0  0  0
  -19.3015  -27.6067   20.0347 N   0  0  0  0  0  0  0  0  0  0  0  0
  -19.1539  -27.8892   16.4338 N   0  3  0  0  0  0  0  0  0  0  0  0
  -32.0118  -17.2587   19.9191 O   0  0  0  0  0  0  0  0  0  0  0  0
  -23.0949  -15.2690   22.0865 O   0  0  0  0  0  0  0  0  0  0  0  0
  -23.7972  -27.5920   23.5185 O   0  0  0  0  0  0  0  0  0  0  0  0
  -20.3410  -29.3366   22.0683 O   0  0  0  0  0  0  0  0  0  0  0  0
  -28.9476  -23.3729   18.7953 O   0  0  0  0  0  0  0  0  0  0  0  0
  -20.3347  -26.2929   18.4273 O   0  0  0  0  0  0  0  0  0  0  0  0
  -31.9951  -14.5318   19.7789 O   0  0  0  0  0  0  0  0  0  0  0  0
  -20.2938   -8.8540   18.6823 O   0  0  0  0  0  0  0  0  0  0  0  0
  -27.0519  -25.2713   18.8596 O   0  0  0  0  0  0  0  0  0  1  0  0
  -20.7685   -3.4581   19.7130 F   0  0  0  0  0  0  0  0  0  0  0  0
  -18.3915   -7.5243   20.1842 F   0  0  0  0  0  0  0  0  0  0  0  0
  1  2  1  0  0  0  0
  1  6  2  0  0  0  0
  2  7  2  0  0  0  0
  3 10  2  0  0  0  0
  3 18  1  0  0  0  0
  4 11  1  0  0  0  0
  4 18  2  0  0  0  0
  5  9  2  0  0  0  0
  5 19  1  0  0  0  0
  6 21  1  0  0  0  0
  7 23  1  0  0  0  0
  8 12  2  0  0  0  0
  8 22  1  0  0  0  0
  9 25  1  0  0  0  0
 10 27  1  0  0  0  0
 11 27  2  0  0  0  0
 12 28  1  0  0  0  0
 13 14  2  0  0  0  0
 13 29  1  0  0  0  0
 14 30  1  0  0  0  0
 15 19  2  0  0  0  0
 15 26  1  0  0  0  0
 16 24  1  0  0  0  0
 16 28  2  0  0  0  0
 17 30  2  0  0  0  0
 17 31  1  0  0  0  0
 18 32  1  0  0  0  0
 19 34  1  0  0  0  0
 20 32  1  0  0  0  0
 20 33  2  0  0  0  0
 20 35  1  0  0  0  0
 21 23  2  0  0  0  0
 21 41  1  0  0  0  0
 22 24  2  0  0  0  0
 22 42  1  0  0  0  0
 23 50  1  0  0  0  0
 24 43  1  0  0  0  0
 25 26  2  0  0  0  0
 25 69  1  0  0  0  0
 26 66  1  0  0  0  0
 27 81  1  0  0  0  0
 28 82  1  0  0  0  0
 29 31  2  0  0  0  0
 29 81  1  0  0  0  0
 30 83  1  0  0  0  0
 31 84  1  0  0  0  0
 32 62  2  0  0  0  0
 33 63  1  0  0  0  0
 33 67  1  0  0  0  0
 34 70  1  0  0  0  0
 34 74  2  0  0  0  0
 35 68  1  0  0  0  0
 35 75  2  0  0  0  0
 36 51  1  0  0  0  0
 36 71  1  0  0  0  0
 36 76  2  0  0  0  0
 37 59  1  0  0  0  0
 37 64  1  0  0  0  0
 37 77  2  0  0  0  0
 38 58  1  0  0  0  0
 38 69  1  0  0  0  0
 38 78  2  0  0  0  0
 39 60  1  0  0  0  0
 39 72  1  0  0  0  0
 39 79  2  0  0  0  0
 40 65  1  0  0  0  0
 40 70  1  0  0  0  0
 40 80  2  0  0  0  0
 41 44  1  0  0  0  0
 42 51  1  0  0  0  0
 43 64  1  0  0  0  0
 44 46  1  0  0  0  0
 45 47  1  0  0  0  0
 45 48  1  0  0  0  0
 46 50  1  0  0  0  0
 47 52  1  0  0  0  0
 48 65  1  0  0  0  0
 49 52  1  0  0  0  0
 49 65  1  0  0  0  0
 50 71  1  0  0  0  0
 51 64  1  0  0  0  0
 52 63  1  0  0  0  0
 53 60  1  0  0  0  0
 54 61  1  0  0  0  0
 55 61  1  0  0  0  0
 56 61  1  0  0  0  0
 57 73  1  0  0  0  0
 58 82  1  0  0  0  0
 59 61  1  0  0  0  0
 59 72  1  0  0  0  0
 60 73  1  0  0  0  0
 62 63  1  0  0  0  0
M  CHG  1  73   1
M  ISO  4  40 100  58 101  70 100  82 101
M  END
> <Batch ID>
0094

> <Smiles>
CNC(C)C(=O)NC(C(=O)N1Cc2cc([101O:1][101CH2:1]C(=O)Nc3ccc(C(=O)[100NH:0][100C:0](=O)N4CCCC(n5nc(-c6ccc(Oc7ccc(F)cc7F)cc6)c(C(N)=O)c5N)C4)cc3N)ccc2CC1C(=O)NC1CCCc2ccccc21)C(C)(C)C

> <Shape>
0.296

> <Color>
0.097

> <Negative vol penalty>
0.000

$$$$

  -OEChem-04052300403D

 84 92  0     1  0  0  0  0  0999 V2000
  -28.2800  -35.0964   26.5048 C   0  0  0  0  0  0  0  0  0  0  0  0
  -28.7887  -34.4746   25.3690 C   0  0  0  0  0  0  0  0  0  0  0  0
  -22.7131  -12.1597   18.3929 C   0  0  0  0  0  0  0  0  0  0  0  0
  -22.5860  -10.8495   20.4189 C   0  0  0  0  0  0  0  0  0  0  0  0
  -30.4284  -19.4555   19.2915 C   0  0  0  0  0  0  0  0  0  0  0  0
  -27.3747  -34.4206   27.3218 C   0  0  0  0  0  0  0  0  0  0  0  0
  -28.3931  -33.1760   25.0502 C   0  0  0  0  0  0  0  0  0  0  0  0
  -27.1584  -28.9434   19.4042 C   0  0  0  0  0  0  0  0  0  0  0  0
  -29.6953  -20.6421   19.3012 C   0  0  0  0  0  0  0  0  0  0  0  0
  -21.6612  -11.4220   17.8499 C   0  0  0  0  0  0  0  0  0  0  0  0
  -21.5340  -10.1119   19.8758 C   0  0  0  0  0  0  0  0  0  0  0  0
  -27.5126  -27.6940   18.8969 C   0  0  0  0  0  0  0  0  0  0  0  0
  -19.0538   -7.6463   18.8862 C   0  0  0  0  0  0  0  0  0  0  0  0
  -19.0895   -6.2599   19.0349 C   0  0  0  0  0  0  0  0  0  0  0  0
  -25.8823  -26.6532   20.3384 C   0  0  0  0  0  0  0  0  0  0  0  0
  -28.3934  -19.8225   21.1642 C   0  0  0  0  0  0  0  0  0  0  0  0
  -21.1808   -6.1842   17.8274 C   0  0  0  0  0  0  0  0  0  0  0  0
  -23.1755  -11.8734   19.6774 C   0  0  0  0  0  0  0  0  0  0  0  0
  -30.1440  -18.4523   20.2180 C   0  0  0  0  0  0  0  0  0  0  0  0
  -24.1696  -13.8168   20.9976 C   0  0  0  0  0  0  0  0  0  0  0  0
  -26.9604  -33.1167   27.0076 C   0  0  0  0  0  0  0  0  0  0  0  0
  -26.1696  -29.0562   20.3921 C   0  0  0  0  0  0  0  0  0  0  0  0
  -27.4824  -32.4816   25.8645 C   0  0  0  0  0  0  0  0  0  0  0  0
  -25.5157  -27.9054   20.8549 C   0  0  0  0  0  0  0  0  0  0  0  0
  -28.6778  -20.8256   20.2376 C   0  0  0  0  0  0  0  0  0  0  0  0
  -29.1266  -18.6358   21.1544 C   0  0  0  0  0  0  0  0  0  0  0  0
  -21.0716  -10.3982   18.5913 C   0  0  0  0  0  0  0  0  0  0  0  0
  -26.8765  -26.5484   19.3660 C   0  0  0  0  0  0  0  0  0  0  0  0
  -20.0815   -8.3017   18.2080 C   0  0  0  0  0  0  0  0  0  0  0  0
  -20.1530   -5.5288   18.5055 C   0  0  0  0  0  0  0  0  0  0  0  0
  -21.1450   -7.5707   17.6786 C   0  0  0  0  0  0  0  0  0  0  0  0
  -24.2625  -12.6347   20.2388 C   0  0  0  0  0  0  0  0  0  0  0  0
  -25.4721  -14.1405   21.2897 C   0  0  0  0  0  0  0  0  0  0  0  0
  -30.9437  -17.2009   20.1810 C   0  0  0  0  0  0  0  0  0  0  0  0
  -23.0098  -14.5560   21.4023 C   0  0  0  0  0  0  0  0  0  0  0  0
  -26.1045  -30.1074   23.3912 C   0  0  0  0  0  0  0  0  0  0  0  0
  -22.9147  -29.6019   23.0877 C   0  0  0  0  0  0  0  0  0  0  0  0
  -28.0837  -23.1239   19.4015 C   0  0  0  0  0  0  0  0  0  0  0  0
  -20.3805  -27.9503   21.5076 C   0  0  0  0  0  0  0  0  0  0  0  0
  -30.7845  -14.7549   19.8412 C   0  0  0  0  0  0  0  0  0  0  0  0
  -26.0161  -32.4089   27.9467 C   0  0  0  0  0  0  0  0  0  0  0  0
  -25.7803  -30.4137   20.9098 C   0  0  0  0  0  0  0  0  0  0  0  0
  -24.4333  -27.9744   21.8999 C   0  0  0  0  0  0  0  0  0  0  0  0
  -25.3605  -31.1736   27.3347 C   0  0  0  0  0  0  0  0  0  0  0  0
  -29.7434  -11.4851   20.6905 C   0  0  0  0  0  0  0  0  0  0  0  0
  -26.4010  -30.3138   26.6241 C   0  0  0  0  0  0  0  0  0  0  0  0
  -28.2161  -11.5886   20.7198 C   0  0  0  0  0  0  0  0  0  0  0  0
  -30.3480  -12.3297   19.5698 C   0  0  0  0  0  0  0  0  0  0  0  0
  -28.4008  -13.8351   19.5782 C   0  0  0  0  0  0  0  0  0  0  0  0
  -27.0584  -31.0830   25.4718 C   0  0  1  0  0  0  0  0  0  0  0  0
  -25.1207  -30.3623   22.2845 C   0  0  1  0  0  0  0  0  0  0  0  0
  -27.7488  -13.0580   20.7333 C   0  0  1  0  0  0  0  0  0  0  0  0
  -17.8818  -27.7182   21.5030 C   0  0  0  0  0  0  0  0  0  0  0  0
  -23.0705  -27.9007   25.6158 C   0  0  0  0  0  0  0  0  0  0  0  0
  -20.8292  -26.9507   25.0308 C   0  0  0  0  0  0  0  0  0  0  0  0
  -21.0674  -29.3922   25.4838 C   0  0  0  0  0  0  0  0  0  0  0  0
  -20.1811  -28.9031   18.7128 C   0  0  0  0  0  0  0  0  0  0  0  0
  -27.0839  -24.2106   19.7504 C   0  0  0  0  0  0  0  0  0  1  0  0
  -21.9891  -28.4349   23.3330 C   0  0  1  0  0  0  0  0  0  0  0  0
  -19.0773  -28.4442   20.9059 C   0  0  2  0  0  0  0  0  0  0  0  0
  -21.7608  -28.1678   24.8476 C   0  0  0  0  0  0  0  0  0  0  0  0
  -25.5242  -12.2346   20.0598 N   0  0  0  0  0  0  0  0  0  0  0  0
  -26.2362  -13.1706   20.7103 N   0  0  0  0  0  0  0  0  0  0  0  0
  -24.0926  -29.3240   22.3796 N   0  0  0  0  0  0  0  0  0  0  0  0
  -29.8637  -13.7085   19.6587 N   0  0  0  0  0  0  0  0  0  0  0  0
  -28.8217  -17.6317   22.1001 N   0  0  0  0  0  0  0  0  0  0  0  0
  -26.0268  -15.1574   21.9829 N   0  0  0  0  0  0  0  0  0  0  0  0
  -21.7480  -14.0833   21.0166 N   0  0  0  0  0  0  0  0  0  0  0  0
  -27.9345  -22.0297   20.2468 N   0  0  0  0  0  0  0  0  0  0  0  0
  -30.2194  -16.0298   19.9567 N   0  0  0  0  0  0  0  0  0  0  0  0
  -26.1777  -31.1241   24.3241 N   0  0  0  0  0  0  0  0  0  0  0  0
  -20.7687  -28.7177   22.5854 N   0  0  0  0  0  0  0  0  0  0  0  0
  -19.0717  -28.2254   19.4317 N   0  3  0  0  0  0  0  0  0  0  0  0
  -32.1635  -17.2668   20.3056 O   0  0  0  0  0  0  0  0  0  0  0  0
  -23.0908  -15.6137   22.0719 O   0  0  0  0  0  0  0  0  0  0  0  0
  -26.7484  -29.0648   23.3989 O   0  0  0  0  0  0  0  0  0  0  0  0
  -22.6008  -30.7204   23.5026 O   0  0  0  0  0  0  0  0  0  0  0  0
  -28.8869  -23.2601   18.4844 O   0  0  0  0  0  0  0  0  0  0  0  0
  -20.9911  -26.9784   21.0680 O   0  0  0  0  0  0  0  0  0  0  0  0
  -32.0018  -14.5668   19.9318 O   0  0  0  0  0  0  0  0  0  0  0  0
  -20.0450   -9.6783   18.0618 O   0  0  0  0  0  0  0  0  0  0  0  0
  -27.2207  -25.3276   18.8729 O   0  0  0  0  0  0  0  0  0  1  0  0
  -20.1880   -4.1976   18.6498 F   0  0  0  0  0  0  0  0  0  0  0  0
  -22.1358   -8.1949   17.0271 F   0  0  0  0  0  0  0  0  0  0  0  0
  1  2  1  0  0  0  0
  1  6  2  0  0  0  0
  2  7  2  0  0  0  0
  3 10  2  0  0  0  0
  3 18  1  0  0  0  0
  4 11  1  0  0  0  0
  4 18  2  0  0  0  0
  5  9  2  0  0  0  0
  5 19  1  0  0  0  0
  6 21  1  0  0  0  0
  7 23  1  0  0  0  0
  8 12  2  0  0  0  0
  8 22  1  0  0  0  0
  9 25  1  0  0  0  0
 10 27  1  0  0  0  0
 11 27  2  0  0  0  0
 12 28  1  0  0  0  0
 13 14  2  0  0  0  0
 13 29  1  0  0  0  0
 14 30  1  0  0  0  0
 15 24  1  0  0  0  0
 15 28  2  0  0  0  0
 16 25  2  0  0  0  0
 16 26  1  0  0  0  0
 17 30  2  0  0  0  0
 17 31  1  0  0  0  0
 18 32  1  0  0  0  0
 19 26  2  0  0  0  0
 19 34  1  0  0  0  0
 20 32  1  0  0  0  0
 20 33  2  0  0  0  0
 20 35  1  0  0  0  0
 21 23  2  0  0  0  0
 21 41  1  0  0  0  0
 22 24  2  0  0  0  0
 22 42  1  0  0  0  0
 23 50  1  0  0  0  0
 24 43  1  0  0  0  0
 25 69  1  0  0  0  0
 26 66  1  0  0  0  0
 27 81  1  0  0  0  0
 28 82  1  0  0  0  0
 29 31  2  0  0  0  0
 29 81  1  0  0  0  0
 30 83  1  0  0  0  0
 31 84  1  0  0  0  0
 32 62  2  0  0  0  0
 33 63  1  0  0  0  0
 33 67  1  0  0  0  0
 34 70  1  0  0  0  0
 34 74  2  0  0  0  0
 35 68  1  0  0  0  0
 35 75  2  0  0  0  0
 36 51  1  0  0  0  0
 36 71  1  0  0  0  0
 36 76  2  0  0  0  0
 37 59  1  0  0  0  0
 37 64  1  0  0  0  0
 37 77  2  0  0  0  0
 38 58  1  0  0  0  0
 38 69  1  0  0  0  0
 38 78  2  0  0  0  0
 39 60  1  0  0  0  0
 39 72  1  0  0  0  0
 39 79  2  0  0  0  0
 40 65  1  0  0  0  0
 40 70  1  0  0  0  0
 40 80  2  0  0  0  0
 41 44  1  0  0  0  0
 42 51  1  0  0  0  0
 43 64  1  0  0  0  0
 44 46  1  0  0  0  0
 45 47  1  0  0  0  0
 45 48  1  0  0  0  0
 46 50  1  0  0  0  0
 47 52  1  0  0  0  0
 48 65  1  0  0  0  0
 49 52  1  0  0  0  0
 49 65  1  0  0  0  0
 50 71  1  0  0  0  0
 51 64  1  0  0  0  0
 52 63  1  0  0  0  0
 53 60  1  0  0  0  0
 54 61  1  0  0  0  0
 55 61  1  0  0  0  0
 56 61  1  0  0  0  0
 57 73  1  0  0  0  0
 58 82  1  0  0  0  0
 59 61  1  0  0  0  0
 59 72  1  0  0  0  0
 60 73  1  0  0  0  0
 62 63  1  0  0  0  0
M  CHG  1  73   1
M  ISO  4  40 100  58 101  70 100  82 101
M  END
> <Batch ID>
0094

> <Smiles>
CNC(C)C(=O)NC(C(=O)N1Cc2cc([101O:1][101CH2:1]C(=O)Nc3ccc(C(=O)[100NH:0][100C:0](=O)N4CCCC(n5nc(-c6ccc(Oc7ccc(F)cc7F)cc6)c(C(N)=O)c5N)C4)c(N)c3)ccc2CC1C(=O)NC1CCCc2ccccc21)C(C)(C)C

> <Shape>
0.307

> <Color>
0.099

> <Negative vol penalty>
0.000

$$$$

  -OEChem-04052300403D

 85 93  0     1  0  0  0  0  0999 V2000
  -25.5962  -37.1484   17.3534 C   0  0  0  0  0  0  0  0  0  0  0  0
  -26.1120  -35.8677   17.1829 C   0  0  0  0  0  0  0  0  0  0  0  0
  -31.0181   -6.4851   18.4026 C   0  0  0  0  0  0  0  0  0  0  0  0
  -28.9725   -6.4550   17.1174 C   0  0  0  0  0  0  0  0  0  0  0  0
  -25.3580  -37.6375   18.6372 C   0  0  0  0  0  0  0  0  0  0  0  0
  -26.3910  -35.0757   18.2962 C   0  0  0  0  0  0  0  0  0  0  0  0
  -25.8142  -28.9938   18.7253 C   0  0  0  0  0  0  0  0  0  0  0  0
  -30.9363   -5.1022   18.5653 C   0  0  0  0  0  0  0  0  0  0  0  0
  -28.8907   -5.0721   17.2800 C   0  0  0  0  0  0  0  0  0  0  0  0
  -26.7364  -27.9541   18.6150 C   0  0  0  0  0  0  0  0  0  0  0  0
  -27.9378   -2.8988   19.6882 C   0  0  0  0  0  0  0  0  0  0  0  0
  -26.6988   -2.3590   20.0334 C   0  0  0  0  0  0  0  0  0  0  0  0
  -29.8780  -18.2937   22.9215 C   0  0  0  0  0  0  0  0  0  0  0  0
  -26.9742  -27.9185   21.0153 C   0  0  0  0  0  0  0  0  0  0  0  0
  -29.2735  -20.6316   22.8435 C   0  0  0  0  0  0  0  0  0  0  0  0
  -26.7087   -1.0414   18.0083 C   0  0  0  0  0  0  0  0  0  0  0  0
  -30.0361   -7.1616   17.6787 C   0  0  0  0  0  0  0  0  0  0  0  0
  -30.0763  -18.2989   21.5408 C   0  0  0  0  0  0  0  0  0  0  0  0
  -30.7628   -9.2877   16.4707 C   0  0  0  0  0  0  0  0  0  0  0  0
  -25.6251  -36.8475   19.7664 C   0  0  0  0  0  0  0  0  0  0  0  0
  -25.4726  -29.5119   19.9828 C   0  0  0  0  0  0  0  0  0  0  0  0
  -26.1574  -35.5552   19.5963 C   0  0  0  0  0  0  0  0  0  0  0  0
  -26.0454  -28.9631   21.1390 C   0  0  0  0  0  0  0  0  0  0  0  0
  -29.4766  -19.4601   23.5729 C   0  0  0  0  0  0  0  0  0  0  0  0
  -29.4718  -20.6368   21.4628 C   0  0  0  0  0  0  0  0  0  0  0  0
  -29.8726   -4.3957   18.0039 C   0  0  0  0  0  0  0  0  0  0  0  0
  -27.3187  -27.4182   19.7599 C   0  0  0  0  0  0  0  0  0  0  0  0
  -28.5622   -2.5100   18.5031 C   0  0  0  0  0  0  0  0  0  0  0  0
  -26.0843   -1.4303   19.1934 C   0  0  0  0  0  0  0  0  0  0  0  0
  -27.9477   -1.5812   17.6631 C   0  0  0  0  0  0  0  0  0  0  0  0
  -29.8732  -19.4704   20.8115 C   0  0  0  0  0  0  0  0  0  0  0  0
  -30.1198   -8.5902   17.5108 C   0  0  0  0  0  0  0  0  0  0  0  0
  -30.5561  -10.6128   16.7670 C   0  0  0  0  0  0  0  0  0  0  0  0
  -30.4924  -17.0786   20.8671 C   0  0  0  0  0  0  0  0  0  0  0  0
  -30.1716  -15.8245   21.2499 C   0  0  0  0  0  0  0  0  0  0  0  0
  -31.4824   -8.7829   15.3380 C   0  0  0  0  0  0  0  0  0  0  0  0
  -30.6647  -14.6835   20.4525 C   0  0  0  0  0  0  0  0  0  0  0  0
  -25.7418  -32.3504   21.3878 C   0  0  0  0  0  0  0  0  0  0  0  0
  -28.7278  -24.1124   20.2591 C   0  0  0  0  0  0  0  0  0  0  0  0
  -24.0304  -30.9140   23.7394 C   0  0  0  0  0  0  0  0  0  0  0  0
  -23.0841  -28.0188   25.2786 C   0  0  0  0  0  0  0  0  0  0  0  0
  -25.3957  -37.4371   21.1355 C   0  0  0  0  0  0  0  0  0  0  0  0
  -24.4561  -30.6156   20.0866 C   0  0  0  0  0  0  0  0  0  0  0  0
  -25.6973  -29.4701   22.5138 C   0  0  0  0  0  0  0  0  0  0  0  0
  -25.3666  -36.3948   22.2504 C   0  0  0  0  0  0  0  0  0  0  0  0
  -27.5289  -12.8112   20.1484 C   0  0  0  0  0  0  0  0  0  0  0  0
  -26.5335  -35.4234   22.1037 C   0  0  0  0  0  0  0  0  0  0  0  0
  -27.9977  -11.5752   19.3853 C   0  0  0  0  0  0  0  0  0  0  0  0
  -28.5997  -13.3325   21.1055 C   0  0  0  0  0  0  0  0  0  0  0  0
  -30.3801  -12.3599   19.6827 C   0  0  0  0  0  0  0  0  0  0  0  0
  -26.4496  -34.6566   20.7783 C   0  0  1  0  0  0  0  0  0  0  0  0
  -24.5686  -31.4117   21.3831 C   0  0  1  0  0  0  0  0  0  0  0  0
  -29.3357  -11.8463   18.6793 C   0  0  1  0  0  0  0  0  0  0  0  0
  -21.7094  -27.1660   27.1971 C   0  0  0  0  0  0  0  0  0  0  0  0
  -26.2141  -31.7808   25.6862 C   0  0  0  0  0  0  0  0  0  0  0  0
  -25.3013  -30.1327   27.3351 C   0  0  0  0  0  0  0  0  0  0  0  0
  -23.8824  -32.0304   26.5554 C   0  0  0  0  0  0  0  0  0  0  0  0
  -21.3085  -26.4842   23.4755 C   0  0  0  0  0  0  0  0  0  0  0  0
  -28.8506  -23.0497   21.3305 C   0  0  0  0  0  0  0  0  0  0  0  0
  -28.2883  -25.4811   20.7416 C   0  0  0  0  0  0  0  0  0  1  0  0
  -24.3713  -30.1178   24.9759 C   0  0  1  0  0  0  0  0  0  0  0  0
  -21.7227  -27.5087   25.7155 C   0  0  2  0  0  0  0  0  0  0  0  0
  -24.9505  -31.0070   26.1123 C   0  0  0  0  0  0  0  0  0  0  0  0
  -29.5477   -9.4048   18.4014 N   0  0  0  0  0  0  0  0  0  0  0  0
  -29.8305  -10.6279   17.9217 N   0  0  0  0  0  0  0  0  0  0  0  0
  -29.8856  -13.5284   20.4194 N   0  0  0  0  0  0  0  0  0  0  0  0
  -24.7029  -30.5546   22.5628 N   0  0  0  0  0  0  0  0  0  0  0  0
  -29.2761  -19.4557   24.9690 N   0  0  0  0  0  0  0  0  0  0  0  0
  -30.9262  -11.7550   16.1498 N   0  0  0  0  0  0  0  0  0  0  0  0
  -31.5996   -7.3946   15.1855 N   0  0  0  0  0  0  0  0  0  0  0  0
  -29.2668  -21.8034   20.7401 N   0  0  0  0  0  0  0  0  0  0  0  0
  -25.4646  -33.6000   20.8672 N   0  0  0  0  0  0  0  0  0  0  0  0
  -23.1588  -29.3941   25.3426 N   0  0  0  0  0  0  0  0  0  0  0  0
  -21.3568  -26.2854   24.9469 N   0  3  0  0  0  0  0  0  0  0  0  0
  -32.0200   -9.5407   14.4953 O   0  0  0  0  0  0  0  0  0  0  0  0
  -31.7405  -14.8216   19.8674 O   0  0  0  0  0  0  0  0  0  0  0  0
  -26.8185  -31.9697   21.8324 O   0  0  0  0  0  0  0  0  0  0  0  0
  -28.9660  -23.8914   19.0724 O   0  0  0  0  0  0  0  0  0  0  0  0
  -23.1929  -31.8166   23.8132 O   0  0  0  0  0  0  0  0  0  0  0  0
  -23.9918  -27.2717   24.9203 O   0  0  0  0  0  0  0  0  0  0  0  0
  -29.7927   -3.0462   18.1622 O   0  0  0  0  0  0  0  0  0  0  0  0
  -28.2197  -26.4037   19.6550 O   0  0  0  0  0  0  0  0  0  1  0  0
  -24.8952   -0.9108   19.5258 F   0  0  0  0  0  0  0  0  0  0  0  0
  -28.5433   -1.2029   16.5239 F   0  0  0  0  0  0  0  0  0  0  0  0
  -30.0602  -19.4796   19.4823 F   0  0  0  0  0  0  0  0  0  0  0  0
  1  2  1  0  0  0  0
  1  5  2  0  0  0  0
  2  6  2  0  0  0  0
  3  8  2  0  0  0  0
  3 17  1  0  0  0  0
  4  9  1  0  0  0  0
  4 17  2  0  0  0  0
  5 20  1  0  0  0  0
  6 22  1  0  0  0  0
  7 10  2  0  0  0  0
  7 21  1  0  0  0  0
  8 26  1  0  0  0  0
  9 26  2  0  0  0  0
 10 27  1  0  0  0  0
 11 12  2  0  0  0  0
 11 28  1  0  0  0  0
 12 29  1  0  0  0  0
 13 18  2  0  0  0  0
 13 24  1  0  0  0  0
 14 23  1  0  0  0  0
 14 27  2  0  0  0  0
 15 24  2  0  0  0  0
 15 25  1  0  0  0  0
 16 29  2  0  0  0  0
 16 30  1  0  0  0  0
 17 32  1  0  0  0  0
 18 31  1  0  0  0  0
 18 34  1  0  0  0  0
 19 32  1  0  0  0  0
 19 33  2  0  0  0  0
 19 36  1  0  0  0  0
 20 22  2  0  0  0  0
 20 42  1  0  0  0  0
 21 23  2  0  0  0  0
 21 43  1  0  0  0  0
 22 51  1  0  0  0  0
 23 44  1  0  0  0  0
 24 68  1  0  0  0  0
 25 31  2  0  0  0  0
 25 71  1  0  0  0  0
 26 81  1  0  0  0  0
 27 82  1  0  0  0  0
 28 30  2  0  0  0  0
 28 81  1  0  0  0  0
 29 83  1  0  0  0  0
 30 84  1  0  0  0  0
 31 85  1  0  0  0  0
 32 64  2  0  0  0  0
 33 65  1  0  0  0  0
 33 69  1  0  0  0  0
 34 35  2  0  0  0  0
 35 37  1  0  0  0  0
 36 70  1  0  0  0  0
 36 75  2  0  0  0  0
 37 66  1  0  0  0  0
 37 76  2  0  0  0  0
 38 52  1  0  0  0  0
 38 72  1  0  0  0  0
 38 77  2  0  0  0  0
 39 59  1  0  0  0  0
 39 60  1  0  0  0  0
 39 78  2  0  0  0  0
 40 61  1  0  0  0  0
 40 67  1  0  0  0  0
 40 79  2  0  0  0  0
 41 62  1  0  0  0  0
 41 73  1  0  0  0  0
 41 80  2  0  0  0  0
 42 45  1  0  0  0  0
 43 52  1  0  0  0  0
 44 67  1  0  0  0  0
 45 47  1  0  0  0  0
 46 48  1  0  0  0  0
 46 49  1  0  0  0  0
 47 51  1  0  0  0  0
 48 53  1  0  0  0  0
 49 66  1  0  0  0  0
 50 53  1  0  0  0  0
 50 66  1  0  0  0  0
 51 72  1  0  0  0  0
 52 67  1  0  0  0  0
 53 65  1  0  0  0  0
 54 62  1  0  0  0  0
 55 63  1  0  0  0  0
 56 63  1  0  0  0  0
 57 63  1  0  0  0  0
 58 74  1  0  0  0  0
 59 71  1  0  0  0  0
 60 82  1  0  0  0  0
 61 63  1  0  0  0  0
 61 73  1  0  0  0  0
 62 74  1  0  0  0  0
 64 65  1  0  0  0  0
M  CHG  1  74   1
M  ISO  4  35 100  37 100  60 101  82 101
M  END
> <Batch ID>
0094

> <Smiles>
CNC(C)C(=O)NC(C(=O)N1Cc2cc([101O:1][101CH2:1]C(=O)CNc3cc(N)cc(C=[100CH:0][100C:0](=O)N4CCCC(n5nc(-c6ccc(Oc7ccc(F)cc7F)cc6)c(C(N)=O)c5N)C4)c3F)ccc2CC1C(=O)NC1CCCc2ccccc21)C(C)(C)C

> <Shape>
0.212

> <Color>
0.105

> <Negative vol penalty>
0.000

$$$$

  -OEChem-04052300403D

 83 91  0     1  0  0  0  0  0999 V2000
  -26.7341  -34.6040   24.5805 C   0  0  0  0  0  0  0  0  0  0  0  0
  -27.1233  -33.3228   24.2030 C   0  0  0  0  0  0  0  0  0  0  0  0
  -26.3995  -10.5673   18.0498 C   0  0  0  0  0  0  0  0  0  0  0  0
  -28.6753  -10.9574   18.7612 C   0  0  0  0  0  0  0  0  0  0  0  0
  -25.4021  -34.8600   24.9032 C   0  0  0  0  0  0  0  0  0  0  0  0
  -26.1807  -32.2966   24.1490 C   0  0  0  0  0  0  0  0  0  0  0  0
  -26.6118  -29.4811   19.9619 C   0  0  0  0  0  0  0  0  0  0  0  0
  -26.7332   -9.2590   17.6999 C   0  0  0  0  0  0  0  0  0  0  0  0
  -29.0089   -9.6490   18.4113 C   0  0  0  0  0  0  0  0  0  0  0  0
  -27.6343  -28.5337   19.9341 C   0  0  0  0  0  0  0  0  0  0  0  0
  -27.2225   -6.3071   19.2746 C   0  0  0  0  0  0  0  0  0  0  0  0
  -26.3502   -5.2899   19.6621 C   0  0  0  0  0  0  0  0  0  0  0  0
  -26.0418  -26.8077   20.4851 C   0  0  0  0  0  0  0  0  0  0  0  0
  -26.0264   -4.6852   17.3455 C   0  0  0  0  0  0  0  0  0  0  0  0
  -27.3706  -11.4166   18.5804 C   0  0  0  0  0  0  0  0  0  0  0  0
  -26.0661  -13.1780   19.8855 C   0  0  0  0  0  0  0  0  0  0  0  0
  -24.4409  -33.8386   24.8438 C   0  0  0  0  0  0  0  0  0  0  0  0
  -25.2963  -29.0999   20.2627 C   0  0  0  0  0  0  0  0  0  0  0  0
  -24.8349  -32.5388   24.4725 C   0  0  0  0  0  0  0  0  0  0  0  0
  -25.0040  -27.7517   20.5136 C   0  0  0  0  0  0  0  0  0  0  0  0
  -28.0378   -8.7998   17.8807 C   0  0  0  0  0  0  0  0  0  0  0  0
  -27.3499  -27.1972   20.1986 C   0  0  0  0  0  0  0  0  0  0  0  0
  -27.4968   -6.5133   17.9226 C   0  0  0  0  0  0  0  0  0  0  0  0
  -25.7522   -4.4790   18.6975 C   0  0  0  0  0  0  0  0  0  0  0  0
  -26.8988   -5.7024   16.9580 C   0  0  0  0  0  0  0  0  0  0  0  0
  -27.0267  -12.7684   18.9415 C   0  0  0  0  0  0  0  0  0  0  0  0
  -26.1212  -14.5501   19.8584 C   0  0  0  0  0  0  0  0  0  0  0  0
  -28.9475  -21.3964   22.3302 C   0  0  0  0  0  0  0  0  0  0  0  0
  -29.4468  -19.9960   22.1588 C   0  0  0  0  0  0  0  0  0  0  0  0
  -28.5977  -25.5643   21.3154 C   0  0  0  0  0  0  0  0  0  1  0  0
  -25.2012  -12.3887   20.7130 C   0  0  0  0  0  0  0  0  0  0  0  0
  -29.0740  -24.3151   21.3153 C   0  0  0  0  0  0  0  0  0  0  0  0
  -29.3149  -23.6297   22.6226 C   0  0  0  0  0  0  0  0  0  0  0  0
  -29.1485  -19.2534   19.7954 C   0  0  0  0  0  0  0  0  0  0  0  0
  -23.2251  -29.8138   22.5658 C   0  0  0  0  0  0  0  0  0  0  0  0
  -21.1980  -28.0423   20.7560 C   0  0  0  0  0  0  0  0  0  0  0  0
  -20.7932  -25.5970   18.4101 C   0  0  0  0  0  0  0  0  0  0  0  0
  -23.0221  -34.1526   25.2474 C   0  0  0  0  0  0  0  0  0  0  0  0
  -24.2000  -30.1298   20.2624 C   0  0  0  0  0  0  0  0  0  0  0  0
  -23.6046  -27.2877   20.8218 C   0  0  0  0  0  0  0  0  0  0  0  0
  -27.4612  -21.5861   22.3965 C   0  0  0  0  0  0  0  0  0  0  0  0
  -22.0143  -33.0956   24.8032 C   0  0  0  0  0  0  0  0  0  0  0  0
  -26.7784  -20.7929   21.2912 C   0  0  0  0  0  0  0  0  0  0  0  0
  -28.4232  -17.6985   16.6496 C   0  0  0  0  0  0  0  0  0  0  0  0
  -22.5305  -31.6969   25.1258 C   0  0  0  0  0  0  0  0  0  0  0  0
  -27.1755  -19.3155   21.3324 C   0  0  0  0  0  0  0  0  0  0  0  0
  -27.9453  -16.3010   17.0417 C   0  0  0  0  0  0  0  0  0  0  0  0
  -29.5158  -18.1990   17.5892 C   0  0  0  0  0  0  0  0  0  0  0  0
  -28.6519  -16.7858   19.4272 C   0  0  0  0  0  0  0  0  0  0  0  0
  -23.8371  -31.4050   24.3781 C   0  0  1  0  0  0  0  0  0  0  0  0
  -28.6867  -19.0933   21.2220 C   0  0  2  0  0  0  0  0  0  0  0  0
  -22.9862  -29.7106   21.0859 C   0  0  1  0  0  0  0  0  0  0  0  0
  -27.5263  -16.2551   18.5218 C   0  0  2  0  0  0  0  0  0  0  0  0
  -19.0162  -24.3414   17.1599 C   0  0  0  0  0  0  0  0  0  0  0  0
  -20.6126  -26.3895   23.2531 C   0  0  0  0  0  0  0  0  0  0  0  0
  -19.6190  -24.6322   21.7722 C   0  0  0  0  0  0  0  0  0  0  0  0
  -18.6069  -26.9107   21.8531 C   0  0  0  0  0  0  0  0  0  0  0  0
  -21.7797  -26.5727   15.7959 C   0  0  0  0  0  0  0  0  0  0  0  0
  -20.8258  -26.5809   20.6872 C   0  0  1  0  0  0  0  0  0  0  0  0
  -19.9508  -25.5410   17.1485 C   0  0  2  0  0  0  0  0  0  0  0  0
  -19.9429  -26.1371   21.8876 C   0  0  0  0  0  0  0  0  0  0  0  0
  -27.6467  -13.7971   18.3572 N   0  0  0  0  0  0  0  0  0  0  0  0
  -30.5111  -19.6359   22.7942 N   0  0  0  0  0  0  0  0  0  0  0  0
  -29.8033  -22.3567   22.4304 N   0  0  0  0  0  0  0  0  0  0  0  0
  -27.0742  -14.8667   18.9355 N   0  0  0  0  0  0  0  0  0  0  0  0
  -29.0875  -18.1183   18.9868 N   0  0  0  0  0  0  0  0  0  0  0  0
  -22.5683  -28.3334   20.8159 N   0  0  0  0  0  0  0  0  0  0  0  0
  -25.4469  -15.5046   20.5342 N   0  0  0  0  0  0  0  0  0  0  0  0
  -25.6579  -12.0038   21.9809 N   0  0  0  0  0  0  0  0  0  0  0  0
  -23.5660  -31.0828   22.9935 N   0  0  0  0  0  0  0  0  0  0  0  0
  -20.2057  -26.3786   19.3823 N   0  0  0  0  0  0  0  0  0  0  0  0
  -20.8252  -25.4442   15.9456 N   0  3  0  0  0  0  0  0  0  0  0  0
  -24.0637  -12.0213   20.3326 O   0  0  0  0  0  0  0  0  0  0  0  0
  -29.0879  -24.1813   23.6951 O   0  0  0  0  0  0  0  0  0  0  0  0
  -29.5483  -20.3559   19.4123 O   0  0  0  0  0  0  0  0  0  0  0  0
  -23.1074  -28.8163   23.2678 O   0  0  0  0  0  0  0  0  0  0  0  0
  -20.3062  -28.8945   20.7495 O   0  0  0  0  0  0  0  0  0  0  0  0
  -21.8635  -25.0035   18.5232 O   0  0  0  0  0  0  0  0  0  0  0  0
  -29.3446  -23.6545   20.1342 O   0  0  0  0  0  0  0  0  0  0  0  0
  -28.3636   -7.5230   17.5396 O   0  0  0  0  0  0  0  0  0  0  0  0
  -28.3462  -26.2706   20.1728 O   0  0  0  0  0  0  0  0  0  1  0  0
  -24.9157   -3.5013   19.0698 F   0  0  0  0  0  0  0  0  0  0  0  0
  -27.1593   -5.8950   15.6577 F   0  0  0  0  0  0  0  0  0  0  0  0
  1  2  1  0  0  0  0
  1  5  2  0  0  0  0
  2  6  2  0  0  0  0
  3  8  2  0  0  0  0
  3 15  1  0  0  0  0
  4  9  1  0  0  0  0
  4 15  2  0  0  0  0
  5 17  1  0  0  0  0
  6 19  1  0  0  0  0
  7 10  2  0  0  0  0
  7 18  1  0  0  0  0
  8 21  1  0  0  0  0
  9 21  2  0  0  0  0
 10 22  1  0  0  0  0
 11 12  2  0  0  0  0
 11 23  1  0  0  0  0
 12 24  1  0  0  0  0
 13 20  1  0  0  0  0
 13 22  2  0  0  0  0
 14 24  2  0  0  0  0
 14 25  1  0  0  0  0
 15 26  1  0  0  0  0
 16 26  1  0  0  0  0
 16 27  2  0  0  0  0
 16 31  1  0  0  0  0
 17 19  2  0  0  0  0
 17 38  1  0  0  0  0
 18 20  2  0  0  0  0
 18 39  1  0  0  0  0
 19 50  1  0  0  0  0
 20 40  1  0  0  0  0
 21 80  1  0  0  0  0
 22 81  1  0  0  0  0
 23 25  2  0  0  0  0
 23 80  1  0  0  0  0
 24 82  1  0  0  0  0
 25 83  1  0  0  0  0
 26 62  2  0  0  0  0
 27 65  1  0  0  0  0
 27 68  1  0  0  0  0
 28 29  1  0  0  0  0
 28 41  1  0  0  0  0
 28 64  2  0  0  0  0
 29 51  1  0  0  0  0
 29 63  2  0  0  0  0
 30 32  2  0  0  0  0
 30 81  1  0  0  0  0
 31 69  1  0  0  0  0
 31 73  2  0  0  0  0
 32 33  1  0  0  0  0
 32 79  1  0  0  0  0
 33 64  1  0  0  0  0
 33 74  2  0  0  0  0
 34 51  1  0  0  0  0
 34 66  1  0  0  0  0
 34 75  2  0  0  0  0
 35 52  1  0  0  0  0
 35 70  1  0  0  0  0
 35 76  2  0  0  0  0
 36 59  1  0  0  0  0
 36 67  1  0  0  0  0
 36 77  2  0  0  0  0
 37 60  1  0  0  0  0
 37 71  1  0  0  0  0
 37 78  2  0  0  0  0
 38 42  1  0  0  0  0
 39 52  1  0  0  0  0
 40 67  1  0  0  0  0
 41 43  1  0  0  0  0
 42 45  1  0  0  0  0
 43 46  1  0  0  0  0
 44 47  1  0  0  0  0
 44 48  1  0  0  0  0
 45 50  1  0  0  0  0
 46 51  1  0  0  0  0
 47 53  1  0  0  0  0
 48 66  1  0  0  0  0
 49 53  1  0  0  0  0
 49 66  1  0  0  0  0
 50 70  1  0  0  0  0
 52 67  1  0  0  0  0
 53 65  1  0  0  0  0
 54 60  1  0  0  0  0
 55 61  1  0  0  0  0
 56 61  1  0  0  0  0
 57 61  1  0  0  0  0
 58 72  1  0  0  0  0
 59 61  1  0  0  0  0
 59 71  1  0  0  0  0
 60 72  1  0  0  0  0
 62 65  1  0  0  0  0
M  CHG  1  72   1
M  ISO  4  30 101  34 100  51 100  81 101
M  END
> <Batch ID>
0094

> <Smiles>
CNC(C)C(=O)NC(C(=O)N1Cc2cc([101O:1][101CH2:1]C(=O)C(=O)NC3CCC=[100C:0]([100C:0](=O)N4CCCC(n5nc(-c6ccc(Oc7ccc(F)cc7F)cc6)c(C(N)=O)c5N)C4)C3=N)ccc2CC1C(=O)NC1CCCc2ccccc21)C(C)(C)C

> <Shape>
0.250

> <Color>
0.096

> <Negative vol penalty>
0.000

$$$$

  -OEChem-04052300403D

 87 96  0     1  0  0  0  0  0999 V2000
  -27.8959  -38.2569   22.4028 C   0  0  0  0  0  0  0  0  0  0  0  0
  -28.1577  -37.2898   21.4376 C   0  0  0  0  0  0  0  0  0  0  0  0
  -24.6781   -8.5877   21.6494 C   0  0  0  0  0  0  0  0  0  0  0  0
  -22.9886  -10.2419   21.1531 C   0  0  0  0  0  0  0  0  0  0  0  0
  -27.5709  -37.8723   23.7030 C   0  0  0  0  0  0  0  0  0  0  0  0
  -28.0957  -35.9376   21.7722 C   0  0  0  0  0  0  0  0  0  0  0  0
  -26.3944  -29.5662   18.9744 C   0  0  0  0  0  0  0  0  0  0  0  0
  -25.3965  -20.5786   19.6342 C   0  0  0  0  0  0  0  0  0  0  0  0
  -23.7785   -7.9176   22.4784 C   0  0  0  0  0  0  0  0  0  0  0  0
  -22.0889   -9.5718   21.9821 C   0  0  0  0  0  0  0  0  0  0  0  0
  -26.9218  -28.2860   18.8116 C   0  0  0  0  0  0  0  0  0  0  0  0
  -24.5385  -19.4847   19.5215 C   0  0  0  0  0  0  0  0  0  0  0  0
  -21.1675   -5.7987   22.1236 C   0  0  0  0  0  0  0  0  0  0  0  0
  -21.0894   -4.4109   22.0077 C   0  0  0  0  0  0  0  0  0  0  0  0
  -26.2727  -27.7379   21.0693 C   0  0  0  0  0  0  0  0  0  0  0  0
  -27.2062  -19.0969   20.2398 C   0  0  0  0  0  0  0  0  0  0  0  0
  -21.7351   -4.1812   24.3245 C   0  0  0  0  0  0  0  0  0  0  0  0
  -24.2831   -9.7499   20.9867 C   0  0  0  0  0  0  0  0  0  0  0  0
  -25.4148  -10.2368   18.7529 C   0  0  0  0  0  0  0  0  0  0  0  0
  -27.4954  -36.5145   24.0513 C   0  0  0  0  0  0  0  0  0  0  0  0
  -25.8110  -29.9462   20.1916 C   0  0  0  0  0  0  0  0  0  0  0  0
  -27.7707  -35.5345   23.0786 C   0  0  0  0  0  0  0  0  0  0  0  0
  -25.7364  -29.0228   21.2442 C   0  0  0  0  0  0  0  0  0  0  0  0
  -26.7304  -20.3847   19.9933 C   0  0  0  0  0  0  0  0  0  0  0  0
  -26.3481  -18.0029   20.1271 C   0  0  0  0  0  0  0  0  0  0  0  0
  -22.4839   -8.4096   22.6448 C   0  0  0  0  0  0  0  0  0  0  0  0
  -26.8636  -27.3725   19.8600 C   0  0  0  0  0  0  0  0  0  0  0  0
  -25.0143  -18.1969   19.7679 C   0  0  0  0  0  0  0  0  0  0  0  0
  -21.5295   -6.3778   23.3398 C   0  0  0  0  0  0  0  0  0  0  0  0
  -21.3732   -3.6021   23.1082 C   0  0  0  0  0  0  0  0  0  0  0  0
  -21.8132   -5.5691   24.4403 C   0  0  0  0  0  0  0  0  0  0  0  0
  -25.2121  -10.4429   20.1307 C   0  0  0  0  0  0  0  0  0  0  0  0
  -26.3948  -11.1365   18.4116 C   0  0  0  0  0  0  0  0  0  0  0  0
  -27.1336  -22.7728   20.4874 C   0  0  0  0  0  0  0  0  0  0  0  0
  -27.8594  -23.9012   20.4609 C   0  0  0  0  0  0  0  0  0  0  0  0
  -28.9939  -21.3698   19.7975 C   0  0  0  0  0  0  0  0  0  0  0  0
  -24.7743   -9.3145   17.8613 C   0  0  0  0  0  0  0  0  0  0  0  0
  -26.4391  -32.1581   22.3864 C   0  0  0  0  0  0  0  0  0  0  0  0
  -23.6506  -31.1145   23.6738 C   0  0  0  0  0  0  0  0  0  0  0  0
  -21.3679  -28.5971   23.9889 C   0  0  0  0  0  0  0  0  0  0  0  0
  -28.1440  -16.3497   20.7500 C   0  0  0  0  0  0  0  0  0  0  0  0
  -27.1865  -36.1481   25.4814 C   0  0  0  0  0  0  0  0  0  0  0  0
  -25.2227  -31.3223   20.3424 C   0  0  0  0  0  0  0  0  0  0  0  0
  -25.1022  -29.3746   22.5643 C   0  0  0  0  0  0  0  0  0  0  0  0
  -29.2954  -23.8696   20.0424 C   0  0  0  0  0  0  0  0  0  0  0  0
  -29.8889  -22.4948   20.2857 C   0  0  0  0  0  0  0  0  0  0  0  0
  -26.7750  -34.6890   25.6610 C   0  0  0  0  0  0  0  0  0  0  0  0
  -30.1572  -13.4548   20.2566 C   0  0  0  0  0  0  0  0  0  0  0  0
  -27.7262  -33.7689   24.9024 C   0  0  0  0  0  0  0  0  0  0  0  0
  -29.1361  -12.3362   20.0369 C   0  0  0  0  0  0  0  0  0  0  0  0
  -29.6741  -14.4683   21.2924 C   0  0  0  0  0  0  0  0  0  0  0  0
  -27.3216  -13.9135   20.8157 C   0  0  0  0  0  0  0  0  0  0  0  0
  -27.6892  -34.0573   23.3968 C   0  0  1  0  0  0  0  0  0  0  0  0
  -25.1128  -31.7691   21.7969 C   0  0  1  0  0  0  0  0  0  0  0  0
  -27.7355  -12.9034   19.7331 C   0  0  2  0  0  0  0  0  0  0  0  0
  -19.2117  -28.0256   25.1385 C   0  0  0  0  0  0  0  0  0  0  0  0
  -25.1595  -30.7015   26.2934 C   0  0  0  0  0  0  0  0  0  0  0  0
  -23.2574  -29.2785   27.0840 C   0  0  0  0  0  0  0  0  0  0  0  0
  -22.8744  -31.6848   26.5496 C   0  0  0  0  0  0  0  0  0  0  0  0
  -19.9595  -28.2219   21.4132 C   0  0  0  0  0  0  0  0  0  0  0  0
  -24.0662  -16.5215   18.3715 C   0  0  0  0  0  0  0  0  0  0  0  0
  -27.2845  -25.2375   20.8196 C   0  0  0  0  0  0  0  0  0  1  0  0
  -23.2658  -30.0441   24.6663 C   0  0  1  0  0  0  0  0  0  0  0  0
  -19.8537  -28.5911   23.8812 C   0  0  2  0  0  0  0  0  0  0  0  0
  -23.6530  -30.4209   26.1242 C   0  0  0  0  0  0  0  0  0  0  0  0
  -26.0002  -11.3985   20.6305 N   0  0  0  0  0  0  0  0  0  0  0  0
  -26.7076  -11.8008   19.5610 N   0  0  0  0  0  0  0  0  0  0  0  0
  -27.6221  -21.5218   20.1110 N   0  0  0  0  0  0  0  0  0  0  0  0
  -24.5468  -30.7344   22.6648 N   0  0  0  0  0  0  0  0  0  0  0  0
  -28.3432  -14.9654   20.9369 N   0  0  0  0  0  0  0  0  0  0  0  0
  -27.0108  -11.4163   17.2434 N   0  0  0  0  0  0  0  0  0  0  0  0
  -23.7889   -8.4616   18.3769 N   0  0  0  0  0  0  0  0  0  0  0  0
  -26.8455  -16.7009   20.3825 N   0  0  0  0  0  0  0  0  0  0  0  0
  -26.5066  -33.4750   22.7996 N   0  0  0  0  0  0  0  0  0  0  0  0
  -21.8409  -29.7993   24.4708 N   0  0  0  0  0  0  0  0  0  0  0  0
  -19.4203  -27.7642   22.7196 N   0  3  0  0  0  0  0  0  0  0  0  0
  -29.5053  -20.4088   19.2197 O   0  0  0  0  0  0  0  0  0  0  0  0
  -25.0788   -9.2373   16.6469 O   0  0  0  0  0  0  0  0  0  0  0  0
  -27.3343  -31.3247   22.4621 O   0  0  0  0  0  0  0  0  0  0  0  0
  -23.1680  -32.2442   23.7853 O   0  0  0  0  0  0  0  0  0  0  0  0
  -22.0615  -27.6306   23.6802 O   0  0  0  0  0  0  0  0  0  0  0  0
  -29.0646  -17.1609   20.8779 O   0  0  0  0  0  0  0  0  0  0  0  0
  -21.6058   -7.7558   23.4535 O   0  0  0  0  0  0  0  0  0  0  0  0
  -24.1594  -17.1414   19.6521 O   0  0  0  0  0  0  0  0  0  0  0  0
  -27.3782  -26.1224   19.7040 O   0  0  0  0  0  0  0  0  0  1  0  0
  -21.2967   -2.2695   22.9972 F   0  0  0  0  0  0  0  0  0  0  0  0
  -22.1603   -6.1197   25.6117 F   0  0  0  0  0  0  0  0  0  0  0  0
  1  2  1  0  0  0  0
  1  5  2  0  0  0  0
  2  6  2  0  0  0  0
  3  9  2  0  0  0  0
  3 18  1  0  0  0  0
  4 10  1  0  0  0  0
  4 18  2  0  0  0  0
  5 20  1  0  0  0  0
  6 22  1  0  0  0  0
  7 11  2  0  0  0  0
  7 21  1  0  0  0  0
  8 12  2  0  0  0  0
  8 24  1  0  0  0  0
  9 26  1  0  0  0  0
 10 26  2  0  0  0  0
 11 27  1  0  0  0  0
 12 28  1  0  0  0  0
 13 14  2  0  0  0  0
 13 29  1  0  0  0  0
 14 30  1  0  0  0  0
 15 23  1  0  0  0  0
 15 27  2  0  0  0  0
 16 24  2  0  0  0  0
 16 25  1  0  0  0  0
 17 30  2  0  0  0  0
 17 31  1  0  0  0  0
 18 32  1  0  0  0  0
 19 32  1  0  0  0  0
 19 33  2  0  0  0  0
 19 37  1  0  0  0  0
 20 22  2  0  0  0  0
 20 42  1  0  0  0  0
 21 23  2  0  0  0  0
 21 43  1  0  0  0  0
 22 53  1  0  0  0  0
 23 44  1  0  0  0  0
 24 68  1  0  0  0  0
 25 28  2  0  0  0  0
 25 73  1  0  0  0  0
 26 83  1  0  0  0  0
 27 85  1  0  0  0  0
 28 84  1  0  0  0  0
 29 31  2  0  0  0  0
 29 83  1  0  0  0  0
 30 86  1  0  0  0  0
 31 87  1  0  0  0  0
 32 66  2  0  0  0  0
 33 67  1  0  0  0  0
 33 71  1  0  0  0  0
 34 35  2  0  0  0  0
 34 68  1  0  0  0  0
 35 45  1  0  0  0  0
 35 62  1  0  0  0  0
 36 46  1  0  0  0  0
 36 68  1  0  0  0  0
 36 77  2  0  0  0  0
 37 72  1  0  0  0  0
 37 78  2  0  0  0  0
 38 54  1  0  0  0  0
 38 74  1  0  0  0  0
 38 79  2  0  0  0  0
 39 63  1  0  0  0  0
 39 69  1  0  0  0  0
 39 80  2  0  0  0  0
 40 64  1  0  0  0  0
 40 75  1  0  0  0  0
 40 81  2  0  0  0  0
 41 70  1  0  0  0  0
 41 73  1  0  0  0  0
 41 82  2  0  0  0  0
 42 47  1  0  0  0  0
 43 54  1  0  0  0  0
 44 69  1  0  0  0  0
 45 46  1  0  0  0  0
 47 49  1  0  0  0  0
 48 50  1  0  0  0  0
 48 51  1  0  0  0  0
 49 53  1  0  0  0  0
 50 55  1  0  0  0  0
 51 70  1  0  0  0  0
 52 55  1  0  0  0  0
 52 70  1  0  0  0  0
 53 74  1  0  0  0  0
 54 69  1  0  0  0  0
 55 67  1  0  0  0  0
 56 64  1  0  0  0  0
 57 65  1  0  0  0  0
 58 65  1  0  0  0  0
 59 65  1  0  0  0  0
 60 76  1  0  0  0  0
 61 84  1  0  0  0  0
 62 85  1  0  0  0  0
 63 65  1  0  0  0  0
 63 75  1  0  0  0  0
 64 76  1  0  0  0  0
 66 67  1  0  0  0  0
M  CHG  1  76   1
M  ISO  4  41 100  62 101  73 100  85 101
M  END
> <Batch ID>
0094

> <Smiles>
CNC(C)C(=O)NC(C(=O)N1Cc2cc([101O:1][101CH2:1]C3=CN(c4ccc(OC)c([100NH:0][100C:0](=O)N5CCCC(n6nc(-c7ccc(Oc8ccc(F)cc8F)cc7)c(C(N)=O)c6N)C5)c4)C(=O)CC3)ccc2CC1C(=O)NC1CCCc2ccccc21)C(C)(C)C

> <Shape>
0.325

> <Color>
0.111

> <Negative vol penalty>
0.000

$$$$

  -OEChem-04052300403D

 79 87  0     1  0  0  0  0  0999 V2000
  -29.3996  -24.9035   21.4184 C   0  0  0  0  0  0  0  0  0  0  0  0
  -29.4171  -25.9311   22.0394 C   0  0  0  0  0  0  0  0  0  1  0  0
  -18.4389  -25.0072   24.2911 C   0  0  0  0  0  0  0  0  0  0  0  0
  -19.7994  -24.7675   24.1268 C   0  0  0  0  0  0  0  0  0  0  0  0
  -26.7863  -12.4261   21.7378 C   0  0  0  0  0  0  0  0  0  0  0  0
  -26.2440  -13.8527   19.8649 C   0  0  0  0  0  0  0  0  0  0  0  0
  -17.8840  -26.2049   23.8420 C   0  0  0  0  0  0  0  0  0  0  0  0
  -20.6057  -25.7250   23.5124 C   0  0  0  0  0  0  0  0  0  0  0  0
  -26.4451  -27.0157   24.8317 C   0  0  0  0  0  0  0  0  0  0  0  0
  -25.4828  -11.9296   21.7370 C   0  0  0  0  0  0  0  0  0  0  0  0
  -24.9405  -13.3561   19.8640 C   0  0  0  0  0  0  0  0  0  0  0  0
  -27.6478  -26.6262   24.2438 C   0  0  0  0  0  0  0  0  0  0  0  0
  -23.6741   -9.6833   19.9719 C   0  0  0  0  0  0  0  0  0  0  0  0
  -23.5058   -8.3041   20.0948 C   0  0  0  0  0  0  0  0  0  0  0  0
  -29.8715  -22.5006   21.2283 C   0  0  0  0  0  0  0  0  0  0  0  0
  -27.6758  -28.6693   22.9616 C   0  0  0  0  0  0  0  0  0  0  0  0
  -22.2305   -8.6401   22.1191 C   0  0  0  0  0  0  0  0  0  0  0  0
  -28.8675  -23.6303   19.3919 C   0  0  0  0  0  0  0  0  0  0  0  0
  -29.3055  -21.3827   19.2069 C   0  0  0  0  0  0  0  0  0  0  0  0
  -29.3790  -23.6790   20.6787 C   0  0  0  0  0  0  0  0  0  0  0  0
  -27.1668  -13.3878   20.8018 C   0  0  0  0  0  0  0  0  0  0  0  0
  -29.6177  -13.3919   20.0942 C   0  0  0  0  0  0  0  0  0  0  0  0
  -18.6857  -27.1816   23.2304 C   0  0  0  0  0  0  0  0  0  0  0  0
  -25.8422  -28.2321   24.4803 C   0  0  0  0  0  0  0  0  0  0  0  0
  -20.0608  -26.9363   23.0535 C   0  0  0  0  0  0  0  0  0  0  0  0
  -26.4668  -29.0732   23.5484 C   0  0  0  0  0  0  0  0  0  0  0  0
  -29.8378  -21.3261   20.4849 C   0  0  0  0  0  0  0  0  0  0  0  0
  -24.5599  -12.3945   20.8002 C   0  0  0  0  0  0  0  0  0  0  0  0
  -28.2618  -27.4517   23.3064 C   0  0  0  0  0  0  0  0  0  0  0  0
  -23.1207  -10.5409   20.9227 C   0  0  0  0  0  0  0  0  0  0  0  0
  -22.7840   -7.7825   21.1684 C   0  0  0  0  0  0  0  0  0  0  0  0
  -22.3989  -10.0193   21.9963 C   0  0  0  0  0  0  0  0  0  0  0  0
  -28.5130  -13.9015   20.8025 C   0  0  0  0  0  0  0  0  0  0  0  0
  -30.6553  -14.2274   20.4290 C   0  0  0  0  0  0  0  0  0  0  0  0
  -29.6988  -12.2643   19.2124 C   0  0  0  0  0  0  0  0  0  0  0  0
  -23.0810  -29.0630   23.1427 C   0  0  0  0  0  0  0  0  0  0  0  0
  -24.1011  -32.0657   23.8250 C   0  0  0  0  0  0  0  0  0  0  0  0
  -26.7193  -34.1658   24.4423 C   0  0  0  0  0  0  0  0  0  0  0  0
  -30.8913  -19.9045   22.2781 C   0  0  0  0  0  0  0  0  0  0  0  0
  -18.0322  -28.4408   22.7186 C   0  0  0  0  0  0  0  0  0  0  0  0
  -24.5585  -28.6501   25.1434 C   0  0  0  0  0  0  0  0  0  0  0  0
  -25.8708  -30.3984   23.1518 C   0  0  0  0  0  0  0  0  0  0  0  0
  -19.0234  -29.5614   22.4152 C   0  0  0  0  0  0  0  0  0  0  0  0
  -32.1903  -17.0566   23.9749 C   0  0  0  0  0  0  0  0  0  0  0  0
  -20.2079  -29.0249   21.6176 C   0  0  0  0  0  0  0  0  0  0  0  0
  -31.4998  -15.8776   23.2854 C   0  0  0  0  0  0  0  0  0  0  0  0
  -31.2600  -18.2613   24.1054 C   0  0  0  0  0  0  0  0  0  0  0  0
  -29.9387  -17.5181   22.1634 C   0  0  0  0  0  0  0  0  0  0  0  0
  -20.9727  -27.9608   22.4141 C   0  0  1  0  0  0  0  0  0  0  0  0
  -23.7712  -29.6728   24.3298 C   0  0  1  0  0  0  0  0  0  0  0  0
  -30.8566  -16.3032   21.9510 C   0  0  2  0  0  0  0  0  0  0  0  0
  -27.2429  -36.5717   24.9272 C   0  0  0  0  0  0  0  0  0  0  0  0
  -23.6362  -32.7560   20.8895 C   0  0  0  0  0  0  0  0  0  0  0  0
  -25.0361  -34.8050   21.2218 C   0  0  0  0  0  0  0  0  0  0  0  0
  -22.9148  -34.5245   22.5039 C   0  0  0  0  0  0  0  0  0  0  0  0
  -27.9156  -33.4974   27.0655 C   0  0  0  0  0  0  0  0  0  0  0  0
  -24.9209  -33.1066   23.1015 C   0  0  1  0  0  0  0  0  0  0  0  0
  -26.9426  -35.2060   25.5252 C   0  0  2  0  0  0  0  0  0  0  0  0
  -24.1375  -33.7722   21.9350 C   0  0  0  0  0  0  0  0  0  0  0  0
  -28.8179  -22.5085   18.6392 N   0  0  0  0  0  0  0  0  0  0  0  0
  -28.8200  -14.9773   21.5323 N   0  0  0  0  0  0  0  0  0  0  0  0
  -30.1295  -15.1504   21.2844 N   0  0  0  0  0  0  0  0  0  0  0  0
  -24.6115  -30.7599   23.8233 N   0  0  0  0  0  0  0  0  0  0  0  0
  -30.6912  -18.6096   22.8015 N   0  0  0  0  0  0  0  0  0  0  0  0
  -31.9570  -14.2550   20.0723 N   0  0  0  0  0  0  0  0  0  0  0  0
  -28.5382  -11.5144   18.9783 N   0  0  0  0  0  0  0  0  0  0  0  0
  -30.3321  -20.1095   21.0172 N   0  0  0  0  0  0  0  0  0  0  0  0
  -21.8132  -28.5846   23.4135 N   0  0  0  0  0  0  0  0  0  0  0  0
  -25.3843  -34.0421   24.1205 N   0  0  0  0  0  0  0  0  0  0  0  0
  -28.0872  -34.8115   26.3943 N   0  3  0  0  0  0  0  0  0  0  0  0
  -30.7726  -11.9218   18.6617 O   0  0  0  0  0  0  0  0  0  0  0  0
  -23.6555  -29.0303   22.0607 O   0  0  0  0  0  0  0  0  0  0  0  0
  -23.0502  -32.4004   24.3776 O   0  0  0  0  0  0  0  0  0  0  0  0
  -27.6378  -33.5296   23.9303 O   0  0  0  0  0  0  0  0  0  0  0  0
  -31.5363  -20.7595   22.8905 O   0  0  0  0  0  0  0  0  0  0  0  0
  -29.4354  -27.0735   22.7306 O   0  0  0  0  0  0  0  0  0  1  0  0
  -23.2880  -11.9100   20.7989 O   0  0  0  0  0  0  0  0  0  0  0  0
  -22.6211   -6.4581   21.2854 F   0  0  0  0  0  0  0  0  0  0  0  0
  -21.8639  -10.8383   22.9122 F   0  0  0  0  0  0  0  0  0  0  0  0
  1  2  3  0  0  0  0
  1 20  1  0  0  0  0
  2 76  1  0  0  0  0
  3  4  1  0  0  0  0
  3  7  2  0  0  0  0
  4  8  2  0  0  0  0
  5 10  2  0  0  0  0
  5 21  1  0  0  0  0
  6 11  1  0  0  0  0
  6 21  2  0  0  0  0
  7 23  1  0  0  0  0
  8 25  1  0  0  0  0
  9 12  2  0  0  0  0
  9 24  1  0  0  0  0
 10 28  1  0  0  0  0
 11 28  2  0  0  0  0
 12 29  1  0  0  0  0
 13 14  2  0  0  0  0
 13 30  1  0  0  0  0
 14 31  1  0  0  0  0
 15 20  2  0  0  0  0
 15 27  1  0  0  0  0
 16 26  1  0  0  0  0
 16 29  2  0  0  0  0
 17 31  2  0  0  0  0
 17 32  1  0  0  0  0
 18 20  1  0  0  0  0
 18 60  2  0  0  0  0
 19 27  2  0  0  0  0
 19 60  1  0  0  0  0
 21 33  1  0  0  0  0
 22 33  1  0  0  0  0
 22 34  2  0  0  0  0
 22 35  1  0  0  0  0
 23 25  2  0  0  0  0
 23 40  1  0  0  0  0
 24 26  2  0  0  0  0
 24 41  1  0  0  0  0
 25 49  1  0  0  0  0
 26 42  1  0  0  0  0
 27 67  1  0  0  0  0
 28 77  1  0  0  0  0
 29 76  1  0  0  0  0
 30 32  2  0  0  0  0
 30 77  1  0  0  0  0
 31 78  1  0  0  0  0
 32 79  1  0  0  0  0
 33 61  2  0  0  0  0
 34 62  1  0  0  0  0
 34 65  1  0  0  0  0
 35 66  1  0  0  0  0
 35 71  2  0  0  0  0
 36 50  1  0  0  0  0
 36 68  1  0  0  0  0
 36 72  2  0  0  0  0
 37 57  1  0  0  0  0
 37 63  1  0  0  0  0
 37 73  2  0  0  0  0
 38 58  1  0  0  0  0
 38 69  1  0  0  0  0
 38 74  2  0  0  0  0
 39 64  1  0  0  0  0
 39 67  1  0  0  0  0
 39 75  2  0  0  0  0
 40 43  1  0  0  0  0
 41 50  1  0  0  0  0
 42 63  1  0  0  0  0
 43 45  1  0  0  0  0
 44 46  1  0  0  0  0
 44 47  1  0  0  0  0
 45 49  1  0  0  0  0
 46 51  1  0  0  0  0
 47 64  1  0  0  0  0
 48 51  1  0  0  0  0
 48 64  1  0  0  0  0
 49 68  1  0  0  0  0
 50 63  1  0  0  0  0
 51 62  1  0  0  0  0
 52 58  1  0  0  0  0
 53 59  1  0  0  0  0
 54 59  1  0  0  0  0
 55 59  1  0  0  0  0
 56 70  1  0  0  0  0
 57 59  1  0  0  0  0
 57 69  1  0  0  0  0
 58 70  1  0  0  0  0
 61 62  1  0  0  0  0
M  CHG  1  70   1
M  ISO  4   2 101  39 100  67 100  76 101
M  END
> <Batch ID>
0094

> <Smiles>
CNC(C)C(=O)NC(C(=O)N1Cc2cc([101O:1][101C:1]#Cc3cncc([100NH:0][100C:0](=O)N4CCCC(n5nc(-c6ccc(Oc7ccc(F)cc7F)cc6)c(C(N)=O)c5N)C4)c3)ccc2CC1C(=O)NC1CCCc2ccccc21)C(C)(C)C

> <Shape>
0.314

> <Color>
0.115

> <Negative vol penalty>
0.000

$$$$

  -OEChem-04052300403D

 88 97  0     1  0  0  0  0  0999 V2000
  -31.2594  -35.3426   21.0978 C   0  0  0  0  0  0  0  0  0  0  0  0
  -30.9973  -34.0670   20.6082 C   0  0  0  0  0  0  0  0  0  0  0  0
  -25.6168  -13.9828   17.2699 C   0  0  0  0  0  0  0  0  0  0  0  0
  -27.3329  -12.2841   17.3501 C   0  0  0  0  0  0  0  0  0  0  0  0
  -27.4905  -17.9300   19.8932 C   0  0  0  0  0  0  0  0  0  0  0  0
  -29.5620  -19.1324   20.2093 C   0  0  0  0  0  0  0  0  0  0  0  0
  -30.6886  -35.7574   22.3003 C   0  0  0  0  0  0  0  0  0  0  0  0
  -30.1650  -33.2050   21.3215 C   0  0  0  0  0  0  0  0  0  0  0  0
  -26.2811  -29.0782   18.9998 C   0  0  0  0  0  0  0  0  0  0  0  0
  -26.9049  -19.0786   19.3609 C   0  0  0  0  0  0  0  0  0  0  0  0
  -28.9765  -20.2811   19.6769 C   0  0  0  0  0  0  0  0  0  0  0  0
  -25.7037  -14.0048   15.8779 C   0  0  0  0  0  0  0  0  0  0  0  0
  -27.4198  -12.3061   15.9581 C   0  0  0  0  0  0  0  0  0  0  0  0
  -26.3837  -27.7023   18.7998 C   0  0  0  0  0  0  0  0  0  0  0  0
  -28.3492  -12.1721   12.4470 C   0  0  0  0  0  0  0  0  0  0  0  0
  -29.6222  -12.1872   11.8770 C   0  0  0  0  0  0  0  0  0  0  0  0
  -25.2521  -27.3193   20.8955 C   0  0  0  0  0  0  0  0  0  0  0  0
  -25.7578  -22.7359   17.5078 C   0  0  0  0  0  0  0  0  0  0  0  0
  -30.1046  -14.2663   13.0091 C   0  0  0  0  0  0  0  0  0  0  0  0
  -26.4315  -13.1225   18.0060 C   0  0  0  0  0  0  0  0  0  0  0  0
  -28.8190  -17.9569   20.3175 C   0  0  0  0  0  0  0  0  0  0  0  0
  -25.2103  -12.7901   20.2209 C   0  0  0  0  0  0  0  0  0  0  0  0
  -29.8411  -34.9035   23.0238 C   0  0  0  0  0  0  0  0  0  0  0  0
  -25.6720  -29.5859   20.1564 C   0  0  0  0  0  0  0  0  0  0  0  0
  -29.5834  -33.6083   22.5355 C   0  0  0  0  0  0  0  0  0  0  0  0
  -25.1408  -28.7021   21.1066 C   0  0  0  0  0  0  0  0  0  0  0  0
  -26.5967  -23.5403   18.3179 C   0  0  0  0  0  0  0  0  0  0  0  0
  -27.6479  -20.2541   19.2527 C   0  0  0  0  0  0  0  0  0  0  0  0
  -26.6052  -13.1664   15.2220 C   0  0  0  0  0  0  0  0  0  0  0  0
  -25.8717  -26.8226   19.7491 C   0  0  0  0  0  0  0  0  0  0  0  0
  -27.9539  -13.2042   13.2980 C   0  0  0  0  0  0  0  0  0  0  0  0
  -30.4999  -13.2342   12.1581 C   0  0  0  0  0  0  0  0  0  0  0  0
  -28.8315  -14.2513   13.5791 C   0  0  0  0  0  0  0  0  0  0  0  0
  -26.3426  -13.0997   19.4439 C   0  0  0  0  0  0  0  0  0  0  0  0
  -25.6416  -12.9096   21.5194 C   0  0  0  0  0  0  0  0  0  0  0  0
  -26.0663  -21.4204   17.7752 C   0  0  0  0  0  0  0  0  0  0  0  0
  -27.3925  -22.6918   19.0556 C   0  0  0  0  0  0  0  0  0  0  0  0
  -29.4382  -16.7431   20.8798 C   0  0  0  0  0  0  0  0  0  0  0  0
  -23.8868  -12.4268   19.8059 C   0  0  0  0  0  0  0  0  0  0  0  0
  -26.6364  -31.3802   22.5965 C   0  0  0  0  0  0  0  0  0  0  0  0
  -23.4970  -31.2785   23.4063 C   0  0  0  0  0  0  0  0  0  0  0  0
  -20.5022  -29.6555   23.1976 C   0  0  0  0  0  0  0  0  0  0  0  0
  -30.7136  -14.6879   20.4781 C   0  0  0  0  0  0  0  0  0  0  0  0
  -29.2851  -35.3793   24.3426 C   0  0  0  0  0  0  0  0  0  0  0  0
  -25.5455  -31.0728   20.3445 C   0  0  0  0  0  0  0  0  0  0  0  0
  -24.4594  -29.1964   22.3556 C   0  0  0  0  0  0  0  0  0  0  0  0
  -28.1150  -34.5398   24.8487 C   0  0  0  0  0  0  0  0  0  0  0  0
  -29.7688  -11.7992   22.3438 C   0  0  0  0  0  0  0  0  0  0  0  0
  -28.4341  -33.0529   24.7301 C   0  0  0  0  0  0  0  0  0  0  0  0
  -28.5380  -12.2334   23.1345 C   0  0  0  0  0  0  0  0  0  0  0  0
  -30.7742  -12.9367   22.2309 C   0  0  0  0  0  0  0  0  0  0  0  0
  -28.9602  -14.6281   22.3358 C   0  0  0  0  0  0  0  0  0  0  0  0
  -28.6660  -32.6533   23.2679 C   0  0  1  0  0  0  0  0  0  0  0  0
  -25.3634  -31.4771   21.8042 C   0  0  1  0  0  0  0  0  0  0  0  0
  -27.9064  -13.5320   22.6044 C   0  0  1  0  0  0  0  0  0  0  0  0
  -18.1272  -29.7931   23.9961 C   0  0  0  0  0  0  0  0  0  0  0  0
  -24.3678  -30.2907   26.1588 C   0  0  0  0  0  0  0  0  0  0  0  0
  -22.0094  -29.5545   26.5638 C   0  0  0  0  0  0  0  0  0  0  0  0
  -22.5139  -31.9689   26.1911 C   0  0  0  0  0  0  0  0  0  0  0  0
  -30.4657  -16.2920   18.6522 C   0  0  0  0  0  0  0  0  0  0  0  0
  -19.4631  -29.8656   20.4344 C   0  0  0  0  0  0  0  0  0  0  0  0
  -26.6121  -25.0401   18.3596 C   0  0  0  0  0  0  0  0  0  1  0  0
  -22.6380  -30.3618   24.2434 C   0  0  1  0  0  0  0  0  0  0  0  0
  -19.1035  -30.1581   22.8887 C   0  0  2  0  0  0  0  0  0  0  0  0
  -22.8968  -30.5344   25.7668 C   0  0  0  0  0  0  0  0  0  0  0  0
  -27.4129  -13.3940   20.1869 N   0  0  0  0  0  0  0  0  0  0  0  0
  -27.0616  -21.4057   18.7172 N   0  0  0  0  0  0  0  0  0  0  0  0
  -26.9549  -13.2699   21.4442 N   0  0  0  0  0  0  0  0  0  0  0  0
  -24.3660  -30.6589   22.4971 N   0  0  0  0  0  0  0  0  0  0  0  0
  -30.1650  -14.1329   21.6515 N   0  0  0  0  0  0  0  0  0  0  0  0
  -25.0219  -12.7408   22.7067 N   0  0  0  0  0  0  0  0  0  0  0  0
  -23.5958  -11.0694   19.6138 N   0  0  0  0  0  0  0  0  0  0  0  0
  -27.4034  -32.5293   22.5715 N   0  0  0  0  0  0  0  0  0  0  0  0
  -21.2589  -30.6129   23.8394 N   0  0  0  0  0  0  0  0  0  0  0  0
  -30.0880  -15.8566   19.9975 N   0  0  0  0  0  0  0  0  0  0  0  0
  -18.6101  -29.5660   21.6132 N   0  3  0  0  0  0  0  0  0  0  0  0
  -29.3546  -16.5954   22.0987 O   0  0  0  0  0  0  0  0  0  0  0  0
  -22.9935  -13.2820   19.5954 O   0  0  0  0  0  0  0  0  0  0  0  0
  -26.9024  -30.3404   23.1878 O   0  0  0  0  0  0  0  0  0  0  0  0
  -23.3954  -32.4996   23.5487 O   0  0  0  0  0  0  0  0  0  0  0  0
  -20.8841  -28.5251   22.9025 O   0  0  0  0  0  0  0  0  0  0  0  0
  -31.6985  -14.2039   19.9088 O   0  0  0  0  0  0  0  0  0  0  0  0
  -25.5612  -20.2990   17.2752 O   0  0  0  0  0  0  0  0  0  0  0  0
  -28.3369  -22.9532   19.9523 O   0  0  0  0  0  0  0  0  0  0  0  0
  -26.6900  -13.1875   13.8638 O   0  0  0  0  0  0  0  0  0  0  0  0
  -25.9711  -25.4791   19.5566 O   0  0  0  0  0  0  0  0  0  1  0  0
  -31.7228  -13.2478   11.6119 F   0  0  0  0  0  0  0  0  0  0  0  0
  -28.4578  -15.2450   14.3968 F   0  0  0  0  0  0  0  0  0  0  0  0
  1  2  1  0  0  0  0
  1  7  2  0  0  0  0
  2  8  2  0  0  0  0
  3 12  2  0  0  0  0
  3 20  1  0  0  0  0
  4 13  1  0  0  0  0
  4 20  2  0  0  0  0
  5 10  2  0  0  0  0
  5 21  1  0  0  0  0
  6 11  1  0  0  0  0
  6 21  2  0  0  0  0
  7 23  1  0  0  0  0
  8 25  1  0  0  0  0
  9 14  2  0  0  0  0
  9 24  1  0  0  0  0
 10 28  1  0  0  0  0
 11 28  2  0  0  0  0
 12 29  1  0  0  0  0
 13 29  2  0  0  0  0
 14 30  1  0  0  0  0
 15 16  2  0  0  0  0
 15 31  1  0  0  0  0
 16 32  1  0  0  0  0
 17 26  1  0  0  0  0
 17 30  2  0  0  0  0
 18 27  1  0  0  0  0
 18 36  2  0  0  0  0
 19 32  2  0  0  0  0
 19 33  1  0  0  0  0
 20 34  1  0  0  0  0
 21 38  1  0  0  0  0
 22 34  1  0  0  0  0
 22 35  2  0  0  0  0
 22 39  1  0  0  0  0
 23 25  2  0  0  0  0
 23 44  1  0  0  0  0
 24 26  2  0  0  0  0
 24 45  1  0  0  0  0
 25 53  1  0  0  0  0
 26 46  1  0  0  0  0
 27 37  2  0  0  0  0
 27 62  1  0  0  0  0
 28 67  1  0  0  0  0
 29 85  1  0  0  0  0
 30 86  1  0  0  0  0
 31 33  2  0  0  0  0
 31 85  1  0  0  0  0
 32 87  1  0  0  0  0
 33 88  1  0  0  0  0
 34 66  2  0  0  0  0
 35 68  1  0  0  0  0
 35 71  1  0  0  0  0
 36 67  1  0  0  0  0
 36 83  1  0  0  0  0
 37 67  1  0  0  0  0
 37 84  1  0  0  0  0
 38 75  1  0  0  0  0
 38 77  2  0  0  0  0
 39 72  1  0  0  0  0
 39 78  2  0  0  0  0
 40 54  1  0  0  0  0
 40 73  1  0  0  0  0
 40 79  2  0  0  0  0
 41 63  1  0  0  0  0
 41 69  1  0  0  0  0
 41 80  2  0  0  0  0
 42 64  1  0  0  0  0
 42 74  1  0  0  0  0
 42 81  2  0  0  0  0
 43 70  1  0  0  0  0
 43 75  1  0  0  0  0
 43 82  2  0  0  0  0
 44 47  1  0  0  0  0
 45 54  1  0  0  0  0
 46 69  1  0  0  0  0
 47 49  1  0  0  0  0
 48 50  1  0  0  0  0
 48 51  1  0  0  0  0
 49 53  1  0  0  0  0
 50 55  1  0  0  0  0
 51 70  1  0  0  0  0
 52 55  1  0  0  0  0
 52 70  1  0  0  0  0
 53 73  1  0  0  0  0
 54 69  1  0  0  0  0
 55 68  1  0  0  0  0
 56 64  1  0  0  0  0
 57 65  1  0  0  0  0
 58 65  1  0  0  0  0
 59 65  1  0  0  0  0
 60 75  1  0  0  0  0
 61 76  1  0  0  0  0
 62 86  1  0  0  0  0
 63 65  1  0  0  0  0
 63 74  1  0  0  0  0
 64 76  1  0  0  0  0
 66 68  1  0  0  0  0
M  CHG  1  76   1
M  ISO  4  43 100  62 101  75 100  86 101
M  END
> <Batch ID>
0094

> <Smiles>
CNC(C)C(=O)NC(C(=O)N1Cc2cc([101O:1][101CH2:1]C3CC(=O)N(c4ccc(C(=O)[100N:0](C)[100C:0](=O)N5CCCC(n6nc(-c7ccc(Oc8ccc(F)cc8F)cc7)c(C(N)=O)c6N)C5)cc4)C3=O)ccc2CC1C(=O)NC1CCCc2ccccc21)C(C)(C)C

> <Shape>
0.232

> <Color>
0.069

> <Negative vol penalty>
0.000

$$$$

  -OEChem-04052300403D

 88 97  0     1  0  0  0  0  0999 V2000
  -17.3691  -29.8416   24.4641 C   0  0  0  0  0  0  0  0  0  0  0  0
  -17.3605  -28.4591   24.3094 C   0  0  0  0  0  0  0  0  0  0  0  0
  -23.6294  -10.3118   20.0515 C   0  0  0  0  0  0  0  0  0  0  0  0
  -23.7571   -9.8942   22.4277 C   0  0  0  0  0  0  0  0  0  0  0  0
  -18.0431  -30.6410   23.5419 C   0  0  0  0  0  0  0  0  0  0  0  0
  -18.0251  -27.8752   23.2316 C   0  0  0  0  0  0  0  0  0  0  0  0
  -21.6597  -21.9640   21.4526 C   0  0  0  0  0  0  0  0  0  0  0  0
  -26.4585  -14.7022   16.8781 C   0  0  0  0  0  0  0  0  0  0  0  0
  -27.6831  -14.1224   17.2090 C   0  0  0  0  0  0  0  0  0  0  0  0
  -23.1240   -9.0271   19.8528 C   0  0  0  0  0  0  0  0  0  0  0  0
  -23.2516   -8.6094   22.2290 C   0  0  0  0  0  0  0  0  0  0  0  0
  -21.6802  -20.9634   20.4820 C   0  0  0  0  0  0  0  0  0  0  0  0
  -20.1586   -7.4374   20.1883 C   0  0  0  0  0  0  0  0  0  0  0  0
  -19.0636   -7.2963   19.3359 C   0  0  0  0  0  0  0  0  0  0  0  0
  -22.8778  -22.4383   18.9955 C   0  0  0  0  0  0  0  0  0  0  0  0
  -28.1412  -15.9518   18.7192 C   0  0  0  0  0  0  0  0  0  0  0  0
  -20.3625   -5.8434   17.9079 C   0  0  0  0  0  0  0  0  0  0  0  0
  -23.9460  -10.7454   21.3390 C   0  0  0  0  0  0  0  0  0  0  0  0
  -23.7331  -13.2470   21.7910 C   0  0  0  0  0  0  0  0  0  0  0  0
  -18.7245  -30.0659   22.4576 C   0  0  0  0  0  0  0  0  0  0  0  0
  -22.2396  -23.2151   21.1976 C   0  0  0  0  0  0  0  0  0  0  0  0
  -18.7078  -28.6677   22.2932 C   0  0  0  0  0  0  0  0  0  0  0  0
  -22.8656  -23.4522   19.9655 C   0  0  0  0  0  0  0  0  0  0  0  0
  -26.0752  -15.9069   17.4676 C   0  0  0  0  0  0  0  0  0  0  0  0
  -28.5245  -14.7471   18.1296 C   0  0  0  0  0  0  0  0  0  0  0  0
  -22.9350   -8.1758   20.9416 C   0  0  0  0  0  0  0  0  0  0  0  0
  -22.2867  -21.2015   19.2521 C   0  0  0  0  0  0  0  0  0  0  0  0
  -21.3556   -6.7817   19.9004 C   0  0  0  0  0  0  0  0  0  0  0  0
  -19.1655   -6.4993   18.1957 C   0  0  0  0  0  0  0  0  0  0  0  0
  -26.9166  -16.5317   18.3882 C   0  0  0  0  0  0  0  0  0  0  0  0
  -21.4575   -5.9846   18.7603 C   0  0  0  0  0  0  0  0  0  0  0  0
  -24.4687  -12.0722   21.5448 C   0  0  0  0  0  0  0  0  0  0  0  0
  -24.6854  -14.2291   21.9133 C   0  0  0  0  0  0  0  0  0  0  0  0
  -24.1082  -17.2874   18.0468 C   0  0  0  0  0  0  0  0  0  0  0  0
  -23.0129  -18.0046   17.7526 C   0  0  0  0  0  0  0  0  0  0  0  0
  -24.2798  -16.3359   15.8171 C   0  0  0  0  0  0  0  0  0  0  0  0
  -22.3156  -13.4337   21.8995 C   0  0  0  0  0  0  0  0  0  0  0  0
  -21.1569  -26.1996   21.0427 C   0  0  0  0  0  0  0  0  0  0  0  0
  -24.3059  -26.9122   20.7290 C   0  0  0  0  0  0  0  0  0  0  0  0
  -27.4327  -25.8854   19.8259 C   0  0  0  0  0  0  0  0  0  0  0  0
  -30.4038  -14.3014   19.7298 C   0  0  0  0  0  0  0  0  0  0  0  0
  -19.3993  -30.9739   21.4602 C   0  0  0  0  0  0  0  0  0  0  0  0
  -22.2326  -24.2748   22.2650 C   0  0  0  0  0  0  0  0  0  0  0  0
  -23.5203  -24.7713   19.6496 C   0  0  0  0  0  0  0  0  0  0  0  0
  -22.4370  -17.9776   16.3720 C   0  0  0  0  0  0  0  0  0  0  0  0
  -22.8106  -16.6878   15.6662 C   0  0  0  0  0  0  0  0  0  0  0  0
  -20.3937  -30.2519   20.5546 C   0  0  0  0  0  0  0  0  0  0  0  0
  -29.2398  -14.9241   23.1867 C   0  0  0  0  0  0  0  0  0  0  0  0
  -19.7839  -28.9630   20.0127 C   0  0  0  0  0  0  0  0  0  0  0  0
  -27.8522  -14.2856   23.1977 C   0  0  0  0  0  0  0  0  0  0  0  0
  -30.1712  -14.2380   22.1919 C   0  0  0  0  0  0  0  0  0  0  0  0
  -28.2326  -13.5441   20.8130 C   0  0  0  0  0  0  0  0  0  0  0  0
  -19.4380  -27.9953   21.1508 C   0  0  1  0  0  0  0  0  0  0  0  0
  -22.4020  -25.6850   21.7080 C   0  0  1  0  0  0  0  0  0  0  0  0
  -27.2634  -14.2432   21.7779 C   0  0  1  0  0  0  0  0  0  0  0  0
  -31.3263  -14.6449   16.6104 C   0  0  0  0  0  0  0  0  0  0  0  0
  -29.7985  -26.7023   19.6442 C   0  0  0  0  0  0  0  0  0  0  0  0
  -23.5765  -28.4542   18.1991 C   0  0  0  0  0  0  0  0  0  0  0  0
  -25.9990  -28.4267   17.5676 C   0  0  0  0  0  0  0  0  0  0  0  0
  -25.2693  -29.5801   19.6556 C   0  0  0  0  0  0  0  0  0  0  0  0
  -28.4006  -23.8685   21.7636 C   0  0  0  0  0  0  0  0  0  0  0  0
  -22.3252  -18.8751   18.7598 C   0  0  0  0  0  0  0  0  0  1  0  0
  -30.5911  -13.5745   17.3914 C   0  0  0  0  0  0  0  0  0  0  0  0
  -25.2594  -27.0535   19.5672 C   0  0  1  0  0  0  0  0  0  0  0  0
  -28.7740  -26.0060   20.5265 C   0  0  2  0  0  0  0  0  0  0  0  0
  -25.0121  -28.3543   18.7523 C   0  0  0  0  0  0  0  0  0  0  0  0
  -25.7867  -12.2865   21.5122 N   0  0  0  0  0  0  0  0  0  0  0  0
  -25.8867  -13.6073   21.7394 N   0  0  0  0  0  0  0  0  0  0  0  0
  -24.8017  -16.5073   17.1216 N   0  0  0  0  0  0  0  0  0  0  0  0
  -23.4818  -25.7779   20.7233 N   0  0  0  0  0  0  0  0  0  0  0  0
  -29.5727  -14.1514   20.8589 N   0  0  0  0  0  0  0  0  0  0  0  0
  -24.6039  -15.5554   22.1516 N   0  0  0  0  0  0  0  0  0  0  0  0
  -21.4812  -12.3179   21.7475 N   0  0  0  0  0  0  0  0  0  0  0  0
  -20.6317  -27.3337   21.6322 N   0  0  0  0  0  0  0  0  0  0  0  0
  -26.6027  -26.9447   20.1260 N   0  0  0  0  0  0  0  0  0  0  0  0
  -29.7910  -14.1473   18.4717 N   0  0  0  0  0  0  0  0  0  0  0  0
  -29.2975  -24.6560   20.8790 N   0  3  0  0  0  0  0  0  0  0  0  0
  -24.8914  -15.8969   14.8414 O   0  0  0  0  0  0  0  0  0  0  0  0
  -21.8034  -14.5595   22.1084 O   0  0  0  0  0  0  0  0  0  0  0  0
  -20.7069  -25.6122   20.0659 O   0  0  0  0  0  0  0  0  0  0  0  0
  -24.2977  -27.7728   21.6127 O   0  0  0  0  0  0  0  0  0  0  0  0
  -27.1509  -24.9473   19.0836 O   0  0  0  0  0  0  0  0  0  0  0  0
  -31.6199  -14.5034   19.8346 O   0  0  0  0  0  0  0  0  0  0  0  0
  -22.4416   -6.9222   20.7481 O   0  0  0  0  0  0  0  0  0  0  0  0
  -22.3075  -20.2268   18.3027 O   0  0  0  0  0  0  0  0  0  1  0  0
  -18.1134   -6.3626   17.3781 F   0  0  0  0  0  0  0  0  0  0  0  0
  -26.5588  -17.6902   18.9607 F   0  0  0  0  0  0  0  0  0  0  0  0
  -22.6045   -5.3512   18.4791 F   0  0  0  0  0  0  0  0  0  0  0  0
  1  2  1  0  0  0  0
  1  5  2  0  0  0  0
  2  6  2  0  0  0  0
  3 10  2  0  0  0  0
  3 18  1  0  0  0  0
  4 11  1  0  0  0  0
  4 18  2  0  0  0  0
  5 20  1  0  0  0  0
  6 22  1  0  0  0  0
  7 12  2  0  0  0  0
  7 21  1  0  0  0  0
  8  9  2  0  0  0  0
  8 24  1  0  0  0  0
  9 25  1  0  0  0  0
 10 26  1  0  0  0  0
 11 26  2  0  0  0  0
 12 27  1  0  0  0  0
 13 14  2  0  0  0  0
 13 28  1  0  0  0  0
 14 29  1  0  0  0  0
 15 23  1  0  0  0  0
 15 27  2  0  0  0  0
 16 25  2  0  0  0  0
 16 30  1  0  0  0  0
 17 29  2  0  0  0  0
 17 31  1  0  0  0  0
 18 32  1  0  0  0  0
 19 32  1  0  0  0  0
 19 33  2  0  0  0  0
 19 37  1  0  0  0  0
 20 22  2  0  0  0  0
 20 42  1  0  0  0  0
 21 23  2  0  0  0  0
 21 43  1  0  0  0  0
 22 53  1  0  0  0  0
 23 44  1  0  0  0  0
 24 30  2  0  0  0  0
 24 69  1  0  0  0  0
 25 76  1  0  0  0  0
 26 84  1  0  0  0  0
 27 85  1  0  0  0  0
 28 31  2  0  0  0  0
 28 84  1  0  0  0  0
 29 86  1  0  0  0  0
 30 87  1  0  0  0  0
 31 88  1  0  0  0  0
 32 67  2  0  0  0  0
 33 68  1  0  0  0  0
 33 72  1  0  0  0  0
 34 35  2  0  0  0  0
 34 69  1  0  0  0  0
 35 45  1  0  0  0  0
 35 62  1  0  0  0  0
 36 46  1  0  0  0  0
 36 69  1  0  0  0  0
 36 78  2  0  0  0  0
 37 73  1  0  0  0  0
 37 79  2  0  0  0  0
 38 54  1  0  0  0  0
 38 74  1  0  0  0  0
 38 80  2  0  0  0  0
 39 64  1  0  0  0  0
 39 70  1  0  0  0  0
 39 81  2  0  0  0  0
 40 65  1  0  0  0  0
 40 75  1  0  0  0  0
 40 82  2  0  0  0  0
 41 71  1  0  0  0  0
 41 76  1  0  0  0  0
 41 83  2  0  0  0  0
 42 47  1  0  0  0  0
 43 54  1  0  0  0  0
 44 70  1  0  0  0  0
 45 46  1  0  0  0  0
 47 49  1  0  0  0  0
 48 50  1  0  0  0  0
 48 51  1  0  0  0  0
 49 53  1  0  0  0  0
 50 55  1  0  0  0  0
 51 71  1  0  0  0  0
 52 55  1  0  0  0  0
 52 71  1  0  0  0  0
 53 74  1  0  0  0  0
 54 70  1  0  0  0  0
 55 68  1  0  0  0  0
 56 63  1  0  0  0  0
 57 65  1  0  0  0  0
 58 66  1  0  0  0  0
 59 66  1  0  0  0  0
 60 66  1  0  0  0  0
 61 77  1  0  0  0  0
 62 85  1  0  0  0  0
 63 76  1  0  0  0  0
 64 66  1  0  0  0  0
 64 75  1  0  0  0  0
 65 77  1  0  0  0  0
 67 68  1  0  0  0  0
M  CHG  1  77   1
M  ISO  4  41 100  62 101  76 100  85 101
M  END
> <Batch ID>
0094

> <Smiles>
CC[100N:0](c1ccc(N2C=C([101CH2:1][101O:1]c3ccc4c(c3)CN(C(=O)C(NC(=O)C(C)NC)C(C)(C)C)C(C(=O)NC3CCCc5ccccc53)C4)CCC2=O)c(F)c1)[100C:0](=O)N1CCCC(n2nc(-c3ccc(Oc4ccc(F)cc4F)cc3)c(C(N)=O)c2N)C1

> <Shape>
0.201

> <Color>
0.084

> <Negative vol penalty>
0.000

$$$$

  -OEChem-04052300403D

 87 96  0     1  0  0  0  0  0999 V2000
  -23.1611  -35.6172   21.9672 C   0  0  0  0  0  0  0  0  0  0  0  0
  -24.1900  -34.7976   22.4201 C   0  0  0  0  0  0  0  0  0  0  0  0
  -23.1413  -10.2322   21.9957 C   0  0  0  0  0  0  0  0  0  0  0  0
  -24.6572  -10.9179   23.7474 C   0  0  0  0  0  0  0  0  0  0  0  0
  -21.8582  -35.1257   21.8997 C   0  0  0  0  0  0  0  0  0  0  0  0
  -23.9162  -33.4861   22.8068 C   0  0  0  0  0  0  0  0  0  0  0  0
  -27.1644  -27.9173   19.5931 C   0  0  0  0  0  0  0  0  0  0  0  0
  -32.5494  -17.3620   21.3007 C   0  0  0  0  0  0  0  0  0  0  0  0
  -32.4520  -18.6777   20.8479 C   0  0  0  0  0  0  0  0  0  0  0  0
  -22.5709   -9.2944   22.8564 C   0  0  0  0  0  0  0  0  0  0  0  0
  -24.0868   -9.9802   24.6082 C   0  0  0  0  0  0  0  0  0  0  0  0
  -27.9004  -26.8097   19.1715 C   0  0  0  0  0  0  0  0  0  0  0  0
  -23.3177   -6.2146   24.0316 C   0  0  0  0  0  0  0  0  0  0  0  0
  -23.0846   -4.9338   23.5308 C   0  0  0  0  0  0  0  0  0  0  0  0
  -26.5473  -25.3673   20.5630 C   0  0  0  0  0  0  0  0  0  0  0  0
  -30.4099  -18.9601   22.1078 C   0  0  0  0  0  0  0  0  0  0  0  0
  -20.7243   -5.1878   23.9798 C   0  0  0  0  0  0  0  0  0  0  0  0
  -24.1845  -11.0439   22.4412 C   0  0  0  0  0  0  0  0  0  0  0  0
  -24.1269  -13.0893   20.9177 C   0  0  0  0  0  0  0  0  0  0  0  0
  -21.5699  -33.8045   22.2767 C   0  0  0  0  0  0  0  0  0  0  0  0
  -26.1058  -27.7517   20.4905 C   0  0  0  0  0  0  0  0  0  0  0  0
  -22.6079  -32.9769   22.7456 C   0  0  0  0  0  0  0  0  0  0  0  0
  -25.7984  -26.4713   20.9793 C   0  0  0  0  0  0  0  0  0  0  0  0
  -31.5770  -16.8452   22.1569 C   0  0  0  0  0  0  0  0  0  0  0  0
  -31.3823  -19.4767   21.2515 C   0  0  0  0  0  0  0  0  0  0  0  0
  -23.0436   -9.1684   24.1626 C   0  0  0  0  0  0  0  0  0  0  0  0
  -27.5928  -25.5380   19.6555 C   0  0  0  0  0  0  0  0  0  0  0  0
  -22.2541   -6.9820   24.5066 C   0  0  0  0  0  0  0  0  0  0  0  0
  -21.7880   -4.4204   23.5048 C   0  0  0  0  0  0  0  0  0  0  0  0
  -30.5073  -17.6443   22.5605 C   0  0  0  0  0  0  0  0  0  0  0  0
  -20.9574   -6.4686   24.4807 C   0  0  0  0  0  0  0  0  0  0  0  0
  -24.7745  -12.0124   21.5523 C   0  0  0  0  0  0  0  0  0  0  0  0
  -25.1157  -13.7028   20.1881 C   0  0  0  0  0  0  0  0  0  0  0  0
  -32.4337  -21.5846   20.4759 C   0  0  0  0  0  0  0  0  0  0  0  0
  -22.7543  -13.4985   20.9821 C   0  0  0  0  0  0  0  0  0  0  0  0
  -23.3465  -29.3683   22.4523 C   0  0  0  0  0  0  0  0  0  0  0  0
  -22.2346  -26.7251   21.3625 C   0  0  0  0  0  0  0  0  0  0  0  0
  -20.2693  -24.2078   20.1635 C   0  0  0  0  0  0  0  0  0  0  0  0
  -31.0707  -13.9267   20.7707 C   0  0  0  0  0  0  0  0  0  0  0  0
  -20.1381  -33.3326   22.2312 C   0  0  0  0  0  0  0  0  0  0  0  0
  -25.3253  -28.9244   21.0191 C   0  0  0  0  0  0  0  0  0  0  0  0
  -24.6734  -26.3456   21.9699 C   0  0  0  0  0  0  0  0  0  0  0  0
  -32.2218  -22.8725   19.7026 C   0  0  0  0  0  0  0  0  0  0  0  0
  -19.9945  -31.8146   22.3050 C   0  0  0  0  0  0  0  0  0  0  0  0
  -30.9470  -23.6083   20.0524 C   0  0  0  0  0  0  0  0  0  0  0  0
  -29.2380  -12.7734   17.9445 C   0  0  0  0  0  0  0  0  0  0  0  0
  -20.8731  -31.2487   23.4161 C   0  0  0  0  0  0  0  0  0  0  0  0
  -27.8278  -12.5447   18.4914 C   0  0  0  0  0  0  0  0  0  0  0  0
  -30.3077  -12.4057   18.9704 C   0  0  0  0  0  0  0  0  0  0  0  0
  -29.9515  -21.4779   20.8357 C   0  0  0  0  0  0  0  0  0  0  0  0
  -28.7478  -12.8325   20.8301 C   0  0  0  0  0  0  0  0  0  0  0  0
  -22.3549  -31.5409   23.1506 C   0  0  1  0  0  0  0  0  0  0  0  0
  -23.8400  -28.6011   21.2610 C   0  0  1  0  0  0  0  0  0  0  0  0
  -29.7710  -22.6603   19.8849 C   0  0  1  0  0  0  0  0  0  0  0  0
  -27.6339  -13.2420   19.8513 C   0  0  2  0  0  0  0  0  0  0  0  0
  -18.2072  -22.8870   20.7122 C   0  0  0  0  0  0  0  0  0  0  0  0
  -23.8078  -25.1385   23.4389 C   0  0  0  0  0  0  0  0  0  0  0  0
  -22.0952  -23.3225   23.2451 C   0  0  0  0  0  0  0  0  0  0  0  0
  -21.4250  -25.5855   24.0529 C   0  0  0  0  0  0  0  0  0  0  0  0
  -18.8899  -25.1226   17.7101 C   0  0  0  0  0  0  0  0  0  0  0  0
  -31.6860  -15.4383   22.6403 C   0  0  0  0  0  0  0  0  0  0  0  0
  -28.4481  -23.3749   20.1526 C   0  0  0  0  0  0  0  0  0  1  0  0
  -21.9892  -25.2582   21.6102 C   0  0  1  0  0  0  0  0  0  0  0  0
  -18.7654  -24.1010   19.9860 C   0  0  2  0  0  0  0  0  0  0  0  0
  -22.3435  -24.8352   23.0638 C   0  0  0  0  0  0  0  0  0  0  0  0
  -26.0742  -11.9429   21.2520 N   0  0  0  0  0  0  0  0  0  0  0  0
  -26.2512  -12.9839   20.4206 N   0  0  0  0  0  0  0  0  0  0  0  0
  -31.2802  -20.8414   20.7800 N   0  0  0  0  0  0  0  0  0  0  0  0
  -23.5417  -27.1890   21.5546 N   0  0  0  0  0  0  0  0  0  0  0  0
  -30.0671  -13.1016   20.2369 N   0  0  0  0  0  0  0  0  0  0  0  0
  -25.1159  -14.7816   19.3765 N   0  0  0  0  0  0  0  0  0  0  0  0
  -21.8726  -12.7564   21.7797 N   0  0  0  0  0  0  0  0  0  0  0  0
  -22.8780  -30.6332   22.1522 N   0  0  0  0  0  0  0  0  0  0  0  0
  -20.6014  -25.0077   21.2364 N   0  0  0  0  0  0  0  0  0  0  0  0
  -30.7586  -14.5538   21.9708 N   0  0  0  0  0  0  0  0  0  0  0  0
  -18.4215  -23.9834   18.5407 N   0  3  0  0  0  0  0  0  0  0  0  0
  -33.5924  -21.2467   20.7327 O   0  0  0  0  0  0  0  0  0  0  0  0
  -22.3190  -14.4831   20.3382 O   0  0  0  0  0  0  0  0  0  0  0  0
  -23.3858  -28.8513   23.5626 O   0  0  0  0  0  0  0  0  0  0  0  0
  -21.2936  -27.4436   21.0138 O   0  0  0  0  0  0  0  0  0  0  0  0
  -21.0693  -23.6355   19.4266 O   0  0  0  0  0  0  0  0  0  0  0  0
  -32.1618  -14.0964   20.2162 O   0  0  0  0  0  0  0  0  0  0  0  0
  -22.4870   -8.2537   25.0028 O   0  0  0  0  0  0  0  0  0  0  0  0
  -28.3125  -24.4605   19.2363 O   0  0  0  0  0  0  0  0  0  1  0  0
  -21.5641   -3.1910   23.0224 F   0  0  0  0  0  0  0  0  0  0  0  0
  -29.5682  -17.1568   23.3831 F   0  0  0  0  0  0  0  0  0  0  0  0
  -19.9315   -7.2015   24.9345 F   0  0  0  0  0  0  0  0  0  0  0  0
  1  2  1  0  0  0  0
  1  5  2  0  0  0  0
  2  6  2  0  0  0  0
  3 10  2  0  0  0  0
  3 18  1  0  0  0  0
  4 11  1  0  0  0  0
  4 18  2  0  0  0  0
  5 20  1  0  0  0  0
  6 22  1  0  0  0  0
  7 12  2  0  0  0  0
  7 21  1  0  0  0  0
  8  9  2  0  0  0  0
  8 24  1  0  0  0  0
  9 25  1  0  0  0  0
 10 26  1  0  0  0  0
 11 26  2  0  0  0  0
 12 27  1  0  0  0  0
 13 14  2  0  0  0  0
 13 28  1  0  0  0  0
 14 29  1  0  0  0  0
 15 23  1  0  0  0  0
 15 27  2  0  0  0  0
 16 25  2  0  0  0  0
 16 30  1  0  0  0  0
 17 29  2  0  0  0  0
 17 31  1  0  0  0  0
 18 32  1  0  0  0  0
 19 32  1  0  0  0  0
 19 33  2  0  0  0  0
 19 35  1  0  0  0  0
 20 22  2  0  0  0  0
 20 40  1  0  0  0  0
 21 23  2  0  0  0  0
 21 41  1  0  0  0  0
 22 52  1  0  0  0  0
 23 42  1  0  0  0  0
 24 30  2  0  0  0  0
 24 61  1  0  0  0  0
 25 68  1  0  0  0  0
 26 83  1  0  0  0  0
 27 84  1  0  0  0  0
 28 31  2  0  0  0  0
 28 83  1  0  0  0  0
 29 85  1  0  0  0  0
 30 86  1  0  0  0  0
 31 87  1  0  0  0  0
 32 66  2  0  0  0  0
 33 67  1  0  0  0  0
 33 71  1  0  0  0  0
 34 43  1  0  0  0  0
 34 68  1  0  0  0  0
 34 77  2  0  0  0  0
 35 72  1  0  0  0  0
 35 78  2  0  0  0  0
 36 53  1  0  0  0  0
 36 73  1  0  0  0  0
 36 79  2  0  0  0  0
 37 63  1  0  0  0  0
 37 69  1  0  0  0  0
 37 80  2  0  0  0  0
 38 64  1  0  0  0  0
 38 74  1  0  0  0  0
 38 81  2  0  0  0  0
 39 70  1  0  0  0  0
 39 75  1  0  0  0  0
 39 82  2  0  0  0  0
 40 44  1  0  0  0  0
 41 53  1  0  0  0  0
 42 69  1  0  0  0  0
 43 45  1  0  0  0  0
 44 47  1  0  0  0  0
 45 54  1  0  0  0  0
 46 48  1  0  0  0  0
 46 49  1  0  0  0  0
 47 52  1  0  0  0  0
 48 55  1  0  0  0  0
 49 70  1  0  0  0  0
 50 54  1  0  0  0  0
 50 68  1  0  0  0  0
 51 55  1  0  0  0  0
 51 70  1  0  0  0  0
 52 73  1  0  0  0  0
 53 69  1  0  0  0  0
 54 62  1  0  0  0  0
 55 67  1  0  0  0  0
 56 64  1  0  0  0  0
 57 65  1  0  0  0  0
 58 65  1  0  0  0  0
 59 65  1  0  0  0  0
 60 76  1  0  0  0  0
 61 75  1  0  0  0  0
 62 84  1  0  0  0  0
 63 65  1  0  0  0  0
 63 74  1  0  0  0  0
 64 76  1  0  0  0  0
 66 67  1  0  0  0  0
M  CHG  1  76   1
M  ISO  4  39 100  62 101  75 100  84 101
M  END
> <Batch ID>
0094

> <Smiles>
CNC(C)C(=O)NC(C(=O)N1Cc2cc([101O:1][101CH2:1]C3CCC(=O)N(c4ccc(C[100NH:0][100C:0](=O)N5CCCC(n6nc(-c7ccc(Oc8ccc(F)cc8F)cc7)c(C(N)=O)c6N)C5)c(F)c4)C3)ccc2CC1C(=O)NC1CCCc2ccccc21)C(C)(C)C

> <Shape>
0.263

> <Color>
0.146

> <Negative vol penalty>
0.000

$$$$

  -OEChem-04052300403D

 84 93  0     1  0  0  0  0  0999 V2000
  -18.1629  -28.9643   26.2539 C   0  0  0  0  0  0  0  0  0  0  0  0
  -19.4986  -28.5822   26.3271 C   0  0  0  0  0  0  0  0  0  0  0  0
  -23.5865  -10.1072   18.6672 C   0  0  0  0  0  0  0  0  0  0  0  0
  -25.3842  -11.1742   17.4561 C   0  0  0  0  0  0  0  0  0  0  0  0
  -17.5372  -29.0732   25.0128 C   0  0  0  0  0  0  0  0  0  0  0  0
  -20.2091  -28.3077   25.1590 C   0  0  0  0  0  0  0  0  0  0  0  0
  -26.7985  -28.7852   22.3900 C   0  0  0  0  0  0  0  0  0  0  0  0
  -23.2444   -9.3856   17.5237 C   0  0  0  0  0  0  0  0  0  0  0  0
  -25.0421  -10.4525   16.3125 C   0  0  0  0  0  0  0  0  0  0  0  0
  -27.7572  -28.0011   21.7499 C   0  0  0  0  0  0  0  0  0  0  0  0
  -21.5731   -9.9371   14.6380 C   0  0  0  0  0  0  0  0  0  0  0  0
  -20.2214   -9.8576   14.3030 C   0  0  0  0  0  0  0  0  0  0  0  0
  -26.5951  -28.2993   19.6572 C   0  0  0  0  0  0  0  0  0  0  0  0
  -20.3176   -7.4505   14.4862 C   0  0  0  0  0  0  0  0  0  0  0  0
  -30.0994  -21.3296   19.2852 C   0  0  0  0  0  0  0  0  0  0  0  0
  -24.6564  -11.0016   18.6335 C   0  0  0  0  0  0  0  0  0  0  0  0
  -25.4049  -11.2282   21.0616 C   0  0  0  0  0  0  0  0  0  0  0  0
  -18.2430  -28.8093   23.8284 C   0  0  0  0  0  0  0  0  0  0  0  0
  -25.7231  -29.3242   21.6694 C   0  0  0  0  0  0  0  0  0  0  0  0
  -19.5918  -28.4119   23.9009 C   0  0  0  0  0  0  0  0  0  0  0  0
  -25.6254  -29.0920   20.2900 C   0  0  0  0  0  0  0  0  0  0  0  0
  -28.2309  -21.5418   20.6512 C   0  0  0  0  0  0  0  0  0  0  0  0
  -29.3709  -22.1822   20.0851 C   0  0  0  0  0  0  0  0  0  0  0  0
  -23.9722   -9.5582   16.3463 C   0  0  0  0  0  0  0  0  0  0  0  0
  -27.6540  -27.7556   20.3838 C   0  0  0  0  0  0  0  0  0  0  0  0
  -22.2971   -8.7733   14.8971 C   0  0  0  0  0  0  0  0  0  0  0  0
  -19.5937   -8.6143   14.2271 C   0  0  0  0  0  0  0  0  0  0  0  0
  -21.6693   -7.5300   14.8212 C   0  0  0  0  0  0  0  0  0  0  0  0
  -25.0099  -11.7477   19.8143 C   0  0  0  0  0  0  0  0  0  0  0  0
  -25.6281  -12.3373   21.8404 C   0  0  0  0  0  0  0  0  0  0  0  0
  -28.1314  -20.2239   20.2622 C   0  0  0  0  0  0  0  0  0  0  0  0
  -28.8823  -24.6104   19.9383 C   0  0  0  0  0  0  0  0  0  0  0  0
  -25.5566   -9.8649   21.4790 C   0  0  0  0  0  0  0  0  0  0  0  0
  -22.5622  -29.0091   21.7860 C   0  0  0  0  0  0  0  0  0  0  0  0
  -22.6359  -31.3609   19.5531 C   0  0  0  0  0  0  0  0  0  0  0  0
  -24.3805  -32.9807   17.1078 C   0  0  0  0  0  0  0  0  0  0  0  0
  -27.1447  -17.9012   20.1375 C   0  0  0  0  0  0  0  0  0  0  0  0
  -17.5108  -28.8946   22.5126 C   0  0  0  0  0  0  0  0  0  0  0  0
  -24.7119  -30.1900   22.3695 C   0  0  0  0  0  0  0  0  0  0  0  0
  -24.5012  -29.6643   19.4671 C   0  0  0  0  0  0  0  0  0  0  0  0
  -18.4387  -28.9494   21.3017 C   0  0  0  0  0  0  0  0  0  0  0  0
  -31.3823  -25.1720   21.3615 C   0  0  0  0  0  0  0  0  0  0  0  0
  -23.7890  -16.8087   21.6441 C   0  0  0  0  0  0  0  0  0  0  0  0
  -19.5301  -27.8901   21.4170 C   0  0  0  0  0  0  0  0  0  0  0  0
  -30.7007  -26.2652   20.5707 C   0  0  0  0  0  0  0  0  0  0  0  0
  -24.1515  -15.3869   22.0663 C   0  0  0  0  0  0  0  0  0  0  0  0
  -31.1464  -23.8275   20.6919 C   0  0  0  0  0  0  0  0  0  0  0  0
  -25.0144  -17.7059   21.5247 C   0  0  0  0  0  0  0  0  0  0  0  0
  -25.8952  -15.7527   20.2343 C   0  0  0  0  0  0  0  0  0  0  0  0
  -20.4029  -28.1297   22.6549 C   0  0  1  0  0  0  0  0  0  0  0  0
  -29.2156  -25.9775   20.5265 C   0  0  1  0  0  0  0  0  0  1  0  0
  -23.3767  -30.2627   21.6350 C   0  0  1  0  0  0  0  0  0  0  0  0
  -25.4557  -14.8794   21.4198 C   0  0  2  0  0  0  0  0  0  0  0  0
  -27.2619  -22.2132   21.5538 C   0  0  0  0  0  0  0  0  0  0  0  0
  -24.1638  -34.8378   15.4341 C   0  0  0  0  0  0  0  0  0  0  0  0
  -20.9200  -29.5625   17.7835 C   0  0  0  0  0  0  0  0  0  0  0  0
  -21.5282  -31.0151   15.8371 C   0  0  0  0  0  0  0  0  0  0  0  0
  -20.2667  -31.9765   17.7625 C   0  0  0  0  0  0  0  0  0  0  0  0
  -26.6051  -34.5005   18.3327 C   0  0  0  0  0  0  0  0  0  0  0  0
  -22.7124  -31.4021   18.0460 C   0  0  1  0  0  0  0  0  0  0  0  0
  -24.6032  -34.4582   16.8396 C   0  0  2  0  0  0  0  0  0  0  0  0
  -21.3771  -30.9765   17.3729 C   0  0  0  0  0  0  0  0  0  0  0  0
  -24.9826  -13.0830   19.7971 N   0  0  0  0  0  0  0  0  0  0  0  0
  -25.3632  -13.4119   21.0434 N   0  0  0  0  0  0  0  0  0  0  0  0
  -29.7500  -23.5621   20.3011 N   0  0  0  0  0  0  0  0  0  0  0  0
  -23.5341  -30.4993   20.1985 N   0  0  0  0  0  0  0  0  0  0  0  0
  -26.0486  -17.1557   20.6364 N   0  0  0  0  0  0  0  0  0  0  0  0
  -26.0230  -12.4885   23.1225 N   0  0  0  0  0  0  0  0  0  0  0  0
  -26.8040   -9.2490   21.3089 N   0  0  0  0  0  0  0  0  0  0  0  0
  -27.1745  -19.2271   20.5776 N   0  0  0  0  0  0  0  0  0  0  0  0
  -21.3443  -29.2013   22.4098 N   0  0  0  0  0  0  0  0  0  0  0  0
  -23.1556  -32.7474   17.6964 N   0  0  0  0  0  0  0  0  0  0  0  0
  -26.0460  -34.8001   16.9893 N   0  3  0  0  0  0  0  0  0  0  0  0
  -27.8759  -24.4884   19.2351 O   0  0  0  0  0  0  0  0  0  0  0  0
  -24.6093   -9.2072   21.9725 O   0  0  0  0  0  0  0  0  0  0  0  0
  -23.0053  -27.9465   21.3663 O   0  0  0  0  0  0  0  0  0  0  0  0
  -21.8144  -32.0725   20.1366 O   0  0  0  0  0  0  0  0  0  0  0  0
  -25.2087  -32.1193   16.8203 O   0  0  0  0  0  0  0  0  0  0  0  0
  -27.9878  -17.3948   19.3941 O   0  0  0  0  0  0  0  0  0  0  0  0
  -23.6388   -8.8540   15.2303 O   0  0  0  0  0  0  0  0  0  0  0  0
  -28.5881  -26.9901   19.7567 O   0  0  0  0  0  0  0  0  0  1  0  0
  -18.2953   -8.5382   13.9069 F   0  0  0  0  0  0  0  0  0  0  0  0
  -22.3594   -6.4086   15.0701 F   0  0  0  0  0  0  0  0  0  0  0  0
  -29.4090  -19.7639   19.2189 S   0  0  0  0  0  0  0  0  0  0  0  0
  1  2  1  0  0  0  0
  1  5  2  0  0  0  0
  2  6  2  0  0  0  0
  3  8  2  0  0  0  0
  3 16  1  0  0  0  0
  4  9  1  0  0  0  0
  4 16  2  0  0  0  0
  5 18  1  0  0  0  0
  6 20  1  0  0  0  0
  7 10  2  0  0  0  0
  7 19  1  0  0  0  0
  8 24  1  0  0  0  0
  9 24  2  0  0  0  0
 10 25  1  0  0  0  0
 11 12  2  0  0  0  0
 11 26  1  0  0  0  0
 12 27  1  0  0  0  0
 13 21  1  0  0  0  0
 13 25  2  0  0  0  0
 14 27  2  0  0  0  0
 14 28  1  0  0  0  0
 15 23  2  0  0  0  0
 15 84  1  0  0  0  0
 16 29  1  0  0  0  0
 17 29  1  0  0  0  0
 17 30  2  0  0  0  0
 17 33  1  0  0  0  0
 18 20  2  0  0  0  0
 18 38  1  0  0  0  0
 19 21  2  0  0  0  0
 19 39  1  0  0  0  0
 20 50  1  0  0  0  0
 21 40  1  0  0  0  0
 22 23  1  0  0  0  0
 22 31  2  0  0  0  0
 22 54  1  0  0  0  0
 23 65  1  0  0  0  0
 24 80  1  0  0  0  0
 25 81  1  0  0  0  0
 26 28  2  0  0  0  0
 26 80  1  0  0  0  0
 27 82  1  0  0  0  0
 28 83  1  0  0  0  0
 29 63  2  0  0  0  0
 30 64  1  0  0  0  0
 30 68  1  0  0  0  0
 31 70  1  0  0  0  0
 31 84  1  0  0  0  0
 32 51  1  0  0  0  0
 32 65  1  0  0  0  0
 32 74  2  0  0  0  0
 33 69  1  0  0  0  0
 33 75  2  0  0  0  0
 34 52  1  0  0  0  0
 34 71  1  0  0  0  0
 34 76  2  0  0  0  0
 35 60  1  0  0  0  0
 35 66  1  0  0  0  0
 35 77  2  0  0  0  0
 36 61  1  0  0  0  0
 36 72  1  0  0  0  0
 36 78  2  0  0  0  0
 37 67  1  0  0  0  0
 37 70  1  0  0  0  0
 37 79  2  0  0  0  0
 38 41  1  0  0  0  0
 39 52  1  0  0  0  0
 40 66  1  0  0  0  0
 41 44  1  0  0  0  0
 42 45  1  0  0  0  0
 42 47  1  0  0  0  0
 43 46  1  0  0  0  0
 43 48  1  0  0  0  0
 44 50  1  0  0  0  0
 45 51  1  0  0  0  0
 46 53  1  0  0  0  0
 47 65  1  0  0  0  0
 48 67  1  0  0  0  0
 49 53  1  0  0  0  0
 49 67  1  0  0  0  0
 50 71  1  0  0  0  0
 51 81  1  0  0  0  0
 52 66  1  0  0  0  0
 53 64  1  0  0  0  0
 55 61  1  0  0  0  0
 56 62  1  0  0  0  0
 57 62  1  0  0  0  0
 58 62  1  0  0  0  0
 59 73  1  0  0  0  0
 60 62  1  0  0  0  0
 60 72  1  0  0  0  0
 61 73  1  0  0  0  0
 63 64  1  0  0  0  0
M  CHG  1  73   1
M  ISO  4  37 100  51 101  70 100  81 101
M  END
> <Batch ID>
0094

> <Smiles>
CNC(C)C(=O)NC(C(=O)N1Cc2cc([101O:1][101CH:1]3CCCN(c4csc([100NH:0][100C:0](=O)N5CCCC(n6nc(-c7ccc(Oc8ccc(F)cc8F)cc7)c(C(N)=O)c6N)C5)c4C)C3=O)ccc2CC1C(=O)NC1CCCc2ccccc21)C(C)(C)C

> <Shape>
0.220

> <Color>
0.087

> <Negative vol penalty>
0.000

$$$$

  -OEChem-04052300403D

 88 97  0     1  0  0  0  0  0999 V2000
  -26.4394  -37.8598   22.9126 C   0  0  0  0  0  0  0  0  0  0  0  0
  -26.9432  -36.6279   23.3174 C   0  0  0  0  0  0  0  0  0  0  0  0
  -23.5726   -9.0687   20.3762 C   0  0  0  0  0  0  0  0  0  0  0  0
  -23.1583  -11.1752   21.4846 C   0  0  0  0  0  0  0  0  0  0  0  0
  -26.9443  -17.8073   17.8530 C   0  0  0  0  0  0  0  0  0  0  0  0
  -24.9091  -18.4661   18.9759 C   0  0  0  0  0  0  0  0  0  0  0  0
  -25.0725  -38.0114   22.6833 C   0  0  0  0  0  0  0  0  0  0  0  0
  -26.0801  -35.5470   23.4943 C   0  0  0  0  0  0  0  0  0  0  0  0
  -27.0259  -29.4226   19.8877 C   0  0  0  0  0  0  0  0  0  0  0  0
  -27.5265  -19.0287   18.1915 C   0  0  0  0  0  0  0  0  0  0  0  0
  -25.4913  -19.6876   19.3145 C   0  0  0  0  0  0  0  0  0  0  0  0
  -22.2086   -8.9373   20.1161 C   0  0  0  0  0  0  0  0  0  0  0  0
  -21.7942  -11.0437   21.2244 C   0  0  0  0  0  0  0  0  0  0  0  0
  -27.2875  -28.1297   19.4338 C   0  0  0  0  0  0  0  0  0  0  0  0
  -19.9633  -10.1707   17.9093 C   0  0  0  0  0  0  0  0  0  0  0  0
  -19.5833   -9.7699   16.6284 C   0  0  0  0  0  0  0  0  0  0  0  0
  -25.2657  -27.3364   20.4968 C   0  0  0  0  0  0  0  0  0  0  0  0
  -18.4984   -7.8224   17.5597 C   0  0  0  0  0  0  0  0  0  0  0  0
  -24.0475  -10.1877   21.0605 C   0  0  0  0  0  0  0  0  0  0  0  0
  -25.6355  -17.5260   18.2451 C   0  0  0  0  0  0  0  0  0  0  0  0
  -26.2677   -9.4480   22.0760 C   0  0  0  0  0  0  0  0  0  0  0  0
  -24.1936  -36.9293   22.8481 C   0  0  0  0  0  0  0  0  0  0  0  0
  -25.8738  -29.6812   20.6361 C   0  0  0  0  0  0  0  0  0  0  0  0
  -24.7000  -35.6846   23.2683 C   0  0  0  0  0  0  0  0  0  0  0  0
  -24.9920  -28.6320   20.9431 C   0  0  0  0  0  0  0  0  0  0  0  0
  -26.8000  -19.9689   18.9223 C   0  0  0  0  0  0  0  0  0  0  0  0
  -21.3194   -9.9247   20.5402 C   0  0  0  0  0  0  0  0  0  0  0  0
  -26.4098  -27.0891   19.7379 C   0  0  0  0  0  0  0  0  0  0  0  0
  -19.6109   -9.3973   19.0153 C   0  0  0  0  0  0  0  0  0  0  0  0
  -18.8508   -8.5958   16.4536 C   0  0  0  0  0  0  0  0  0  0  0  0
  -18.8784   -8.2232   18.8405 C   0  0  0  0  0  0  0  0  0  0  0  0
  -25.4564  -10.3238   21.3299 C   0  0  0  0  0  0  0  0  0  0  0  0
  -27.5164  -10.0187   22.0359 C   0  0  0  0  0  0  0  0  0  0  0  0
  -26.6245  -22.3841   19.4186 C   0  0  0  0  0  0  0  0  0  0  0  0
  -27.0839  -23.5506   19.8967 C   0  0  0  0  0  0  0  0  0  0  0  0
  -28.7993  -21.3039   19.5157 C   0  0  0  0  0  0  0  0  0  0  0  0
  -25.0186  -16.2320   17.8863 C   0  0  0  0  0  0  0  0  0  0  0  0
  -25.9235   -8.2276   22.7452 C   0  0  0  0  0  0  0  0  0  0  0  0
  -23.8277  -32.1727   22.5212 C   0  0  0  0  0  0  0  0  0  0  0  0
  -21.8382  -30.2355   20.9587 C   0  0  0  0  0  0  0  0  0  0  0  0
  -19.3039  -32.7667   21.3930 C   0  0  0  0  0  0  0  0  0  0  0  0
  -26.3888  -14.9871   19.5510 C   0  0  0  0  0  0  0  0  0  0  0  0
  -22.7176  -37.1539   22.6341 C   0  0  0  0  0  0  0  0  0  0  0  0
  -25.5886  -31.0477   21.1989 C   0  0  0  0  0  0  0  0  0  0  0  0
  -23.7832  -28.9488   21.7781 C   0  0  0  0  0  0  0  0  0  0  0  0
  -28.5218  -23.6983   20.2830 C   0  0  0  0  0  0  0  0  0  0  0  0
  -29.3806  -22.7065   19.5212 C   0  0  0  0  0  0  0  0  0  0  0  0
  -21.9205  -35.8609   22.4820 C   0  0  0  0  0  0  0  0  0  0  0  0
  -29.4894  -12.9180   18.7409 C   0  0  0  0  0  0  0  0  0  0  0  0
  -22.3171  -34.8592   23.5619 C   0  0  0  0  0  0  0  0  0  0  0  0
  -29.2592  -11.7492   19.6908 C   0  0  0  0  0  0  0  0  0  0  0  0
  -28.1655  -13.5895   18.4001 C   0  0  0  0  0  0  0  0  0  0  0  0
  -27.9299  -13.6029   20.8946 C   0  0  0  0  0  0  0  0  0  0  0  0
  -23.7990  -34.4820   23.4470 C   0  0  1  0  0  0  0  0  0  0  0  0
  -24.0854  -31.3828   21.2717 C   0  0  1  0  0  0  0  0  0  0  0  0
  -28.4698  -12.1613   20.9489 C   0  0  1  0  0  0  0  0  0  0  0  0
  -16.9081  -32.8213   20.6482 C   0  0  0  0  0  0  0  0  0  0  0  0
  -22.9317  -31.7111   18.5220 C   0  0  0  0  0  0  0  0  0  0  0  0
  -20.8950  -33.1661   18.5760 C   0  0  0  0  0  0  0  0  0  0  0  0
  -20.6618  -30.7106   18.2038 C   0  0  0  0  0  0  0  0  0  0  0  0
  -25.2634  -13.8096   17.6926 C   0  0  0  0  0  0  0  0  0  0  0  0
  -18.3383  -33.2638   24.1460 C   0  0  0  0  0  0  0  0  0  0  0  0
  -26.2013  -24.7459   20.0898 C   0  0  0  0  0  0  0  0  0  1  0  0
  -21.2815  -31.5625   20.5021 C   0  0  1  0  0  0  0  0  0  0  0  0
  -17.8590  -32.5451   21.8024 C   0  0  2  0  0  0  0  0  0  0  0  0
  -21.4595  -31.7856   18.9738 C   0  0  0  0  0  0  0  0  0  0  0  0
  -26.1327  -11.3713   20.8512 N   0  0  0  0  0  0  0  0  0  0  0  0
  -27.3822  -11.1575   21.2974 N   0  0  0  0  0  0  0  0  0  0  0  0
  -27.4062  -21.2381   19.2738 N   0  0  0  0  0  0  0  0  0  0  0  0
  -23.1866  -30.2144   21.3361 N   0  0  0  0  0  0  0  0  0  0  0  0
  -27.4108  -14.0141   19.5876 N   0  0  0  0  0  0  0  0  0  0  0  0
  -28.7050   -9.6526   22.5608 N   0  0  0  0  0  0  0  0  0  0  0  0
  -24.5950   -7.7849   22.6859 N   0  0  0  0  0  0  0  0  0  0  0  0
  -23.9977  -33.5357   22.3702 N   0  0  0  0  0  0  0  0  0  0  0  0
  -19.8949  -31.6007   20.9541 N   0  0  0  0  0  0  0  0  0  0  0  0
  -25.6383  -15.0541   18.3571 N   0  0  0  0  0  0  0  0  0  0  0  0
  -17.4977  -33.4445   22.9345 N   0  3  0  0  0  0  0  0  0  0  0  0
  -29.5562  -20.3439   19.6716 O   0  0  0  0  0  0  0  0  0  0  0  0
  -23.9889  -16.2679   17.2138 O   0  0  0  0  0  0  0  0  0  0  0  0
  -26.7654   -7.5585   23.3909 O   0  0  0  0  0  0  0  0  0  0  0  0
  -23.4973  -31.5897   23.5472 O   0  0  0  0  0  0  0  0  0  0  0  0
  -21.0996  -29.2472   20.9709 O   0  0  0  0  0  0  0  0  0  0  0  0
  -19.8522  -33.8650   21.4526 O   0  0  0  0  0  0  0  0  0  0  0  0
  -26.1295  -15.7246   20.5089 O   0  0  0  0  0  0  0  0  0  0  0  0
  -19.9883   -9.7969   20.2864 O   0  0  0  0  0  0  0  0  0  0  0  0
  -26.6687  -25.8300   19.2881 O   0  0  0  0  0  0  0  0  0  1  0  0
  -18.4846   -8.2119   15.2237 F   0  0  0  0  0  0  0  0  0  0  0  0
  -18.5360   -7.4766   19.8994 F   0  0  0  0  0  0  0  0  0  0  0  0
  1  2  1  0  0  0  0
  1  7  2  0  0  0  0
  2  8  2  0  0  0  0
  3 12  2  0  0  0  0
  3 19  1  0  0  0  0
  4 13  1  0  0  0  0
  4 19  2  0  0  0  0
  5 10  2  0  0  0  0
  5 20  1  0  0  0  0
  6 11  1  0  0  0  0
  6 20  2  0  0  0  0
  7 22  1  0  0  0  0
  8 24  1  0  0  0  0
  9 14  2  0  0  0  0
  9 23  1  0  0  0  0
 10 26  1  0  0  0  0
 11 26  2  0  0  0  0
 12 27  1  0  0  0  0
 13 27  2  0  0  0  0
 14 28  1  0  0  0  0
 15 16  2  0  0  0  0
 15 29  1  0  0  0  0
 16 30  1  0  0  0  0
 17 25  1  0  0  0  0
 17 28  2  0  0  0  0
 18 30  2  0  0  0  0
 18 31  1  0  0  0  0
 19 32  1  0  0  0  0
 20 37  1  0  0  0  0
 21 32  1  0  0  0  0
 21 33  2  0  0  0  0
 21 38  1  0  0  0  0
 22 24  2  0  0  0  0
 22 43  1  0  0  0  0
 23 25  2  0  0  0  0
 23 44  1  0  0  0  0
 24 54  1  0  0  0  0
 25 45  1  0  0  0  0
 26 69  1  0  0  0  0
 27 85  1  0  0  0  0
 28 86  1  0  0  0  0
 29 31  2  0  0  0  0
 29 85  1  0  0  0  0
 30 87  1  0  0  0  0
 31 88  1  0  0  0  0
 32 67  2  0  0  0  0
 33 68  1  0  0  0  0
 33 72  1  0  0  0  0
 34 35  2  0  0  0  0
 34 69  1  0  0  0  0
 35 46  1  0  0  0  0
 35 63  1  0  0  0  0
 36 47  1  0  0  0  0
 36 69  1  0  0  0  0
 36 78  2  0  0  0  0
 37 76  1  0  0  0  0
 37 79  2  0  0  0  0
 38 73  1  0  0  0  0
 38 80  2  0  0  0  0
 39 55  1  0  0  0  0
 39 74  1  0  0  0  0
 39 81  2  0  0  0  0
 40 64  1  0  0  0  0
 40 70  1  0  0  0  0
 40 82  2  0  0  0  0
 41 65  1  0  0  0  0
 41 75  1  0  0  0  0
 41 83  2  0  0  0  0
 42 71  1  0  0  0  0
 42 76  1  0  0  0  0
 42 84  2  0  0  0  0
 43 48  1  0  0  0  0
 44 55  1  0  0  0  0
 45 70  1  0  0  0  0
 46 47  1  0  0  0  0
 48 50  1  0  0  0  0
 49 51  1  0  0  0  0
 49 52  1  0  0  0  0
 50 54  1  0  0  0  0
 51 56  1  0  0  0  0
 52 71  1  0  0  0  0
 53 56  1  0  0  0  0
 53 71  1  0  0  0  0
 54 74  1  0  0  0  0
 55 70  1  0  0  0  0
 56 68  1  0  0  0  0
 57 65  1  0  0  0  0
 58 66  1  0  0  0  0
 59 66  1  0  0  0  0
 60 66  1  0  0  0  0
 61 76  1  0  0  0  0
 62 77  1  0  0  0  0
 63 86  1  0  0  0  0
 64 66  1  0  0  0  0
 64 75  1  0  0  0  0
 65 77  1  0  0  0  0
 67 68  1  0  0  0  0
M  CHG  1  77   1
M  ISO  4  42 100  63 101  76 100  86 101
M  END
> <Batch ID>
0094

> <Smiles>
CNC(C)C(=O)NC(C(=O)N1Cc2cc([101O:1][101CH2:1]C3=CN(c4ccc(C(=O)[100N:0](C)[100C:0](=O)N5CCCC(n6nc(-c7ccc(Oc8ccc(F)cc8F)cc7)c(C(N)=O)c6N)C5)cc4)C(=O)CC3)ccc2CC1C(=O)NC1CCCc2ccccc21)C(C)(C)C

> <Shape>
0.243

> <Color>
0.114

> <Negative vol penalty>
0.000

$$$$

  -OEChem-04052300403D

 84 92  0     1  0  0  0  0  0999 V2000
  -21.3450  -30.5733   14.4951 C   0  0  0  0  0  0  0  0  0  0  0  0
  -22.5418  -30.0852   15.0097 C   0  0  0  0  0  0  0  0  0  0  0  0
  -23.9661   -9.6591   21.9455 C   0  0  0  0  0  0  0  0  0  0  0  0
  -24.6504  -11.0868   23.7704 C   0  0  0  0  0  0  0  0  0  0  0  0
  -31.0727  -19.9716   19.6413 C   0  0  0  0  0  0  0  0  0  0  0  0
  -20.8005  -31.7535   14.9995 C   0  0  0  0  0  0  0  0  0  0  0  0
  -23.1954  -30.7777   16.0284 C   0  0  0  0  0  0  0  0  0  0  0  0
  -24.8375  -27.7179   19.7143 C   0  0  0  0  0  0  0  0  0  0  0  0
  -30.7594  -18.6300   19.4237 C   0  0  0  0  0  0  0  0  0  0  0  0
  -23.5545   -8.6887   22.8589 C   0  0  0  0  0  0  0  0  0  0  0  0
  -24.2388  -10.1164   24.6839 C   0  0  0  0  0  0  0  0  0  0  0  0
  -26.0032  -26.9937   19.4686 C   0  0  0  0  0  0  0  0  0  0  0  0
  -20.9003   -8.1362   24.8795 C   0  0  0  0  0  0  0  0  0  0  0  0
  -19.6638   -7.5273   24.6654 C   0  0  0  0  0  0  0  0  0  0  0  0
  -28.7309  -20.4647   19.9728 C   0  0  0  0  0  0  0  0  0  0  0  0
  -27.2653  -28.6027   20.7481 C   0  0  0  0  0  0  0  0  0  0  0  0
  -20.7510   -5.3757   24.5049 C   0  0  0  0  0  0  0  0  0  0  0  0
  -24.5141  -10.8582   22.4012 C   0  0  0  0  0  0  0  0  0  0  0  0
  -30.0584  -20.8890   19.9159 C   0  0  0  0  0  0  0  0  0  0  0  0
  -24.1675  -12.9107   20.9266 C   0  0  0  0  0  0  0  0  0  0  0  0
  -21.4427  -32.4557   16.0316 C   0  0  0  0  0  0  0  0  0  0  0  0
  -24.8787  -28.8978   20.4709 C   0  0  0  0  0  0  0  0  0  0  0  0
  -22.6596  -31.9692   16.5462 C   0  0  0  0  0  0  0  0  0  0  0  0
  -26.0983  -29.3386   21.0042 C   0  0  0  0  0  0  0  0  0  0  0  0
  -29.4319  -18.2056   19.4805 C   0  0  0  0  0  0  0  0  0  0  0  0
  -23.6908   -8.9173   24.2282 C   0  0  0  0  0  0  0  0  0  0  0  0
  -27.2178  -27.4376   19.9831 C   0  0  0  0  0  0  0  0  0  0  0  0
  -22.0622   -7.3649   24.9063 C   0  0  0  0  0  0  0  0  0  0  0  0
  -19.5891   -6.1471   24.4781 C   0  0  0  0  0  0  0  0  0  0  0  0
  -28.4176  -19.1230   19.7551 C   0  0  0  0  0  0  0  0  0  0  0  0
  -21.9876   -5.9846   24.7190 C   0  0  0  0  0  0  0  0  0  0  0  0
  -24.9401  -11.8608   21.4581 C   0  0  0  0  0  0  0  0  0  0  0  0
  -25.0252  -13.5764   20.0854 C   0  0  0  0  0  0  0  0  0  0  0  0
  -30.3921  -22.3175   20.1475 C   0  0  0  0  0  0  0  0  0  0  0  0
  -22.7971  -13.2538   21.1716 C   0  0  0  0  0  0  0  0  0  0  0  0
  -24.2044  -31.9517   19.9027 C   0  0  0  0  0  0  0  0  0  0  0  0
  -24.7736  -32.2646   23.0808 C   0  0  0  0  0  0  0  0  0  0  0  0
  -29.4895  -24.6115   20.0116 C   0  0  0  0  0  0  0  0  0  0  0  0
  -26.3024  -31.0573   25.8830 C   0  0  0  0  0  0  0  0  0  0  0  0
  -30.0051  -15.8054   18.9739 C   0  0  0  0  0  0  0  0  0  0  0  0
  -20.8401  -33.7521   16.5120 C   0  0  0  0  0  0  0  0  0  0  0  0
  -23.6082  -29.6531   20.7495 C   0  0  0  0  0  0  0  0  0  0  0  0
  -26.1931  -30.5881   21.8398 C   0  0  0  0  0  0  0  0  0  0  0  0
  -21.4024  -34.2265   17.8495 C   0  0  0  0  0  0  0  0  0  0  0  0
  -29.6273  -12.3120   18.3991 C   0  0  0  0  0  0  0  0  0  0  0  0
  -22.9247  -34.1296   17.8530 C   0  0  0  0  0  0  0  0  0  0  0  0
  -28.3106  -11.9695   19.0999 C   0  0  0  0  0  0  0  0  0  0  0  0
  -30.4232  -13.3637   19.1698 C   0  0  0  0  0  0  0  0  0  0  0  0
  -28.3647  -14.2461   20.1959 C   0  0  0  0  0  0  0  0  0  0  0  0
  -23.3856  -32.6787   17.6685 C   0  0  1  0  0  0  0  0  0  0  0  0
  -23.8487  -31.1180   21.1011 C   0  0  1  0  0  0  0  0  0  0  0  0
  -27.4978  -13.2385   19.4234 C   0  0  2  0  0  0  0  0  0  0  0  0
  -26.6142  -31.5492   28.3239 C   0  0  0  0  0  0  0  0  0  0  0  0
  -26.7648  -34.4678   22.3800 C   0  0  0  0  0  0  0  0  0  0  0  0
  -27.7095  -34.2522   24.6885 C   0  0  0  0  0  0  0  0  0  0  0  0
  -25.3351  -34.9496   24.3745 C   0  0  0  0  0  0  0  0  0  0  0  0
  -25.0225  -28.5103   26.6786 C   0  0  0  0  0  0  0  0  0  0  0  0
  -28.2252  -25.3220   19.5761 C   0  0  0  0  0  0  0  0  0  1  0  0
  -25.9917  -32.5497   23.9257 C   0  0  1  0  0  0  0  0  0  0  0  0
  -25.7818  -30.8106   27.2874 C   0  0  2  0  0  0  0  0  0  0  0  0
  -26.4491  -34.0323   23.8249 C   0  0  0  0  0  0  0  0  0  0  0  0
  -26.1922  -11.8555   20.9933 N   0  0  0  0  0  0  0  0  0  0  0  0
  -26.2130  -12.9104   20.1609 N   0  0  0  0  0  0  0  0  0  0  0  0
  -24.9241  -31.2953   22.0790 N   0  0  0  0  0  0  0  0  0  0  0  0
  -29.5906  -14.5386   19.4367 N   0  0  0  0  0  0  0  0  0  0  0  0
  -24.8716  -14.6606   19.2958 N   0  0  0  0  0  0  0  0  0  0  0  0
  -22.0600  -12.4641   22.0647 N   0  0  0  0  0  0  0  0  0  0  0  0
  -29.1169  -16.8421   19.2584 N   0  0  0  0  0  0  0  0  0  0  0  0
  -29.3857  -23.2305   19.8371 N   0  0  0  0  0  0  0  0  0  0  0  0
  -23.2465  -31.9428   18.9068 N   0  0  0  0  0  0  0  0  0  0  0  0
  -25.6600  -32.1175   25.2791 N   0  0  0  0  0  0  0  0  0  0  0  0
  -25.8190  -29.3551   27.6053 N   0  3  0  0  0  0  0  0  0  0  0  0
  -31.4918  -22.6071   20.6110 O   0  0  0  0  0  0  0  0  0  0  0  0
  -22.2379  -14.2217   20.6024 O   0  0  0  0  0  0  0  0  0  0  0  0
  -25.2685  -32.5592   19.8836 O   0  0  0  0  0  0  0  0  0  0  0  0
  -23.7252  -32.8742   23.3062 O   0  0  0  0  0  0  0  0  0  0  0  0
  -30.4669  -25.2070   20.4562 O   0  0  0  0  0  0  0  0  0  0  0  0
  -27.1927  -30.3799   25.3740 O   0  0  0  0  0  0  0  0  0  0  0  0
  -31.0564  -15.9548   18.3459 O   0  0  0  0  0  0  0  0  0  0  0  0
  -23.2890   -7.9707   25.1198 O   0  0  0  0  0  0  0  0  0  0  0  0
  -28.3573  -26.7330   19.7442 O   0  0  0  0  0  0  0  0  0  1  0  0
  -18.4014   -5.5624   24.2739 F   0  0  0  0  0  0  0  0  0  0  0  0
  -27.1378  -18.7268   19.8117 F   0  0  0  0  0  0  0  0  0  0  0  0
  -23.1002   -5.2382   24.7449 F   0  0  0  0  0  0  0  0  0  0  0  0
  1  2  1  0  0  0  0
  1  6  2  0  0  0  0
  2  7  2  0  0  0  0
  3 10  2  0  0  0  0
  3 18  1  0  0  0  0
  4 11  1  0  0  0  0
  4 18  2  0  0  0  0
  5  9  2  0  0  0  0
  5 19  1  0  0  0  0
  6 21  1  0  0  0  0
  7 23  1  0  0  0  0
  8 12  2  0  0  0  0
  8 22  1  0  0  0  0
  9 25  1  0  0  0  0
 10 26  1  0  0  0  0
 11 26  2  0  0  0  0
 12 27  1  0  0  0  0
 13 14  2  0  0  0  0
 13 28  1  0  0  0  0
 14 29  1  0  0  0  0
 15 19  2  0  0  0  0
 15 30  1  0  0  0  0
 16 24  1  0  0  0  0
 16 27  2  0  0  0  0
 17 29  2  0  0  0  0
 17 31  1  0  0  0  0
 18 32  1  0  0  0  0
 19 34  1  0  0  0  0
 20 32  1  0  0  0  0
 20 33  2  0  0  0  0
 20 35  1  0  0  0  0
 21 23  2  0  0  0  0
 21 41  1  0  0  0  0
 22 24  2  0  0  0  0
 22 42  1  0  0  0  0
 23 50  1  0  0  0  0
 24 43  1  0  0  0  0
 25 30  2  0  0  0  0
 25 68  1  0  0  0  0
 26 80  1  0  0  0  0
 27 81  1  0  0  0  0
 28 31  2  0  0  0  0
 28 80  1  0  0  0  0
 29 82  1  0  0  0  0
 30 83  1  0  0  0  0
 31 84  1  0  0  0  0
 32 62  2  0  0  0  0
 33 63  1  0  0  0  0
 33 66  1  0  0  0  0
 34 69  1  0  0  0  0
 34 73  2  0  0  0  0
 35 67  1  0  0  0  0
 35 74  2  0  0  0  0
 36 51  1  0  0  0  0
 36 70  1  0  0  0  0
 36 75  2  0  0  0  0
 37 59  1  0  0  0  0
 37 64  1  0  0  0  0
 37 76  2  0  0  0  0
 38 58  1  0  0  0  0
 38 69  1  0  0  0  0
 38 77  2  0  0  0  0
 39 60  1  0  0  0  0
 39 71  1  0  0  0  0
 39 78  2  0  0  0  0
 40 65  1  0  0  0  0
 40 68  1  0  0  0  0
 40 79  2  0  0  0  0
 41 44  1  0  0  0  0
 42 51  1  0  0  0  0
 43 64  1  0  0  0  0
 44 46  1  0  0  0  0
 45 47  1  0  0  0  0
 45 48  1  0  0  0  0
 46 50  1  0  0  0  0
 47 52  1  0  0  0  0
 48 65  1  0  0  0  0
 49 52  1  0  0  0  0
 49 65  1  0  0  0  0
 50 70  1  0  0  0  0
 51 64  1  0  0  0  0
 52 63  1  0  0  0  0
 53 60  1  0  0  0  0
 54 61  1  0  0  0  0
 55 61  1  0  0  0  0
 56 61  1  0  0  0  0
 57 72  1  0  0  0  0
 58 81  1  0  0  0  0
 59 61  1  0  0  0  0
 59 71  1  0  0  0  0
 60 72  1  0  0  0  0
 62 63  1  0  0  0  0
M  CHG  1  72   1
M  ISO  4  40 100  58 101  68 100  81 101
M  END
> <Batch ID>
0094

> <Smiles>
CNC(C)C(=O)NC(C(=O)N1Cc2cc([101O:1][101CH2:1]C(=O)NC(=O)c3ccc([100NH:0][100C:0](=O)N4CCCC(n5nc(-c6ccc(Oc7ccc(F)cc7F)cc6)c(C(N)=O)c5N)C4)c(F)c3)ccc2CC1C(=O)NC1CCCc2ccccc21)C(C)(C)C

> <Shape>
0.333

> <Color>
0.168

> <Negative vol penalty>
0.000

$$$$

  -OEChem-04052300403D

 86 94  0     1  0  0  0  0  0999 V2000
  -31.9555  -13.1052   21.3024 C   0  0  0  0  0  0  0  0  0  0  0  0
  -31.4694  -14.4080   21.3439 C   0  0  0  0  0  0  0  0  0  0  0  0
  -28.0828  -26.9032   18.6009 C   0  0  0  0  0  0  0  0  0  0  0  0
  -28.2242  -26.9686   21.0118 C   0  0  0  0  0  0  0  0  0  0  0  0
  -31.2075  -12.1026   20.6865 C   0  0  0  0  0  0  0  0  0  0  0  0
  -30.2355  -14.7093   20.7684 C   0  0  0  0  0  0  0  0  0  0  0  0
  -27.3789  -17.6599   23.7313 C   0  0  0  0  0  0  0  0  0  0  0  0
  -23.9223  -27.6621   24.2078 C   0  0  0  0  0  0  0  0  0  0  0  0
  -26.0464  -27.4304   25.3354 C   0  0  0  0  0  0  0  0  0  0  0  0
  -24.0699  -26.3848   23.6672 C   0  0  0  0  0  0  0  0  0  0  0  0
  -26.1940  -26.1530   24.7949 C   0  0  0  0  0  0  0  0  0  0  0  0
  -29.2571  -26.1520   18.5523 C   0  0  0  0  0  0  0  0  0  0  0  0
  -29.3986  -26.2174   20.9633 C   0  0  0  0  0  0  0  0  0  0  0  0
  -27.6876  -19.0191   23.7636 C   0  0  0  0  0  0  0  0  0  0  0  0
  -32.0220  -23.9104   17.8135 C   0  0  0  0  0  0  0  0  0  0  0  0
  -32.0489  -22.8030   16.9658 C   0  0  0  0  0  0  0  0  0  0  0  0
  -25.8869  -19.4586   22.2196 C   0  0  0  0  0  0  0  0  0  0  0  0
  -30.2053  -21.8259   18.1837 C   0  0  0  0  0  0  0  0  0  0  0  0
  -27.5664  -27.3115   19.8306 C   0  0  0  0  0  0  0  0  0  0  0  0
  -25.0359  -27.6013   19.9720 C   0  0  0  0  0  0  0  0  0  0  0  0
  -29.9594  -12.3898   20.1118 C   0  0  0  0  0  0  0  0  0  0  0  0
  -26.3271  -17.1877   22.9331 C   0  0  0  0  0  0  0  0  0  0  0  0
  -29.4707  -13.7099   20.1431 C   0  0  0  0  0  0  0  0  0  0  0  0
  -25.5653  -18.0932   22.1810 C   0  0  0  0  0  0  0  0  0  0  0  0
  -24.9106  -28.1850   25.0418 C   0  0  0  0  0  0  0  0  0  0  0  0
  -25.2058  -25.6302   23.9608 C   0  0  0  0  0  0  0  0  0  0  0  0
  -29.9150  -25.8091   19.7336 C   0  0  0  0  0  0  0  0  0  0  0  0
  -26.9434  -19.9183   23.0055 C   0  0  0  0  0  0  0  0  0  0  0  0
  -31.0867  -23.9755   18.8464 C   0  0  0  0  0  0  0  0  0  0  0  0
  -31.1406  -21.7608   17.1509 C   0  0  0  0  0  0  0  0  0  0  0  0
  -30.1784  -22.9333   19.0315 C   0  0  0  0  0  0  0  0  0  0  0  0
  -26.3537  -28.0880   19.8813 C   0  0  0  0  0  0  0  0  0  0  0  0
  -24.2534  -28.7300   19.9881 C   0  0  0  0  0  0  0  0  0  0  0  0
  -23.6633  -29.9519   27.8654 C   0  0  0  0  0  0  0  0  0  0  0  0
  -24.7215  -29.5735   27.1383 C   0  0  0  0  0  0  0  0  0  0  0  0
  -24.5615  -26.2498   20.0361 C   0  0  0  0  0  0  0  0  0  0  0  0
  -26.1027  -15.1945   20.4673 C   0  0  0  0  0  0  0  0  0  0  0  0
  -22.9190  -15.6544   20.8857 C   0  0  0  0  0  0  0  0  0  0  0  0
  -26.4148  -23.4526   23.6002 C   0  0  0  0  0  0  0  0  0  0  0  0
  -25.8604  -30.5076   25.1304 C   0  0  0  0  0  0  0  0  0  0  0  0
  -20.4095  -17.6441   22.0647 C   0  0  0  0  0  0  0  0  0  0  0  0
  -26.3922  -31.8834   23.1353 C   0  0  0  0  0  0  0  0  0  0  0  0
  -29.2086  -11.2824   19.4156 C   0  0  0  0  0  0  0  0  0  0  0  0
  -25.9898  -15.7219   22.9300 C   0  0  0  0  0  0  0  0  0  0  0  0
  -24.4132  -17.6397   21.3234 C   0  0  0  0  0  0  0  0  0  0  0  0
  -27.7398  -11.6098   19.1591 C   0  0  0  0  0  0  0  0  0  0  0  0
  -26.9778  -32.5593   19.7039 C   0  0  0  0  0  0  0  0  0  0  0  0
  -27.5995  -13.0121   18.5755 C   0  0  0  0  0  0  0  0  0  0  0  0
  -25.7045  -32.0957   18.9990 C   0  0  0  0  0  0  0  0  0  0  0  0
  -26.6704  -33.1956   21.0537 C   0  0  0  0  0  0  0  0  0  0  0  0
  -24.5978  -31.8740   21.2972 C   0  0  0  0  0  0  0  0  0  0  0  0
  -28.1253  -14.0712   19.5519 C   0  0  1  0  0  0  0  0  0  0  0  0
  -25.2252  -15.2873   21.6834 C   0  0  1  0  0  0  0  0  0  0  0  0
  -24.7632  -31.2647   19.8901 C   0  0  2  0  0  0  0  0  0  0  0  0
  -17.9086  -17.7722   22.2274 C   0  0  0  0  0  0  0  0  0  0  0  0
  -22.7687  -16.4192   17.9357 C   0  0  0  0  0  0  0  0  0  0  0  0
  -20.5209  -17.4267   18.3832 C   0  0  0  0  0  0  0  0  0  0  0  0
  -20.8842  -14.9846   18.7388 C   0  0  0  0  0  0  0  0  0  0  0  0
  -20.4873  -17.6717   25.0232 C   0  0  0  0  0  0  0  0  0  0  0  0
  -26.1820  -22.1647   22.8323 C   0  0  0  0  0  0  0  0  0  1  0  0
  -24.7496  -29.5769   25.6307 C   0  0  1  0  0  0  0  0  0  0  0  0
  -21.9024  -16.6378   20.3580 C   0  0  1  0  0  0  0  0  0  0  0  0
  -19.1914  -17.3316   22.9151 C   0  0  2  0  0  0  0  0  0  0  0  0
  -21.5420  -16.3757   18.8685 C   0  0  0  0  0  0  0  0  0  0  0  0
  -26.4092  -29.4219   19.8424 N   0  0  0  0  0  0  0  0  0  0  0  0
  -25.1164  -29.7831   19.9088 N   0  0  0  0  0  0  0  0  0  0  0  0
  -24.1265  -16.1958   21.3489 N   0  0  0  0  0  0  0  0  0  0  0  0
  -25.8766  -32.2957   21.8909 N   0  0  0  0  0  0  0  0  0  0  0  0
  -22.9181  -28.9145   20.0622 N   0  0  0  0  0  0  0  0  0  0  0  0
  -25.5008  -25.2100   20.0085 N   0  0  0  0  0  0  0  0  0  0  0  0
  -25.3536  -24.3524   23.4206 N   0  0  0  0  0  0  0  0  0  0  0  0
  -27.1595  -14.3145   20.6019 N   0  0  0  0  0  0  0  0  0  0  0  0
  -25.5605  -31.0334   23.8687 N   0  0  0  0  0  0  0  0  0  0  0  0
  -20.7639  -16.5759   21.2682 N   0  0  0  0  0  0  0  0  0  0  0  0
  -19.2839  -18.0293   24.2287 N   0  3  0  0  0  0  0  0  0  0  0  0
  -23.3398  -25.9721   20.0989 O   0  0  0  0  0  0  0  0  0  0  0  0
  -25.8395  -15.8701   19.4793 O   0  0  0  0  0  0  0  0  0  0  0  0
  -22.6487  -14.4509   20.8935 O   0  0  0  0  0  0  0  0  0  0  0  0
  -27.4246  -23.6247   24.2751 O   0  0  0  0  0  0  0  0  0  0  0  0
  -26.8943  -30.7246   25.7582 O   0  0  0  0  0  0  0  0  0  0  0  0
  -20.9864  -18.7287   22.1006 O   0  0  0  0  0  0  0  0  0  0  0  0
  -27.4929  -32.2468   23.5610 O   0  0  0  0  0  0  0  0  0  0  0  0
  -31.0608  -25.0759   19.6866 O   0  0  0  0  0  0  0  0  0  0  0  0
  -27.2461  -21.2593   23.0350 O   0  0  0  0  0  0  0  0  0  1  0  0
  -31.1655  -20.6981   16.3358 F   0  0  0  0  0  0  0  0  0  0  0  0
  -29.2769  -22.9907   20.0213 F   0  0  0  0  0  0  0  0  0  0  0  0
  1  2  1  0  0  0  0
  1  5  2  0  0  0  0
  2  6  2  0  0  0  0
  3 12  2  0  0  0  0
  3 19  1  0  0  0  0
  4 13  1  0  0  0  0
  4 19  2  0  0  0  0
  5 21  1  0  0  0  0
  6 23  1  0  0  0  0
  7 14  2  0  0  0  0
  7 22  1  0  0  0  0
  8 10  2  0  0  0  0
  8 25  1  0  0  0  0
  9 11  1  0  0  0  0
  9 25  2  0  0  0  0
 10 26  1  0  0  0  0
 11 26  2  0  0  0  0
 12 27  1  0  0  0  0
 13 27  2  0  0  0  0
 14 28  1  0  0  0  0
 15 16  2  0  0  0  0
 15 29  1  0  0  0  0
 16 30  1  0  0  0  0
 17 24  1  0  0  0  0
 17 28  2  0  0  0  0
 18 30  2  0  0  0  0
 18 31  1  0  0  0  0
 19 32  1  0  0  0  0
 20 32  1  0  0  0  0
 20 33  2  0  0  0  0
 20 36  1  0  0  0  0
 21 23  2  0  0  0  0
 21 43  1  0  0  0  0
 22 24  2  0  0  0  0
 22 44  1  0  0  0  0
 23 52  1  0  0  0  0
 24 45  1  0  0  0  0
 25 61  1  0  0  0  0
 26 71  1  0  0  0  0
 27 83  1  0  0  0  0
 28 84  1  0  0  0  0
 29 31  2  0  0  0  0
 29 83  1  0  0  0  0
 30 85  1  0  0  0  0
 31 86  1  0  0  0  0
 32 65  2  0  0  0  0
 33 66  1  0  0  0  0
 33 69  1  0  0  0  0
 34 35  2  0  0  0  0
 35 61  1  0  0  0  0
 36 70  1  0  0  0  0
 36 76  2  0  0  0  0
 37 53  1  0  0  0  0
 37 72  1  0  0  0  0
 37 77  2  0  0  0  0
 38 62  1  0  0  0  0
 38 67  1  0  0  0  0
 38 78  2  0  0  0  0
 39 60  1  0  0  0  0
 39 71  1  0  0  0  0
 39 79  2  0  0  0  0
 40 61  1  0  0  0  0
 40 73  1  0  0  0  0
 40 80  2  0  0  0  0
 41 63  1  0  0  0  0
 41 74  1  0  0  0  0
 41 81  2  0  0  0  0
 42 68  1  0  0  0  0
 42 73  1  0  0  0  0
 42 82  2  0  0  0  0
 43 46  1  0  0  0  0
 44 53  1  0  0  0  0
 45 67  1  0  0  0  0
 46 48  1  0  0  0  0
 47 49  1  0  0  0  0
 47 50  1  0  0  0  0
 48 52  1  0  0  0  0
 49 54  1  0  0  0  0
 50 68  1  0  0  0  0
 51 54  1  0  0  0  0
 51 68  1  0  0  0  0
 52 72  1  0  0  0  0
 53 67  1  0  0  0  0
 54 66  1  0  0  0  0
 55 63  1  0  0  0  0
 56 64  1  0  0  0  0
 57 64  1  0  0  0  0
 58 64  1  0  0  0  0
 59 75  1  0  0  0  0
 60 84  1  0  0  0  0
 62 64  1  0  0  0  0
 62 74  1  0  0  0  0
 63 75  1  0  0  0  0
 65 66  1  0  0  0  0
M  CHG  1  75   1
M  ISO  4  42 100  60 101  73 100  84 101
M  END
> <Batch ID>
0094

> <Smiles>
C=CC(C(=O)[100NH:0][100C:0](=O)N1CCCC(n2nc(-c3ccc(Oc4ccc(F)cc4F)cc3)c(C(N)=O)c2N)C1)c1ccc(NC(=O)[101CH2:1][101O:1]c2ccc3c(c2)CN(C(=O)C(NC(=O)C(C)NC)C(C)(C)C)C(C(=O)NC2CCCc4ccccc42)C3)cc1

> <Shape>
0.221

> <Color>
0.061

> <Negative vol penalty>
0.000

$$$$

  -OEChem-04052300403D

 81 89  0     1  0  0  0  0  0999 V2000
  -27.6718  -33.0036   26.5381 C   0  0  0  0  0  0  0  0  0  0  0  0
  -27.7927  -31.6553   26.2173 C   0  0  0  0  0  0  0  0  0  0  0  0
  -21.6746  -14.9330   21.2376 C   0  0  0  0  0  0  0  0  0  0  0  0
  -23.9264  -14.2065   20.7490 C   0  0  0  0  0  0  0  0  0  0  0  0
  -26.4920  -33.6858   26.2443 C   0  0  0  0  0  0  0  0  0  0  0  0
  -26.7332  -30.9882   25.6035 C   0  0  0  0  0  0  0  0  0  0  0  0
  -28.2462  -28.0679   21.7528 C   0  0  0  0  0  0  0  0  0  0  0  0
  -21.1973  -13.6580   20.9340 C   0  0  0  0  0  0  0  0  0  0  0  0
  -23.4491  -12.9314   20.4454 C   0  0  0  0  0  0  0  0  0  0  0  0
  -28.8239  -26.8402   22.0735 C   0  0  0  0  0  0  0  0  0  0  0  0
  -22.4497  -10.1803   22.1345 C   0  0  0  0  0  0  0  0  0  0  0  0
  -23.1468   -9.0887   22.6523 C   0  0  0  0  0  0  0  0  0  0  0  0
  -28.2194  -21.1768   19.5117 C   0  0  0  0  0  0  0  0  0  0  0  0
  -30.2313  -20.2797   20.5039 C   0  0  0  0  0  0  0  0  0  0  0  0
  -29.2750  -19.2276   18.5506 C   0  0  0  0  0  0  0  0  0  0  0  0
  -26.7304  -25.7386   21.6018 C   0  0  0  0  0  0  0  0  0  0  0  0
  -23.5665   -8.2931   20.4100 C   0  0  0  0  0  0  0  0  0  0  0  0
  -23.0392  -15.2073   21.1450 C   0  0  0  0  0  0  0  0  0  0  0  0
  -29.2088  -21.2284   20.4936 C   0  0  0  0  0  0  0  0  0  0  0  0
  -28.2525  -20.1763   18.5402 C   0  0  0  0  0  0  0  0  0  0  0  0
  -23.9579  -16.9965   22.7141 C   0  0  0  0  0  0  0  0  0  0  0  0
  -25.4210  -33.0292   25.6178 C   0  0  0  0  0  0  0  0  0  0  0  0
  -26.9009  -28.1415   21.3641 C   0  0  0  0  0  0  0  0  0  0  0  0
  -25.5374  -31.6619   25.3022 C   0  0  0  0  0  0  0  0  0  0  0  0
  -26.1386  -26.9681   21.2743 C   0  0  0  0  0  0  0  0  0  0  0  0
  -30.2644  -19.2793   19.5324 C   0  0  0  0  0  0  0  0  0  0  0  0
  -22.0845  -12.6572   20.5380 C   0  0  0  0  0  0  0  0  0  0  0  0
  -28.0652  -25.6757   22.0008 C   0  0  0  0  0  0  0  0  0  0  0  0
  -22.3109  -10.3282   20.7544 C   0  0  0  0  0  0  0  0  0  0  0  0
  -23.7053   -8.1452   21.7900 C   0  0  0  0  0  0  0  0  0  0  0  0
  -22.8693   -9.3847   19.8922 C   0  0  0  0  0  0  0  0  0  0  0  0
  -23.5327  -16.5243   21.4580 C   0  0  0  0  0  0  0  0  0  0  0  0
  -24.3290  -18.2987   22.4838 C   0  0  0  0  0  0  0  0  0  0  0  0
  -29.1757  -22.2860   21.5179 C   0  0  0  0  0  0  0  0  0  0  0  0
  -28.6561  -23.5084   21.3495 C   0  0  0  0  0  0  0  0  0  1  0  0
  -27.2192  -20.1201   17.5182 C   0  0  0  0  0  0  0  0  0  0  0  0
  -24.0126  -16.3187   23.9764 C   0  0  0  0  0  0  0  0  0  0  0  0
  -26.1178  -21.1094   17.4801 C   0  0  0  0  0  0  0  0  0  0  0  0
  -24.3025  -29.5518   22.5318 C   0  0  0  0  0  0  0  0  0  0  0  0
  -22.9597  -28.4813   19.7798 C   0  0  0  0  0  0  0  0  0  0  0  0
  -23.0144  -26.2334   17.2125 C   0  0  0  0  0  0  0  0  0  0  0  0
  -24.1480  -33.7966   25.3629 C   0  0  0  0  0  0  0  0  0  0  0  0
  -26.2999  -29.4703   20.9956 C   0  0  0  0  0  0  0  0  0  0  0  0
  -24.6958  -26.9907   20.8428 C   0  0  0  0  0  0  0  0  0  0  0  0
  -23.2112  -33.1105   24.3720 C   0  0  0  0  0  0  0  0  0  0  0  0
  -23.4028  -22.0204   19.6378 C   0  0  0  0  0  0  0  0  0  0  0  0
  -23.0689  -31.6297   24.7095 C   0  0  0  0  0  0  0  0  0  0  0  0
  -23.1426  -20.7434   20.4362 C   0  0  0  0  0  0  0  0  0  0  0  0
  -23.8426  -21.7070   18.2113 C   0  0  0  0  0  0  0  0  0  0  0  0
  -24.7790  -19.5266   18.9306 C   0  0  0  0  0  0  0  0  0  0  0  0
  -24.4194  -30.9097   24.6134 C   0  0  1  0  0  0  0  0  0  0  0  0
  -24.7786  -29.4898   21.1080 C   0  0  1  0  0  0  0  0  0  0  0  0
  -24.3595  -19.8026   20.3850 C   0  0  2  0  0  0  0  0  0  0  0  0
  -21.7656  -25.5856   15.1345 C   0  0  0  0  0  0  0  0  0  0  0  0
  -20.7950  -27.1779   21.4901 C   0  0  0  0  0  0  0  0  0  0  0  0
  -20.1552  -25.7956   19.5031 C   0  0  0  0  0  0  0  0  0  0  0  0
  -19.9565  -28.2804   19.4078 C   0  0  0  0  0  0  0  0  0  0  0  0
  -25.3655  -26.7633   15.4948 C   0  0  0  0  0  0  0  0  0  0  0  0
  -22.2499  -27.2176   19.3576 C   0  0  1  0  0  0  0  0  0  0  0  0
  -22.9012  -26.4175   15.7100 C   0  0  2  0  0  0  0  0  0  0  0  0
  -20.8157  -27.1174   19.9497 C   0  0  0  0  0  0  0  0  0  0  0  0
  -23.6246  -17.4511   20.5006 N   0  0  0  0  0  0  0  0  0  0  0  0
  -27.1892  -19.2139   16.5787 N   0  0  0  0  0  0  0  0  0  0  0  0
  -24.1117  -18.5188   21.1555 N   0  0  0  0  0  0  0  0  0  0  0  0
  -24.9756  -20.7839   18.1982 N   0  0  0  0  0  0  0  0  0  0  0  0
  -24.1518  -28.3149   20.4990 N   0  0  0  0  0  0  0  0  0  0  0  0
  -31.2989  -18.3205   19.5422 N   0  0  0  0  0  0  0  0  0  0  0  0
  -24.8167  -19.2655   23.2900 N   0  0  0  0  0  0  0  0  0  0  0  0
  -23.5936  -14.9825   24.0359 N   0  0  0  0  0  0  0  0  0  0  0  0
  -24.7584  -30.6537   23.2299 N   0  0  0  0  0  0  0  0  0  0  0  0
  -22.2978  -27.1902   17.8997 N   0  0  0  0  0  0  0  0  0  0  0  0
  -24.1687  -26.0090   15.0410 N   0  3  0  0  0  0  0  0  0  0  0  0
  -24.4055  -16.8861   25.0238 O   0  0  0  0  0  0  0  0  0  0  0  0
  -26.3340  -22.1139   16.8150 O   0  0  0  0  0  0  0  0  0  0  0  0
  -23.5743  -28.6663   22.9645 O   0  0  0  0  0  0  0  0  0  0  0  0
  -22.4781  -29.5756   19.4764 O   0  0  0  0  0  0  0  0  0  0  0  0
  -23.6698  -25.3290   17.7253 O   0  0  0  0  0  0  0  0  0  0  0  0
  -21.6192  -11.4129   20.2419 O   0  0  0  0  0  0  0  0  0  0  0  0
  -28.6265  -24.4762   22.3139 O   0  0  0  0  0  0  0  0  0  1  0  0
  -24.3760   -7.0978   22.2873 F   0  0  0  0  0  0  0  0  0  0  0  0
  -22.7403   -9.5221   18.5654 F   0  0  0  0  0  0  0  0  0  0  0  0
  1  2  1  0  0  0  0
  1  5  2  0  0  0  0
  2  6  2  0  0  0  0
  3  8  2  0  0  0  0
  3 18  1  0  0  0  0
  4  9  1  0  0  0  0
  4 18  2  0  0  0  0
  5 22  1  0  0  0  0
  6 24  1  0  0  0  0
  7 10  2  0  0  0  0
  7 23  1  0  0  0  0
  8 27  1  0  0  0  0
  9 27  2  0  0  0  0
 10 28  1  0  0  0  0
 11 12  2  0  0  0  0
 11 29  1  0  0  0  0
 12 30  1  0  0  0  0
 13 19  2  0  0  0  0
 13 20  1  0  0  0  0
 14 19  1  0  0  0  0
 14 26  2  0  0  0  0
 15 20  2  0  0  0  0
 15 26  1  0  0  0  0
 16 25  1  0  0  0  0
 16 28  2  0  0  0  0
 17 30  2  0  0  0  0
 17 31  1  0  0  0  0
 18 32  1  0  0  0  0
 19 34  1  0  0  0  0
 20 36  1  0  0  0  0
 21 32  1  0  0  0  0
 21 33  2  0  0  0  0
 21 37  1  0  0  0  0
 22 24  2  0  0  0  0
 22 42  1  0  0  0  0
 23 25  2  0  0  0  0
 23 43  1  0  0  0  0
 24 51  1  0  0  0  0
 25 44  1  0  0  0  0
 26 67  1  0  0  0  0
 27 78  1  0  0  0  0
 28 79  1  0  0  0  0
 29 31  2  0  0  0  0
 29 78  1  0  0  0  0
 30 80  1  0  0  0  0
 31 81  1  0  0  0  0
 32 62  2  0  0  0  0
 33 64  1  0  0  0  0
 33 68  1  0  0  0  0
 34 35  2  0  0  0  0
 35 79  1  0  0  0  0
 36 38  1  0  0  0  0
 36 63  2  0  0  0  0
 37 69  1  0  0  0  0
 37 73  2  0  0  0  0
 38 65  1  0  0  0  0
 38 74  2  0  0  0  0
 39 52  1  0  0  0  0
 39 70  1  0  0  0  0
 39 75  2  0  0  0  0
 40 59  1  0  0  0  0
 40 66  1  0  0  0  0
 40 76  2  0  0  0  0
 41 60  1  0  0  0  0
 41 71  1  0  0  0  0
 41 77  2  0  0  0  0
 42 45  1  0  0  0  0
 43 52  1  0  0  0  0
 44 66  1  0  0  0  0
 45 47  1  0  0  0  0
 46 48  1  0  0  0  0
 46 49  1  0  0  0  0
 47 51  1  0  0  0  0
 48 53  1  0  0  0  0
 49 65  1  0  0  0  0
 50 53  1  0  0  0  0
 50 65  1  0  0  0  0
 51 70  1  0  0  0  0
 52 66  1  0  0  0  0
 53 64  1  0  0  0  0
 54 60  1  0  0  0  0
 55 61  1  0  0  0  0
 56 61  1  0  0  0  0
 57 61  1  0  0  0  0
 58 72  1  0  0  0  0
 59 61  1  0  0  0  0
 59 71  1  0  0  0  0
 60 72  1  0  0  0  0
 62 64  1  0  0  0  0
M  CHG  1  72   1
M  ISO  4  35 101  36 100  38 100  79 101
M  END
> <Batch ID>
0094

> <Smiles>
CNC(C)C(=O)NC(C(=O)N1Cc2cc([101O:1][101CH:1]=Cc3cc(N)cc([100C:0](=N)[100C:0](=O)N4CCCC(n5nc(-c6ccc(Oc7ccc(F)cc7F)cc6)c(C(N)=O)c5N)C4)c3)ccc2CC1C(=O)NC1CCCc2ccccc21)C(C)(C)C

> <Shape>
0.207

> <Color>
0.044

> <Negative vol penalty>
0.000

$$$$

  -OEChem-04052300403D

 85 94  0     1  0  0  0  0  0999 V2000
  -20.4359  -33.3217   15.5597 C   0  0  0  0  0  0  0  0  0  0  0  0
  -21.3450  -32.2707   15.6247 C   0  0  0  0  0  0  0  0  0  0  0  0
  -23.0247  -11.0807   21.3709 C   0  0  0  0  0  0  0  0  0  0  0  0
  -24.5779   -9.2611   21.0335 C   0  0  0  0  0  0  0  0  0  0  0  0
  -20.5563  -34.4011   16.4340 C   0  0  0  0  0  0  0  0  0  0  0  0
  -22.3757  -32.2989   16.5635 C   0  0  0  0  0  0  0  0  0  0  0  0
  -24.7908  -27.5129   19.5244 C   0  0  0  0  0  0  0  0  0  0  0  0
  -21.9629  -10.2329   21.0554 C   0  0  0  0  0  0  0  0  0  0  0  0
  -23.5161   -8.4133   20.7181 C   0  0  0  0  0  0  0  0  0  0  0  0
  -25.9414  -26.7570   19.3042 C   0  0  0  0  0  0  0  0  0  0  0  0
  -20.1632   -7.8171   22.5910 C   0  0  0  0  0  0  0  0  0  0  0  0
  -19.0346   -7.8595   23.4095 C   0  0  0  0  0  0  0  0  0  0  0  0
  -27.1323  -28.1153   20.9031 C   0  0  0  0  0  0  0  0  0  0  0  0
  -28.7545  -21.5039   23.2609 C   0  0  0  0  0  0  0  0  0  0  0  0
  -29.0603  -20.0897   21.3262 C   0  0  0  0  0  0  0  0  0  0  0  0
  -28.5918  -19.1035   23.4814 C   0  0  0  0  0  0  0  0  0  0  0  0
  -17.6823   -8.4973   21.5117 C   0  0  0  0  0  0  0  0  0  0  0  0
  -24.3322  -10.5948   21.3599 C   0  0  0  0  0  0  0  0  0  0  0  0
  -25.9811  -11.7047   22.9588 C   0  0  0  0  0  0  0  0  0  0  0  0
  -21.5832  -34.4380   17.3903 C   0  0  0  0  0  0  0  0  0  0  0  0
  -24.8052  -28.5843   20.4290 C   0  0  0  0  0  0  0  0  0  0  0  0
  -22.5107  -33.3805   17.4505 C   0  0  0  0  0  0  0  0  0  0  0  0
  -25.9798  -28.8815   21.1348 C   0  0  0  0  0  0  0  0  0  0  0  0
  -29.0126  -21.3612   21.8976 C   0  0  0  0  0  0  0  0  0  0  0  0
  -28.5441  -20.3750   24.0528 C   0  0  0  0  0  0  0  0  0  0  0  0
  -28.8498  -18.9608   22.1180 C   0  0  0  0  0  0  0  0  0  0  0  0
  -22.2086   -8.8992   20.7290 C   0  0  0  0  0  0  0  0  0  0  0  0
  -27.1132  -27.0600   19.9914 C   0  0  0  0  0  0  0  0  0  0  0  0
  -20.0515   -8.1149   21.2328 C   0  0  0  0  0  0  0  0  0  0  0  0
  -17.7941   -8.1996   22.8698 C   0  0  0  0  0  0  0  0  0  0  0  0
  -18.8110   -8.4550   20.6932 C   0  0  0  0  0  0  0  0  0  0  0  0
  -25.4294  -11.4702   21.6851 C   0  0  0  0  0  0  0  0  0  0  0  0
  -26.9915  -12.6077   22.7345 C   0  0  0  0  0  0  0  0  0  0  0  0
  -29.2254  -23.7989   21.4154 C   0  0  0  0  0  0  0  0  0  0  0  0
  -25.6132  -11.1554   24.2311 C   0  0  0  0  0  0  0  0  0  0  0  0
  -24.3372  -31.7199   20.1999 C   0  0  0  0  0  0  0  0  0  0  0  0
  -24.5769  -31.5983   23.4326 C   0  0  0  0  0  0  0  0  0  0  0  0
  -25.7396  -29.9610   26.1920 C   0  0  0  0  0  0  0  0  0  0  0  0
  -28.5323  -17.4334   20.1786 C   0  0  0  0  0  0  0  0  0  0  0  0
  -21.7011  -35.6483   18.2826 C   0  0  0  0  0  0  0  0  0  0  0  0
  -23.5483  -29.3730   20.6751 C   0  0  0  0  0  0  0  0  0  0  0  0
  -26.0421  -30.0088   22.1318 C   0  0  0  0  0  0  0  0  0  0  0  0
  -22.5982  -35.4245   19.4973 C   0  0  0  0  0  0  0  0  0  0  0  0
  -29.0871  -14.2292   18.4364 C   0  0  0  0  0  0  0  0  0  0  0  0
  -23.8984  -34.7432   19.0823 C   0  0  0  0  0  0  0  0  0  0  0  0
  -28.1762  -13.2663   19.1962 C   0  0  0  0  0  0  0  0  0  0  0  0
  -28.5449  -15.6553   18.4538 C   0  0  0  0  0  0  0  0  0  0  0  0
  -29.2223  -22.6326   19.6668 C   0  0  0  0  0  0  0  0  0  0  0  0
  -27.3630  -15.2149   20.5844 C   0  0  0  0  0  0  0  0  0  0  0  0
  -23.6276  -33.3630   18.4715 C   0  0  1  0  0  0  0  0  0  0  0  0
  -29.2513  -24.1624   19.9145 C   0  0  1  0  0  0  0  0  0  0  0  0
  -23.8172  -30.7655   21.2374 C   0  0  1  0  0  0  0  0  0  0  0  0
  -27.9044  -13.7778   20.6216 C   0  0  1  0  0  0  0  0  0  0  0  0
  -25.8107  -30.1242   28.6951 C   0  0  0  0  0  0  0  0  0  0  0  0
  -26.7312  -33.7494   23.2288 C   0  0  0  0  0  0  0  0  0  0  0  0
  -27.4124  -33.1908   25.5723 C   0  0  0  0  0  0  0  0  0  0  0  0
  -25.1200  -34.0620   25.1158 C   0  0  0  0  0  0  0  0  0  0  0  0
  -29.5623  -16.5677   22.2664 C   0  0  0  0  0  0  0  0  0  0  0  0
  -24.2657  -27.4151   26.5157 C   0  0  0  0  0  0  0  0  0  0  0  0
  -28.0596  -24.9559   19.4146 C   0  0  0  0  0  0  0  0  0  1  0  0
  -25.7094  -31.7024   24.4253 C   0  0  1  0  0  0  0  0  0  0  0  0
  -25.0609  -29.5718   27.4929 C   0  0  2  0  0  0  0  0  0  0  0  0
  -26.2429  -33.1561   24.5654 C   0  0  0  0  0  0  0  0  0  0  0  0
  -26.0387  -12.1680   20.7229 N   0  0  0  0  0  0  0  0  0  0  0  0
  -26.9837  -12.8499   21.3923 N   0  0  0  0  0  0  0  0  0  0  0  0
  -29.2191  -22.4746   21.1155 N   0  0  0  0  0  0  0  0  0  0  0  0
  -24.7888  -30.7547   22.3329 N   0  0  0  0  0  0  0  0  0  0  0  0
  -28.2521  -16.1004   19.8168 N   0  0  0  0  0  0  0  0  0  0  0  0
  -28.2831  -20.5186   25.4314 N   0  0  0  0  0  0  0  0  0  0  0  0
  -27.8769  -13.2101   23.5563 N   0  0  0  0  0  0  0  0  0  0  0  0
  -24.5522  -10.2412   24.2825 N   0  0  0  0  0  0  0  0  0  0  0  0
  -23.3482  -32.3961   19.5114 N   0  0  0  0  0  0  0  0  0  0  0  0
  -25.2152  -31.1247   25.6705 N   0  0  0  0  0  0  0  0  0  0  0  0
  -28.8976  -17.6449   21.5257 N   0  0  0  0  0  0  0  0  0  0  0  0
  -24.9966  -28.0884   27.6200 N   0  3  0  0  0  0  0  0  0  0  0  0
  -29.1842  -24.4092   22.4594 O   0  0  0  0  0  0  0  0  0  0  0  0
  -26.1971  -11.4786   25.2932 O   0  0  0  0  0  0  0  0  0  0  0  0
  -25.5463  -31.8355   20.0372 O   0  0  0  0  0  0  0  0  0  0  0  0
  -23.5396  -32.2361   23.6294 O   0  0  0  0  0  0  0  0  0  0  0  0
  -26.6470  -29.3009   25.6907 O   0  0  0  0  0  0  0  0  0  0  0  0
  -28.4885  -18.3558   19.3557 O   0  0  0  0  0  0  0  0  0  0  0  0
  -21.1728   -8.0716   20.4214 O   0  0  0  0  0  0  0  0  0  0  0  0
  -28.2379  -26.3243   19.7779 O   0  0  0  0  0  0  0  0  0  1  0  0
  -16.7101   -8.2388   23.6556 F   0  0  0  0  0  0  0  0  0  0  0  0
  -18.6972   -8.7409   19.3889 F   0  0  0  0  0  0  0  0  0  0  0  0
  1  2  1  0  0  0  0
  1  5  2  0  0  0  0
  2  6  2  0  0  0  0
  3  8  2  0  0  0  0
  3 18  1  0  0  0  0
  4  9  1  0  0  0  0
  4 18  2  0  0  0  0
  5 20  1  0  0  0  0
  6 22  1  0  0  0  0
  7 10  2  0  0  0  0
  7 21  1  0  0  0  0
  8 27  1  0  0  0  0
  9 27  2  0  0  0  0
 10 28  1  0  0  0  0
 11 12  2  0  0  0  0
 11 29  1  0  0  0  0
 12 30  1  0  0  0  0
 13 23  1  0  0  0  0
 13 28  2  0  0  0  0
 14 24  1  0  0  0  0
 14 25  2  0  0  0  0
 15 24  2  0  0  0  0
 15 26  1  0  0  0  0
 16 25  1  0  0  0  0
 16 26  2  0  0  0  0
 17 30  2  0  0  0  0
 17 31  1  0  0  0  0
 18 32  1  0  0  0  0
 19 32  1  0  0  0  0
 19 33  2  0  0  0  0
 19 35  1  0  0  0  0
 20 22  2  0  0  0  0
 20 40  1  0  0  0  0
 21 23  2  0  0  0  0
 21 41  1  0  0  0  0
 22 50  1  0  0  0  0
 23 42  1  0  0  0  0
 24 66  1  0  0  0  0
 25 69  1  0  0  0  0
 26 74  1  0  0  0  0
 27 82  1  0  0  0  0
 28 83  1  0  0  0  0
 29 31  2  0  0  0  0
 29 82  1  0  0  0  0
 30 84  1  0  0  0  0
 31 85  1  0  0  0  0
 32 64  2  0  0  0  0
 33 65  1  0  0  0  0
 33 70  1  0  0  0  0
 34 51  1  0  0  0  0
 34 66  1  0  0  0  0
 34 76  2  0  0  0  0
 35 71  1  0  0  0  0
 35 77  2  0  0  0  0
 36 52  1  0  0  0  0
 36 72  1  0  0  0  0
 36 78  2  0  0  0  0
 37 61  1  0  0  0  0
 37 67  1  0  0  0  0
 37 79  2  0  0  0  0
 38 62  1  0  0  0  0
 38 73  1  0  0  0  0
 38 80  2  0  0  0  0
 39 68  1  0  0  0  0
 39 74  1  0  0  0  0
 39 81  2  0  0  0  0
 40 43  1  0  0  0  0
 41 52  1  0  0  0  0
 42 67  1  0  0  0  0
 43 45  1  0  0  0  0
 44 46  1  0  0  0  0
 44 47  1  0  0  0  0
 45 50  1  0  0  0  0
 46 53  1  0  0  0  0
 47 68  1  0  0  0  0
 48 51  1  0  0  0  0
 48 66  1  0  0  0  0
 49 53  1  0  0  0  0
 49 68  1  0  0  0  0
 50 72  1  0  0  0  0
 51 60  1  0  0  0  0
 52 67  1  0  0  0  0
 53 65  1  0  0  0  0
 54 62  1  0  0  0  0
 55 63  1  0  0  0  0
 56 63  1  0  0  0  0
 57 63  1  0  0  0  0
 58 74  1  0  0  0  0
 59 75  1  0  0  0  0
 60 83  1  0  0  0  0
 61 63  1  0  0  0  0
 61 73  1  0  0  0  0
 62 75  1  0  0  0  0
 64 65  1  0  0  0  0
M  CHG  1  75   1
M  ISO  4  39 100  60 101  74 100  83 101
M  END
> <Batch ID>
0094

> <Smiles>
CNC(C)C(=O)NC(C(=O)N1Cc2cc([101O:1][101CH2:1]C3CN(c4cc(N)cc([100N:0](C)[100C:0](=O)N5CCCC(n6nc(-c7ccc(Oc8ccc(F)cc8F)cc7)c(C(N)=O)c6N)C5)c4)C3=O)ccc2CC1C(=O)NC1CCCc2ccccc21)C(C)(C)C

> <Shape>
0.264

> <Color>
0.096

> <Negative vol penalty>
0.000

$$$$

  -OEChem-04052300403D

 87 96  0     1  0  0  0  0  0999 V2000
  -23.7374  -13.3482   19.5419 C   0  0  0  0  0  0  0  0  0  0  0  0
  -23.4226  -14.6166   19.0650 C   0  0  0  0  0  0  0  0  0  0  0  0
  -22.9061  -21.5696   22.9163 C   0  0  0  0  0  0  0  0  0  0  0  0
  -20.7472  -20.9523   23.8079 C   0  0  0  0  0  0  0  0  0  0  0  0
  -24.6313  -13.2054   20.6022 C   0  0  0  0  0  0  0  0  0  0  0  0
  -24.0008  -15.7431   19.6489 C   0  0  0  0  0  0  0  0  0  0  0  0
  -26.2902  -22.3295   18.0073 C   0  0  0  0  0  0  0  0  0  0  0  0
  -23.5104  -20.5845   23.6974 C   0  0  0  0  0  0  0  0  0  0  0  0
  -21.3514  -19.9671   24.5889 C   0  0  0  0  0  0  0  0  0  0  0  0
  -26.1407  -23.6544   18.4147 C   0  0  0  0  0  0  0  0  0  0  0  0
  -22.5643  -16.8429   24.1551 C   0  0  0  0  0  0  0  0  0  0  0  0
  -21.9612  -15.5857   24.1905 C   0  0  0  0  0  0  0  0  0  0  0  0
  -24.6182  -28.1486   20.2293 C   0  0  0  0  0  0  0  0  0  0  0  0
  -27.7323  -23.2821   20.1889 C   0  0  0  0  0  0  0  0  0  0  0  0
  -26.9551  -29.6697   20.3188 C   0  0  0  0  0  0  0  0  0  0  0  0
  -21.6772  -15.7894   26.5812 C   0  0  0  0  0  0  0  0  0  0  0  0
  -21.5245  -21.7536   22.9716 C   0  0  0  0  0  0  0  0  0  0  0  0
  -24.5928  -29.4350   20.7678 C   0  0  0  0  0  0  0  0  0  0  0  0
  -20.3994  -22.6315   20.8572 C   0  0  0  0  0  0  0  0  0  0  0  0
  -25.2282  -14.3302   21.1932 C   0  0  0  0  0  0  0  0  0  0  0  0
  -27.1551  -21.4665   18.6955 C   0  0  0  0  0  0  0  0  0  0  0  0
  -24.9025  -15.6153   20.7191 C   0  0  0  0  0  0  0  0  0  0  0  0
  -27.8928  -21.9474   19.7867 C   0  0  0  0  0  0  0  0  0  0  0  0
  -25.8121  -27.6226   19.7355 C   0  0  0  0  0  0  0  0  0  0  0  0
  -26.9805  -28.3832   19.7803 C   0  0  0  0  0  0  0  0  0  0  0  0
  -22.7330  -19.7832   24.5336 C   0  0  0  0  0  0  0  0  0  0  0  0
  -26.8596  -24.1301   19.5074 C   0  0  0  0  0  0  0  0  0  0  0  0
  -22.7240  -17.5733   25.3327 C   0  0  0  0  0  0  0  0  0  0  0  0
  -21.5176  -15.0589   25.4036 C   0  0  0  0  0  0  0  0  0  0  0  0
  -25.7612  -30.1956   20.8126 C   0  0  0  0  0  0  0  0  0  0  0  0
  -22.2804  -17.0466   26.5457 C   0  0  0  0  0  0  0  0  0  0  0  0
  -20.8999  -22.7715   22.1655 C   0  0  0  0  0  0  0  0  0  0  0  0
  -19.9120  -23.8761   20.5410 C   0  0  0  0  0  0  0  0  0  0  0  0
  -28.4747  -27.4413   17.9648 C   0  0  0  0  0  0  0  0  0  0  0  0
  -23.3207  -29.9906   21.2970 C   0  0  0  0  0  0  0  0  0  0  0  0
  -20.3770  -21.4795   20.0039 C   0  0  0  0  0  0  0  0  0  0  0  0
  -26.7946  -18.7655   20.3321 C   0  0  0  0  0  0  0  0  0  0  0  0
  -30.0362  -18.8439   20.4216 C   0  0  0  0  0  0  0  0  0  0  0  0
  -32.8948  -20.7011   20.2607 C   0  0  0  0  0  0  0  0  0  0  0  0
  -21.1952  -29.3731   22.4035 C   0  0  0  0  0  0  0  0  0  0  0  0
  -26.1523  -14.1286   22.3679 C   0  0  0  0  0  0  0  0  0  0  0  0
  -27.3253  -20.0473   18.2271 C   0  0  0  0  0  0  0  0  0  0  0  0
  -28.8497  -21.0670   20.5468 C   0  0  0  0  0  0  0  0  0  0  0  0
  -29.8772  -26.8768   17.9464 C   0  0  0  0  0  0  0  0  0  0  0  0
  -27.0089  -15.3515   22.6859 C   0  0  0  0  0  0  0  0  0  0  0  0
  -30.5155  -27.4837   19.1798 C   0  0  0  0  0  0  0  0  0  0  0  0
  -18.0378  -27.7923   22.5730 C   0  0  0  0  0  0  0  0  0  0  0  0
  -26.1550  -16.6155   22.6881 C   0  0  0  0  0  0  0  0  0  0  0  0
  -18.3626  -26.3123   22.3530 C   0  0  0  0  0  0  0  0  0  0  0  0
  -29.3551  -27.6245   20.1426 C   0  0  0  0  0  0  0  0  0  0  0  0
  -19.1089  -28.4900   23.4101 C   0  0  0  0  0  0  0  0  0  0  0  0
  -20.8057  -26.8522   22.7053 C   0  0  0  0  0  0  0  0  0  0  0  0
  -25.5281  -16.8601   21.3101 C   0  0  1  0  0  0  0  0  0  0  0  0
  -27.8460  -19.1164   19.3178 C   0  0  1  0  0  0  0  0  0  0  0  0
  -19.7927  -26.1219   21.8088 C   0  0  1  0  0  0  0  0  0  0  0  0
  -35.3913  -20.4909   20.4056 C   0  0  0  0  0  0  0  0  0  0  0  0
  -29.8345  -18.5666   23.4535 C   0  0  0  0  0  0  0  0  0  0  0  0
  -32.2206  -19.3084   23.6102 C   0  0  0  0  0  0  0  0  0  0  0  0
  -31.6475  -17.2040   22.3996 C   0  0  0  0  0  0  0  0  0  0  0  0
  -33.2560  -21.7087   17.5015 C   0  0  0  0  0  0  0  0  0  0  0  0
  -25.8099  -26.2361   19.1622 C   0  0  0  0  0  0  0  0  0  1  0  0
  -31.0660  -19.4320   21.3558 C   0  0  1  0  0  0  0  0  0  0  0  0
  -34.1829  -20.5021   19.4823 C   0  0  2  0  0  0  0  0  0  0  0  0
  -31.1727  -18.6441   22.6919 C   0  0  0  0  0  0  0  0  0  0  0  0
  -20.7449  -24.0075   22.6474 N   0  0  0  0  0  0  0  0  0  0  0  0
  -20.1416  -24.6556   21.6364 N   0  0  0  0  0  0  0  0  0  0  0  0
  -28.2120  -27.8632   19.2828 N   0  0  0  0  0  0  0  0  0  0  0  0
  -28.9766  -19.6854   20.0541 N   0  0  0  0  0  0  0  0  0  0  0  0
  -20.4319  -28.2697   22.8232 N   0  0  0  0  0  0  0  0  0  0  0  0
  -19.3139  -24.3689   19.4356 N   0  0  0  0  0  0  0  0  0  0  0  0
  -20.9196  -20.2805   20.4858 N   0  0  0  0  0  0  0  0  0  0  0  0
  -22.4255  -29.0556   21.8173 N   0  0  0  0  0  0  0  0  0  0  0  0
  -26.5074  -17.4155   20.4008 N   0  0  0  0  0  0  0  0  0  0  0  0
  -32.3121  -19.4984   20.6000 N   0  0  0  0  0  0  0  0  0  0  0  0
  -34.3615  -21.5974   18.4877 N   0  3  0  0  0  0  0  0  0  0  0  0
  -27.7505  -27.4353   16.9801 O   0  0  0  0  0  0  0  0  0  0  0  0
  -23.1483  -31.2064   21.2849 O   0  0  0  0  0  0  0  0  0  0  0  0
  -19.9050  -21.5166   18.8423 O   0  0  0  0  0  0  0  0  0  0  0  0
  -26.2828  -19.6535   21.0038 O   0  0  0  0  0  0  0  0  0  0  0  0
  -30.1709  -17.6831   20.0266 O   0  0  0  0  0  0  0  0  0  0  0  0
  -32.4521  -21.8123   20.5430 O   0  0  0  0  0  0  0  0  0  0  0  0
  -20.7994  -30.5384   22.5065 O   0  0  0  0  0  0  0  0  0  0  0  0
  -23.3222  -18.8217   25.2957 O   0  0  0  0  0  0  0  0  0  0  0  0
  -26.7151  -25.4228   19.9076 O   0  0  0  0  0  0  0  0  0  1  0  0
  -20.9371  -13.8523   25.4372 F   0  0  0  0  0  0  0  0  0  0  0  0
  -25.7484  -31.4317   21.3312 F   0  0  0  0  0  0  0  0  0  0  0  0
  -22.4299  -17.7442   27.6801 F   0  0  0  0  0  0  0  0  0  0  0  0
  1  2  1  0  0  0  0
  1  5  2  0  0  0  0
  2  6  2  0  0  0  0
  3  8  2  0  0  0  0
  3 17  1  0  0  0  0
  4  9  1  0  0  0  0
  4 17  2  0  0  0  0
  5 20  1  0  0  0  0
  6 22  1  0  0  0  0
  7 10  2  0  0  0  0
  7 21  1  0  0  0  0
  8 26  1  0  0  0  0
  9 26  2  0  0  0  0
 10 27  1  0  0  0  0
 11 12  2  0  0  0  0
 11 28  1  0  0  0  0
 12 29  1  0  0  0  0
 13 18  2  0  0  0  0
 13 24  1  0  0  0  0
 14 23  1  0  0  0  0
 14 27  2  0  0  0  0
 15 25  1  0  0  0  0
 15 30  2  0  0  0  0
 16 29  2  0  0  0  0
 16 31  1  0  0  0  0
 17 32  1  0  0  0  0
 18 30  1  0  0  0  0
 18 35  1  0  0  0  0
 19 32  1  0  0  0  0
 19 33  2  0  0  0  0
 19 36  1  0  0  0  0
 20 22  2  0  0  0  0
 20 41  1  0  0  0  0
 21 23  2  0  0  0  0
 21 42  1  0  0  0  0
 22 53  1  0  0  0  0
 23 43  1  0  0  0  0
 24 25  2  0  0  0  0
 24 61  1  0  0  0  0
 25 67  1  0  0  0  0
 26 83  1  0  0  0  0
 27 84  1  0  0  0  0
 28 31  2  0  0  0  0
 28 83  1  0  0  0  0
 29 85  1  0  0  0  0
 30 86  1  0  0  0  0
 31 87  1  0  0  0  0
 32 65  2  0  0  0  0
 33 66  1  0  0  0  0
 33 70  1  0  0  0  0
 34 44  1  0  0  0  0
 34 67  1  0  0  0  0
 34 76  2  0  0  0  0
 35 72  1  0  0  0  0
 35 77  2  0  0  0  0
 36 71  1  0  0  0  0
 36 78  2  0  0  0  0
 37 54  1  0  0  0  0
 37 73  1  0  0  0  0
 37 79  2  0  0  0  0
 38 62  1  0  0  0  0
 38 68  1  0  0  0  0
 38 80  2  0  0  0  0
 39 63  1  0  0  0  0
 39 74  1  0  0  0  0
 39 81  2  0  0  0  0
 40 69  1  0  0  0  0
 40 72  1  0  0  0  0
 40 82  2  0  0  0  0
 41 45  1  0  0  0  0
 42 54  1  0  0  0  0
 43 68  1  0  0  0  0
 44 46  1  0  0  0  0
 45 48  1  0  0  0  0
 46 50  1  0  0  0  0
 47 49  1  0  0  0  0
 47 51  1  0  0  0  0
 48 53  1  0  0  0  0
 49 55  1  0  0  0  0
 50 67  1  0  0  0  0
 51 69  1  0  0  0  0
 52 55  1  0  0  0  0
 52 69  1  0  0  0  0
 53 73  1  0  0  0  0
 54 68  1  0  0  0  0
 55 66  1  0  0  0  0
 56 63  1  0  0  0  0
 57 64  1  0  0  0  0
 58 64  1  0  0  0  0
 59 64  1  0  0  0  0
 60 75  1  0  0  0  0
 61 84  1  0  0  0  0
 62 64  1  0  0  0  0
 62 74  1  0  0  0  0
 63 75  1  0  0  0  0
 65 66  1  0  0  0  0
M  CHG  1  75   1
M  ISO  4  40 100  61 101  72 100  84 101
M  END
> <Batch ID>
0094

> <Smiles>
CNC(C)C(=O)NC(C(=O)N1Cc2cc([101O:1][101CH2:1]c3cc(C(=O)[100NH:0][100C:0](=O)N4CCCC(n5nc(-c6ccc(Oc7ccc(F)cc7F)cc6)c(C(N)=O)c5N)C4)c(F)cc3N3CCCC3=O)ccc2CC1C(=O)NC1CCCc2ccccc21)C(C)(C)C

> <Shape>
0.214

> <Color>
0.051

> <Negative vol penalty>
0.000

$$$$

  -OEChem-04052300403D

 86 95  0     1  0  0  0  0  0999 V2000
  -20.2962  -11.3193   18.2782 C   0  0  0  0  0  0  0  0  0  0  0  0
  -20.6952  -12.5650   17.8044 C   0  0  0  0  0  0  0  0  0  0  0  0
  -29.2010  -25.9599   23.8291 C   0  0  0  0  0  0  0  0  0  0  0  0
  -20.2273  -28.3951   23.3654 C   0  0  0  0  0  0  0  0  0  0  0  0
  -19.8483  -26.2699   22.2805 C   0  0  0  0  0  0  0  0  0  0  0  0
  -20.8806  -10.7927   19.4293 C   0  0  0  0  0  0  0  0  0  0  0  0
  -21.6782  -13.2853   18.4822 C   0  0  0  0  0  0  0  0  0  0  0  0
  -27.0539  -17.8700   17.2995 C   0  0  0  0  0  0  0  0  0  0  0  0
  -29.3251  -25.0288   22.7980 C   0  0  0  0  0  0  0  0  0  0  0  0
  -29.0387  -27.3129   23.5313 C   0  0  0  0  0  0  0  0  0  0  0  0
  -18.8509  -28.6151   23.4154 C   0  0  0  0  0  0  0  0  0  0  0  0
  -18.4718  -26.4899   22.3306 C   0  0  0  0  0  0  0  0  0  0  0  0
  -27.5233  -19.1121   17.7244 C   0  0  0  0  0  0  0  0  0  0  0  0
  -15.9972  -26.2685   24.6215 C   0  0  0  0  0  0  0  0  0  0  0  0
  -15.1878  -25.2098   25.0333 C   0  0  0  0  0  0  0  0  0  0  0  0
  -28.5191  -18.0679   19.6575 C   0  0  0  0  0  0  0  0  0  0  0  0
  -30.1795  -23.4478   18.6466 C   0  0  0  0  0  0  0  0  0  0  0  0
  -29.1249  -26.8037   21.1712 C   0  0  0  0  0  0  0  0  0  0  0  0
  -14.0339  -25.2666   22.9115 C   0  0  0  0  0  0  0  0  0  0  0  0
  -20.7261  -27.2225   22.7979 C   0  0  0  0  0  0  0  0  0  0  0  0
  -22.9431  -26.3572   23.7164 C   0  0  0  0  0  0  0  0  0  0  0  0
  -21.8781  -11.5026   20.1161 C   0  0  0  0  0  0  0  0  0  0  0  0
  -27.3047  -16.7171   18.0574 C   0  0  0  0  0  0  0  0  0  0  0  0
  -22.2755  -12.7683   19.6444 C   0  0  0  0  0  0  0  0  0  0  0  0
  -28.0539  -16.8119   19.2387 C   0  0  0  0  0  0  0  0  0  0  0  0
  -29.0207  -22.7777   19.1104 C   0  0  0  0  0  0  0  0  0  0  0  0
  -29.2871  -25.4507   21.4690 C   0  0  0  0  0  0  0  0  0  0  0  0
  -29.0008  -27.7348   22.2023 C   0  0  0  0  0  0  0  0  0  0  0  0
  -17.9731  -27.6625   22.8980 C   0  0  0  0  0  0  0  0  0  0  0  0
  -28.2535  -19.2117   18.9050 C   0  0  0  0  0  0  0  0  0  0  0  0
  -15.8249  -26.8263   23.3546 C   0  0  0  0  0  0  0  0  0  0  0  0
  -14.2062  -24.7089   24.1783 C   0  0  0  0  0  0  0  0  0  0  0  0
  -14.8433  -26.3253   22.4996 C   0  0  0  0  0  0  0  0  0  0  0  0
  -22.1479  -26.9949   22.7454 C   0  0  0  0  0  0  0  0  0  0  0  0
  -28.5661  -23.4600   20.2172 C   0  0  0  0  0  0  0  0  0  0  0  0
  -24.2143  -26.3944   23.1975 C   0  0  0  0  0  0  0  0  0  0  0  0
  -30.3979  -24.5193   19.4843 C   0  0  0  0  0  0  0  0  0  0  0  0
  -22.5664  -25.7824   24.9747 C   0  0  0  0  0  0  0  0  0  0  0  0
  -25.4917  -14.5855   19.5651 C   0  0  0  0  0  0  0  0  0  0  0  0
  -28.3273  -13.0792   20.0266 C   0  0  0  0  0  0  0  0  0  0  0  0
  -31.7255  -13.3043   20.2458 C   0  0  0  0  0  0  0  0  0  0  0  0
  -28.1959  -29.5980   20.7285 C   0  0  0  0  0  0  0  0  0  0  0  0
  -22.4469  -10.9135   21.3826 C   0  0  0  0  0  0  0  0  0  0  0  0
  -26.8143  -15.3807   17.5715 C   0  0  0  0  0  0  0  0  0  0  0  0
  -28.3677  -15.6013   20.0781 C   0  0  0  0  0  0  0  0  0  0  0  0
  -23.7481  -11.5741   21.8307 C   0  0  0  0  0  0  0  0  0  0  0  0
  -25.8995  -27.6234   18.6023 C   0  0  0  0  0  0  0  0  0  0  0  0
  -23.6237  -13.0933   21.7710 C   0  0  0  0  0  0  0  0  0  0  0  0
  -24.7459  -27.3065   19.5521 C   0  0  0  0  0  0  0  0  0  0  0  0
  -26.5903  -28.9338   18.9675 C   0  0  0  0  0  0  0  0  0  0  0  0
  -25.9110  -28.6643   21.3355 C   0  0  0  0  0  0  0  0  0  0  0  0
  -23.3563  -13.5689   20.3379 C   0  0  1  0  0  0  0  0  0  0  0  0
  -26.6883  -14.3486   18.6879 C   0  0  1  0  0  0  0  0  0  0  0  0
  -25.2245  -27.3286   21.0131 C   0  0  1  0  0  0  0  0  0  0  0  0
  -27.3952  -23.1862   21.0805 C   0  0  0  0  0  0  0  0  0  0  0  0
  -33.7689  -11.9104   20.6689 C   0  0  0  0  0  0  0  0  0  0  0  0
  -27.6735  -13.0298   23.0065 C   0  0  0  0  0  0  0  0  0  0  0  0
  -30.0834  -12.5210   23.4557 C   0  0  0  0  0  0  0  0  0  0  0  0
  -28.6999  -10.9250   22.1286 C   0  0  0  0  0  0  0  0  0  0  0  0
  -29.5804  -30.1042   22.6928 C   0  0  0  0  0  0  0  0  0  0  0  0
  -32.8420  -13.9222   17.5755 C   0  0  0  0  0  0  0  0  0  0  0  0
  -28.4088  -21.5503   18.5017 C   0  0  0  0  0  0  0  0  0  1  0  0
  -29.3995  -13.1206   21.0885 C   0  0  1  0  0  0  0  0  0  0  0  0
  -32.8325  -12.4795   19.6144 C   0  0  2  0  0  0  0  0  0  0  0  0
  -28.9567  -12.4224   22.4052 C   0  0  0  0  0  0  0  0  0  0  0  0
  -22.8547  -27.4072   21.6898 N   0  0  0  0  0  0  0  0  0  0  0  0
  -29.4112  -24.5167   20.4354 N   0  0  0  0  0  0  0  0  0  0  0  0
  -24.1074  -27.0278   21.9944 N   0  0  0  0  0  0  0  0  0  0  0  0
  -27.8610  -14.3181   19.5643 N   0  0  0  0  0  0  0  0  0  0  0  0
  -26.9866  -28.9643   20.3763 N   0  0  0  0  0  0  0  0  0  0  0  0
  -25.4019  -25.9468   23.6576 N   0  0  0  0  0  0  0  0  0  0  0  0
  -21.2180  -25.8301   25.3541 N   0  0  0  0  0  0  0  0  0  0  0  0
  -24.5780  -13.5489   19.5624 N   0  0  0  0  0  0  0  0  0  0  0  0
  -30.5968  -12.5485   20.4822 N   0  0  0  0  0  0  0  0  0  0  0  0
  -28.8336  -29.1343   21.8949 N   0  0  0  0  0  0  0  0  0  0  0  0
  -33.6333  -13.3177   18.6779 N   0  3  0  0  0  0  0  0  0  0  0  0
  -23.4034  -25.2572   25.7475 O   0  0  0  0  0  0  0  0  0  0  0  0
  -25.4046  -15.6308   20.1988 O   0  0  0  0  0  0  0  0  0  0  0  0
  -27.9236  -11.9879   19.6170 O   0  0  0  0  0  0  0  0  0  0  0  0
  -31.8510  -14.4987   20.5069 O   0  0  0  0  0  0  0  0  0  0  0  0
  -28.6492  -30.5493   20.0802 O   0  0  0  0  0  0  0  0  0  0  0  0
  -31.3505  -25.4440   19.4689 O   0  0  0  0  0  0  0  0  0  0  0  0
  -16.6299  -27.8768   22.9469 O   0  0  0  0  0  0  0  0  0  0  0  0
  -28.7122  -20.4230   19.3224 O   0  0  0  0  0  0  0  0  0  1  0  0
  -13.4300  -23.6912   24.5734 F   0  0  0  0  0  0  0  0  0  0  0  0
  -14.6738  -26.8563   21.2810 F   0  0  0  0  0  0  0  0  0  0  0  0
  1  2  1  0  0  0  0
  1  6  2  0  0  0  0
  2  7  2  0  0  0  0
  3  9  2  0  0  0  0
  3 10  1  0  0  0  0
  4 11  2  0  0  0  0
  4 20  1  0  0  0  0
  5 12  1  0  0  0  0
  5 20  2  0  0  0  0
  6 22  1  0  0  0  0
  7 24  1  0  0  0  0
  8 13  2  0  0  0  0
  8 23  1  0  0  0  0
  9 27  1  0  0  0  0
 10 28  2  0  0  0  0
 11 29  1  0  0  0  0
 12 29  2  0  0  0  0
 13 30  1  0  0  0  0
 14 15  2  0  0  0  0
 14 31  1  0  0  0  0
 15 32  1  0  0  0  0
 16 25  1  0  0  0  0
 16 30  2  0  0  0  0
 17 26  1  0  0  0  0
 17 37  2  0  0  0  0
 18 27  2  0  0  0  0
 18 28  1  0  0  0  0
 19 32  2  0  0  0  0
 19 33  1  0  0  0  0
 20 34  1  0  0  0  0
 21 34  1  0  0  0  0
 21 36  2  0  0  0  0
 21 38  1  0  0  0  0
 22 24  2  0  0  0  0
 22 43  1  0  0  0  0
 23 25  2  0  0  0  0
 23 44  1  0  0  0  0
 24 52  1  0  0  0  0
 25 45  1  0  0  0  0
 26 35  2  0  0  0  0
 26 62  1  0  0  0  0
 27 67  1  0  0  0  0
 28 75  1  0  0  0  0
 29 83  1  0  0  0  0
 30 84  1  0  0  0  0
 31 33  2  0  0  0  0
 31 83  1  0  0  0  0
 32 85  1  0  0  0  0
 33 86  1  0  0  0  0
 34 66  2  0  0  0  0
 35 55  1  0  0  0  0
 35 67  1  0  0  0  0
 36 68  1  0  0  0  0
 36 71  1  0  0  0  0
 37 67  1  0  0  0  0
 37 82  1  0  0  0  0
 38 72  1  0  0  0  0
 38 77  2  0  0  0  0
 39 53  1  0  0  0  0
 39 73  1  0  0  0  0
 39 78  2  0  0  0  0
 40 63  1  0  0  0  0
 40 69  1  0  0  0  0
 40 79  2  0  0  0  0
 41 64  1  0  0  0  0
 41 74  1  0  0  0  0
 41 80  2  0  0  0  0
 42 70  1  0  0  0  0
 42 75  1  0  0  0  0
 42 81  2  0  0  0  0
 43 46  1  0  0  0  0
 44 53  1  0  0  0  0
 45 69  1  0  0  0  0
 46 48  1  0  0  0  0
 47 49  1  0  0  0  0
 47 50  1  0  0  0  0
 48 52  1  0  0  0  0
 49 54  1  0  0  0  0
 50 70  1  0  0  0  0
 51 54  1  0  0  0  0
 51 70  1  0  0  0  0
 52 73  1  0  0  0  0
 53 69  1  0  0  0  0
 54 68  1  0  0  0  0
 56 64  1  0  0  0  0
 57 65  1  0  0  0  0
 58 65  1  0  0  0  0
 59 65  1  0  0  0  0
 60 75  1  0  0  0  0
 61 76  1  0  0  0  0
 62 84  1  0  0  0  0
 63 65  1  0  0  0  0
 63 74  1  0  0  0  0
 64 76  1  0  0  0  0
 66 68  1  0  0  0  0
M  CHG  1  76   1
M  ISO  4  42 100  62 101  75 100  84 101
M  END
> <Batch ID>
0094

> <Smiles>
CNC(C)C(=O)NC(C(=O)N1Cc2cc([101O:1][101CH2:1]C3=C(C)N(c4cccc([100N:0](C)[100C:0](=O)N5CCCC(n6nc(-c7ccc(Oc8ccc(F)cc8F)cc7)c(C(N)=O)c6N)C5)c4)C(=O)C3)ccc2CC1C(=O)NC1CCCc2ccccc21)C(C)(C)C

> <Shape>
0.251

> <Color>
0.090

> <Negative vol penalty>
0.000

$$$$

  -OEChem-04052300403D

 85 93  0     1  0  0  0  0  0999 V2000
  -28.4645  -36.1690   20.3378 C   0  0  0  0  0  0  0  0  0  0  0  0
  -28.4408  -34.8455   20.7658 C   0  0  0  0  0  0  0  0  0  0  0  0
  -24.5990   -8.5112   21.3598 C   0  0  0  0  0  0  0  0  0  0  0  0
  -23.2306  -10.4442   21.8370 C   0  0  0  0  0  0  0  0  0  0  0  0
  -27.4279  -37.0327   20.6891 C   0  0  0  0  0  0  0  0  0  0  0  0
  -27.3809  -34.3853   21.5464 C   0  0  0  0  0  0  0  0  0  0  0  0
  -25.6577  -29.8753   20.0182 C   0  0  0  0  0  0  0  0  0  0  0  0
  -28.2451  -21.8384   21.0858 C   0  0  0  0  0  0  0  0  0  0  0  0
  -28.5813  -20.4858   21.0312 C   0  0  0  0  0  0  0  0  0  0  0  0
  -23.9328   -7.7942   22.3536 C   0  0  0  0  0  0  0  0  0  0  0  0
  -22.5643   -9.7272   22.8308 C   0  0  0  0  0  0  0  0  0  0  0  0
  -26.4020  -28.7533   20.3801 C   0  0  0  0  0  0  0  0  0  0  0  0
  -20.9834   -6.1789   22.7072 C   0  0  0  0  0  0  0  0  0  0  0  0
  -20.5800   -4.8777   22.4078 C   0  0  0  0  0  0  0  0  0  0  0  0
  -24.8588  -28.3185   22.1825 C   0  0  0  0  0  0  0  0  0  0  0  0
  -29.3210  -22.1922   18.9518 C   0  0  0  0  0  0  0  0  0  0  0  0
  -21.9418   -4.0389   24.2186 C   0  0  0  0  0  0  0  0  0  0  0  0
  -24.2479   -9.8363   21.1016 C   0  0  0  0  0  0  0  0  0  0  0  0
  -24.5889  -10.6681   18.7142 C   0  0  0  0  0  0  0  0  0  0  0  0
  -26.3500  -36.5803   21.4663 C   0  0  0  0  0  0  0  0  0  0  0  0
  -24.5126  -30.2341   20.7437 C   0  0  0  0  0  0  0  0  0  0  0  0
  -26.3296  -35.2441   21.9096 C   0  0  0  0  0  0  0  0  0  0  0  0
  -24.1003  -29.4440   21.8262 C   0  0  0  0  0  0  0  0  0  0  0  0
  -28.6149  -22.6916   20.0461 C   0  0  0  0  0  0  0  0  0  0  0  0
  -29.2875  -19.9864   19.9369 C   0  0  0  0  0  0  0  0  0  0  0  0
  -22.9154   -8.4022   23.0891 C   0  0  0  0  0  0  0  0  0  0  0  0
  -26.0042  -27.9764   21.4642 C   0  0  0  0  0  0  0  0  0  0  0  0
  -21.8660   -6.4102   23.7623 C   0  0  0  0  0  0  0  0  0  0  0  0
  -21.0592   -3.8077   23.1635 C   0  0  0  0  0  0  0  0  0  0  0  0
  -29.6573  -20.8395   18.8971 C   0  0  0  0  0  0  0  0  0  0  0  0
  -22.3452   -5.3402   24.5180 C   0  0  0  0  0  0  0  0  0  0  0  0
  -24.9362  -10.5776   20.0755 C   0  0  0  0  0  0  0  0  0  0  0  0
  -25.5496  -11.4840   18.1684 C   0  0  0  0  0  0  0  0  0  0  0  0
  -23.4957  -10.0684   18.0065 C   0  0  0  0  0  0  0  0  0  0  0  0
  -23.6483  -32.7631   22.4643 C   0  0  0  0  0  0  0  0  0  0  0  0
  -28.9465  -15.6867   20.6328 C   0  0  0  0  0  0  0  0  0  0  0  0
  -20.7984  -31.2185   22.5859 C   0  0  0  0  0  0  0  0  0  0  0  0
  -29.9148  -17.8726   20.9269 C   0  0  0  0  0  0  0  0  0  0  0  0
  -27.5792  -24.7236   21.1102 C   0  0  0  0  0  0  0  0  0  0  0  0
  -19.0907  -28.2699   22.3946 C   0  0  0  0  0  0  0  0  0  0  0  0
  -25.2763  -37.5634   21.8605 C   0  0  0  0  0  0  0  0  0  0  0  0
  -23.7056  -31.4320   20.3240 C   0  0  0  0  0  0  0  0  0  0  0  0
  -22.8671  -29.7747   22.6251 C   0  0  0  0  0  0  0  0  0  0  0  0
  -24.0022  -36.8994   22.3763 C   0  0  0  0  0  0  0  0  0  0  0  0
  -30.1042  -12.8127   18.7283 C   0  0  0  0  0  0  0  0  0  0  0  0
  -24.3406  -35.8056   23.3842 C   0  0  0  0  0  0  0  0  0  0  0  0
  -28.8735  -11.9076   18.7623 C   0  0  0  0  0  0  0  0  0  0  0  0
  -30.2608  -13.5963   20.0289 C   0  0  0  0  0  0  0  0  0  0  0  0
  -27.8218  -13.4919   20.4348 C   0  0  0  0  0  0  0  0  0  0  0  0
  -25.1848  -34.7010   22.7370 C   0  0  1  0  0  0  0  0  0  0  0  0
  -22.8460  -31.9977   21.4503 C   0  0  1  0  0  0  0  0  0  0  0  0
  -27.6108  -12.7067   19.1295 C   0  0  2  0  0  0  0  0  0  0  0  0
  -16.7750  -27.3195   22.5730 C   0  0  0  0  0  0  0  0  0  0  0  0
  -20.9265  -31.4829   25.6229 C   0  0  0  0  0  0  0  0  0  0  0  0
  -19.1414  -29.7345   25.7807 C   0  0  0  0  0  0  0  0  0  0  0  0
  -18.6674  -31.8985   24.6340 C   0  0  0  0  0  0  0  0  0  0  0  0
  -19.1585  -27.2761   19.6077 C   0  0  0  0  0  0  0  0  0  0  0  0
  -30.2371  -16.4650   20.5806 C   0  0  0  0  0  0  0  0  0  0  0  0
  -27.4247  -26.1963   20.7789 C   0  0  0  0  0  0  0  0  0  1  0  0
  -20.1708  -30.2041   23.5112 C   0  0  1  0  0  0  0  0  0  0  0  0
  -17.8339  -27.8811   21.6370 C   0  0  2  0  0  0  0  0  0  0  0  0
  -19.7509  -30.8246   24.8736 C   0  0  0  0  0  0  0  0  0  0  0  0
  -26.0319  -11.2798   20.3759 N   0  0  0  0  0  0  0  0  0  0  0  0
  -26.3816  -11.8192   19.1957 N   0  0  0  0  0  0  0  0  0  0  0  0
  -22.1151  -30.9594   22.1796 N   0  0  0  0  0  0  0  0  0  0  0  0
  -29.0277  -14.3214   20.3577 N   0  0  0  0  0  0  0  0  0  0  0  0
  -25.7553  -11.9401   16.9146 N   0  0  0  0  0  0  0  0  0  0  0  0
  -22.6018   -9.2585   18.7201 N   0  0  0  0  0  0  0  0  0  0  0  0
  -30.0022  -18.1628   22.2237 N   0  0  0  0  0  0  0  0  0  0  0  0
  -28.2738  -24.0638   20.1021 N   0  0  0  0  0  0  0  0  0  0  0  0
  -24.3503  -33.8302   21.9371 N   0  0  0  0  0  0  0  0  0  0  0  0
  -19.0724  -29.5974   22.7670 N   0  0  0  0  0  0  0  0  0  0  0  0
  -29.6142  -18.6723   19.8860 N   0  3  0  0  0  0  0  0  0  0  0  0
  -18.1474  -26.8489   20.6088 N   0  3  0  0  0  0  0  0  0  0  0  0
  -23.3263  -10.2322   16.7744 O   0  0  0  0  0  0  0  0  0  0  0  0
  -23.6305  -32.4124   23.6384 O   0  0  0  0  0  0  0  0  0  0  0  0
  -27.8984  -16.2768   20.9072 O   0  0  0  0  0  0  0  0  0  0  0  0
  -20.1421  -32.2007   22.2309 O   0  0  0  0  0  0  0  0  0  0  0  0
  -27.1268  -24.2472   22.1460 O   0  0  0  0  0  0  0  0  0  0  0  0
  -19.9962  -27.4746   22.6354 O   0  0  0  0  0  0  0  0  0  0  0  0
  -22.2649   -7.7027   24.0588 O   0  0  0  0  0  0  0  0  0  0  0  0
  -26.7293  -26.8811   21.8199 O   0  0  0  0  0  0  0  0  0  1  0  0
  -20.6705   -2.5583   22.8768 F   0  0  0  0  0  0  0  0  0  0  0  0
  -30.3370  -20.3676   17.8428 F   0  0  0  0  0  0  0  0  0  0  0  0
  -23.1924   -5.5562   25.5336 F   0  0  0  0  0  0  0  0  0  0  0  0
  1  2  1  0  0  0  0
  1  5  2  0  0  0  0
  2  6  2  0  0  0  0
  3 10  2  0  0  0  0
  3 18  1  0  0  0  0
  4 11  1  0  0  0  0
  4 18  2  0  0  0  0
  5 20  1  0  0  0  0
  6 22  1  0  0  0  0
  7 12  2  0  0  0  0
  7 21  1  0  0  0  0
  8  9  2  0  0  0  0
  8 24  1  0  0  0  0
  9 25  1  0  0  0  0
 10 26  1  0  0  0  0
 11 26  2  0  0  0  0
 12 27  1  0  0  0  0
 13 14  2  0  0  0  0
 13 28  1  0  0  0  0
 14 29  1  0  0  0  0
 15 23  1  0  0  0  0
 15 27  2  0  0  0  0
 16 24  2  0  0  0  0
 16 30  1  0  0  0  0
 17 29  2  0  0  0  0
 17 31  1  0  0  0  0
 18 32  1  0  0  0  0
 19 32  1  0  0  0  0
 19 33  2  0  0  0  0
 19 34  1  0  0  0  0
 20 22  2  0  0  0  0
 20 41  1  0  0  0  0
 21 23  2  0  0  0  0
 21 42  1  0  0  0  0
 22 50  1  0  0  0  0
 23 43  1  0  0  0  0
 24 70  1  0  0  0  0
 25 30  2  0  0  0  0
 25 73  1  0  0  0  0
 26 81  1  0  0  0  0
 27 82  1  0  0  0  0
 28 31  2  0  0  0  0
 28 81  1  0  0  0  0
 29 83  1  0  0  0  0
 30 84  1  0  0  0  0
 31 85  1  0  0  0  0
 32 63  2  0  0  0  0
 33 64  1  0  0  0  0
 33 67  1  0  0  0  0
 34 68  1  0  0  0  0
 34 75  2  0  0  0  0
 35 51  1  0  0  0  0
 35 71  1  0  0  0  0
 35 76  2  0  0  0  0
 36 58  1  0  0  0  0
 36 66  1  0  0  0  0
 36 77  2  0  0  0  0
 37 60  1  0  0  0  0
 37 65  1  0  0  0  0
 37 78  2  0  0  0  0
 38 58  1  0  0  0  0
 38 69  1  0  0  0  0
 38 73  2  0  0  0  0
 39 59  1  0  0  0  0
 39 70  1  0  0  0  0
 39 79  2  0  0  0  0
 40 61  1  0  0  0  0
 40 72  1  0  0  0  0
 40 80  2  0  0  0  0
 41 44  1  0  0  0  0
 42 51  1  0  0  0  0
 43 65  1  0  0  0  0
 44 46  1  0  0  0  0
 45 47  1  0  0  0  0
 45 48  1  0  0  0  0
 46 50  1  0  0  0  0
 47 52  1  0  0  0  0
 48 66  1  0  0  0  0
 49 52  1  0  0  0  0
 49 66  1  0  0  0  0
 50 71  1  0  0  0  0
 51 65  1  0  0  0  0
 52 64  1  0  0  0  0
 53 61  1  0  0  0  0
 54 62  1  0  0  0  0
 55 62  1  0  0  0  0
 56 62  1  0  0  0  0
 57 74  1  0  0  0  0
 59 82  1  0  0  0  0
 60 62  1  0  0  0  0
 60 72  1  0  0  0  0
 61 74  1  0  0  0  0
 63 64  1  0  0  0  0
M  CHG  2  73   1  74   1
M  ISO  4  36 100  58 100  59 101  82 101
M  END
> <Batch ID>
0094

> <Smiles>
CNC(C)C(=O)NC(C(=O)N1Cc2cc([101O:1][101CH2:1]C(=O)Nc3ccc(NC(=N)[100CH2:0][100C:0](=O)N4CCCC(n5nc(-c6ccc(Oc7ccc(F)cc7F)cc6)c(C(N)=O)c5N)C4)c(F)c3)ccc2CC1C(=O)NC1CCCc2ccccc21)C(C)(C)C

> <Shape>
0.327

> <Color>
0.081

> <Negative vol penalty>
0.000

$$$$

  -OEChem-04052300403D

 87 96  0     1  0  0  0  0  0999 V2000
  -22.7809  -18.2744   30.7253 C   0  0  0  0  0  0  0  0  0  0  0  0
  -23.9204  -18.7980   30.1228 C   0  0  0  0  0  0  0  0  0  0  0  0
  -23.2132   -9.8298   19.9491 C   0  0  0  0  0  0  0  0  0  0  0  0
  -23.8185   -9.9743   22.2836 C   0  0  0  0  0  0  0  0  0  0  0  0
  -21.5361  -18.4361   30.1185 C   0  0  0  0  0  0  0  0  0  0  0  0
  -23.8158  -19.4826   28.9125 C   0  0  0  0  0  0  0  0  0  0  0  0
  -27.1616  -24.2793   27.0951 C   0  0  0  0  0  0  0  0  0  0  0  0
  -22.5140   -8.6500   20.2034 C   0  0  0  0  0  0  0  0  0  0  0  0
  -23.1192   -8.7944   22.5379 C   0  0  0  0  0  0  0  0  0  0  0  0
  -28.2779  -24.3843   26.2665 C   0  0  0  0  0  0  0  0  0  0  0  0
  -19.5205   -7.7584   21.4984 C   0  0  0  0  0  0  0  0  0  0  0  0
  -18.2526   -7.6218   20.9333 C   0  0  0  0  0  0  0  0  0  0  0  0
  -26.8385  -24.9141   24.4046 C   0  0  0  0  0  0  0  0  0  0  0  0
  -30.3855  -19.5196   20.3889 C   0  0  0  0  0  0  0  0  0  0  0  0
  -29.6964  -19.6418   22.7013 C   0  0  0  0  0  0  0  0  0  0  0  0
  -18.9964   -5.6575   19.7394 C   0  0  0  0  0  0  0  0  0  0  0  0
  -23.8656  -10.4919   20.9892 C   0  0  0  0  0  0  0  0  0  0  0  0
  -24.0860  -13.0245   20.7763 C   0  0  0  0  0  0  0  0  0  0  0  0
  -21.4149  -19.1314   28.9050 C   0  0  0  0  0  0  0  0  0  0  0  0
  -25.8724  -24.4806   26.5814 C   0  0  0  0  0  0  0  0  0  0  0  0
  -22.5684  -19.6526   28.2883 C   0  0  0  0  0  0  0  0  0  0  0  0
  -25.7077  -24.8136   25.2294 C   0  0  0  0  0  0  0  0  0  0  0  0
  -30.0896  -20.2761   21.5228 C   0  0  0  0  0  0  0  0  0  0  0  0
  -30.2880  -18.1288   20.4333 C   0  0  0  0  0  0  0  0  0  0  0  0
  -29.5990  -18.2510   22.7457 C   0  0  0  0  0  0  0  0  0  0  0  0
  -29.8947  -17.4945   21.6117 C   0  0  0  0  0  0  0  0  0  0  0  0
  -22.4669   -8.1323   21.4978 C   0  0  0  0  0  0  0  0  0  0  0  0
  -28.1163  -24.6989   24.9204 C   0  0  0  0  0  0  0  0  0  0  0  0
  -20.5264   -6.8447   21.1839 C   0  0  0  0  0  0  0  0  0  0  0  0
  -17.9905   -6.5713   20.0539 C   0  0  0  0  0  0  0  0  0  0  0  0
  -20.2643   -5.7942   20.3044 C   0  0  0  0  0  0  0  0  0  0  0  0
  -24.5886  -11.7104   20.7271 C   0  0  0  0  0  0  0  0  0  0  0  0
  -25.1603  -13.8154   20.4497 C   0  0  0  0  0  0  0  0  0  0  0  0
  -29.9792  -22.4638   20.3335 C   0  0  0  0  0  0  0  0  0  0  0  0
  -30.5159  -22.4962   22.5723 C   0  0  0  0  0  0  0  0  0  0  0  0
  -22.7660  -13.4886   21.0893 C   0  0  0  0  0  0  0  0  0  0  0  0
  -23.2669  -22.6829   26.2927 C   0  0  0  0  0  0  0  0  0  0  0  0
  -21.9381  -25.4596   25.2697 C   0  0  0  0  0  0  0  0  0  0  0  0
  -22.3831  -28.5471   23.8854 C   0  0  0  0  0  0  0  0  0  0  0  0
  -30.5428  -15.1590   20.9249 C   0  0  0  0  0  0  0  0  0  0  0  0
  -20.0544  -19.2398   28.2632 C   0  0  0  0  0  0  0  0  0  0  0  0
  -24.6804  -24.3900   27.4943 C   0  0  0  0  0  0  0  0  0  0  0  0
  -24.3465  -25.0593   24.6333 C   0  0  0  0  0  0  0  0  0  0  0  0
  -30.3408  -23.8861   20.6545 C   0  0  0  0  0  0  0  0  0  0  0  0
  -19.9796  -20.3026   27.1699 C   0  0  0  0  0  0  0  0  0  0  0  0
  -29.7114  -12.5912   18.6028 C   0  0  0  0  0  0  0  0  0  0  0  0
  -21.1780  -20.1899   26.2330 C   0  0  0  0  0  0  0  0  0  0  0  0
  -28.2631  -12.2412   18.9525 C   0  0  0  0  0  0  0  0  0  0  0  0
  -30.5323  -12.9192   19.8488 C   0  0  0  0  0  0  0  0  0  0  0  0
  -28.5039  -13.5980   21.0711 C   0  0  0  0  0  0  0  0  0  0  0  0
  -22.4923  -20.4229   26.9879 C   0  0  1  0  0  0  0  0  0  0  0  0
  -30.3336  -23.9390   22.1721 C   0  0  1  0  0  0  0  0  0  0  0  0
  -23.3782  -24.1096   26.7506 C   0  0  1  0  0  0  0  0  0  0  0  0
  -27.6211  -13.3233   19.8427 C   0  0  2  0  0  0  0  0  0  0  0  0
  -21.1052  -30.5725   23.1357 C   0  0  0  0  0  0  0  0  0  0  0  0
  -21.0300  -23.9594   22.7727 C   0  0  0  0  0  0  0  0  0  0  0  0
  -20.6252  -26.1728   21.6749 C   0  0  0  0  0  0  0  0  0  0  0  0
  -19.3357  -25.5396   23.7143 C   0  0  0  0  0  0  0  0  0  0  0  0
  -23.7920  -30.2935   25.8152 C   0  0  0  0  0  0  0  0  0  0  0  0
  -29.0215  -24.4714   22.7330 C   0  0  0  0  0  0  0  0  0  1  0  0
  -21.7818  -26.1407   23.9315 C   0  0  1  0  0  0  0  0  0  0  0  0
  -21.8565  -29.9144   24.2825 C   0  0  2  0  0  0  0  0  0  0  0  0
  -20.7188  -25.4467   23.0338 C   0  0  0  0  0  0  0  0  0  0  0  0
  -25.8815  -11.6650   20.3951 N   0  0  0  0  0  0  0  0  0  0  0  0
  -26.2005  -12.9603   20.2327 N   0  0  0  0  0  0  0  0  0  0  0  0
  -30.1900  -21.7041   21.4774 N   0  0  0  0  0  0  0  0  0  0  0  0
  -23.2116  -24.9528   25.5651 N   0  0  0  0  0  0  0  0  0  0  0  0
  -29.8649  -13.9547   20.6408 N   0  0  0  0  0  0  0  0  0  0  0  0
  -30.5919  -17.3839   19.2714 N   0  0  0  0  0  0  0  0  0  0  0  0
  -29.1983  -17.6313   23.9511 N   0  0  0  0  0  0  0  0  0  0  0  0
  -25.3072  -15.1520   20.3296 N   0  0  0  0  0  0  0  0  0  0  0  0
  -21.7815  -12.5415   21.4024 N   0  0  0  0  0  0  0  0  0  0  0  0
  -29.7967  -16.0817   21.6574 N   0  0  0  0  0  0  0  0  0  0  0  0
  -22.6960  -21.8362   27.2237 N   0  0  0  0  0  0  0  0  0  0  0  0
  -21.4986  -27.5429   24.2178 N   0  0  0  0  0  0  0  0  0  0  0  0
  -22.9815  -30.8070   24.6810 N   0  3  0  0  0  0  0  0  0  0  0  0
  -29.5766  -22.1263   19.2285 O   0  0  0  0  0  0  0  0  0  0  0  0
  -30.8924  -22.1695   23.6903 O   0  0  0  0  0  0  0  0  0  0  0  0
  -22.4643  -14.7061   21.0753 O   0  0  0  0  0  0  0  0  0  0  0  0
  -23.6678  -22.3734   25.1769 O   0  0  0  0  0  0  0  0  0  0  0  0
  -20.9680  -25.3864   26.0280 O   0  0  0  0  0  0  0  0  0  0  0  0
  -23.4687  -28.3863   23.3321 O   0  0  0  0  0  0  0  0  0  0  0  0
  -31.6904  -15.3682   20.5231 O   0  0  0  0  0  0  0  0  0  0  0  0
  -21.7844   -6.9812   21.7463 O   0  0  0  0  0  0  0  0  0  0  0  0
  -29.2041  -24.8013   24.1093 O   0  0  0  0  0  0  0  0  0  1  0  0
  -16.7724   -6.4393   19.5125 F   0  0  0  0  0  0  0  0  0  0  0  0
  -21.2263   -4.9125   19.9995 F   0  0  0  0  0  0  0  0  0  0  0  0
  1  2  1  0  0  0  0
  1  5  2  0  0  0  0
  2  6  2  0  0  0  0
  3  8  2  0  0  0  0
  3 17  1  0  0  0  0
  4  9  1  0  0  0  0
  4 17  2  0  0  0  0
  5 19  1  0  0  0  0
  6 21  1  0  0  0  0
  7 10  2  0  0  0  0
  7 20  1  0  0  0  0
  8 27  1  0  0  0  0
  9 27  2  0  0  0  0
 10 28  1  0  0  0  0
 11 12  2  0  0  0  0
 11 29  1  0  0  0  0
 12 30  1  0  0  0  0
 13 22  1  0  0  0  0
 13 28  2  0  0  0  0
 14 23  1  0  0  0  0
 14 24  2  0  0  0  0
 15 23  2  0  0  0  0
 15 25  1  0  0  0  0
 16 30  2  0  0  0  0
 16 31  1  0  0  0  0
 17 32  1  0  0  0  0
 18 32  1  0  0  0  0
 18 33  2  0  0  0  0
 18 36  1  0  0  0  0
 19 21  2  0  0  0  0
 19 41  1  0  0  0  0
 20 22  2  0  0  0  0
 20 42  1  0  0  0  0
 21 51  1  0  0  0  0
 22 43  1  0  0  0  0
 23 66  1  0  0  0  0
 24 26  1  0  0  0  0
 24 69  1  0  0  0  0
 25 26  2  0  0  0  0
 25 70  1  0  0  0  0
 26 73  1  0  0  0  0
 27 84  1  0  0  0  0
 28 85  1  0  0  0  0
 29 31  2  0  0  0  0
 29 84  1  0  0  0  0
 30 86  1  0  0  0  0
 31 87  1  0  0  0  0
 32 64  2  0  0  0  0
 33 65  1  0  0  0  0
 33 71  1  0  0  0  0
 34 44  1  0  0  0  0
 34 66  1  0  0  0  0
 34 77  2  0  0  0  0
 35 52  1  0  0  0  0
 35 66  1  0  0  0  0
 35 78  2  0  0  0  0
 36 72  1  0  0  0  0
 36 79  2  0  0  0  0
 37 53  1  0  0  0  0
 37 74  1  0  0  0  0
 37 80  2  0  0  0  0
 38 61  1  0  0  0  0
 38 67  1  0  0  0  0
 38 81  2  0  0  0  0
 39 62  1  0  0  0  0
 39 75  1  0  0  0  0
 39 82  2  0  0  0  0
 40 68  1  0  0  0  0
 40 73  1  0  0  0  0
 40 83  2  0  0  0  0
 41 45  1  0  0  0  0
 42 53  1  0  0  0  0
 43 67  1  0  0  0  0
 44 52  1  0  0  0  0
 45 47  1  0  0  0  0
 46 48  1  0  0  0  0
 46 49  1  0  0  0  0
 47 51  1  0  0  0  0
 48 54  1  0  0  0  0
 49 68  1  0  0  0  0
 50 54  1  0  0  0  0
 50 68  1  0  0  0  0
 51 74  1  0  0  0  0
 52 60  1  0  0  0  0
 53 67  1  0  0  0  0
 54 65  1  0  0  0  0
 55 62  1  0  0  0  0
 56 63  1  0  0  0  0
 57 63  1  0  0  0  0
 58 63  1  0  0  0  0
 59 76  1  0  0  0  0
 60 85  1  0  0  0  0
 61 63  1  0  0  0  0
 61 75  1  0  0  0  0
 62 76  1  0  0  0  0
 64 65  1  0  0  0  0
M  CHG  1  76   1
M  ISO  4  40 100  60 101  73 100  85 101
M  END
> <Batch ID>
0094

> <Smiles>
CNC(C)C(=O)NC(C(=O)N1Cc2cc([101O:1][101CH2:1]C3CC(=O)N(c4cc(N)c([100NH:0][100C:0](=O)N5CCCC(n6nc(-c7ccc(Oc8ccc(F)cc8F)cc7)c(C(N)=O)c6N)C5)c(N)c4)C3=O)ccc2CC1C(=O)NC1CCCc2ccccc21)C(C)(C)C

> <Shape>
0.219

> <Color>
0.201

> <Negative vol penalty>
0.000

$$$$

  -OEChem-04052300403D

 87 96  0     1  0  0  0  0  0999 V2000
  -16.5254  -27.5583   26.2700 C   0  0  0  0  0  0  0  0  0  0  0  0
  -16.8109  -26.3890   25.5722 C   0  0  0  0  0  0  0  0  0  0  0  0
  -28.1700  -16.9783   24.9670 C   0  0  0  0  0  0  0  0  0  0  0  0
  -26.7869  -17.7913   23.1605 C   0  0  0  0  0  0  0  0  0  0  0  0
  -17.0451  -28.7752   25.8309 C   0  0  0  0  0  0  0  0  0  0  0  0
  -17.6154  -26.4363   24.4343 C   0  0  0  0  0  0  0  0  0  0  0  0
  -24.2171  -22.5871   22.8130 C   0  0  0  0  0  0  0  0  0  0  0  0
  -27.0073  -17.6940   18.6743 C   0  0  0  0  0  0  0  0  0  0  0  0
  -26.3838  -16.5805   18.1112 C   0  0  0  0  0  0  0  0  0  0  0  0
  -27.3567  -17.6395   25.8873 C   0  0  0  0  0  0  0  0  0  0  0  0
  -25.9736  -18.4525   24.0808 C   0  0  0  0  0  0  0  0  0  0  0  0
  -25.4741  -22.0837   22.4774 C   0  0  0  0  0  0  0  0  0  0  0  0
  -26.9411  -20.7940   27.0280 C   0  0  0  0  0  0  0  0  0  0  0  0
  -27.5674  -21.5185   28.0420 C   0  0  0  0  0  0  0  0  0  0  0  0
  -25.8804  -24.0077   21.0697 C   0  0  0  0  0  0  0  0  0  0  0  0
  -29.1495  -16.8830   17.9059 C   0  0  0  0  0  0  0  0  0  0  0  0
  -26.4820  -20.1365   29.6999 C   0  0  0  0  0  0  0  0  0  0  0  0
  -27.8851  -17.0542   23.6036 C   0  0  0  0  0  0  0  0  0  0  0  0
  -30.1021  -16.5713   22.4376 C   0  0  0  0  0  0  0  0  0  0  0  0
  -17.8644  -28.8361   24.6926 C   0  0  0  0  0  0  0  0  0  0  0  0
  -23.7927  -23.8116   22.2897 C   0  0  0  0  0  0  0  0  0  0  0  0
  -18.1455  -27.6554   23.9788 C   0  0  0  0  0  0  0  0  0  0  0  0
  -24.6274  -24.5229   21.4122 C   0  0  0  0  0  0  0  0  0  0  0  0
  -28.3902  -17.8452   18.5715 C   0  0  0  0  0  0  0  0  0  0  0  0
  -27.1431  -15.6182   17.4456 C   0  0  0  0  0  0  0  0  0  0  0  0
  -28.5260  -15.7694   17.3429 C   0  0  0  0  0  0  0  0  0  0  0  0
  -26.2585  -18.3766   25.4442 C   0  0  0  0  0  0  0  0  0  0  0  0
  -26.3036  -22.7922   21.6077 C   0  0  0  0  0  0  0  0  0  0  0  0
  -26.0851  -19.7407   27.3499 C   0  0  0  0  0  0  0  0  0  0  0  0
  -27.3379  -21.1898   29.3780 C   0  0  0  0  0  0  0  0  0  0  0  0
  -25.8556  -19.4119   28.6859 C   0  0  0  0  0  0  0  0  0  0  0  0
  -28.7252  -16.3718   22.6524 C   0  0  0  0  0  0  0  0  0  0  0  0
  -30.4253  -15.6869   21.4376 C   0  0  0  0  0  0  0  0  0  0  0  0
  -30.3571  -18.9215   19.6312 C   0  0  0  0  0  0  0  0  0  0  0  0
  -31.0080  -17.4751   23.0842 C   0  0  0  0  0  0  0  0  0  0  0  0
  -21.0935  -26.4126   22.1302 C   0  0  0  0  0  0  0  0  0  0  0  0
  -23.7681  -27.9101   22.2489 C   0  0  0  0  0  0  0  0  0  0  0  0
  -26.2775  -30.1621   22.7675 C   0  0  0  0  0  0  0  0  0  0  0  0
  -26.7553  -13.1481   17.2472 C   0  0  0  0  0  0  0  0  0  0  0  0
  -18.3644  -30.1814   24.2291 C   0  0  0  0  0  0  0  0  0  0  0  0
  -22.4219  -24.3622   22.5753 C   0  0  0  0  0  0  0  0  0  0  0  0
  -24.1151  -25.8191   20.8462 C   0  0  0  0  0  0  0  0  0  0  0  0
  -31.0464  -20.2393   19.9308 C   0  0  0  0  0  0  0  0  0  0  0  0
  -19.5149  -30.0923   23.2298 C   0  0  0  0  0  0  0  0  0  0  0  0
  -30.1320  -21.3110   20.4824 C   0  0  0  0  0  0  0  0  0  0  0  0
  -29.1267  -11.4901   19.5538 C   0  0  0  0  0  0  0  0  0  0  0  0
  -19.2050  -29.0612   22.1493 C   0  0  0  0  0  0  0  0  0  0  0  0
  -29.3412  -12.5461   20.6366 C   0  0  0  0  0  0  0  0  0  0  0  0
  -27.7482  -11.6100   18.9110 C   0  0  0  0  0  0  0  0  0  0  0  0
  -28.1967  -20.1830   19.4215 C   0  0  0  0  0  0  0  0  0  0  0  0
  -27.6783  -14.0288   19.4457 C   0  0  0  0  0  0  0  0  0  0  0  0
  -19.0346  -27.6624   22.7542 C   0  0  1  0  0  0  0  0  0  0  0  0
  -22.3960  -25.8983   22.6691 C   0  0  1  0  0  0  0  0  0  0  0  0
  -28.9647  -21.4996   19.5276 C   0  0  1  0  0  0  0  0  0  0  0  0
  -29.0750  -13.9548   20.0807 C   0  0  1  0  0  0  0  0  0  0  0  0
  -26.8946  -32.5567   22.3406 C   0  0  0  0  0  0  0  0  0  0  0  0
  -24.3422  -27.2378   19.3296 C   0  0  0  0  0  0  0  0  0  0  0  0
  -25.7911  -29.2766   19.2189 C   0  0  0  0  0  0  0  0  0  0  0  0
  -23.3549  -29.5049   19.7037 C   0  0  0  0  0  0  0  0  0  0  0  0
  -25.6656  -14.6869   15.6735 C   0  0  0  0  0  0  0  0  0  0  0  0
  -26.4922  -30.7439   25.6614 C   0  0  0  0  0  0  0  0  0  0  0  0
  -28.0475  -22.6263   19.9987 C   0  0  0  0  0  0  0  0  0  1  0  0
  -24.8887  -28.5611   21.4782 C   0  0  1  0  0  0  0  0  0  0  0  0
  -26.2639  -31.5768   23.3177 C   0  0  2  0  0  0  0  0  0  0  0  0
  -24.5993  -28.6248   19.9519 C   0  0  0  0  0  0  0  0  0  0  0  0
  -28.2091  -15.4344   21.8530 N   0  0  0  0  0  0  0  0  0  0  0  0
  -29.2673  -15.0371   21.1262 N   0  0  0  0  0  0  0  0  0  0  0  0
  -29.0368  -19.0009   19.1557 N   0  0  0  0  0  0  0  0  0  0  0  0
  -23.4401  -26.5948   21.8986 N   0  0  0  0  0  0  0  0  0  0  0  0
  -27.4851  -12.9709   18.4405 N   0  0  0  0  0  0  0  0  0  0  0  0
  -29.3142  -14.8070   16.6727 N   0  0  0  0  0  0  0  0  0  0  0  0
  -31.5841  -15.4096   20.8031 N   0  0  0  0  0  0  0  0  0  0  0  0
  -30.5102  -18.3138   24.0908 N   0  0  0  0  0  0  0  0  0  0  0  0
  -20.3251  -27.0841   23.0618 N   0  0  0  0  0  0  0  0  0  0  0  0
  -25.1091  -29.8626   22.0994 N   0  0  0  0  0  0  0  0  0  0  0  0
  -26.4753  -14.4758   16.8714 N   0  0  0  0  0  0  0  0  0  0  0  0
  -27.0191  -31.6409   24.6009 N   0  3  0  0  0  0  0  0  0  0  0  0
  -31.0093  -17.8826   19.7653 O   0  0  0  0  0  0  0  0  0  0  0  0
  -32.2194  -17.5487   22.7672 O   0  0  0  0  0  0  0  0  0  0  0  0
  -20.8063  -26.2165   20.9552 O   0  0  0  0  0  0  0  0  0  0  0  0
  -23.1937  -28.5501   23.1343 O   0  0  0  0  0  0  0  0  0  0  0  0
  -27.2310  -29.4002   22.9125 O   0  0  0  0  0  0  0  0  0  0  0  0
  -26.3331  -12.1889   16.5897 O   0  0  0  0  0  0  0  0  0  0  0  0
  -25.4646  -19.0218   26.3420 O   0  0  0  0  0  0  0  0  0  0  0  0
  -27.5314  -22.2973   21.2878 O   0  0  0  0  0  0  0  0  0  1  0  0
  -27.9407  -21.8846   30.3516 F   0  0  0  0  0  0  0  0  0  0  0  0
  -25.0352  -18.4003   29.0013 F   0  0  0  0  0  0  0  0  0  0  0  0
  1  2  1  0  0  0  0
  1  5  2  0  0  0  0
  2  6  2  0  0  0  0
  3 10  2  0  0  0  0
  3 18  1  0  0  0  0
  4 11  1  0  0  0  0
  4 18  2  0  0  0  0
  5 20  1  0  0  0  0
  6 22  1  0  0  0  0
  7 12  2  0  0  0  0
  7 21  1  0  0  0  0
  8  9  2  0  0  0  0
  8 24  1  0  0  0  0
  9 25  1  0  0  0  0
 10 27  1  0  0  0  0
 11 27  2  0  0  0  0
 12 28  1  0  0  0  0
 13 14  2  0  0  0  0
 13 29  1  0  0  0  0
 14 30  1  0  0  0  0
 15 23  1  0  0  0  0
 15 28  2  0  0  0  0
 16 24  2  0  0  0  0
 16 26  1  0  0  0  0
 17 30  2  0  0  0  0
 17 31  1  0  0  0  0
 18 32  1  0  0  0  0
 19 32  1  0  0  0  0
 19 33  2  0  0  0  0
 19 35  1  0  0  0  0
 20 22  2  0  0  0  0
 20 40  1  0  0  0  0
 21 23  2  0  0  0  0
 21 41  1  0  0  0  0
 22 52  1  0  0  0  0
 23 42  1  0  0  0  0
 24 68  1  0  0  0  0
 25 26  2  0  0  0  0
 25 76  1  0  0  0  0
 26 71  1  0  0  0  0
 27 84  1  0  0  0  0
 28 85  1  0  0  0  0
 29 31  2  0  0  0  0
 29 84  1  0  0  0  0
 30 86  1  0  0  0  0
 31 87  1  0  0  0  0
 32 66  2  0  0  0  0
 33 67  1  0  0  0  0
 33 72  1  0  0  0  0
 34 43  1  0  0  0  0
 34 68  1  0  0  0  0
 34 78  2  0  0  0  0
 35 73  1  0  0  0  0
 35 79  2  0  0  0  0
 36 53  1  0  0  0  0
 36 74  1  0  0  0  0
 36 80  2  0  0  0  0
 37 63  1  0  0  0  0
 37 69  1  0  0  0  0
 37 81  2  0  0  0  0
 38 64  1  0  0  0  0
 38 75  1  0  0  0  0
 38 82  2  0  0  0  0
 39 70  1  0  0  0  0
 39 76  1  0  0  0  0
 39 83  2  0  0  0  0
 40 44  1  0  0  0  0
 41 53  1  0  0  0  0
 42 69  1  0  0  0  0
 43 45  1  0  0  0  0
 44 47  1  0  0  0  0
 45 54  1  0  0  0  0
 46 48  1  0  0  0  0
 46 49  1  0  0  0  0
 47 52  1  0  0  0  0
 48 55  1  0  0  0  0
 49 70  1  0  0  0  0
 50 54  1  0  0  0  0
 50 68  1  0  0  0  0
 51 55  1  0  0  0  0
 51 70  1  0  0  0  0
 52 74  1  0  0  0  0
 53 69  1  0  0  0  0
 54 62  1  0  0  0  0
 55 67  1  0  0  0  0
 56 64  1  0  0  0  0
 57 65  1  0  0  0  0
 58 65  1  0  0  0  0
 59 65  1  0  0  0  0
 60 76  1  0  0  0  0
 61 77  1  0  0  0  0
 62 85  1  0  0  0  0
 63 65  1  0  0  0  0
 63 75  1  0  0  0  0
 64 77  1  0  0  0  0
 66 67  1  0  0  0  0
M  CHG  1  77   1
M  ISO  4  39 100  62 101  76 100  85 101
M  END
> <Batch ID>
0094

> <Smiles>
CNC(C)C(=O)NC(C(=O)N1Cc2cc([101O:1][101CH2:1]C3CCC(=O)N(c4ccc([100N:0](C)[100C:0](=O)N5CCCC(n6nc(-c7ccc(Oc8ccc(F)cc8F)cc7)c(C(N)=O)c6N)C5)c(N)c4)C3)ccc2CC1C(=O)NC1CCCc2ccccc21)C(C)(C)C

> <Shape>
0.233

> <Color>
0.053

> <Negative vol penalty>
0.000

$$$$

  -OEChem-04052300403D

 87 96  0     1  0  0  0  0  0999 V2000
  -25.3265  -37.4800   25.6319 C   0  0  0  0  0  0  0  0  0  0  0  0
  -25.1978  -37.1026   24.3001 C   0  0  0  0  0  0  0  0  0  0  0  0
  -22.9309  -10.3069   21.7739 C   0  0  0  0  0  0  0  0  0  0  0  0
  -24.7648   -8.7685   21.4467 C   0  0  0  0  0  0  0  0  0  0  0  0
  -25.7983  -36.5638   26.5696 C   0  0  0  0  0  0  0  0  0  0  0  0
  -25.5294  -35.8054   23.9075 C   0  0  0  0  0  0  0  0  0  0  0  0
  -26.5147  -29.6091   18.9454 C   0  0  0  0  0  0  0  0  0  0  0  0
  -22.0235   -9.2613   21.6043 C   0  0  0  0  0  0  0  0  0  0  0  0
  -23.8574   -7.7229   21.2771 C   0  0  0  0  0  0  0  0  0  0  0  0
  -27.1382  -28.3702   18.8030 C   0  0  0  0  0  0  0  0  0  0  0  0
  -22.0328   -4.5823   21.1161 C   0  0  0  0  0  0  0  0  0  0  0  0
  -22.2947   -3.3819   21.7763 C   0  0  0  0  0  0  0  0  0  0  0  0
  -26.1722  -27.6507   20.8928 C   0  0  0  0  0  0  0  0  0  0  0  0
  -22.2153   -4.5323   23.8994 C   0  0  0  0  0  0  0  0  0  0  0  0
  -24.3016  -10.0606   21.6951 C   0  0  0  0  0  0  0  0  0  0  0  0
  -25.8199  -11.5755   23.0761 C   0  0  0  0  0  0  0  0  0  0  0  0
  -26.1474  -35.2587   26.1852 C   0  0  0  0  0  0  0  0  0  0  0  0
  -25.7222  -29.8827   20.0696 C   0  0  0  0  0  0  0  0  0  0  0  0
  -25.9846  -34.8589   24.8432 C   0  0  0  0  0  0  0  0  0  0  0  0
  -25.5360  -28.8921   21.0446 C   0  0  0  0  0  0  0  0  0  0  0  0
  -22.4867   -7.9693   21.3559 C   0  0  0  0  0  0  0  0  0  0  0  0
  -26.9688  -27.3916   19.7779 C   0  0  0  0  0  0  0  0  0  0  0  0
  -21.8622   -5.7578   21.8475 C   0  0  0  0  0  0  0  0  0  0  0  0
  -22.3860   -3.3568   23.1680 C   0  0  0  0  0  0  0  0  0  0  0  0
  -21.9535   -5.7327   23.2391 C   0  0  0  0  0  0  0  0  0  0  0  0
  -25.2394  -11.1404   21.8696 C   0  0  0  0  0  0  0  0  0  0  0  0
  -26.6322  -12.6206   22.7090 C   0  0  0  0  0  0  0  0  0  0  0  0
  -30.2814  -24.4198   18.7966 C   0  0  0  0  0  0  0  0  0  0  0  0
  -30.0592  -22.0381   18.5419 C   0  0  0  0  0  0  0  0  0  0  0  0
  -28.2656  -19.1020   16.5797 C   0  0  0  0  0  0  0  0  0  0  0  0
  -28.9881  -24.6312   18.5058 C   0  0  0  0  0  0  0  0  0  0  0  0
  -30.8346  -23.0933   18.8165 C   0  0  0  0  0  0  0  0  0  0  0  0
  -27.4717  -18.2700   17.5322 C   0  0  0  0  0  0  0  0  0  0  0  0
  -28.1030  -23.4517   18.1942 C   0  0  0  0  0  0  0  0  0  0  0  0
  -25.6410  -11.0794   24.4093 C   0  0  0  0  0  0  0  0  0  0  0  0
  -25.7583  -31.9963   22.4731 C   0  0  0  0  0  0  0  0  0  0  0  0
  -22.8537  -30.5171   23.1274 C   0  0  0  0  0  0  0  0  0  0  0  0
  -21.3247  -33.3741   24.1950 C   0  0  0  0  0  0  0  0  0  0  0  0
  -26.3782  -16.3173   18.0300 C   0  0  0  0  0  0  0  0  0  0  0  0
  -26.6453  -34.3052   27.2427 C   0  0  0  0  0  0  0  0  0  0  0  0
  -25.0337  -31.2153   20.1892 C   0  0  0  0  0  0  0  0  0  0  0  0
  -24.6926  -29.1350   22.2671 C   0  0  0  0  0  0  0  0  0  0  0  0
  -27.3859  -33.1057   26.6604 C   0  0  0  0  0  0  0  0  0  0  0  0
  -29.2113  -14.2628   19.0394 C   0  0  0  0  0  0  0  0  0  0  0  0
  -26.5620  -32.4768   25.5467 C   0  0  0  0  0  0  0  0  0  0  0  0
  -28.5479  -13.2445   19.9661 C   0  0  0  0  0  0  0  0  0  0  0  0
  -27.9773  -20.0613   19.1562 C   0  0  0  0  0  0  0  0  0  0  0  0
  -28.2905  -14.6576   17.8882 C   0  0  0  0  0  0  0  0  0  0  0  0
  -26.2893  -14.1490   19.2627 C   0  0  0  0  0  0  0  0  0  0  0  0
  -26.3681  -33.4626   24.3875 C   0  0  1  0  0  0  0  0  0  0  0  0
  -27.1079  -18.8515   18.8627 C   0  0  1  0  0  0  0  0  0  0  0  0
  -24.6062  -31.5555   21.6154 C   0  0  1  0  0  0  0  0  0  0  0  0
  -27.1785  -13.7507   20.4526 C   0  0  1  0  0  0  0  0  0  0  0  0
  -27.9599  -21.0000   17.9522 C   0  0  2  0  0  0  0  0  0  0  0  0
  -19.6068  -34.8134   25.3240 C   0  0  0  0  0  0  0  0  0  0  0  0
  -21.3374  -30.1292   20.5090 C   0  0  0  0  0  0  0  0  0  0  0  0
  -19.6359  -31.7706   21.3331 C   0  0  0  0  0  0  0  0  0  0  0  0
  -20.0070  -29.6353   22.5683 C   0  0  0  0  0  0  0  0  0  0  0  0
  -22.7426  -33.2332   26.7889 C   0  0  0  0  0  0  0  0  0  0  0  0
  -28.3718  -25.9821   18.4737 C   0  0  0  0  0  0  0  0  0  1  0  0
  -21.7586  -31.4548   22.6842 C   0  0  1  0  0  0  0  0  0  0  0  0
  -20.6544  -33.7268   25.5105 C   0  0  2  0  0  0  0  0  0  0  0  0
  -20.7122  -30.7547   21.7719 C   0  0  0  0  0  0  0  0  0  0  0  0
  -25.6480  -11.8510   20.8150 N   0  0  0  0  0  0  0  0  0  0  0  0
  -28.5107  -20.3487   16.7616 N   0  0  0  0  0  0  0  0  0  0  0  0
  -27.1133  -17.0919   17.1522 N   0  0  0  0  0  0  0  0  0  0  0  0
  -26.4939  -12.7433   21.3577 N   0  0  0  0  0  0  0  0  0  0  0  0
  -28.7191  -22.1927   18.2347 N   0  0  0  0  0  0  0  0  0  0  0  0
  -23.9760  -30.4167   22.2953 N   0  0  0  0  0  0  0  0  0  0  0  0
  -26.9827  -15.0977   18.3871 N   0  0  0  0  0  0  0  0  0  0  0  0
  -27.4439  -13.4373   23.4135 N   0  0  0  0  0  0  0  0  0  0  0  0
  -24.7700   -9.9997   24.6091 N   0  0  0  0  0  0  0  0  0  0  0  0
  -25.4142  -32.9091   23.4517 N   0  0  0  0  0  0  0  0  0  0  0  0
  -21.1988  -32.0328   23.9011 N   0  0  0  0  0  0  0  0  0  0  0  0
  -21.6646  -34.2117   26.4930 N   0  3  0  0  0  0  0  0  0  0  0  0
  -26.9162  -23.6398   17.9262 O   0  0  0  0  0  0  0  0  0  0  0  0
  -26.2234  -11.5893   25.3964 O   0  0  0  0  0  0  0  0  0  0  0  0
  -26.8765  -31.5408   22.2635 O   0  0  0  0  0  0  0  0  0  0  0  0
  -22.7168  -29.8841   24.1780 O   0  0  0  0  0  0  0  0  0  0  0  0
  -21.8991  -34.2059   23.4960 O   0  0  0  0  0  0  0  0  0  0  0  0
  -25.2756  -16.6440   18.4764 O   0  0  0  0  0  0  0  0  0  0  0  0
  -32.1692  -23.0082   19.1285 O   0  0  0  0  0  0  0  0  0  0  0  0
  -21.6015   -6.9486   21.1906 O   0  0  0  0  0  0  0  0  0  0  0  0
  -27.5757  -26.1813   19.6411 O   0  0  0  0  0  0  0  0  0  1  0  0
  -22.6359   -2.2037   23.8020 F   0  0  0  0  0  0  0  0  0  0  0  0
  -21.7894   -6.8585   23.9472 F   0  0  0  0  0  0  0  0  0  0  0  0
  -25.8026  -19.2407   18.8619 F   0  0  0  0  0  0  0  0  0  0  0  0
  1  2  1  0  0  0  0
  1  5  2  0  0  0  0
  2  6  2  0  0  0  0
  3  8  2  0  0  0  0
  3 15  1  0  0  0  0
  4  9  1  0  0  0  0
  4 15  2  0  0  0  0
  5 17  1  0  0  0  0
  6 19  1  0  0  0  0
  7 10  2  0  0  0  0
  7 18  1  0  0  0  0
  8 21  1  0  0  0  0
  9 21  2  0  0  0  0
 10 22  1  0  0  0  0
 11 12  2  0  0  0  0
 11 23  1  0  0  0  0
 12 24  1  0  0  0  0
 13 20  1  0  0  0  0
 13 22  2  0  0  0  0
 14 24  2  0  0  0  0
 14 25  1  0  0  0  0
 15 26  1  0  0  0  0
 16 26  1  0  0  0  0
 16 27  2  0  0  0  0
 16 35  1  0  0  0  0
 17 19  2  0  0  0  0
 17 40  1  0  0  0  0
 18 20  2  0  0  0  0
 18 41  1  0  0  0  0
 19 50  1  0  0  0  0
 20 42  1  0  0  0  0
 21 83  1  0  0  0  0
 22 84  1  0  0  0  0
 23 25  2  0  0  0  0
 23 83  1  0  0  0  0
 24 85  1  0  0  0  0
 25 86  1  0  0  0  0
 26 64  2  0  0  0  0
 27 67  1  0  0  0  0
 27 71  1  0  0  0  0
 28 31  2  0  0  0  0
 28 32  1  0  0  0  0
 29 32  2  0  0  0  0
 29 68  1  0  0  0  0
 30 33  1  0  0  0  0
 30 65  2  0  0  0  0
 31 34  1  0  0  0  0
 31 60  1  0  0  0  0
 32 82  1  0  0  0  0
 33 51  1  0  0  0  0
 33 66  2  0  0  0  0
 34 68  1  0  0  0  0
 34 76  2  0  0  0  0
 35 72  1  0  0  0  0
 35 77  2  0  0  0  0
 36 52  1  0  0  0  0
 36 73  1  0  0  0  0
 36 78  2  0  0  0  0
 37 61  1  0  0  0  0
 37 69  1  0  0  0  0
 37 79  2  0  0  0  0
 38 62  1  0  0  0  0
 38 74  1  0  0  0  0
 38 80  2  0  0  0  0
 39 66  1  0  0  0  0
 39 70  1  0  0  0  0
 39 81  2  0  0  0  0
 40 43  1  0  0  0  0
 41 52  1  0  0  0  0
 42 69  1  0  0  0  0
 43 45  1  0  0  0  0
 44 46  1  0  0  0  0
 44 48  1  0  0  0  0
 45 50  1  0  0  0  0
 46 53  1  0  0  0  0
 47 51  1  0  0  0  0
 47 54  1  0  0  0  0
 48 70  1  0  0  0  0
 49 53  1  0  0  0  0
 49 70  1  0  0  0  0
 50 73  1  0  0  0  0
 51 87  1  0  0  0  0
 52 69  1  0  0  0  0
 53 67  1  0  0  0  0
 54 65  1  0  0  0  0
 54 68  1  0  0  0  0
 55 62  1  0  0  0  0
 56 63  1  0  0  0  0
 57 63  1  0  0  0  0
 58 63  1  0  0  0  0
 59 75  1  0  0  0  0
 60 84  1  0  0  0  0
 61 63  1  0  0  0  0
 61 74  1  0  0  0  0
 62 75  1  0  0  0  0
 64 67  1  0  0  0  0
M  CHG  1  75   1
M  ISO  4  39 100  60 101  66 100  84 101
M  END
> <Batch ID>
0094

> <Smiles>
CNC(C)C(=O)NC(C(=O)N1Cc2cc([101O:1][101CH2:1]C3CC(=O)CN(c4cc(F)c([100NH:0][100C:0](=O)N5CCCC(n6nc(-c7ccc(Oc8ccc(F)cc8F)cc7)c(C(N)=O)c6N)C5)cn4)C3=O)ccc2CC1C(=O)NC1CCCc2ccccc21)C(C)(C)C

> <Shape>
0.291

> <Color>
0.092

> <Negative vol penalty>
0.000

$$$$

  -OEChem-04052300403D

 80 88  0     1  0  0  0  0  0999 V2000
  -29.1308  -34.6772   23.1238 C   0  0  0  0  0  0  0  0  0  0  0  0
  -29.1895  -33.3040   23.3394 C   0  0  0  0  0  0  0  0  0  0  0  0
  -24.3258   -9.5806   21.4565 C   0  0  0  0  0  0  0  0  0  0  0  0
  -24.7943  -10.6750   23.5588 C   0  0  0  0  0  0  0  0  0  0  0  0
  -28.2461  -20.8801   21.8759 C   0  0  0  0  0  0  0  0  0  0  0  0
  -27.9185  -35.2775   22.7865 C   0  0  0  0  0  0  0  0  0  0  0  0
  -28.0356  -32.5305   23.2189 C   0  0  0  0  0  0  0  0  0  0  0  0
  -28.8246  -28.2560   20.6207 C   0  0  0  0  0  0  0  0  0  0  0  0
  -28.0625  -19.5870   21.3864 C   0  0  0  0  0  0  0  0  0  0  0  0
  -23.9524   -8.4244   22.1416 C   0  0  0  0  0  0  0  0  0  0  0  0
  -24.4209   -9.5188   24.2440 C   0  0  0  0  0  0  0  0  0  0  0  0
  -29.4486  -27.2071   21.2948 C   0  0  0  0  0  0  0  0  0  0  0  0
  -21.2563   -7.2984   23.8434 C   0  0  0  0  0  0  0  0  0  0  0  0
  -20.0881   -6.6533   23.4377 C   0  0  0  0  0  0  0  0  0  0  0  0
  -27.3024  -26.1625   21.6436 C   0  0  0  0  0  0  0  0  0  0  0  0
  -30.4524  -19.3466   21.1256 C   0  0  0  0  0  0  0  0  0  0  0  0
  -21.3602   -4.6590   22.9459 C   0  0  0  0  0  0  0  0  0  0  0  0
  -24.7468  -10.7059   22.1651 C   0  0  0  0  0  0  0  0  0  0  0  0
  -29.5327  -21.4066   21.9901 C   0  0  0  0  0  0  0  0  0  0  0  0
  -24.3022  -12.9736   21.0847 C   0  0  0  0  0  0  0  0  0  0  0  0
  -26.7510  -34.5095   22.6524 C   0  0  0  0  0  0  0  0  0  0  0  0
  -27.4314  -28.2714   20.4623 C   0  0  0  0  0  0  0  0  0  0  0  0
  -26.8062  -33.1213   22.8809 C   0  0  0  0  0  0  0  0  0  0  0  0
  -26.6634  -27.2114   20.9649 C   0  0  0  0  0  0  0  0  0  0  0  0
  -29.1657  -18.8202   21.0113 C   0  0  0  0  0  0  0  0  0  0  0  0
  -30.6359  -20.6398   21.6150 C   0  0  0  0  0  0  0  0  0  0  0  0
  -23.9999   -8.3934   23.5353 C   0  0  0  0  0  0  0  0  0  0  0  0
  -28.6873  -26.1616   21.8088 C   0  0  0  0  0  0  0  0  0  0  0  0
  -22.4765   -6.6239   23.8003 C   0  0  0  0  0  0  0  0  0  0  0  0
  -20.1400   -5.3336   22.9890 C   0  0  0  0  0  0  0  0  0  0  0  0
  -22.5284   -5.3042   23.3515 C   0  0  0  0  0  0  0  0  0  0  0  0
  -25.1332  -11.9003   21.4580 C   0  0  0  0  0  0  0  0  0  0  0  0
  -25.1417  -13.8504   20.4421 C   0  0  0  0  0  0  0  0  0  0  0  0
  -29.6867  -22.7756   22.5106 C   0  0  0  0  0  0  0  0  0  0  0  0
  -29.1473  -23.8738   21.9670 C   0  0  0  0  0  0  0  0  0  1  0  0
  -22.8971  -13.1612   21.2996 C   0  0  0  0  0  0  0  0  0  0  0  0
  -25.0886  -30.2046   21.3991 C   0  0  0  0  0  0  0  0  0  0  0  0
  -23.2698  -28.2599   19.5464 C   0  0  0  0  0  0  0  0  0  0  0  0
  -22.8570  -25.2017   18.0892 C   0  0  0  0  0  0  0  0  0  0  0  0
  -29.9647  -16.6118   20.0996 C   0  0  0  0  0  0  0  0  0  0  0  0
  -25.4542  -35.2099   22.3324 C   0  0  0  0  0  0  0  0  0  0  0  0
  -26.7762  -29.3967   19.7094 C   0  0  0  0  0  0  0  0  0  0  0  0
  -25.1665  -27.1705   20.8038 C   0  0  0  0  0  0  0  0  0  0  0  0
  -24.3529  -34.2654   21.8576 C   0  0  0  0  0  0  0  0  0  0  0  0
  -29.9132  -13.2772   18.8527 C   0  0  0  0  0  0  0  0  0  0  0  0
  -24.2713  -33.0418   22.7647 C   0  0  0  0  0  0  0  0  0  0  0  0
  -28.5967  -12.7100   19.3887 C   0  0  0  0  0  0  0  0  0  0  0  0
  -30.5776  -14.2157   19.8585 C   0  0  0  0  0  0  0  0  0  0  0  0
  -28.4028  -14.7296   20.8955 C   0  0  0  0  0  0  0  0  0  0  0  0
  -25.5811  -32.2449   22.7353 C   0  0  1  0  0  0  0  0  0  0  0  0
  -25.3001  -29.5671   20.0550 C   0  0  1  0  0  0  0  0  0  0  0  0
  -27.6642  -13.8293   19.8917 C   0  0  2  0  0  0  0  0  0  0  0  0
  -21.2529  -23.8980   16.6663 C   0  0  0  0  0  0  0  0  0  0  0  0
  -21.4466  -27.8716   21.9619 C   0  0  0  0  0  0  0  0  0  0  0  0
  -20.4567  -25.8828   20.8074 C   0  0  0  0  0  0  0  0  0  0  0  0
  -20.2484  -28.1483   19.7843 C   0  0  0  0  0  0  0  0  0  0  0  0
  -24.8608  -24.8616   15.9379 C   0  0  0  0  0  0  0  0  0  0  0  0
  -22.4934  -26.9856   19.7744 C   0  0  1  0  0  0  0  0  0  0  0  0
  -22.4750  -24.8030   16.6751 C   0  0  2  0  0  0  0  0  0  0  0  0
  -21.1893  -27.2235   20.5869 C   0  0  0  0  0  0  0  0  0  0  0  0
  -26.4031  -12.0770   21.0836 N   0  0  0  0  0  0  0  0  0  0  0  0
  -26.3763  -13.2715   20.4683 N   0  0  0  0  0  0  0  0  0  0  0  0
  -24.5717  -28.2969   20.0656 N   0  0  0  0  0  0  0  0  0  0  0  0
  -29.6361  -15.2525   20.2870 N   0  0  0  0  0  0  0  0  0  0  0  0
  -31.9506  -21.1487   21.7203 N   0  0  0  0  0  0  0  0  0  0  0  0
  -24.9369  -15.0525   19.8628 N   0  0  0  0  0  0  0  0  0  0  0  0
  -22.1856  -12.1620   21.9775 N   0  0  0  0  0  0  0  0  0  0  0  0
  -28.9788  -17.5059   20.5157 N   0  0  0  0  0  0  0  0  0  0  0  0
  -25.6647  -31.4542   21.5261 N   0  0  0  0  0  0  0  0  0  0  0  0
  -22.2776  -26.3977   18.4567 N   0  0  0  0  0  0  0  0  0  0  0  0
  -23.6005  -24.0792   16.0191 N   0  3  0  0  0  0  0  0  0  0  0  0
  -22.2873  -14.1772   20.8879 O   0  0  0  0  0  0  0  0  0  0  0  0
  -24.4488  -29.6076   22.2570 O   0  0  0  0  0  0  0  0  0  0  0  0
  -22.7433  -29.1858   18.9241 O   0  0  0  0  0  0  0  0  0  0  0  0
  -23.5925  -24.5185   18.7982 O   0  0  0  0  0  0  0  0  0  0  0  0
  -31.0298  -16.9565   19.5814 O   0  0  0  0  0  0  0  0  0  0  0  0
  -23.6354   -7.2655   24.2041 O   0  0  0  0  0  0  0  0  0  0  0  0
  -29.2937  -25.1370   22.4677 O   0  0  0  0  0  0  0  0  0  1  0  0
  -19.0178   -4.7137   22.6009 F   0  0  0  0  0  0  0  0  0  0  0  0
  -23.6976   -4.6506   23.3089 F   0  0  0  0  0  0  0  0  0  0  0  0
  1  2  1  0  0  0  0
  1  6  2  0  0  0  0
  2  7  2  0  0  0  0
  3 10  2  0  0  0  0
  3 18  1  0  0  0  0
  4 11  1  0  0  0  0
  4 18  2  0  0  0  0
  5  9  2  0  0  0  0
  5 19  1  0  0  0  0
  6 21  1  0  0  0  0
  7 23  1  0  0  0  0
  8 12  2  0  0  0  0
  8 22  1  0  0  0  0
  9 25  1  0  0  0  0
 10 27  1  0  0  0  0
 11 27  2  0  0  0  0
 12 28  1  0  0  0  0
 13 14  2  0  0  0  0
 13 29  1  0  0  0  0
 14 30  1  0  0  0  0
 15 24  1  0  0  0  0
 15 28  2  0  0  0  0
 16 25  2  0  0  0  0
 16 26  1  0  0  0  0
 17 30  2  0  0  0  0
 17 31  1  0  0  0  0
 18 32  1  0  0  0  0
 19 26  2  0  0  0  0
 19 34  1  0  0  0  0
 20 32  1  0  0  0  0
 20 33  2  0  0  0  0
 20 36  1  0  0  0  0
 21 23  2  0  0  0  0
 21 41  1  0  0  0  0
 22 24  2  0  0  0  0
 22 42  1  0  0  0  0
 23 50  1  0  0  0  0
 24 43  1  0  0  0  0
 25 68  1  0  0  0  0
 26 65  1  0  0  0  0
 27 77  1  0  0  0  0
 28 78  1  0  0  0  0
 29 31  2  0  0  0  0
 29 77  1  0  0  0  0
 30 79  1  0  0  0  0
 31 80  1  0  0  0  0
 32 61  2  0  0  0  0
 33 62  1  0  0  0  0
 33 66  1  0  0  0  0
 34 35  2  0  0  0  0
 35 78  1  0  0  0  0
 36 67  1  0  0  0  0
 36 72  2  0  0  0  0
 37 51  1  0  0  0  0
 37 69  1  0  0  0  0
 37 73  2  0  0  0  0
 38 58  1  0  0  0  0
 38 63  1  0  0  0  0
 38 74  2  0  0  0  0
 39 59  1  0  0  0  0
 39 70  1  0  0  0  0
 39 75  2  0  0  0  0
 40 64  1  0  0  0  0
 40 68  1  0  0  0  0
 40 76  2  0  0  0  0
 41 44  1  0  0  0  0
 42 51  1  0  0  0  0
 43 63  1  0  0  0  0
 44 46  1  0  0  0  0
 45 47  1  0  0  0  0
 45 48  1  0  0  0  0
 46 50  1  0  0  0  0
 47 52  1  0  0  0  0
 48 64  1  0  0  0  0
 49 52  1  0  0  0  0
 49 64  1  0  0  0  0
 50 69  1  0  0  0  0
 51 63  1  0  0  0  0
 52 62  1  0  0  0  0
 53 59  1  0  0  0  0
 54 60  1  0  0  0  0
 55 60  1  0  0  0  0
 56 60  1  0  0  0  0
 57 71  1  0  0  0  0
 58 60  1  0  0  0  0
 58 70  1  0  0  0  0
 59 71  1  0  0  0  0
 61 62  1  0  0  0  0
M  CHG  1  71   1
M  ISO  4  35 101  40 100  68 100  78 101
M  END
> <Batch ID>
0094

> <Smiles>
CNC(C)C(=O)NC(C(=O)N1Cc2cc([101O:1][101CH:1]=Cc3ccc([100NH:0][100C:0](=O)N4CCCC(n5nc(-c6ccc(Oc7ccc(F)cc7F)cc6)c(C(N)=O)c5N)C4)cc3N)ccc2CC1C(=O)NC1CCCc2ccccc21)C(C)(C)C

> <Shape>
0.290

> <Color>
0.121

> <Negative vol penalty>
0.000

$$$$

  -OEChem-04052300403D

 85 93  0     1  0  0  0  0  0999 V2000
  -22.6601  -12.2754   23.2046 C   0  0  0  0  0  0  0  0  0  0  0  0
  -22.7155  -13.6438   23.4491 C   0  0  0  0  0  0  0  0  0  0  0  0
  -29.2699  -17.3725   19.0529 C   0  0  0  0  0  0  0  0  0  0  0  0
  -30.2388  -17.9445   21.1909 C   0  0  0  0  0  0  0  0  0  0  0  0
  -22.8898  -11.7884   21.9185 C   0  0  0  0  0  0  0  0  0  0  0  0
  -23.0016  -14.5260   22.4078 C   0  0  0  0  0  0  0  0  0  0  0  0
  -20.7596  -20.1740   21.6467 C   0  0  0  0  0  0  0  0  0  0  0  0
  -29.8422  -16.1030   19.1332 C   0  0  0  0  0  0  0  0  0  0  0  0
  -30.8110  -16.6750   21.2712 C   0  0  0  0  0  0  0  0  0  0  0  0
  -21.2768  -21.4356   21.9377 C   0  0  0  0  0  0  0  0  0  0  0  0
  -29.2074  -13.1797   20.7092 C   0  0  0  0  0  0  0  0  0  0  0  0
  -28.4072  -12.0859   20.3793 C   0  0  0  0  0  0  0  0  0  0  0  0
  -22.0552  -21.6345   19.6631 C   0  0  0  0  0  0  0  0  0  0  0  0
  -27.1082  -29.1519   20.0314 C   0  0  0  0  0  0  0  0  0  0  0  0
  -25.9257  -27.4332   21.2498 C   0  0  0  0  0  0  0  0  0  0  0  0
  -29.9469  -11.4917   18.6148 C   0  0  0  0  0  0  0  0  0  0  0  0
  -29.4683  -18.2933   20.0818 C   0  0  0  0  0  0  0  0  0  0  0  0
  -27.6101  -19.9978   20.4687 C   0  0  0  0  0  0  0  0  0  0  0  0
  -23.1694  -12.6658   20.8589 C   0  0  0  0  0  0  0  0  0  0  0  0
  -20.8962  -19.6276   20.3624 C   0  0  0  0  0  0  0  0  0  0  0  0
  -23.2366  -14.0502   21.1066 C   0  0  0  0  0  0  0  0  0  0  0  0
  -21.5366  -20.3668   19.3577 C   0  0  0  0  0  0  0  0  0  0  0  0
  -27.1150  -28.0920   20.9381 C   0  0  0  0  0  0  0  0  0  0  0  0
  -25.9120  -29.5532   19.4365 C   0  0  0  0  0  0  0  0  0  0  0  0
  -24.7295  -27.8344   20.6548 C   0  0  0  0  0  0  0  0  0  0  0  0
  -24.7227  -28.8944   19.7482 C   0  0  0  0  0  0  0  0  0  0  0  0
  -30.6127  -15.7542   20.2423 C   0  0  0  0  0  0  0  0  0  0  0  0
  -21.9273  -22.1648   20.9466 C   0  0  0  0  0  0  0  0  0  0  0  0
  -30.3773  -13.4296   19.9919 C   0  0  0  0  0  0  0  0  0  0  0  0
  -28.7770  -11.2418   19.3321 C   0  0  0  0  0  0  0  0  0  0  0  0
  -30.7471  -12.5856   18.9447 C   0  0  0  0  0  0  0  0  0  0  0  0
  -28.8778  -19.6051   19.9991 C   0  0  0  0  0  0  0  0  0  0  0  0
  -27.5246  -21.3315   20.1517 C   0  0  0  0  0  0  0  0  0  0  0  0
  -26.6003  -19.2262   21.1323 C   0  0  0  0  0  0  0  0  0  0  0  0
  -22.3232  -17.0547   19.1594 C   0  0  0  0  0  0  0  0  0  0  0  0
  -20.8705  -18.0092   16.4206 C   0  0  0  0  0  0  0  0  0  0  0  0
  -23.3889  -26.0805   21.8675 C   0  0  0  0  0  0  0  0  0  0  0  0
  -19.4986  -20.5507   14.6026 C   0  0  0  0  0  0  0  0  0  0  0  0
  -29.7751  -26.4332   19.9213 C   0  0  0  0  0  0  0  0  0  0  0  0
  -23.4574  -12.0890   19.4955 C   0  0  0  0  0  0  0  0  0  0  0  0
  -20.3092  -18.2767   20.0575 C   0  0  0  0  0  0  0  0  0  0  0  0
  -21.6916  -19.8337   17.9576 C   0  0  0  0  0  0  0  0  0  0  0  0
  -23.3846  -13.1185   18.3708 C   0  0  0  0  0  0  0  0  0  0  0  0
  -30.4749  -24.2156   17.2252 C   0  0  0  0  0  0  0  0  0  0  0  0
  -24.1397  -14.3862   18.7577 C   0  0  0  0  0  0  0  0  0  0  0  0
  -30.0232  -22.8507   17.7476 C   0  0  0  0  0  0  0  0  0  0  0  0
  -31.0946  -25.0664   18.3316 C   0  0  0  0  0  0  0  0  0  0  0  0
  -29.7999  -23.8683   20.0526 C   0  0  0  0  0  0  0  0  0  0  0  0
  -23.5196  -15.0407   19.9981 C   0  0  1  0  0  0  0  0  0  0  0  0
  -20.9577  -17.6016   18.8529 C   0  0  1  0  0  0  0  0  0  0  0  0
  -29.1175  -22.9957   18.9853 C   0  0  2  0  0  0  0  0  0  0  0  0
  -18.4284  -21.0314   12.3843 C   0  0  0  0  0  0  0  0  0  0  0  0
  -23.6095  -17.9072   15.0800 C   0  0  0  0  0  0  0  0  0  0  0  0
  -22.6658  -19.2733   13.2061 C   0  0  0  0  0  0  0  0  0  0  0  0
  -21.7337  -17.0106   13.6900 C   0  0  0  0  0  0  0  0  0  0  0  0
  -16.9723  -21.4166   15.8782 C   0  0  0  0  0  0  0  0  0  0  0  0
  -28.3933  -27.6634   21.5755 C   0  0  0  0  0  0  0  0  0  0  0  0
  -21.9305  -25.6416   21.9336 C   0  0  0  0  0  0  0  0  0  0  0  0
  -21.7655  -24.1591   22.2320 C   0  0  0  0  0  0  0  0  0  1  0  0
  -21.2420  -18.9186   15.2743 C   0  0  1  0  0  0  0  0  0  0  0  0
  -18.1914  -20.6502   13.8373 C   0  0  2  0  0  0  0  0  0  0  0  0
  -22.3117  -18.2869   14.3394 C   0  0  0  0  0  0  0  0  0  0  0  0
  -29.5493  -20.6080   19.4271 N   0  0  0  0  0  0  0  0  0  0  0  0
  -28.7003  -21.6442   19.5351 N   0  0  0  0  0  0  0  0  0  0  0  0
  -21.1064  -18.5056   17.7105 N   0  0  0  0  0  0  0  0  0  0  0  0
  -30.1847  -25.1658   19.4753 N   0  0  0  0  0  0  0  0  0  0  0  0
  -25.9292  -30.6293   18.5208 N   0  0  0  0  0  0  0  0  0  0  0  0
  -23.5083  -29.3019   19.1448 N   0  0  0  0  0  0  0  0  0  0  0  0
  -26.5591  -22.2554   20.3428 N   0  0  0  0  0  0  0  0  0  0  0  0
  -26.8513  -17.8698   21.3806 N   0  0  0  0  0  0  0  0  0  0  0  0
  -23.5368  -27.1491   20.9873 N   0  0  0  0  0  0  0  0  0  0  0  0
  -22.3153  -15.7597   19.6415 N   0  0  0  0  0  0  0  0  0  0  0  0
  -19.9922  -19.2632   14.6052 N   0  0  0  0  0  0  0  0  0  0  0  0
  -28.9075  -26.4375   21.0066 N   0  0  0  0  0  0  0  0  0  0  0  0
  -17.3067  -21.6784   14.4546 N   0  3  0  0  0  0  0  0  0  0  0  0
  -25.5010  -19.7207   21.4797 O   0  0  0  0  0  0  0  0  0  0  0  0
  -23.3109  -17.7551   18.9711 O   0  0  0  0  0  0  0  0  0  0  0  0
  -20.3822  -16.9021   16.1805 O   0  0  0  0  0  0  0  0  0  0  0  0
  -24.2670  -25.5289   22.5226 O   0  0  0  0  0  0  0  0  0  0  0  0
  -20.0307  -21.5191   15.1409 O   0  0  0  0  0  0  0  0  0  0  0  0
  -30.1503  -27.4829   19.3882 O   0  0  0  0  0  0  0  0  0  0  0  0
  -31.1711  -14.5155   20.3211 O   0  0  0  0  0  0  0  0  0  0  0  0
  -22.4336  -23.3962   21.2281 O   0  0  0  0  0  0  0  0  0  1  0  0
  -28.0092  -10.1906   19.0165 F   0  0  0  0  0  0  0  0  0  0  0  0
  -31.8705  -12.8198   18.2527 F   0  0  0  0  0  0  0  0  0  0  0  0
  1  2  1  0  0  0  0
  1  5  2  0  0  0  0
  2  6  2  0  0  0  0
  3  8  2  0  0  0  0
  3 17  1  0  0  0  0
  4  9  1  0  0  0  0
  4 17  2  0  0  0  0
  5 19  1  0  0  0  0
  6 21  1  0  0  0  0
  7 10  2  0  0  0  0
  7 20  1  0  0  0  0
  8 27  1  0  0  0  0
  9 27  2  0  0  0  0
 10 28  1  0  0  0  0
 11 12  2  0  0  0  0
 11 29  1  0  0  0  0
 12 30  1  0  0  0  0
 13 22  1  0  0  0  0
 13 28  2  0  0  0  0
 14 23  1  0  0  0  0
 14 24  2  0  0  0  0
 15 23  2  0  0  0  0
 15 25  1  0  0  0  0
 16 30  2  0  0  0  0
 16 31  1  0  0  0  0
 17 32  1  0  0  0  0
 18 32  1  0  0  0  0
 18 33  2  0  0  0  0
 18 34  1  0  0  0  0
 19 21  2  0  0  0  0
 19 40  1  0  0  0  0
 20 22  2  0  0  0  0
 20 41  1  0  0  0  0
 21 49  1  0  0  0  0
 22 42  1  0  0  0  0
 23 57  1  0  0  0  0
 24 26  1  0  0  0  0
 24 67  1  0  0  0  0
 25 26  2  0  0  0  0
 25 71  1  0  0  0  0
 26 68  1  0  0  0  0
 27 82  1  0  0  0  0
 28 83  1  0  0  0  0
 29 31  2  0  0  0  0
 29 82  1  0  0  0  0
 30 84  1  0  0  0  0
 31 85  1  0  0  0  0
 32 63  2  0  0  0  0
 33 64  1  0  0  0  0
 33 69  1  0  0  0  0
 34 70  1  0  0  0  0
 34 76  2  0  0  0  0
 35 50  1  0  0  0  0
 35 72  1  0  0  0  0
 35 77  2  0  0  0  0
 36 60  1  0  0  0  0
 36 65  1  0  0  0  0
 36 78  2  0  0  0  0
 37 58  1  0  0  0  0
 37 71  1  0  0  0  0
 37 79  2  0  0  0  0
 38 61  1  0  0  0  0
 38 73  1  0  0  0  0
 38 80  2  0  0  0  0
 39 66  1  0  0  0  0
 39 74  1  0  0  0  0
 39 81  2  0  0  0  0
 40 43  1  0  0  0  0
 41 50  1  0  0  0  0
 42 65  1  0  0  0  0
 43 45  1  0  0  0  0
 44 46  1  0  0  0  0
 44 47  1  0  0  0  0
 45 49  1  0  0  0  0
 46 51  1  0  0  0  0
 47 66  1  0  0  0  0
 48 51  1  0  0  0  0
 48 66  1  0  0  0  0
 49 72  1  0  0  0  0
 50 65  1  0  0  0  0
 51 64  1  0  0  0  0
 52 61  1  0  0  0  0
 53 62  1  0  0  0  0
 54 62  1  0  0  0  0
 55 62  1  0  0  0  0
 56 75  1  0  0  0  0
 57 74  1  0  0  0  0
 58 59  1  0  0  0  0
 59 83  1  0  0  0  0
 60 62  1  0  0  0  0
 60 73  1  0  0  0  0
 61 75  1  0  0  0  0
 63 64  1  0  0  0  0
M  CHG  1  75   1
M  ISO  4  39 100  59 101  74 100  83 101
M  END
> <Batch ID>
0094

> <Smiles>
CNC(C)C(=O)NC(C(=O)N1Cc2cc([101O:1][101CH2:1]CC(=O)Nc3cc(C[100NH:0][100C:0](=O)N4CCCC(n5nc(-c6ccc(Oc7ccc(F)cc7F)cc6)c(C(N)=O)c5N)C4)cc(N)c3N)ccc2CC1C(=O)NC1CCCc2ccccc21)C(C)(C)C

> <Shape>
0.224

> <Color>
0.050

> <Negative vol penalty>
0.000

$$$$

  -OEChem-04052300403D

 83 91  0     1  0  0  0  0  0999 V2000
  -24.8203  -31.4895   22.0129 C   0  0  0  0  0  0  0  0  0  0  0  0
  -24.1510  -30.3631   22.4806 C   0  0  0  0  0  0  0  0  0  0  0  0
  -29.3271  -16.4778   17.9373 C   0  0  0  0  0  0  0  0  0  0  0  0
  -27.4797  -17.5134   19.0999 C   0  0  0  0  0  0  0  0  0  0  0  0
  -25.5721  -31.4156   20.8410 C   0  0  0  0  0  0  0  0  0  0  0  0
  -24.2322  -29.1625   21.7761 C   0  0  0  0  0  0  0  0  0  0  0  0
  -24.3097  -22.0749   22.8137 C   0  0  0  0  0  0  0  0  0  0  0  0
  -29.4058  -17.5774   17.0828 C   0  0  0  0  0  0  0  0  0  0  0  0
  -27.5585  -18.6131   18.2454 C   0  0  0  0  0  0  0  0  0  0  0  0
  -23.6668  -20.9159   22.3810 C   0  0  0  0  0  0  0  0  0  0  0  0
  -27.7661  -18.7432   14.3668 C   0  0  0  0  0  0  0  0  0  0  0  0
  -27.9088  -18.4935   13.0019 C   0  0  0  0  0  0  0  0  0  0  0  0
  -25.0596  -20.8857   20.4117 C   0  0  0  0  0  0  0  0  0  0  0  0
  -21.0745  -14.5488   24.5238 C   0  0  0  0  0  0  0  0  0  0  0  0
  -30.0013  -19.7012   12.9997 C   0  0  0  0  0  0  0  0  0  0  0  0
  -28.3640  -16.4457   18.9458 C   0  0  0  0  0  0  0  0  0  0  0  0
  -29.2862  -14.8273   20.6888 C   0  0  0  0  0  0  0  0  0  0  0  0
  -25.6704  -30.2110   20.1270 C   0  0  0  0  0  0  0  0  0  0  0  0
  -25.3267  -22.6551   22.0419 C   0  0  0  0  0  0  0  0  0  0  0  0
  -24.9849  -29.0729   20.5929 C   0  0  0  0  0  0  0  0  0  0  0  0
  -25.7157  -22.0506   20.8380 C   0  0  0  0  0  0  0  0  0  0  0  0
  -22.1551  -13.7032   24.1399 C   0  0  0  0  0  0  0  0  0  0  0  0
  -28.5215  -18.6451   17.2368 C   0  0  0  0  0  0  0  0  0  0  0  0
  -24.0397  -20.3228   21.1784 C   0  0  0  0  0  0  0  0  0  0  0  0
  -28.7410  -19.4720   15.0482 C   0  0  0  0  0  0  0  0  0  0  0  0
  -29.0264  -18.9725   12.3184 C   0  0  0  0  0  0  0  0  0  0  0  0
  -29.8586  -19.9510   14.3646 C   0  0  0  0  0  0  0  0  0  0  0  0
  -28.2818  -15.3098   19.8285 C   0  0  0  0  0  0  0  0  0  0  0  0
  -28.7171  -13.7397   21.3051 C   0  0  0  0  0  0  0  0  0  0  0  0
  -20.9094  -14.5892   25.8908 C   0  0  0  0  0  0  0  0  0  0  0  0
  -22.7752  -13.1298   25.2283 C   0  0  0  0  0  0  0  0  0  0  0  0
  -30.6147  -15.3184   20.9111 C   0  0  0  0  0  0  0  0  0  0  0  0
  -25.7157  -25.4509   20.5805 C   0  0  0  0  0  0  0  0  0  0  0  0
  -28.6975  -24.3024   20.0214 C   0  0  0  0  0  0  0  0  0  0  0  0
  -22.3947  -14.4513   21.7788 C   0  0  0  0  0  0  0  0  0  0  0  0
  -30.7438  -21.5907   19.6962 C   0  0  0  0  0  0  0  0  0  0  0  0
  -23.1029  -12.1888   22.4748 C   0  0  0  0  0  0  0  0  0  0  0  0
  -26.4565  -30.1921   18.8400 C   0  0  0  0  0  0  0  0  0  0  0  0
  -26.0287  -23.8903   22.5356 C   0  0  0  0  0  0  0  0  0  0  0  0
  -26.8154  -22.6225   19.9825 C   0  0  0  0  0  0  0  0  0  0  0  0
  -26.7966  -28.7854   18.3546 C   0  0  0  0  0  0  0  0  0  0  0  0
  -25.4509  -10.3183   20.6267 C   0  0  0  0  0  0  0  0  0  0  0  0
  -25.5680  -27.8842   18.4266 C   0  0  0  0  0  0  0  0  0  0  0  0
  -26.5370  -11.3375   20.2808 C   0  0  0  0  0  0  0  0  0  0  0  0
  -24.0617  -10.9435   20.5538 C   0  0  0  0  0  0  0  0  0  0  0  0
  -24.9798  -13.1839   21.0582 C   0  0  0  0  0  0  0  0  0  0  0  0
  -25.0690  -27.7460   19.8700 C   0  0  1  0  0  0  0  0  0  0  0  0
  -26.6991  -24.6835   21.4182 C   0  0  1  0  0  0  0  0  0  0  0  0
  -26.4038  -12.6044   21.1450 C   0  0  2  0  0  0  0  0  0  0  0  0
  -33.1235  -20.9667   19.2011 C   0  0  0  0  0  0  0  0  0  0  0  0
  -28.2334  -24.8894   17.0634 C   0  0  0  0  0  0  0  0  0  0  0  0
  -30.1827  -23.4097   16.5355 C   0  0  0  0  0  0  0  0  0  0  0  0
  -30.5180  -25.4729   17.8969 C   0  0  0  0  0  0  0  0  0  0  0  0
  -31.0729  -20.2882   22.3333 C   0  0  0  0  0  0  0  0  0  0  0  0
  -22.4228  -15.8855   22.3058 C   0  0  0  0  0  0  0  0  0  0  0  0
  -22.9585  -16.8705   21.2635 C   0  0  0  0  0  0  0  0  0  0  0  0
  -22.9104  -18.3119   21.7546 C   0  0  0  0  0  0  0  0  0  1  0  0
  -29.3409  -23.4863   18.9264 C   0  0  1  0  0  0  0  0  0  0  0  0
  -32.1071  -21.2808   20.2878 C   0  0  2  0  0  0  0  0  0  0  0  0
  -29.5467  -24.3046   17.6205 C   0  0  0  0  0  0  0  0  0  0  0  0
  -27.1597  -14.5879   19.8898 N   0  0  0  0  0  0  0  0  0  0  0  0
  -27.4556  -13.6406   20.7960 N   0  0  0  0  0  0  0  0  0  0  0  0
  -27.4672  -23.8349   20.5050 N   0  0  0  0  0  0  0  0  0  0  0  0
  -23.9883  -12.1471   21.3817 N   0  0  0  0  0  0  0  0  0  0  0  0
  -29.1776  -12.8681   22.2273 N   0  0  0  0  0  0  0  0  0  0  0  0
  -19.9735  -15.2984   26.5699 N   0  0  0  0  0  0  0  0  0  0  0  0
  -30.8137  -16.2767   21.9143 N   0  0  0  0  0  0  0  0  0  0  0  0
  -25.9022  -26.8198   20.6063 N   0  0  0  0  0  0  0  0  0  0  0  0
  -30.5715  -22.9433   19.4914 N   0  0  0  0  0  0  0  0  0  0  0  0
  -22.5696  -13.4611   22.7743 N   0  0  0  0  0  0  0  0  0  0  0  0
  -32.0201  -20.1079   21.2031 N   0  3  0  0  0  0  0  0  0  0  0  0
  -31.5937  -14.9313   20.2290 O   0  0  0  0  0  0  0  0  0  0  0  0
  -24.8526  -24.8457   19.9556 O   0  0  0  0  0  0  0  0  0  0  0  0
  -29.2689  -25.3133   20.4376 O   0  0  0  0  0  0  0  0  0  0  0  0
  -22.1641  -14.2218   20.5904 O   0  0  0  0  0  0  0  0  0  0  0  0
  -29.9162  -20.7196   19.4379 O   0  0  0  0  0  0  0  0  0  0  0  0
  -22.7753  -11.1892   23.1236 O   0  0  0  0  0  0  0  0  0  0  0  0
  -28.5982  -19.7184   16.4034 O   0  0  0  0  0  0  0  0  0  0  0  0
  -23.4089  -19.1837   20.7504 O   0  0  0  0  0  0  0  0  0  1  0  0
  -29.1640  -18.7313   11.0080 F   0  0  0  0  0  0  0  0  0  0  0  0
  -30.7990  -20.6507   15.0141 F   0  0  0  0  0  0  0  0  0  0  0  0
  -23.8172  -12.2944   25.1488 F   0  0  0  0  0  0  0  0  0  0  0  0
  -22.0545  -13.6107   26.7054 S   0  0  0  0  0  0  0  0  0  0  0  0
  1  2  1  0  0  0  0
  1  5  2  0  0  0  0
  2  6  2  0  0  0  0
  3  8  2  0  0  0  0
  3 16  1  0  0  0  0
  4  9  1  0  0  0  0
  4 16  2  0  0  0  0
  5 18  1  0  0  0  0
  6 20  1  0  0  0  0
  7 10  2  0  0  0  0
  7 19  1  0  0  0  0
  8 23  1  0  0  0  0
  9 23  2  0  0  0  0
 10 24  1  0  0  0  0
 11 12  2  0  0  0  0
 11 25  1  0  0  0  0
 12 26  1  0  0  0  0
 13 21  1  0  0  0  0
 13 24  2  0  0  0  0
 14 22  1  0  0  0  0
 14 30  2  0  0  0  0
 15 26  2  0  0  0  0
 15 27  1  0  0  0  0
 16 28  1  0  0  0  0
 17 28  1  0  0  0  0
 17 29  2  0  0  0  0
 17 32  1  0  0  0  0
 18 20  2  0  0  0  0
 18 38  1  0  0  0  0
 19 21  2  0  0  0  0
 19 39  1  0  0  0  0
 20 47  1  0  0  0  0
 21 40  1  0  0  0  0
 22 31  2  0  0  0  0
 22 70  1  0  0  0  0
 23 78  1  0  0  0  0
 24 79  1  0  0  0  0
 25 27  2  0  0  0  0
 25 78  1  0  0  0  0
 26 80  1  0  0  0  0
 27 81  1  0  0  0  0
 28 61  2  0  0  0  0
 29 62  1  0  0  0  0
 29 65  1  0  0  0  0
 30 66  1  0  0  0  0
 30 83  1  0  0  0  0
 31 82  1  0  0  0  0
 31 83  1  0  0  0  0
 32 67  1  0  0  0  0
 32 72  2  0  0  0  0
 33 48  1  0  0  0  0
 33 68  1  0  0  0  0
 33 73  2  0  0  0  0
 34 58  1  0  0  0  0
 34 63  1  0  0  0  0
 34 74  2  0  0  0  0
 35 55  1  0  0  0  0
 35 70  1  0  0  0  0
 35 75  2  0  0  0  0
 36 59  1  0  0  0  0
 36 69  1  0  0  0  0
 36 76  2  0  0  0  0
 37 64  1  0  0  0  0
 37 70  1  0  0  0  0
 37 77  2  0  0  0  0
 38 41  1  0  0  0  0
 39 48  1  0  0  0  0
 40 63  1  0  0  0  0
 41 43  1  0  0  0  0
 42 44  1  0  0  0  0
 42 45  1  0  0  0  0
 43 47  1  0  0  0  0
 44 49  1  0  0  0  0
 45 64  1  0  0  0  0
 46 49  1  0  0  0  0
 46 64  1  0  0  0  0
 47 68  1  0  0  0  0
 48 63  1  0  0  0  0
 49 62  1  0  0  0  0
 50 59  1  0  0  0  0
 51 60  1  0  0  0  0
 52 60  1  0  0  0  0
 53 60  1  0  0  0  0
 54 71  1  0  0  0  0
 55 56  1  0  0  0  0
 56 57  1  0  0  0  0
 57 79  1  0  0  0  0
 58 60  1  0  0  0  0
 58 69  1  0  0  0  0
 59 71  1  0  0  0  0
 61 62  1  0  0  0  0
M  CHG  1  71   1
M  ISO  4  37 100  57 101  70 100  79 101
M  END
> <Batch ID>
0094

> <Smiles>
CNC(C)C(=O)NC(C(=O)N1Cc2cc([101O:1][101CH2:1]CCC(=O)[100N:0](c3cc(N)sc3F)[100C:0](=O)N3CCCC(n4nc(-c5ccc(Oc6ccc(F)cc6F)cc5)c(C(N)=O)c4N)C3)ccc2CC1C(=O)NC1CCCc2ccccc21)C(C)(C)C

> <Shape>
0.196

> <Color>
0.076

> <Negative vol penalty>
0.000

$$$$

  -OEChem-04052300403D

 86 95  0     1  0  0  0  0  0999 V2000
  -29.6589  -33.0659   24.3996 C   0  0  0  0  0  0  0  0  0  0  0  0
  -29.4430  -31.7718   23.9371 C   0  0  0  0  0  0  0  0  0  0  0  0
  -23.0371  -10.0100   19.8471 C   0  0  0  0  0  0  0  0  0  0  0  0
  -23.9731   -9.6962   22.0522 C   0  0  0  0  0  0  0  0  0  0  0  0
  -28.5910  -33.8181   24.8870 C   0  0  0  0  0  0  0  0  0  0  0  0
  -28.1589  -31.2286   23.9628 C   0  0  0  0  0  0  0  0  0  0  0  0
  -26.9810  -28.8227   19.6652 C   0  0  0  0  0  0  0  0  0  0  0  0
  -29.2813  -18.6589   21.6964 C   0  0  0  0  0  0  0  0  0  0  0  0
  -31.4159  -18.5925   20.5667 C   0  0  0  0  0  0  0  0  0  0  0  0
  -28.9506  -19.8232   21.0030 C   0  0  0  0  0  0  0  0  0  0  0  0
  -31.0852  -19.7568   19.8733 C   0  0  0  0  0  0  0  0  0  0  0  0
  -22.3206   -8.8209   19.9820 C   0  0  0  0  0  0  0  0  0  0  0  0
  -23.2565   -8.5071   22.1871 C   0  0  0  0  0  0  0  0  0  0  0  0
  -27.5099  -27.5453   19.4851 C   0  0  0  0  0  0  0  0  0  0  0  0
  -20.0890   -7.5782   22.9112 C   0  0  0  0  0  0  0  0  0  0  0  0
  -19.4257   -7.3564   24.1180 C   0  0  0  0  0  0  0  0  0  0  0  0
  -25.4048  -26.5842   20.1660 C   0  0  0  0  0  0  0  0  0  0  0  0
  -29.0900  -22.9475   17.7336 C   0  0  0  0  0  0  0  0  0  0  0  0
  -20.7300   -5.3529   24.4668 C   0  0  0  0  0  0  0  0  0  0  0  0
  -23.8635  -10.4476   20.8822 C   0  0  0  0  0  0  0  0  0  0  0  0
  -24.1826  -12.9686   21.1064 C   0  0  0  0  0  0  0  0  0  0  0  0
  -27.2916  -33.2874   24.9097 C   0  0  0  0  0  0  0  0  0  0  0  0
  -25.6612  -28.9906   20.1084 C   0  0  0  0  0  0  0  0  0  0  0  0
  -27.0728  -31.9739   24.4522 C   0  0  0  0  0  0  0  0  0  0  0  0
  -24.8607  -27.8647   20.3486 C   0  0  0  0  0  0  0  0  0  0  0  0
  -30.5140  -18.0436   21.4782 C   0  0  0  0  0  0  0  0  0  0  0  0
  -28.9589  -23.6435   18.9606 C   0  0  0  0  0  0  0  0  0  0  0  0
  -29.8525  -20.3721   20.0915 C   0  0  0  0  0  0  0  0  0  0  0  0
  -22.4303   -8.0694   21.1520 C   0  0  0  0  0  0  0  0  0  0  0  0
  -26.7227  -26.4258   19.7383 C   0  0  0  0  0  0  0  0  0  0  0  0
  -21.0728   -6.6872   22.4821 C   0  0  0  0  0  0  0  0  0  0  0  0
  -19.7462   -6.2438   24.8958 C   0  0  0  0  0  0  0  0  0  0  0  0
  -21.3934   -5.5746   23.2599 C   0  0  0  0  0  0  0  0  0  0  0  0
  -24.6043  -11.6756   20.7432 C   0  0  0  0  0  0  0  0  0  0  0  0
  -29.2316  -22.7490   19.9720 C   0  0  0  0  0  0  0  0  0  0  0  0
  -25.2395  -13.7805   20.7742 C   0  0  0  0  0  0  0  0  0  0  0  0
  -29.4386  -21.6488   18.0325 C   0  0  0  0  0  0  0  0  0  0  0  0
  -22.9461  -13.3975   21.6918 C   0  0  0  0  0  0  0  0  0  0  0  0
  -24.3032  -30.3053   22.6639 C   0  0  0  0  0  0  0  0  0  0  0  0
  -21.5613  -29.6666   21.0525 C   0  0  0  0  0  0  0  0  0  0  0  0
  -19.9561  -27.7940   18.6938 C   0  0  0  0  0  0  0  0  0  0  0  0
  -30.7163  -14.8499   20.6905 C   0  0  0  0  0  0  0  0  0  0  0  0
  -26.1768  -34.1214   25.4896 C   0  0  0  0  0  0  0  0  0  0  0  0
  -25.0971  -30.3753   20.2721 C   0  0  0  0  0  0  0  0  0  0  0  0
  -23.4314  -27.9910   20.8064 C   0  0  0  0  0  0  0  0  0  0  0  0
  -24.7838  -33.6077   25.1347 C   0  0  0  0  0  0  0  0  0  0  0  0
  -29.4080  -12.8191   18.0750 C   0  0  0  0  0  0  0  0  0  0  0  0
  -24.7006  -32.0996   25.3481 C   0  0  0  0  0  0  0  0  0  0  0  0
  -28.0101  -12.4424   18.5687 C   0  0  0  0  0  0  0  0  0  0  0  0
  -30.4147  -12.8780   19.2217 C   0  0  0  0  0  0  0  0  0  0  0  0
  -28.6231  -13.3692   20.8412 C   0  0  0  0  0  0  0  0  0  0  0  0
  -25.6902  -31.3587   24.4408 C   0  0  1  0  0  0  0  0  0  0  0  0
  -23.9033  -30.4258   21.2206 C   0  0  1  0  0  0  0  0  0  0  0  0
  -27.5611  -13.3517   19.7285 C   0  0  2  0  0  0  0  0  0  0  0  0
  -29.2375  -22.9541   21.4380 C   0  0  0  0  0  0  0  0  0  0  0  0
  -17.7080  -27.4779   17.6245 C   0  0  0  0  0  0  0  0  0  0  0  0
  -20.5829  -28.2068   23.5469 C   0  0  0  0  0  0  0  0  0  0  0  0
  -18.8133  -27.1323   22.1390 C   0  0  0  0  0  0  0  0  0  0  0  0
  -18.8516  -29.6114   22.4137 C   0  0  0  0  0  0  0  0  0  0  0  0
  -21.0049  -28.4835   16.0135 C   0  0  0  0  0  0  0  0  0  0  0  0
  -30.8677  -16.7988   22.2195 C   0  0  0  0  0  0  0  0  0  0  0  0
  -28.5898  -25.0891   19.1194 C   0  0  0  0  0  0  0  0  0  1  0  0
  -20.6111  -28.4957   20.9814 C   0  0  1  0  0  0  0  0  0  0  0  0
  -19.0506  -28.1871   17.5405 C   0  0  2  0  0  0  0  0  0  0  0  0
  -19.7422  -28.3588   22.2635 C   0  0  0  0  0  0  0  0  0  0  0  0
  -25.8333  -11.6619   20.2201 N   0  0  0  0  0  0  0  0  0  0  0  0
  -29.5216  -21.5397   19.3961 N   0  0  0  0  0  0  0  0  0  0  0  0
  -26.1928  -12.9565   20.2522 N   0  0  0  0  0  0  0  0  0  0  0  0
  -22.9275  -29.3660   20.9580 N   0  0  0  0  0  0  0  0  0  0  0  0
  -29.9298  -13.7580   20.2878 N   0  0  0  0  0  0  0  0  0  0  0  0
  -25.4371  -15.1116   20.8806 N   0  0  0  0  0  0  0  0  0  0  0  0
  -21.9679  -12.4328   21.9689 N   0  0  0  0  0  0  0  0  0  0  0  0
  -25.1793  -31.2858   23.0887 N   0  0  0  0  0  0  0  0  0  0  0  0
  -19.8418  -28.6683   19.7539 N   0  0  0  0  0  0  0  0  0  0  0  0
  -30.1799  -15.6368   21.7024 N   0  0  0  0  0  0  0  0  0  0  0  0
  -19.6870  -27.8362   16.2394 N   0  3  0  0  0  0  0  0  0  0  0  0
  -22.7090  -14.6028   21.9461 O   0  0  0  0  0  0  0  0  0  0  0  0
  -23.8492  -29.3913   23.3424 O   0  0  0  0  0  0  0  0  0  0  0  0
  -21.1077  -30.8066   21.1800 O   0  0  0  0  0  0  0  0  0  0  0  0
  -20.6887  -26.8078   18.6592 O   0  0  0  0  0  0  0  0  0  0  0  0
  -31.8126  -15.1077   20.1821 O   0  0  0  0  0  0  0  0  0  0  0  0
  -29.6745  -20.6150   17.2336 O   0  0  0  0  0  0  0  0  0  0  0  0
  -21.7310   -6.9092   21.2841 O   0  0  0  0  0  0  0  0  0  0  0  0
  -27.2367  -25.1779   19.5638 O   0  0  0  0  0  0  0  0  0  1  0  0
  -19.1102   -6.0318   26.0554 F   0  0  0  0  0  0  0  0  0  0  0  0
  -22.3384   -4.7159   22.8535 F   0  0  0  0  0  0  0  0  0  0  0  0
  1  2  1  0  0  0  0
  1  5  2  0  0  0  0
  2  6  2  0  0  0  0
  3 12  2  0  0  0  0
  3 20  1  0  0  0  0
  4 13  1  0  0  0  0
  4 20  2  0  0  0  0
  5 22  1  0  0  0  0
  6 24  1  0  0  0  0
  7 14  2  0  0  0  0
  7 23  1  0  0  0  0
  8 10  2  0  0  0  0
  8 26  1  0  0  0  0
  9 11  1  0  0  0  0
  9 26  2  0  0  0  0
 10 28  1  0  0  0  0
 11 28  2  0  0  0  0
 12 29  1  0  0  0  0
 13 29  2  0  0  0  0
 14 30  1  0  0  0  0
 15 16  2  0  0  0  0
 15 31  1  0  0  0  0
 16 32  1  0  0  0  0
 17 25  1  0  0  0  0
 17 30  2  0  0  0  0
 18 27  1  0  0  0  0
 18 37  2  0  0  0  0
 19 32  2  0  0  0  0
 19 33  1  0  0  0  0
 20 34  1  0  0  0  0
 21 34  1  0  0  0  0
 21 36  2  0  0  0  0
 21 38  1  0  0  0  0
 22 24  2  0  0  0  0
 22 43  1  0  0  0  0
 23 25  2  0  0  0  0
 23 44  1  0  0  0  0
 24 52  1  0  0  0  0
 25 45  1  0  0  0  0
 26 61  1  0  0  0  0
 27 35  2  0  0  0  0
 27 62  1  0  0  0  0
 28 67  1  0  0  0  0
 29 83  1  0  0  0  0
 30 84  1  0  0  0  0
 31 33  2  0  0  0  0
 31 83  1  0  0  0  0
 32 85  1  0  0  0  0
 33 86  1  0  0  0  0
 34 66  2  0  0  0  0
 35 55  1  0  0  0  0
 35 67  1  0  0  0  0
 36 68  1  0  0  0  0
 36 71  1  0  0  0  0
 37 67  1  0  0  0  0
 37 82  1  0  0  0  0
 38 72  1  0  0  0  0
 38 77  2  0  0  0  0
 39 53  1  0  0  0  0
 39 73  1  0  0  0  0
 39 78  2  0  0  0  0
 40 63  1  0  0  0  0
 40 69  1  0  0  0  0
 40 79  2  0  0  0  0
 41 64  1  0  0  0  0
 41 74  1  0  0  0  0
 41 80  2  0  0  0  0
 42 70  1  0  0  0  0
 42 75  1  0  0  0  0
 42 81  2  0  0  0  0
 43 46  1  0  0  0  0
 44 53  1  0  0  0  0
 45 69  1  0  0  0  0
 46 48  1  0  0  0  0
 47 49  1  0  0  0  0
 47 50  1  0  0  0  0
 48 52  1  0  0  0  0
 49 54  1  0  0  0  0
 50 70  1  0  0  0  0
 51 54  1  0  0  0  0
 51 70  1  0  0  0  0
 52 73  1  0  0  0  0
 53 69  1  0  0  0  0
 54 68  1  0  0  0  0
 56 64  1  0  0  0  0
 57 65  1  0  0  0  0
 58 65  1  0  0  0  0
 59 65  1  0  0  0  0
 60 76  1  0  0  0  0
 61 75  1  0  0  0  0
 62 84  1  0  0  0  0
 63 65  1  0  0  0  0
 63 74  1  0  0  0  0
 64 76  1  0  0  0  0
 66 68  1  0  0  0  0
M  CHG  1  76   1
M  ISO  4  42 100  62 101  75 100  84 101
M  END
> <Batch ID>
0094

> <Smiles>
CNC(C)C(=O)NC(C(=O)N1Cc2cc([101O:1][101CH2:1]C3=C(C)N(c4ccc(C[100NH:0][100C:0](=O)N5CCCC(n6nc(-c7ccc(Oc8ccc(F)cc8F)cc7)c(C(N)=O)c6N)C5)cc4)C(=O)C3)ccc2CC1C(=O)NC1CCCc2ccccc21)C(C)(C)C

> <Shape>
0.423

> <Color>
0.208

> <Negative vol penalty>
0.000

$$$$

  -OEChem-04052300403D

 83 91  0     1  0  0  0  0  0999 V2000
  -32.1606  -34.7740   22.5672 C   0  0  0  0  0  0  0  0  0  0  0  0
  -31.8555  -33.4359   22.3393 C   0  0  0  0  0  0  0  0  0  0  0  0
  -23.9009   -9.7751   22.0253 C   0  0  0  0  0  0  0  0  0  0  0  0
  -24.4879  -11.2427   23.8525 C   0  0  0  0  0  0  0  0  0  0  0  0
  -31.1263  -20.0388   19.8782 C   0  0  0  0  0  0  0  0  0  0  0  0
  -31.3513  -35.5392   23.4060 C   0  0  0  0  0  0  0  0  0  0  0  0
  -30.7416  -32.8620   22.9509 C   0  0  0  0  0  0  0  0  0  0  0  0
  -28.0202  -30.0235   19.7599 C   0  0  0  0  0  0  0  0  0  0  0  0
  -30.8243  -18.6925   19.6736 C   0  0  0  0  0  0  0  0  0  0  0  0
  -23.4406   -8.8247   22.9365 C   0  0  0  0  0  0  0  0  0  0  0  0
  -24.0276  -10.2923   24.7638 C   0  0  0  0  0  0  0  0  0  0  0  0
  -28.5067  -28.7501   19.4673 C   0  0  0  0  0  0  0  0  0  0  0  0
  -20.6823   -8.3149   24.8245 C   0  0  0  0  0  0  0  0  0  0  0  0
  -19.4585   -7.7009   24.5581 C   0  0  0  0  0  0  0  0  0  0  0  0
  -28.7705  -20.5377   20.0736 C   0  0  0  0  0  0  0  0  0  0  0  0
  -26.9549  -27.7999   21.0512 C   0  0  0  0  0  0  0  0  0  0  0  0
  -20.5515   -5.5469   24.5028 C   0  0  0  0  0  0  0  0  0  0  0  0
  -24.4246  -10.9842   22.4833 C   0  0  0  0  0  0  0  0  0  0  0  0
  -30.0994  -20.9614   20.0783 C   0  0  0  0  0  0  0  0  0  0  0  0
  -24.1582  -13.0038   20.9478 C   0  0  0  0  0  0  0  0  0  0  0  0
  -30.2214  -34.9769   24.0206 C   0  0  0  0  0  0  0  0  0  0  0  0
  -27.0033  -30.1960   20.7100 C   0  0  0  0  0  0  0  0  0  0  0  0
  -29.9172  -33.6200   23.7998 C   0  0  0  0  0  0  0  0  0  0  0  0
  -26.4555  -29.0763   21.3522 C   0  0  0  0  0  0  0  0  0  0  0  0
  -29.4954  -18.2688   19.6689 C   0  0  0  0  0  0  0  0  0  0  0  0
  -23.5040   -9.0832   24.3057 C   0  0  0  0  0  0  0  0  0  0  0  0
  -27.9760  -27.6384   20.1151 C   0  0  0  0  0  0  0  0  0  0  0  0
  -21.8406   -7.5450   24.9299 C   0  0  0  0  0  0  0  0  0  0  0  0
  -19.3931   -6.3169   24.3973 C   0  0  0  0  0  0  0  0  0  0  0  0
  -28.4684  -19.1914   19.8689 C   0  0  0  0  0  0  0  0  0  0  0  0
  -21.7752   -6.1610   24.7691 C   0  0  0  0  0  0  0  0  0  0  0  0
  -24.9008  -11.9661   21.5425 C   0  0  0  0  0  0  0  0  0  0  0  0
  -25.0599  -13.6514   20.1391 C   0  0  0  0  0  0  0  0  0  0  0  0
  -29.5508  -24.4822   20.6781 C   0  0  0  0  0  0  0  0  0  0  0  0
  -30.4226  -22.4013   20.2970 C   0  0  0  0  0  0  0  0  0  0  0  0
  -22.7769  -13.3513   21.1119 C   0  0  0  0  0  0  0  0  0  0  0  0
  -26.7684  -31.7108   23.4945 C   0  0  0  0  0  0  0  0  0  0  0  0
  -23.6513  -30.8442   23.2599 C   0  0  0  0  0  0  0  0  0  0  0  0
  -21.3276  -28.7101   21.9587 C   0  0  0  0  0  0  0  0  0  0  0  0
  -30.0933  -15.8584   19.2460 C   0  0  0  0  0  0  0  0  0  0  0  0
  -29.4035  -35.8310   24.9566 C   0  0  0  0  0  0  0  0  0  0  0  0
  -26.4710  -31.5737   20.9948 C   0  0  0  0  0  0  0  0  0  0  0  0
  -25.3486  -29.2058   22.3652 C   0  0  0  0  0  0  0  0  0  0  0  0
  -28.0284  -35.2469   25.2695 C   0  0  0  0  0  0  0  0  0  0  0  0
  -29.7445  -12.3531   18.7283 C   0  0  0  0  0  0  0  0  0  0  0  0
  -28.1430  -33.7644   25.6100 C   0  0  0  0  0  0  0  0  0  0  0  0
  -28.3922  -12.0253   19.3654 C   0  0  0  0  0  0  0  0  0  0  0  0
  -30.4989  -13.4218   19.5172 C   0  0  0  0  0  0  0  0  0  0  0  0
  -28.3892  -14.3253   20.4127 C   0  0  0  0  0  0  0  0  0  0  0  0
  -28.7033  -32.9680   24.4254 C   0  0  1  0  0  0  0  0  0  0  0  0
  -25.7892  -31.6813   22.3553 C   0  0  1  0  0  0  0  0  0  0  0  0
  -27.5640  -13.3005   19.6173 C   0  0  2  0  0  0  0  0  0  0  0  0
  -18.8645  -28.2302   21.9779 C   0  0  0  0  0  0  0  0  0  0  0  0
  -23.9172  -29.6031   26.0346 C   0  0  0  0  0  0  0  0  0  0  0  0
  -21.7938  -28.3496   25.6010 C   0  0  0  0  0  0  0  0  0  0  0  0
  -21.7806  -30.8437   25.6470 C   0  0  0  0  0  0  0  0  0  0  0  0
  -21.0978  -29.1688   19.0440 C   0  0  0  0  0  0  0  0  0  0  0  0
  -28.4036  -25.4276   20.8805 C   0  0  0  0  0  0  0  0  0  1  0  0
  -22.8397  -29.6457   23.6887 C   0  0  1  0  0  0  0  0  0  0  0  0
  -19.9959  -28.9655   21.2763 C   0  0  2  0  0  0  0  0  0  0  0  0
  -22.6050  -29.6079   25.2252 C   0  0  0  0  0  0  0  0  0  0  0  0
  -26.1759  -11.9515   21.1453 N   0  0  0  0  0  0  0  0  0  0  0  0
  -29.3328  -23.2245   20.4840 N   0  0  0  0  0  0  0  0  0  0  0  0
  -26.2416  -12.9879   20.2923 N   0  0  0  0  0  0  0  0  0  0  0  0
  -24.8662  -30.5743   22.6141 N   0  0  0  0  0  0  0  0  0  0  0  0
  -29.6539  -14.6018   19.7136 N   0  0  0  0  0  0  0  0  0  0  0  0
  -24.9493  -14.7180   19.3190 N   0  0  0  0  0  0  0  0  0  0  0  0
  -21.9929  -12.5810   21.9815 N   0  0  0  0  0  0  0  0  0  0  0  0
  -29.1918  -16.9006   19.4601 N   0  0  0  0  0  0  0  0  0  0  0  0
  -27.6750  -32.7517   23.4303 N   0  0  0  0  0  0  0  0  0  0  0  0
  -21.6143  -29.6784   22.8977 N   0  0  0  0  0  0  0  0  0  0  0  0
  -20.0446  -28.5095   19.8583 N   0  3  0  0  0  0  0  0  0  0  0  0
  -31.6004  -22.7489   20.2951 O   0  0  0  0  0  0  0  0  0  0  0  0
  -22.2494  -14.3063   20.4928 O   0  0  0  0  0  0  0  0  0  0  0  0
  -26.7051  -30.8537   24.3680 O   0  0  0  0  0  0  0  0  0  0  0  0
  -23.2198  -31.9780   23.4830 O   0  0  0  0  0  0  0  0  0  0  0  0
  -22.0404  -27.7460   21.6887 O   0  0  0  0  0  0  0  0  0  0  0  0
  -31.1767  -15.9946   18.6718 O   0  0  0  0  0  0  0  0  0  0  0  0
  -23.0547   -8.1561   25.1952 O   0  0  0  0  0  0  0  0  0  0  0  0
  -28.4495  -26.3944   19.8318 O   0  0  0  0  0  0  0  0  0  1  0  0
  -18.2176   -5.7271   24.1430 F   0  0  0  0  0  0  0  0  0  0  0  0
  -27.1872  -18.7958   19.8659 F   0  0  0  0  0  0  0  0  0  0  0  0
  -22.8845   -5.4160   24.8705 F   0  0  0  0  0  0  0  0  0  0  0  0
  1  2  1  0  0  0  0
  1  6  2  0  0  0  0
  2  7  2  0  0  0  0
  3 10  2  0  0  0  0
  3 18  1  0  0  0  0
  4 11  1  0  0  0  0
  4 18  2  0  0  0  0
  5  9  2  0  0  0  0
  5 19  1  0  0  0  0
  6 21  1  0  0  0  0
  7 23  1  0  0  0  0
  8 12  2  0  0  0  0
  8 22  1  0  0  0  0
  9 25  1  0  0  0  0
 10 26  1  0  0  0  0
 11 26  2  0  0  0  0
 12 27  1  0  0  0  0
 13 14  2  0  0  0  0
 13 28  1  0  0  0  0
 14 29  1  0  0  0  0
 15 19  2  0  0  0  0
 15 30  1  0  0  0  0
 16 24  1  0  0  0  0
 16 27  2  0  0  0  0
 17 29  2  0  0  0  0
 17 31  1  0  0  0  0
 18 32  1  0  0  0  0
 19 35  1  0  0  0  0
 20 32  1  0  0  0  0
 20 33  2  0  0  0  0
 20 36  1  0  0  0  0
 21 23  2  0  0  0  0
 21 41  1  0  0  0  0
 22 24  2  0  0  0  0
 22 42  1  0  0  0  0
 23 50  1  0  0  0  0
 24 43  1  0  0  0  0
 25 30  2  0  0  0  0
 25 69  1  0  0  0  0
 26 79  1  0  0  0  0
 27 80  1  0  0  0  0
 28 31  2  0  0  0  0
 28 79  1  0  0  0  0
 29 81  1  0  0  0  0
 30 82  1  0  0  0  0
 31 83  1  0  0  0  0
 32 62  2  0  0  0  0
 33 64  1  0  0  0  0
 33 67  1  0  0  0  0
 34 58  1  0  0  0  0
 34 63  2  0  0  0  0
 35 63  1  0  0  0  0
 35 73  2  0  0  0  0
 36 68  1  0  0  0  0
 36 74  2  0  0  0  0
 37 51  1  0  0  0  0
 37 70  1  0  0  0  0
 37 75  2  0  0  0  0
 38 59  1  0  0  0  0
 38 65  1  0  0  0  0
 38 76  2  0  0  0  0
 39 60  1  0  0  0  0
 39 71  1  0  0  0  0
 39 77  2  0  0  0  0
 40 66  1  0  0  0  0
 40 69  1  0  0  0  0
 40 78  2  0  0  0  0
 41 44  1  0  0  0  0
 42 51  1  0  0  0  0
 43 65  1  0  0  0  0
 44 46  1  0  0  0  0
 45 47  1  0  0  0  0
 45 48  1  0  0  0  0
 46 50  1  0  0  0  0
 47 52  1  0  0  0  0
 48 66  1  0  0  0  0
 49 52  1  0  0  0  0
 49 66  1  0  0  0  0
 50 70  1  0  0  0  0
 51 65  1  0  0  0  0
 52 64  1  0  0  0  0
 53 60  1  0  0  0  0
 54 61  1  0  0  0  0
 55 61  1  0  0  0  0
 56 61  1  0  0  0  0
 57 72  1  0  0  0  0
 58 80  1  0  0  0  0
 59 61  1  0  0  0  0
 59 71  1  0  0  0  0
 60 72  1  0  0  0  0
 62 64  1  0  0  0  0
M  CHG  1  72   1
M  ISO  4  40 100  58 101  69 100  80 101
M  END
> <Batch ID>
0094

> <Smiles>
CNC(C)C(=O)NC(C(=O)N1Cc2cc([101O:1][101CH2:1]C=NC(=O)c3ccc([100NH:0][100C:0](=O)N4CCCC(n5nc(-c6ccc(Oc7ccc(F)cc7F)cc6)c(C(N)=O)c5N)C4)c(F)c3)ccc2CC1C(=O)NC1CCCc2ccccc21)C(C)(C)C

> <Shape>
0.308

> <Color>
0.144

> <Negative vol penalty>
0.000

$$$$

  -OEChem-04052300403D

 87 96  0     1  0  0  0  0  0999 V2000
  -25.5951  -37.6597   22.1543 C   0  0  0  0  0  0  0  0  0  0  0  0
  -26.3528  -36.5820   21.7072 C   0  0  0  0  0  0  0  0  0  0  0  0
  -24.2234  -12.0455   21.2957 C   0  0  0  0  0  0  0  0  0  0  0  0
  -24.4399  -12.3134   18.9044 C   0  0  0  0  0  0  0  0  0  0  0  0
  -24.6054  -37.4630   23.1164 C   0  0  0  0  0  0  0  0  0  0  0  0
  -26.1219  -35.3071   22.2228 C   0  0  0  0  0  0  0  0  0  0  0  0
  -26.5756  -29.9860   19.2251 C   0  0  0  0  0  0  0  0  0  0  0  0
  -23.2967  -11.0221   21.0971 C   0  0  0  0  0  0  0  0  0  0  0  0
  -23.5132  -11.2900   18.7058 C   0  0  0  0  0  0  0  0  0  0  0  0
  -27.5857  -29.0270   19.1641 C   0  0  0  0  0  0  0  0  0  0  0  0
  -23.3455   -7.7411   20.2813 C   0  0  0  0  0  0  0  0  0  0  0  0
  -23.4858   -6.5824   21.0449 C   0  0  0  0  0  0  0  0  0  0  0  0
  -26.4729  -27.7542   20.8849 C   0  0  0  0  0  0  0  0  0  0  0  0
  -32.1473  -21.8157   17.6202 C   0  0  0  0  0  0  0  0  0  0  0  0
  -29.9193  -21.8144   18.5543 C   0  0  0  0  0  0  0  0  0  0  0  0
  -21.2863   -6.9329   21.9810 C   0  0  0  0  0  0  0  0  0  0  0  0
  -24.7950  -12.6912   20.1993 C   0  0  0  0  0  0  0  0  0  0  0  0
  -30.9574  -19.7322   17.9033 C   0  0  0  0  0  0  0  0  0  0  0  0
  -27.1494  -13.6209   20.5157 C   0  0  0  0  0  0  0  0  0  0  0  0
  -24.3557  -36.1834   23.6370 C   0  0  0  0  0  0  0  0  0  0  0  0
  -25.5105  -29.8416   20.1257 C   0  0  0  0  0  0  0  0  0  0  0  0
  -25.1288  -35.0934   23.1937 C   0  0  0  0  0  0  0  0  0  0  0  0
  -25.4492  -28.7115   20.9536 C   0  0  0  0  0  0  0  0  0  0  0  0
  -31.0586  -22.5093   18.1485 C   0  0  0  0  0  0  0  0  0  0  0  0
  -32.0967  -20.4271   17.4975 C   0  0  0  0  0  0  0  0  0  0  0  0
  -29.8687  -20.4258   18.4317 C   0  0  0  0  0  0  0  0  0  0  0  0
  -22.9416  -10.6443   19.8022 C   0  0  0  0  0  0  0  0  0  0  0  0
  -27.5360  -27.9123   19.9961 C   0  0  0  0  0  0  0  0  0  0  0  0
  -22.1756   -8.4958   20.3675 C   0  0  0  0  0  0  0  0  0  0  0  0
  -22.4562   -6.1782   21.8948 C   0  0  0  0  0  0  0  0  0  0  0  0
  -21.1460   -8.0917   21.2173 C   0  0  0  0  0  0  0  0  0  0  0  0
  -25.7520  -13.7488   20.4037 C   0  0  0  0  0  0  0  0  0  0  0  0
  -27.5982  -14.9059   20.6995 C   0  0  0  0  0  0  0  0  0  0  0  0
  -32.1832  -24.7654   17.9108 C   0  0  0  0  0  0  0  0  0  0  0  0
  -31.2720  -17.4472   18.7370 C   0  0  0  0  0  0  0  0  0  0  0  0
  -30.9048  -18.2768   17.7756 C   0  0  0  0  0  0  0  0  0  0  0  0
  -27.9686  -12.4455   20.4586 C   0  0  0  0  0  0  0  0  0  0  0  0
  -24.4203  -31.5163   22.5977 C   0  0  0  0  0  0  0  0  0  0  0  0
  -22.0124  -29.3446   22.5077 C   0  0  0  0  0  0  0  0  0  0  0  0
  -20.9504  -26.2323   21.5952 C   0  0  0  0  0  0  0  0  0  0  0  0
  -27.5427  -20.3183   19.3933 C   0  0  0  0  0  0  0  0  0  0  0  0
  -23.3072  -36.0281   24.7100 C   0  0  0  0  0  0  0  0  0  0  0  0
  -24.4149  -30.8716   20.1604 C   0  0  0  0  0  0  0  0  0  0  0  0
  -24.3166  -28.4995   21.9234 C   0  0  0  0  0  0  0  0  0  0  0  0
  -31.7391  -26.1930   18.1341 C   0  0  0  0  0  0  0  0  0  0  0  0
  -22.8720  -34.5818   24.9315 C   0  0  0  0  0  0  0  0  0  0  0  0
  -25.0580  -19.1746   21.6727 C   0  0  0  0  0  0  0  0  0  0  0  0
  -24.0885  -33.6654   25.0170 C   0  0  0  0  0  0  0  0  0  0  0  0
  -25.1320  -17.6506   21.5550 C   0  0  0  0  0  0  0  0  0  0  0  0
  -25.2857  -19.8592   20.3261 C   0  0  0  0  0  0  0  0  0  0  0  0
  -29.9773  -24.7052   18.7425 C   0  0  0  0  0  0  0  0  0  0  0  0
  -26.5859  -17.9335   19.5072 C   0  0  0  0  0  0  0  0  0  0  0  0
  -24.8914  -33.6911   23.7108 C   0  0  1  0  0  0  0  0  0  0  0  0
  -23.6455  -30.8813   21.4778 C   0  0  1  0  0  0  0  0  0  0  0  0
  -30.5739  -26.0570   19.1038 C   0  0  2  0  0  0  0  0  0  0  0  0
  -26.4272  -17.2020   20.8501 C   0  0  2  0  0  0  0  0  0  0  0  0
  -18.9427  -24.7298   21.6893 C   0  0  0  0  0  0  0  0  0  0  0  0
  -22.5617  -28.7993   25.4591 C   0  0  0  0  0  0  0  0  0  0  0  0
  -21.2296  -26.6903   25.2457 C   0  0  0  0  0  0  0  0  0  0  0  0
  -20.1382  -28.8982   24.8500 C   0  0  0  0  0  0  0  0  0  0  0  0
  -20.7822  -26.0792   18.6444 C   0  0  0  0  0  0  0  0  0  0  0  0
  -29.5754  -27.1971   19.0035 C   0  0  0  0  0  0  0  0  0  1  0  0
  -21.7653  -27.9955   23.1384 C   0  0  1  0  0  0  0  0  0  0  0  0
  -19.6989  -25.7665   20.8732 C   0  0  2  0  0  0  0  0  0  0  0  0
  -21.4462  -28.1005   24.6565 C   0  0  0  0  0  0  0  0  0  0  0  0
  -25.3401  -15.0151   20.5078 N   0  0  0  0  0  0  0  0  0  0  0  0
  -26.4856  -15.6946   20.6872 N   0  0  0  0  0  0  0  0  0  0  0  0
  -31.1105  -23.9298   18.2739 N   0  0  0  0  0  0  0  0  0  0  0  0
  -23.2727  -29.5376   21.9246 N   0  0  0  0  0  0  0  0  0  0  0  0
  -26.5328  -19.3885   19.7194 N   0  0  0  0  0  0  0  0  0  0  0  0
  -33.2166  -19.7527   16.9583 N   0  0  0  0  0  0  0  0  0  0  0  0
  -28.8321  -15.4268   20.8688 N   0  0  0  0  0  0  0  0  0  0  0  0
  -27.3452  -11.2055   20.2640 N   0  0  0  0  0  0  0  0  0  0  0  0
  -28.6959  -19.7508   18.8523 N   0  0  0  0  0  0  0  0  0  0  0  0
  -24.2412  -32.8825   22.7019 N   0  0  0  0  0  0  0  0  0  0  0  0
  -20.7142  -27.3623   22.3493 N   0  0  0  0  0  0  0  0  0  0  0  0
  -20.0543  -25.1617   19.5583 N   0  3  0  0  0  0  0  0  0  0  0  0
  -33.2754  -24.4846   17.4384 O   0  0  0  0  0  0  0  0  0  0  0  0
  -29.2149  -12.4918   20.5931 O   0  0  0  0  0  0  0  0  0  0  0  0
  -25.1271  -30.8181   23.3151 O   0  0  0  0  0  0  0  0  0  0  0  0
  -21.1174  -30.1934   22.5253 O   0  0  0  0  0  0  0  0  0  0  0  0
  -22.0286  -25.6498   21.5027 O   0  0  0  0  0  0  0  0  0  0  0  0
  -27.4061  -21.5259   19.6055 O   0  0  0  0  0  0  0  0  0  0  0  0
  -22.0375   -9.6456   19.6081 O   0  0  0  0  0  0  0  0  0  0  0  0
  -28.5209  -26.9750   19.9390 O   0  0  0  0  0  0  0  0  0  1  0  0
  -22.5905   -5.0646   22.6269 F   0  0  0  0  0  0  0  0  0  0  0  0
  -20.0192   -8.8120   21.3035 F   0  0  0  0  0  0  0  0  0  0  0  0
  1  2  1  0  0  0  0
  1  5  2  0  0  0  0
  2  6  2  0  0  0  0
  3  8  2  0  0  0  0
  3 17  1  0  0  0  0
  4  9  1  0  0  0  0
  4 17  2  0  0  0  0
  5 20  1  0  0  0  0
  6 22  1  0  0  0  0
  7 10  2  0  0  0  0
  7 21  1  0  0  0  0
  8 27  1  0  0  0  0
  9 27  2  0  0  0  0
 10 28  1  0  0  0  0
 11 12  2  0  0  0  0
 11 29  1  0  0  0  0
 12 30  1  0  0  0  0
 13 23  1  0  0  0  0
 13 28  2  0  0  0  0
 14 24  1  0  0  0  0
 14 25  2  0  0  0  0
 15 24  2  0  0  0  0
 15 26  1  0  0  0  0
 16 30  2  0  0  0  0
 16 31  1  0  0  0  0
 17 32  1  0  0  0  0
 18 25  1  0  0  0  0
 18 26  2  0  0  0  0
 18 36  1  0  0  0  0
 19 32  1  0  0  0  0
 19 33  2  0  0  0  0
 19 37  1  0  0  0  0
 20 22  2  0  0  0  0
 20 42  1  0  0  0  0
 21 23  2  0  0  0  0
 21 43  1  0  0  0  0
 22 53  1  0  0  0  0
 23 44  1  0  0  0  0
 24 68  1  0  0  0  0
 25 71  1  0  0  0  0
 26 74  1  0  0  0  0
 27 84  1  0  0  0  0
 28 85  1  0  0  0  0
 29 31  2  0  0  0  0
 29 84  1  0  0  0  0
 30 86  1  0  0  0  0
 31 87  1  0  0  0  0
 32 66  2  0  0  0  0
 33 67  1  0  0  0  0
 33 72  1  0  0  0  0
 34 45  1  0  0  0  0
 34 68  1  0  0  0  0
 34 78  2  0  0  0  0
 35 36  2  0  0  0  0
 37 73  1  0  0  0  0
 37 79  2  0  0  0  0
 38 54  1  0  0  0  0
 38 75  1  0  0  0  0
 38 80  2  0  0  0  0
 39 63  1  0  0  0  0
 39 69  1  0  0  0  0
 39 81  2  0  0  0  0
 40 64  1  0  0  0  0
 40 76  1  0  0  0  0
 40 82  2  0  0  0  0
 41 70  1  0  0  0  0
 41 74  1  0  0  0  0
 41 83  2  0  0  0  0
 42 46  1  0  0  0  0
 43 54  1  0  0  0  0
 44 69  1  0  0  0  0
 45 55  1  0  0  0  0
 46 48  1  0  0  0  0
 47 49  1  0  0  0  0
 47 50  1  0  0  0  0
 48 53  1  0  0  0  0
 49 56  1  0  0  0  0
 50 70  1  0  0  0  0
 51 55  1  0  0  0  0
 51 68  1  0  0  0  0
 52 56  1  0  0  0  0
 52 70  1  0  0  0  0
 53 75  1  0  0  0  0
 54 69  1  0  0  0  0
 55 62  1  0  0  0  0
 56 67  1  0  0  0  0
 57 64  1  0  0  0  0
 58 65  1  0  0  0  0
 59 65  1  0  0  0  0
 60 65  1  0  0  0  0
 61 77  1  0  0  0  0
 62 85  1  0  0  0  0
 63 65  1  0  0  0  0
 63 76  1  0  0  0  0
 64 77  1  0  0  0  0
 66 67  1  0  0  0  0
M  CHG  1  77   1
M  ISO  4  41 100  62 101  74 100  85 101
M  END
> <Batch ID>
0094

> <Smiles>
C=Cc1c(N)cc(N2CC([101CH2:1][101O:1]c3ccc4c(c3)CN(C(=O)C(NC(=O)C(C)NC)C(C)(C)C)C(C(=O)NC3CCCc5ccccc53)C4)CC2=O)cc1[100NH:0][100C:0](=O)N1CCCC(n2nc(-c3ccc(Oc4ccc(F)cc4F)cc3)c(C(N)=O)c2N)C1

> <Shape>
0.334

> <Color>
0.059

> <Negative vol penalty>
0.000

$$$$
