
  -OEChem-04052300433D

 84 92  0     1  0  0  0  0  0999 V2000
  -32.6276  -25.3135   16.0077 C   0  0  0  0  0  0  0  0  0  0  0  0
  -31.2753  -25.3983   15.6922 C   0  0  0  0  0  0  0  0  0  0  0  0
  -24.9455  -13.1418   19.5098 C   0  0  0  0  0  0  0  0  0  0  0  0
  -25.2905  -13.3648   21.8906 C   0  0  0  0  0  0  0  0  0  0  0  0
  -33.0267  -25.2169   17.3402 C   0  0  0  0  0  0  0  0  0  0  0  0
  -30.3212  -25.3854   16.7090 C   0  0  0  0  0  0  0  0  0  0  0  0
  -23.8805  -28.0545   18.3553 C   0  0  0  0  0  0  0  0  0  0  0  0
  -25.1609  -11.7672   19.6073 C   0  0  0  0  0  0  0  0  0  0  0  0
  -25.5059  -11.9902   21.9882 C   0  0  0  0  0  0  0  0  0  0  0  0
  -22.6205  -27.6399   18.7845 C   0  0  0  0  0  0  0  0  0  0  0  0
  -25.7905   -8.4877   22.9209 C   0  0  0  0  0  0  0  0  0  0  0  0
  -25.1630   -7.8045   23.9625 C   0  0  0  0  0  0  0  0  0  0  0  0
  -24.7747  -23.0867   20.8569 C   0  0  0  0  0  0  0  0  0  0  0  0
  -23.4305  -27.5493   21.0550 C   0  0  0  0  0  0  0  0  0  0  0  0
  -22.3655  -22.2842   22.0122 C   0  0  0  0  0  0  0  0  0  0  0  0
  -23.0075   -8.4912   23.1143 C   0  0  0  0  0  0  0  0  0  0  0  0
  -25.0103  -13.9407   20.6514 C   0  0  0  0  0  0  0  0  0  0  0  0
  -24.7812  -22.2635   21.9829 C   0  0  0  0  0  0  0  0  0  0  0  0
  -23.5605  -16.0396   20.6658 C   0  0  0  0  0  0  0  0  0  0  0  0
  -32.0774  -25.2125   18.3743 C   0  0  0  0  0  0  0  0  0  0  0  0
  -24.9297  -28.2093   19.2727 C   0  0  0  0  0  0  0  0  0  0  0  0
  -30.7078  -25.2872   18.0564 C   0  0  0  0  0  0  0  0  0  0  0  0
  -24.7022  -27.9683   20.6352 C   0  0  0  0  0  0  0  0  0  0  0  0
  -23.5635  -23.5087   20.3085 C   0  0  0  0  0  0  0  0  0  0  0  0
  -23.5767  -21.8622   22.5606 C   0  0  0  0  0  0  0  0  0  0  0  0
  -25.4411  -11.1913   20.8465 C   0  0  0  0  0  0  0  0  0  0  0  0
  -22.3961  -27.3845   20.1341 C   0  0  0  0  0  0  0  0  0  0  0  0
  -25.0266   -9.1728   21.9760 C   0  0  0  0  0  0  0  0  0  0  0  0
  -22.3589  -23.1074   20.8862 C   0  0  0  0  0  0  0  0  0  0  0  0
  -23.7715   -7.8062   24.0592 C   0  0  0  0  0  0  0  0  0  0  0  0
  -23.6351   -9.1745   22.0727 C   0  0  0  0  0  0  0  0  0  0  0  0
  -24.7885  -15.3608   20.5512 C   0  0  0  0  0  0  0  0  0  0  0  0
  -23.8829  -17.3638   20.4959 C   0  0  0  0  0  0  0  0  0  0  0  0
  -26.0633  -21.8416   22.5334 C   0  0  0  0  0  0  0  0  0  0  0  0
  -22.2459  -15.5195   20.9046 C   0  0  0  0  0  0  0  0  0  0  0  0
  -27.2530  -21.6720   21.6679 C   0  0  0  0  0  0  0  0  0  0  0  0
  -27.7786  -26.8571   19.6714 C   0  0  0  0  0  0  0  0  0  0  0  0
  -28.0945  -29.1157   21.9783 C   0  0  0  0  0  0  0  0  0  0  0  0
  -26.5817  -31.2431   24.1765 C   0  0  0  0  0  0  0  0  0  0  0  0
  -32.5544  -25.0587   19.7968 C   0  0  0  0  0  0  0  0  0  0  0  0
  -26.2758  -28.6829   18.7973 C   0  0  0  0  0  0  0  0  0  0  0  0
  -25.7896  -28.1391   21.6631 C   0  0  0  0  0  0  0  0  0  0  0  0
  -31.4996  -25.4291   20.8363 C   0  0  0  0  0  0  0  0  0  0  0  0
  -28.1558  -19.5483   18.9235 C   0  0  0  0  0  0  0  0  0  0  0  0
  -30.1580  -24.7936   20.4854 C   0  0  0  0  0  0  0  0  0  0  0  0
  -27.2867  -18.3091   19.1353 C   0  0  0  0  0  0  0  0  0  0  0  0
  -28.5874  -20.1611   20.2519 C   0  0  0  0  0  0  0  0  0  0  0  0
  -26.5737  -19.2521   21.3776 C   0  0  0  0  0  0  0  0  0  0  0  0
  -29.6441  -25.3013   19.1327 C   0  0  1  0  0  0  0  0  0  0  0  0
  -27.4098  -28.3117   19.7480 C   0  0  1  0  0  0  0  0  0  0  0  0
  -26.0953  -18.6214   20.0582 C   0  0  2  0  0  0  0  0  0  0  0  0
  -27.1019  -32.9342   25.9561 C   0  0  0  0  0  0  0  0  0  0  0  0
  -28.7836  -26.8614   23.9157 C   0  0  0  0  0  0  0  0  0  0  0  0
  -28.3573  -28.4484   25.8045 C   0  0  0  0  0  0  0  0  0  0  0  0
  -30.1818  -28.9193   24.1698 C   0  0  0  0  0  0  0  0  0  0  0  0
  -25.2334  -33.4085   22.6758 C   0  0  0  0  0  0  0  0  0  0  0  0
  -19.4932  -25.2492   20.3928 C   0  0  0  0  0  0  0  0  0  0  0  0
  -20.3814  -26.2234   19.6350 C   0  0  0  0  0  0  0  0  0  1  0  0
  -20.3050  -24.2604   21.2146 C   0  0  0  0  0  0  0  0  0  0  0  0
  -27.7731  -29.1915   23.4513 C   0  0  1  0  0  0  0  0  0  0  0  0
  -26.8152  -32.7122   24.4791 C   0  0  2  0  0  0  0  0  0  0  0  0
  -28.7538  -28.3500   24.3160 C   0  0  0  0  0  0  0  0  0  0  0  0
  -25.8145  -16.1858   20.3258 N   0  0  0  0  0  0  0  0  0  0  0  0
  -26.2483  -21.5914   23.7996 N   0  0  0  0  0  0  0  0  0  0  0  0
  -25.2319  -17.3965   20.2973 N   0  0  0  0  0  0  0  0  0  0  0  0
  -27.4366  -20.4113   21.1174 N   0  0  0  0  0  0  0  0  0  0  0  0
  -27.0902  -28.5981   21.1480 N   0  0  0  0  0  0  0  0  0  0  0  0
  -23.5714  -24.3419   19.1686 N   0  0  0  0  0  0  0  0  0  0  0  0
  -23.5617  -21.0299   23.7019 N   0  0  0  0  0  0  0  0  0  0  0  0
  -23.1414  -18.4919   20.4984 N   0  0  0  0  0  0  0  0  0  0  0  0
  -22.0925  -14.1346   21.0557 N   0  0  0  0  0  0  0  0  0  0  0  0
  -29.0811  -26.6273   19.2713 N   0  0  0  0  0  0  0  0  0  0  0  0
  -27.7443  -30.6102   23.7903 N   0  0  0  0  0  0  0  0  0  0  0  0
  -25.6156  -33.5147   24.1075 N   0  3  0  0  0  0  0  0  0  0  0  0
  -21.2347  -16.2594   20.9652 O   0  0  0  0  0  0  0  0  0  0  0  0
  -27.9514  -22.6678   21.5304 O   0  0  0  0  0  0  0  0  0  0  0  0
  -26.9438  -26.0064   19.9558 O   0  0  0  0  0  0  0  0  0  0  0  0
  -29.1934  -29.5081   21.5781 O   0  0  0  0  0  0  0  0  0  0  0  0
  -25.4791  -30.7095   24.2765 O   0  0  0  0  0  0  0  0  0  0  0  0
  -25.6511   -9.8499   20.9420 O   0  0  0  0  0  0  0  0  0  0  0  0
  -21.1673  -26.9791   20.5557 O   0  0  0  0  0  0  0  0  0  1  0  0
  -21.1585  -23.5100   20.3612 O   0  0  0  0  0  0  0  0  0  0  0  0
  -23.1689   -7.1488   25.0587 F   0  0  0  0  0  0  0  0  0  0  0  0
  -22.8958   -9.8298   21.1672 F   0  0  0  0  0  0  0  0  0  0  0  0
  1  2  1  0  0  0  0
  1  5  2  0  0  0  0
  2  6  2  0  0  0  0
  3  8  2  0  0  0  0
  3 17  1  0  0  0  0
  4  9  1  0  0  0  0
  4 17  2  0  0  0  0
  5 20  1  0  0  0  0
  6 22  1  0  0  0  0
  7 10  2  0  0  0  0
  7 21  1  0  0  0  0
  8 26  1  0  0  0  0
  9 26  2  0  0  0  0
 10 27  1  0  0  0  0
 11 12  2  0  0  0  0
 11 28  1  0  0  0  0
 12 30  1  0  0  0  0
 13 18  2  0  0  0  0
 13 24  1  0  0  0  0
 14 23  1  0  0  0  0
 14 27  2  0  0  0  0
 15 25  2  0  0  0  0
 15 29  1  0  0  0  0
 16 30  2  0  0  0  0
 16 31  1  0  0  0  0
 17 32  1  0  0  0  0
 18 25  1  0  0  0  0
 18 34  1  0  0  0  0
 19 32  1  0  0  0  0
 19 33  2  0  0  0  0
 19 35  1  0  0  0  0
 20 22  2  0  0  0  0
 20 40  1  0  0  0  0
 21 23  2  0  0  0  0
 21 41  1  0  0  0  0
 22 49  1  0  0  0  0
 23 42  1  0  0  0  0
 24 29  2  0  0  0  0
 24 68  1  0  0  0  0
 25 69  1  0  0  0  0
 26 80  1  0  0  0  0
 27 81  1  0  0  0  0
 28 31  2  0  0  0  0
 28 80  1  0  0  0  0
 29 82  1  0  0  0  0
 30 83  1  0  0  0  0
 31 84  1  0  0  0  0
 32 63  2  0  0  0  0
 33 65  1  0  0  0  0
 33 70  1  0  0  0  0
 34 36  1  0  0  0  0
 34 64  2  0  0  0  0
 35 71  1  0  0  0  0
 35 75  2  0  0  0  0
 36 66  1  0  0  0  0
 36 76  2  0  0  0  0
 37 50  1  0  0  0  0
 37 72  1  0  0  0  0
 37 77  2  0  0  0  0
 38 60  1  0  0  0  0
 38 67  1  0  0  0  0
 38 78  2  0  0  0  0
 39 61  1  0  0  0  0
 39 73  1  0  0  0  0
 39 79  2  0  0  0  0
 40 43  1  0  0  0  0
 41 50  1  0  0  0  0
 42 67  1  0  0  0  0
 43 45  1  0  0  0  0
 44 46  1  0  0  0  0
 44 47  1  0  0  0  0
 45 49  1  0  0  0  0
 46 51  1  0  0  0  0
 47 66  1  0  0  0  0
 48 51  1  0  0  0  0
 48 66  1  0  0  0  0
 49 72  1  0  0  0  0
 50 67  1  0  0  0  0
 51 65  1  0  0  0  0
 52 61  1  0  0  0  0
 53 62  1  0  0  0  0
 54 62  1  0  0  0  0
 55 62  1  0  0  0  0
 56 74  1  0  0  0  0
 57 58  1  0  0  0  0
 57 59  1  0  0  0  0
 58 81  1  0  0  0  0
 59 82  1  0  0  0  0
 60 62  1  0  0  0  0
 60 73  1  0  0  0  0
 61 74  1  0  0  0  0
 63 65  1  0  0  0  0
M  CHG  1  74   1
M  ISO  4  34 100  36 100  58 101  81 101
M  END
> <Batch ID>
0095

> <Smiles>
CNC(C)C(=O)NC(C(=O)N1Cc2cc([101O:1][101CH2:1]CCOc3cc(N)c([100C:0](=N)[100C:0](=O)N4CCCC(n5nc(-c6ccc(Oc7ccc(F)cc7F)cc6)c(C(N)=O)c5N)C4)cc3N)ccc2CC1C(=O)NC1CCCc2ccccc21)C(C)(C)C

> <Shape>
0.230

> <Color>
0.059

> <Negative vol penalty>
0.000

$$$$

  -OEChem-04052300433D

 86 94  0     1  0  0  0  0  0999 V2000
  -28.6259  -22.0737   29.8954 C   0  0  0  0  0  0  0  0  0  0  0  0
  -27.4247  -21.5355   29.4450 C   0  0  0  0  0  0  0  0  0  0  0  0
  -30.2380  -19.9766   19.6943 C   0  0  0  0  0  0  0  0  0  0  0  0
  -28.0263  -20.3612   20.5873 C   0  0  0  0  0  0  0  0  0  0  0  0
  -28.9280  -23.4109   29.6413 C   0  0  0  0  0  0  0  0  0  0  0  0
  -26.5244  -22.3345   28.7410 C   0  0  0  0  0  0  0  0  0  0  0  0
  -24.4402  -20.5823   22.0719 C   0  0  0  0  0  0  0  0  0  0  0  0
  -22.9725  -14.8586   21.4383 C   0  0  0  0  0  0  0  0  0  0  0  0
  -22.4575  -16.0712   20.9803 C   0  0  0  0  0  0  0  0  0  0  0  0
  -30.2410  -21.2603   19.1488 C   0  0  0  0  0  0  0  0  0  0  0  0
  -28.0293  -21.6449   20.0417 C   0  0  0  0  0  0  0  0  0  0  0  0
  -23.8314  -20.2036   20.8752 C   0  0  0  0  0  0  0  0  0  0  0  0
  -30.7384  -24.4252   20.2299 C   0  0  0  0  0  0  0  0  0  0  0  0
  -31.8899  -25.1956   20.3915 C   0  0  0  0  0  0  0  0  0  0  0  0
  -22.5659  -22.2642   20.8545 C   0  0  0  0  0  0  0  0  0  0  0  0
  -24.5170  -14.8130   19.5810 C   0  0  0  0  0  0  0  0  0  0  0  0
  -32.1309  -25.3388   17.9918 C   0  0  0  0  0  0  0  0  0  0  0  0
  -29.1306  -19.5270   20.4136 C   0  0  0  0  0  0  0  0  0  0  0  0
  -29.5761  -17.8189   22.2551 C   0  0  0  0  0  0  0  0  0  0  0  0
  -28.0353  -24.2242   28.9255 C   0  0  0  0  0  0  0  0  0  0  0  0
  -24.1251  -21.8118   22.6572 C   0  0  0  0  0  0  0  0  0  0  0  0
  -26.8143  -23.6842   28.4783 C   0  0  0  0  0  0  0  0  0  0  0  0
  -23.1817  -22.6544   22.0467 C   0  0  0  0  0  0  0  0  0  0  0  0
  -24.0024  -14.2295   20.7387 C   0  0  0  0  0  0  0  0  0  0  0  0
  -22.9721  -16.6548   19.8226 C   0  0  0  0  0  0  0  0  0  0  0  0
  -24.0019  -16.0257   19.1229 C   0  0  0  0  0  0  0  0  0  0  0  0
  -29.1367  -22.0945   19.3225 C   0  0  0  0  0  0  0  0  0  0  0  0
  -22.8964  -21.0424   20.2682 C   0  0  0  0  0  0  0  0  0  0  0  0
  -30.2832  -24.1115   18.9492 C   0  0  0  0  0  0  0  0  0  0  0  0
  -32.5862  -25.6524   19.2725 C   0  0  0  0  0  0  0  0  0  0  0  0
  -30.9794  -24.5684   17.8302 C   0  0  0  0  0  0  0  0  0  0  0  0
  -29.1267  -18.2008   20.9769 C   0  0  0  0  0  0  0  0  0  0  0  0
  -29.3594  -16.4635   22.3045 C   0  0  0  0  0  0  0  0  0  0  0  0
  -24.5358  -11.1944   22.8146 C   0  0  0  0  0  0  0  0  0  0  0  0
  -24.0573  -12.3543   22.3591 C   0  0  0  0  0  0  0  0  0  0  0  0
  -30.1391  -18.6178   23.3042 C   0  0  0  0  0  0  0  0  0  0  0  0
  -24.7185  -24.2098   25.4809 C   0  0  0  0  0  0  0  0  0  0  0  0
  -24.4864  -25.8860   22.9222 C   0  0  0  0  0  0  0  0  0  0  0  0
  -24.5898  -27.3260   19.8314 C   0  0  0  0  0  0  0  0  0  0  0  0
  -21.4137  -18.6288   19.9630 C   0  0  0  0  0  0  0  0  0  0  0  0
  -25.6877  -12.4331   20.5812 C   0  0  0  0  0  0  0  0  0  0  0  0
  -28.3845  -25.6764   28.7162 C   0  0  0  0  0  0  0  0  0  0  0  0
  -24.7105  -22.2332   23.9776 C   0  0  0  0  0  0  0  0  0  0  0  0
  -22.8481  -23.9523   22.7303 C   0  0  0  0  0  0  0  0  0  0  0  0
  -27.5436  -26.3558   27.6385 C   0  0  0  0  0  0  0  0  0  0  0  0
  -28.7388  -12.8986   18.9495 C   0  0  0  0  0  0  0  0  0  0  0  0
  -26.0670  -26.0204   27.8230 C   0  0  0  0  0  0  0  0  0  0  0  0
  -29.2020  -14.2773   19.4193 C   0  0  0  0  0  0  0  0  0  0  0  0
  -27.2360  -12.8839   18.6947 C   0  0  0  0  0  0  0  0  0  0  0  0
  -26.8725  -14.6810   20.3566 C   0  0  0  0  0  0  0  0  0  0  0  0
  -25.8230  -24.5123   27.6898 C   0  0  1  0  0  0  0  0  0  0  0  0
  -24.9557  -23.7498   24.0725 C   0  0  1  0  0  0  0  0  0  0  0  0
  -28.3873  -14.7483   20.6369 C   0  0  2  0  0  0  0  0  0  0  0  0
  -24.8382  -29.5539   18.7037 C   0  0  0  0  0  0  0  0  0  0  0  0
  -20.6559  -19.6162   17.7598 C   0  0  0  0  0  0  0  0  0  0  0  0
  -20.0645  -20.7798   19.9191 C   0  0  0  0  0  0  0  0  0  0  0  0
  -21.6089  -26.5769   23.6614 C   0  0  0  0  0  0  0  0  0  0  0  0
  -21.6056  -28.2468   21.7961 C   0  0  0  0  0  0  0  0  0  0  0  0
  -23.1908  -28.5134   23.7036 C   0  0  0  0  0  0  0  0  0  0  0  0
  -27.0549  -26.4734   18.4330 C   0  0  0  0  0  0  0  0  0  0  0  0
  -23.5890  -26.6809   22.0078 C   0  0  1  0  0  0  0  0  0  0  0  0
  -25.5602  -28.3162   19.2132 C   0  0  2  0  0  0  0  0  0  0  0  0
  -21.0971  -19.9212   19.1898 C   0  0  0  0  0  0  0  0  0  1  0  0
  -22.5045  -27.4771   22.7872 C   0  0  0  0  0  0  0  0  0  0  0  0
  -28.6599  -17.1712   20.2655 N   0  0  0  0  0  0  0  0  0  0  0  0
  -28.8149  -16.1290   21.0995 N   0  0  0  0  0  0  0  0  0  0  0  0
  -24.0769  -24.5843   23.2355 N   0  0  0  0  0  0  0  0  0  0  0  0
  -26.4981  -13.3422   19.8723 N   0  0  0  0  0  0  0  0  0  0  0  0
  -24.5381  -16.5994   17.9482 N   0  0  0  0  0  0  0  0  0  0  0  0
  -29.5835  -15.5371   23.2605 N   0  0  0  0  0  0  0  0  0  0  0  0
  -30.2916  -19.9940   23.0873 N   0  0  0  0  0  0  0  0  0  0  0  0
  -22.4333  -17.8860   19.3775 N   0  0  0  0  0  0  0  0  0  0  0  0
  -25.8302  -24.1203   26.2967 N   0  0  0  0  0  0  0  0  0  0  0  0
  -24.4692  -27.5109   21.1925 N   0  0  0  0  0  0  0  0  0  0  0  0
  -24.5371  -12.9704   21.2147 N   0  0  0  0  0  0  0  0  0  0  0  0
  -26.2821  -27.6893   18.0701 N   0  3  0  0  0  0  0  0  0  0  0  0
  -30.5114  -18.1232   24.3952 O   0  0  0  0  0  0  0  0  0  0  0  0
  -23.6092  -24.6177   25.8046 O   0  0  0  0  0  0  0  0  0  0  0  0
  -25.5202  -26.4047   23.3531 O   0  0  0  0  0  0  0  0  0  0  0  0
  -23.9953  -26.4759   19.1723 O   0  0  0  0  0  0  0  0  0  0  0  0
  -20.7930  -18.3404   20.9841 O   0  0  0  0  0  0  0  0  0  0  0  0
  -25.9541  -11.2252   20.6310 O   0  0  0  0  0  0  0  0  0  0  0  0
  -29.1393  -23.3473   18.7904 O   0  0  0  0  0  0  0  0  0  0  0  0
  -22.3092  -20.6686   19.0976 O   0  0  0  0  0  0  0  0  0  1  0  0
  -33.6911  -26.3935   19.4278 F   0  0  0  0  0  0  0  0  0  0  0  0
  -30.5462  -24.2713   16.5974 F   0  0  0  0  0  0  0  0  0  0  0  0
  1  2  1  0  0  0  0
  1  5  2  0  0  0  0
  2  6  2  0  0  0  0
  3 10  2  0  0  0  0
  3 18  1  0  0  0  0
  4 11  1  0  0  0  0
  4 18  2  0  0  0  0
  5 20  1  0  0  0  0
  6 22  1  0  0  0  0
  7 12  2  0  0  0  0
  7 21  1  0  0  0  0
  8  9  2  0  0  0  0
  8 24  1  0  0  0  0
  9 25  1  0  0  0  0
 10 27  1  0  0  0  0
 11 27  2  0  0  0  0
 12 28  1  0  0  0  0
 13 14  2  0  0  0  0
 13 29  1  0  0  0  0
 14 30  1  0  0  0  0
 15 23  1  0  0  0  0
 15 28  2  0  0  0  0
 16 24  2  0  0  0  0
 16 26  1  0  0  0  0
 17 30  2  0  0  0  0
 17 31  1  0  0  0  0
 18 32  1  0  0  0  0
 19 32  1  0  0  0  0
 19 33  2  0  0  0  0
 19 36  1  0  0  0  0
 20 22  2  0  0  0  0
 20 42  1  0  0  0  0
 21 23  2  0  0  0  0
 21 43  1  0  0  0  0
 22 51  1  0  0  0  0
 23 44  1  0  0  0  0
 24 75  1  0  0  0  0
 25 26  2  0  0  0  0
 25 72  1  0  0  0  0
 26 69  1  0  0  0  0
 27 83  1  0  0  0  0
 28 84  1  0  0  0  0
 29 31  2  0  0  0  0
 29 83  1  0  0  0  0
 30 85  1  0  0  0  0
 31 86  1  0  0  0  0
 32 65  2  0  0  0  0
 33 66  1  0  0  0  0
 33 70  1  0  0  0  0
 34 35  2  0  0  0  0
 35 75  1  0  0  0  0
 36 71  1  0  0  0  0
 36 77  2  0  0  0  0
 37 52  1  0  0  0  0
 37 73  1  0  0  0  0
 37 78  2  0  0  0  0
 38 61  1  0  0  0  0
 38 67  1  0  0  0  0
 38 79  2  0  0  0  0
 39 62  1  0  0  0  0
 39 74  1  0  0  0  0
 39 80  2  0  0  0  0
 40 63  1  0  0  0  0
 40 72  1  0  0  0  0
 40 81  2  0  0  0  0
 41 68  1  0  0  0  0
 41 75  1  0  0  0  0
 41 82  2  0  0  0  0
 42 45  1  0  0  0  0
 43 52  1  0  0  0  0
 44 67  1  0  0  0  0
 45 47  1  0  0  0  0
 46 48  1  0  0  0  0
 46 49  1  0  0  0  0
 47 51  1  0  0  0  0
 48 53  1  0  0  0  0
 49 68  1  0  0  0  0
 50 53  1  0  0  0  0
 50 68  1  0  0  0  0
 51 73  1  0  0  0  0
 52 67  1  0  0  0  0
 53 66  1  0  0  0  0
 54 62  1  0  0  0  0
 55 63  1  0  0  0  0
 56 63  1  0  0  0  0
 57 64  1  0  0  0  0
 58 64  1  0  0  0  0
 59 64  1  0  0  0  0
 60 76  1  0  0  0  0
 61 64  1  0  0  0  0
 61 74  1  0  0  0  0
 62 76  1  0  0  0  0
 63 84  1  0  0  0  0
 65 66  1  0  0  0  0
M  CHG  1  76   1
M  ISO  4  41 100  63 101  75 100  84 101
M  END
> <Batch ID>
0095

> <Smiles>
C=C[100N:0](c1ccc(NC(=O)[101C:1](C)(C)[101O:1]c2ccc3c(c2)CN(C(=O)C(NC(=O)C(C)NC)C(C)(C)C)C(C(=O)NC2CCCc4ccccc42)C3)c(N)c1)[100C:0](=O)N1CCCC(n2nc(-c3ccc(Oc4ccc(F)cc4F)cc3)c(C(N)=O)c2N)C1

> <Shape>
0.184

> <Color>
0.032

> <Negative vol penalty>
0.000

$$$$

  -OEChem-04052300433D

 84 92  0     1  0  0  0  0  0999 V2000
  -30.8291  -33.1655   16.0842 C   0  0  0  0  0  0  0  0  0  0  0  0
  -30.8945  -31.9360   16.7319 C   0  0  0  0  0  0  0  0  0  0  0  0
  -22.8739  -10.3835   21.3847 C   0  0  0  0  0  0  0  0  0  0  0  0
  -24.6786   -8.7921   21.6029 C   0  0  0  0  0  0  0  0  0  0  0  0
  -30.0223  -34.1803   16.5972 C   0  0  0  0  0  0  0  0  0  0  0  0
  -30.1539  -31.7210   17.8937 C   0  0  0  0  0  0  0  0  0  0  0  0
  -27.5253  -26.4816   19.6670 C   0  0  0  0  0  0  0  0  0  0  0  0
  -21.9514   -9.3373   21.3847 C   0  0  0  0  0  0  0  0  0  0  0  0
  -23.7561   -7.7459   21.6030 C   0  0  0  0  0  0  0  0  0  0  0  0
  -27.9227  -25.4885   20.5612 C   0  0  0  0  0  0  0  0  0  0  0  0
  -21.6251   -6.3066   23.7956 C   0  0  0  0  0  0  0  0  0  0  0  0
  -21.7906   -5.2987   24.7456 C   0  0  0  0  0  0  0  0  0  0  0  0
  -27.9347  -20.3733   21.5427 C   0  0  0  0  0  0  0  0  0  0  0  0
  -26.6005  -26.5258   22.2917 C   0  0  0  0  0  0  0  0  0  0  0  0
  -22.0184   -3.6689   22.9767 C   0  0  0  0  0  0  0  0  0  0  0  0
  -24.2376  -10.1109   21.4937 C   0  0  0  0  0  0  0  0  0  0  0  0
  -27.4426  -20.8244   22.7624 C   0  0  0  0  0  0  0  0  0  0  0  0
  -25.6778  -11.8960   22.6102 C   0  0  0  0  0  0  0  0  0  0  0  0
  -29.2640  -33.9744   17.7604 C   0  0  0  0  0  0  0  0  0  0  0  0
  -26.6697  -27.5121   20.0822 C   0  0  0  0  0  0  0  0  0  0  0  0
  -29.3372  -32.7345   18.4234 C   0  0  0  0  0  0  0  0  0  0  0  0
  -26.1916  -27.5294   21.4002 C   0  0  0  0  0  0  0  0  0  0  0  0
  -26.6003  -20.0092   23.5103 C   0  0  0  0  0  0  0  0  0  0  0  0
  -22.3924   -8.0185   21.4939 C   0  0  0  0  0  0  0  0  0  0  0  0
  -27.4626  -25.5121   21.8745 C   0  0  0  0  0  0  0  0  0  0  0  0
  -21.6562   -5.9956   22.4362 C   0  0  0  0  0  0  0  0  0  0  0  0
  -21.9873   -3.9799   24.3361 C   0  0  0  0  0  0  0  0  0  0  0  0
  -21.8528   -4.6768   22.0267 C   0  0  0  0  0  0  0  0  0  0  0  0
  -25.1911  -11.1911   21.4931 C   0  0  0  0  0  0  0  0  0  0  0  0
  -27.5576  -19.1093   21.1187 C   0  0  0  0  0  0  0  0  0  0  0  0
  -26.2827  -18.7616   22.9981 C   0  0  0  0  0  0  0  0  0  0  0  0
  -26.5524  -12.8142   22.0825 C   0  0  0  0  0  0  0  0  0  0  0  0
  -27.8374  -22.1821   23.2365 C   0  0  0  0  0  0  0  0  0  0  0  0
  -25.3672  -11.7351   24.0007 C   0  0  0  0  0  0  0  0  0  0  0  0
  -28.0531  -18.5746   19.8244 C   0  0  0  0  0  0  0  0  0  0  0  0
  -26.9056  -30.6749   20.2938 C   0  0  0  0  0  0  0  0  0  0  0  0
  -23.7639  -30.4668   21.0743 C   0  0  0  0  0  0  0  0  0  0  0  0
  -21.2059  -28.5794   22.3157 C   0  0  0  0  0  0  0  0  0  0  0  0
  -27.9247  -16.6267   18.3036 C   0  0  0  0  0  0  0  0  0  0  0  0
  -28.4429  -35.1171   18.3035 C   0  0  0  0  0  0  0  0  0  0  0  0
  -26.2290  -28.5610   19.0982 C   0  0  0  0  0  0  0  0  0  0  0  0
  -25.2553  -28.6026   21.8902 C   0  0  0  0  0  0  0  0  0  0  0  0
  -27.3997  -34.6835   19.3301 C   0  0  0  0  0  0  0  0  0  0  0  0
  -28.4544  -13.2481   17.4083 C   0  0  0  0  0  0  0  0  0  0  0  0
  -28.0174  -33.7316   20.3495 C   0  0  0  0  0  0  0  0  0  0  0  0
  -27.6997  -12.4661   18.4869 C   0  0  0  0  0  0  0  0  0  0  0  0
  -27.7133  -14.5233   17.0088 C   0  0  0  0  0  0  0  0  0  0  0  0
  -26.5897  -14.6221   19.1964 C   0  0  0  0  0  0  0  0  0  0  0  0
  -28.5295  -32.4546   19.6722 C   0  0  1  0  0  0  0  0  0  0  0  0
  -25.7647  -29.8508   19.7677 C   0  0  1  0  0  0  0  0  0  0  0  0
  -27.3297  -13.3657   19.6832 C   0  0  1  0  0  0  0  0  0  0  0  0
  -18.7607  -28.6947   22.8679 C   0  0  0  0  0  0  0  0  0  0  0  0
  -24.4090  -32.0795   23.5829 C   0  0  0  0  0  0  0  0  0  0  0  0
  -22.2071  -31.3560   24.5297 C   0  0  0  0  0  0  0  0  0  0  0  0
  -22.2771  -32.7262   22.4464 C   0  0  0  0  0  0  0  0  0  0  0  0
  -20.5514  -26.4276   20.3922 C   0  0  0  0  0  0  0  0  0  0  0  0
  -28.1348  -23.2553   22.2078 C   0  0  0  0  0  0  0  0  0  1  0  0
  -22.9904  -30.3022   22.3602 C   0  0  1  0  0  0  0  0  0  0  0  0
  -19.7946  -28.3388   21.8110 C   0  0  2  0  0  0  0  0  0  0  0  0
  -22.9901  -31.5967   23.2214 C   0  0  0  0  0  0  0  0  0  0  0  0
  -25.7130  -11.6245   20.3425 N   0  0  0  0  0  0  0  0  0  0  0  0
  -26.7413  -18.2889   21.8175 N   0  0  0  0  0  0  0  0  0  0  0  0
  -26.5367  -12.6116   20.7338 N   0  0  0  0  0  0  0  0  0  0  0  0
  -24.8582  -29.6094   20.8921 N   0  0  0  0  0  0  0  0  0  0  0  0
  -27.4084  -15.3236   18.1961 N   0  0  0  0  0  0  0  0  0  0  0  0
  -26.0898  -20.4464   24.7497 N   0  0  0  0  0  0  0  0  0  0  0  0
  -25.4247  -17.9218   23.7523 N   0  0  0  0  0  0  0  0  0  0  0  0
  -27.3256  -13.7671   22.6452 N   0  0  0  0  0  0  0  0  0  0  0  0
  -24.4476  -10.7439   24.3695 N   0  0  0  0  0  0  0  0  0  0  0  0
  -27.6123  -17.2929   19.4939 N   0  0  0  0  0  0  0  0  0  0  0  0
  -27.4283  -31.5641   19.3742 N   0  0  0  0  0  0  0  0  0  0  0  0
  -21.6609  -29.8370   21.9801 N   0  0  0  0  0  0  0  0  0  0  0  0
  -19.6141  -26.9067   21.4404 N   0  3  0  0  0  0  0  0  0  0  0  0
  -27.9132  -22.4054   24.4425 O   0  0  0  0  0  0  0  0  0  0  0  0
  -25.8774  -12.4601   24.8882 O   0  0  0  0  0  0  0  0  0  0  0  0
  -28.7681  -19.2818   19.1196 O   0  0  0  0  0  0  0  0  0  0  0  0
  -27.2827  -30.5169   21.4490 O   0  0  0  0  0  0  0  0  0  0  0  0
  -23.4060  -31.3197   20.2582 O   0  0  0  0  0  0  0  0  0  0  0  0
  -21.8399  -27.7374   22.9479 O   0  0  0  0  0  0  0  0  0  0  0  0
  -28.6345  -17.1390   17.4324 O   0  0  0  0  0  0  0  0  0  0  0  0
  -21.4925   -6.9974   21.4943 O   0  0  0  0  0  0  0  0  0  0  0  0
  -27.8495  -24.5443   22.7495 O   0  0  0  0  0  0  0  0  0  1  0  0
  -22.1477   -3.0124   25.2485 F   0  0  0  0  0  0  0  0  0  0  0  0
  -21.8848   -4.3721   20.7222 F   0  0  0  0  0  0  0  0  0  0  0  0
  1  2  1  0  0  0  0
  1  5  2  0  0  0  0
  2  6  2  0  0  0  0
  3  8  2  0  0  0  0
  3 16  1  0  0  0  0
  4  9  1  0  0  0  0
  4 16  2  0  0  0  0
  5 19  1  0  0  0  0
  6 21  1  0  0  0  0
  7 10  2  0  0  0  0
  7 20  1  0  0  0  0
  8 24  1  0  0  0  0
  9 24  2  0  0  0  0
 10 25  1  0  0  0  0
 11 12  2  0  0  0  0
 11 26  1  0  0  0  0
 12 27  1  0  0  0  0
 13 17  1  0  0  0  0
 13 30  2  0  0  0  0
 14 22  1  0  0  0  0
 14 25  2  0  0  0  0
 15 27  2  0  0  0  0
 15 28  1  0  0  0  0
 16 29  1  0  0  0  0
 17 23  2  0  0  0  0
 17 33  1  0  0  0  0
 18 29  1  0  0  0  0
 18 32  2  0  0  0  0
 18 34  1  0  0  0  0
 19 21  2  0  0  0  0
 19 40  1  0  0  0  0
 20 22  2  0  0  0  0
 20 41  1  0  0  0  0
 21 49  1  0  0  0  0
 22 42  1  0  0  0  0
 23 31  1  0  0  0  0
 23 66  1  0  0  0  0
 24 81  1  0  0  0  0
 25 82  1  0  0  0  0
 26 28  2  0  0  0  0
 26 81  1  0  0  0  0
 27 83  1  0  0  0  0
 28 84  1  0  0  0  0
 29 61  2  0  0  0  0
 30 35  1  0  0  0  0
 30 62  1  0  0  0  0
 31 62  2  0  0  0  0
 31 67  1  0  0  0  0
 32 63  1  0  0  0  0
 32 68  1  0  0  0  0
 33 57  1  0  0  0  0
 33 74  2  0  0  0  0
 34 69  1  0  0  0  0
 34 75  2  0  0  0  0
 35 70  1  0  0  0  0
 35 76  2  0  0  0  0
 36 50  1  0  0  0  0
 36 71  1  0  0  0  0
 36 77  2  0  0  0  0
 37 58  1  0  0  0  0
 37 64  1  0  0  0  0
 37 78  2  0  0  0  0
 38 59  1  0  0  0  0
 38 72  1  0  0  0  0
 38 79  2  0  0  0  0
 39 65  1  0  0  0  0
 39 70  1  0  0  0  0
 39 80  2  0  0  0  0
 40 43  1  0  0  0  0
 41 50  1  0  0  0  0
 42 64  1  0  0  0  0
 43 45  1  0  0  0  0
 44 46  1  0  0  0  0
 44 47  1  0  0  0  0
 45 49  1  0  0  0  0
 46 51  1  0  0  0  0
 47 65  1  0  0  0  0
 48 51  1  0  0  0  0
 48 65  1  0  0  0  0
 49 71  1  0  0  0  0
 50 64  1  0  0  0  0
 51 63  1  0  0  0  0
 52 59  1  0  0  0  0
 53 60  1  0  0  0  0
 54 60  1  0  0  0  0
 55 60  1  0  0  0  0
 56 73  1  0  0  0  0
 57 82  1  0  0  0  0
 58 60  1  0  0  0  0
 58 72  1  0  0  0  0
 59 73  1  0  0  0  0
 61 63  1  0  0  0  0
M  CHG  1  73   1
M  ISO  4  39 100  57 101  70 100  82 101
M  END
> <Batch ID>
0095

> <Smiles>
CNC(C)C(=O)NC(C(=O)N1Cc2cc([101O:1][101CH2:1]C(=O)c3cc(C(=O)[100NH:0][100C:0](=O)N4CCCC(n5nc(-c6ccc(Oc7ccc(F)cc7F)cc6)c(C(N)=O)c5N)C4)nc(N)c3N)ccc2CC1C(=O)NC1CCCc2ccccc21)C(C)(C)C

> <Shape>
0.261

> <Color>
0.096

> <Negative vol penalty>
0.000

$$$$

  -OEChem-04052300433D

 86 95  0     1  0  0  0  0  0999 V2000
  -28.2670  -30.1453   27.8995 C   0  0  0  0  0  0  0  0  0  0  0  0
  -28.1529  -29.2906   26.8078 C   0  0  0  0  0  0  0  0  0  0  0  0
  -24.1993   -9.7969   22.5473 C   0  0  0  0  0  0  0  0  0  0  0  0
  -24.6489  -11.6573   24.0217 C   0  0  0  0  0  0  0  0  0  0  0  0
  -27.1793  -30.9259   28.2889 C   0  0  0  0  0  0  0  0  0  0  0  0
  -26.9506  -29.2152   26.1054 C   0  0  0  0  0  0  0  0  0  0  0  0
  -27.6257  -29.2695   21.0868 C   0  0  0  0  0  0  0  0  0  0  0  0
  -27.8127  -20.3901   18.3095 C   0  0  0  0  0  0  0  0  0  0  0  0
  -27.6619  -19.0056   18.3869 C   0  0  0  0  0  0  0  0  0  0  0  0
  -23.8611   -9.0075   23.6464 C   0  0  0  0  0  0  0  0  0  0  0  0
  -24.3106  -10.8680   25.1208 C   0  0  0  0  0  0  0  0  0  0  0  0
  -28.0420  -28.0815   20.4875 C   0  0  0  0  0  0  0  0  0  0  0  0
  -21.2057   -8.6034   25.7002 C   0  0  0  0  0  0  0  0  0  0  0  0
  -20.0533   -7.8229   25.6078 C   0  0  0  0  0  0  0  0  0  0  0  0
  -25.7712  -27.6370   19.8054 C   0  0  0  0  0  0  0  0  0  0  0  0
  -29.7592  -24.3559   17.3450 C   0  0  0  0  0  0  0  0  0  0  0  0
  -30.0559  -18.7347   18.2070 C   0  0  0  0  0  0  0  0  0  0  0  0
  -21.3766   -5.8294   25.9423 C   0  0  0  0  0  0  0  0  0  0  0  0
  -24.5933  -11.1218   22.7349 C   0  0  0  0  0  0  0  0  0  0  0  0
  -24.0814  -12.7495   20.8385 C   0  0  0  0  0  0  0  0  0  0  0  0
  -25.9661  -30.8671   27.5851 C   0  0  0  0  0  0  0  0  0  0  0  0
  -26.2750  -29.6454   21.0594 C   0  0  0  0  0  0  0  0  0  0  0  0
  -25.8453  -29.9947   26.4866 C   0  0  0  0  0  0  0  0  0  0  0  0
  -25.3408  -28.8314   20.4029 C   0  0  0  0  0  0  0  0  0  0  0  0
  -29.1546  -24.4941   18.6188 C   0  0  0  0  0  0  0  0  0  0  0  0
  -29.0852  -20.9470   18.1808 C   0  0  0  0  0  0  0  0  0  0  0  0
  -28.7834  -18.1779   18.3357 C   0  0  0  0  0  0  0  0  0  0  0  0
  -23.9168   -9.5431   24.9332 C   0  0  0  0  0  0  0  0  0  0  0  0
  -27.1143  -27.2636   19.8492 C   0  0  0  0  0  0  0  0  0  0  0  0
  -22.4436   -7.9969   25.9136 C   0  0  0  0  0  0  0  0  0  0  0  0
  -20.1388   -6.4360   25.7289 C   0  0  0  0  0  0  0  0  0  0  0  0
  -30.2067  -20.1193   18.1296 C   0  0  0  0  0  0  0  0  0  0  0  0
  -22.5290   -6.6099   26.0347 C   0  0  0  0  0  0  0  0  0  0  0  0
  -24.9433  -11.9376   21.6000 C   0  0  0  0  0  0  0  0  0  0  0  0
  -28.8395  -23.2293   19.0639 C   0  0  0  0  0  0  0  0  0  0  0  0
  -24.8934  -13.3112   19.8836 C   0  0  0  0  0  0  0  0  0  0  0  0
  -29.7949  -23.0107   17.0505 C   0  0  0  0  0  0  0  0  0  0  0  0
  -22.6729  -12.9759   20.9816 C   0  0  0  0  0  0  0  0  0  0  0  0
  -24.0437  -30.1567   23.2647 C   0  0  0  0  0  0  0  0  0  0  0  0
  -22.2930  -31.1217   20.7100 C   0  0  0  0  0  0  0  0  0  0  0  0
  -21.7595  -30.9773   17.3423 C   0  0  0  0  0  0  0  0  0  0  0  0
  -29.6375  -15.8083   18.3801 C   0  0  0  0  0  0  0  0  0  0  0  0
  -24.8034  -31.6949   28.0724 C   0  0  0  0  0  0  0  0  0  0  0  0
  -25.8464  -30.9431   21.6874 C   0  0  0  0  0  0  0  0  0  0  0  0
  -23.8823  -29.1999   20.3279 C   0  0  0  0  0  0  0  0  0  0  0  0
  -23.6820  -31.8338   27.0460 C   0  0  0  0  0  0  0  0  0  0  0  0
  -29.6703  -12.2539   18.5856 C   0  0  0  0  0  0  0  0  0  0  0  0
  -23.3537  -30.4787   26.4273 C   0  0  0  0  0  0  0  0  0  0  0  0
  -28.3725  -11.9215   19.3255 C   0  0  0  0  0  0  0  0  0  0  0  0
  -30.3141  -13.5335   19.1165 C   0  0  0  0  0  0  0  0  0  0  0  0
  -28.1316  -14.3726   19.8923 C   0  0  0  0  0  0  0  0  0  0  0  0
  -24.5654  -29.9033   25.6843 C   0  0  1  0  0  0  0  0  0  0  0  0
  -24.3635  -30.9731   22.0445 C   0  0  1  0  0  0  0  0  0  0  0  0
  -27.4125  -13.1271   19.3488 C   0  0  2  0  0  0  0  0  0  0  0  0
  -28.1953  -22.8062   20.3278 C   0  0  0  0  0  0  0  0  0  0  0  0
  -20.2305  -31.8440   15.5512 C   0  0  0  0  0  0  0  0  0  0  0  0
  -20.1356  -29.1584   21.6050 C   0  0  0  0  0  0  0  0  0  0  0  0
  -19.1050  -29.3629   19.3325 C   0  0  0  0  0  0  0  0  0  0  0  0
  -19.2717  -31.3663   20.8093 C   0  0  0  0  0  0  0  0  0  0  0  0
  -23.9838  -32.3332   15.9377 C   0  0  0  0  0  0  0  0  0  0  0  0
  -28.9068  -25.7853   19.3418 C   0  0  0  0  0  0  0  0  0  1  0  0
  -21.3644  -30.4428   19.7324 C   0  0  1  0  0  0  0  0  0  0  0  0
  -21.5285  -32.0674   16.3114 C   0  0  2  0  0  0  0  0  0  0  0  0
  -19.9963  -30.0744   20.3727 C   0  0  0  0  0  0  0  0  0  0  0  0
  -26.2059  -11.9769   21.1661 N   0  0  0  0  0  0  0  0  0  0  0  0
  -29.2329  -22.3356   18.1023 N   0  0  0  0  0  0  0  0  0  0  0  0
  -26.1434  -12.8203   20.1217 N   0  0  0  0  0  0  0  0  0  0  0  0
  -23.5114  -30.4755   20.9625 N   0  0  0  0  0  0  0  0  0  0  0  0
  -29.3470  -14.6333   19.1051 N   0  0  0  0  0  0  0  0  0  0  0  0
  -24.6528  -14.1720   18.8719 N   0  0  0  0  0  0  0  0  0  0  0  0
  -21.9924  -12.3194   22.0162 N   0  0  0  0  0  0  0  0  0  0  0  0
  -28.6298  -16.7716   18.4156 N   0  0  0  0  0  0  0  0  0  0  0  0
  -24.7252  -30.5513   24.4001 N   0  0  0  0  0  0  0  0  0  0  0  0
  -21.2647  -31.3314   18.5797 N   0  0  0  0  0  0  0  0  0  0  0  0
  -22.6491  -32.0975   15.3294 N   0  3  0  0  0  0  0  0  0  0  0  0
  -22.0335  -13.7249   20.2047 O   0  0  0  0  0  0  0  0  0  0  0  0
  -23.2371  -29.2378   23.1825 O   0  0  0  0  0  0  0  0  0  0  0  0
  -21.9531  -32.1898   21.2250 O   0  0  0  0  0  0  0  0  0  0  0  0
  -22.3193  -29.9162   17.0757 O   0  0  0  0  0  0  0  0  0  0  0  0
  -30.6901  -15.9386   17.7500 O   0  0  0  0  0  0  0  0  0  0  0  0
  -30.2609  -22.3754   15.9818 O   0  0  0  0  0  0  0  0  0  0  0  0
  -23.5866   -8.7732   26.0059 O   0  0  0  0  0  0  0  0  0  0  0  0
  -27.5178  -26.1032   19.2639 O   0  0  0  0  0  0  0  0  0  1  0  0
  -19.0319   -5.6868   25.6416 F   0  0  0  0  0  0  0  0  0  0  0  0
  -31.4358  -20.6408   18.0037 F   0  0  0  0  0  0  0  0  0  0  0  0
  -23.7153   -6.0216   26.2410 F   0  0  0  0  0  0  0  0  0  0  0  0
  1  2  1  0  0  0  0
  1  5  2  0  0  0  0
  2  6  2  0  0  0  0
  3 10  2  0  0  0  0
  3 19  1  0  0  0  0
  4 11  1  0  0  0  0
  4 19  2  0  0  0  0
  5 21  1  0  0  0  0
  6 23  1  0  0  0  0
  7 12  2  0  0  0  0
  7 22  1  0  0  0  0
  8  9  2  0  0  0  0
  8 26  1  0  0  0  0
  9 27  1  0  0  0  0
 10 28  1  0  0  0  0
 11 28  2  0  0  0  0
 12 29  1  0  0  0  0
 13 14  2  0  0  0  0
 13 30  1  0  0  0  0
 14 31  1  0  0  0  0
 15 24  1  0  0  0  0
 15 29  2  0  0  0  0
 16 25  1  0  0  0  0
 16 37  2  0  0  0  0
 17 27  2  0  0  0  0
 17 32  1  0  0  0  0
 18 31  2  0  0  0  0
 18 33  1  0  0  0  0
 19 34  1  0  0  0  0
 20 34  1  0  0  0  0
 20 36  2  0  0  0  0
 20 38  1  0  0  0  0
 21 23  2  0  0  0  0
 21 43  1  0  0  0  0
 22 24  2  0  0  0  0
 22 44  1  0  0  0  0
 23 52  1  0  0  0  0
 24 45  1  0  0  0  0
 25 35  2  0  0  0  0
 25 61  1  0  0  0  0
 26 32  2  0  0  0  0
 26 66  1  0  0  0  0
 27 72  1  0  0  0  0
 28 82  1  0  0  0  0
 29 83  1  0  0  0  0
 30 33  2  0  0  0  0
 30 82  1  0  0  0  0
 31 84  1  0  0  0  0
 32 85  1  0  0  0  0
 33 86  1  0  0  0  0
 34 65  2  0  0  0  0
 35 55  1  0  0  0  0
 35 66  1  0  0  0  0
 36 67  1  0  0  0  0
 36 70  1  0  0  0  0
 37 66  1  0  0  0  0
 37 81  1  0  0  0  0
 38 71  1  0  0  0  0
 38 76  2  0  0  0  0
 39 53  1  0  0  0  0
 39 73  1  0  0  0  0
 39 77  2  0  0  0  0
 40 62  1  0  0  0  0
 40 68  1  0  0  0  0
 40 78  2  0  0  0  0
 41 63  1  0  0  0  0
 41 74  1  0  0  0  0
 41 79  2  0  0  0  0
 42 69  1  0  0  0  0
 42 72  1  0  0  0  0
 42 80  2  0  0  0  0
 43 46  1  0  0  0  0
 44 53  1  0  0  0  0
 45 68  1  0  0  0  0
 46 48  1  0  0  0  0
 47 49  1  0  0  0  0
 47 50  1  0  0  0  0
 48 52  1  0  0  0  0
 49 54  1  0  0  0  0
 50 69  1  0  0  0  0
 51 54  1  0  0  0  0
 51 69  1  0  0  0  0
 52 73  1  0  0  0  0
 53 68  1  0  0  0  0
 54 67  1  0  0  0  0
 56 63  1  0  0  0  0
 57 64  1  0  0  0  0
 58 64  1  0  0  0  0
 59 64  1  0  0  0  0
 60 75  1  0  0  0  0
 61 83  1  0  0  0  0
 62 64  1  0  0  0  0
 62 74  1  0  0  0  0
 63 75  1  0  0  0  0
 65 67  1  0  0  0  0
M  CHG  1  75   1
M  ISO  4  42 100  61 101  72 100  83 101
M  END
> <Batch ID>
0095

> <Smiles>
CNC(C)C(=O)NC(C(=O)N1Cc2cc([101O:1][101CH2:1]C3=C(C)N(c4ccc([100NH:0][100C:0](=O)N5CCCC(n6nc(-c7ccc(Oc8ccc(F)cc8F)cc7)c(C(N)=O)c6N)C5)cc4F)C(=O)C3)ccc2CC1C(=O)NC1CCCc2ccccc21)C(C)(C)C

> <Shape>
0.271

> <Color>
0.116

> <Negative vol penalty>
0.000

$$$$

  -OEChem-04052300433D

 86 95  0     1  0  0  0  0  0999 V2000
  -26.5613   -7.5925   22.3449 C   0  0  0  0  0  0  0  0  0  0  0  0
  -26.9485   -8.7661   21.7061 C   0  0  0  0  0  0  0  0  0  0  0  0
  -22.9063  -31.5580   21.9521 C   0  0  0  0  0  0  0  0  0  0  0  0
  -22.4040  -29.2014   22.1287 C   0  0  0  0  0  0  0  0  0  0  0  0
  -25.2133   -7.2400   22.3958 C   0  0  0  0  0  0  0  0  0  0  0  0
  -25.9880   -9.5874   21.1169 C   0  0  0  0  0  0  0  0  0  0  0  0
  -26.7098  -14.4873   22.1729 C   0  0  0  0  0  0  0  0  0  0  0  0
  -21.5450  -31.8395   21.8365 C   0  0  0  0  0  0  0  0  0  0  0  0
  -21.0428  -29.4829   22.0132 C   0  0  0  0  0  0  0  0  0  0  0  0
  -27.7058  -15.1524   21.4593 C   0  0  0  0  0  0  0  0  0  0  0  0
  -18.5581  -30.6184   24.0025 C   0  0  0  0  0  0  0  0  0  0  0  0
  -17.6877  -29.9745   24.8820 C   0  0  0  0  0  0  0  0  0  0  0  0
  -26.0269  -16.0939   20.0052 C   0  0  0  0  0  0  0  0  0  0  0  0
  -28.2385  -22.1024   19.1623 C   0  0  0  0  0  0  0  0  0  0  0  0
  -30.4520  -22.9794   19.5728 C   0  0  0  0  0  0  0  0  0  0  0  0
  -16.5404  -28.9674   23.0093 C   0  0  0  0  0  0  0  0  0  0  0  0
  -23.3358  -30.2390   22.0982 C   0  0  0  0  0  0  0  0  0  0  0  0
  -25.4978  -29.8750   23.4025 C   0  0  0  0  0  0  0  0  0  0  0  0
  -24.2348   -8.0623   21.8154 C   0  0  0  0  0  0  0  0  0  0  0  0
  -25.3635  -14.6120   21.8007 C   0  0  0  0  0  0  0  0  0  0  0  0
  -24.6257   -9.2450   21.1590 C   0  0  0  0  0  0  0  0  0  0  0  0
  -25.0155  -15.4314   20.7174 C   0  0  0  0  0  0  0  0  0  0  0  0
  -27.7804  -23.3897   18.8824 C   0  0  0  0  0  0  0  0  0  0  0  0
  -29.5744  -21.8972   19.5076 C   0  0  0  0  0  0  0  0  0  0  0  0
  -29.9938  -24.2668   19.2928 C   0  0  0  0  0  0  0  0  0  0  0  0
  -28.6580  -24.4719   18.9476 C   0  0  0  0  0  0  0  0  0  0  0  0
  -20.6133  -30.8019   21.8671 C   0  0  0  0  0  0  0  0  0  0  0  0
  -27.3647  -15.9536   20.3735 C   0  0  0  0  0  0  0  0  0  0  0  0
  -18.4195  -30.4369   22.6264 C   0  0  0  0  0  0  0  0  0  0  0  0
  -16.6789  -29.1490   24.3854 C   0  0  0  0  0  0  0  0  0  0  0  0
  -17.4108  -29.6114   22.1298 C   0  0  0  0  0  0  0  0  0  0  0  0
  -24.7419  -29.9475   22.2171 C   0  0  0  0  0  0  0  0  0  0  0  0
  -26.7692  -29.5716   22.9809 C   0  0  0  0  0  0  0  0  0  0  0  0
  -31.3542  -20.2174   20.1571 C   0  0  0  0  0  0  0  0  0  0  0  0
  -25.0872  -30.0649   24.7630 C   0  0  0  0  0  0  0  0  0  0  0  0
  -23.1184  -12.5989   20.7956 C   0  0  0  0  0  0  0  0  0  0  0  0
  -21.2118  -15.2108   21.0510 C   0  0  0  0  0  0  0  0  0  0  0  0
  -20.9499  -18.6131   21.0992 C   0  0  0  0  0  0  0  0  0  0  0  0
  -28.9148  -26.8375   18.1202 C   0  0  0  0  0  0  0  0  0  0  0  0
  -22.7947   -7.6158   21.8547 C   0  0  0  0  0  0  0  0  0  0  0  0
  -24.2986  -13.9093   22.5973 C   0  0  0  0  0  0  0  0  0  0  0  0
  -23.5830  -15.6146   20.2898 C   0  0  0  0  0  0  0  0  0  0  0  0
  -31.3451  -18.7364   20.4598 C   0  0  0  0  0  0  0  0  0  0  0  0
  -21.8025   -8.7300   21.5316 C   0  0  0  0  0  0  0  0  0  0  0  0
  -29.7053  -30.1242   19.2381 C   0  0  0  0  0  0  0  0  0  0  0  0
  -22.2520   -9.5034   20.2961 C   0  0  0  0  0  0  0  0  0  0  0  0
  -28.5944  -30.4429   20.2413 C   0  0  0  0  0  0  0  0  0  0  0  0
  -29.1854  -29.3069   18.0569 C   0  0  0  0  0  0  0  0  0  0  0  0
  -29.1553  -19.4336   19.8224 C   0  0  0  0  0  0  0  0  0  0  0  0
  -27.3453  -28.4039   19.4235 C   0  0  0  0  0  0  0  0  0  0  0  0
  -23.6109  -10.1745   20.5295 C   0  0  1  0  0  0  0  0  0  0  0  0
  -23.0070  -13.6989   21.8131 C   0  0  1  0  0  0  0  0  0  0  0  0
  -30.0908  -18.2360   19.7577 C   0  0  2  0  0  0  0  0  0  0  0  0
  -27.8341  -29.1704   20.6633 C   0  0  2  0  0  0  0  0  0  0  0  0
  -26.3439  -23.5774   18.5148 C   0  0  0  0  0  0  0  0  0  0  0  0
  -19.2569  -20.4561   21.2843 C   0  0  0  0  0  0  0  0  0  0  0  0
  -20.3677  -14.7225   18.1598 C   0  0  0  0  0  0  0  0  0  0  0  0
  -19.4620  -17.0559   18.1034 C   0  0  0  0  0  0  0  0  0  0  0  0
  -18.5061  -15.3869   19.6920 C   0  0  0  0  0  0  0  0  0  0  0  0
  -22.1860  -19.6570   23.5774 C   0  0  0  0  0  0  0  0  0  0  0  0
  -29.5070  -16.9863   20.3934 C   0  0  0  0  0  0  0  0  0  1  0  0
  -20.8091  -16.3349   20.1274 C   0  0  1  0  0  0  0  0  0  0  0  0
  -20.2197  -19.5539   22.0405 C   0  0  2  0  0  0  0  0  0  0  0  0
  -19.8135  -15.8703   19.0273 C   0  0  0  0  0  0  0  0  0  0  0  0
  -25.4723  -29.7095   21.1244 N   0  0  0  0  0  0  0  0  0  0  0  0
  -26.7004  -29.4845   21.6215 N   0  0  0  0  0  0  0  0  0  0  0  0
  -30.0432  -20.5808   19.7964 N   0  0  0  0  0  0  0  0  0  0  0  0
  -22.5786  -14.9018   21.0963 N   0  0  0  0  0  0  0  0  0  0  0  0
  -28.4802  -28.1148   18.5329 N   0  0  0  0  0  0  0  0  0  0  0  0
  -30.9014  -25.3478   19.3654 N   0  0  0  0  0  0  0  0  0  0  0  0
  -27.9283  -29.3736   23.6441 N   0  0  0  0  0  0  0  0  0  0  0  0
  -23.7437  -30.3712   25.0190 N   0  0  0  0  0  0  0  0  0  0  0  0
  -28.1883  -25.7781   18.6628 N   0  0  0  0  0  0  0  0  0  0  0  0
  -23.4534  -11.3696   21.3305 N   0  0  0  0  0  0  0  0  0  0  0  0
  -20.3003  -17.4026   20.9815 N   0  0  0  0  0  0  0  0  0  0  0  0
  -21.1930  -20.4135   22.7718 N   0  3  0  0  0  0  0  0  0  0  0  0
  -32.3549  -20.9074   20.2882 O   0  0  0  0  0  0  0  0  0  0  0  0
  -25.8915  -29.9821   25.7221 O   0  0  0  0  0  0  0  0  0  0  0  0
  -22.9139  -12.8467   19.6131 O   0  0  0  0  0  0  0  0  0  0  0  0
  -20.3463  -14.6330   21.7135 O   0  0  0  0  0  0  0  0  0  0  0  0
  -21.9904  -18.9225   20.5229 O   0  0  0  0  0  0  0  0  0  0  0  0
  -29.8790  -26.6929   17.3642 O   0  0  0  0  0  0  0  0  0  0  0  0
  -19.2849  -31.0762   21.7545 O   0  0  0  0  0  0  0  0  0  0  0  0
  -28.3350  -16.6034   19.6748 O   0  0  0  0  0  0  0  0  0  1  0  0
  -15.8442  -28.5295   25.2302 F   0  0  0  0  0  0  0  0  0  0  0  0
  -17.2735  -29.4322   20.8089 F   0  0  0  0  0  0  0  0  0  0  0  0
  1  2  1  0  0  0  0
  1  5  2  0  0  0  0
  2  6  2  0  0  0  0
  3  8  2  0  0  0  0
  3 17  1  0  0  0  0
  4  9  1  0  0  0  0
  4 17  2  0  0  0  0
  5 19  1  0  0  0  0
  6 21  1  0  0  0  0
  7 10  2  0  0  0  0
  7 20  1  0  0  0  0
  8 27  1  0  0  0  0
  9 27  2  0  0  0  0
 10 28  1  0  0  0  0
 11 12  2  0  0  0  0
 11 29  1  0  0  0  0
 12 30  1  0  0  0  0
 13 22  1  0  0  0  0
 13 28  2  0  0  0  0
 14 23  2  0  0  0  0
 14 24  1  0  0  0  0
 15 24  2  0  0  0  0
 15 25  1  0  0  0  0
 16 30  2  0  0  0  0
 16 31  1  0  0  0  0
 17 32  1  0  0  0  0
 18 32  1  0  0  0  0
 18 33  2  0  0  0  0
 18 35  1  0  0  0  0
 19 21  2  0  0  0  0
 19 40  1  0  0  0  0
 20 22  2  0  0  0  0
 20 41  1  0  0  0  0
 21 51  1  0  0  0  0
 22 42  1  0  0  0  0
 23 26  1  0  0  0  0
 23 55  1  0  0  0  0
 24 67  1  0  0  0  0
 25 26  2  0  0  0  0
 25 70  1  0  0  0  0
 26 73  1  0  0  0  0
 27 83  1  0  0  0  0
 28 84  1  0  0  0  0
 29 31  2  0  0  0  0
 29 83  1  0  0  0  0
 30 85  1  0  0  0  0
 31 86  1  0  0  0  0
 32 65  2  0  0  0  0
 33 66  1  0  0  0  0
 33 71  1  0  0  0  0
 34 43  1  0  0  0  0
 34 67  1  0  0  0  0
 34 77  2  0  0  0  0
 35 72  1  0  0  0  0
 35 78  2  0  0  0  0
 36 52  1  0  0  0  0
 36 74  1  0  0  0  0
 36 79  2  0  0  0  0
 37 62  1  0  0  0  0
 37 68  1  0  0  0  0
 37 80  2  0  0  0  0
 38 63  1  0  0  0  0
 38 75  1  0  0  0  0
 38 81  2  0  0  0  0
 39 69  1  0  0  0  0
 39 73  1  0  0  0  0
 39 82  2  0  0  0  0
 40 44  1  0  0  0  0
 41 52  1  0  0  0  0
 42 68  1  0  0  0  0
 43 53  1  0  0  0  0
 44 46  1  0  0  0  0
 45 47  1  0  0  0  0
 45 48  1  0  0  0  0
 46 51  1  0  0  0  0
 47 54  1  0  0  0  0
 48 69  1  0  0  0  0
 49 53  1  0  0  0  0
 49 67  1  0  0  0  0
 50 54  1  0  0  0  0
 50 69  1  0  0  0  0
 51 74  1  0  0  0  0
 52 68  1  0  0  0  0
 53 61  1  0  0  0  0
 54 66  1  0  0  0  0
 56 63  1  0  0  0  0
 57 64  1  0  0  0  0
 58 64  1  0  0  0  0
 59 64  1  0  0  0  0
 60 76  1  0  0  0  0
 61 84  1  0  0  0  0
 62 64  1  0  0  0  0
 62 75  1  0  0  0  0
 63 76  1  0  0  0  0
 65 66  1  0  0  0  0
M  CHG  1  76   1
M  ISO  4  39 100  61 101  73 100  84 101
M  END
> <Batch ID>
0095

> <Smiles>
CNC(C)C(=O)NC(C(=O)N1Cc2cc([101O:1][101CH2:1]C3CC(=O)N(c4cc(C)c([100NH:0][100C:0](=O)N5CCCC(n6nc(-c7ccc(Oc8ccc(F)cc8F)cc7)c(C(N)=O)c6N)C5)c(N)c4)C3)ccc2CC1C(=O)NC1CCCc2ccccc21)C(C)(C)C

> <Shape>
0.259

> <Color>
0.050

> <Negative vol penalty>
0.000

$$$$

  -OEChem-04052300433D

 86 95  0     1  0  0  0  0  0999 V2000
  -28.4049  -37.1348   22.6343 C   0  0  0  0  0  0  0  0  0  0  0  0
  -28.8067  -35.9200   22.0884 C   0  0  0  0  0  0  0  0  0  0  0  0
  -22.5754  -10.5333   22.1305 C   0  0  0  0  0  0  0  0  0  0  0  0
  -23.0021  -10.2137   19.7740 C   0  0  0  0  0  0  0  0  0  0  0  0
  -27.4306  -37.1615   23.6313 C   0  0  0  0  0  0  0  0  0  0  0  0
  -28.2352  -34.7309   22.5399 C   0  0  0  0  0  0  0  0  0  0  0  0
  -27.0477  -29.7237   19.2197 C   0  0  0  0  0  0  0  0  0  0  0  0
  -22.2141   -9.1911   22.2471 C   0  0  0  0  0  0  0  0  0  0  0  0
  -22.6409   -8.8715   19.8907 C   0  0  0  0  0  0  0  0  0  0  0  0
  -27.7371  -28.5235   19.0530 C   0  0  0  0  0  0  0  0  0  0  0  0
  -23.7771   -6.2016   22.4763 C   0  0  0  0  0  0  0  0  0  0  0  0
  -24.2859   -5.4851   23.5594 C   0  0  0  0  0  0  0  0  0  0  0  0
  -26.3592  -27.5034   20.7501 C   0  0  0  0  0  0  0  0  0  0  0  0
  -26.8484  -20.2702   17.0675 C   0  0  0  0  0  0  0  0  0  0  0  0
  -24.1991  -20.7834   17.7753 C   0  0  0  0  0  0  0  0  0  0  0  0
  -22.0369   -5.0440   24.3241 C   0  0  0  0  0  0  0  0  0  0  0  0
  -22.9694  -11.0446   20.8939 C   0  0  0  0  0  0  0  0  0  0  0  0
  -24.6278  -12.9827   20.9305 C   0  0  0  0  0  0  0  0  0  0  0  0
  -26.8399  -35.9729   24.0885 C   0  0  0  0  0  0  0  0  0  0  0  0
  -26.0143  -29.8261   20.1620 C   0  0  0  0  0  0  0  0  0  0  0  0
  -27.2530  -34.7416   23.5449 C   0  0  0  0  0  0  0  0  0  0  0  0
  -25.6565  -28.7053   20.9249 C   0  0  0  0  0  0  0  0  0  0  0  0
  -26.4525  -21.5672   17.3941 C   0  0  0  0  0  0  0  0  0  0  0  0
  -25.9196  -19.2298   17.0948 C   0  0  0  0  0  0  0  0  0  0  0  0
  -24.5951  -19.4864   17.4487 C   0  0  0  0  0  0  0  0  0  0  0  0
  -22.2468   -8.3602   21.1272 C   0  0  0  0  0  0  0  0  0  0  0  0
  -27.3949  -27.4139   19.8204 C   0  0  0  0  0  0  0  0  0  0  0  0
  -22.3982   -6.3394   22.3170 C   0  0  0  0  0  0  0  0  0  0  0  0
  -23.4159   -4.9062   24.4834 C   0  0  0  0  0  0  0  0  0  0  0  0
  -25.1279  -21.8238   17.7480 C   0  0  0  0  0  0  0  0  0  0  0  0
  -21.5281   -5.7606   23.2409 C   0  0  0  0  0  0  0  0  0  0  0  0
  -23.3422  -12.4311   20.7727 C   0  0  0  0  0  0  0  0  0  0  0  0
  -24.4530  -14.3279   20.7155 C   0  0  0  0  0  0  0  0  0  0  0  0
  -28.5327  -22.7224   16.5284 C   0  0  0  0  0  0  0  0  0  0  0  0
  -25.8690  -12.3367   21.2433 C   0  0  0  0  0  0  0  0  0  0  0  0
  -25.5284  -31.5650   22.7781 C   0  0  0  0  0  0  0  0  0  0  0  0
  -22.5963  -30.1808   22.6818 C   0  0  0  0  0  0  0  0  0  0  0  0
  -20.6570  -27.5714   21.6440 C   0  0  0  0  0  0  0  0  0  0  0  0
  -22.2828  -18.5553   17.8133 C   0  0  0  0  0  0  0  0  0  0  0  0
  -25.8247  -36.0481   25.2013 C   0  0  0  0  0  0  0  0  0  0  0  0
  -25.2625  -31.1204   20.3108 C   0  0  0  0  0  0  0  0  0  0  0  0
  -24.5413  -28.7574   21.9359 C   0  0  0  0  0  0  0  0  0  0  0  0
  -29.1773  -24.0650   16.7868 C   0  0  0  0  0  0  0  0  0  0  0  0
  -24.9993  -34.7738   25.3599 C   0  0  0  0  0  0  0  0  0  0  0  0
  -20.2218  -17.0768   20.3120 C   0  0  0  0  0  0  0  0  0  0  0  0
  -25.9031  -33.5453   25.3316 C   0  0  0  0  0  0  0  0  0  0  0  0
  -20.9557  -15.7817   20.6676 C   0  0  0  0  0  0  0  0  0  0  0  0
  -20.3287  -17.3986   18.8225 C   0  0  0  0  0  0  0  0  0  0  0  0
  -27.2575  -23.8206   18.1803 C   0  0  0  0  0  0  0  0  0  0  0  0
  -22.4303  -16.1256   18.6442 C   0  0  0  0  0  0  0  0  0  0  0  0
  -26.6387  -33.4324   23.9908 C   0  0  1  0  0  0  0  0  0  0  0  0
  -24.5696  -31.2568   21.6630 C   0  0  1  0  0  0  0  0  0  0  0  0
  -28.6351  -24.4647   18.1516 C   0  0  2  0  0  0  0  0  0  0  0  0
  -22.4057  -15.7940   20.1453 C   0  0  2  0  0  0  0  0  0  0  0  0
  -18.3061  -26.7000   21.7502 C   0  0  0  0  0  0  0  0  0  0  0  0
  -23.0567  -29.2969   25.5657 C   0  0  0  0  0  0  0  0  0  0  0  0
  -21.1687  -27.6748   25.2966 C   0  0  0  0  0  0  0  0  0  0  0  0
  -20.7462  -30.1242   25.0844 C   0  0  0  0  0  0  0  0  0  0  0  0
  -20.3609  -27.6789   18.7013 C   0  0  0  0  0  0  0  0  0  0  0  0
  -28.5966  -25.9682   18.3637 C   0  0  0  0  0  0  0  0  0  1  0  0
  -21.9916  -28.9173   23.2446 C   0  0  1  0  0  0  0  0  0  0  0  0
  -19.3028  -27.5328   20.9591 C   0  0  2  0  0  0  0  0  0  0  0  0
  -21.7632  -29.0025   24.7802 C   0  0  0  0  0  0  0  0  0  0  0  0
  -22.4189  -13.3509   20.4802 N   0  0  0  0  0  0  0  0  0  0  0  0
  -23.1250  -14.4940   20.4526 N   0  0  0  0  0  0  0  0  0  0  0  0
  -27.4040  -22.6301   17.3641 N   0  0  0  0  0  0  0  0  0  0  0  0
  -23.8403  -30.0471   22.0491 N   0  0  0  0  0  0  0  0  0  0  0  0
  -21.7309  -17.3968   18.4000 N   0  0  0  0  0  0  0  0  0  0  0  0
  -26.3423  -17.9235   16.7610 N   0  0  0  0  0  0  0  0  0  0  0  0
  -25.3072  -15.3732   20.7277 N   0  0  0  0  0  0  0  0  0  0  0  0
  -25.8703  -10.9481   21.4327 N   0  0  0  0  0  0  0  0  0  0  0  0
  -23.6330  -18.4466   17.4821 N   0  0  0  0  0  0  0  0  0  0  0  0
  -25.7527  -32.9149   22.9702 N   0  0  0  0  0  0  0  0  0  0  0  0
  -20.7790  -28.6663   22.4732 N   0  0  0  0  0  0  0  0  0  0  0  0
  -19.4286  -26.9452   19.5954 N   0  3  0  0  0  0  0  0  0  0  0  0
  -28.9518  -21.9457   15.6822 O   0  0  0  0  0  0  0  0  0  0  0  0
  -26.9420  -12.9744   21.3679 O   0  0  0  0  0  0  0  0  0  0  0  0
  -26.0265  -30.6462   23.4179 O   0  0  0  0  0  0  0  0  0  0  0  0
  -21.9840  -31.2459   22.7930 O   0  0  0  0  0  0  0  0  0  0  0  0
  -21.5189  -26.7138   21.4644 O   0  0  0  0  0  0  0  0  0  0  0  0
  -21.6144  -19.5784   17.6440 O   0  0  0  0  0  0  0  0  0  0  0  0
  -21.8946   -7.0504   21.2407 O   0  0  0  0  0  0  0  0  0  0  0  0
  -28.0667  -26.2413   19.6602 O   0  0  0  0  0  0  0  0  0  1  0  0
  -23.9046   -4.2169   25.5226 F   0  0  0  0  0  0  0  0  0  0  0  0
  -24.7362  -23.0664   18.0644 F   0  0  0  0  0  0  0  0  0  0  0  0
  -20.2024   -5.8885   23.0926 F   0  0  0  0  0  0  0  0  0  0  0  0
  1  2  1  0  0  0  0
  1  5  2  0  0  0  0
  2  6  2  0  0  0  0
  3  8  2  0  0  0  0
  3 17  1  0  0  0  0
  4  9  1  0  0  0  0
  4 17  2  0  0  0  0
  5 19  1  0  0  0  0
  6 21  1  0  0  0  0
  7 10  2  0  0  0  0
  7 20  1  0  0  0  0
  8 26  1  0  0  0  0
  9 26  2  0  0  0  0
 10 27  1  0  0  0  0
 11 12  2  0  0  0  0
 11 28  1  0  0  0  0
 12 29  1  0  0  0  0
 13 22  1  0  0  0  0
 13 27  2  0  0  0  0
 14 23  1  0  0  0  0
 14 24  2  0  0  0  0
 15 25  2  0  0  0  0
 15 30  1  0  0  0  0
 16 29  2  0  0  0  0
 16 31  1  0  0  0  0
 17 32  1  0  0  0  0
 18 32  1  0  0  0  0
 18 33  2  0  0  0  0
 18 35  1  0  0  0  0
 19 21  2  0  0  0  0
 19 40  1  0  0  0  0
 20 22  2  0  0  0  0
 20 41  1  0  0  0  0
 21 51  1  0  0  0  0
 22 42  1  0  0  0  0
 23 30  2  0  0  0  0
 23 66  1  0  0  0  0
 24 25  1  0  0  0  0
 24 69  1  0  0  0  0
 25 72  1  0  0  0  0
 26 82  1  0  0  0  0
 27 83  1  0  0  0  0
 28 31  2  0  0  0  0
 28 82  1  0  0  0  0
 29 84  1  0  0  0  0
 30 85  1  0  0  0  0
 31 86  1  0  0  0  0
 32 64  2  0  0  0  0
 33 65  1  0  0  0  0
 33 70  1  0  0  0  0
 34 43  1  0  0  0  0
 34 66  1  0  0  0  0
 34 76  2  0  0  0  0
 35 71  1  0  0  0  0
 35 77  2  0  0  0  0
 36 52  1  0  0  0  0
 36 73  1  0  0  0  0
 36 78  2  0  0  0  0
 37 61  1  0  0  0  0
 37 67  1  0  0  0  0
 37 79  2  0  0  0  0
 38 62  1  0  0  0  0
 38 74  1  0  0  0  0
 38 80  2  0  0  0  0
 39 68  1  0  0  0  0
 39 72  1  0  0  0  0
 39 81  2  0  0  0  0
 40 44  1  0  0  0  0
 41 52  1  0  0  0  0
 42 67  1  0  0  0  0
 43 53  1  0  0  0  0
 44 46  1  0  0  0  0
 45 47  1  0  0  0  0
 45 48  1  0  0  0  0
 46 51  1  0  0  0  0
 47 54  1  0  0  0  0
 48 68  1  0  0  0  0
 49 53  1  0  0  0  0
 49 66  1  0  0  0  0
 50 54  1  0  0  0  0
 50 68  1  0  0  0  0
 51 73  1  0  0  0  0
 52 67  1  0  0  0  0
 53 60  1  0  0  0  0
 54 65  1  0  0  0  0
 55 62  1  0  0  0  0
 56 63  1  0  0  0  0
 57 63  1  0  0  0  0
 58 63  1  0  0  0  0
 59 75  1  0  0  0  0
 60 83  1  0  0  0  0
 61 63  1  0  0  0  0
 61 74  1  0  0  0  0
 62 75  1  0  0  0  0
 64 65  1  0  0  0  0
M  CHG  1  75   1
M  ISO  4  39 100  60 101  72 100  83 101
M  END
> <Batch ID>
0095

> <Smiles>
CNC(C)C(=O)NC(C(=O)N1Cc2cc([101O:1][101CH2:1]C3CC(=O)N(c4cc(N)c([100NH:0][100C:0](=O)N5CCCC(n6nc(-c7ccc(Oc8ccc(F)cc8F)cc7)c(C(N)=O)c6N)C5)cc4F)C3)ccc2CC1C(=O)NC1CCCc2ccccc21)C(C)(C)C

> <Shape>
0.275

> <Color>
0.120

> <Negative vol penalty>
0.000

$$$$

  -OEChem-04052300433D

 88 97  0     1  0  0  0  0  0999 V2000
  -27.8427  -35.2181   23.7492 C   0  0  0  0  0  0  0  0  0  0  0  0
  -28.6533  -34.2289   23.2018 C   0  0  0  0  0  0  0  0  0  0  0  0
  -24.3615  -14.8434   23.5533 C   0  0  0  0  0  0  0  0  0  0  0  0
  -23.8061  -15.9445   21.4758 C   0  0  0  0  0  0  0  0  0  0  0  0
  -26.5958  -34.8836   24.2759 C   0  0  0  0  0  0  0  0  0  0  0  0
  -28.2180  -32.9043   23.1817 C   0  0  0  0  0  0  0  0  0  0  0  0
  -28.6597  -26.9417   19.2359 C   0  0  0  0  0  0  0  0  0  0  0  0
  -28.2625  -17.6730   18.0907 C   0  0  0  0  0  0  0  0  0  0  0  0
  -28.6025  -16.5495   17.3372 C   0  0  0  0  0  0  0  0  0  0  0  0
  -23.7990  -15.9028   24.2652 C   0  0  0  0  0  0  0  0  0  0  0  0
  -23.2436  -17.0040   22.1877 C   0  0  0  0  0  0  0  0  0  0  0  0
  -28.9855  -25.5916   19.3572 C   0  0  0  0  0  0  0  0  0  0  0  0
  -24.3271  -19.7327   23.8643 C   0  0  0  0  0  0  0  0  0  0  0  0
  -24.6400  -21.0283   23.4531 C   0  0  0  0  0  0  0  0  0  0  0  0
  -26.7794  -25.1432   20.2239 C   0  0  0  0  0  0  0  0  0  0  0  0
  -28.2992  -20.4427   21.7543 C   0  0  0  0  0  0  0  0  0  0  0  0
  -29.9775  -17.1143   19.6980 C   0  0  0  0  0  0  0  0  0  0  0  0
  -22.2985  -21.4653   23.0486 C   0  0  0  0  0  0  0  0  0  0  0  0
  -24.3651  -14.8642   22.1586 C   0  0  0  0  0  0  0  0  0  0  0  0
  -24.2958  -12.6039   20.9780 C   0  0  0  0  0  0  0  0  0  0  0  0
  -26.1409  -33.5557   24.2535 C   0  0  0  0  0  0  0  0  0  0  0  0
  -27.3928  -27.4053   19.6186 C   0  0  0  0  0  0  0  0  0  0  0  0
  -26.9644  -32.5515   23.7098 C   0  0  0  0  0  0  0  0  0  0  0  0
  -26.4391  -26.4993   20.1041 C   0  0  0  0  0  0  0  0  0  0  0  0
  -27.8976  -21.1138   20.5730 C   0  0  0  0  0  0  0  0  0  0  0  0
  -28.9500  -17.9554   19.2711 C   0  0  0  0  0  0  0  0  0  0  0  0
  -29.6301  -15.7084   17.7641 C   0  0  0  0  0  0  0  0  0  0  0  0
  -30.3176  -15.9907   18.9445 C   0  0  0  0  0  0  0  0  0  0  0  0
  -23.2400  -16.9831   23.5824 C   0  0  0  0  0  0  0  0  0  0  0  0
  -28.0463  -24.6926   19.8540 C   0  0  0  0  0  0  0  0  0  0  0  0
  -23.0000  -19.3033   23.8675 C   0  0  0  0  0  0  0  0  0  0  0  0
  -23.6257  -21.8946   23.0453 C   0  0  0  0  0  0  0  0  0  0  0  0
  -21.9857  -20.1696   23.4597 C   0  0  0  0  0  0  0  0  0  0  0  0
  -24.9464  -13.7704   21.4226 C   0  0  0  0  0  0  0  0  0  0  0  0
  -25.2759  -11.8877   20.3355 C   0  0  0  0  0  0  0  0  0  0  0  0
  -28.7349  -19.1887   21.3871 C   0  0  0  0  0  0  0  0  0  0  0  0
  -28.1000  -20.2493   19.5198 C   0  0  0  0  0  0  0  0  0  0  0  0
  -30.0963  -13.4713   14.8343 C   0  0  0  0  0  0  0  0  0  0  0  0
  -29.7948  -14.5299   15.5895 C   0  0  0  0  0  0  0  0  0  0  0  0
  -22.9277  -12.2035   21.1321 C   0  0  0  0  0  0  0  0  0  0  0  0
  -26.3185  -29.4584   21.7944 C   0  0  0  0  0  0  0  0  0  0  0  0
  -23.4685  -28.8957   20.3511 C   0  0  0  0  0  0  0  0  0  0  0  0
  -21.5360  -26.8030   18.4716 C   0  0  0  0  0  0  0  0  0  0  0  0
  -30.3255  -13.3442   17.6237 C   0  0  0  0  0  0  0  0  0  0  0  0
  -24.8057  -33.2352   24.8774 C   0  0  0  0  0  0  0  0  0  0  0  0
  -27.0478  -28.8604   19.4564 C   0  0  0  0  0  0  0  0  0  0  0  0
  -25.0581  -26.9430   20.5097 C   0  0  0  0  0  0  0  0  0  0  0  0
  -24.2599  -31.8665   24.4787 C   0  0  0  0  0  0  0  0  0  0  0  0
  -29.9952  -11.1566   20.3244 C   0  0  0  0  0  0  0  0  0  0  0  0
  -25.3483  -30.8039   24.5928 C   0  0  0  0  0  0  0  0  0  0  0  0
  -28.6047  -11.4634   20.8799 C   0  0  0  0  0  0  0  0  0  0  0  0
  -30.7093  -12.4350   19.9008 C   0  0  0  0  0  0  0  0  0  0  0  0
  -28.5544  -13.5635   19.4465 C   0  0  0  0  0  0  0  0  0  0  0  0
  -26.5168  -31.1072   23.6472 C   0  0  1  0  0  0  0  0  0  0  0  0
  -25.9017  -29.3069   20.3588 C   0  0  1  0  0  0  0  0  0  0  0  0
  -27.7843  -12.3011   19.8833 C   0  0  2  0  0  0  0  0  0  0  0  0
  -19.2373  -26.5986   17.4858 C   0  0  0  0  0  0  0  0  0  0  0  0
  -22.3509  -28.2085   23.1058 C   0  0  0  0  0  0  0  0  0  0  0  0
  -20.4019  -27.1248   21.9678 C   0  0  0  0  0  0  0  0  0  0  0  0
  -20.8197  -29.5657   21.6677 C   0  0  0  0  0  0  0  0  0  0  0  0
  -22.6023  -26.6962   15.7129 C   0  0  0  0  0  0  0  0  0  0  0  0
  -27.3517  -22.5089   20.4904 C   0  0  0  0  0  0  0  0  0  1  0  0
  -22.3516  -27.8984   20.5426 C   0  0  1  0  0  0  0  0  0  0  0  0
  -20.6684  -27.0568   17.2520 C   0  0  2  0  0  0  0  0  0  0  0  0
  -21.5076  -28.1910   21.8152 C   0  0  0  0  0  0  0  0  0  0  0  0
  -26.2399  -13.7977   21.0907 N   0  0  0  0  0  0  0  0  0  0  0  0
  -28.6090  -19.0822   20.0266 N   0  0  0  0  0  0  0  0  0  0  0  0
  -26.4100  -12.6394   20.4308 N   0  0  0  0  0  0  0  0  0  0  0  0
  -24.7709  -28.3767   20.3384 N   0  0  0  0  0  0  0  0  0  0  0  0
  -29.8961  -13.2045   18.9585 N   0  0  0  0  0  0  0  0  0  0  0  0
  -31.3620  -15.1523   19.3949 N   0  0  0  0  0  0  0  0  0  0  0  0
  -25.2697  -10.6946   19.7039 N   0  0  0  0  0  0  0  0  0  0  0  0
  -22.0548  -13.0580   21.8192 N   0  0  0  0  0  0  0  0  0  0  0  0
  -26.1763  -30.7408   22.2892 N   0  0  0  0  0  0  0  0  0  0  0  0
  -21.5835  -27.9025   19.3023 N   0  0  0  0  0  0  0  0  0  0  0  0
  -29.9640  -14.5479   16.9644 N   0  0  0  0  0  0  0  0  0  0  0  0
  -21.2088  -26.3261   16.0708 N   0  3  0  0  0  0  0  0  0  0  0  0
  -22.4960  -11.1126   20.6882 O   0  0  0  0  0  0  0  0  0  0  0  0
  -26.7366  -28.4837   22.4083 O   0  0  0  0  0  0  0  0  0  0  0  0
  -23.1950  -30.0903   20.2104 O   0  0  0  0  0  0  0  0  0  0  0  0
  -22.1108  -25.7348   18.6695 O   0  0  0  0  0  0  0  0  0  0  0  0
  -31.0008  -12.4719   17.0623 O   0  0  0  0  0  0  0  0  0  0  0  0
  -29.2073  -18.1912   22.1251 O   0  0  0  0  0  0  0  0  0  0  0  0
  -27.8794  -20.4042   18.2192 O   0  0  0  0  0  0  0  0  0  0  0  0
  -22.6909  -18.0170   24.2768 O   0  0  0  0  0  0  0  0  0  0  0  0
  -28.3620  -23.3743   19.9740 O   0  0  0  0  0  0  0  0  0  1  0  0
  -23.9261  -23.1393   22.6520 F   0  0  0  0  0  0  0  0  0  0  0  0
  -20.7087  -19.7632   23.4618 F   0  0  0  0  0  0  0  0  0  0  0  0
  1  2  1  0  0  0  0
  1  5  2  0  0  0  0
  2  6  2  0  0  0  0
  3 10  2  0  0  0  0
  3 19  1  0  0  0  0
  4 11  1  0  0  0  0
  4 19  2  0  0  0  0
  5 21  1  0  0  0  0
  6 23  1  0  0  0  0
  7 12  2  0  0  0  0
  7 22  1  0  0  0  0
  8  9  2  0  0  0  0
  8 26  1  0  0  0  0
  9 27  1  0  0  0  0
 10 29  1  0  0  0  0
 11 29  2  0  0  0  0
 12 30  1  0  0  0  0
 13 14  2  0  0  0  0
 13 31  1  0  0  0  0
 14 32  1  0  0  0  0
 15 24  1  0  0  0  0
 15 30  2  0  0  0  0
 16 25  1  0  0  0  0
 16 36  2  0  0  0  0
 17 26  2  0  0  0  0
 17 28  1  0  0  0  0
 18 32  2  0  0  0  0
 18 33  1  0  0  0  0
 19 34  1  0  0  0  0
 20 34  1  0  0  0  0
 20 35  2  0  0  0  0
 20 40  1  0  0  0  0
 21 23  2  0  0  0  0
 21 45  1  0  0  0  0
 22 24  2  0  0  0  0
 22 46  1  0  0  0  0
 23 54  1  0  0  0  0
 24 47  1  0  0  0  0
 25 37  2  0  0  0  0
 25 62  1  0  0  0  0
 26 67  1  0  0  0  0
 27 28  2  0  0  0  0
 27 76  1  0  0  0  0
 28 71  1  0  0  0  0
 29 85  1  0  0  0  0
 30 86  1  0  0  0  0
 31 33  2  0  0  0  0
 31 85  1  0  0  0  0
 32 87  1  0  0  0  0
 33 88  1  0  0  0  0
 34 66  2  0  0  0  0
 35 68  1  0  0  0  0
 35 72  1  0  0  0  0
 36 67  1  0  0  0  0
 36 83  1  0  0  0  0
 37 67  1  0  0  0  0
 37 84  1  0  0  0  0
 38 39  2  0  0  0  0
 39 76  1  0  0  0  0
 40 73  1  0  0  0  0
 40 78  2  0  0  0  0
 41 55  1  0  0  0  0
 41 74  1  0  0  0  0
 41 79  2  0  0  0  0
 42 63  1  0  0  0  0
 42 69  1  0  0  0  0
 42 80  2  0  0  0  0
 43 64  1  0  0  0  0
 43 75  1  0  0  0  0
 43 81  2  0  0  0  0
 44 70  1  0  0  0  0
 44 76  1  0  0  0  0
 44 82  2  0  0  0  0
 45 48  1  0  0  0  0
 46 55  1  0  0  0  0
 47 69  1  0  0  0  0
 48 50  1  0  0  0  0
 49 51  1  0  0  0  0
 49 52  1  0  0  0  0
 50 54  1  0  0  0  0
 51 56  1  0  0  0  0
 52 70  1  0  0  0  0
 53 56  1  0  0  0  0
 53 70  1  0  0  0  0
 54 74  1  0  0  0  0
 55 69  1  0  0  0  0
 56 68  1  0  0  0  0
 57 64  1  0  0  0  0
 58 65  1  0  0  0  0
 59 65  1  0  0  0  0
 60 65  1  0  0  0  0
 61 77  1  0  0  0  0
 62 86  1  0  0  0  0
 63 65  1  0  0  0  0
 63 75  1  0  0  0  0
 64 77  1  0  0  0  0
 66 68  1  0  0  0  0
M  CHG  1  77   1
M  ISO  4  44 100  62 101  76 100  86 101
M  END
> <Batch ID>
0095

> <Smiles>
C=C[100N:0](c1ccc(N2C(=O)CC([101CH2:1][101O:1]c3ccc4c(c3)CN(C(=O)C(NC(=O)C(C)NC)C(C)(C)C)C(C(=O)NC3CCCc5ccccc53)C4)C2=O)cc1N)[100C:0](=O)N1CCCC(n2nc(-c3ccc(Oc4ccc(F)cc4F)cc3)c(C(N)=O)c2N)C1

> <Shape>
0.296

> <Color>
0.074

> <Negative vol penalty>
0.000

$$$$

  -OEChem-04052300433D

 82 90  0     1  0  0  0  0  0999 V2000
  -17.4326  -29.2933   22.3799 C   0  0  0  0  0  0  0  0  0  0  0  0
  -18.5673  -28.7287   21.8064 C   0  0  0  0  0  0  0  0  0  0  0  0
  -22.9906   -9.9838   19.9642 C   0  0  0  0  0  0  0  0  0  0  0  0
  -23.8496   -9.9000   22.2208 C   0  0  0  0  0  0  0  0  0  0  0  0
  -29.0375  -17.5433   22.1680 C   0  0  0  0  0  0  0  0  0  0  0  0
  -28.3407  -18.6861   21.7755 C   0  0  0  0  0  0  0  0  0  0  0  0
  -17.0196  -28.8891   23.6488 C   0  0  0  0  0  0  0  0  0  0  0  0
  -19.2905  -27.7603   22.5019 C   0  0  0  0  0  0  0  0  0  0  0  0
  -22.2276  -22.9426   20.1210 C   0  0  0  0  0  0  0  0  0  0  0  0
  -22.2286   -8.8421   20.2118 C   0  0  0  0  0  0  0  0  0  0  0  0
  -23.0876   -8.7582   22.4685 C   0  0  0  0  0  0  0  0  0  0  0  0
  -23.5672  -22.7246   19.8020 C   0  0  0  0  0  0  0  0  0  0  0  0
  -19.3267   -8.0732   21.7676 C   0  0  0  0  0  0  0  0  0  0  0  0
  -17.9991   -8.0745   21.3396 C   0  0  0  0  0  0  0  0  0  0  0  0
  -29.3679  -16.9485   19.8498 C   0  0  0  0  0  0  0  0  0  0  0  0
  -23.8916  -21.6395   21.9319 C   0  0  0  0  0  0  0  0  0  0  0  0
  -18.4499   -6.1607   19.9356 C   0  0  0  0  0  0  0  0  0  0  0  0
  -23.8012  -10.5127   20.9687 C   0  0  0  0  0  0  0  0  0  0  0  0
  -29.5512  -16.6745   21.2052 C   0  0  0  0  0  0  0  0  0  0  0  0
  -28.1574  -18.9600   20.4202 C   0  0  0  0  0  0  0  0  0  0  0  0
  -24.2031  -13.0312   20.9102 C   0  0  0  0  0  0  0  0  0  0  0  0
  -17.7325  -27.9083   24.3562 C   0  0  0  0  0  0  0  0  0  0  0  0
  -21.7117  -22.5197   21.3545 C   0  0  0  0  0  0  0  0  0  0  0  0
  -18.8874  -27.3436   23.7819 C   0  0  0  0  0  0  0  0  0  0  0  0
  -22.5445  -21.8510   22.2631 C   0  0  0  0  0  0  0  0  0  0  0  0
  -28.6710  -18.0912   19.4573 C   0  0  0  0  0  0  0  0  0  0  0  0
  -22.2770   -8.2293   21.4640 C   0  0  0  0  0  0  0  0  0  0  0  0
  -24.4001  -22.0755   20.7087 C   0  0  0  0  0  0  0  0  0  0  0  0
  -20.2159   -7.1157   21.2796 C   0  0  0  0  0  0  0  0  0  0  0  0
  -17.5607   -7.1182   20.4236 C   0  0  0  0  0  0  0  0  0  0  0  0
  -19.7775   -6.1595   20.3636 C   0  0  0  0  0  0  0  0  0  0  0  0
  -24.5890  -11.6918   20.7133 C   0  0  0  0  0  0  0  0  0  0  0  0
  -25.2975  -13.7646   20.5217 C   0  0  0  0  0  0  0  0  0  0  0  0
  -30.2780  -15.4834   21.6152 C   0  0  0  0  0  0  0  0  0  0  0  0
  -27.4076  -20.1900   20.0344 C   0  0  0  0  0  0  0  0  0  0  0  0
  -22.9659  -13.5648   21.4005 C   0  0  0  0  0  0  0  0  0  0  0  0
  -30.8365  -14.5400   20.6196 C   0  0  0  0  0  0  0  0  0  0  0  0
  -20.4128  -23.9791   23.8618 C   0  0  0  0  0  0  0  0  0  0  0  0
  -19.9024  -20.9399   24.8742 C   0  0  0  0  0  0  0  0  0  0  0  0
  -20.8039  -17.6512   24.7388 C   0  0  0  0  0  0  0  0  0  0  0  0
  -17.2746  -27.5378   25.7446 C   0  0  0  0  0  0  0  0  0  0  0  0
  -20.2580  -22.7386   21.6724 C   0  0  0  0  0  0  0  0  0  0  0  0
  -22.0346  -21.3593   23.5923 C   0  0  0  0  0  0  0  0  0  0  0  0
  -17.8824  -26.2355   26.2592 C   0  0  0  0  0  0  0  0  0  0  0  0
  -29.4992  -12.3892   18.0814 C   0  0  0  0  0  0  0  0  0  0  0  0
  -19.3849  -26.2074   25.9972 C   0  0  0  0  0  0  0  0  0  0  0  0
  -28.0837  -12.0954   18.5774 C   0  0  0  0  0  0  0  0  0  0  0  0
  -30.4794  -12.5295   19.2415 C   0  0  0  0  0  0  0  0  0  0  0  0
  -28.6559  -13.2638   20.7529 C   0  0  0  0  0  0  0  0  0  0  0  0
  -19.6842  -26.2724   24.4946 C   0  0  1  0  0  0  0  0  0  0  0  0
  -19.9648  -22.7230   23.1695 C   0  0  1  0  0  0  0  0  0  0  0  0
  -27.6322  -13.1428   19.6106 C   0  0  2  0  0  0  0  0  0  0  0  0
  -20.6824  -15.1835   25.1785 C   0  0  0  0  0  0  0  0  0  0  0  0
  -21.3145  -21.7004   27.4698 C   0  0  0  0  0  0  0  0  0  0  0  0
  -21.5525  -19.2596   27.9740 C   0  0  0  0  0  0  0  0  0  0  0  0
  -19.2825  -20.2732   27.7672 C   0  0  0  0  0  0  0  0  0  0  0  0
  -19.0413  -17.2043   22.4038 C   0  0  0  0  0  0  0  0  0  0  0  0
  -26.3288  -20.7080   20.9652 C   0  0  0  0  0  0  0  0  0  1  0  0
  -20.6847  -19.9392   25.6901 C   0  0  1  0  0  0  0  0  0  0  0  0
  -19.9805  -16.3872   24.5691 C   0  0  2  0  0  0  0  0  0  0  0  0
  -20.7189  -20.3040   27.2011 C   0  0  0  0  0  0  0  0  0  0  0  0
  -25.8316  -11.5780   20.2366 N   0  0  0  0  0  0  0  0  0  0  0  0
  -30.4884  -15.1668   22.8644 N   0  0  0  0  0  0  0  0  0  0  0  0
  -26.2358  -12.8553   20.1307 N   0  0  0  0  0  0  0  0  0  0  0  0
  -30.0032  -13.5042   20.2209 N   0  0  0  0  0  0  0  0  0  0  0  0
  -20.6074  -21.6027   23.8596 N   0  0  0  0  0  0  0  0  0  0  0  0
  -28.4964  -18.3508   18.0796 N   0  0  0  0  0  0  0  0  0  0  0  0
  -25.5391  -15.0921   20.4799 N   0  0  0  0  0  0  0  0  0  0  0  0
  -21.9463  -12.6707   21.7546 N   0  0  0  0  0  0  0  0  0  0  0  0
  -19.4621  -24.9818   23.8787 N   0  0  0  0  0  0  0  0  0  0  0  0
  -20.1007  -18.6333   25.4037 N   0  0  0  0  0  0  0  0  0  0  0  0
  -19.7457  -16.1121   23.1234 N   0  3  0  0  0  0  0  0  0  0  0  0
  -27.6758  -20.7578   18.9781 O   0  0  0  0  0  0  0  0  0  0  0  0
  -22.7644  -14.7985   21.5055 O   0  0  0  0  0  0  0  0  0  0  0  0
  -31.9803  -14.7760   20.2530 O   0  0  0  0  0  0  0  0  0  0  0  0
  -21.5371  -24.0340   24.3460 O   0  0  0  0  0  0  0  0  0  0  0  0
  -18.7079  -21.1213   25.1231 O   0  0  0  0  0  0  0  0  0  0  0  0
  -21.9570  -17.7554   24.3264 O   0  0  0  0  0  0  0  0  0  0  0  0
  -21.5334   -7.1153   21.7060 O   0  0  0  0  0  0  0  0  0  0  0  0
  -25.7082  -21.8620   20.4001 O   0  0  0  0  0  0  0  0  0  1  0  0
  -16.2855   -7.1186   20.0139 F   0  0  0  0  0  0  0  0  0  0  0  0
  -20.6269   -5.2364   19.8921 F   0  0  0  0  0  0  0  0  0  0  0  0
  1  2  1  0  0  0  0
  1  7  2  0  0  0  0
  2  8  2  0  0  0  0
  3 10  2  0  0  0  0
  3 18  1  0  0  0  0
  4 11  1  0  0  0  0
  4 18  2  0  0  0  0
  5  6  2  0  0  0  0
  5 19  1  0  0  0  0
  6 20  1  0  0  0  0
  7 22  1  0  0  0  0
  8 24  1  0  0  0  0
  9 12  2  0  0  0  0
  9 23  1  0  0  0  0
 10 27  1  0  0  0  0
 11 27  2  0  0  0  0
 12 28  1  0  0  0  0
 13 14  2  0  0  0  0
 13 29  1  0  0  0  0
 14 30  1  0  0  0  0
 15 19  2  0  0  0  0
 15 26  1  0  0  0  0
 16 25  1  0  0  0  0
 16 28  2  0  0  0  0
 17 30  2  0  0  0  0
 17 31  1  0  0  0  0
 18 32  1  0  0  0  0
 19 34  1  0  0  0  0
 20 26  2  0  0  0  0
 20 35  1  0  0  0  0
 21 32  1  0  0  0  0
 21 33  2  0  0  0  0
 21 36  1  0  0  0  0
 22 24  2  0  0  0  0
 22 41  1  0  0  0  0
 23 25  2  0  0  0  0
 23 42  1  0  0  0  0
 24 50  1  0  0  0  0
 25 43  1  0  0  0  0
 26 67  1  0  0  0  0
 27 79  1  0  0  0  0
 28 80  1  0  0  0  0
 29 31  2  0  0  0  0
 29 79  1  0  0  0  0
 30 81  1  0  0  0  0
 31 82  1  0  0  0  0
 32 62  2  0  0  0  0
 33 64  1  0  0  0  0
 33 68  1  0  0  0  0
 34 37  1  0  0  0  0
 34 63  2  0  0  0  0
 35 58  1  0  0  0  0
 35 73  2  0  0  0  0
 36 69  1  0  0  0  0
 36 74  2  0  0  0  0
 37 65  1  0  0  0  0
 37 75  2  0  0  0  0
 38 51  1  0  0  0  0
 38 70  1  0  0  0  0
 38 76  2  0  0  0  0
 39 59  1  0  0  0  0
 39 66  1  0  0  0  0
 39 77  2  0  0  0  0
 40 60  1  0  0  0  0
 40 71  1  0  0  0  0
 40 78  2  0  0  0  0
 41 44  1  0  0  0  0
 42 51  1  0  0  0  0
 43 66  1  0  0  0  0
 44 46  1  0  0  0  0
 45 47  1  0  0  0  0
 45 48  1  0  0  0  0
 46 50  1  0  0  0  0
 47 52  1  0  0  0  0
 48 65  1  0  0  0  0
 49 52  1  0  0  0  0
 49 65  1  0  0  0  0
 50 70  1  0  0  0  0
 51 66  1  0  0  0  0
 52 64  1  0  0  0  0
 53 60  1  0  0  0  0
 54 61  1  0  0  0  0
 55 61  1  0  0  0  0
 56 61  1  0  0  0  0
 57 72  1  0  0  0  0
 58 80  1  0  0  0  0
 59 61  1  0  0  0  0
 59 71  1  0  0  0  0
 60 72  1  0  0  0  0
 62 64  1  0  0  0  0
M  CHG  1  72   1
M  ISO  4  34 100  37 100  58 101  80 101
M  END
> <Batch ID>
0095

> <Smiles>
CNC(C)C(=O)NC(C(=O)N1Cc2cc([101O:1][101CH2:1]C(=O)c3ccc([100C:0](=N)[100C:0](=O)N4CCCC(n5nc(-c6ccc(Oc7ccc(F)cc7F)cc6)c(C(N)=O)c5N)C4)cc3N)ccc2CC1C(=O)NC1CCCc2ccccc21)C(C)(C)C

> <Shape>
0.218

> <Color>
0.188

> <Negative vol penalty>
0.000

$$$$

  -OEChem-04052300433D

 87 96  0     1  0  0  0  0  0999 V2000
  -31.5585  -35.1273   19.4566 C   0  0  0  0  0  0  0  0  0  0  0  0
  -31.0315  -34.0004   18.8338 C   0  0  0  0  0  0  0  0  0  0  0  0
  -24.5060   -9.6411   21.6563 C   0  0  0  0  0  0  0  0  0  0  0  0
  -24.7474  -10.8661   23.7247 C   0  0  0  0  0  0  0  0  0  0  0  0
  -31.3714  -35.3178   20.8250 C   0  0  0  0  0  0  0  0  0  0  0  0
  -30.3177  -33.0628   19.5794 C   0  0  0  0  0  0  0  0  0  0  0  0
  -24.8544  -28.4648   19.0084 C   0  0  0  0  0  0  0  0  0  0  0  0
  -24.1646   -8.4953   22.3747 C   0  0  0  0  0  0  0  0  0  0  0  0
  -24.4059   -9.7202   24.4431 C   0  0  0  0  0  0  0  0  0  0  0  0
  -24.5476  -27.1234   19.2330 C   0  0  0  0  0  0  0  0  0  0  0  0
  -22.8781   -5.3429   23.6485 C   0  0  0  0  0  0  0  0  0  0  0  0
  -21.7909   -4.5945   23.1973 C   0  0  0  0  0  0  0  0  0  0  0  0
  -24.2193  -27.5969   21.5755 C   0  0  0  0  0  0  0  0  0  0  0  0
  -29.9601  -19.7925   21.2227 C   0  0  0  0  0  0  0  0  0  0  0  0
  -20.3491   -6.5103   23.4937 C   0  0  0  0  0  0  0  0  0  0  0  0
  -24.7975  -10.8265   22.3313 C   0  0  0  0  0  0  0  0  0  0  0  0
  -24.2771  -13.0019   21.1047 C   0  0  0  0  0  0  0  0  0  0  0  0
  -30.6467  -34.3869   21.5859 C   0  0  0  0  0  0  0  0  0  0  0  0
  -24.8566  -29.3817   20.0694 C   0  0  0  0  0  0  0  0  0  0  0  0
  -30.1218  -33.2404   20.9595 C   0  0  0  0  0  0  0  0  0  0  0  0
  -24.5239  -28.9498   21.3613 C   0  0  0  0  0  0  0  0  0  0  0  0
  -27.6103  -21.2039   21.7413 C   0  0  0  0  0  0  0  0  0  0  0  0
  -30.0231  -21.1180   21.6525 C   0  0  0  0  0  0  0  0  0  0  0  0
  -28.7222  -19.1727   21.0521 C   0  0  0  0  0  0  0  0  0  0  0  0
  -28.8482  -21.8237   21.9118 C   0  0  0  0  0  0  0  0  0  0  0  0
  -24.1145   -8.5348   23.7681 C   0  0  0  0  0  0  0  0  0  0  0  0
  -24.2328  -26.6887   20.5171 C   0  0  0  0  0  0  0  0  0  0  0  0
  -22.7007   -6.6751   24.0224 C   0  0  0  0  0  0  0  0  0  0  0  0
  -20.5264   -5.1782   23.1199 C   0  0  0  0  0  0  0  0  0  0  0  0
  -21.4362   -7.2587   23.9450 C   0  0  0  0  0  0  0  0  0  0  0  0
  -27.5473  -19.8784   21.3114 C   0  0  0  0  0  0  0  0  0  0  0  0
  -25.1508  -12.0103   21.5898 C   0  0  0  0  0  0  0  0  0  0  0  0
  -25.0984  -13.9050   20.4751 C   0  0  0  0  0  0  0  0  0  0  0  0
  -25.9515  -23.0842   21.3645 C   0  0  0  0  0  0  0  0  0  0  0  0
  -22.8507  -13.0981   21.2136 C   0  0  0  0  0  0  0  0  0  0  0  0
  -27.0521  -31.2373   21.4259 C   0  0  0  0  0  0  0  0  0  0  0  0
  -24.5095  -32.3559   23.1012 C   0  0  0  0  0  0  0  0  0  0  0  0
  -21.3596  -31.8092   24.2954 C   0  0  0  0  0  0  0  0  0  0  0  0
  -29.7333  -16.9863   20.3149 C   0  0  0  0  0  0  0  0  0  0  0  0
  -30.5110  -34.6118   23.0711 C   0  0  0  0  0  0  0  0  0  0  0  0
  -25.1636  -30.8304   19.8060 C   0  0  0  0  0  0  0  0  0  0  0  0
  -24.4924  -29.8982   22.5309 C   0  0  0  0  0  0  0  0  0  0  0  0
  -29.4223  -33.7603   23.7191 C   0  0  0  0  0  0  0  0  0  0  0  0
  -29.9991  -13.6006   19.2455 C   0  0  0  0  0  0  0  0  0  0  0  0
  -29.5239  -32.3136   23.2463 C   0  0  0  0  0  0  0  0  0  0  0  0
  -28.6896  -12.9666   19.7202 C   0  0  0  0  0  0  0  0  0  0  0  0
  -24.5255  -22.6253   23.2139 C   0  0  0  0  0  0  0  0  0  0  0  0
  -30.5243  -14.6317   20.2429 C   0  0  0  0  0  0  0  0  0  0  0  0
  -25.4163  -21.4262   22.9578 C   0  0  0  0  0  0  0  0  0  0  0  0
  -28.2510  -15.0371   21.1014 C   0  0  0  0  0  0  0  0  0  0  0  0
  -29.3206  -32.2132   21.7297 C   0  0  1  0  0  0  0  0  0  0  0  0
  -24.5515  -23.3667   21.8852 C   0  0  1  0  0  0  0  0  0  0  0  0
  -25.6375  -31.5764   21.0495 C   0  0  1  0  0  0  0  0  0  0  0  0
  -27.6492  -14.0388   20.0989 C   0  0  2  0  0  0  0  0  0  0  0  0
  -19.5558  -32.8925   25.6629 C   0  0  0  0  0  0  0  0  0  0  0  0
  -26.0806  -31.7533   25.6465 C   0  0  0  0  0  0  0  0  0  0  0  0
  -23.9394  -31.9434   26.9300 C   0  0  0  0  0  0  0  0  0  0  0  0
  -24.8236  -33.9150   25.6836 C   0  0  0  0  0  0  0  0  0  0  0  0
  -19.4501  -31.7505   22.0351 C   0  0  0  0  0  0  0  0  0  0  0  0
  -24.2571  -24.8485   22.0234 C   0  0  0  0  0  0  0  0  0  1  0  0
  -23.8327  -31.9776   24.3965 C   0  0  1  0  0  0  0  0  0  0  0  0
  -20.1075  -32.6668   24.2638 C   0  0  2  0  0  0  0  0  0  0  0  0
  -24.6715  -32.3788   25.6427 C   0  0  0  0  0  0  0  0  0  0  0  0
  -26.4291  -12.2597   21.2936 N   0  0  0  0  0  0  0  0  0  0  0  0
  -26.3647  -13.4182   20.6155 N   0  0  0  0  0  0  0  0  0  0  0  0
  -26.3953  -21.9064   22.0005 N   0  0  0  0  0  0  0  0  0  0  0  0
  -24.8061  -31.3034   22.2235 N   0  0  0  0  0  0  0  0  0  0  0  0
  -29.4860  -15.6175   20.5512 N   0  0  0  0  0  0  0  0  0  0  0  0
  -31.2885  -21.7249   21.8181 N   0  0  0  0  0  0  0  0  0  0  0  0
  -28.9130  -23.1690   22.3480 N   0  0  0  0  0  0  0  0  0  0  0  0
  -24.8537  -15.0599   19.8204 N   0  0  0  0  0  0  0  0  0  0  0  0
  -22.1626  -12.0840   21.8936 N   0  0  0  0  0  0  0  0  0  0  0  0
  -28.6614  -17.8262   20.6152 N   0  0  0  0  0  0  0  0  0  0  0  0
  -27.9152  -32.3162   21.4003 N   0  0  0  0  0  0  0  0  0  0  0  0
  -22.5034  -32.5772   24.3527 N   0  0  0  0  0  0  0  0  0  0  0  0
  -19.0511  -32.0110   23.4422 N   0  3  0  0  0  0  0  0  0  0  0  0
  -26.4963  -23.7632   20.5063 O   0  0  0  0  0  0  0  0  0  0  0  0
  -22.2038  -14.0466   20.7083 O   0  0  0  0  0  0  0  0  0  0  0  0
  -27.3390  -30.0827   21.7194 O   0  0  0  0  0  0  0  0  0  0  0  0
  -24.7593  -33.5422   22.8733 O   0  0  0  0  0  0  0  0  0  0  0  0
  -21.3263  -30.5808   24.2754 O   0  0  0  0  0  0  0  0  0  0  0  0
  -30.8067  -17.3814   19.8525 O   0  0  0  0  0  0  0  0  0  0  0  0
  -23.7812   -7.4170   24.4694 O   0  0  0  0  0  0  0  0  0  0  0  0
  -23.9335  -25.3799   20.7392 O   0  0  0  0  0  0  0  0  0  1  0  0
  -19.4828   -4.4599   22.6851 F   0  0  0  0  0  0  0  0  0  0  0  0
  -21.2599   -8.5384   24.3016 F   0  0  0  0  0  0  0  0  0  0  0  0
  -26.3568  -19.2809   21.1470 F   0  0  0  0  0  0  0  0  0  0  0  0
  1  2  1  0  0  0  0
  1  5  2  0  0  0  0
  2  6  2  0  0  0  0
  3  8  2  0  0  0  0
  3 16  1  0  0  0  0
  4  9  1  0  0  0  0
  4 16  2  0  0  0  0
  5 18  1  0  0  0  0
  6 20  1  0  0  0  0
  7 10  2  0  0  0  0
  7 19  1  0  0  0  0
  8 26  1  0  0  0  0
  9 26  2  0  0  0  0
 10 27  1  0  0  0  0
 11 12  2  0  0  0  0
 11 28  1  0  0  0  0
 12 29  1  0  0  0  0
 13 21  1  0  0  0  0
 13 27  2  0  0  0  0
 14 23  1  0  0  0  0
 14 24  2  0  0  0  0
 15 29  2  0  0  0  0
 15 30  1  0  0  0  0
 16 32  1  0  0  0  0
 17 32  1  0  0  0  0
 17 33  2  0  0  0  0
 17 35  1  0  0  0  0
 18 20  2  0  0  0  0
 18 40  1  0  0  0  0
 19 21  2  0  0  0  0
 19 41  1  0  0  0  0
 20 51  1  0  0  0  0
 21 42  1  0  0  0  0
 22 25  1  0  0  0  0
 22 31  2  0  0  0  0
 22 66  1  0  0  0  0
 23 25  2  0  0  0  0
 23 69  1  0  0  0  0
 24 31  1  0  0  0  0
 24 73  1  0  0  0  0
 25 70  1  0  0  0  0
 26 83  1  0  0  0  0
 27 84  1  0  0  0  0
 28 30  2  0  0  0  0
 28 83  1  0  0  0  0
 29 85  1  0  0  0  0
 30 86  1  0  0  0  0
 31 87  1  0  0  0  0
 32 64  2  0  0  0  0
 33 65  1  0  0  0  0
 33 71  1  0  0  0  0
 34 52  1  0  0  0  0
 34 66  1  0  0  0  0
 34 77  2  0  0  0  0
 35 72  1  0  0  0  0
 35 78  2  0  0  0  0
 36 53  1  0  0  0  0
 36 74  1  0  0  0  0
 36 79  2  0  0  0  0
 37 61  1  0  0  0  0
 37 67  1  0  0  0  0
 37 80  2  0  0  0  0
 38 62  1  0  0  0  0
 38 75  1  0  0  0  0
 38 81  2  0  0  0  0
 39 68  1  0  0  0  0
 39 73  1  0  0  0  0
 39 82  2  0  0  0  0
 40 43  1  0  0  0  0
 41 53  1  0  0  0  0
 42 67  1  0  0  0  0
 43 45  1  0  0  0  0
 44 46  1  0  0  0  0
 44 48  1  0  0  0  0
 45 51  1  0  0  0  0
 46 54  1  0  0  0  0
 47 49  1  0  0  0  0
 47 52  1  0  0  0  0
 48 68  1  0  0  0  0
 49 66  1  0  0  0  0
 50 54  1  0  0  0  0
 50 68  1  0  0  0  0
 51 74  1  0  0  0  0
 52 60  1  0  0  0  0
 53 67  1  0  0  0  0
 54 65  1  0  0  0  0
 55 62  1  0  0  0  0
 56 63  1  0  0  0  0
 57 63  1  0  0  0  0
 58 63  1  0  0  0  0
 59 76  1  0  0  0  0
 60 84  1  0  0  0  0
 61 63  1  0  0  0  0
 61 75  1  0  0  0  0
 62 76  1  0  0  0  0
 64 65  1  0  0  0  0
M  CHG  1  76   1
M  ISO  4  39 100  60 101  73 100  84 101
M  END
> <Batch ID>
0095

> <Smiles>
CNC(C)C(=O)NC(C(=O)N1Cc2cc([101O:1][101CH2:1]C3CCN(c4c(N)c(N)cc([100NH:0][100C:0](=O)N5CCCC(n6nc(-c7ccc(Oc8ccc(F)cc8F)cc7)c(C(N)=O)c6N)C5)c4F)C3=O)ccc2CC1C(=O)NC1CCCc2ccccc21)C(C)(C)C

> <Shape>
0.260

> <Color>
0.109

> <Negative vol penalty>
0.000

$$$$

  -OEChem-04052300433D

 87 96  0     1  0  0  0  0  0999 V2000
  -16.5254  -27.5583   26.2700 C   0  0  0  0  0  0  0  0  0  0  0  0
  -16.8109  -26.3890   25.5722 C   0  0  0  0  0  0  0  0  0  0  0  0
  -28.1700  -16.9783   24.9670 C   0  0  0  0  0  0  0  0  0  0  0  0
  -26.7869  -17.7913   23.1605 C   0  0  0  0  0  0  0  0  0  0  0  0
  -17.0451  -28.7752   25.8309 C   0  0  0  0  0  0  0  0  0  0  0  0
  -17.6154  -26.4363   24.4343 C   0  0  0  0  0  0  0  0  0  0  0  0
  -24.2171  -22.5871   22.8130 C   0  0  0  0  0  0  0  0  0  0  0  0
  -27.0073  -17.6940   18.6743 C   0  0  0  0  0  0  0  0  0  0  0  0
  -26.3838  -16.5805   18.1112 C   0  0  0  0  0  0  0  0  0  0  0  0
  -27.3567  -17.6395   25.8873 C   0  0  0  0  0  0  0  0  0  0  0  0
  -25.9736  -18.4525   24.0808 C   0  0  0  0  0  0  0  0  0  0  0  0
  -25.4741  -22.0837   22.4774 C   0  0  0  0  0  0  0  0  0  0  0  0
  -26.9411  -20.7940   27.0280 C   0  0  0  0  0  0  0  0  0  0  0  0
  -27.5674  -21.5185   28.0420 C   0  0  0  0  0  0  0  0  0  0  0  0
  -25.8804  -24.0077   21.0697 C   0  0  0  0  0  0  0  0  0  0  0  0
  -29.1495  -16.8830   17.9059 C   0  0  0  0  0  0  0  0  0  0  0  0
  -26.4820  -20.1365   29.6999 C   0  0  0  0  0  0  0  0  0  0  0  0
  -27.8851  -17.0542   23.6036 C   0  0  0  0  0  0  0  0  0  0  0  0
  -30.1021  -16.5713   22.4376 C   0  0  0  0  0  0  0  0  0  0  0  0
  -17.8644  -28.8361   24.6926 C   0  0  0  0  0  0  0  0  0  0  0  0
  -23.7927  -23.8116   22.2897 C   0  0  0  0  0  0  0  0  0  0  0  0
  -18.1455  -27.6554   23.9788 C   0  0  0  0  0  0  0  0  0  0  0  0
  -24.6274  -24.5229   21.4122 C   0  0  0  0  0  0  0  0  0  0  0  0
  -28.3902  -17.8452   18.5715 C   0  0  0  0  0  0  0  0  0  0  0  0
  -27.1431  -15.6182   17.4456 C   0  0  0  0  0  0  0  0  0  0  0  0
  -28.5260  -15.7694   17.3429 C   0  0  0  0  0  0  0  0  0  0  0  0
  -26.2585  -18.3766   25.4442 C   0  0  0  0  0  0  0  0  0  0  0  0
  -26.3036  -22.7922   21.6077 C   0  0  0  0  0  0  0  0  0  0  0  0
  -26.0851  -19.7407   27.3499 C   0  0  0  0  0  0  0  0  0  0  0  0
  -27.3379  -21.1898   29.3780 C   0  0  0  0  0  0  0  0  0  0  0  0
  -25.8556  -19.4119   28.6859 C   0  0  0  0  0  0  0  0  0  0  0  0
  -28.7252  -16.3718   22.6524 C   0  0  0  0  0  0  0  0  0  0  0  0
  -30.4253  -15.6869   21.4376 C   0  0  0  0  0  0  0  0  0  0  0  0
  -30.3571  -18.9215   19.6312 C   0  0  0  0  0  0  0  0  0  0  0  0
  -31.0080  -17.4751   23.0842 C   0  0  0  0  0  0  0  0  0  0  0  0
  -21.0935  -26.4126   22.1302 C   0  0  0  0  0  0  0  0  0  0  0  0
  -23.7681  -27.9101   22.2489 C   0  0  0  0  0  0  0  0  0  0  0  0
  -26.2775  -30.1621   22.7675 C   0  0  0  0  0  0  0  0  0  0  0  0
  -26.7553  -13.1481   17.2472 C   0  0  0  0  0  0  0  0  0  0  0  0
  -18.3644  -30.1814   24.2291 C   0  0  0  0  0  0  0  0  0  0  0  0
  -22.4219  -24.3622   22.5753 C   0  0  0  0  0  0  0  0  0  0  0  0
  -24.1151  -25.8191   20.8462 C   0  0  0  0  0  0  0  0  0  0  0  0
  -31.0464  -20.2393   19.9308 C   0  0  0  0  0  0  0  0  0  0  0  0
  -19.5149  -30.0923   23.2298 C   0  0  0  0  0  0  0  0  0  0  0  0
  -30.1320  -21.3110   20.4824 C   0  0  0  0  0  0  0  0  0  0  0  0
  -29.1267  -11.4901   19.5538 C   0  0  0  0  0  0  0  0  0  0  0  0
  -19.2050  -29.0612   22.1493 C   0  0  0  0  0  0  0  0  0  0  0  0
  -29.3412  -12.5461   20.6366 C   0  0  0  0  0  0  0  0  0  0  0  0
  -27.7482  -11.6100   18.9110 C   0  0  0  0  0  0  0  0  0  0  0  0
  -28.1967  -20.1830   19.4215 C   0  0  0  0  0  0  0  0  0  0  0  0
  -27.6783  -14.0288   19.4457 C   0  0  0  0  0  0  0  0  0  0  0  0
  -19.0346  -27.6624   22.7542 C   0  0  1  0  0  0  0  0  0  0  0  0
  -22.3960  -25.8983   22.6691 C   0  0  1  0  0  0  0  0  0  0  0  0
  -28.9647  -21.4996   19.5276 C   0  0  1  0  0  0  0  0  0  0  0  0
  -29.0750  -13.9548   20.0807 C   0  0  1  0  0  0  0  0  0  0  0  0
  -26.8946  -32.5567   22.3406 C   0  0  0  0  0  0  0  0  0  0  0  0
  -24.3422  -27.2378   19.3296 C   0  0  0  0  0  0  0  0  0  0  0  0
  -25.7911  -29.2766   19.2189 C   0  0  0  0  0  0  0  0  0  0  0  0
  -23.3549  -29.5049   19.7037 C   0  0  0  0  0  0  0  0  0  0  0  0
  -25.6656  -14.6869   15.6735 C   0  0  0  0  0  0  0  0  0  0  0  0
  -26.4922  -30.7439   25.6614 C   0  0  0  0  0  0  0  0  0  0  0  0
  -28.0475  -22.6263   19.9987 C   0  0  0  0  0  0  0  0  0  1  0  0
  -24.8887  -28.5611   21.4782 C   0  0  1  0  0  0  0  0  0  0  0  0
  -26.2639  -31.5768   23.3177 C   0  0  2  0  0  0  0  0  0  0  0  0
  -24.5993  -28.6248   19.9519 C   0  0  0  0  0  0  0  0  0  0  0  0
  -28.2091  -15.4344   21.8530 N   0  0  0  0  0  0  0  0  0  0  0  0
  -29.2673  -15.0371   21.1262 N   0  0  0  0  0  0  0  0  0  0  0  0
  -29.0368  -19.0009   19.1557 N   0  0  0  0  0  0  0  0  0  0  0  0
  -23.4401  -26.5948   21.8986 N   0  0  0  0  0  0  0  0  0  0  0  0
  -27.4851  -12.9709   18.4405 N   0  0  0  0  0  0  0  0  0  0  0  0
  -29.3142  -14.8070   16.6727 N   0  0  0  0  0  0  0  0  0  0  0  0
  -31.5841  -15.4096   20.8031 N   0  0  0  0  0  0  0  0  0  0  0  0
  -30.5102  -18.3138   24.0908 N   0  0  0  0  0  0  0  0  0  0  0  0
  -20.3251  -27.0841   23.0618 N   0  0  0  0  0  0  0  0  0  0  0  0
  -25.1091  -29.8626   22.0994 N   0  0  0  0  0  0  0  0  0  0  0  0
  -26.4753  -14.4758   16.8714 N   0  0  0  0  0  0  0  0  0  0  0  0
  -27.0191  -31.6409   24.6009 N   0  3  0  0  0  0  0  0  0  0  0  0
  -31.0093  -17.8826   19.7653 O   0  0  0  0  0  0  0  0  0  0  0  0
  -32.2194  -17.5487   22.7672 O   0  0  0  0  0  0  0  0  0  0  0  0
  -20.8063  -26.2165   20.9552 O   0  0  0  0  0  0  0  0  0  0  0  0
  -23.1937  -28.5501   23.1343 O   0  0  0  0  0  0  0  0  0  0  0  0
  -27.2310  -29.4002   22.9125 O   0  0  0  0  0  0  0  0  0  0  0  0
  -26.3331  -12.1889   16.5897 O   0  0  0  0  0  0  0  0  0  0  0  0
  -25.4646  -19.0218   26.3420 O   0  0  0  0  0  0  0  0  0  0  0  0
  -27.5314  -22.2973   21.2878 O   0  0  0  0  0  0  0  0  0  1  0  0
  -27.9407  -21.8846   30.3516 F   0  0  0  0  0  0  0  0  0  0  0  0
  -25.0352  -18.4003   29.0013 F   0  0  0  0  0  0  0  0  0  0  0  0
  1  2  1  0  0  0  0
  1  5  2  0  0  0  0
  2  6  2  0  0  0  0
  3 10  2  0  0  0  0
  3 18  1  0  0  0  0
  4 11  1  0  0  0  0
  4 18  2  0  0  0  0
  5 20  1  0  0  0  0
  6 22  1  0  0  0  0
  7 12  2  0  0  0  0
  7 21  1  0  0  0  0
  8  9  2  0  0  0  0
  8 24  1  0  0  0  0
  9 25  1  0  0  0  0
 10 27  1  0  0  0  0
 11 27  2  0  0  0  0
 12 28  1  0  0  0  0
 13 14  2  0  0  0  0
 13 29  1  0  0  0  0
 14 30  1  0  0  0  0
 15 23  1  0  0  0  0
 15 28  2  0  0  0  0
 16 24  2  0  0  0  0
 16 26  1  0  0  0  0
 17 30  2  0  0  0  0
 17 31  1  0  0  0  0
 18 32  1  0  0  0  0
 19 32  1  0  0  0  0
 19 33  2  0  0  0  0
 19 35  1  0  0  0  0
 20 22  2  0  0  0  0
 20 40  1  0  0  0  0
 21 23  2  0  0  0  0
 21 41  1  0  0  0  0
 22 52  1  0  0  0  0
 23 42  1  0  0  0  0
 24 68  1  0  0  0  0
 25 26  2  0  0  0  0
 25 76  1  0  0  0  0
 26 71  1  0  0  0  0
 27 84  1  0  0  0  0
 28 85  1  0  0  0  0
 29 31  2  0  0  0  0
 29 84  1  0  0  0  0
 30 86  1  0  0  0  0
 31 87  1  0  0  0  0
 32 66  2  0  0  0  0
 33 67  1  0  0  0  0
 33 72  1  0  0  0  0
 34 43  1  0  0  0  0
 34 68  1  0  0  0  0
 34 78  2  0  0  0  0
 35 73  1  0  0  0  0
 35 79  2  0  0  0  0
 36 53  1  0  0  0  0
 36 74  1  0  0  0  0
 36 80  2  0  0  0  0
 37 63  1  0  0  0  0
 37 69  1  0  0  0  0
 37 81  2  0  0  0  0
 38 64  1  0  0  0  0
 38 75  1  0  0  0  0
 38 82  2  0  0  0  0
 39 70  1  0  0  0  0
 39 76  1  0  0  0  0
 39 83  2  0  0  0  0
 40 44  1  0  0  0  0
 41 53  1  0  0  0  0
 42 69  1  0  0  0  0
 43 45  1  0  0  0  0
 44 47  1  0  0  0  0
 45 54  1  0  0  0  0
 46 48  1  0  0  0  0
 46 49  1  0  0  0  0
 47 52  1  0  0  0  0
 48 55  1  0  0  0  0
 49 70  1  0  0  0  0
 50 54  1  0  0  0  0
 50 68  1  0  0  0  0
 51 55  1  0  0  0  0
 51 70  1  0  0  0  0
 52 74  1  0  0  0  0
 53 69  1  0  0  0  0
 54 62  1  0  0  0  0
 55 67  1  0  0  0  0
 56 64  1  0  0  0  0
 57 65  1  0  0  0  0
 58 65  1  0  0  0  0
 59 65  1  0  0  0  0
 60 76  1  0  0  0  0
 61 77  1  0  0  0  0
 62 85  1  0  0  0  0
 63 65  1  0  0  0  0
 63 75  1  0  0  0  0
 64 77  1  0  0  0  0
 66 67  1  0  0  0  0
M  CHG  1  77   1
M  ISO  4  39 100  62 101  76 100  85 101
M  END
> <Batch ID>
0095

> <Smiles>
CNC(C)C(=O)NC(C(=O)N1Cc2cc([101O:1][101CH2:1]C3CCC(=O)N(c4ccc([100N:0](C)[100C:0](=O)N5CCCC(n6nc(-c7ccc(Oc8ccc(F)cc8F)cc7)c(C(N)=O)c6N)C5)c(N)c4)C3)ccc2CC1C(=O)NC1CCCc2ccccc21)C(C)(C)C

> <Shape>
0.233

> <Color>
0.053

> <Negative vol penalty>
0.000

$$$$

  -OEChem-04052300433D

 84 92  0     1  0  0  0  0  0999 V2000
  -28.0895  -33.3949   19.5559 C   0  0  0  0  0  0  0  0  0  0  0  0
  -28.0295  -32.0321   19.8290 C   0  0  0  0  0  0  0  0  0  0  0  0
  -23.2307   -9.9875   20.9755 C   0  0  0  0  0  0  0  0  0  0  0  0
  -24.6708   -8.5785   22.3088 C   0  0  0  0  0  0  0  0  0  0  0  0
  -26.6987  -18.2701   20.8340 C   0  0  0  0  0  0  0  0  0  0  0  0
  -27.2252  -34.2739   20.2072 C   0  0  0  0  0  0  0  0  0  0  0  0
  -27.1058  -31.5476   20.7544 C   0  0  0  0  0  0  0  0  0  0  0  0
  -24.1436  -26.1917   20.5408 C   0  0  0  0  0  0  0  0  0  0  0  0
  -22.3430   -8.9243   20.8107 C   0  0  0  0  0  0  0  0  0  0  0  0
  -23.7831   -7.5152   22.1440 C   0  0  0  0  0  0  0  0  0  0  0  0
  -24.3745  -24.9666   21.1650 C   0  0  0  0  0  0  0  0  0  0  0  0
  -20.8358   -6.5073   23.4548 C   0  0  0  0  0  0  0  0  0  0  0  0
  -20.5168   -5.7508   24.5823 C   0  0  0  0  0  0  0  0  0  0  0  0
  -25.7802  -19.0100   21.5786 C   0  0  0  0  0  0  0  0  0  0  0  0
  -28.4662  -19.7623   21.5315 C   0  0  0  0  0  0  0  0  0  0  0  0
  -22.8030  -25.5595   22.8965 C   0  0  0  0  0  0  0  0  0  0  0  0
  -21.3986   -3.7754   23.5064 C   0  0  0  0  0  0  0  0  0  0  0  0
  -24.3946   -9.8146   21.7245 C   0  0  0  0  0  0  0  0  0  0  0  0
  -28.0417  -18.6462   20.8105 C   0  0  0  0  0  0  0  0  0  0  0  0
  -25.3045  -11.8756   22.9213 C   0  0  0  0  0  0  0  0  0  0  0  0
  -26.2838  -33.7988   21.1339 C   0  0  0  0  0  0  0  0  0  0  0  0
  -23.2474  -27.1160   21.0965 C   0  0  0  0  0  0  0  0  0  0  0  0
  -26.2289  -32.4212   21.4197 C   0  0  0  0  0  0  0  0  0  0  0  0
  -22.5606  -26.7946   22.2760 C   0  0  0  0  0  0  0  0  0  0  0  0
  -27.5476  -20.5022   22.2761 C   0  0  0  0  0  0  0  0  0  0  0  0
  -22.6192   -7.6882   21.3950 C   0  0  0  0  0  0  0  0  0  0  0  0
  -23.7063  -24.6515   22.3446 C   0  0  0  0  0  0  0  0  0  0  0  0
  -21.4362   -5.8979   22.3530 C   0  0  0  0  0  0  0  0  0  0  0  0
  -20.7981   -4.3848   24.6082 C   0  0  0  0  0  0  0  0  0  0  0  0
  -21.7176   -4.5320   22.3789 C   0  0  0  0  0  0  0  0  0  0  0  0
  -26.2046  -20.1260   22.2997 C   0  0  0  0  0  0  0  0  0  0  0  0
  -25.3123  -10.9124   21.8946 C   0  0  0  0  0  0  0  0  0  0  0  0
  -26.3709  -12.6922   22.6340 C   0  0  0  0  0  0  0  0  0  0  0  0
  -29.0192  -17.8570   20.0177 C   0  0  0  0  0  0  0  0  0  0  0  0
  -24.4132  -12.0192   24.0350 C   0  0  0  0  0  0  0  0  0  0  0  0
  -23.4933  -30.0743   22.2330 C   0  0  0  0  0  0  0  0  0  0  0  0
  -20.2636  -29.8487   22.4333 C   0  0  0  0  0  0  0  0  0  0  0  0
  -17.5088  -27.8495   22.6810 C   0  0  0  0  0  0  0  0  0  0  0  0
  -29.4554  -15.6109   19.0752 C   0  0  0  0  0  0  0  0  0  0  0  0
  -25.4024  -34.7928   21.8479 C   0  0  0  0  0  0  0  0  0  0  0  0
  -22.9894  -28.4221   20.3966 C   0  0  0  0  0  0  0  0  0  0  0  0
  -21.5731  -27.7438   22.9024 C   0  0  0  0  0  0  0  0  0  0  0  0
  -24.1990  -34.1549   22.5371 C   0  0  0  0  0  0  0  0  0  0  0  0
  -30.1329  -12.1477   19.2866 C   0  0  0  0  0  0  0  0  0  0  0  0
  -24.6272  -32.9210   23.3251 C   0  0  0  0  0  0  0  0  0  0  0  0
  -28.9430  -11.5945   20.0756 C   0  0  0  0  0  0  0  0  0  0  0  0
  -29.7103  -13.2607   18.3286 C   0  0  0  0  0  0  0  0  0  0  0  0
  -27.7564  -13.7976   19.7258 C   0  0  0  0  0  0  0  0  0  0  0  0
  -25.2238  -31.8544   22.3988 C   0  0  1  0  0  0  0  0  0  0  0  0
  -22.4414  -29.5002   21.3265 C   0  0  1  0  0  0  0  0  0  0  0  0
  -28.1412  -12.7227   20.7551 C   0  0  1  0  0  0  0  0  0  0  0  0
  -15.0082  -27.9551   22.8636 C   0  0  0  0  0  0  0  0  0  0  0  0
  -20.5141  -30.6567   25.3649 C   0  0  0  0  0  0  0  0  0  0  0  0
  -18.1764  -29.8336   25.7193 C   0  0  0  0  0  0  0  0  0  0  0  0
  -18.6068  -31.7228   24.1483 C   0  0  0  0  0  0  0  0  0  0  0  0
  -17.1451  -26.3623   20.1483 C   0  0  0  0  0  0  0  0  0  0  0  0
  -24.8645  -22.5719   22.3333 C   0  0  0  0  0  0  0  0  0  1  0  0
  -19.2878  -29.3799   23.4855 C   0  0  1  0  0  0  0  0  0  0  0  0
  -16.1955  -27.8453   21.9196 C   0  0  2  0  0  0  0  0  0  0  0  0
  -19.1663  -30.3810   24.6690 C   0  0  0  0  0  0  0  0  0  0  0  0
  -26.3047  -11.0986   21.0203 N   0  0  0  0  0  0  0  0  0  0  0  0
  -26.9305  -12.1883   21.4968 N   0  0  0  0  0  0  0  0  0  0  0  0
  -21.3598  -29.0109   22.1838 N   0  0  0  0  0  0  0  0  0  0  0  0
  -28.9654  -14.2934   19.0510 N   0  0  0  0  0  0  0  0  0  0  0  0
  -28.0018  -21.6282   22.9980 N   0  0  0  0  0  0  0  0  0  0  0  0
  -26.8749  -13.7850   23.2456 N   0  0  0  0  0  0  0  0  0  0  0  0
  -23.3712  -11.0932   24.1807 N   0  0  0  0  0  0  0  0  0  0  0  0
  -28.6951  -16.5135   19.8271 N   0  0  0  0  0  0  0  0  0  0  0  0
  -24.1727  -31.1508   21.6954 N   0  0  0  0  0  0  0  0  0  0  0  0
  -18.0315  -29.1208   22.7907 N   0  0  0  0  0  0  0  0  0  0  0  0
  -16.0563  -26.5867   21.1338 N   0  3  0  0  0  0  0  0  0  0  0  0
  -30.0070  -18.4203   19.5543 O   0  0  0  0  0  0  0  0  0  0  0  0
  -24.5271  -12.9510   24.8671 O   0  0  0  0  0  0  0  0  0  0  0  0
  -23.6741  -29.5782   23.3389 O   0  0  0  0  0  0  0  0  0  0  0  0
  -20.0568  -30.9152   21.8491 O   0  0  0  0  0  0  0  0  0  0  0  0
  -18.0180  -26.8278   23.1364 O   0  0  0  0  0  0  0  0  0  0  0  0
  -30.5000  -15.9467   18.5084 O   0  0  0  0  0  0  0  0  0  0  0  0
  -25.5862  -21.3357   24.5281 O   0  0  0  0  0  0  0  0  0  0  0  0
  -23.7528  -20.3211   23.1288 O   0  0  0  0  0  0  0  0  0  0  0  0
  -21.7531   -6.6505   21.2346 O   0  0  0  0  0  0  0  0  0  0  0  0
  -23.9302  -23.4567   22.9563 O   0  0  0  0  0  0  0  0  0  1  0  0
  -20.4931   -3.6587   25.6917 F   0  0  0  0  0  0  0  0  0  0  0  0
  -22.2954   -3.9412   21.3239 F   0  0  0  0  0  0  0  0  0  0  0  0
  -25.0102  -21.0360   23.2314 S   0  0  0  0  0  0  0  0  0  0  0  0
  1  2  1  0  0  0  0
  1  6  2  0  0  0  0
  2  7  2  0  0  0  0
  3  9  2  0  0  0  0
  3 18  1  0  0  0  0
  4 10  1  0  0  0  0
  4 18  2  0  0  0  0
  5 14  2  0  0  0  0
  5 19  1  0  0  0  0
  6 21  1  0  0  0  0
  7 23  1  0  0  0  0
  8 11  2  0  0  0  0
  8 22  1  0  0  0  0
  9 26  1  0  0  0  0
 10 26  2  0  0  0  0
 11 27  1  0  0  0  0
 12 13  2  0  0  0  0
 12 28  1  0  0  0  0
 13 29  1  0  0  0  0
 14 31  1  0  0  0  0
 15 19  2  0  0  0  0
 15 25  1  0  0  0  0
 16 24  1  0  0  0  0
 16 27  2  0  0  0  0
 17 29  2  0  0  0  0
 17 30  1  0  0  0  0
 18 32  1  0  0  0  0
 19 34  1  0  0  0  0
 20 32  1  0  0  0  0
 20 33  2  0  0  0  0
 20 35  1  0  0  0  0
 21 23  2  0  0  0  0
 21 40  1  0  0  0  0
 22 24  2  0  0  0  0
 22 41  1  0  0  0  0
 23 49  1  0  0  0  0
 24 42  1  0  0  0  0
 25 31  2  0  0  0  0
 25 65  1  0  0  0  0
 26 80  1  0  0  0  0
 27 81  1  0  0  0  0
 28 30  2  0  0  0  0
 28 80  1  0  0  0  0
 29 82  1  0  0  0  0
 30 83  1  0  0  0  0
 31 84  1  0  0  0  0
 32 61  2  0  0  0  0
 33 62  1  0  0  0  0
 33 66  1  0  0  0  0
 34 68  1  0  0  0  0
 34 72  2  0  0  0  0
 35 67  1  0  0  0  0
 35 73  2  0  0  0  0
 36 50  1  0  0  0  0
 36 69  1  0  0  0  0
 36 74  2  0  0  0  0
 37 58  1  0  0  0  0
 37 63  1  0  0  0  0
 37 75  2  0  0  0  0
 38 59  1  0  0  0  0
 38 70  1  0  0  0  0
 38 76  2  0  0  0  0
 39 64  1  0  0  0  0
 39 68  1  0  0  0  0
 39 77  2  0  0  0  0
 40 43  1  0  0  0  0
 41 50  1  0  0  0  0
 42 63  1  0  0  0  0
 43 45  1  0  0  0  0
 44 46  1  0  0  0  0
 44 47  1  0  0  0  0
 45 49  1  0  0  0  0
 46 51  1  0  0  0  0
 47 64  1  0  0  0  0
 48 51  1  0  0  0  0
 48 64  1  0  0  0  0
 49 69  1  0  0  0  0
 50 63  1  0  0  0  0
 51 62  1  0  0  0  0
 52 59  1  0  0  0  0
 53 60  1  0  0  0  0
 54 60  1  0  0  0  0
 55 60  1  0  0  0  0
 56 71  1  0  0  0  0
 57 81  1  0  0  0  0
 57 84  1  0  0  0  0
 58 60  1  0  0  0  0
 58 70  1  0  0  0  0
 59 71  1  0  0  0  0
 61 62  1  0  0  0  0
 78 84  2  0  0  0  0
 79 84  2  0  0  0  0
M  CHG  1  71   1
M  ISO  4  39 100  57 101  68 100  81 101
M  END
> <Batch ID>
0095

> <Smiles>
CNC(C)C(=O)NC(C(=O)N1Cc2cc([101O:1][101CH2:1]S(=O)(=O)c3ccc(C(=O)[100NH:0][100C:0](=O)N4CCCC(n5nc(-c6ccc(Oc7ccc(F)cc7F)cc6)c(C(N)=O)c5N)C4)cc3N)ccc2CC1C(=O)NC1CCCc2ccccc21)C(C)(C)C

> <Shape>
0.278

> <Color>
0.088

> <Negative vol penalty>
0.000

$$$$

  -OEChem-04052300433D

 86 95  0     1  0  0  0  0  0999 V2000
  -31.9096  -12.5728   17.1367 C   0  0  0  0  0  0  0  0  0  0  0  0
  -31.4551  -13.8794   16.9897 C   0  0  0  0  0  0  0  0  0  0  0  0
  -21.6327  -26.5871   22.3530 C   0  0  0  0  0  0  0  0  0  0  0  0
  -20.0524  -28.4093   22.4917 C   0  0  0  0  0  0  0  0  0  0  0  0
  -31.2686  -11.7086   18.0233 C   0  0  0  0  0  0  0  0  0  0  0  0
  -30.3586  -14.3223   17.7285 C   0  0  0  0  0  0  0  0  0  0  0  0
  -29.4697  -19.9449   19.9873 C   0  0  0  0  0  0  0  0  0  0  0  0
  -28.0292  -28.5518   20.6551 C   0  0  0  0  0  0  0  0  0  0  0  0
  -28.5199  -29.6096   21.4205 C   0  0  0  0  0  0  0  0  0  0  0  0
  -20.5863  -25.6712   22.4624 C   0  0  0  0  0  0  0  0  0  0  0  0
  -19.0060  -27.4935   22.6011 C   0  0  0  0  0  0  0  0  0  0  0  0
  -28.7274  -21.0329   19.5300 C   0  0  0  0  0  0  0  0  0  0  0  0
  -18.3647  -22.8565   23.0669 C   0  0  0  0  0  0  0  0  0  0  0  0
  -18.5328  -21.7781   23.9354 C   0  0  0  0  0  0  0  0  0  0  0  0
  -26.8929  -20.3700   20.9494 C   0  0  0  0  0  0  0  0  0  0  0  0
  -27.4970  -27.3372   22.6747 C   0  0  0  0  0  0  0  0  0  0  0  0
  -18.8104  -23.3097   25.7832 C   0  0  0  0  0  0  0  0  0  0  0  0
  -21.3657  -27.9561   22.3677 C   0  0  0  0  0  0  0  0  0  0  0  0
  -22.9755  -29.4520   21.0721 C   0  0  0  0  0  0  0  0  0  0  0  0
  -30.1697  -12.1439   18.7806 C   0  0  0  0  0  0  0  0  0  0  0  0
  -28.9242  -19.0536   20.9224 C   0  0  0  0  0  0  0  0  0  0  0  0
  -29.7015  -13.4627   18.6252 C   0  0  0  0  0  0  0  0  0  0  0  0
  -27.6313  -19.2729   21.4188 C   0  0  0  0  0  0  0  0  0  0  0  0
  -27.5177  -27.4156   21.2822 C   0  0  0  0  0  0  0  0  0  0  0  0
  -28.4991  -29.5312   22.8130 C   0  0  0  0  0  0  0  0  0  0  0  0
  -19.2730  -26.1244   22.5864 C   0  0  0  0  0  0  0  0  0  0  0  0
  -27.4378  -21.2439   20.0089 C   0  0  0  0  0  0  0  0  0  0  0  0
  -18.4195  -24.1615   23.5564 C   0  0  0  0  0  0  0  0  0  0  0  0
  -18.7557  -22.0047   25.2936 C   0  0  0  0  0  0  0  0  0  0  0  0
  -27.9877  -28.3951   23.4401 C   0  0  0  0  0  0  0  0  0  0  0  0
  -18.6423  -24.3881   24.9146 C   0  0  0  0  0  0  0  0  0  0  0  0
  -22.4463  -28.9026   22.2553 C   0  0  0  0  0  0  0  0  0  0  0  0
  -23.9769  -30.2889   21.5001 C   0  0  0  0  0  0  0  0  0  0  0  0
  -26.4934  -25.1773   20.8810 C   0  0  0  0  0  0  0  0  0  0  0  0
  -22.5959  -29.2260   19.7081 C   0  0  0  0  0  0  0  0  0  0  0  0
  -28.2279  -15.9522   20.9238 C   0  0  0  0  0  0  0  0  0  0  0  0
  -27.5674  -16.4999   24.0521 C   0  0  0  0  0  0  0  0  0  0  0  0
  -26.6922  -18.7321   26.4807 C   0  0  0  0  0  0  0  0  0  0  0  0
  -28.4886  -30.9116   24.8842 C   0  0  0  0  0  0  0  0  0  0  0  0
  -29.4799  -11.1594   19.6913 C   0  0  0  0  0  0  0  0  0  0  0  0
  -29.7478  -17.9000   21.4256 C   0  0  0  0  0  0  0  0  0  0  0  0
  -27.0074  -18.3568   22.4386 C   0  0  0  0  0  0  0  0  0  0  0  0
  -28.5576  -11.8183   20.7138 C   0  0  0  0  0  0  0  0  0  0  0  0
  -25.1670  -31.9317   26.1238 C   0  0  0  0  0  0  0  0  0  0  0  0
  -27.6799  -12.8693   20.0418 C   0  0  0  0  0  0  0  0  0  0  0  0
  -24.2129  -31.2217   25.1649 C   0  0  0  0  0  0  0  0  0  0  0  0
  -26.4714  -31.1600   26.3005 C   0  0  0  0  0  0  0  0  0  0  0  0
  -27.1905  -26.0695   19.1101 C   0  0  0  0  0  0  0  0  0  0  0  0
  -26.2123  -30.1441   24.0575 C   0  0  0  0  0  0  0  0  0  0  0  0
  -28.5305  -13.9875   19.4273 C   0  0  1  0  0  0  0  0  0  0  0  0
  -26.5608  -24.6870   19.4179 C   0  0  1  0  0  0  0  0  0  0  0  0
  -28.9018  -16.7645   21.9933 C   0  0  1  0  0  0  0  0  0  0  0  0
  -24.9062  -30.9187   23.8253 C   0  0  1  0  0  0  0  0  0  0  0  0
  -31.4719  -30.4991   23.5376 C   0  0  0  0  0  0  0  0  0  0  0  0
  -26.1905  -18.8765   28.9353 C   0  0  0  0  0  0  0  0  0  0  0  0
  -24.8272  -15.2500   23.5631 C   0  0  0  0  0  0  0  0  0  0  0  0
  -24.0570  -16.2646   25.7185 C   0  0  0  0  0  0  0  0  0  0  0  0
  -25.9051  -14.5892   25.7208 C   0  0  0  0  0  0  0  0  0  0  0  0
  -28.9366  -20.6039   26.9475 C   0  0  0  0  0  0  0  0  0  0  0  0
  -27.4350  -23.4717   19.1765 C   0  0  0  0  0  0  0  0  0  1  0  0
  -30.2380  -31.2949   23.1630 C   0  0  0  0  0  0  0  0  0  0  0  0
  -26.3413  -16.9144   24.8292 C   0  0  1  0  0  0  0  0  0  0  0  0
  -27.2630  -18.9917   27.8632 C   0  0  2  0  0  0  0  0  0  0  0  0
  -25.2934  -15.7709   24.9372 C   0  0  0  0  0  0  0  0  0  0  0  0
  -23.0607  -29.3526   23.3525 N   0  0  0  0  0  0  0  0  0  0  0  0
  -23.9864  -30.1935   22.8606 N   0  0  0  0  0  0  0  0  0  0  0  0
  -27.0342  -26.3716   20.5272 N   0  0  0  0  0  0  0  0  0  0  0  0
  -27.8503  -17.2394   22.8950 N   0  0  0  0  0  0  0  0  0  0  0  0
  -27.0865  -30.8453   25.0104 N   0  0  0  0  0  0  0  0  0  0  0  0
  -24.8415  -31.0898   20.8417 N   0  0  0  0  0  0  0  0  0  0  0  0
  -21.5464  -28.3349   19.4455 N   0  0  0  0  0  0  0  0  0  0  0  0
  -28.9880  -14.8975   20.4555 N   0  0  0  0  0  0  0  0  0  0  0  0
  -26.8210  -17.4088   26.1153 N   0  0  0  0  0  0  0  0  0  0  0  0
  -29.0082  -30.6277   23.6027 N   0  0  0  0  0  0  0  0  0  0  0  0
  -27.8515  -20.3591   27.9322 N   0  3  0  0  0  0  0  0  0  0  0  0
  -26.1485  -24.7091   21.9420 O   0  0  0  0  0  0  0  0  0  0  0  0
  -23.1810  -29.7848   18.7496 O   0  0  0  0  0  0  0  0  0  0  0  0
  -27.1011  -16.2586   20.5522 O   0  0  0  0  0  0  0  0  0  0  0  0
  -28.2529  -15.5593   24.4607 O   0  0  0  0  0  0  0  0  0  0  0  0
  -26.1798  -19.6141   25.7952 O   0  0  0  0  0  0  0  0  0  0  0  0
  -29.2149  -31.2287   25.8337 O   0  0  0  0  0  0  0  0  0  0  0  0
  -18.2516  -25.2311   22.6930 O   0  0  0  0  0  0  0  0  0  0  0  0
  -26.7108  -22.3047   19.5638 O   0  0  0  0  0  0  0  0  0  1  0  0
  -18.9156  -20.9690   26.1278 F   0  0  0  0  0  0  0  0  0  0  0  0
  -27.9641  -28.3081   24.7779 F   0  0  0  0  0  0  0  0  0  0  0  0
  -18.6948  -25.6396   25.3910 F   0  0  0  0  0  0  0  0  0  0  0  0
  1  2  1  0  0  0  0
  1  5  2  0  0  0  0
  2  6  2  0  0  0  0
  3 10  2  0  0  0  0
  3 18  1  0  0  0  0
  4 11  1  0  0  0  0
  4 18  2  0  0  0  0
  5 20  1  0  0  0  0
  6 22  1  0  0  0  0
  7 12  2  0  0  0  0
  7 21  1  0  0  0  0
  8  9  2  0  0  0  0
  8 24  1  0  0  0  0
  9 25  1  0  0  0  0
 10 26  1  0  0  0  0
 11 26  2  0  0  0  0
 12 27  1  0  0  0  0
 13 14  2  0  0  0  0
 13 28  1  0  0  0  0
 14 29  1  0  0  0  0
 15 23  1  0  0  0  0
 15 27  2  0  0  0  0
 16 24  2  0  0  0  0
 16 30  1  0  0  0  0
 17 29  2  0  0  0  0
 17 31  1  0  0  0  0
 18 32  1  0  0  0  0
 19 32  1  0  0  0  0
 19 33  2  0  0  0  0
 19 35  1  0  0  0  0
 20 22  2  0  0  0  0
 20 40  1  0  0  0  0
 21 23  2  0  0  0  0
 21 41  1  0  0  0  0
 22 50  1  0  0  0  0
 23 42  1  0  0  0  0
 24 67  1  0  0  0  0
 25 30  2  0  0  0  0
 25 74  1  0  0  0  0
 26 82  1  0  0  0  0
 27 83  1  0  0  0  0
 28 31  2  0  0  0  0
 28 82  1  0  0  0  0
 29 84  1  0  0  0  0
 30 85  1  0  0  0  0
 31 86  1  0  0  0  0
 32 65  2  0  0  0  0
 33 66  1  0  0  0  0
 33 70  1  0  0  0  0
 34 51  1  0  0  0  0
 34 67  1  0  0  0  0
 34 76  2  0  0  0  0
 35 71  1  0  0  0  0
 35 77  2  0  0  0  0
 36 52  1  0  0  0  0
 36 72  1  0  0  0  0
 36 78  2  0  0  0  0
 37 62  1  0  0  0  0
 37 68  1  0  0  0  0
 37 79  2  0  0  0  0
 38 63  1  0  0  0  0
 38 73  1  0  0  0  0
 38 80  2  0  0  0  0
 39 69  1  0  0  0  0
 39 74  1  0  0  0  0
 39 81  2  0  0  0  0
 40 43  1  0  0  0  0
 41 52  1  0  0  0  0
 42 68  1  0  0  0  0
 43 45  1  0  0  0  0
 44 46  1  0  0  0  0
 44 47  1  0  0  0  0
 45 50  1  0  0  0  0
 46 53  1  0  0  0  0
 47 69  1  0  0  0  0
 48 51  1  0  0  0  0
 48 67  1  0  0  0  0
 49 53  1  0  0  0  0
 49 69  1  0  0  0  0
 50 72  1  0  0  0  0
 51 60  1  0  0  0  0
 52 68  1  0  0  0  0
 53 66  1  0  0  0  0
 54 61  1  0  0  0  0
 55 63  1  0  0  0  0
 56 64  1  0  0  0  0
 57 64  1  0  0  0  0
 58 64  1  0  0  0  0
 59 75  1  0  0  0  0
 60 83  1  0  0  0  0
 61 74  1  0  0  0  0
 62 64  1  0  0  0  0
 62 73  1  0  0  0  0
 63 75  1  0  0  0  0
 65 66  1  0  0  0  0
M  CHG  1  75   1
M  ISO  4  39 100  60 101  74 100  83 101
M  END
> <Batch ID>
0095

> <Smiles>
CC[100N:0](c1ccc(N2CC([101CH2:1][101O:1]c3ccc4c(c3)CN(C(=O)C(NC(=O)C(C)NC)C(C)(C)C)C(C(=O)NC3CCCc5ccccc53)C4)C2=O)cc1F)[100C:0](=O)N1CCCC(n2nc(-c3ccc(Oc4ccc(F)cc4F)cc3)c(C(N)=O)c2N)C1

> <Shape>
0.241

> <Color>
0.037

> <Negative vol penalty>
0.000

$$$$

  -OEChem-04052300433D

 86 94  0     1  0  0  0  0  0999 V2000
  -29.7402  -34.6080   26.2067 C   0  0  0  0  0  0  0  0  0  0  0  0
  -29.2916  -33.3444   25.8361 C   0  0  0  0  0  0  0  0  0  0  0  0
  -24.2820   -8.5132   20.4022 C   0  0  0  0  0  0  0  0  0  0  0  0
  -22.9307  -10.4411   20.9448 C   0  0  0  0  0  0  0  0  0  0  0  0
  -29.4391  -20.1548   20.2314 C   0  0  0  0  0  0  0  0  0  0  0  0
  -28.8374  -35.6659   26.3052 C   0  0  0  0  0  0  0  0  0  0  0  0
  -27.9395  -33.1377   25.5647 C   0  0  0  0  0  0  0  0  0  0  0  0
  -27.1967  -30.3922   21.3747 C   0  0  0  0  0  0  0  0  0  0  0  0
  -29.4982  -18.7968   20.5441 C   0  0  0  0  0  0  0  0  0  0  0  0
  -23.2775   -7.6736   20.8836 C   0  0  0  0  0  0  0  0  0  0  0  0
  -21.9262   -9.6015   21.4262 C   0  0  0  0  0  0  0  0  0  0  0  0
  -27.3797  -29.0138   21.4760 C   0  0  0  0  0  0  0  0  0  0  0  0
  -22.1544   -6.6011   23.8857 C   0  0  0  0  0  0  0  0  0  0  0  0
  -22.5355   -5.5423   24.7099 C   0  0  0  0  0  0  0  0  0  0  0  0
  -28.1364  -19.6447   18.2617 C   0  0  0  0  0  0  0  0  0  0  0  0
  -24.9921  -28.7157   21.6493 C   0  0  0  0  0  0  0  0  0  0  0  0
  -21.6000   -3.9742   23.1278 C   0  0  0  0  0  0  0  0  0  0  0  0
  -24.1086   -9.8969   20.4329 C   0  0  0  0  0  0  0  0  0  0  0  0
  -28.7582  -20.5788   19.0902 C   0  0  0  0  0  0  0  0  0  0  0  0
  -25.2980  -11.2417   18.6206 C   0  0  0  0  0  0  0  0  0  0  0  0
  -27.4752  -35.4743   26.0255 C   0  0  0  0  0  0  0  0  0  0  0  0
  -25.9086  -30.9445   21.4211 C   0  0  0  0  0  0  0  0  0  0  0  0
  -27.0174  -34.1937   25.6608 C   0  0  0  0  0  0  0  0  0  0  0  0
  -24.7953  -30.1012   21.5459 C   0  0  0  0  0  0  0  0  0  0  0  0
  -28.8764  -17.8627   19.7156 C   0  0  0  0  0  0  0  0  0  0  0  0
  -22.0996   -8.2177   21.3955 C   0  0  0  0  0  0  0  0  0  0  0  0
  -26.2775  -28.1755   21.6162 C   0  0  0  0  0  0  0  0  0  0  0  0
  -21.4961   -6.3465   22.6826 C   0  0  0  0  0  0  0  0  0  0  0  0
  -22.2583   -4.2288   24.3309 C   0  0  0  0  0  0  0  0  0  0  0  0
  -28.1955  -18.2866   18.5744 C   0  0  0  0  0  0  0  0  0  0  0  0
  -21.2189   -5.0331   22.3036 C   0  0  0  0  0  0  0  0  0  0  0  0
  -25.1461  -10.7648   19.9363 C   0  0  0  0  0  0  0  0  0  0  0  0
  -26.4276  -12.0217   18.6664 C   0  0  0  0  0  0  0  0  0  0  0  0
  -27.0661  -26.1825   20.6798 C   0  0  0  0  0  0  0  0  0  1  0  0
  -28.6950  -22.0169   18.7584 C   0  0  0  0  0  0  0  0  0  0  0  0
  -24.4901  -11.0014   17.4607 C   0  0  0  0  0  0  0  0  0  0  0  0
  -27.2901  -24.8637   20.6713 C   0  0  0  0  0  0  0  0  0  0  0  0
  -27.9625  -24.2696   19.4919 C   0  0  0  0  0  0  0  0  0  0  0  0
  -24.4008  -32.9603   23.3619 C   0  0  0  0  0  0  0  0  0  0  0  0
  -22.0522  -32.7347   21.1357 C   0  0  0  0  0  0  0  0  0  0  0  0
  -20.5992  -30.9302   18.6299 C   0  0  0  0  0  0  0  0  0  0  0  0
  -29.5731  -15.8989   21.1314 C   0  0  0  0  0  0  0  0  0  0  0  0
  -26.5294  -36.6373   26.1913 C   0  0  0  0  0  0  0  0  0  0  0  0
  -25.7263  -32.4312   21.2837 C   0  0  0  0  0  0  0  0  0  0  0  0
  -23.3903  -30.6425   21.5805 C   0  0  0  0  0  0  0  0  0  0  0  0
  -25.1742  -36.4204   25.5232 C   0  0  0  0  0  0  0  0  0  0  0  0
  -29.9206  -12.5506   22.2914 C   0  0  0  0  0  0  0  0  0  0  0  0
  -24.6301  -35.0350   25.8569 C   0  0  0  0  0  0  0  0  0  0  0  0
  -28.7219  -11.8268   21.6739 C   0  0  0  0  0  0  0  0  0  0  0  0
  -29.5685  -13.9777   22.7075 C   0  0  0  0  0  0  0  0  0  0  0  0
  -27.7614  -14.0757   21.0360 C   0  0  0  0  0  0  0  0  0  0  0  0
  -25.5625  -33.9355   25.3343 C   0  0  1  0  0  0  0  0  0  0  0  0
  -24.4035  -32.9268   21.8597 C   0  0  1  0  0  0  0  0  0  0  0  0
  -28.0847  -12.6562   20.5418 C   0  0  2  0  0  0  0  0  0  0  0  0
  -18.6711  -30.9863   17.0246 C   0  0  0  0  0  0  0  0  0  0  0  0
  -20.1471  -31.9969   23.4020 C   0  0  0  0  0  0  0  0  0  0  0  0
  -18.5357  -31.1559   21.6802 C   0  0  0  0  0  0  0  0  0  0  0  0
  -19.1903  -33.5629   21.7031 C   0  0  0  0  0  0  0  0  0  0  0  0
  -22.4014  -30.8832   16.2828 C   0  0  0  0  0  0  0  0  0  0  0  0
  -20.8609  -31.8315   20.9263 C   0  0  1  0  0  0  0  0  0  0  0  0
  -20.1374  -31.3278   17.2395 C   0  0  2  0  0  0  0  0  0  0  0  0
  -19.7100  -32.1264   21.9292 C   0  0  0  0  0  0  0  0  0  0  0  0
  -26.1029  -11.2047   20.7580 N   0  0  0  0  0  0  0  0  0  0  0  0
  -26.8668  -11.9663   19.9564 N   0  0  0  0  0  0  0  0  0  0  0  0
  -23.2644  -32.1035   21.4489 N   0  0  0  0  0  0  0  0  0  0  0  0
  -28.9737  -14.7043   21.5836 N   0  0  0  0  0  0  0  0  0  0  0  0
  -27.0782  -12.7426   17.7285 N   0  0  0  0  0  0  0  0  0  0  0  0
  -23.3650  -10.1756   17.5896 N   0  0  0  0  0  0  0  0  0  0  0  0
  -28.9383  -16.4839   20.0362 N   0  0  0  0  0  0  0  0  0  0  0  0
  -28.1255  -22.8453   19.6451 N   0  0  0  0  0  0  0  0  0  0  0  0
  -25.3868  -33.7593   23.9086 N   0  0  0  0  0  0  0  0  0  0  0  0
  -20.4827  -31.9730   19.5244 N   0  0  0  0  0  0  0  0  0  0  0  0
  -29.2114  -22.4083   17.5939 N   0  3  0  0  0  0  0  0  0  0  0  0
  -20.9416  -30.6191   16.2042 N   0  3  0  0  0  0  0  0  0  0  0  0
  -24.7673  -11.4908   16.3395 O   0  0  0  0  0  0  0  0  0  0  0  0
  -28.3429  -24.8740   18.5026 O   0  0  0  0  0  0  0  0  0  0  0  0
  -23.5650  -32.3106   23.9792 O   0  0  0  0  0  0  0  0  0  0  0  0
  -21.9140  -33.9549   21.0185 O   0  0  0  0  0  0  0  0  0  0  0  0
  -21.0177  -29.8058   18.8966 O   0  0  0  0  0  0  0  0  0  0  0  0
  -30.5916  -16.3538   21.6583 O   0  0  0  0  0  0  0  0  0  0  0  0
  -26.9247  -24.0325   21.7073 O   0  0  0  0  0  0  0  0  0  0  0  0
  -21.1191   -7.3988   21.8651 O   0  0  0  0  0  0  0  0  0  0  0  0
  -26.4533  -26.8298   21.7158 O   0  0  0  0  0  0  0  0  0  1  0  0
  -22.6256   -3.2121   25.1217 F   0  0  0  0  0  0  0  0  0  0  0  0
  -27.5954  -17.3975   17.7702 F   0  0  0  0  0  0  0  0  0  0  0  0
  -20.5877   -4.7822   21.1484 F   0  0  0  0  0  0  0  0  0  0  0  0
  1  2  1  0  0  0  0
  1  6  2  0  0  0  0
  2  7  2  0  0  0  0
  3 10  2  0  0  0  0
  3 18  1  0  0  0  0
  4 11  1  0  0  0  0
  4 18  2  0  0  0  0
  5  9  2  0  0  0  0
  5 19  1  0  0  0  0
  6 21  1  0  0  0  0
  7 23  1  0  0  0  0
  8 12  2  0  0  0  0
  8 22  1  0  0  0  0
  9 25  1  0  0  0  0
 10 26  1  0  0  0  0
 11 26  2  0  0  0  0
 12 27  1  0  0  0  0
 13 14  2  0  0  0  0
 13 28  1  0  0  0  0
 14 29  1  0  0  0  0
 15 19  2  0  0  0  0
 15 30  1  0  0  0  0
 16 24  1  0  0  0  0
 16 27  2  0  0  0  0
 17 29  2  0  0  0  0
 17 31  1  0  0  0  0
 18 32  1  0  0  0  0
 19 35  1  0  0  0  0
 20 32  1  0  0  0  0
 20 33  2  0  0  0  0
 20 36  1  0  0  0  0
 21 23  2  0  0  0  0
 21 43  1  0  0  0  0
 22 24  2  0  0  0  0
 22 44  1  0  0  0  0
 23 52  1  0  0  0  0
 24 45  1  0  0  0  0
 25 30  2  0  0  0  0
 25 69  1  0  0  0  0
 26 82  1  0  0  0  0
 27 83  1  0  0  0  0
 28 31  2  0  0  0  0
 28 82  1  0  0  0  0
 29 84  1  0  0  0  0
 30 85  1  0  0  0  0
 31 86  1  0  0  0  0
 32 63  2  0  0  0  0
 33 64  1  0  0  0  0
 33 67  1  0  0  0  0
 34 37  2  0  0  0  0
 34 83  1  0  0  0  0
 35 70  1  0  0  0  0
 35 73  2  0  0  0  0
 36 68  1  0  0  0  0
 36 75  2  0  0  0  0
 37 38  1  0  0  0  0
 37 81  1  0  0  0  0
 38 70  1  0  0  0  0
 38 76  2  0  0  0  0
 39 53  1  0  0  0  0
 39 71  1  0  0  0  0
 39 77  2  0  0  0  0
 40 60  1  0  0  0  0
 40 65  1  0  0  0  0
 40 78  2  0  0  0  0
 41 61  1  0  0  0  0
 41 72  1  0  0  0  0
 41 79  2  0  0  0  0
 42 66  1  0  0  0  0
 42 69  1  0  0  0  0
 42 80  2  0  0  0  0
 43 46  1  0  0  0  0
 44 53  1  0  0  0  0
 45 65  1  0  0  0  0
 46 48  1  0  0  0  0
 47 49  1  0  0  0  0
 47 50  1  0  0  0  0
 48 52  1  0  0  0  0
 49 54  1  0  0  0  0
 50 66  1  0  0  0  0
 51 54  1  0  0  0  0
 51 66  1  0  0  0  0
 52 71  1  0  0  0  0
 53 65  1  0  0  0  0
 54 64  1  0  0  0  0
 55 61  1  0  0  0  0
 56 62  1  0  0  0  0
 57 62  1  0  0  0  0
 58 62  1  0  0  0  0
 59 74  1  0  0  0  0
 60 62  1  0  0  0  0
 60 72  1  0  0  0  0
 61 74  1  0  0  0  0
 63 64  1  0  0  0  0
M  CHG  2  73   1  74   1
M  ISO  4  34 101  42 100  69 100  83 101
M  END
> <Batch ID>
0095

> <Smiles>
CNC(C)C(=O)NC(C(=O)N1Cc2cc([101O:1][101CH2:1]C(=O)C(=O)NC(=N)c3ccc([100NH:0][100C:0](=O)N4CCCC(n5nc(-c6ccc(Oc7ccc(F)cc7F)cc6)c(C(N)=O)c5N)C4)c(F)c3)ccc2CC1C(=O)NC1CCCc2ccccc21)C(C)(C)C

> <Shape>
0.280

> <Color>
0.098

> <Negative vol penalty>
0.000

$$$$

  -OEChem-04052300433D

 86 94  0     1  0  0  0  0  0999 V2000
  -28.7806  -10.9579   20.2669 C   0  0  0  0  0  0  0  0  0  0  0  0
  -28.9863  -12.2957   19.9453 C   0  0  0  0  0  0  0  0  0  0  0  0
  -20.8847  -27.0168   22.4150 C   0  0  0  0  0  0  0  0  0  0  0  0
  -19.5865  -29.0334   22.7070 C   0  0  0  0  0  0  0  0  0  0  0  0
  -31.0692  -27.1726   22.9128 C   0  0  0  0  0  0  0  0  0  0  0  0
  -27.4847  -10.4779   20.4517 C   0  0  0  0  0  0  0  0  0  0  0  0
  -27.8961  -13.1540   19.8073 C   0  0  0  0  0  0  0  0  0  0  0  0
  -28.6202  -17.6015   22.1182 C   0  0  0  0  0  0  0  0  0  0  0  0
  -31.2767  -26.2876   21.8548 C   0  0  0  0  0  0  0  0  0  0  0  0
  -19.7251  -26.2520   22.5410 C   0  0  0  0  0  0  0  0  0  0  0  0
  -18.4268  -28.2686   22.8330 C   0  0  0  0  0  0  0  0  0  0  0  0
  -29.4272  -18.5334   21.4671 C   0  0  0  0  0  0  0  0  0  0  0  0
  -17.0551  -23.7877   22.4254 C   0  0  0  0  0  0  0  0  0  0  0  0
  -16.8622  -22.7477   21.5162 C   0  0  0  0  0  0  0  0  0  0  0  0
  -27.4566  -19.6820   20.6816 C   0  0  0  0  0  0  0  0  0  0  0  0
  -16.9033  -24.3333   19.6937 C   0  0  0  0  0  0  0  0  0  0  0  0
  -20.8155  -28.4075   22.4980 C   0  0  0  0  0  0  0  0  0  0  0  0
  -29.9449  -27.9983   22.9212 C   0  0  0  0  0  0  0  0  0  0  0  0
  -22.5612  -29.7229   21.1828 C   0  0  0  0  0  0  0  0  0  0  0  0
  -26.3785  -11.3330   20.3254 C   0  0  0  0  0  0  0  0  0  0  0  0
  -27.2230  -17.6967   22.0468 C   0  0  0  0  0  0  0  0  0  0  0  0
  -26.5841  -12.6847   19.9893 C   0  0  0  0  0  0  0  0  0  0  0  0
  -26.6342  -18.7514   21.3349 C   0  0  0  0  0  0  0  0  0  0  0  0
  -30.3600  -26.2283   20.8051 C   0  0  0  0  0  0  0  0  0  0  0  0
  -29.2358  -27.0540   20.8135 C   0  0  0  0  0  0  0  0  0  0  0  0
  -18.4961  -26.8779   22.7499 C   0  0  0  0  0  0  0  0  0  0  0  0
  -28.8455  -19.5722   20.7462 C   0  0  0  0  0  0  0  0  0  0  0  0
  -17.1720  -25.1006   21.9688 C   0  0  0  0  0  0  0  0  0  0  0  0
  -16.7863  -23.0204   20.1504 C   0  0  0  0  0  0  0  0  0  0  0  0
  -17.0962  -25.3733   20.6030 C   0  0  0  0  0  0  0  0  0  0  0  0
  -29.0283  -27.9390   21.8715 C   0  0  0  0  0  0  0  0  0  0  0  0
  -22.0131  -29.1981   22.3685 C   0  0  0  0  0  0  0  0  0  0  0  0
  -23.6894  -30.3908   21.5923 C   0  0  0  0  0  0  0  0  0  0  0  0
  -29.7284  -28.9370   24.0520 C   0  0  0  0  0  0  0  0  0  0  0  0
  -22.0925  -29.6162   19.8320 C   0  0  0  0  0  0  0  0  0  0  0  0
  -24.9037  -15.8440   20.9101 C   0  0  0  0  0  0  0  0  0  0  0  0
  -22.9848  -18.0820   22.2635 C   0  0  0  0  0  0  0  0  0  0  0  0
  -30.2304  -22.8190   19.9165 C   0  0  0  0  0  0  0  0  0  0  0  0
  -22.6041  -21.2906   23.3618 C   0  0  0  0  0  0  0  0  0  0  0  0
  -27.9751  -30.0444   25.4023 C   0  0  0  0  0  0  0  0  0  0  0  0
  -24.9939  -10.7576   20.4880 C   0  0  0  0  0  0  0  0  0  0  0  0
  -26.3665  -16.6988   22.7770 C   0  0  0  0  0  0  0  0  0  0  0  0
  -25.1391  -18.9098   21.2442 C   0  0  0  0  0  0  0  0  0  0  0  0
  -23.9141  -11.8172   20.6919 C   0  0  0  0  0  0  0  0  0  0  0  0
  -25.2651  -32.2593   25.8991 C   0  0  0  0  0  0  0  0  0  0  0  0
  -24.0778  -12.9476   19.6809 C   0  0  0  0  0  0  0  0  0  0  0  0
  -24.2029  -31.7561   24.9178 C   0  0  0  0  0  0  0  0  0  0  0  0
  -26.0423  -31.1070   26.5340 C   0  0  0  0  0  0  0  0  0  0  0  0
  -25.5642  -29.6501   24.6087 C   0  0  0  0  0  0  0  0  0  0  0  0
  -25.4284  -13.6525   19.8552 C   0  0  1  0  0  0  0  0  0  0  0  0
  -24.9540  -16.5957   22.2101 C   0  0  1  0  0  0  0  0  0  0  0  0
  -24.8018  -30.7750   23.8901 C   0  0  1  0  0  0  0  0  0  0  0  0
  -20.9106  -22.8351   24.3836 C   0  0  0  0  0  0  0  0  0  0  0  0
  -21.6017  -18.3520   19.5571 C   0  0  0  0  0  0  0  0  0  0  0  0
  -20.6117  -20.5082   20.3565 C   0  0  0  0  0  0  0  0  0  0  0  0
  -20.0579  -18.3748   21.5245 C   0  0  0  0  0  0  0  0  0  0  0  0
  -24.2668  -21.7053   25.7748 C   0  0  0  0  0  0  0  0  0  0  0  0
  -30.6081  -25.2658   19.6799 C   0  0  0  0  0  0  0  0  0  0  0  0
  -29.1091  -21.8033   19.9661 C   0  0  0  0  0  0  0  0  0  1  0  0
  -22.3623  -19.3773   21.8013 C   0  0  1  0  0  0  0  0  0  0  0  0
  -22.0395  -21.8527   24.6540 C   0  0  2  0  0  0  0  0  0  0  0  0
  -21.1866  -19.1493   20.8098 C   0  0  0  0  0  0  0  0  0  0  0  0
  -22.7338  -29.5060   23.4501 N   0  0  0  0  0  0  0  0  0  0  0  0
  -23.7463  -30.2314   22.9456 N   0  0  0  0  0  0  0  0  0  0  0  0
  -24.3444  -17.9053   21.9700 N   0  0  0  0  0  0  0  0  0  0  0  0
  -26.5847  -30.2301   25.4947 N   0  0  0  0  0  0  0  0  0  0  0  0
  -28.2983  -27.0045   19.7584 N   0  0  0  0  0  0  0  0  0  0  0  0
  -24.6283  -31.0930   20.9231 N   0  0  0  0  0  0  0  0  0  0  0  0
  -20.9166  -28.8937   19.5880 N   0  0  0  0  0  0  0  0  0  0  0  0
  -28.3959  -29.2230   24.3505 N   0  0  0  0  0  0  0  0  0  0  0  0
  -25.3867  -14.5517   20.9884 N   0  0  0  0  0  0  0  0  0  0  0  0
  -29.7471  -24.1084   19.7587 N   0  0  0  0  0  0  0  0  0  0  0  0
  -21.9921  -20.1063   23.0096 N   0  0  0  0  0  0  0  0  0  0  0  0
  -23.1043  -22.5597   25.4203 N   0  3  0  0  0  0  0  0  0  0  0  0
  -30.7003  -29.3651   24.6684 O   0  0  0  0  0  0  0  0  0  0  0  0
  -22.7073  -30.1320   18.8680 O   0  0  0  0  0  0  0  0  0  0  0  0
  -24.4582  -16.3951   19.9103 O   0  0  0  0  0  0  0  0  0  0  0  0
  -22.2920  -17.2604   22.8690 O   0  0  0  0  0  0  0  0  0  0  0  0
  -31.4145  -22.5062   20.0065 O   0  0  0  0  0  0  0  0  0  0  0  0
  -23.4959  -21.8485   22.7263 O   0  0  0  0  0  0  0  0  0  0  0  0
  -28.7756  -30.5928   26.1664 O   0  0  0  0  0  0  0  0  0  0  0  0
  -17.3643  -26.1319   22.8727 O   0  0  0  0  0  0  0  0  0  0  0  0
  -29.6308  -20.4828   20.1091 O   0  0  0  0  0  0  0  0  0  1  0  0
  -16.6026  -22.0214   19.2772 F   0  0  0  0  0  0  0  0  0  0  0  0
  -17.2090  -26.6324   20.1583 F   0  0  0  0  0  0  0  0  0  0  0  0
  -27.9466  -28.7330   21.8806 F   0  0  0  0  0  0  0  0  0  0  0  0
  1  2  1  0  0  0  0
  1  6  2  0  0  0  0
  2  7  2  0  0  0  0
  3 10  2  0  0  0  0
  3 17  1  0  0  0  0
  4 11  1  0  0  0  0
  4 17  2  0  0  0  0
  5  9  2  0  0  0  0
  5 18  1  0  0  0  0
  6 20  1  0  0  0  0
  7 22  1  0  0  0  0
  8 12  2  0  0  0  0
  8 21  1  0  0  0  0
  9 24  1  0  0  0  0
 10 26  1  0  0  0  0
 11 26  2  0  0  0  0
 12 27  1  0  0  0  0
 13 14  2  0  0  0  0
 13 28  1  0  0  0  0
 14 29  1  0  0  0  0
 15 23  1  0  0  0  0
 15 27  2  0  0  0  0
 16 29  2  0  0  0  0
 16 30  1  0  0  0  0
 17 32  1  0  0  0  0
 18 31  2  0  0  0  0
 18 34  1  0  0  0  0
 19 32  1  0  0  0  0
 19 33  2  0  0  0  0
 19 35  1  0  0  0  0
 20 22  2  0  0  0  0
 20 41  1  0  0  0  0
 21 23  2  0  0  0  0
 21 42  1  0  0  0  0
 22 50  1  0  0  0  0
 23 43  1  0  0  0  0
 24 25  2  0  0  0  0
 24 58  1  0  0  0  0
 25 31  1  0  0  0  0
 25 67  1  0  0  0  0
 26 82  1  0  0  0  0
 27 83  1  0  0  0  0
 28 30  2  0  0  0  0
 28 82  1  0  0  0  0
 29 84  1  0  0  0  0
 30 85  1  0  0  0  0
 31 86  1  0  0  0  0
 32 63  2  0  0  0  0
 33 64  1  0  0  0  0
 33 68  1  0  0  0  0
 34 70  1  0  0  0  0
 34 75  2  0  0  0  0
 35 69  1  0  0  0  0
 35 76  2  0  0  0  0
 36 51  1  0  0  0  0
 36 71  1  0  0  0  0
 36 77  2  0  0  0  0
 37 60  1  0  0  0  0
 37 65  1  0  0  0  0
 37 78  2  0  0  0  0
 38 59  1  0  0  0  0
 38 72  1  0  0  0  0
 38 79  2  0  0  0  0
 39 61  1  0  0  0  0
 39 73  1  0  0  0  0
 39 80  2  0  0  0  0
 40 66  1  0  0  0  0
 40 70  1  0  0  0  0
 40 81  2  0  0  0  0
 41 44  1  0  0  0  0
 42 51  1  0  0  0  0
 43 65  1  0  0  0  0
 44 46  1  0  0  0  0
 45 47  1  0  0  0  0
 45 48  1  0  0  0  0
 46 50  1  0  0  0  0
 47 52  1  0  0  0  0
 48 66  1  0  0  0  0
 49 52  1  0  0  0  0
 49 66  1  0  0  0  0
 50 71  1  0  0  0  0
 51 65  1  0  0  0  0
 52 64  1  0  0  0  0
 53 61  1  0  0  0  0
 54 62  1  0  0  0  0
 55 62  1  0  0  0  0
 56 62  1  0  0  0  0
 57 74  1  0  0  0  0
 58 72  1  0  0  0  0
 59 83  1  0  0  0  0
 60 62  1  0  0  0  0
 60 73  1  0  0  0  0
 61 74  1  0  0  0  0
 63 64  1  0  0  0  0
M  CHG  1  74   1
M  ISO  4  40 100  59 101  70 100  83 101
M  END
> <Batch ID>
0095

> <Smiles>
CNC(C)C(=O)NC(C(=O)N1Cc2cc([101O:1][101CH2:1]C(=O)NCc3ccc(C(=O)[100NH:0][100C:0](=O)N4CCCC(n5nc(-c6ccc(Oc7ccc(F)cc7F)cc6)c(C(N)=O)c5N)C4)c(F)c3N)ccc2CC1C(=O)NC1CCCc2ccccc21)C(C)(C)C

> <Shape>
0.275

> <Color>
0.079

> <Negative vol penalty>
0.000

$$$$

  -OEChem-04052300433D

 84 92  0     1  0  0  0  0  0999 V2000
  -21.8312  -11.7442   21.2029 C   0  0  0  0  0  0  0  0  0  0  0  0
  -21.7021  -13.0758   21.5846 C   0  0  0  0  0  0  0  0  0  0  0  0
  -31.0116  -27.1704   22.6465 C   0  0  0  0  0  0  0  0  0  0  0  0
  -29.9392  -25.1359   21.9063 C   0  0  0  0  0  0  0  0  0  0  0  0
  -23.0808  -11.2416   20.8424 C   0  0  0  0  0  0  0  0  0  0  0  0
  -22.8227  -13.9052   21.6072 C   0  0  0  0  0  0  0  0  0  0  0  0
  -21.9282  -18.4362   19.5298 C   0  0  0  0  0  0  0  0  0  0  0  0
  -31.7849  -26.4358   23.5454 C   0  0  0  0  0  0  0  0  0  0  0  0
  -30.7125  -24.4012   22.8052 C   0  0  0  0  0  0  0  0  0  0  0  0
  -21.2338  -19.3653   20.3033 C   0  0  0  0  0  0  0  0  0  0  0  0
  -32.6607  -21.9474   24.6495 C   0  0  0  0  0  0  0  0  0  0  0  0
  -33.2468  -20.7684   24.1892 C   0  0  0  0  0  0  0  0  0  0  0  0
  -23.3165  -20.4456   20.8644 C   0  0  0  0  0  0  0  0  0  0  0  0
  -19.1168  -28.7740   22.6210 C   0  0  0  0  0  0  0  0  0  0  0  0
  -18.4291  -26.8097   23.8479 C   0  0  0  0  0  0  0  0  0  0  0  0
  -19.6794  -26.5748   21.7940 C   0  0  0  0  0  0  0  0  0  0  0  0
  -34.4559  -22.0229   22.5154 C   0  0  0  0  0  0  0  0  0  0  0  0
  -30.0886  -26.5204   21.8270 C   0  0  0  0  0  0  0  0  0  0  0  0
  -29.6072  -27.5963   19.5646 C   0  0  0  0  0  0  0  0  0  0  0  0
  -24.2156  -12.0678   20.8513 C   0  0  0  0  0  0  0  0  0  0  0  0
  -23.3253  -18.4983   19.4265 C   0  0  0  0  0  0  0  0  0  0  0  0
  -24.0889  -13.4129   21.2478 C   0  0  0  0  0  0  0  0  0  0  0  0
  -24.0260  -19.5175   20.0870 C   0  0  0  0  0  0  0  0  0  0  0  0
  -18.4708  -28.1975   23.7146 C   0  0  0  0  0  0  0  0  0  0  0  0
  -19.7211  -27.9627   21.6607 C   0  0  0  0  0  0  0  0  0  0  0  0
  -19.0334  -25.9983   22.8876 C   0  0  0  0  0  0  0  0  0  0  0  0
  -31.6354  -25.0512   23.6247 C   0  0  0  0  0  0  0  0  0  0  0  0
  -21.9282  -20.3685   20.9730 C   0  0  0  0  0  0  0  0  0  0  0  0
  -32.9721  -23.1642   24.0428 C   0  0  0  0  0  0  0  0  0  0  0  0
  -34.1444  -20.8061   23.1222 C   0  0  0  0  0  0  0  0  0  0  0  0
  -33.8697  -23.2020   22.9757 C   0  0  0  0  0  0  0  0  0  0  0  0
  -29.2891  -27.2788   20.8987 C   0  0  0  0  0  0  0  0  0  0  0  0
  -28.5313  -28.3245   19.1191 C   0  0  0  0  0  0  0  0  0  0  0  0
  -30.7712  -27.2626   18.7968 C   0  0  0  0  0  0  0  0  0  0  0  0
  -25.7208  -16.5610   20.2091 C   0  0  0  0  0  0  0  0  0  0  0  0
  -27.5111  -18.7965   18.6860 C   0  0  0  0  0  0  0  0  0  0  0  0
  -19.5370  -23.6383   22.1657 C   0  0  0  0  0  0  0  0  0  0  0  0
  -27.8330  -22.0280   17.6371 C   0  0  0  0  0  0  0  0  0  0  0  0
  -22.8688  -28.3982   20.7883 C   0  0  0  0  0  0  0  0  0  0  0  0
  -25.5535  -11.4673   20.4990 C   0  0  0  0  0  0  0  0  0  0  0  0
  -24.0571  -17.5045   18.5666 C   0  0  0  0  0  0  0  0  0  0  0  0
  -25.5241  -19.6401   19.9921 C   0  0  0  0  0  0  0  0  0  0  0  0
  -26.6260  -12.5086   20.1894 C   0  0  0  0  0  0  0  0  0  0  0  0
  -25.0868  -31.2560   20.6842 C   0  0  0  0  0  0  0  0  0  0  0  0
  -26.6200  -13.6109   21.2438 C   0  0  0  0  0  0  0  0  0  0  0  0
  -26.4547  -30.5764   20.5998 C   0  0  0  0  0  0  0  0  0  0  0  0
  -24.1389  -30.4794   21.5934 C   0  0  0  0  0  0  0  0  0  0  0  0
  -25.3232  -28.3680   21.1314 C   0  0  0  0  0  0  0  0  0  0  0  0
  -25.2767  -14.3504   21.2612 C   0  0  1  0  0  0  0  0  0  0  0  0
  -25.5267  -17.3531   18.9471 C   0  0  1  0  0  0  0  0  0  0  0  0
  -26.3201  -29.0927   20.2089 C   0  0  2  0  0  0  0  0  0  0  0  0
  -17.8246  -29.0651   24.7412 C   0  0  0  0  0  0  0  0  0  0  0  0
  -29.4236  -23.5653   16.4521 C   0  0  0  0  0  0  0  0  0  0  0  0
  -29.2302  -18.9531   21.2020 C   0  0  0  0  0  0  0  0  0  0  0  0
  -30.1669  -21.1104   20.3435 C   0  0  0  0  0  0  0  0  0  0  0  0
  -30.5142  -19.0019   19.0564 C   0  0  0  0  0  0  0  0  0  0  0  0
  -25.8911  -22.5528   15.4662 C   0  0  0  0  0  0  0  0  0  0  0  0
  -20.4119  -28.5793   20.4915 C   0  0  0  0  0  0  0  0  0  0  0  0
  -19.2618  -22.2320   22.6857 C   0  0  0  0  0  0  0  0  0  0  0  0
  -19.8337  -21.1419   21.7921 C   0  0  0  0  0  0  0  0  0  1  0  0
  -28.2199  -20.0631   19.1012 C   0  0  1  0  0  0  0  0  0  0  0  0
  -28.2448  -22.6167   16.2998 C   0  0  2  0  0  0  0  0  0  0  0  0
  -29.5047  -19.7789   19.9293 C   0  0  0  0  0  0  0  0  0  0  0  0
  -28.1039  -27.7656   21.2761 N   0  0  0  0  0  0  0  0  0  0  0  0
  -27.6679  -28.3964   20.1725 N   0  0  0  0  0  0  0  0  0  0  0  0
  -26.1951  -18.6409   19.1442 N   0  0  0  0  0  0  0  0  0  0  0  0
  -24.0409  -29.0796   21.1560 N   0  0  0  0  0  0  0  0  0  0  0  0
  -28.2490  -28.9040   17.9330 N   0  0  0  0  0  0  0  0  0  0  0  0
  -31.7816  -26.5083   19.4086 N   0  0  0  0  0  0  0  0  0  0  0  0
  -18.9912  -24.5902   23.0228 N   0  0  0  0  0  0  0  0  0  0  0  0
  -25.1987  -15.2827   20.1570 N   0  0  0  0  0  0  0  0  0  0  0  0
  -28.4537  -20.8202   17.8763 N   0  0  0  0  0  0  0  0  0  0  0  0
  -21.6962  -29.1415   20.8456 N   0  0  0  0  0  0  0  0  0  0  0  0
  -27.1105  -23.3701   15.6942 N   0  3  0  0  0  0  0  0  0  0  0  0
  -30.9184  -27.6368   17.6085 O   0  0  0  0  0  0  0  0  0  0  0  0
  -26.3026  -17.0714   21.1593 O   0  0  0  0  0  0  0  0  0  0  0  0
  -28.1007  -17.9787   17.9752 O   0  0  0  0  0  0  0  0  0  0  0  0
  -20.1589  -23.8406   21.1281 O   0  0  0  0  0  0  0  0  0  0  0  0
  -27.0428  -22.5858   18.3954 O   0  0  0  0  0  0  0  0  0  0  0  0
  -22.8678  -27.2155   20.4300 O   0  0  0  0  0  0  0  0  0  0  0  0
  -32.3900  -24.3340   24.5015 O   0  0  0  0  0  0  0  0  0  0  0  0
  -21.2530  -21.2763   21.7292 O   0  0  0  0  0  0  0  0  0  1  0  0
  -34.7083  -19.6740   22.6812 F   0  0  0  0  0  0  0  0  0  0  0  0
  -34.1737  -24.3681   22.3896 F   0  0  0  0  0  0  0  0  0  0  0  0
  1  2  1  0  0  0  0
  1  5  2  0  0  0  0
  2  6  2  0  0  0  0
  3  8  2  0  0  0  0
  3 18  1  0  0  0  0
  4  9  1  0  0  0  0
  4 18  2  0  0  0  0
  5 20  1  0  0  0  0
  6 22  1  0  0  0  0
  7 10  2  0  0  0  0
  7 21  1  0  0  0  0
  8 27  1  0  0  0  0
  9 27  2  0  0  0  0
 10 28  1  0  0  0  0
 11 12  2  0  0  0  0
 11 29  1  0  0  0  0
 12 30  1  0  0  0  0
 13 23  1  0  0  0  0
 13 28  2  0  0  0  0
 14 24  1  0  0  0  0
 14 25  2  0  0  0  0
 15 24  2  0  0  0  0
 15 26  1  0  0  0  0
 16 25  1  0  0  0  0
 16 26  2  0  0  0  0
 17 30  2  0  0  0  0
 17 31  1  0  0  0  0
 18 32  1  0  0  0  0
 19 32  1  0  0  0  0
 19 33  2  0  0  0  0
 19 34  1  0  0  0  0
 20 22  2  0  0  0  0
 20 40  1  0  0  0  0
 21 23  2  0  0  0  0
 21 41  1  0  0  0  0
 22 49  1  0  0  0  0
 23 42  1  0  0  0  0
 24 52  1  0  0  0  0
 25 58  1  0  0  0  0
 26 70  1  0  0  0  0
 27 81  1  0  0  0  0
 28 82  1  0  0  0  0
 29 31  2  0  0  0  0
 29 81  1  0  0  0  0
 30 83  1  0  0  0  0
 31 84  1  0  0  0  0
 32 64  2  0  0  0  0
 33 65  1  0  0  0  0
 33 68  1  0  0  0  0
 34 69  1  0  0  0  0
 34 75  2  0  0  0  0
 35 50  1  0  0  0  0
 35 71  1  0  0  0  0
 35 76  2  0  0  0  0
 36 61  1  0  0  0  0
 36 66  1  0  0  0  0
 36 77  2  0  0  0  0
 37 59  1  0  0  0  0
 37 70  1  0  0  0  0
 37 78  2  0  0  0  0
 38 62  1  0  0  0  0
 38 72  1  0  0  0  0
 38 79  2  0  0  0  0
 39 67  1  0  0  0  0
 39 73  1  0  0  0  0
 39 80  2  0  0  0  0
 40 43  1  0  0  0  0
 41 50  1  0  0  0  0
 42 66  1  0  0  0  0
 43 45  1  0  0  0  0
 44 46  1  0  0  0  0
 44 47  1  0  0  0  0
 45 49  1  0  0  0  0
 46 51  1  0  0  0  0
 47 67  1  0  0  0  0
 48 51  1  0  0  0  0
 48 67  1  0  0  0  0
 49 71  1  0  0  0  0
 50 66  1  0  0  0  0
 51 65  1  0  0  0  0
 53 62  1  0  0  0  0
 54 63  1  0  0  0  0
 55 63  1  0  0  0  0
 56 63  1  0  0  0  0
 57 74  1  0  0  0  0
 58 73  1  0  0  0  0
 59 60  1  0  0  0  0
 60 82  1  0  0  0  0
 61 63  1  0  0  0  0
 61 72  1  0  0  0  0
 62 74  1  0  0  0  0
 64 65  1  0  0  0  0
M  CHG  1  74   1
M  ISO  4  39 100  60 101  73 100  82 101
M  END
> <Batch ID>
0095

> <Smiles>
CNC(C)C(=O)NC(C(=O)N1Cc2cc([101O:1][101CH2:1]CC(=O)Nc3cc(C)cc(C[100NH:0][100C:0](=O)N4CCCC(n5nc(-c6ccc(Oc7ccc(F)cc7F)cc6)c(C(N)=O)c5N)C4)c3)ccc2CC1C(=O)NC1CCCc2ccccc21)C(C)(C)C

> <Shape>
0.220

> <Color>
0.067

> <Negative vol penalty>
0.000

$$$$

  -OEChem-04052300433D

 84 92  0     1  0  0  0  0  0999 V2000
  -30.5178  -23.8493   14.1497 C   0  0  0  0  0  0  0  0  0  0  0  0
  -29.9482  -23.4103   15.3406 C   0  0  0  0  0  0  0  0  0  0  0  0
  -30.0097  -20.7909   23.5457 C   0  0  0  0  0  0  0  0  0  0  0  0
  -32.0646  -20.7470   22.2759 C   0  0  0  0  0  0  0  0  0  0  0  0
  -30.9568  -25.1674   14.0326 C   0  0  0  0  0  0  0  0  0  0  0  0
  -29.8184  -24.2890   16.4156 C   0  0  0  0  0  0  0  0  0  0  0  0
  -25.2735  -23.9921   18.6294 C   0  0  0  0  0  0  0  0  0  0  0  0
  -20.8030  -16.2079   20.2277 C   0  0  0  0  0  0  0  0  0  0  0  0
  -21.0424  -17.5306   20.6001 C   0  0  0  0  0  0  0  0  0  0  0  0
  -30.6828  -21.3825   24.6146 C   0  0  0  0  0  0  0  0  0  0  0  0
  -32.7377  -21.3387   23.3448 C   0  0  0  0  0  0  0  0  0  0  0  0
  -25.0537  -22.9178   19.4904 C   0  0  0  0  0  0  0  0  0  0  0  0
  -31.7972  -24.4610   25.4594 C   0  0  0  0  0  0  0  0  0  0  0  0
  -31.1856  -25.5438   26.0911 C   0  0  0  0  0  0  0  0  0  0  0  0
  -23.4221  -17.1447   20.4415 C   0  0  0  0  0  0  0  0  0  0  0  0
  -25.4705  -24.3560   21.3817 C   0  0  0  0  0  0  0  0  0  0  0  0
  -31.1716  -24.3206   28.1745 C   0  0  0  0  0  0  0  0  0  0  0  0
  -30.7006  -20.4731   22.3764 C   0  0  0  0  0  0  0  0  0  0  0  0
  -23.1827  -15.8219   20.0691 C   0  0  0  0  0  0  0  0  0  0  0  0
  -29.3613  -20.5163   20.2057 C   0  0  0  0  0  0  0  0  0  0  0  0
  -30.8235  -26.0653   15.1033 C   0  0  0  0  0  0  0  0  0  0  0  0
  -25.6048  -25.2560   19.1386 C   0  0  0  0  0  0  0  0  0  0  0  0
  -30.2573  -25.6200   16.3131 C   0  0  0  0  0  0  0  0  0  0  0  0
  -25.6915  -25.4453   20.5252 C   0  0  0  0  0  0  0  0  0  0  0  0
  -21.8732  -15.3535   19.9623 C   0  0  0  0  0  0  0  0  0  0  0  0
  -22.3519  -17.9990   20.7070 C   0  0  0  0  0  0  0  0  0  0  0  0
  -32.0468  -21.6565   24.5142 C   0  0  0  0  0  0  0  0  0  0  0  0
  -25.1550  -23.0989   20.8667 C   0  0  0  0  0  0  0  0  0  0  0  0
  -32.0959  -23.3079   26.1853 C   0  0  0  0  0  0  0  0  0  0  0  0
  -30.8729  -25.4737   27.4486 C   0  0  0  0  0  0  0  0  0  0  0  0
  -31.7832  -23.2377   27.5428 C   0  0  0  0  0  0  0  0  0  0  0  0
  -30.0060  -19.8614   21.2721 C   0  0  0  0  0  0  0  0  0  0  0  0
  -28.8613  -19.4990   19.4300 C   0  0  0  0  0  0  0  0  0  0  0  0
  -24.3315  -14.9409   19.7937 C   0  0  0  0  0  0  0  0  0  0  0  0
  -29.2264  -21.9187   19.9400 C   0  0  0  0  0  0  0  0  0  0  0  0
  -28.1111  -27.1934   18.8765 C   0  0  0  0  0  0  0  0  0  0  0  0
  -26.2150  -29.2340   20.5389 C   0  0  0  0  0  0  0  0  0  0  0  0
  -23.5943  -29.6574   22.6835 C   0  0  0  0  0  0  0  0  0  0  0  0
  -23.8253  -19.9715   21.2337 C   0  0  0  0  0  0  0  0  0  0  0  0
  -26.5038  -14.2390   20.0766 C   0  0  0  0  0  0  0  0  0  0  0  0
  -31.3559  -27.4676   14.9454 C   0  0  0  0  0  0  0  0  0  0  0  0
  -25.8126  -26.4109   18.1976 C   0  0  0  0  0  0  0  0  0  0  0  0
  -26.0244  -26.7870   21.1231 C   0  0  0  0  0  0  0  0  0  0  0  0
  -30.8401  -28.4379   16.0050 C   0  0  0  0  0  0  0  0  0  0  0  0
  -29.8738  -14.6993   18.8784 C   0  0  0  0  0  0  0  0  0  0  0  0
  -30.9391  -27.8140   17.3935 C   0  0  0  0  0  0  0  0  0  0  0  0
  -30.2009  -16.1307   19.3037 C   0  0  0  0  0  0  0  0  0  0  0  0
  -28.9809  -14.0018   19.9000 C   0  0  0  0  0  0  0  0  0  0  0  0
  -28.0434  -16.1778   20.6313 C   0  0  0  0  0  0  0  0  0  0  0  0
  -30.0766  -26.5500   17.4931 C   0  0  1  0  0  0  0  0  0  0  0  0
  -26.6492  -27.5330   18.8046 C   0  0  1  0  0  0  0  0  0  0  0  0
  -28.9175  -16.9237   19.6087 C   0  0  1  0  0  0  0  0  0  0  0  0
  -21.5886  -13.9416   19.5653 C   0  0  0  0  0  0  0  0  0  0  0  0
  -22.3045  -31.4400   23.8901 C   0  0  0  0  0  0  0  0  0  0  0  0
  -22.9893  -21.5433   23.0198 C   0  0  0  0  0  0  0  0  0  0  0  0
  -28.5013  -29.5320   22.5374 C   0  0  0  0  0  0  0  0  0  0  0  0
  -26.8659  -30.5207   24.1549 C   0  0  0  0  0  0  0  0  0  0  0  0
  -27.3156  -31.6631   21.9834 C   0  0  0  0  0  0  0  0  0  0  0  0
  -21.0760  -28.9268   21.3112 C   0  0  0  0  0  0  0  0  0  0  0  0
  -25.9756  -29.5192   22.0019 C   0  0  1  0  0  0  0  0  0  0  0  0
  -22.3934  -30.5847   22.6358 C   0  0  2  0  0  0  0  0  0  0  0  0
  -23.6589  -21.4283   21.6584 C   0  0  1  0  0  0  0  0  0  1  0  0
  -27.1602  -30.2829   22.6584 C   0  0  0  0  0  0  0  0  0  0  0  0
  -29.9245  -18.5310   21.1851 N   0  0  0  0  0  0  0  0  0  0  0  0
  -25.4698  -15.1022   20.3850 N   0  0  0  0  0  0  0  0  0  0  0  0
  -29.2225  -18.3417   20.0548 N   0  0  0  0  0  0  0  0  0  0  0  0
  -26.2250  -27.8837   20.1615 N   0  0  0  0  0  0  0  0  0  0  0  0
  -27.7890  -14.8004   20.1890 N   0  0  0  0  0  0  0  0  0  0  0  0
  -28.1521  -19.4905   18.2814 N   0  0  0  0  0  0  0  0  0  0  0  0
  -29.8007  -22.8274   20.8394 N   0  0  0  0  0  0  0  0  0  0  0  0
  -22.5943  -19.3406   21.0868 N   0  0  0  0  0  0  0  0  0  0  0  0
  -28.6817  -26.9013   17.6524 N   0  0  0  0  0  0  0  0  0  0  0  0
  -24.6980  -30.2194   22.0775 N   0  0  0  0  0  0  0  0  0  0  0  0
  -21.1346  -29.7963   22.5144 N   0  3  0  0  0  0  0  0  0  0  0  0
  -28.6008  -22.3535   18.9435 O   0  0  0  0  0  0  0  0  0  0  0  0
  -28.6796  -27.1976   19.9620 O   0  0  0  0  0  0  0  0  0  0  0  0
  -26.3798  -30.1749   19.7584 O   0  0  0  0  0  0  0  0  0  0  0  0
  -23.5581  -28.5470   23.2093 O   0  0  0  0  0  0  0  0  0  0  0  0
  -24.9373  -19.4862   21.0463 O   0  0  0  0  0  0  0  0  0  0  0  0
  -26.3406  -13.0656   19.7337 O   0  0  0  0  0  0  0  0  0  0  0  0
  -32.7038  -22.2340   25.5569 O   0  0  0  0  0  0  0  0  0  0  0  0
  -24.9415  -22.0519   21.7093 O   0  0  0  0  0  0  0  0  0  1  0  0
  -30.2870  -26.5142   28.0554 F   0  0  0  0  0  0  0  0  0  0  0  0
  -32.0688  -22.1331   28.2456 F   0  0  0  0  0  0  0  0  0  0  0  0
  1  2  1  0  0  0  0
  1  5  2  0  0  0  0
  2  6  2  0  0  0  0
  3 10  2  0  0  0  0
  3 18  1  0  0  0  0
  4 11  1  0  0  0  0
  4 18  2  0  0  0  0
  5 21  1  0  0  0  0
  6 23  1  0  0  0  0
  7 12  2  0  0  0  0
  7 22  1  0  0  0  0
  8  9  2  0  0  0  0
  8 25  1  0  0  0  0
  9 26  1  0  0  0  0
 10 27  1  0  0  0  0
 11 27  2  0  0  0  0
 12 28  1  0  0  0  0
 13 14  2  0  0  0  0
 13 29  1  0  0  0  0
 14 30  1  0  0  0  0
 15 19  1  0  0  0  0
 15 26  2  0  0  0  0
 16 24  1  0  0  0  0
 16 28  2  0  0  0  0
 17 30  2  0  0  0  0
 17 31  1  0  0  0  0
 18 32  1  0  0  0  0
 19 25  2  0  0  0  0
 19 34  1  0  0  0  0
 20 32  1  0  0  0  0
 20 33  2  0  0  0  0
 20 35  1  0  0  0  0
 21 23  2  0  0  0  0
 21 41  1  0  0  0  0
 22 24  2  0  0  0  0
 22 42  1  0  0  0  0
 23 50  1  0  0  0  0
 24 43  1  0  0  0  0
 25 53  1  0  0  0  0
 26 71  1  0  0  0  0
 27 81  1  0  0  0  0
 28 82  1  0  0  0  0
 29 31  2  0  0  0  0
 29 81  1  0  0  0  0
 30 83  1  0  0  0  0
 31 84  1  0  0  0  0
 32 64  2  0  0  0  0
 33 66  1  0  0  0  0
 33 69  1  0  0  0  0
 34 65  2  0  0  0  0
 35 70  1  0  0  0  0
 35 75  2  0  0  0  0
 36 51  1  0  0  0  0
 36 72  1  0  0  0  0
 36 76  2  0  0  0  0
 37 60  1  0  0  0  0
 37 67  1  0  0  0  0
 37 77  2  0  0  0  0
 38 61  1  0  0  0  0
 38 73  1  0  0  0  0
 38 78  2  0  0  0  0
 39 62  1  0  0  0  0
 39 71  1  0  0  0  0
 39 79  2  0  0  0  0
 40 65  1  0  0  0  0
 40 68  1  0  0  0  0
 40 80  2  0  0  0  0
 41 44  1  0  0  0  0
 42 51  1  0  0  0  0
 43 67  1  0  0  0  0
 44 46  1  0  0  0  0
 45 47  1  0  0  0  0
 45 48  1  0  0  0  0
 46 50  1  0  0  0  0
 47 52  1  0  0  0  0
 48 68  1  0  0  0  0
 49 52  1  0  0  0  0
 49 68  1  0  0  0  0
 50 72  1  0  0  0  0
 51 67  1  0  0  0  0
 52 66  1  0  0  0  0
 54 61  1  0  0  0  0
 55 62  1  0  0  0  0
 56 63  1  0  0  0  0
 57 63  1  0  0  0  0
 58 63  1  0  0  0  0
 59 74  1  0  0  0  0
 60 63  1  0  0  0  0
 60 73  1  0  0  0  0
 61 74  1  0  0  0  0
 62 82  1  0  0  0  0
 64 66  1  0  0  0  0
M  CHG  1  74   1
M  ISO  4  40 100  62 101  65 100  82 101
M  END
> <Batch ID>
0095

> <Smiles>
CNC(C)C(=O)NC(C(=O)N1Cc2cc([101O:1][101CH:1](C)C(=O)Nc3ccc(C)c(C=[100N:0][100C:0](=O)N4CCCC(n5nc(-c6ccc(Oc7ccc(F)cc7F)cc6)c(C(N)=O)c5N)C4)c3)ccc2CC1C(=O)NC1CCCc2ccccc21)C(C)(C)C

> <Shape>
0.193

> <Color>
0.099

> <Negative vol penalty>
0.000

$$$$

  -OEChem-04052300433D

 86 94  0     1  0  0  0  0  0999 V2000
  -31.8519  -26.2163   22.8303 C   0  0  0  0  0  0  0  0  0  0  0  0
  -30.8056  -25.3697   23.1791 C   0  0  0  0  0  0  0  0  0  0  0  0
  -27.6515  -26.6658   16.8350 C   0  0  0  0  0  0  0  0  0  0  0  0
  -29.4555  -27.4818   18.2195 C   0  0  0  0  0  0  0  0  0  0  0  0
  -32.5375  -26.0145   21.6343 C   0  0  0  0  0  0  0  0  0  0  0  0
  -30.4525  -24.3140   22.3379 C   0  0  0  0  0  0  0  0  0  0  0  0
  -27.0832  -21.1477   24.0190 C   0  0  0  0  0  0  0  0  0  0  0  0
  -17.9075  -27.4386   21.8676 C   0  0  0  0  0  0  0  0  0  0  0  0
  -18.4946  -26.1883   22.0617 C   0  0  0  0  0  0  0  0  0  0  0  0
  -28.5288  -26.5567   15.7561 C   0  0  0  0  0  0  0  0  0  0  0  0
  -30.3328  -27.3727   17.1406 C   0  0  0  0  0  0  0  0  0  0  0  0
  -25.7337  -21.4765   24.1392 C   0  0  0  0  0  0  0  0  0  0  0  0
  -30.9153  -24.4101   14.6934 C   0  0  0  0  0  0  0  0  0  0  0  0
  -30.8613  -23.2443   13.9294 C   0  0  0  0  0  0  0  0  0  0  0  0
  -20.4584  -27.2532   22.9818 C   0  0  0  0  0  0  0  0  0  0  0  0
  -25.2528  -20.2060   22.1458 C   0  0  0  0  0  0  0  0  0  0  0  0
  -30.3193  -24.5524   11.9718 C   0  0  0  0  0  0  0  0  0  0  0  0
  -28.1148  -27.1284   18.0667 C   0  0  0  0  0  0  0  0  0  0  0  0
  -19.8713  -28.5035   22.7877 C   0  0  0  0  0  0  0  0  0  0  0  0
  -26.4653  -26.2079   19.7812 C   0  0  0  0  0  0  0  0  0  0  0  0
  -32.1838  -24.9631   20.7727 C   0  0  0  0  0  0  0  0  0  0  0  0
  -27.5300  -20.3533   22.9534 C   0  0  0  0  0  0  0  0  0  0  0  0
  -31.1480  -24.0794   21.1380 C   0  0  0  0  0  0  0  0  0  0  0  0
  -26.6081  -19.8664   22.0158 C   0  0  0  0  0  0  0  0  0  0  0  0
  -18.5959  -28.5962   22.2306 C   0  0  0  0  0  0  0  0  0  0  0  0
  -19.7700  -26.0955   22.6187 C   0  0  0  0  0  0  0  0  0  0  0  0
  -29.8694  -26.9101   15.9089 C   0  0  0  0  0  0  0  0  0  0  0  0
  -24.8186  -21.0080   23.2010 C   0  0  0  0  0  0  0  0  0  0  0  0
  -30.6711  -25.6470   14.0967 C   0  0  0  0  0  0  0  0  0  0  0  0
  -30.5634  -23.3155   12.5686 C   0  0  0  0  0  0  0  0  0  0  0  0
  -30.3732  -25.7182   12.7359 C   0  0  0  0  0  0  0  0  0  0  0  0
  -27.2090  -27.2419   19.1814 C   0  0  0  0  0  0  0  0  0  0  0  0
  -25.7673  -26.8271   20.7891 C   0  0  0  0  0  0  0  0  0  0  0  0
  -23.1552  -22.6499   23.2890 C   0  0  0  0  0  0  0  0  0  1  0  0
  -20.6263  -29.7200   23.1839 C   0  0  0  0  0  0  0  0  0  0  0  0
  -26.4104  -24.8125   19.4563 C   0  0  0  0  0  0  0  0  0  0  0  0
  -21.8911  -23.0776   23.3934 C   0  0  0  0  0  0  0  0  0  0  0  0
  -21.6159  -24.5509   23.3519 C   0  0  0  0  0  0  0  0  0  0  0  0
  -29.5354  -20.7800   20.5244 C   0  0  0  0  0  0  0  0  0  0  0  0
  -28.9766  -17.6252   20.0169 C   0  0  0  0  0  0  0  0  0  0  0  0
  -26.9029  -14.9468   20.4321 C   0  0  0  0  0  0  0  0  0  0  0  0
  -22.6930  -31.0052   22.7358 C   0  0  0  0  0  0  0  0  0  0  0  0
  -32.9646  -24.7858   19.4943 C   0  0  0  0  0  0  0  0  0  0  0  0
  -28.9850  -19.9854   22.8529 C   0  0  0  0  0  0  0  0  0  0  0  0
  -27.0337  -18.9934   20.8647 C   0  0  0  0  0  0  0  0  0  0  0  0
  -32.2365  -23.9243   18.4676 C   0  0  0  0  0  0  0  0  0  0  0  0
  -26.1940  -31.4940   22.7107 C   0  0  0  0  0  0  0  0  0  0  0  0
  -31.7471  -22.6400   19.1201 C   0  0  0  0  0  0  0  0  0  0  0  0
  -26.7133  -30.3420   21.8461 C   0  0  0  0  0  0  0  0  0  0  0  0
  -24.8722  -32.0492   22.1820 C   0  0  0  0  0  0  0  0  0  0  0  0
  -24.3392  -29.9033   21.1008 C   0  0  0  0  0  0  0  0  0  0  0  0
  -30.7262  -22.9430   20.2241 C   0  0  1  0  0  0  0  0  0  0  0  0
  -29.4064  -19.5952   21.4395 C   0  0  1  0  0  0  0  0  0  0  0  0
  -25.6322  -29.2636   21.6319 C   0  0  1  0  0  0  0  0  0  0  0  0
  -17.9439  -29.9225   22.0120 C   0  0  0  0  0  0  0  0  0  0  0  0
  -26.6984  -12.5087   19.8741 C   0  0  0  0  0  0  0  0  0  0  0  0
  -28.2316  -18.3469   17.1474 C   0  0  0  0  0  0  0  0  0  0  0  0
  -27.1533  -16.0974   16.9354 C   0  0  0  0  0  0  0  0  0  0  0  0
  -29.6023  -16.2679   17.3779 C   0  0  0  0  0  0  0  0  0  0  0  0
  -26.8538  -14.1779   23.2896 C   0  0  0  0  0  0  0  0  0  0  0  0
  -27.9674  -16.8326   19.2218 C   0  0  1  0  0  0  0  0  0  0  0  0
  -27.1717  -13.5276   20.8991 C   0  0  2  0  0  0  0  0  0  0  0  0
  -28.2306  -16.9042   17.6911 C   0  0  0  0  0  0  0  0  0  0  0  0
  -27.0026  -28.4280   19.7600 N   0  0  0  0  0  0  0  0  0  0  0  0
  -26.1212  -28.1431   20.7337 N   0  0  0  0  0  0  0  0  0  0  0  0
  -28.4680  -18.6666   20.8060 N   0  0  0  0  0  0  0  0  0  0  0  0
  -23.9000  -30.9673   22.0162 N   0  0  0  0  0  0  0  0  0  0  0  0
  -24.8914  -26.3688   21.7084 N   0  0  0  0  0  0  0  0  0  0  0  0
  -27.3151  -23.9446   20.0829 N   0  0  0  0  0  0  0  0  0  0  0  0
  -20.3664  -24.8263   22.8136 N   0  0  0  0  0  0  0  0  0  0  0  0
  -21.8506  -29.9050   22.5410 N   0  0  0  0  0  0  0  0  0  0  0  0
  -30.4457  -21.7265   20.9544 N   0  0  0  0  0  0  0  0  0  0  0  0
  -27.9877  -15.4804   19.7690 N   0  0  0  0  0  0  0  0  0  0  0  0
  -26.4666  -13.2630   22.1851 N   0  3  0  0  0  0  0  0  0  0  0  0
  -20.1303  -30.4926   23.9994 O   0  0  0  0  0  0  0  0  0  0  0  0
  -25.5946  -24.3515   18.6224 O   0  0  0  0  0  0  0  0  0  0  0  0
  -22.4429  -25.3582   23.7622 O   0  0  0  0  0  0  0  0  0  0  0  0
  -28.8603  -20.8308   19.5030 O   0  0  0  0  0  0  0  0  0  0  0  0
  -30.1714  -17.3266   19.9462 O   0  0  0  0  0  0  0  0  0  0  0  0
  -25.8359  -15.5229   20.6321 O   0  0  0  0  0  0  0  0  0  0  0  0
  -22.4065  -31.9205   23.5140 O   0  0  0  0  0  0  0  0  0  0  0  0
  -20.8247  -22.2134   23.5372 O   0  0  0  0  0  0  0  0  0  0  0  0
  -30.7258  -26.8035   14.8564 O   0  0  0  0  0  0  0  0  0  0  0  0
  -23.5009  -21.3280   23.3156 O   0  0  0  0  0  0  0  0  0  1  0  0
  -30.5131  -22.1961   11.8347 F   0  0  0  0  0  0  0  0  0  0  0  0
  -30.1389  -26.9037   12.1567 F   0  0  0  0  0  0  0  0  0  0  0  0
  1  2  1  0  0  0  0
  1  5  2  0  0  0  0
  2  6  2  0  0  0  0
  3 10  2  0  0  0  0
  3 18  1  0  0  0  0
  4 11  1  0  0  0  0
  4 18  2  0  0  0  0
  5 21  1  0  0  0  0
  6 23  1  0  0  0  0
  7 12  2  0  0  0  0
  7 22  1  0  0  0  0
  8  9  2  0  0  0  0
  8 25  1  0  0  0  0
  9 26  1  0  0  0  0
 10 27  1  0  0  0  0
 11 27  2  0  0  0  0
 12 28  1  0  0  0  0
 13 14  2  0  0  0  0
 13 29  1  0  0  0  0
 14 30  1  0  0  0  0
 15 19  1  0  0  0  0
 15 26  2  0  0  0  0
 16 24  1  0  0  0  0
 16 28  2  0  0  0  0
 17 30  2  0  0  0  0
 17 31  1  0  0  0  0
 18 32  1  0  0  0  0
 19 25  2  0  0  0  0
 19 35  1  0  0  0  0
 20 32  1  0  0  0  0
 20 33  2  0  0  0  0
 20 36  1  0  0  0  0
 21 23  2  0  0  0  0
 21 43  1  0  0  0  0
 22 24  2  0  0  0  0
 22 44  1  0  0  0  0
 23 52  1  0  0  0  0
 24 45  1  0  0  0  0
 25 55  1  0  0  0  0
 26 70  1  0  0  0  0
 27 83  1  0  0  0  0
 28 84  1  0  0  0  0
 29 31  2  0  0  0  0
 29 83  1  0  0  0  0
 30 85  1  0  0  0  0
 31 86  1  0  0  0  0
 32 64  2  0  0  0  0
 33 65  1  0  0  0  0
 33 68  1  0  0  0  0
 34 37  2  0  0  0  0
 34 84  1  0  0  0  0
 35 71  1  0  0  0  0
 35 75  2  0  0  0  0
 36 69  1  0  0  0  0
 36 76  2  0  0  0  0
 37 38  1  0  0  0  0
 37 82  1  0  0  0  0
 38 70  1  0  0  0  0
 38 77  2  0  0  0  0
 39 53  1  0  0  0  0
 39 72  1  0  0  0  0
 39 78  2  0  0  0  0
 40 61  1  0  0  0  0
 40 66  1  0  0  0  0
 40 79  2  0  0  0  0
 41 62  1  0  0  0  0
 41 73  1  0  0  0  0
 41 80  2  0  0  0  0
 42 67  1  0  0  0  0
 42 71  1  0  0  0  0
 42 81  2  0  0  0  0
 43 46  1  0  0  0  0
 44 53  1  0  0  0  0
 45 66  1  0  0  0  0
 46 48  1  0  0  0  0
 47 49  1  0  0  0  0
 47 50  1  0  0  0  0
 48 52  1  0  0  0  0
 49 54  1  0  0  0  0
 50 67  1  0  0  0  0
 51 54  1  0  0  0  0
 51 67  1  0  0  0  0
 52 72  1  0  0  0  0
 53 66  1  0  0  0  0
 54 65  1  0  0  0  0
 56 62  1  0  0  0  0
 57 63  1  0  0  0  0
 58 63  1  0  0  0  0
 59 63  1  0  0  0  0
 60 74  1  0  0  0  0
 61 63  1  0  0  0  0
 61 73  1  0  0  0  0
 62 74  1  0  0  0  0
 64 65  1  0  0  0  0
M  CHG  1  74   1
M  ISO  4  34 101  42 100  71 100  84 101
M  END
> <Batch ID>
0095

> <Smiles>
CNC(C)C(=O)NC(C(=O)N1Cc2cc([101O:1][101CH2:1]C(=O)C(=O)Nc3ccc(C)c(C(=O)[100NH:0][100C:0](=O)N4CCCC(n5nc(-c6ccc(Oc7ccc(F)cc7F)cc6)c(C(N)=O)c5N)C4)c3)ccc2CC1C(=O)NC1CCCc2ccccc21)C(C)(C)C

> <Shape>
0.210

> <Color>
0.083

> <Negative vol penalty>
0.000

$$$$

  -OEChem-04052300433D

 85 94  0     1  0  0  0  0  0999 V2000
  -25.8782  -35.4934   22.7763 C   0  0  0  0  0  0  0  0  0  0  0  0
  -26.4535  -34.2382   22.6061 C   0  0  0  0  0  0  0  0  0  0  0  0
  -24.3593  -12.3758   21.1510 C   0  0  0  0  0  0  0  0  0  0  0  0
  -25.9083  -12.4309   19.2977 C   0  0  0  0  0  0  0  0  0  0  0  0
  -24.5874  -35.6033   23.2917 C   0  0  0  0  0  0  0  0  0  0  0  0
  -25.7385  -33.0921   22.9521 C   0  0  0  0  0  0  0  0  0  0  0  0
  -26.0781  -29.4570   19.4428 C   0  0  0  0  0  0  0  0  0  0  0  0
  -23.7736  -11.2233   20.6272 C   0  0  0  0  0  0  0  0  0  0  0  0
  -25.3227  -11.2784   18.7740 C   0  0  0  0  0  0  0  0  0  0  0  0
  -27.2530  -28.7069   19.4147 C   0  0  0  0  0  0  0  0  0  0  0  0
  -24.4554   -7.9134   20.5145 C   0  0  0  0  0  0  0  0  0  0  0  0
  -24.1863   -6.8655   21.3949 C   0  0  0  0  0  0  0  0  0  0  0  0
  -26.1418  -26.9327   20.6133 C   0  0  0  0  0  0  0  0  0  0  0  0
  -28.5102  -21.6865   17.6872 C   0  0  0  0  0  0  0  0  0  0  0  0
  -30.4696  -21.4778   16.2894 C   0  0  0  0  0  0  0  0  0  0  0  0
  -28.9800  -19.5965   16.5700 C   0  0  0  0  0  0  0  0  0  0  0  0
  -21.8371   -7.0108   20.8497 C   0  0  0  0  0  0  0  0  0  0  0  0
  -25.4266  -12.9797   20.4862 C   0  0  0  0  0  0  0  0  0  0  0  0
  -27.1094  -14.2420   21.9292 C   0  0  0  0  0  0  0  0  0  0  0  0
  -23.8526  -34.4575   23.6352 C   0  0  0  0  0  0  0  0  0  0  0  0
  -24.9274  -28.9543   20.0670 C   0  0  0  0  0  0  0  0  0  0  0  0
  -24.4372  -33.1868   23.4738 C   0  0  0  0  0  0  0  0  0  0  0  0
  -24.9528  -27.6773   20.6457 C   0  0  0  0  0  0  0  0  0  0  0  0
  -29.6599  -22.2440   17.1278 C   0  0  0  0  0  0  0  0  0  0  0  0
  -28.1703  -20.3627   17.4084 C   0  0  0  0  0  0  0  0  0  0  0  0
  -24.2554  -10.6745   19.4387 C   0  0  0  0  0  0  0  0  0  0  0  0
  -27.2858  -27.4457   20.0025 C   0  0  0  0  0  0  0  0  0  0  0  0
  -23.4154   -8.5101   19.8017 C   0  0  0  0  0  0  0  0  0  0  0  0
  -30.1297  -20.1540   16.0105 C   0  0  0  0  0  0  0  0  0  0  0  0
  -22.8772   -6.4142   21.5625 C   0  0  0  0  0  0  0  0  0  0  0  0
  -22.1063   -8.0587   19.9693 C   0  0  0  0  0  0  0  0  0  0  0  0
  -26.0315  -14.1706   21.0264 C   0  0  0  0  0  0  0  0  0  0  0  0
  -27.3015  -15.5873   22.1288 C   0  0  0  0  0  0  0  0  0  0  0  0
  -31.1291  -24.2966   16.9277 C   0  0  0  0  0  0  0  0  0  0  0  0
  -27.8690  -13.1867   22.5333 C   0  0  0  0  0  0  0  0  0  0  0  0
  -23.1329  -29.8614   22.5287 C   0  0  0  0  0  0  0  0  0  0  0  0
  -21.2487  -27.4054   21.5589 C   0  0  0  0  0  0  0  0  0  0  0  0
  -20.9872  -24.4346   19.8998 C   0  0  0  0  0  0  0  0  0  0  0  0
  -26.0893  -20.4179   18.8272 C   0  0  0  0  0  0  0  0  0  0  0  0
  -22.4785  -34.6285   24.2329 C   0  0  0  0  0  0  0  0  0  0  0  0
  -23.6603  -29.7648   20.0653 C   0  0  0  0  0  0  0  0  0  0  0  0
  -23.7387  -27.0837   21.3106 C   0  0  0  0  0  0  0  0  0  0  0  0
  -31.0208  -25.7219   17.4194 C   0  0  0  0  0  0  0  0  0  0  0  0
  -21.6469  -33.3485   24.2240 C   0  0  0  0  0  0  0  0  0  0  0  0
  -24.9323  -19.7492   22.1274 C   0  0  0  0  0  0  0  0  0  0  0  0
  -22.4758  -32.1698   24.7246 C   0  0  0  0  0  0  0  0  0  0  0  0
  -25.1866  -18.2504   22.3039 C   0  0  0  0  0  0  0  0  0  0  0  0
  -24.4940  -20.0861   20.7033 C   0  0  0  0  0  0  0  0  0  0  0  0
  -29.1598  -24.4604   18.2148 C   0  0  0  0  0  0  0  0  0  0  0  0
  -25.6374  -18.0897   19.8224 C   0  0  0  0  0  0  0  0  0  0  0  0
  -23.6841  -31.9191   23.8143 C   0  0  1  0  0  0  0  0  0  0  0  0
  -22.6957  -29.3678   21.1786 C   0  0  1  0  0  0  0  0  0  0  0  0
  -30.0645  -25.6211   18.5992 C   0  0  2  0  0  0  0  0  0  0  0  0
  -26.1438  -17.7101   21.2235 C   0  0  2  0  0  0  0  0  0  0  0  0
  -19.3275  -22.6473   19.3099 C   0  0  0  0  0  0  0  0  0  0  0  0
  -21.3954  -26.3313   24.4111 C   0  0  0  0  0  0  0  0  0  0  0  0
  -20.5589  -24.1334   23.5521 C   0  0  0  0  0  0  0  0  0  0  0  0
  -19.1357  -26.1722   23.3514 C   0  0  0  0  0  0  0  0  0  0  0  0
  -21.3462  -24.8964   16.9986 C   0  0  0  0  0  0  0  0  0  0  0  0
  -29.3044  -26.9088   18.8655 C   0  0  0  0  0  0  0  0  0  1  0  0
  -21.1705  -25.9304   21.8705 C   0  0  1  0  0  0  0  0  0  0  0  0
  -19.9900  -23.9424   18.8665 C   0  0  2  0  0  0  0  0  0  0  0  0
  -20.5887  -25.6535   23.2855 C   0  0  0  0  0  0  0  0  0  0  0  0
  -25.5711  -15.3746   20.6768 N   0  0  0  0  0  0  0  0  0  0  0  0
  -26.3634  -16.2153   21.3635 N   0  0  0  0  0  0  0  0  0  0  0  0
  -30.0080  -23.5980   17.4137 N   0  0  0  0  0  0  0  0  0  0  0  0
  -22.5256  -27.9176   21.2886 N   0  0  0  0  0  0  0  0  0  0  0  0
  -25.4504  -19.5464   19.7344 N   0  0  0  0  0  0  0  0  0  0  0  0
  -28.1796  -16.2824   22.8825 N   0  0  0  0  0  0  0  0  0  0  0  0
  -27.5389  -11.8614   22.2190 N   0  0  0  0  0  0  0  0  0  0  0  0
  -27.0021  -19.7961   17.9759 N   0  0  0  0  0  0  0  0  0  0  0  0
  -23.2742  -31.2337   22.6074 N   0  0  0  0  0  0  0  0  0  0  0  0
  -20.4110  -25.3232   20.7829 N   0  0  0  0  0  0  0  0  0  0  0  0
  -20.6714  -23.6996   17.5635 N   0  3  0  0  0  0  0  0  0  0  0  0
  -32.0323  -23.9230   16.1934 O   0  0  0  0  0  0  0  0  0  0  0  0
  -28.8019  -13.4120   23.3411 O   0  0  0  0  0  0  0  0  0  0  0  0
  -23.3261  -29.0569   23.4327 O   0  0  0  0  0  0  0  0  0  0  0  0
  -20.2141  -28.0770   21.5486 O   0  0  0  0  0  0  0  0  0  0  0  0
  -22.1590  -24.0649   19.9236 O   0  0  0  0  0  0  0  0  0  0  0  0
  -25.8649  -21.6310   18.8252 O   0  0  0  0  0  0  0  0  0  0  0  0
  -30.9197  -19.4062   15.1924 O   0  0  0  0  0  0  0  0  0  0  0  0
  -23.6843   -9.5498   18.9275 O   0  0  0  0  0  0  0  0  0  0  0  0
  -28.4314  -26.7118   19.9770 O   0  0  0  0  0  0  0  0  0  1  0  0
  -22.6191   -5.4069   22.4068 F   0  0  0  0  0  0  0  0  0  0  0  0
  -21.1031   -8.6272   19.2864 F   0  0  0  0  0  0  0  0  0  0  0  0
  1  2  1  0  0  0  0
  1  5  2  0  0  0  0
  2  6  2  0  0  0  0
  3  8  2  0  0  0  0
  3 18  1  0  0  0  0
  4  9  1  0  0  0  0
  4 18  2  0  0  0  0
  5 20  1  0  0  0  0
  6 22  1  0  0  0  0
  7 10  2  0  0  0  0
  7 21  1  0  0  0  0
  8 26  1  0  0  0  0
  9 26  2  0  0  0  0
 10 27  1  0  0  0  0
 11 12  2  0  0  0  0
 11 28  1  0  0  0  0
 12 30  1  0  0  0  0
 13 23  1  0  0  0  0
 13 27  2  0  0  0  0
 14 24  2  0  0  0  0
 14 25  1  0  0  0  0
 15 24  1  0  0  0  0
 15 29  2  0  0  0  0
 16 25  2  0  0  0  0
 16 29  1  0  0  0  0
 17 30  2  0  0  0  0
 17 31  1  0  0  0  0
 18 32  1  0  0  0  0
 19 32  1  0  0  0  0
 19 33  2  0  0  0  0
 19 35  1  0  0  0  0
 20 22  2  0  0  0  0
 20 40  1  0  0  0  0
 21 23  2  0  0  0  0
 21 41  1  0  0  0  0
 22 51  1  0  0  0  0
 23 42  1  0  0  0  0
 24 66  1  0  0  0  0
 25 71  1  0  0  0  0
 26 82  1  0  0  0  0
 27 83  1  0  0  0  0
 28 31  2  0  0  0  0
 28 82  1  0  0  0  0
 29 81  1  0  0  0  0
 30 84  1  0  0  0  0
 31 85  1  0  0  0  0
 32 64  2  0  0  0  0
 33 65  1  0  0  0  0
 33 69  1  0  0  0  0
 34 43  1  0  0  0  0
 34 66  1  0  0  0  0
 34 75  2  0  0  0  0
 35 70  1  0  0  0  0
 35 76  2  0  0  0  0
 36 52  1  0  0  0  0
 36 72  1  0  0  0  0
 36 77  2  0  0  0  0
 37 61  1  0  0  0  0
 37 67  1  0  0  0  0
 37 78  2  0  0  0  0
 38 62  1  0  0  0  0
 38 73  1  0  0  0  0
 38 79  2  0  0  0  0
 39 68  1  0  0  0  0
 39 71  1  0  0  0  0
 39 80  2  0  0  0  0
 40 44  1  0  0  0  0
 41 52  1  0  0  0  0
 42 67  1  0  0  0  0
 43 53  1  0  0  0  0
 44 46  1  0  0  0  0
 45 47  1  0  0  0  0
 45 48  1  0  0  0  0
 46 51  1  0  0  0  0
 47 54  1  0  0  0  0
 48 68  1  0  0  0  0
 49 53  1  0  0  0  0
 49 66  1  0  0  0  0
 50 54  1  0  0  0  0
 50 68  1  0  0  0  0
 51 72  1  0  0  0  0
 52 67  1  0  0  0  0
 53 60  1  0  0  0  0
 54 65  1  0  0  0  0
 55 62  1  0  0  0  0
 56 63  1  0  0  0  0
 57 63  1  0  0  0  0
 58 63  1  0  0  0  0
 59 74  1  0  0  0  0
 60 83  1  0  0  0  0
 61 63  1  0  0  0  0
 61 73  1  0  0  0  0
 62 74  1  0  0  0  0
 64 65  1  0  0  0  0
M  CHG  1  74   1
M  ISO  4  39 100  60 101  71 100  83 101
M  END
> <Batch ID>
0095

> <Smiles>
CNC(C)C(=O)NC(C(=O)N1Cc2cc([101O:1][101CH2:1]C3CC(=O)N(c4cc(O)cc([100NH:0][100C:0](=O)N5CCCC(n6nc(-c7ccc(Oc8ccc(F)cc8F)cc7)c(C(N)=O)c6N)C5)c4)C3)ccc2CC1C(=O)NC1CCCc2ccccc21)C(C)(C)C

> <Shape>
0.243

> <Color>
0.076

> <Negative vol penalty>
0.000

$$$$

  -OEChem-04052300433D

 84 92  0     1  0  0  0  0  0999 V2000
  -26.2529  -19.2615   17.4416 C   0  0  0  0  0  0  0  0  0  0  0  0
  -25.5118  -20.3811   17.8057 C   0  0  0  0  0  0  0  0  0  0  0  0
  -26.9075  -17.8030   21.8416 C   0  0  0  0  0  0  0  0  0  0  0  0
  -24.5359  -17.3509   21.7533 C   0  0  0  0  0  0  0  0  0  0  0  0
  -27.5103  -19.0460   18.0043 C   0  0  0  0  0  0  0  0  0  0  0  0
  -26.0271  -21.2854   18.7336 C   0  0  0  0  0  0  0  0  0  0  0  0
  -25.2197  -27.3558   18.7984 C   0  0  0  0  0  0  0  0  0  0  0  0
  -27.1562  -16.6420   21.1097 C   0  0  0  0  0  0  0  0  0  0  0  0
  -24.7845  -16.1898   21.0213 C   0  0  0  0  0  0  0  0  0  0  0  0
  -24.3495  -28.1787   19.5120 C   0  0  0  0  0  0  0  0  0  0  0  0
  -25.8194  -13.0305   21.6366 C   0  0  0  0  0  0  0  0  0  0  0  0
  -25.1380  -11.8716   22.0085 C   0  0  0  0  0  0  0  0  0  0  0  0
  -19.7836  -28.0530   21.7903 C   0  0  0  0  0  0  0  0  0  0  0  0
  -26.0759  -28.5737   21.1500 C   0  0  0  0  0  0  0  0  0  0  0  0
  -17.9691  -27.9499   23.3821 C   0  0  0  0  0  0  0  0  0  0  0  0
  -24.1363  -11.7561   19.8130 C   0  0  0  0  0  0  0  0  0  0  0  0
  -25.5974  -18.1575   22.1635 C   0  0  0  0  0  0  0  0  0  0  0  0
  -20.3534  -29.1047   22.5079 C   0  0  0  0  0  0  0  0  0  0  0  0
  -25.8045  -19.6617   24.2134 C   0  0  0  0  0  0  0  0  0  0  0  0
  -28.0454  -19.9533   18.9324 C   0  0  0  0  0  0  0  0  0  0  0  0
  -26.5232  -27.1265   19.2617 C   0  0  0  0  0  0  0  0  0  0  0  0
  -27.2922  -21.0812   19.3103 C   0  0  0  0  0  0  0  0  0  0  0  0
  -26.9615  -27.7494   20.4390 C   0  0  0  0  0  0  0  0  0  0  0  0
  -18.5914  -27.4757   22.2274 C   0  0  0  0  0  0  0  0  0  0  0  0
  -18.5389  -29.0016   24.0998 C   0  0  0  0  0  0  0  0  0  0  0  0
  -26.0947  -15.8354   20.6995 C   0  0  0  0  0  0  0  0  0  0  0  0
  -24.7766  -28.7855   20.6895 C   0  0  0  0  0  0  0  0  0  0  0  0
  -25.6592  -13.5523   20.3530 C   0  0  0  0  0  0  0  0  0  0  0  0
  -19.7311  -29.5790   23.6626 C   0  0  0  0  0  0  0  0  0  0  0  0
  -24.2965  -11.2344   21.0967 C   0  0  0  0  0  0  0  0  0  0  0  0
  -24.8177  -12.9151   19.4411 C   0  0  0  0  0  0  0  0  0  0  0  0
  -25.3399  -19.3564   22.9200 C   0  0  0  0  0  0  0  0  0  0  0  0
  -25.2873  -20.9060   24.4792 C   0  0  0  0  0  0  0  0  0  0  0  0
  -21.5994  -29.6892   22.0292 C   0  0  0  0  0  0  0  0  0  0  0  0
  -22.7618  -29.0302   21.8521 C   0  0  0  0  0  0  0  0  0  1  0  0
  -26.6298  -18.8895   25.0956 C   0  0  0  0  0  0  0  0  0  0  0  0
  -28.1522  -24.5631   20.1992 C   0  0  0  0  0  0  0  0  0  0  0  0
  -30.6253  -26.6588   20.3160 C   0  0  0  0  0  0  0  0  0  0  0  0
  -18.4508  -25.0065   21.9092 C   0  0  0  0  0  0  0  0  0  0  0  0
  -31.6697  -29.8939   20.6164 C   0  0  0  0  0  0  0  0  0  0  0  0
  -20.4362  -23.5670   22.2339 C   0  0  0  0  0  0  0  0  0  0  0  0
  -29.3886  -19.6533   19.5491 C   0  0  0  0  0  0  0  0  0  0  0  0
  -27.4583  -26.2575   18.4662 C   0  0  0  0  0  0  0  0  0  0  0  0
  -28.3576  -27.5518   20.9683 C   0  0  0  0  0  0  0  0  0  0  0  0
  -30.0223  -20.8560   20.2436 C   0  0  0  0  0  0  0  0  0  0  0  0
  -23.8779  -24.9242   22.3462 C   0  0  0  0  0  0  0  0  0  0  0  0
  -28.9990  -21.5624   21.1272 C   0  0  0  0  0  0  0  0  0  0  0  0
  -24.6835  -23.6458   22.5522 C   0  0  0  0  0  0  0  0  0  0  0  0
  -22.6169  -24.6843   21.5171 C   0  0  0  0  0  0  0  0  0  0  0  0
  -22.5567  -22.3188   22.2719 C   0  0  0  0  0  0  0  0  0  0  0  0
  -27.8277  -22.0980   20.2949 C   0  0  1  0  0  0  0  0  0  0  0  0
  -28.5977  -25.6835   19.3027 C   0  0  1  0  0  0  0  0  0  0  0  0
  -23.7975  -22.5426   23.1486 C   0  0  1  0  0  0  0  0  0  0  0  0
  -33.7523  -31.2905   20.7150 C   0  0  0  0  0  0  0  0  0  0  0  0
  -31.0943  -25.7522   23.1914 C   0  0  0  0  0  0  0  0  0  0  0  0
  -32.5073  -27.7910   23.5302 C   0  0  0  0  0  0  0  0  0  0  0  0
  -33.1779  -26.0766   21.8469 C   0  0  0  0  0  0  0  0  0  0  0  0
  -30.9154  -31.3983   18.1819 C   0  0  0  0  0  0  0  0  0  0  0  0
  -17.9744  -26.3392   21.4513 C   0  0  0  0  0  0  0  0  0  0  0  0
  -31.2000  -27.5767   21.3677 C   0  0  1  0  0  0  0  0  0  0  0  0
  -32.6721  -30.7071   19.8174 C   0  0  2  0  0  0  0  0  0  0  0  0
  -31.9679  -26.8015   22.4754 C   0  0  0  0  0  0  0  0  0  0  0  0
  -24.5855  -20.3284   22.4003 N   0  0  0  0  0  0  0  0  0  0  0  0
  -24.5720  -21.2566   23.3721 N   0  0  0  0  0  0  0  0  0  0  0  0
  -29.2325  -26.6882   20.1581 N   0  0  0  0  0  0  0  0  0  0  0  0
  -21.8202  -23.5658   22.0397 N   0  0  0  0  0  0  0  0  0  0  0  0
  -17.8963  -29.4707   25.2667 N   0  0  0  0  0  0  0  0  0  0  0  0
  -25.3792  -21.7235   25.5495 N   0  0  0  0  0  0  0  0  0  0  0  0
  -26.0088  -18.0081   25.9910 N   0  0  0  0  0  0  0  0  0  0  0  0
  -28.2090  -23.3145   19.6099 N   0  0  0  0  0  0  0  0  0  0  0  0
  -19.7676  -24.7867   21.8417 N   0  0  0  0  0  0  0  0  0  0  0  0
  -32.0101  -28.5582   20.6544 N   0  0  0  0  0  0  0  0  0  0  0  0
  -17.5201  -24.1651   22.3456 N   0  3  0  0  0  0  0  0  0  0  0  0
  -31.9871  -31.8295   19.1161 N   0  3  0  0  0  0  0  0  0  0  0  0
  -27.8801  -18.9905   25.1013 O   0  0  0  0  0  0  0  0  0  0  0  0
  -27.7855  -24.8127   21.3415 O   0  0  0  0  0  0  0  0  0  0  0  0
  -31.3849  -25.9473   19.6538 O   0  0  0  0  0  0  0  0  0  0  0  0
  -30.6854  -30.3942   21.1562 O   0  0  0  0  0  0  0  0  0  0  0  0
  -19.7747  -22.6312   22.6704 O   0  0  0  0  0  0  0  0  0  0  0  0
  -20.2838  -30.6084   24.3695 O   0  0  0  0  0  0  0  0  0  0  0  0
  -26.3369  -14.7025   19.9851 O   0  0  0  0  0  0  0  0  0  0  0  0
  -23.9234  -29.5940   21.3930 O   0  0  0  0  0  0  0  0  0  1  0  0
  -23.6435  -10.1206   21.4534 F   0  0  0  0  0  0  0  0  0  0  0  0
  -24.6606  -13.4109   18.2061 F   0  0  0  0  0  0  0  0  0  0  0  0
  1  2  1  0  0  0  0
  1  5  2  0  0  0  0
  2  6  2  0  0  0  0
  3  8  2  0  0  0  0
  3 17  1  0  0  0  0
  4  9  1  0  0  0  0
  4 17  2  0  0  0  0
  5 20  1  0  0  0  0
  6 22  1  0  0  0  0
  7 10  2  0  0  0  0
  7 21  1  0  0  0  0
  8 26  1  0  0  0  0
  9 26  2  0  0  0  0
 10 27  1  0  0  0  0
 11 12  2  0  0  0  0
 11 28  1  0  0  0  0
 12 30  1  0  0  0  0
 13 18  1  0  0  0  0
 13 24  2  0  0  0  0
 14 23  1  0  0  0  0
 14 27  2  0  0  0  0
 15 24  1  0  0  0  0
 15 25  2  0  0  0  0
 16 30  2  0  0  0  0
 16 31  1  0  0  0  0
 17 32  1  0  0  0  0
 18 29  2  0  0  0  0
 18 34  1  0  0  0  0
 19 32  1  0  0  0  0
 19 33  2  0  0  0  0
 19 36  1  0  0  0  0
 20 22  2  0  0  0  0
 20 42  1  0  0  0  0
 21 23  2  0  0  0  0
 21 43  1  0  0  0  0
 22 51  1  0  0  0  0
 23 44  1  0  0  0  0
 24 59  1  0  0  0  0
 25 29  1  0  0  0  0
 25 67  1  0  0  0  0
 26 81  1  0  0  0  0
 27 82  1  0  0  0  0
 28 31  2  0  0  0  0
 28 81  1  0  0  0  0
 29 80  1  0  0  0  0
 30 83  1  0  0  0  0
 31 84  1  0  0  0  0
 32 63  2  0  0  0  0
 33 64  1  0  0  0  0
 33 68  1  0  0  0  0
 34 35  2  0  0  0  0
 35 82  1  0  0  0  0
 36 69  1  0  0  0  0
 36 75  2  0  0  0  0
 37 52  1  0  0  0  0
 37 70  1  0  0  0  0
 37 76  2  0  0  0  0
 38 60  1  0  0  0  0
 38 65  1  0  0  0  0
 38 77  2  0  0  0  0
 39 59  1  0  0  0  0
 39 71  1  0  0  0  0
 39 73  2  0  0  0  0
 40 61  1  0  0  0  0
 40 72  1  0  0  0  0
 40 78  2  0  0  0  0
 41 66  1  0  0  0  0
 41 71  1  0  0  0  0
 41 79  2  0  0  0  0
 42 45  1  0  0  0  0
 43 52  1  0  0  0  0
 44 65  1  0  0  0  0
 45 47  1  0  0  0  0
 46 48  1  0  0  0  0
 46 49  1  0  0  0  0
 47 51  1  0  0  0  0
 48 53  1  0  0  0  0
 49 66  1  0  0  0  0
 50 53  1  0  0  0  0
 50 66  1  0  0  0  0
 51 70  1  0  0  0  0
 52 65  1  0  0  0  0
 53 64  1  0  0  0  0
 54 61  1  0  0  0  0
 55 62  1  0  0  0  0
 56 62  1  0  0  0  0
 57 62  1  0  0  0  0
 58 74  1  0  0  0  0
 60 62  1  0  0  0  0
 60 72  1  0  0  0  0
 61 74  1  0  0  0  0
 63 64  1  0  0  0  0
M  CHG  2  73   1  74   1
M  ISO  4  35 101  41 100  71 100  82 101
M  END
> <Batch ID>
0095

> <Smiles>
CNC(C)C(=O)NC(C(=O)N1Cc2cc([101O:1][101CH:1]=Cc3cc(CC(=N)[100NH:0][100C:0](=O)N4CCCC(n5nc(-c6ccc(Oc7ccc(F)cc7F)cc6)c(C(N)=O)c5N)C4)cc(N)c3O)ccc2CC1C(=O)NC1CCCc2ccccc21)C(C)(C)C

> <Shape>
0.221

> <Color>
0.050

> <Negative vol penalty>
0.000

$$$$

  -OEChem-04052300433D

 82 90  0     1  0  0  0  0  0999 V2000
  -16.5463  -29.7951   24.2330 C   0  0  0  0  0  0  0  0  0  0  0  0
  -17.3356  -28.6495   24.2359 C   0  0  0  0  0  0  0  0  0  0  0  0
  -30.2722  -18.7333   25.8002 C   0  0  0  0  0  0  0  0  0  0  0  0
  -23.6192   -9.6059   19.9199 C   0  0  0  0  0  0  0  0  0  0  0  0
  -23.2664  -10.0334   22.2714 C   0  0  0  0  0  0  0  0  0  0  0  0
  -17.0348  -30.9754   23.6742 C   0  0  0  0  0  0  0  0  0  0  0  0
  -18.6135  -28.6832   23.6790 C   0  0  0  0  0  0  0  0  0  0  0  0
  -23.5508  -25.6141   25.6051 C   0  0  0  0  0  0  0  0  0  0  0  0
  -30.1884  -17.6660   24.9062 C   0  0  0  0  0  0  0  0  0  0  0  0
  -29.1896  -19.5989   25.9564 C   0  0  0  0  0  0  0  0  0  0  0  0
  -22.8910   -8.4210   20.0260 C   0  0  0  0  0  0  0  0  0  0  0  0
  -22.5381   -8.8485   22.3776 C   0  0  0  0  0  0  0  0  0  0  0  0
  -24.1446  -24.4280   25.1756 C   0  0  0  0  0  0  0  0  0  0  0  0
  -23.1860   -5.5389   22.6171 C   0  0  0  0  0  0  0  0  0  0  0  0
  -23.4552   -4.7080   23.7045 C   0  0  0  0  0  0  0  0  0  0  0  0
  -25.6861  -25.6970   23.8219 C   0  0  0  0  0  0  0  0  0  0  0  0
  -21.1628   -4.9233   24.4365 C   0  0  0  0  0  0  0  0  0  0  0  0
  -23.8070  -10.4121   21.0426 C   0  0  0  0  0  0  0  0  0  0  0  0
  -24.0612  -12.9160   20.6264 C   0  0  0  0  0  0  0  0  0  0  0  0
  -18.3231  -31.0262   23.1189 C   0  0  0  0  0  0  0  0  0  0  0  0
  -24.0140  -26.8521   25.1370 C   0  0  0  0  0  0  0  0  0  0  0  0
  -19.1192  -29.8649   23.1111 C   0  0  0  0  0  0  0  0  0  0  0  0
  -25.0982  -26.8975   24.2490 C   0  0  0  0  0  0  0  0  0  0  0  0
  -29.0221  -17.4643   24.1681 C   0  0  0  0  0  0  0  0  0  0  0  0
  -22.3504   -8.0423   21.2548 C   0  0  0  0  0  0  0  0  0  0  0  0
  -25.2105  -24.4692   24.2816 C   0  0  0  0  0  0  0  0  0  0  0  0
  -21.9053   -6.0621   22.4393 C   0  0  0  0  0  0  0  0  0  0  0  0
  -28.0233  -19.3972   25.2184 C   0  0  0  0  0  0  0  0  0  0  0  0
  -22.4436   -4.4001   24.6143 C   0  0  0  0  0  0  0  0  0  0  0  0
  -20.8937   -5.7543   23.3490 C   0  0  0  0  0  0  0  0  0  0  0  0
  -27.9395  -18.3299   24.3242 C   0  0  0  0  0  0  0  0  0  0  0  0
  -24.5597  -11.6359   20.9338 C   0  0  0  0  0  0  0  0  0  0  0  0
  -25.1680  -13.7292   20.6455 C   0  0  0  0  0  0  0  0  0  0  0  0
  -22.7178  -13.3329   20.3486 C   0  0  0  0  0  0  0  0  0  0  0  0
  -22.7433  -29.2336   23.4584 C   0  0  0  0  0  0  0  0  0  0  0  0
  -25.5621  -30.6920   24.1288 C   0  0  0  0  0  0  0  0  0  0  0  0
  -28.8589  -30.3840   24.9553 C   0  0  0  0  0  0  0  0  0  0  0  0
  -26.9832  -21.3491   24.5041 C   0  0  0  0  0  0  0  0  0  0  0  0
  -29.9239  -15.4284   22.9899 C   0  0  0  0  0  0  0  0  0  0  0  0
  -18.7897  -32.3122   22.4840 C   0  0  0  0  0  0  0  0  0  0  0  0
  -23.3800  -28.1237   25.6306 C   0  0  0  0  0  0  0  0  0  0  0  0
  -25.6462  -28.2018   23.7324 C   0  0  0  0  0  0  0  0  0  0  0  0
  -20.2974  -32.3641   22.2504 C   0  0  0  0  0  0  0  0  0  0  0  0
  -30.0939  -12.5835   20.8557 C   0  0  0  0  0  0  0  0  0  0  0  0
  -20.7844  -31.0648   21.6167 C   0  0  0  0  0  0  0  0  0  0  0  0
  -28.6283  -12.1887   20.6604 C   0  0  0  0  0  0  0  0  0  0  0  0
  -30.3610  -13.0899   22.2720 C   0  0  0  0  0  0  0  0  0  0  0  0
  -28.0085  -13.7752   22.5275 C   0  0  0  0  0  0  0  0  0  0  0  0
  -20.5202  -29.8684   22.5388 C   0  0  1  0  0  0  0  0  0  0  0  0
  -23.6000  -29.3050   24.6907 C   0  0  1  0  0  0  0  0  0  0  0  0
  -27.6769  -13.3200   21.0969 C   0  0  2  0  0  0  0  0  0  0  0  0
  -30.9151  -31.7529   25.3975 C   0  0  0  0  0  0  0  0  0  0  0  0
  -25.8794  -31.1786   21.1334 C   0  0  0  0  0  0  0  0  0  0  0  0
  -28.3020  -31.6626   21.5393 C   0  0  0  0  0  0  0  0  0  0  0  0
  -26.5525  -33.1043   22.5802 C   0  0  0  0  0  0  0  0  0  0  0  0
  -29.0849  -29.3623   27.7236 C   0  0  0  0  0  0  0  0  0  0  0  0
  -25.7741  -22.2100   24.7654 C   0  0  0  0  0  0  0  0  0  1  0  0
  -26.9145  -30.7626   23.4618 C   0  0  1  0  0  0  0  0  0  0  0  0
  -29.7010  -31.0746   26.0128 C   0  0  2  0  0  0  0  0  0  0  0  0
  -26.9008  -31.6522   22.1867 C   0  0  0  0  0  0  0  0  0  0  0  0
  -25.8804  -11.6311   21.1333 N   0  0  0  0  0  0  0  0  0  0  0  0
  -26.2211  -12.9182   20.9508 N   0  0  0  0  0  0  0  0  0  0  0  0
  -24.9885  -29.4175   24.2396 N   0  0  0  0  0  0  0  0  0  0  0  0
  -29.4252  -14.1630   22.6146 N   0  0  0  0  0  0  0  0  0  0  0  0
  -25.3333  -15.0517   20.4306 N   0  0  0  0  0  0  0  0  0  0  0  0
  -21.7010  -12.3686   20.3706 N   0  0  0  0  0  0  0  0  0  0  0  0
  -28.9401  -16.3786   23.2613 N   0  0  0  0  0  0  0  0  0  0  0  0
  -21.5016  -29.8228   23.6015 N   0  0  0  0  0  0  0  0  0  0  0  0
  -27.8533  -31.2034   24.4879 N   0  0  0  0  0  0  0  0  0  0  0  0
  -30.1760  -30.0872   27.0229 N   0  3  0  0  0  0  0  0  0  0  0  0
  -22.4301  -14.5222   20.0725 O   0  0  0  0  0  0  0  0  0  0  0  0
  -23.1773  -28.6859   22.4518 O   0  0  0  0  0  0  0  0  0  0  0  0
  -25.0373  -31.7287   24.5430 O   0  0  0  0  0  0  0  0  0  0  0  0
  -29.0742  -29.2341   24.5786 O   0  0  0  0  0  0  0  0  0  0  0  0
  -27.8436  -21.5795   23.6650 O   0  0  0  0  0  0  0  0  0  0  0  0
  -31.1347  -15.6603   23.0387 O   0  0  0  0  0  0  0  0  0  0  0  0
  -21.6394   -6.8863   21.3587 O   0  0  0  0  0  0  0  0  0  0  0  0
  -26.9404  -20.2652   25.3773 O   0  0  0  0  0  0  0  0  0  0  0  0
  -25.7915  -23.3130   23.8603 O   0  0  0  0  0  0  0  0  0  1  0  0
  -22.7018   -3.6009   25.6577 F   0  0  0  0  0  0  0  0  0  0  0  0
  -19.6610   -6.2530   23.1828 F   0  0  0  0  0  0  0  0  0  0  0  0
  -26.8155  -18.1401   23.6173 F   0  0  0  0  0  0  0  0  0  0  0  0
  1  2  1  0  0  0  0
  1  6  2  0  0  0  0
  2  7  2  0  0  0  0
  3  9  1  0  0  0  0
  3 10  2  0  0  0  0
  4 11  2  0  0  0  0
  4 18  1  0  0  0  0
  5 12  1  0  0  0  0
  5 18  2  0  0  0  0
  6 20  1  0  0  0  0
  7 22  1  0  0  0  0
  8 13  2  0  0  0  0
  8 21  1  0  0  0  0
  9 24  2  0  0  0  0
 10 28  1  0  0  0  0
 11 25  1  0  0  0  0
 12 25  2  0  0  0  0
 13 26  1  0  0  0  0
 14 15  2  0  0  0  0
 14 27  1  0  0  0  0
 15 29  1  0  0  0  0
 16 23  1  0  0  0  0
 16 26  2  0  0  0  0
 17 29  2  0  0  0  0
 17 30  1  0  0  0  0
 18 32  1  0  0  0  0
 19 32  1  0  0  0  0
 19 33  2  0  0  0  0
 19 34  1  0  0  0  0
 20 22  2  0  0  0  0
 20 40  1  0  0  0  0
 21 23  2  0  0  0  0
 21 41  1  0  0  0  0
 22 49  1  0  0  0  0
 23 42  1  0  0  0  0
 24 31  1  0  0  0  0
 24 67  1  0  0  0  0
 25 77  1  0  0  0  0
 26 79  1  0  0  0  0
 27 30  2  0  0  0  0
 27 77  1  0  0  0  0
 28 31  2  0  0  0  0
 28 78  1  0  0  0  0
 29 80  1  0  0  0  0
 30 81  1  0  0  0  0
 31 82  1  0  0  0  0
 32 61  2  0  0  0  0
 33 62  1  0  0  0  0
 33 65  1  0  0  0  0
 34 66  1  0  0  0  0
 34 71  2  0  0  0  0
 35 50  1  0  0  0  0
 35 68  1  0  0  0  0
 35 72  2  0  0  0  0
 36 58  1  0  0  0  0
 36 63  1  0  0  0  0
 36 73  2  0  0  0  0
 37 59  1  0  0  0  0
 37 69  1  0  0  0  0
 37 74  2  0  0  0  0
 38 57  1  0  0  0  0
 38 75  2  0  0  0  0
 38 78  1  0  0  0  0
 39 64  1  0  0  0  0
 39 67  1  0  0  0  0
 39 76  2  0  0  0  0
 40 43  1  0  0  0  0
 41 50  1  0  0  0  0
 42 63  1  0  0  0  0
 43 45  1  0  0  0  0
 44 46  1  0  0  0  0
 44 47  1  0  0  0  0
 45 49  1  0  0  0  0
 46 51  1  0  0  0  0
 47 64  1  0  0  0  0
 48 51  1  0  0  0  0
 48 64  1  0  0  0  0
 49 68  1  0  0  0  0
 50 63  1  0  0  0  0
 51 62  1  0  0  0  0
 52 59  1  0  0  0  0
 53 60  1  0  0  0  0
 54 60  1  0  0  0  0
 55 60  1  0  0  0  0
 56 70  1  0  0  0  0
 57 79  1  0  0  0  0
 58 60  1  0  0  0  0
 58 69  1  0  0  0  0
 59 70  1  0  0  0  0
 61 62  1  0  0  0  0
M  CHG  1  70   1
M  ISO  4  39 100  57 101  67 100  79 101
M  END
> <Batch ID>
0095

> <Smiles>
CNC(C)C(=O)NC(C(=O)N1Cc2cc([101O:1][101CH2:1]C(=O)Oc3cccc([100NH:0][100C:0](=O)N4CCCC(n5nc(-c6ccc(Oc7ccc(F)cc7F)cc6)c(C(N)=O)c5N)C4)c3F)ccc2CC1C(=O)NC1CCCc2ccccc21)C(C)(C)C

> <Shape>
0.240

> <Color>
0.185

> <Negative vol penalty>
0.000

$$$$

  -OEChem-04052300433D

 84 92  0     1  0  0  0  0  0999 V2000
  -18.2268  -29.5799   25.9381 C   0  0  0  0  0  0  0  0  0  0  0  0
  -19.5714  -29.2702   26.1159 C   0  0  0  0  0  0  0  0  0  0  0  0
  -24.5278   -9.7420   21.4812 C   0  0  0  0  0  0  0  0  0  0  0  0
  -24.8902  -10.8275   23.6089 C   0  0  0  0  0  0  0  0  0  0  0  0
  -17.6207  -29.3644   24.7011 C   0  0  0  0  0  0  0  0  0  0  0  0
  -20.3104  -28.7439   25.0571 C   0  0  0  0  0  0  0  0  0  0  0  0
  -26.2240  -29.7602   23.8312 C   0  0  0  0  0  0  0  0  0  0  0  0
  -30.0138  -19.8869   21.4144 C   0  0  0  0  0  0  0  0  0  0  0  0
  -30.1060  -21.1812   21.9261 C   0  0  0  0  0  0  0  0  0  0  0  0
  -24.2190   -8.5523   22.1407 C   0  0  0  0  0  0  0  0  0  0  0  0
  -24.5813   -9.6379   24.2685 C   0  0  0  0  0  0  0  0  0  0  0  0
  -27.3772  -29.0235   24.0976 C   0  0  0  0  0  0  0  0  0  0  0  0
  -22.9840   -5.3267   23.2743 C   0  0  0  0  0  0  0  0  0  0  0  0
  -21.8690   -4.6126   22.8357 C   0  0  0  0  0  0  0  0  0  0  0  0
  -27.2704  -28.0677   21.8853 C   0  0  0  0  0  0  0  0  0  0  0  0
  -27.6098  -19.9691   21.6397 C   0  0  0  0  0  0  0  0  0  0  0  0
  -20.4579   -6.5088   23.3360 C   0  0  0  0  0  0  0  0  0  0  0  0
  -24.8635  -10.8796   22.2153 C   0  0  0  0  0  0  0  0  0  0  0  0
  -24.2906  -13.1324   21.1645 C   0  0  0  0  0  0  0  0  0  0  0  0
  -18.3551  -28.8443   23.6238 C   0  0  0  0  0  0  0  0  0  0  0  0
  -25.5780  -29.6478   22.5916 C   0  0  0  0  0  0  0  0  0  0  0  0
  -19.7133  -28.5201   23.8049 C   0  0  0  0  0  0  0  0  0  0  0  0
  -26.1106  -28.8060   21.6047 C   0  0  0  0  0  0  0  0  0  0  0  0
  -28.7657  -19.2808   21.2711 C   0  0  0  0  0  0  0  0  0  0  0  0
  -28.9501  -21.8694   22.2947 C   0  0  0  0  0  0  0  0  0  0  0  0
  -27.7020  -21.2634   22.1515 C   0  0  0  0  0  0  0  0  0  0  0  0
  -24.2457   -8.5003   23.5343 C   0  0  0  0  0  0  0  0  0  0  0  0
  -27.8990  -28.1749   23.1256 C   0  0  0  0  0  0  0  0  0  0  0  0
  -22.8360   -6.6318   23.7438 C   0  0  0  0  0  0  0  0  0  0  0  0
  -20.6059   -5.2037   22.8665 C   0  0  0  0  0  0  0  0  0  0  0  0
  -21.5730   -7.2229   23.7747 C   0  0  0  0  0  0  0  0  0  0  0  0
  -25.1831  -12.1086   21.5346 C   0  0  0  0  0  0  0  0  0  0  0  0
  -25.0819  -14.0726   20.5510 C   0  0  0  0  0  0  0  0  0  0  0  0
  -22.8730  -13.2252   21.3580 C   0  0  0  0  0  0  0  0  0  0  0  0
  -29.9733  -25.2582   23.5710 C   0  0  0  0  0  0  0  0  0  0  0  0
  -30.2332  -23.8930   23.0030 C   0  0  0  0  0  0  0  0  0  0  0  0
  -22.7030  -28.6825   21.6397 C   0  0  0  0  0  0  0  0  0  0  0  0
  -23.7392  -29.7260   18.7484 C   0  0  0  0  0  0  0  0  0  0  0  0
  -26.3736  -30.4375   16.6989 C   0  0  0  0  0  0  0  0  0  0  0  0
  -29.7207  -17.1448   20.3376 C   0  0  0  0  0  0  0  0  0  0  0  0
  -17.6447  -28.5845   22.3190 C   0  0  0  0  0  0  0  0  0  0  0  0
  -24.3500  -30.4696   22.3103 C   0  0  0  0  0  0  0  0  0  0  0  0
  -25.4664  -28.6651   20.2506 C   0  0  0  0  0  0  0  0  0  0  0  0
  -18.5923  -28.3741   21.1409 C   0  0  0  0  0  0  0  0  0  0  0  0
  -29.9057  -13.8360   19.0356 C   0  0  0  0  0  0  0  0  0  0  0  0
  -19.7115  -27.4101   21.5215 C   0  0  0  0  0  0  0  0  0  0  0  0
  -28.6201  -13.1759   19.5393 C   0  0  0  0  0  0  0  0  0  0  0  0
  -30.4914  -14.7978   20.0680 C   0  0  0  0  0  0  0  0  0  0  0  0
  -28.2713  -15.1522   21.0753 C   0  0  0  0  0  0  0  0  0  0  0  0
  -20.5545  -27.9707   22.6733 C   0  0  1  0  0  0  0  0  0  0  0  0
  -23.4837  -29.8877   21.1975 C   0  0  1  0  0  0  0  0  0  0  0  0
  -27.6090  -14.2238   20.0443 C   0  0  2  0  0  0  0  0  0  0  0  0
  -26.9059  -31.2368   14.3805 C   0  0  0  0  0  0  0  0  0  0  0  0
  -23.0181  -26.9770   17.6378 C   0  0  0  0  0  0  0  0  0  0  0  0
  -24.4151  -27.5000   15.6270 C   0  0  0  0  0  0  0  0  0  0  0  0
  -22.4140  -28.8945   16.1502 C   0  0  0  0  0  0  0  0  0  0  0  0
  -27.7966  -32.8221   17.7226 C   0  0  0  0  0  0  0  0  0  0  0  0
  -29.1553  -26.1962   22.7223 C   0  0  0  0  0  0  0  0  0  1  0  0
  -24.4814  -29.1037   17.5904 C   0  0  1  0  0  0  0  0  0  0  0  0
  -26.6748  -31.6435   15.8275 C   0  0  2  0  0  0  0  0  0  0  0  0
  -23.5934  -28.1198   16.7774 C   0  0  0  0  0  0  0  0  0  0  0  0
  -26.4449  -12.3733   21.1853 N   0  0  0  0  0  0  0  0  0  0  0  0
  -26.3508  -13.5741   20.5891 N   0  0  0  0  0  0  0  0  0  0  0  0
  -24.2641  -29.4846   20.0259 N   0  0  0  0  0  0  0  0  0  0  0  0
  -29.4779  -15.7641   20.4970 N   0  0  0  0  0  0  0  0  0  0  0  0
  -26.5183  -21.9425   22.5182 N   0  0  0  0  0  0  0  0  0  0  0  0
  -24.8090  -15.2688   19.9880 N   0  0  0  0  0  0  0  0  0  0  0  0
  -22.2167  -12.1705   22.0070 N   0  0  0  0  0  0  0  0  0  0  0  0
  -29.0689  -23.1809   22.8109 N   0  0  0  0  0  0  0  0  0  0  0  0
  -28.6723  -17.9661   20.7510 N   0  0  0  0  0  0  0  0  0  0  0  0
  -21.4689  -28.9807   22.1853 N   0  0  0  0  0  0  0  0  0  0  0  0
  -25.0177  -30.2113   16.8068 N   0  0  0  0  0  0  0  0  0  0  0  0
  -27.8939  -32.3460   16.3187 N   0  3  0  0  0  0  0  0  0  0  0  0
  -22.2054  -14.2068   20.9524 O   0  0  0  0  0  0  0  0  0  0  0  0
  -30.4559  -25.5175   24.6630 O   0  0  0  0  0  0  0  0  0  0  0  0
  -31.4005  -23.5919   22.8165 O   0  0  0  0  0  0  0  0  0  0  0  0
  -23.1840  -27.5647   21.4953 O   0  0  0  0  0  0  0  0  0  0  0  0
  -22.7349  -30.4072   18.5270 O   0  0  0  0  0  0  0  0  0  0  0  0
  -27.2533  -29.7614   17.2277 O   0  0  0  0  0  0  0  0  0  0  0  0
  -30.7696  -17.5665   19.8436 O   0  0  0  0  0  0  0  0  0  0  0  0
  -23.9441   -7.3396   24.1782 O   0  0  0  0  0  0  0  0  0  0  0  0
  -29.0242  -27.4541   23.3833 O   0  0  0  0  0  0  0  0  0  1  0  0
  -19.5354   -4.5184   22.4438 F   0  0  0  0  0  0  0  0  0  0  0  0
  -21.4247   -8.4768   24.2236 F   0  0  0  0  0  0  0  0  0  0  0  0
  1  2  1  0  0  0  0
  1  5  2  0  0  0  0
  2  6  2  0  0  0  0
  3 10  2  0  0  0  0
  3 18  1  0  0  0  0
  4 11  1  0  0  0  0
  4 18  2  0  0  0  0
  5 20  1  0  0  0  0
  6 22  1  0  0  0  0
  7 12  2  0  0  0  0
  7 21  1  0  0  0  0
  8  9  2  0  0  0  0
  8 24  1  0  0  0  0
  9 25  1  0  0  0  0
 10 27  1  0  0  0  0
 11 27  2  0  0  0  0
 12 28  1  0  0  0  0
 13 14  2  0  0  0  0
 13 29  1  0  0  0  0
 14 30  1  0  0  0  0
 15 23  1  0  0  0  0
 15 28  2  0  0  0  0
 16 24  2  0  0  0  0
 16 26  1  0  0  0  0
 17 30  2  0  0  0  0
 17 31  1  0  0  0  0
 18 32  1  0  0  0  0
 19 32  1  0  0  0  0
 19 33  2  0  0  0  0
 19 34  1  0  0  0  0
 20 22  2  0  0  0  0
 20 41  1  0  0  0  0
 21 23  2  0  0  0  0
 21 42  1  0  0  0  0
 22 50  1  0  0  0  0
 23 43  1  0  0  0  0
 24 70  1  0  0  0  0
 25 26  2  0  0  0  0
 25 69  1  0  0  0  0
 26 66  1  0  0  0  0
 27 81  1  0  0  0  0
 28 82  1  0  0  0  0
 29 31  2  0  0  0  0
 29 81  1  0  0  0  0
 30 83  1  0  0  0  0
 31 84  1  0  0  0  0
 32 62  2  0  0  0  0
 33 63  1  0  0  0  0
 33 67  1  0  0  0  0
 34 68  1  0  0  0  0
 34 74  2  0  0  0  0
 35 36  1  0  0  0  0
 35 58  1  0  0  0  0
 35 75  2  0  0  0  0
 36 69  1  0  0  0  0
 36 76  2  0  0  0  0
 37 51  1  0  0  0  0
 37 71  1  0  0  0  0
 37 77  2  0  0  0  0
 38 59  1  0  0  0  0
 38 64  1  0  0  0  0
 38 78  2  0  0  0  0
 39 60  1  0  0  0  0
 39 72  1  0  0  0  0
 39 79  2  0  0  0  0
 40 65  1  0  0  0  0
 40 70  1  0  0  0  0
 40 80  2  0  0  0  0
 41 44  1  0  0  0  0
 42 51  1  0  0  0  0
 43 64  1  0  0  0  0
 44 46  1  0  0  0  0
 45 47  1  0  0  0  0
 45 48  1  0  0  0  0
 46 50  1  0  0  0  0
 47 52  1  0  0  0  0
 48 65  1  0  0  0  0
 49 52  1  0  0  0  0
 49 65  1  0  0  0  0
 50 71  1  0  0  0  0
 51 64  1  0  0  0  0
 52 63  1  0  0  0  0
 53 60  1  0  0  0  0
 54 61  1  0  0  0  0
 55 61  1  0  0  0  0
 56 61  1  0  0  0  0
 57 73  1  0  0  0  0
 58 82  1  0  0  0  0
 59 61  1  0  0  0  0
 59 72  1  0  0  0  0
 60 73  1  0  0  0  0
 62 63  1  0  0  0  0
M  CHG  1  73   1
M  ISO  4  40 100  58 101  70 100  82 101
M  END
> <Batch ID>
0095

> <Smiles>
CNC(C)C(=O)NC(C(=O)N1Cc2cc([101O:1][101CH2:1]C(=O)C(=O)Nc3ccc([100NH:0][100C:0](=O)N4CCCC(n5nc(-c6ccc(Oc7ccc(F)cc7F)cc6)c(C(N)=O)c5N)C4)cc3N)ccc2CC1C(=O)NC1CCCc2ccccc21)C(C)(C)C

> <Shape>
0.271

> <Color>
0.138

> <Negative vol penalty>
0.000

$$$$

  -OEChem-04052300433D

 83 91  0     1  0  0  0  0  0999 V2000
  -16.8354  -25.9425   22.5319 C   0  0  0  0  0  0  0  0  0  0  0  0
  -18.1370  -25.4539   22.5839 C   0  0  0  0  0  0  0  0  0  0  0  0
  -23.1670  -10.3082   20.8596 C   0  0  0  0  0  0  0  0  0  0  0  0
  -24.4673   -8.8672   22.2984 C   0  0  0  0  0  0  0  0  0  0  0  0
  -28.4022  -20.0369   20.3381 C   0  0  0  0  0  0  0  0  0  0  0  0
  -16.6008  -27.2560   22.1276 C   0  0  0  0  0  0  0  0  0  0  0  0
  -19.2046  -26.2783   22.2307 C   0  0  0  0  0  0  0  0  0  0  0  0
  -23.0683  -25.9566   25.4885 C   0  0  0  0  0  0  0  0  0  0  0  0
  -27.4981  -20.8550   21.0155 C   0  0  0  0  0  0  0  0  0  0  0  0
  -22.2278   -9.2911   20.6896 C   0  0  0  0  0  0  0  0  0  0  0  0
  -23.5280   -7.8500   22.1284 C   0  0  0  0  0  0  0  0  0  0  0  0
  -23.9013  -24.8438   25.3804 C   0  0  0  0  0  0  0  0  0  0  0  0
  -20.4756   -7.0527   23.3399 C   0  0  0  0  0  0  0  0  0  0  0  0
  -20.0669   -6.3538   24.4757 C   0  0  0  0  0  0  0  0  0  0  0  0
  -25.5120  -26.1741   24.1742 C   0  0  0  0  0  0  0  0  0  0  0  0
  -26.7237  -18.9495   22.2830 C   0  0  0  0  0  0  0  0  0  0  0  0
  -20.8789   -4.2970   23.5021 C   0  0  0  0  0  0  0  0  0  0  0  0
  -24.2868  -10.0962   21.6639 C   0  0  0  0  0  0  0  0  0  0  0  0
  -28.4671  -18.6751   20.6331 C   0  0  0  0  0  0  0  0  0  0  0  0
  -25.2618  -12.1427   22.8339 C   0  0  0  0  0  0  0  0  0  0  0  0
  -17.6669  -28.1000   21.7784 C   0  0  0  0  0  0  0  0  0  0  0  0
  -23.4468  -27.1859   24.9297 C   0  0  0  0  0  0  0  0  0  0  0  0
  -18.9839  -27.6040   21.8200 C   0  0  0  0  0  0  0  0  0  0  0  0
  -24.6832  -27.3016   24.2787 C   0  0  0  0  0  0  0  0  0  0  0  0
  -26.6588  -20.3113   21.9880 C   0  0  0  0  0  0  0  0  0  0  0  0
  -22.4083   -8.0620   21.3241 C   0  0  0  0  0  0  0  0  0  0  0  0
  -25.1220  -24.9517   24.7207 C   0  0  0  0  0  0  0  0  0  0  0  0
  -21.0859   -6.3738   22.2852 C   0  0  0  0  0  0  0  0  0  0  0  0
  -20.2685   -4.9759   24.5568 C   0  0  0  0  0  0  0  0  0  0  0  0
  -27.6278  -18.1314   21.6056 C   0  0  0  0  0  0  0  0  0  0  0  0
  -21.2876   -4.9960   22.3663 C   0  0  0  0  0  0  0  0  0  0  0  0
  -25.2577  -11.1464   21.8395 C   0  0  0  0  0  0  0  0  0  0  0  0
  -26.3841  -12.8885   22.5681 C   0  0  0  0  0  0  0  0  0  0  0  0
  -26.1881  -21.6795   23.7578 C   0  0  0  0  0  0  0  0  0  0  0  0
  -29.4303  -17.8063   19.9091 C   0  0  0  0  0  0  0  0  0  0  0  0
  -24.3342  -12.3734   23.9026 C   0  0  0  0  0  0  0  0  0  0  0  0
  -22.2598  -29.0848   22.6738 C   0  0  0  0  0  0  0  0  0  0  0  0
  -24.6301  -31.0736   23.6479 C   0  0  0  0  0  0  0  0  0  0  0  0
  -27.6728  -31.4370   25.1500 C   0  0  0  0  0  0  0  0  0  0  0  0
  -29.7768  -15.5087   19.0578 C   0  0  0  0  0  0  0  0  0  0  0  0
  -17.3602  -29.4978   21.3023 C   0  0  0  0  0  0  0  0  0  0  0  0
  -22.5489  -28.3835   25.0781 C   0  0  0  0  0  0  0  0  0  0  0  0
  -25.1450  -28.6039   23.6793 C   0  0  0  0  0  0  0  0  0  0  0  0
  -18.5752  -30.4220   21.3038 C   0  0  0  0  0  0  0  0  0  0  0  0
  -30.2460  -12.0224   19.4075 C   0  0  0  0  0  0  0  0  0  0  0  0
  -19.7766  -29.7255   20.6726 C   0  0  0  0  0  0  0  0  0  0  0  0
  -28.9945  -11.5633   20.1606 C   0  0  0  0  0  0  0  0  0  0  0  0
  -29.9282  -13.1240   18.3974 C   0  0  0  0  0  0  0  0  0  0  0  0
  -27.9513  -13.8159   19.6900 C   0  0  0  0  0  0  0  0  0  0  0  0
  -20.1703  -28.4752   21.4683 C   0  0  1  0  0  0  0  0  0  0  0  0
  -22.8046  -29.4562   24.0240 C   0  0  1  0  0  0  0  0  0  0  0  0
  -28.2306  -12.7568   20.7686 C   0  0  1  0  0  0  0  0  0  0  0  0
  -29.3698  -33.1799   25.7664 C   0  0  0  0  0  0  0  0  0  0  0  0
  -25.5304  -31.2233   20.7364 C   0  0  0  0  0  0  0  0  0  0  0  0
  -27.7121  -32.1590   21.5319 C   0  0  0  0  0  0  0  0  0  0  0  0
  -25.5928  -33.4029   21.9610 C   0  0  0  0  0  0  0  0  0  0  0  0
  -27.4215  -30.8277   28.0352 C   0  0  0  0  0  0  0  0  0  0  0  0
  -25.3097  -22.5859   24.5671 C   0  0  0  0  0  0  0  0  0  1  0  0
  -26.0731  -31.2876   23.2597 C   0  0  1  0  0  0  0  0  0  0  0  0
  -28.1561  -32.3889   26.2292 C   0  0  2  0  0  0  0  0  0  0  0  0
  -26.2178  -31.9930   21.8818 C   0  0  0  0  0  0  0  0  0  0  0  0
  -26.2949  -11.2473   21.0041 N   0  0  0  0  0  0  0  0  0  0  0  0
  -25.7481  -21.1354   22.6706 N   0  0  0  0  0  0  0  0  0  0  0  0
  -26.9613  -12.3161   21.4730 N   0  0  0  0  0  0  0  0  0  0  0  0
  -24.2291  -29.7446   23.8450 N   0  0  0  0  0  0  0  0  0  0  0  0
  -29.2139  -14.2205   19.0536 N   0  0  0  0  0  0  0  0  0  0  0  0
  -26.9236  -13.9717   23.1665 N   0  0  0  0  0  0  0  0  0  0  0  0
  -23.2359  -11.5124   24.0315 N   0  0  0  0  0  0  0  0  0  0  0  0
  -29.0383  -16.4772   19.7468 N   0  0  0  0  0  0  0  0  0  0  0  0
  -20.8990  -28.8450   22.6628 N   0  0  0  0  0  0  0  0  0  0  0  0
  -26.6914  -32.0079   24.3676 N   0  0  0  0  0  0  0  0  0  0  0  0
  -28.5287  -31.6326   27.4581 N   0  3  0  0  0  0  0  0  0  0  0  0
  -30.4672  -18.2977   19.4719 O   0  0  0  0  0  0  0  0  0  0  0  0
  -24.4661  -13.3251   24.7090 O   0  0  0  0  0  0  0  0  0  0  0  0
  -23.0177  -29.0218   21.7129 O   0  0  0  0  0  0  0  0  0  0  0  0
  -23.8878  -32.0501   23.7786 O   0  0  0  0  0  0  0  0  0  0  0  0
  -28.1237  -30.3020   25.0123 O   0  0  0  0  0  0  0  0  0  0  0  0
  -30.8617  -15.7665   18.5269 O   0  0  0  0  0  0  0  0  0  0  0  0
  -21.4919   -7.0693   21.1586 O   0  0  0  0  0  0  0  0  0  0  0  0
  -25.9367  -23.8670   24.6133 O   0  0  0  0  0  0  0  0  0  1  0  0
  -19.8773   -4.3051   25.6482 F   0  0  0  0  0  0  0  0  0  0  0  0
  -27.6813  -16.8239   21.8964 F   0  0  0  0  0  0  0  0  0  0  0  0
  -21.8744   -4.3386   21.3568 F   0  0  0  0  0  0  0  0  0  0  0  0
  1  2  1  0  0  0  0
  1  6  2  0  0  0  0
  2  7  2  0  0  0  0
  3 10  2  0  0  0  0
  3 18  1  0  0  0  0
  4 11  1  0  0  0  0
  4 18  2  0  0  0  0
  5  9  2  0  0  0  0
  5 19  1  0  0  0  0
  6 21  1  0  0  0  0
  7 23  1  0  0  0  0
  8 12  2  0  0  0  0
  8 22  1  0  0  0  0
  9 25  1  0  0  0  0
 10 26  1  0  0  0  0
 11 26  2  0  0  0  0
 12 27  1  0  0  0  0
 13 14  2  0  0  0  0
 13 28  1  0  0  0  0
 14 29  1  0  0  0  0
 15 24  1  0  0  0  0
 15 27  2  0  0  0  0
 16 25  2  0  0  0  0
 16 30  1  0  0  0  0
 17 29  2  0  0  0  0
 17 31  1  0  0  0  0
 18 32  1  0  0  0  0
 19 30  2  0  0  0  0
 19 35  1  0  0  0  0
 20 32  1  0  0  0  0
 20 33  2  0  0  0  0
 20 36  1  0  0  0  0
 21 23  2  0  0  0  0
 21 41  1  0  0  0  0
 22 24  2  0  0  0  0
 22 42  1  0  0  0  0
 23 50  1  0  0  0  0
 24 43  1  0  0  0  0
 25 63  1  0  0  0  0
 26 79  1  0  0  0  0
 27 80  1  0  0  0  0
 28 31  2  0  0  0  0
 28 79  1  0  0  0  0
 29 81  1  0  0  0  0
 30 82  1  0  0  0  0
 31 83  1  0  0  0  0
 32 62  2  0  0  0  0
 33 64  1  0  0  0  0
 33 67  1  0  0  0  0
 34 58  1  0  0  0  0
 34 63  2  0  0  0  0
 35 69  1  0  0  0  0
 35 73  2  0  0  0  0
 36 68  1  0  0  0  0
 36 74  2  0  0  0  0
 37 51  1  0  0  0  0
 37 70  1  0  0  0  0
 37 75  2  0  0  0  0
 38 59  1  0  0  0  0
 38 65  1  0  0  0  0
 38 76  2  0  0  0  0
 39 60  1  0  0  0  0
 39 71  1  0  0  0  0
 39 77  2  0  0  0  0
 40 66  1  0  0  0  0
 40 69  1  0  0  0  0
 40 78  2  0  0  0  0
 41 44  1  0  0  0  0
 42 51  1  0  0  0  0
 43 65  1  0  0  0  0
 44 46  1  0  0  0  0
 45 47  1  0  0  0  0
 45 48  1  0  0  0  0
 46 50  1  0  0  0  0
 47 52  1  0  0  0  0
 48 66  1  0  0  0  0
 49 52  1  0  0  0  0
 49 66  1  0  0  0  0
 50 70  1  0  0  0  0
 51 65  1  0  0  0  0
 52 64  1  0  0  0  0
 53 60  1  0  0  0  0
 54 61  1  0  0  0  0
 55 61  1  0  0  0  0
 56 61  1  0  0  0  0
 57 72  1  0  0  0  0
 58 80  1  0  0  0  0
 59 61  1  0  0  0  0
 59 71  1  0  0  0  0
 60 72  1  0  0  0  0
 62 64  1  0  0  0  0
M  CHG  1  72   1
M  ISO  4  40 100  58 101  69 100  80 101
M  END
> <Batch ID>
0095

> <Smiles>
CNC(C)C(=O)NC(C(=O)N1Cc2cc([101O:1][101CH:1]=CNc3ccc(C(=O)[100NH:0][100C:0](=O)N4CCCC(n5nc(-c6ccc(Oc7ccc(F)cc7F)cc6)c(C(N)=O)c5N)C4)c(F)c3)ccc2CC1C(=O)NC1CCCc2ccccc21)C(C)(C)C

> <Shape>
0.293

> <Color>
0.116

> <Negative vol penalty>
0.000

$$$$

  -OEChem-04052300433D

 85 94  0     1  0  0  0  0  0999 V2000
  -26.4952  -33.3793   26.7566 C   0  0  0  0  0  0  0  0  0  0  0  0
  -25.4903  -33.1225   25.8294 C   0  0  0  0  0  0  0  0  0  0  0  0
  -28.0109  -17.7437   17.2370 C   0  0  0  0  0  0  0  0  0  0  0  0
  -24.2014   -9.4682   22.5647 C   0  0  0  0  0  0  0  0  0  0  0  0
  -23.8747   -9.6330   20.1766 C   0  0  0  0  0  0  0  0  0  0  0  0
  -27.8319  -33.3442   26.3619 C   0  0  0  0  0  0  0  0  0  0  0  0
  -25.8217  -32.8316   24.5065 C   0  0  0  0  0  0  0  0  0  0  0  0
  -23.9622  -26.6320   20.1322 C   0  0  0  0  0  0  0  0  0  0  0  0
  -27.5806  -18.9434   16.6703 C   0  0  0  0  0  0  0  0  0  0  0  0
  -28.1430  -17.6342   18.6213 C   0  0  0  0  0  0  0  0  0  0  0  0
  -23.1619   -8.5414   22.6430 C   0  0  0  0  0  0  0  0  0  0  0  0
  -22.8352   -8.7062   20.2548 C   0  0  0  0  0  0  0  0  0  0  0  0
  -23.8308  -25.5125   19.3103 C   0  0  0  0  0  0  0  0  0  0  0  0
  -22.7088   -5.2483   22.0244 C   0  0  0  0  0  0  0  0  0  0  0  0
  -22.9147   -4.1070   22.7994 C   0  0  0  0  0  0  0  0  0  0  0  0
  -25.8809  -26.0970   18.1685 C   0  0  0  0  0  0  0  0  0  0  0  0
  -27.4146  -19.9241   18.8721 C   0  0  0  0  0  0  0  0  0  0  0  0
  -21.0394   -4.7166   24.1954 C   0  0  0  0  0  0  0  0  0  0  0  0
  -24.5578  -10.0140   21.3315 C   0  0  0  0  0  0  0  0  0  0  0  0
  -26.9752  -10.7758   21.6201 C   0  0  0  0  0  0  0  0  0  0  0  0
  -28.1802  -33.0432   25.0357 C   0  0  0  0  0  0  0  0  0  0  0  0
  -25.0628  -27.4808   19.9854 C   0  0  0  0  0  0  0  0  0  0  0  0
  -27.1643  -32.7937   24.0934 C   0  0  0  0  0  0  0  0  0  0  0  0
  -26.0243  -27.2130   18.9971 C   0  0  0  0  0  0  0  0  0  0  0  0
  -27.2825  -20.0336   17.4878 C   0  0  0  0  0  0  0  0  0  0  0  0
  -27.8449  -18.7243   19.4388 C   0  0  0  0  0  0  0  0  0  0  0  0
  -22.4788   -8.1604   21.4881 C   0  0  0  0  0  0  0  0  0  0  0  0
  -24.7877  -25.2458   18.3307 C   0  0  0  0  0  0  0  0  0  0  0  0
  -21.6682   -6.1238   22.3349 C   0  0  0  0  0  0  0  0  0  0  0  0
  -22.0801   -3.8411   23.8849 C   0  0  0  0  0  0  0  0  0  0  0  0
  -20.8335   -5.8579   23.4204 C   0  0  0  0  0  0  0  0  0  0  0  0
  -25.6312  -10.9718   21.2501 C   0  0  0  0  0  0  0  0  0  0  0  0
  -27.5841  -11.9773   21.3511 C   0  0  0  0  0  0  0  0  0  0  0  0
  -25.9671  -22.1343   17.6032 C   0  0  0  0  0  0  0  0  0  0  0  0
  -27.6161   -9.6118   22.1586 C   0  0  0  0  0  0  0  0  0  0  0  0
  -26.8650  -30.5496   21.1733 C   0  0  0  0  0  0  0  0  0  0  0  0
  -29.0036  -28.4270   20.5977 C   0  0  0  0  0  0  0  0  0  0  0  0
  -31.0058  -25.6870   20.2497 C   0  0  0  0  0  0  0  0  0  0  0  0
  -27.7936  -17.3753   21.5290 C   0  0  0  0  0  0  0  0  0  0  0  0
  -29.6368  -33.0634   24.6453 C   0  0  0  0  0  0  0  0  0  0  0  0
  -25.2129  -28.7320   20.8075 C   0  0  0  0  0  0  0  0  0  0  0  0
  -27.1735  -28.1729   18.8523 C   0  0  0  0  0  0  0  0  0  0  0  0
  -29.9192  -32.3788   23.3104 C   0  0  0  0  0  0  0  0  0  0  0  0
  -27.0919  -22.9487   15.0221 C   0  0  0  0  0  0  0  0  0  0  0  0
  -25.9319  -16.0221   18.8186 C   0  0  0  0  0  0  0  0  0  0  0  0
  -28.9151  -32.8317   22.2552 C   0  0  0  0  0  0  0  0  0  0  0  0
  -25.8376  -23.6120   15.5430 C   0  0  0  0  0  0  0  0  0  0  0  0
  -25.7874  -14.5627   19.2484 C   0  0  0  0  0  0  0  0  0  0  0  0
  -27.1324  -21.4969   15.4718 C   0  0  0  0  0  0  0  0  0  0  0  0
  -25.7948  -16.9831   20.0000 C   0  0  0  0  0  0  0  0  0  0  0  0
  -26.5596  -15.2204   21.5597 C   0  0  0  0  0  0  0  0  0  0  0  0
  -27.4847  -32.4500   22.6549 C   0  0  1  0  0  0  0  0  0  0  0  0
  -25.8501  -23.5527   17.0552 C   0  0  1  0  0  0  0  0  0  1  0  0
  -26.6784  -29.0610   21.1437 C   0  0  1  0  0  0  0  0  0  0  0  0
  -26.7502  -14.2287   20.4015 C   0  0  1  0  0  0  0  0  0  0  0  0
  -33.4032  -24.9650   20.4185 C   0  0  0  0  0  0  0  0  0  0  0  0
  -29.5945  -29.7773   17.9273 C   0  0  0  0  0  0  0  0  0  0  0  0
  -31.5901  -28.2834   17.6942 C   0  0  0  0  0  0  0  0  0  0  0  0
  -31.4570  -29.8970   19.5919 C   0  0  0  0  0  0  0  0  0  0  0  0
  -28.5568  -19.7387   21.6119 C   0  0  0  0  0  0  0  0  0  0  0  0
  -30.3901  -23.7422   22.3939 C   0  0  0  0  0  0  0  0  0  0  0  0
  -29.9754  -27.8484   19.6007 C   0  0  1  0  0  0  0  0  0  0  0  0
  -32.0775  -25.1012   21.1512 C   0  0  2  0  0  0  0  0  0  0  0  0
  -30.6283  -28.9405   18.7071 C   0  0  0  0  0  0  0  0  0  0  0  0
  -25.3992  -12.2010   20.7820 N   0  0  0  0  0  0  0  0  0  0  0  0
  -26.6057  -12.7884   20.8560 N   0  0  0  0  0  0  0  0  0  0  0  0
  -26.8356  -21.2779   16.8990 N   0  0  0  0  0  0  0  0  0  0  0  0
  -27.6739  -28.5613   20.1802 N   0  0  0  0  0  0  0  0  0  0  0  0
  -26.7029  -16.6008   21.0906 N   0  0  0  0  0  0  0  0  0  0  0  0
  -28.8555  -12.4085   21.4923 N   0  0  0  0  0  0  0  0  0  0  0  0
  -28.1726   -8.6834   21.2684 N   0  0  0  0  0  0  0  0  0  0  0  0
  -27.2484  -31.0442   22.4053 N   0  0  0  0  0  0  0  0  0  0  0  0
  -30.9293  -27.0583   20.3716 N   0  0  0  0  0  0  0  0  0  0  0  0
  -27.9818  -18.6102   20.8718 N   0  0  0  0  0  0  0  0  0  0  0  0
  -31.6672  -23.7527   21.6351 N   0  3  0  0  0  0  0  0  0  0  0  0
  -25.3505  -21.8340   18.6288 O   0  0  0  0  0  0  0  0  0  0  0  0
  -27.6786   -9.3931   23.3923 O   0  0  0  0  0  0  0  0  0  0  0  0
  -26.6767  -31.2024   20.1535 O   0  0  0  0  0  0  0  0  0  0  0  0
  -29.4107  -28.7569   21.7152 O   0  0  0  0  0  0  0  0  0  0  0  0
  -30.3088  -24.9974   19.5085 O   0  0  0  0  0  0  0  0  0  0  0  0
  -28.5269  -17.0046   22.4535 O   0  0  0  0  0  0  0  0  0  0  0  0
  -21.4645   -7.2560   21.5640 O   0  0  0  0  0  0  0  0  0  0  0  0
  -24.6557  -24.1487   17.5347 O   0  0  0  0  0  0  0  0  0  1  0  0
  -22.2770   -2.7443   24.6281 F   0  0  0  0  0  0  0  0  0  0  0  0
  -19.8314   -6.6946   23.7229 F   0  0  0  0  0  0  0  0  0  0  0  0
  1  2  1  0  0  0  0
  1  6  2  0  0  0  0
  2  7  2  0  0  0  0
  3  9  2  0  0  0  0
  3 10  1  0  0  0  0
  4 11  2  0  0  0  0
  4 19  1  0  0  0  0
  5 12  1  0  0  0  0
  5 19  2  0  0  0  0
  6 21  1  0  0  0  0
  7 23  1  0  0  0  0
  8 13  2  0  0  0  0
  8 22  1  0  0  0  0
  9 25  1  0  0  0  0
 10 26  2  0  0  0  0
 11 27  1  0  0  0  0
 12 27  2  0  0  0  0
 13 28  1  0  0  0  0
 14 15  2  0  0  0  0
 14 29  1  0  0  0  0
 15 30  1  0  0  0  0
 16 24  1  0  0  0  0
 16 28  2  0  0  0  0
 17 25  2  0  0  0  0
 17 26  1  0  0  0  0
 18 30  2  0  0  0  0
 18 31  1  0  0  0  0
 19 32  1  0  0  0  0
 20 32  1  0  0  0  0
 20 33  2  0  0  0  0
 20 35  1  0  0  0  0
 21 23  2  0  0  0  0
 21 40  1  0  0  0  0
 22 24  2  0  0  0  0
 22 41  1  0  0  0  0
 23 52  1  0  0  0  0
 24 42  1  0  0  0  0
 25 67  1  0  0  0  0
 26 74  1  0  0  0  0
 27 82  1  0  0  0  0
 28 83  1  0  0  0  0
 29 31  2  0  0  0  0
 29 82  1  0  0  0  0
 30 84  1  0  0  0  0
 31 85  1  0  0  0  0
 32 65  2  0  0  0  0
 33 66  1  0  0  0  0
 33 70  1  0  0  0  0
 34 53  1  0  0  0  0
 34 67  1  0  0  0  0
 34 76  2  0  0  0  0
 35 71  1  0  0  0  0
 35 77  2  0  0  0  0
 36 54  1  0  0  0  0
 36 72  1  0  0  0  0
 36 78  2  0  0  0  0
 37 62  1  0  0  0  0
 37 68  1  0  0  0  0
 37 79  2  0  0  0  0
 38 63  1  0  0  0  0
 38 73  1  0  0  0  0
 38 80  2  0  0  0  0
 39 69  1  0  0  0  0
 39 74  1  0  0  0  0
 39 81  2  0  0  0  0
 40 43  1  0  0  0  0
 41 54  1  0  0  0  0
 42 68  1  0  0  0  0
 43 46  1  0  0  0  0
 44 47  1  0  0  0  0
 44 49  1  0  0  0  0
 45 48  1  0  0  0  0
 45 50  1  0  0  0  0
 46 52  1  0  0  0  0
 47 53  1  0  0  0  0
 48 55  1  0  0  0  0
 49 67  1  0  0  0  0
 50 69  1  0  0  0  0
 51 55  1  0  0  0  0
 51 69  1  0  0  0  0
 52 72  1  0  0  0  0
 53 83  1  0  0  0  0
 54 68  1  0  0  0  0
 55 66  1  0  0  0  0
 56 63  1  0  0  0  0
 57 64  1  0  0  0  0
 58 64  1  0  0  0  0
 59 64  1  0  0  0  0
 60 74  1  0  0  0  0
 61 75  1  0  0  0  0
 62 64  1  0  0  0  0
 62 73  1  0  0  0  0
 63 75  1  0  0  0  0
 65 66  1  0  0  0  0
M  CHG  1  75   1
M  ISO  4  39 100  53 101  74 100  83 101
M  END
> <Batch ID>
0095

> <Smiles>
CNC(C)C(=O)NC(C(=O)N1Cc2cc([101O:1][101CH:1]3CCCN(c4cccc([100N:0](C)[100C:0](=O)N5CCCC(n6nc(-c7ccc(Oc8ccc(F)cc8F)cc7)c(C(N)=O)c6N)C5)c4)C3=O)ccc2CC1C(=O)NC1CCCc2ccccc21)C(C)(C)C

> <Shape>
0.263

> <Color>
0.092

> <Negative vol penalty>
0.000

$$$$

  -OEChem-04052300433D

 85 93  0     1  0  0  0  0  0999 V2000
  -27.3496  -36.7746   17.2730 C   0  0  0  0  0  0  0  0  0  0  0  0
  -27.8096  -35.4629   17.3307 C   0  0  0  0  0  0  0  0  0  0  0  0
  -23.7282  -10.2616   22.3400 C   0  0  0  0  0  0  0  0  0  0  0  0
  -22.6245  -11.8039   20.8433 C   0  0  0  0  0  0  0  0  0  0  0  0
  -26.6093  -37.2997   18.3313 C   0  0  0  0  0  0  0  0  0  0  0  0
  -27.5304  -34.6758   18.4474 C   0  0  0  0  0  0  0  0  0  0  0  0
  -26.4566  -28.6470   18.5266 C   0  0  0  0  0  0  0  0  0  0  0  0
  -22.6371  -10.3218   23.2068 C   0  0  0  0  0  0  0  0  0  0  0  0
  -21.5333  -11.8641   21.7101 C   0  0  0  0  0  0  0  0  0  0  0  0
  -27.2706  -27.5530   18.8170 C   0  0  0  0  0  0  0  0  0  0  0  0
  -19.5343   -8.9922   23.4016 C   0  0  0  0  0  0  0  0  0  0  0  0
  -19.0551   -7.7914   23.9249 C   0  0  0  0  0  0  0  0  0  0  0  0
  -26.4431  -27.5462   21.0829 C   0  0  0  0  0  0  0  0  0  0  0  0
  -28.8185  -18.2823   17.7689 C   0  0  0  0  0  0  0  0  0  0  0  0
  -27.3489  -19.8312   16.6386 C   0  0  0  0  0  0  0  0  0  0  0  0
  -26.7704  -17.4888   16.7625 C   0  0  0  0  0  0  0  0  0  0  0  0
  -19.5065   -8.5857   26.1615 C   0  0  0  0  0  0  0  0  0  0  0  0
  -23.7220  -11.0027   21.1583 C   0  0  0  0  0  0  0  0  0  0  0  0
  -25.0394  -10.0426   19.1961 C   0  0  0  0  0  0  0  0  0  0  0  0
  -26.3126  -36.5156   19.4573 C   0  0  0  0  0  0  0  0  0  0  0  0
  -25.6364  -29.2066   19.5169 C   0  0  0  0  0  0  0  0  0  0  0  0
  -26.7865  -35.1913   19.5224 C   0  0  0  0  0  0  0  0  0  0  0  0
  -25.6176  -28.6457   20.8019 C   0  0  0  0  0  0  0  0  0  0  0  0
  -28.5215  -19.5794   17.3508 C   0  0  0  0  0  0  0  0  0  0  0  0
  -27.9430  -17.2369   17.4747 C   0  0  0  0  0  0  0  0  0  0  0  0
  -21.5396  -11.1230   22.8918 C   0  0  0  0  0  0  0  0  0  0  0  0
  -27.2661  -27.0043   20.0960 C   0  0  0  0  0  0  0  0  0  0  0  0
  -19.9998   -9.9899   24.2583 C   0  0  0  0  0  0  0  0  0  0  0  0
  -19.0411   -7.5881   25.3048 C   0  0  0  0  0  0  0  0  0  0  0  0
  -26.4733  -18.7859   16.3444 C   0  0  0  0  0  0  0  0  0  0  0  0
  -19.9859   -9.7866   25.6382 C   0  0  0  0  0  0  0  0  0  0  0  0
  -24.8491  -10.9413   20.2628 C   0  0  0  0  0  0  0  0  0  0  0  0
  -26.2547  -10.3957   18.6623 C   0  0  0  0  0  0  0  0  0  0  0  0
  -24.1933   -8.9835   18.7293 C   0  0  0  0  0  0  0  0  0  0  0  0
  -25.4425  -32.0489   20.9266 C   0  0  0  0  0  0  0  0  0  0  0  0
  -22.7979  -30.7577   22.2909 C   0  0  0  0  0  0  0  0  0  0  0  0
  -29.1645  -21.3873   18.9914 C   0  0  0  0  0  0  0  0  0  0  0  0
  -28.5911  -23.6385   19.8444 C   0  0  0  0  0  0  0  0  0  0  0  0
  -21.1046  -27.9510   23.2407 C   0  0  0  0  0  0  0  0  0  0  0  0
  -29.3651  -15.4975   18.6143 C   0  0  0  0  0  0  0  0  0  0  0  0
  -25.5493  -37.1418   20.5974 C   0  0  0  0  0  0  0  0  0  0  0  0
  -24.7442  -30.3699   19.1804 C   0  0  0  0  0  0  0  0  0  0  0  0
  -24.7401  -29.1967   21.8949 C   0  0  0  0  0  0  0  0  0  0  0  0
  -24.9771  -36.1231   21.5797 C   0  0  0  0  0  0  0  0  0  0  0  0
  -30.4530  -12.3521   19.8792 C   0  0  0  0  0  0  0  0  0  0  0  0
  -26.0311  -35.0823   21.9438 C   0  0  0  0  0  0  0  0  0  0  0  0
  -29.1574  -11.5495   20.0183 C   0  0  0  0  0  0  0  0  0  0  0  0
  -30.2476  -13.8255   20.2268 C   0  0  0  0  0  0  0  0  0  0  0  0
  -27.8583  -13.6846   19.6432 C   0  0  0  0  0  0  0  0  0  0  0  0
  -26.4830  -34.2983   20.7058 C   0  0  1  0  0  0  0  0  0  0  0  0
  -24.3324  -31.1809   20.4052 C   0  0  1  0  0  0  0  0  0  0  0  0
  -28.0006  -12.2076   19.2409 C   0  0  2  0  0  0  0  0  0  0  0  0
  -18.9859  -27.2149   24.3661 C   0  0  0  0  0  0  0  0  0  0  0  0
  -23.9715  -31.5291   24.9996 C   0  0  0  0  0  0  0  0  0  0  0  0
  -22.3367  -29.9671   26.0746 C   0  0  0  0  0  0  0  0  0  0  0  0
  -21.5133  -31.9309   24.7752 C   0  0  0  0  0  0  0  0  0  0  0  0
  -20.1953  -26.4916   20.8319 C   0  0  0  0  0  0  0  0  0  0  0  0
  -29.4660  -20.7083   17.6686 C   0  0  0  0  0  0  0  0  0  0  0  0
  -28.3465  -25.0353   19.3138 C   0  0  0  0  0  0  0  0  0  1  0  0
  -22.5208  -29.9650   23.5454 C   0  0  1  0  0  0  0  0  0  0  0  0
  -19.6601  -27.5297   23.0398 C   0  0  2  0  0  0  0  0  0  0  0  0
  -22.6037  -30.8386   24.8289 C   0  0  0  0  0  0  0  0  0  0  0  0
  -25.8625  -11.8006   20.4001 N   0  0  0  0  0  0  0  0  0  0  0  0
  -26.7012  -11.4434   19.4128 N   0  0  0  0  0  0  0  0  0  0  0  0
  -23.8904  -30.3385   21.5184 N   0  0  0  0  0  0  0  0  0  0  0  0
  -29.1388  -14.3828   19.4492 N   0  0  0  0  0  0  0  0  0  0  0  0
  -26.9743   -9.9090   17.6290 N   0  0  0  0  0  0  0  0  0  0  0  0
  -22.9793   -8.7568   19.3921 N   0  0  0  0  0  0  0  0  0  0  0  0
  -28.2446  -15.9191   17.8991 N   0  0  0  0  0  0  0  0  0  0  0  0
  -25.4945  -33.3032   20.3491 N   0  0  0  0  0  0  0  0  0  0  0  0
  -28.8913  -22.7458   18.8151 N   0  0  0  0  0  0  0  0  0  0  0  0
  -21.2276  -29.3205   23.3437 N   0  0  0  0  0  0  0  0  0  0  0  0
  -19.5896  -26.3166   22.1771 N   0  3  0  0  0  0  0  0  0  0  0  0
  -24.5120   -8.2490   17.7637 O   0  0  0  0  0  0  0  0  0  0  0  0
  -26.1952  -31.6135   21.7901 O   0  0  0  0  0  0  0  0  0  0  0  0
  -22.0676  -31.7092   22.0031 O   0  0  0  0  0  0  0  0  0  0  0  0
  -29.1768  -20.8014   20.0707 O   0  0  0  0  0  0  0  0  0  0  0  0
  -28.5254  -23.3596   21.0383 O   0  0  0  0  0  0  0  0  0  0  0  0
  -22.0308  -27.1456   23.3040 O   0  0  0  0  0  0  0  0  0  0  0  0
  -30.4779  -16.0214   18.5186 O   0  0  0  0  0  0  0  0  0  0  0  0
  -20.4745  -11.1818   23.7373 O   0  0  0  0  0  0  0  0  0  0  0  0
  -28.0602  -25.9369   20.3822 O   0  0  0  0  0  0  0  0  0  1  0  0
  -18.5794   -6.4355   25.8072 F   0  0  0  0  0  0  0  0  0  0  0  0
  -25.3473  -19.0279   15.6605 F   0  0  0  0  0  0  0  0  0  0  0  0
  -20.4306  -10.7418   26.4662 F   0  0  0  0  0  0  0  0  0  0  0  0
  1  2  1  0  0  0  0
  1  5  2  0  0  0  0
  2  6  2  0  0  0  0
  3  8  2  0  0  0  0
  3 18  1  0  0  0  0
  4  9  1  0  0  0  0
  4 18  2  0  0  0  0
  5 20  1  0  0  0  0
  6 22  1  0  0  0  0
  7 10  2  0  0  0  0
  7 21  1  0  0  0  0
  8 26  1  0  0  0  0
  9 26  2  0  0  0  0
 10 27  1  0  0  0  0
 11 12  2  0  0  0  0
 11 28  1  0  0  0  0
 12 29  1  0  0  0  0
 13 23  1  0  0  0  0
 13 27  2  0  0  0  0
 14 24  2  0  0  0  0
 14 25  1  0  0  0  0
 15 24  1  0  0  0  0
 15 30  2  0  0  0  0
 16 25  2  0  0  0  0
 16 30  1  0  0  0  0
 17 29  2  0  0  0  0
 17 31  1  0  0  0  0
 18 32  1  0  0  0  0
 19 32  1  0  0  0  0
 19 33  2  0  0  0  0
 19 34  1  0  0  0  0
 20 22  2  0  0  0  0
 20 41  1  0  0  0  0
 21 23  2  0  0  0  0
 21 42  1  0  0  0  0
 22 50  1  0  0  0  0
 23 43  1  0  0  0  0
 24 58  1  0  0  0  0
 25 69  1  0  0  0  0
 26 81  1  0  0  0  0
 27 82  1  0  0  0  0
 28 31  2  0  0  0  0
 28 81  1  0  0  0  0
 29 83  1  0  0  0  0
 30 84  1  0  0  0  0
 31 85  1  0  0  0  0
 32 63  2  0  0  0  0
 33 64  1  0  0  0  0
 33 67  1  0  0  0  0
 34 68  1  0  0  0  0
 34 74  2  0  0  0  0
 35 51  1  0  0  0  0
 35 70  1  0  0  0  0
 35 75  2  0  0  0  0
 36 60  1  0  0  0  0
 36 65  1  0  0  0  0
 36 76  2  0  0  0  0
 37 58  1  0  0  0  0
 37 71  1  0  0  0  0
 37 77  2  0  0  0  0
 38 59  1  0  0  0  0
 38 71  1  0  0  0  0
 38 78  2  0  0  0  0
 39 61  1  0  0  0  0
 39 72  1  0  0  0  0
 39 79  2  0  0  0  0
 40 66  1  0  0  0  0
 40 69  1  0  0  0  0
 40 80  2  0  0  0  0
 41 44  1  0  0  0  0
 42 51  1  0  0  0  0
 43 65  1  0  0  0  0
 44 46  1  0  0  0  0
 45 47  1  0  0  0  0
 45 48  1  0  0  0  0
 46 50  1  0  0  0  0
 47 52  1  0  0  0  0
 48 66  1  0  0  0  0
 49 52  1  0  0  0  0
 49 66  1  0  0  0  0
 50 70  1  0  0  0  0
 51 65  1  0  0  0  0
 52 64  1  0  0  0  0
 53 61  1  0  0  0  0
 54 62  1  0  0  0  0
 55 62  1  0  0  0  0
 56 62  1  0  0  0  0
 57 73  1  0  0  0  0
 59 82  1  0  0  0  0
 60 62  1  0  0  0  0
 60 72  1  0  0  0  0
 61 73  1  0  0  0  0
 63 64  1  0  0  0  0
M  CHG  1  73   1
M  ISO  4  40 100  59 101  69 100  82 101
M  END
> <Batch ID>
0095

> <Smiles>
CNC(C)C(=O)NC(C(=O)N1Cc2cc([101O:1][101CH2:1]C(=O)NC(=O)Cc3cc(F)cc([100NH:0][100C:0](=O)N4CCCC(n5nc(-c6ccc(Oc7ccc(F)cc7F)cc6)c(C(N)=O)c5N)C4)c3)ccc2CC1C(=O)NC1CCCc2ccccc21)C(C)(C)C

> <Shape>
0.234

> <Color>
0.097

> <Negative vol penalty>
0.000

$$$$

  -OEChem-04052300433D

 86 95  0     1  0  0  0  0  0999 V2000
  -27.6206  -35.3095   25.1640 C   0  0  0  0  0  0  0  0  0  0  0  0
  -28.0432  -34.0292   24.8209 C   0  0  0  0  0  0  0  0  0  0  0  0
  -23.5332   -9.6624   21.1904 C   0  0  0  0  0  0  0  0  0  0  0  0
  -24.1507  -10.5785   23.3390 C   0  0  0  0  0  0  0  0  0  0  0  0
  -26.2611  -35.5742   25.3236 C   0  0  0  0  0  0  0  0  0  0  0  0
  -27.1064  -33.0126   24.6382 C   0  0  0  0  0  0  0  0  0  0  0  0
  -27.4185  -28.3965   20.6257 C   0  0  0  0  0  0  0  0  0  0  0  0
  -22.9337   -8.5753   21.8262 C   0  0  0  0  0  0  0  0  0  0  0  0
  -23.5512   -9.4914   23.9748 C   0  0  0  0  0  0  0  0  0  0  0  0
  -27.8144  -27.0660   20.7554 C   0  0  0  0  0  0  0  0  0  0  0  0
  -20.0359   -7.9219   23.4414 C   0  0  0  0  0  0  0  0  0  0  0  0
  -18.7769   -7.5225   22.9933 C   0  0  0  0  0  0  0  0  0  0  0  0
  -25.5101  -26.4152   21.0485 C   0  0  0  0  0  0  0  0  0  0  0  0
  -31.3961  -18.0830   21.3086 C   0  0  0  0  0  0  0  0  0  0  0  0
  -19.6627   -5.3416   22.4489 C   0  0  0  0  0  0  0  0  0  0  0  0
  -24.1418  -10.6641   21.9468 C   0  0  0  0  0  0  0  0  0  0  0  0
  -24.1559  -13.0095   20.9437 C   0  0  0  0  0  0  0  0  0  0  0  0
  -25.3065  -34.5626   25.1333 C   0  0  0  0  0  0  0  0  0  0  0  0
  -26.0641  -28.7482   20.7174 C   0  0  0  0  0  0  0  0  0  0  0  0
  -25.7329  -33.2637   24.7967 C   0  0  0  0  0  0  0  0  0  0  0  0
  -25.0994  -27.7505   20.9170 C   0  0  0  0  0  0  0  0  0  0  0  0
  -29.1012  -18.7963   21.5569 C   0  0  0  0  0  0  0  0  0  0  0  0
  -29.5360  -20.0085   22.0929 C   0  0  0  0  0  0  0  0  0  0  0  0
  -30.0313  -17.8335   21.1648 C   0  0  0  0  0  0  0  0  0  0  0  0
  -31.8309  -19.2952   21.8446 C   0  0  0  0  0  0  0  0  0  0  0  0
  -30.9008  -20.2580   22.2367 C   0  0  0  0  0  0  0  0  0  0  0  0
  -22.9427   -8.4897   23.2184 C   0  0  0  0  0  0  0  0  0  0  0  0
  -26.8605  -26.0755   20.9698 C   0  0  0  0  0  0  0  0  0  0  0  0
  -21.1084   -7.0313   23.3932 C   0  0  0  0  0  0  0  0  0  0  0  0
  -18.5902   -6.2323   22.4971 C   0  0  0  0  0  0  0  0  0  0  0  0
  -20.9217   -5.7411   22.8970 C   0  0  0  0  0  0  0  0  0  0  0  0
  -24.7617  -11.7871   21.2905 C   0  0  0  0  0  0  0  0  0  0  0  0
  -25.1596  -13.7332   20.3476 C   0  0  0  0  0  0  0  0  0  0  0  0
  -27.2753  -22.8541   22.4981 C   0  0  0  0  0  0  0  0  0  0  0  0
  -26.9469  -24.1291   22.2639 C   0  0  0  0  0  0  0  0  0  1  0  0
  -22.8065  -13.4514   21.1426 C   0  0  0  0  0  0  0  0  0  0  0  0
  -24.3488  -30.5765   22.6715 C   0  0  0  0  0  0  0  0  0  0  0  0
  -21.9706  -29.9219   20.5649 C   0  0  0  0  0  0  0  0  0  0  0  0
  -20.7065  -27.8340   18.1796 C   0  0  0  0  0  0  0  0  0  0  0  0
  -30.4219  -15.5456   20.1854 C   0  0  0  0  0  0  0  0  0  0  0  0
  -23.8513  -34.8852   25.3632 C   0  0  0  0  0  0  0  0  0  0  0  0
  -25.6508  -30.1846   20.5485 C   0  0  0  0  0  0  0  0  0  0  0  0
  -23.6307  -28.0733   21.0028 C   0  0  0  0  0  0  0  0  0  0  0  0
  -26.9719  -22.1045   23.7566 C   0  0  0  0  0  0  0  0  0  0  0  0
  -28.1035  -21.9981   21.5876 C   0  0  0  0  0  0  0  0  0  0  0  0
  -22.8976  -33.8430   24.7848 C   0  0  0  0  0  0  0  0  0  0  0  0
  -29.7735  -12.3237   18.8157 C   0  0  0  0  0  0  0  0  0  0  0  0
  -23.3590  -32.4359   25.1505 C   0  0  0  0  0  0  0  0  0  0  0  0
  -28.3620  -11.9974   19.3089 C   0  0  0  0  0  0  0  0  0  0  0  0
  -28.1297  -21.1147   23.8502 C   0  0  0  0  0  0  0  0  0  0  0  0
  -30.5792  -13.0863   19.8660 C   0  0  0  0  0  0  0  0  0  0  0  0
  -28.5165  -13.9663   20.8859 C   0  0  0  0  0  0  0  0  0  0  0  0
  -24.7454  -32.1404   24.5656 C   0  0  1  0  0  0  0  0  0  0  0  0
  -24.2932  -30.4930   21.1723 C   0  0  1  0  0  0  0  0  0  0  0  0
  -27.6451  -13.2552   19.8377 C   0  0  2  0  0  0  0  0  0  0  0  0
  -27.6363  -18.5263   21.4015 C   0  0  0  0  0  0  0  0  0  0  0  0
  -18.7265  -27.5425   16.6657 C   0  0  0  0  0  0  0  0  0  0  0  0
  -20.2983  -28.9808   22.9371 C   0  0  0  0  0  0  0  0  0  0  0  0
  -18.7634  -27.8472   21.3162 C   0  0  0  0  0  0  0  0  0  0  0  0
  -19.0421  -30.3251   21.2432 C   0  0  0  0  0  0  0  0  0  0  0  0
  -22.3939  -27.9815   15.7528 C   0  0  0  0  0  0  0  0  0  0  0  0
  -20.9238  -28.8418   20.4361 C   0  0  1  0  0  0  0  0  0  0  0  0
  -20.1310  -28.1096   16.8022 C   0  0  2  0  0  0  0  0  0  0  0  0
  -19.7847  -28.9926   21.4835 C   0  0  0  0  0  0  0  0  0  0  0  0
  -26.0504  -11.7335   20.9436 N   0  0  0  0  0  0  0  0  0  0  0  0
  -26.2626  -12.9313   20.3723 N   0  0  0  0  0  0  0  0  0  0  0  0
  -28.6125  -20.9597   22.4800 N   0  0  3  0  0  0  0  0  0  0  0  0
  -23.2772  -29.4929   20.8378 N   0  0  0  0  0  0  0  0  0  0  0  0
  -29.8397  -14.2672   20.3172 N   0  0  0  0  0  0  0  0  0  0  0  0
  -33.2185  -19.5253   21.9809 N   0  0  0  0  0  0  0  0  0  0  0  0
  -31.3438  -21.4878   22.7804 N   0  0  0  0  0  0  0  0  0  0  0  0
  -25.1974  -14.9708   19.8098 N   0  0  0  0  0  0  0  0  0  0  0  0
  -21.9046  -12.5823   21.7715 N   0  0  0  0  0  0  0  0  0  0  0  0
  -29.6122  -16.5953   20.6182 N   0  0  0  0  0  0  0  0  0  0  0  0
  -24.6444  -31.8371   23.1542 N   0  0  0  0  0  0  0  0  0  0  0  0
  -20.4696  -28.8768   19.0501 N   0  0  0  0  0  0  0  0  0  0  0  0
  -20.9897  -27.4964   15.7498 N   0  3  0  0  0  0  0  0  0  0  0  0
  -22.4080  -14.5772   20.7588 O   0  0  0  0  0  0  0  0  0  0  0  0
  -24.1376  -29.5720   23.3409 O   0  0  0  0  0  0  0  0  0  0  0  0
  -21.6424  -31.1023   20.4213 O   0  0  0  0  0  0  0  0  0  0  0  0
  -21.3030  -26.7958   18.4568 O   0  0  0  0  0  0  0  0  0  0  0  0
  -31.5444  -15.7004   19.6976 O   0  0  0  0  0  0  0  0  0  0  0  0
  -22.3576   -7.4292   23.8392 O   0  0  0  0  0  0  0  0  0  0  0  0
  -27.2443  -24.7762   21.0974 O   0  0  0  0  0  0  0  0  0  1  0  0
  -17.3808   -5.8483   22.0683 F   0  0  0  0  0  0  0  0  0  0  0  0
  -21.9480   -4.8806   22.8493 F   0  0  0  0  0  0  0  0  0  0  0  0
  1  2  1  0  0  0  0
  1  5  2  0  0  0  0
  2  6  2  0  0  0  0
  3  8  2  0  0  0  0
  3 16  1  0  0  0  0
  4  9  1  0  0  0  0
  4 16  2  0  0  0  0
  5 18  1  0  0  0  0
  6 20  1  0  0  0  0
  7 10  2  0  0  0  0
  7 19  1  0  0  0  0
  8 27  1  0  0  0  0
  9 27  2  0  0  0  0
 10 28  1  0  0  0  0
 11 12  2  0  0  0  0
 11 29  1  0  0  0  0
 12 30  1  0  0  0  0
 13 21  1  0  0  0  0
 13 28  2  0  0  0  0
 14 24  1  0  0  0  0
 14 25  2  0  0  0  0
 15 30  2  0  0  0  0
 15 31  1  0  0  0  0
 16 32  1  0  0  0  0
 17 32  1  0  0  0  0
 17 33  2  0  0  0  0
 17 36  1  0  0  0  0
 18 20  2  0  0  0  0
 18 41  1  0  0  0  0
 19 21  2  0  0  0  0
 19 42  1  0  0  0  0
 20 53  1  0  0  0  0
 21 43  1  0  0  0  0
 22 23  1  0  0  0  0
 22 24  2  0  0  0  0
 22 56  1  0  0  0  0
 23 26  2  0  0  0  0
 23 67  1  0  0  0  0
 24 74  1  0  0  0  0
 25 26  1  0  0  0  0
 25 70  1  0  0  0  0
 26 71  1  0  0  0  0
 27 83  1  0  0  0  0
 28 84  1  0  0  0  0
 29 31  2  0  0  0  0
 29 83  1  0  0  0  0
 30 85  1  0  0  0  0
 31 86  1  0  0  0  0
 32 65  2  0  0  0  0
 33 66  1  0  0  0  0
 33 72  1  0  0  0  0
 34 35  2  0  0  0  0
 34 44  1  0  0  0  0
 34 45  1  0  0  0  0
 35 84  1  0  0  0  0
 36 73  1  0  0  0  0
 36 78  2  0  0  0  0
 37 54  1  0  0  0  0
 37 75  1  0  0  0  0
 37 79  2  0  0  0  0
 38 62  1  0  0  0  0
 38 68  1  0  0  0  0
 38 80  2  0  0  0  0
 39 63  1  0  0  0  0
 39 76  1  0  0  0  0
 39 81  2  0  0  0  0
 40 69  1  0  0  0  0
 40 74  1  0  0  0  0
 40 82  2  0  0  0  0
 41 46  1  0  0  0  0
 42 54  1  0  0  0  0
 43 68  1  0  0  0  0
 44 50  1  0  0  0  0
 45 67  1  0  0  0  0
 46 48  1  0  0  0  0
 47 49  1  0  0  0  0
 47 51  1  0  0  0  0
 48 53  1  0  0  0  0
 49 55  1  0  0  0  0
 50 67  1  0  0  0  0
 51 69  1  0  0  0  0
 52 55  1  0  0  0  0
 52 69  1  0  0  0  0
 53 75  1  0  0  0  0
 54 68  1  0  0  0  0
 55 66  1  0  0  0  0
 57 63  1  0  0  0  0
 58 64  1  0  0  0  0
 59 64  1  0  0  0  0
 60 64  1  0  0  0  0
 61 77  1  0  0  0  0
 62 64  1  0  0  0  0
 62 76  1  0  0  0  0
 63 77  1  0  0  0  0
 65 66  1  0  0  0  0
M  CHG  1  77   1
M  ISO  4  35 101  40 100  74 100  84 101
M  END
> <Batch ID>
0095

> <Smiles>
CNC(C)C(=O)NC(C(=O)N1Cc2cc([101O:1][101CH:1]=C3CCN(c4c(C)c([100NH:0][100C:0](=O)N5CCCC(n6nc(-c7ccc(Oc8ccc(F)cc8F)cc7)c(C(N)=O)c6N)C5)cc(N)c4N)C3)ccc2CC1C(=O)NC1CCCc2ccccc21)C(C)(C)C

> <Shape>
0.310

> <Color>
0.139

> <Negative vol penalty>
0.000

$$$$

  -OEChem-04052300433D

 83 91  0     1  0  0  0  0  0999 V2000
  -32.0075  -25.1675   15.3057 C   0  0  0  0  0  0  0  0  0  0  0  0
  -30.6223  -25.2856   15.3580 C   0  0  0  0  0  0  0  0  0  0  0  0
  -24.9713  -13.6854   18.5172 C   0  0  0  0  0  0  0  0  0  0  0  0
  -24.7378  -13.8081   20.9187 C   0  0  0  0  0  0  0  0  0  0  0  0
  -23.4445  -22.9061   21.8661 C   0  0  0  0  0  0  0  0  0  0  0  0
  -32.7496  -25.1503   16.4859 C   0  0  0  0  0  0  0  0  0  0  0  0
  -29.9784  -25.3856   16.5908 C   0  0  0  0  0  0  0  0  0  0  0  0
  -24.9483  -28.6390   17.8635 C   0  0  0  0  0  0  0  0  0  0  0  0
  -25.0811  -12.2973   18.5988 C   0  0  0  0  0  0  0  0  0  0  0  0
  -24.8476  -12.4200   21.0003 C   0  0  0  0  0  0  0  0  0  0  0  0
  -22.4053  -23.4045   21.0805 C   0  0  0  0  0  0  0  0  0  0  0  0
  -23.6037  -28.2853   17.9669 C   0  0  0  0  0  0  0  0  0  0  0  0
  -22.8622   -9.7321   20.4963 C   0  0  0  0  0  0  0  0  0  0  0  0
  -21.9609   -9.0596   21.3215 C   0  0  0  0  0  0  0  0  0  0  0  0
  -24.9335  -23.0164   19.9667 C   0  0  0  0  0  0  0  0  0  0  0  0
  -23.8498  -28.0718   20.3571 C   0  0  0  0  0  0  0  0  0  0  0  0
  -23.8004   -8.2055   22.6345 C   0  0  0  0  0  0  0  0  0  0  0  0
  -24.7997  -14.4408   19.6772 C   0  0  0  0  0  0  0  0  0  0  0  0
  -24.7086  -22.7121   21.3093 C   0  0  0  0  0  0  0  0  0  0  0  0
  -23.5068  -16.6271   19.4406 C   0  0  0  0  0  0  0  0  0  0  0  0
  -32.1152  -25.2598   17.7333 C   0  0  0  0  0  0  0  0  0  0  0  0
  -25.7578  -28.7012   19.0069 C   0  0  0  0  0  0  0  0  0  0  0  0
  -30.7126  -25.3685   17.7889 C   0  0  0  0  0  0  0  0  0  0  0  0
  -25.2038  -28.4290   20.2659 C   0  0  0  0  0  0  0  0  0  0  0  0
  -25.0192  -11.6645   19.8403 C   0  0  0  0  0  0  0  0  0  0  0  0
  -23.0549  -27.9988   19.2134 C   0  0  0  0  0  0  0  0  0  0  0  0
  -24.2326   -9.6412   20.7401 C   0  0  0  0  0  0  0  0  0  0  0  0
  -22.6302  -23.7088   19.7379 C   0  0  0  0  0  0  0  0  0  0  0  0
  -22.4300   -8.2964   22.3906 C   0  0  0  0  0  0  0  0  0  0  0  0
  -23.8943  -23.5147   19.1810 C   0  0  0  0  0  0  0  0  0  0  0  0
  -24.7017   -8.8779   21.8092 C   0  0  0  0  0  0  0  0  0  0  0  0
  -24.6868  -15.8748   19.5936 C   0  0  0  0  0  0  0  0  0  0  0  0
  -23.9327  -17.9327   19.4161 C   0  0  0  0  0  0  0  0  0  0  0  0
  -25.7923  -22.1921   22.1281 C   0  0  0  0  0  0  0  0  0  0  0  0
  -22.1472  -16.1853   19.3305 C   0  0  0  0  0  0  0  0  0  0  0  0
  -27.1459  -21.9745   21.5680 C   0  0  0  0  0  0  0  0  0  0  0  0
  -28.3619  -27.1712   19.9975 C   0  0  0  0  0  0  0  0  0  0  0  0
  -28.2361  -29.3293   22.4159 C   0  0  0  0  0  0  0  0  0  0  0  0
  -26.3545  -31.4680   24.2955 C   0  0  0  0  0  0  0  0  0  0  0  0
  -32.9555  -25.1890   18.9838 C   0  0  0  0  0  0  0  0  0  0  0  0
  -27.1998  -29.1103   18.8816 C   0  0  0  0  0  0  0  0  0  0  0  0
  -26.0252  -28.5012   21.5262 C   0  0  0  0  0  0  0  0  0  0  0  0
  -32.2288  -25.6767   20.2345 C   0  0  0  0  0  0  0  0  0  0  0  0
  -28.5724  -19.8875   19.0252 C   0  0  0  0  0  0  0  0  0  0  0  0
  -30.8294  -25.0741   20.3079 C   0  0  0  0  0  0  0  0  0  0  0  0
  -27.6116  -18.7006   18.9625 C   0  0  0  0  0  0  0  0  0  0  0  0
  -28.7004  -20.4277   20.4458 C   0  0  0  0  0  0  0  0  0  0  0  0
  -26.4267  -19.6141   21.0086 C   0  0  0  0  0  0  0  0  0  0  0  0
  -29.9797  -25.5042   19.1059 C   0  0  1  0  0  0  0  0  0  0  0  0
  -28.0578  -28.6416   20.0527 C   0  0  1  0  0  0  0  0  0  0  0  0
  -26.2502  -19.0587   19.5845 C   0  0  2  0  0  0  0  0  0  0  0  0
  -26.5232  -33.0655   26.2234 C   0  0  0  0  0  0  0  0  0  0  0  0
  -28.3365  -26.9753   24.3546 C   0  0  0  0  0  0  0  0  0  0  0  0
  -27.5557  -28.5210   26.1627 C   0  0  0  0  0  0  0  0  0  0  0  0
  -29.7352  -28.9377   25.0231 C   0  0  0  0  0  0  0  0  0  0  0  0
  -25.5069  -33.7577   22.6228 C   0  0  0  0  0  0  0  0  0  0  0  0
  -20.0711  -26.0308   18.6879 C   0  0  0  0  0  0  0  0  0  0  0  0
  -21.1600  -26.9756   18.2044 C   0  0  0  0  0  0  0  0  0  1  0  0
  -20.6163  -24.9691   19.6302 C   0  0  0  0  0  0  0  0  0  0  0  0
  -27.5805  -29.3750   23.7750 C   0  0  1  0  0  0  0  0  0  0  0  0
  -26.5823  -32.9099   24.7118 C   0  0  2  0  0  0  0  0  0  0  0  0
  -28.2867  -28.4489   24.8051 C   0  0  0  0  0  0  0  0  0  0  0  0
  -25.7802  -16.6388   19.6613 N   0  0  0  0  0  0  0  0  0  0  0  0
  -25.6542  -21.8876   23.3903 N   0  0  0  0  0  0  0  0  0  0  0  0
  -25.2891  -17.8848   19.5503 N   0  0  0  0  0  0  0  0  0  0  0  0
  -27.3889  -20.7232   21.0191 N   0  0  0  0  0  0  0  0  0  0  0  0
  -27.4316  -28.8996   21.3510 N   0  0  0  0  0  0  0  0  0  0  0  0
  -23.2755  -19.1055   19.2930 N   0  0  0  0  0  0  0  0  0  0  0  0
  -21.8863  -14.8090   19.3747 N   0  0  0  0  0  0  0  0  0  0  0  0
  -29.5029  -26.8591   19.2831 N   0  0  0  0  0  0  0  0  0  0  0  0
  -27.5426  -30.7809   24.1629 N   0  0  0  0  0  0  0  0  0  0  0  0
  -25.5454  -33.7935   24.1075 N   0  3  0  0  0  0  0  0  0  0  0  0
  -21.1937  -16.9865   19.1804 O   0  0  0  0  0  0  0  0  0  0  0  0
  -27.9100  -22.9272   21.6501 O   0  0  0  0  0  0  0  0  0  0  0  0
  -27.6175  -26.3786   20.5625 O   0  0  0  0  0  0  0  0  0  0  0  0
  -29.4163  -29.6694   22.3021 O   0  0  0  0  0  0  0  0  0  0  0  0
  -25.2344  -30.9971   24.1104 O   0  0  0  0  0  0  0  0  0  0  0  0
  -25.1261  -10.3100   19.9203 O   0  0  0  0  0  0  0  0  0  0  0  0
  -21.7429  -27.6527   19.3171 O   0  0  0  0  0  0  0  0  0  1  0  0
  -21.6088  -24.1985   18.9662 O   0  0  0  0  0  0  0  0  0  0  0  0
  -21.5643   -7.6519   23.1840 F   0  0  0  0  0  0  0  0  0  0  0  0
  -24.1172  -23.8055   17.8919 F   0  0  0  0  0  0  0  0  0  0  0  0
  -26.0170   -8.7878   22.0491 F   0  0  0  0  0  0  0  0  0  0  0  0
  1  2  1  0  0  0  0
  1  6  2  0  0  0  0
  2  7  2  0  0  0  0
  3  9  2  0  0  0  0
  3 18  1  0  0  0  0
  4 10  1  0  0  0  0
  4 18  2  0  0  0  0
  5 11  2  0  0  0  0
  5 19  1  0  0  0  0
  6 21  1  0  0  0  0
  7 23  1  0  0  0  0
  8 12  2  0  0  0  0
  8 22  1  0  0  0  0
  9 25  1  0  0  0  0
 10 25  2  0  0  0  0
 11 28  1  0  0  0  0
 12 26  1  0  0  0  0
 13 14  2  0  0  0  0
 13 27  1  0  0  0  0
 14 29  1  0  0  0  0
 15 19  2  0  0  0  0
 15 30  1  0  0  0  0
 16 24  1  0  0  0  0
 16 26  2  0  0  0  0
 17 29  2  0  0  0  0
 17 31  1  0  0  0  0
 18 32  1  0  0  0  0
 19 34  1  0  0  0  0
 20 32  1  0  0  0  0
 20 33  2  0  0  0  0
 20 35  1  0  0  0  0
 21 23  2  0  0  0  0
 21 40  1  0  0  0  0
 22 24  2  0  0  0  0
 22 41  1  0  0  0  0
 23 49  1  0  0  0  0
 24 42  1  0  0  0  0
 25 78  1  0  0  0  0
 26 79  1  0  0  0  0
 27 31  2  0  0  0  0
 27 78  1  0  0  0  0
 28 30  2  0  0  0  0
 28 80  1  0  0  0  0
 29 81  1  0  0  0  0
 30 82  1  0  0  0  0
 31 83  1  0  0  0  0
 32 63  2  0  0  0  0
 33 65  1  0  0  0  0
 33 68  1  0  0  0  0
 34 36  1  0  0  0  0
 34 64  2  0  0  0  0
 35 69  1  0  0  0  0
 35 73  2  0  0  0  0
 36 66  1  0  0  0  0
 36 74  2  0  0  0  0
 37 50  1  0  0  0  0
 37 70  1  0  0  0  0
 37 75  2  0  0  0  0
 38 60  1  0  0  0  0
 38 67  1  0  0  0  0
 38 76  2  0  0  0  0
 39 61  1  0  0  0  0
 39 71  1  0  0  0  0
 39 77  2  0  0  0  0
 40 43  1  0  0  0  0
 41 50  1  0  0  0  0
 42 67  1  0  0  0  0
 43 45  1  0  0  0  0
 44 46  1  0  0  0  0
 44 47  1  0  0  0  0
 45 49  1  0  0  0  0
 46 51  1  0  0  0  0
 47 66  1  0  0  0  0
 48 51  1  0  0  0  0
 48 66  1  0  0  0  0
 49 70  1  0  0  0  0
 50 67  1  0  0  0  0
 51 65  1  0  0  0  0
 52 61  1  0  0  0  0
 53 62  1  0  0  0  0
 54 62  1  0  0  0  0
 55 62  1  0  0  0  0
 56 72  1  0  0  0  0
 57 58  1  0  0  0  0
 57 59  1  0  0  0  0
 58 79  1  0  0  0  0
 59 80  1  0  0  0  0
 60 62  1  0  0  0  0
 60 71  1  0  0  0  0
 61 72  1  0  0  0  0
 63 65  1  0  0  0  0
M  CHG  1  72   1
M  ISO  4  34 100  36 100  58 101  79 101
M  END
> <Batch ID>
0095

> <Smiles>
CNC(C)C(=O)NC(C(=O)N1Cc2cc([101O:1][101CH2:1]CCOc3ccc([100C:0](=N)[100C:0](=O)N4CCCC(n5nc(-c6ccc(Oc7ccc(F)cc7F)cc6)c(C(N)=O)c5N)C4)cc3F)ccc2CC1C(=O)NC1CCCc2ccccc21)C(C)(C)C

> <Shape>
0.224

> <Color>
0.060

> <Negative vol penalty>
0.000

$$$$

  -OEChem-04052300433D

 86 95  0     1  0  0  0  0  0999 V2000
  -17.2793  -30.2663   24.5827 C   0  0  0  0  0  0  0  0  0  0  0  0
  -18.5856  -30.4804   25.0106 C   0  0  0  0  0  0  0  0  0  0  0  0
  -24.6087  -14.9992   20.6705 C   0  0  0  0  0  0  0  0  0  0  0  0
  -26.5747  -14.8801   22.0697 C   0  0  0  0  0  0  0  0  0  0  0  0
  -17.0191  -29.3301   23.5828 C   0  0  0  0  0  0  0  0  0  0  0  0
  -19.6325  -29.7577   24.4394 C   0  0  0  0  0  0  0  0  0  0  0  0
  -25.3309  -31.7397   23.3879 C   0  0  0  0  0  0  0  0  0  0  0  0
  -30.3824  -25.6952   24.4671 C   0  0  0  0  0  0  0  0  0  0  0  0
  -29.7470  -24.9336   23.4865 C   0  0  0  0  0  0  0  0  0  0  0  0
  -24.7056  -13.6308   20.4179 C   0  0  0  0  0  0  0  0  0  0  0  0
  -26.6715  -13.5117   21.8172 C   0  0  0  0  0  0  0  0  0  0  0  0
  -26.5233  -31.5839   24.0933 C   0  0  0  0  0  0  0  0  0  0  0  0
  -23.9492  -10.7445   22.0085 C   0  0  0  0  0  0  0  0  0  0  0  0
  -22.7800   -9.9875   22.0816 C   0  0  0  0  0  0  0  0  0  0  0  0
  -27.1071  -29.7165   22.6823 C   0  0  0  0  0  0  0  0  0  0  0  0
  -28.3326  -23.9401   25.1746 C   0  0  0  0  0  0  0  0  0  0  0  0
  -23.0534   -9.3420   19.7696 C   0  0  0  0  0  0  0  0  0  0  0  0
  -25.5433  -15.6239   21.4963 C   0  0  0  0  0  0  0  0  0  0  0  0
  -24.7378  -17.6614   22.8029 C   0  0  0  0  0  0  0  0  0  0  0  0
  -18.0644  -28.6025   22.9924 C   0  0  0  0  0  0  0  0  0  0  0  0
  -25.0121  -30.8767   22.3296 C   0  0  0  0  0  0  0  0  0  0  0  0
  -19.3859  -28.8100   23.4316 C   0  0  0  0  0  0  0  0  0  0  0  0
  -25.9112  -29.8650   21.9634 C   0  0  0  0  0  0  0  0  0  0  0  0
  -29.9930  -25.5793   25.8016 C   0  0  0  0  0  0  0  0  0  0  0  0
  -28.7221  -24.0560   23.8402 C   0  0  0  0  0  0  0  0  0  0  0  0
  -25.7369  -12.8871   20.9913 C   0  0  0  0  0  0  0  0  0  0  0  0
  -27.4103  -30.5704   23.7424 C   0  0  0  0  0  0  0  0  0  0  0  0
  -24.6706  -10.8004   20.8159 C   0  0  0  0  0  0  0  0  0  0  0  0
  -22.3321   -9.2862   20.9622 C   0  0  0  0  0  0  0  0  0  0  0  0
  -28.9680  -24.7018   26.1553 C   0  0  0  0  0  0  0  0  0  0  0  0
  -24.2227  -10.0991   19.6965 C   0  0  0  0  0  0  0  0  0  0  0  0
  -25.4441  -17.0375   21.7572 C   0  0  0  0  0  0  0  0  0  0  0  0
  -24.9563  -19.0039   22.6117 C   0  0  0  0  0  0  0  0  0  0  0  0
  -31.5984  -28.6994   26.3652 C   0  0  0  0  0  0  0  0  0  0  0  0
  -23.9544  -17.0796   23.8534 C   0  0  0  0  0  0  0  0  0  0  0  0
  -22.6806  -28.7928   21.7590 C   0  0  0  0  0  0  0  0  0  0  0  0
  -24.0917  -28.6043   18.8443 C   0  0  0  0  0  0  0  0  0  0  0  0
  -26.9089  -28.9967   16.9585 C   0  0  0  0  0  0  0  0  0  0  0  0
  -28.3440  -23.2742   21.4754 C   0  0  0  0  0  0  0  0  0  0  0  0
  -17.7288  -27.5673   21.9481 C   0  0  0  0  0  0  0  0  0  0  0  0
  -23.7341  -31.0747   21.5614 C   0  0  0  0  0  0  0  0  0  0  0  0
  -25.6252  -28.9249   20.8219 C   0  0  0  0  0  0  0  0  0  0  0  0
  -30.9916  -30.0423   26.0341 C   0  0  0  0  0  0  0  0  0  0  0  0
  -18.9357  -27.1124   21.1316 C   0  0  0  0  0  0  0  0  0  0  0  0
  -27.0061  -21.4837   18.7039 C   0  0  0  0  0  0  0  0  0  0  0  0
  -20.1173  -26.8109   22.0480 C   0  0  0  0  0  0  0  0  0  0  0  0
  -26.4224  -20.2187   19.3372 C   0  0  0  0  0  0  0  0  0  0  0  0
  -28.2981  -21.9187   19.3932 C   0  0  0  0  0  0  0  0  0  0  0  0
  -29.2503  -28.4424   26.4517 C   0  0  0  0  0  0  0  0  0  0  0  0
  -27.6195  -20.8063   21.4840 C   0  0  0  0  0  0  0  0  0  0  0  0
  -20.5510  -28.0634   22.8191 C   0  0  1  0  0  0  0  0  0  0  0  0
  -23.2740  -29.8160   20.8324 C   0  0  1  0  0  0  0  0  0  0  0  0
  -29.5593  -29.9290   26.5625 C   0  0  2  0  0  0  0  0  0  0  0  0
  -26.2827  -20.3662   20.8650 C   0  0  2  0  0  0  0  0  0  0  0  0
  -27.7636  -28.7280   14.6144 C   0  0  0  0  0  0  0  0  0  0  0  0
  -24.2163  -25.5813   19.2389 C   0  0  0  0  0  0  0  0  0  0  0  0
  -25.8843  -25.4767   17.3747 C   0  0  0  0  0  0  0  0  0  0  0  0
  -23.5736  -26.3067   16.9335 C   0  0  0  0  0  0  0  0  0  0  0  0
  -27.5478  -31.8780   16.7373 C   0  0  0  0  0  0  0  0  0  0  0  0
  -30.6783  -26.4024   26.8537 C   0  0  0  0  0  0  0  0  0  0  0  0
  -28.5737  -30.8008   25.8038 C   0  0  0  0  0  0  0  0  0  1  0  0
  -25.1832  -27.7559   18.2378 C   0  0  1  0  0  0  0  0  0  0  0  0
  -27.1398  -29.6802   15.6229 C   0  0  2  0  0  0  0  0  0  0  0  0
  -24.7192  -26.2965   17.9691 C   0  0  0  0  0  0  0  0  0  0  0  0
  -26.0647  -17.9117   20.9605 N   0  0  0  0  0  0  0  0  0  0  0  0
  -25.7490  -19.0987   21.5058 N   0  0  0  0  0  0  0  0  0  0  0  0
  -30.5452  -27.8212   26.6031 N   0  0  0  0  0  0  0  0  0  0  0  0
  -24.3598  -29.1550   20.1055 N   0  0  0  0  0  0  0  0  0  0  0  0
  -28.0888  -22.0419   20.8375 N   0  0  0  0  0  0  0  0  0  0  0  0
  -24.5457  -20.1007   23.2832 N   0  0  0  0  0  0  0  0  0  0  0  0
  -23.8340  -15.6841   23.9025 N   0  0  0  0  0  0  0  0  0  0  0  0
  -28.0779  -23.2808   22.8443 N   0  0  0  0  0  0  0  0  0  0  0  0
  -21.3222  -28.9410   21.9649 N   0  0  0  0  0  0  0  0  0  0  0  0
  -25.6392  -28.4666   17.0482 N   0  0  0  0  0  0  0  0  0  0  0  0
  -28.0487  -30.8495   15.7896 N   0  3  0  0  0  0  0  0  0  0  0  0
  -32.7969  -28.4607   26.3663 O   0  0  0  0  0  0  0  0  0  0  0  0
  -23.3648  -17.7773   24.7130 O   0  0  0  0  0  0  0  0  0  0  0  0
  -23.4014  -27.9318   22.2496 O   0  0  0  0  0  0  0  0  0  0  0  0
  -23.0428  -28.7780   18.2188 O   0  0  0  0  0  0  0  0  0  0  0  0
  -27.7701  -28.9357   17.8333 O   0  0  0  0  0  0  0  0  0  0  0  0
  -28.7415  -24.2595   20.8484 O   0  0  0  0  0  0  0  0  0  0  0  0
  -25.8316  -11.5518   20.7452 O   0  0  0  0  0  0  0  0  0  0  0  0
  -28.5746  -30.4158   24.4298 O   0  0  0  0  0  0  0  0  0  1  0  0
  -21.2101   -8.5580   21.0329 F   0  0  0  0  0  0  0  0  0  0  0  0
  -28.5868  -24.5836   27.4347 F   0  0  0  0  0  0  0  0  0  0  0  0
  -24.9121  -10.1479   18.5484 F   0  0  0  0  0  0  0  0  0  0  0  0
  1  2  1  0  0  0  0
  1  5  2  0  0  0  0
  2  6  2  0  0  0  0
  3 10  2  0  0  0  0
  3 18  1  0  0  0  0
  4 11  1  0  0  0  0
  4 18  2  0  0  0  0
  5 20  1  0  0  0  0
  6 22  1  0  0  0  0
  7 12  2  0  0  0  0
  7 21  1  0  0  0  0
  8  9  2  0  0  0  0
  8 24  1  0  0  0  0
  9 25  1  0  0  0  0
 10 26  1  0  0  0  0
 11 26  2  0  0  0  0
 12 27  1  0  0  0  0
 13 14  2  0  0  0  0
 13 28  1  0  0  0  0
 14 29  1  0  0  0  0
 15 23  1  0  0  0  0
 15 27  2  0  0  0  0
 16 25  2  0  0  0  0
 16 30  1  0  0  0  0
 17 29  2  0  0  0  0
 17 31  1  0  0  0  0
 18 32  1  0  0  0  0
 19 32  1  0  0  0  0
 19 33  2  0  0  0  0
 19 35  1  0  0  0  0
 20 22  2  0  0  0  0
 20 40  1  0  0  0  0
 21 23  2  0  0  0  0
 21 41  1  0  0  0  0
 22 51  1  0  0  0  0
 23 42  1  0  0  0  0
 24 30  2  0  0  0  0
 24 60  1  0  0  0  0
 25 72  1  0  0  0  0
 26 82  1  0  0  0  0
 27 83  1  0  0  0  0
 28 31  2  0  0  0  0
 28 82  1  0  0  0  0
 29 84  1  0  0  0  0
 30 85  1  0  0  0  0
 31 86  1  0  0  0  0
 32 65  2  0  0  0  0
 33 66  1  0  0  0  0
 33 70  1  0  0  0  0
 34 43  1  0  0  0  0
 34 67  1  0  0  0  0
 34 76  2  0  0  0  0
 35 71  1  0  0  0  0
 35 77  2  0  0  0  0
 36 52  1  0  0  0  0
 36 73  1  0  0  0  0
 36 78  2  0  0  0  0
 37 62  1  0  0  0  0
 37 68  1  0  0  0  0
 37 79  2  0  0  0  0
 38 63  1  0  0  0  0
 38 74  1  0  0  0  0
 38 80  2  0  0  0  0
 39 69  1  0  0  0  0
 39 72  1  0  0  0  0
 39 81  2  0  0  0  0
 40 44  1  0  0  0  0
 41 52  1  0  0  0  0
 42 68  1  0  0  0  0
 43 53  1  0  0  0  0
 44 46  1  0  0  0  0
 45 47  1  0  0  0  0
 45 48  1  0  0  0  0
 46 51  1  0  0  0  0
 47 54  1  0  0  0  0
 48 69  1  0  0  0  0
 49 53  1  0  0  0  0
 49 67  1  0  0  0  0
 50 54  1  0  0  0  0
 50 69  1  0  0  0  0
 51 73  1  0  0  0  0
 52 68  1  0  0  0  0
 53 61  1  0  0  0  0
 54 66  1  0  0  0  0
 55 63  1  0  0  0  0
 56 64  1  0  0  0  0
 57 64  1  0  0  0  0
 58 64  1  0  0  0  0
 59 75  1  0  0  0  0
 60 67  1  0  0  0  0
 61 83  1  0  0  0  0
 62 64  1  0  0  0  0
 62 74  1  0  0  0  0
 63 75  1  0  0  0  0
 65 66  1  0  0  0  0
M  CHG  1  75   1
M  ISO  4  39 100  61 101  72 100  83 101
M  END
> <Batch ID>
0095

> <Smiles>
CNC(C)C(=O)NC(C(=O)N1Cc2cc([101O:1][101CH2:1]C3CC(=O)N(Cc4ccc([100NH:0][100C:0](=O)N5CCCC(n6nc(-c7ccc(Oc8ccc(F)cc8F)cc7)c(C(N)=O)c6N)C5)cc4F)C3)ccc2CC1C(=O)NC1CCCc2ccccc21)C(C)(C)C

> <Shape>
0.235

> <Color>
0.090

> <Negative vol penalty>
0.000

$$$$

  -OEChem-04052300433D

 84 92  0     1  0  0  0  0  0999 V2000
  -28.4102  -38.0831   16.0935 C   0  0  0  0  0  0  0  0  0  0  0  0
  -28.7332  -36.7301   16.0724 C   0  0  0  0  0  0  0  0  0  0  0  0
  -24.1681   -9.2903   22.5367 C   0  0  0  0  0  0  0  0  0  0  0  0
  -24.2678   -9.0958   20.1306 C   0  0  0  0  0  0  0  0  0  0  0  0
  -29.3231  -20.5759   18.8563 C   0  0  0  0  0  0  0  0  0  0  0  0
  -27.9824  -38.6782   17.2796 C   0  0  0  0  0  0  0  0  0  0  0  0
  -28.6297  -35.9716   17.2379 C   0  0  0  0  0  0  0  0  0  0  0  0
  -26.9826  -30.0887   17.6672 C   0  0  0  0  0  0  0  0  0  0  0  0
  -29.1663  -21.9600   18.7845 C   0  0  0  0  0  0  0  0  0  0  0  0
  -23.0753   -8.4238   22.5615 C   0  0  0  0  0  0  0  0  0  0  0  0
  -23.1751   -8.2292   20.1554 C   0  0  0  0  0  0  0  0  0  0  0  0
  -27.7232  -28.9138   17.7903 C   0  0  0  0  0  0  0  0  0  0  0  0
  -22.5327   -5.0926   22.3585 C   0  0  0  0  0  0  0  0  0  0  0  0
  -22.5313   -4.0782   23.3158 C   0  0  0  0  0  0  0  0  0  0  0  0
  -29.0486  -20.4204   16.4610 C   0  0  0  0  0  0  0  0  0  0  0  0
  -27.4246  -28.9835   20.1831 C   0  0  0  0  0  0  0  0  0  0  0  0
  -20.4852   -4.9614   24.2488 C   0  0  0  0  0  0  0  0  0  0  0  0
  -24.7643   -9.6263   21.3213 C   0  0  0  0  0  0  0  0  0  0  0  0
  -29.2643  -19.8061   17.6946 C   0  0  0  0  0  0  0  0  0  0  0  0
  -27.2548  -10.1758   21.3792 C   0  0  0  0  0  0  0  0  0  0  0  0
  -27.8644  -37.9243   18.4579 C   0  0  0  0  0  0  0  0  0  0  0  0
  -26.4659  -30.7267   18.8040 C   0  0  0  0  0  0  0  0  0  0  0  0
  -28.2012  -36.5574   18.4412 C   0  0  0  0  0  0  0  0  0  0  0  0
  -26.6757  -30.1649   20.0715 C   0  0  0  0  0  0  0  0  0  0  0  0
  -28.9506  -22.5744   17.5509 C   0  0  0  0  0  0  0  0  0  0  0  0
  -28.8917  -21.8046   16.3891 C   0  0  0  0  0  0  0  0  0  0  0  0
  -22.5788   -7.8933   21.3709 C   0  0  0  0  0  0  0  0  0  0  0  0
  -27.9467  -28.3626   19.0486 C   0  0  0  0  0  0  0  0  0  0  0  0
  -21.5103   -6.0415   22.3463 C   0  0  0  0  0  0  0  0  0  0  0  0
  -21.5076   -4.0125   24.2610 C   0  0  0  0  0  0  0  0  0  0  0  0
  -20.4866   -5.9758   23.2914 C   0  0  0  0  0  0  0  0  0  0  0  0
  -25.8928  -10.5218   21.2950 C   0  0  0  0  0  0  0  0  0  0  0  0
  -27.9190  -11.3759   21.3088 C   0  0  0  0  0  0  0  0  0  0  0  0
  -29.4304  -18.3396   17.7716 C   0  0  0  0  0  0  0  0  0  0  0  0
  -27.8650   -8.8849   21.5093 C   0  0  0  0  0  0  0  0  0  0  0  0
  -26.8858  -33.5671   20.1677 C   0  0  0  0  0  0  0  0  0  0  0  0
  -24.4922  -32.5545   22.1088 C   0  0  0  0  0  0  0  0  0  0  0  0
  -28.8281  -24.8728   18.5689 C   0  0  0  0  0  0  0  0  0  0  0  0
  -22.7718  -29.9369   23.4635 C   0  0  0  0  0  0  0  0  0  0  0  0
  -28.5558  -16.2110   18.7102 C   0  0  0  0  0  0  0  0  0  0  0  0
  -27.4430  -38.6221   19.7269 C   0  0  0  0  0  0  0  0  0  0  0  0
  -25.6464  -31.9788   18.6520 C   0  0  0  0  0  0  0  0  0  0  0  0
  -26.1253  -30.7999   21.3214 C   0  0  0  0  0  0  0  0  0  0  0  0
  -27.0016  -37.6645   20.8307 C   0  0  0  0  0  0  0  0  0  0  0  0
  -26.2397  -16.1124   21.6057 C   0  0  0  0  0  0  0  0  0  0  0  0
  -27.9967  -36.5170   20.9715 C   0  0  0  0  0  0  0  0  0  0  0  0
  -26.0018  -14.6115   21.7296 C   0  0  0  0  0  0  0  0  0  0  0  0
  -26.4804  -16.5416   20.1590 C   0  0  0  0  0  0  0  0  0  0  0  0
  -27.3417  -14.2737   19.6199 C   0  0  0  0  0  0  0  0  0  0  0  0
  -28.0780  -35.6956   19.6791 C   0  0  1  0  0  0  0  0  0  0  0  0
  -25.6038  -32.8229   19.9221 C   0  0  1  0  0  0  0  0  0  0  0  0
  -27.1522  -13.8310   21.0779 C   0  0  2  0  0  0  0  0  0  0  0  0
  -20.8922  -29.4223   25.0446 C   0  0  0  0  0  0  0  0  0  0  0  0
  -26.3128  -33.1858   24.4747 C   0  0  0  0  0  0  0  0  0  0  0  0
  -24.8056  -31.7992   25.9149 C   0  0  0  0  0  0  0  0  0  0  0  0
  -23.9214  -33.8446   24.7936 C   0  0  0  0  0  0  0  0  0  0  0  0
  -21.2031  -28.5924   21.3444 C   0  0  0  0  0  0  0  0  0  0  0  0
  -28.6162  -26.2947   18.0835 C   0  0  0  0  0  0  0  0  0  1  0  0
  -24.4208  -31.7895   23.4083 C   0  0  1  0  0  0  0  0  0  0  0  0
  -21.2832  -29.6707   23.5960 C   0  0  2  0  0  0  0  0  0  0  0  0
  -24.8773  -32.6436   24.6247 C   0  0  0  0  0  0  0  0  0  0  0  0
  -25.7016  -11.8387   21.1801 N   0  0  0  0  0  0  0  0  0  0  0  0
  -26.9522  -12.3307   21.1917 N   0  0  0  0  0  0  0  0  0  0  0  0
  -25.3359  -32.0265   21.1213 N   0  0  0  0  0  0  0  0  0  0  0  0
  -27.5131  -15.7260   19.5052 N   0  0  0  0  0  0  0  0  0  0  0  0
  -28.6732  -22.4064   15.1294 N   0  0  0  0  0  0  0  0  0  0  0  0
  -29.2299  -11.6971   21.3365 N   0  0  0  0  0  0  0  0  0  0  0  0
  -27.0356   -7.7565   21.5669 N   0  0  0  0  0  0  0  0  0  0  0  0
  -28.7939  -23.9800   17.5032 N   0  0  0  0  0  0  0  0  0  0  0  0
  -28.5552  -17.6449   18.5150 N   0  0  0  0  0  0  0  0  0  0  0  0
  -26.9374  -34.8116   19.5695 N   0  0  0  0  0  0  0  0  0  0  0  0
  -23.0556  -31.2854   23.5107 N   0  0  0  0  0  0  0  0  0  0  0  0
  -30.4461  -17.7978   17.0999 N   0  3  0  0  0  0  0  0  0  0  0  0
  -20.8972  -28.4757   22.7935 N   0  3  0  0  0  0  0  0  0  0  0  0
  -29.1082   -8.7377   21.5891 O   0  0  0  0  0  0  0  0  0  0  0  0
  -27.7626  -33.0510   20.8507 O   0  0  0  0  0  0  0  0  0  0  0  0
  -23.8186  -33.5789   21.9723 O   0  0  0  0  0  0  0  0  0  0  0  0
  -29.0001  -24.6182   19.7564 O   0  0  0  0  0  0  0  0  0  0  0  0
  -23.6003  -29.0383   23.3349 O   0  0  0  0  0  0  0  0  0  0  0  0
  -29.4159  -15.5267   18.1662 O   0  0  0  0  0  0  0  0  0  0  0  0
  -21.5127   -7.0475   21.3947 O   0  0  0  0  0  0  0  0  0  0  0  0
  -28.6698  -27.2164   19.1716 O   0  0  0  0  0  0  0  0  0  1  0  0
  -21.5056   -3.0374   25.1793 F   0  0  0  0  0  0  0  0  0  0  0  0
  -19.5011   -6.8839   23.2840 F   0  0  0  0  0  0  0  0  0  0  0  0
  1  2  1  0  0  0  0
  1  6  2  0  0  0  0
  2  7  2  0  0  0  0
  3 10  2  0  0  0  0
  3 18  1  0  0  0  0
  4 11  1  0  0  0  0
  4 18  2  0  0  0  0
  5  9  2  0  0  0  0
  5 19  1  0  0  0  0
  6 21  1  0  0  0  0
  7 23  1  0  0  0  0
  8 12  2  0  0  0  0
  8 22  1  0  0  0  0
  9 25  1  0  0  0  0
 10 27  1  0  0  0  0
 11 27  2  0  0  0  0
 12 28  1  0  0  0  0
 13 14  2  0  0  0  0
 13 29  1  0  0  0  0
 14 30  1  0  0  0  0
 15 19  2  0  0  0  0
 15 26  1  0  0  0  0
 16 24  1  0  0  0  0
 16 28  2  0  0  0  0
 17 30  2  0  0  0  0
 17 31  1  0  0  0  0
 18 32  1  0  0  0  0
 19 34  1  0  0  0  0
 20 32  1  0  0  0  0
 20 33  2  0  0  0  0
 20 35  1  0  0  0  0
 21 23  2  0  0  0  0
 21 41  1  0  0  0  0
 22 24  2  0  0  0  0
 22 42  1  0  0  0  0
 23 50  1  0  0  0  0
 24 43  1  0  0  0  0
 25 26  2  0  0  0  0
 25 69  1  0  0  0  0
 26 66  1  0  0  0  0
 27 81  1  0  0  0  0
 28 82  1  0  0  0  0
 29 31  2  0  0  0  0
 29 81  1  0  0  0  0
 30 83  1  0  0  0  0
 31 84  1  0  0  0  0
 32 62  2  0  0  0  0
 33 63  1  0  0  0  0
 33 67  1  0  0  0  0
 34 70  1  0  0  0  0
 34 73  2  0  0  0  0
 35 68  1  0  0  0  0
 35 75  2  0  0  0  0
 36 51  1  0  0  0  0
 36 71  1  0  0  0  0
 36 76  2  0  0  0  0
 37 59  1  0  0  0  0
 37 64  1  0  0  0  0
 37 77  2  0  0  0  0
 38 58  1  0  0  0  0
 38 69  1  0  0  0  0
 38 78  2  0  0  0  0
 39 60  1  0  0  0  0
 39 72  1  0  0  0  0
 39 79  2  0  0  0  0
 40 65  1  0  0  0  0
 40 70  1  0  0  0  0
 40 80  2  0  0  0  0
 41 44  1  0  0  0  0
 42 51  1  0  0  0  0
 43 64  1  0  0  0  0
 44 46  1  0  0  0  0
 45 47  1  0  0  0  0
 45 48  1  0  0  0  0
 46 50  1  0  0  0  0
 47 52  1  0  0  0  0
 48 65  1  0  0  0  0
 49 52  1  0  0  0  0
 49 65  1  0  0  0  0
 50 71  1  0  0  0  0
 51 64  1  0  0  0  0
 52 63  1  0  0  0  0
 53 60  1  0  0  0  0
 54 61  1  0  0  0  0
 55 61  1  0  0  0  0
 56 61  1  0  0  0  0
 57 74  1  0  0  0  0
 58 82  1  0  0  0  0
 59 61  1  0  0  0  0
 59 72  1  0  0  0  0
 60 74  1  0  0  0  0
 62 63  1  0  0  0  0
M  CHG  2  73   1  74   1
M  ISO  4  40 100  58 101  70 100  82 101
M  END
> <Batch ID>
0095

> <Smiles>
CNC(C)C(=O)NC(C(=O)N1Cc2cc([101O:1][101CH2:1]C(=O)Nc3ccc(C(=N)[100NH:0][100C:0](=O)N4CCCC(n5nc(-c6ccc(Oc7ccc(F)cc7F)cc6)c(C(N)=O)c5N)C4)cc3N)ccc2CC1C(=O)NC1CCCc2ccccc21)C(C)(C)C

> <Shape>
0.239

> <Color>
0.088

> <Negative vol penalty>
0.000

$$$$

  -OEChem-04052300433D

 86 95  0     1  0  0  0  0  0999 V2000
  -27.4959  -30.9705   28.3643 C   0  0  0  0  0  0  0  0  0  0  0  0
  -27.5365  -30.0425   27.3286 C   0  0  0  0  0  0  0  0  0  0  0  0
  -24.0429   -9.4813   21.5393 C   0  0  0  0  0  0  0  0  0  0  0  0
  -24.6629  -10.6569   23.5568 C   0  0  0  0  0  0  0  0  0  0  0  0
  -26.3652  -31.7668   28.5412 C   0  0  0  0  0  0  0  0  0  0  0  0
  -26.4460  -29.9095   26.4699 C   0  0  0  0  0  0  0  0  0  0  0  0
  -27.8267  -29.6273   21.6058 C   0  0  0  0  0  0  0  0  0  0  0  0
  -30.6625  -20.2650   19.0807 C   0  0  0  0  0  0  0  0  0  0  0  0
  -30.5014  -18.8883   19.2363 C   0  0  0  0  0  0  0  0  0  0  0  0
  -23.6139   -8.3961   22.3034 C   0  0  0  0  0  0  0  0  0  0  0  0
  -24.2338   -9.5717   24.3210 C   0  0  0  0  0  0  0  0  0  0  0  0
  -28.3220  -28.4047   21.1544 C   0  0  0  0  0  0  0  0  0  0  0  0
  -20.9083   -7.5672   24.1542 C   0  0  0  0  0  0  0  0  0  0  0  0
  -19.6837   -6.9864   23.8250 C   0  0  0  0  0  0  0  0  0  0  0  0
  -26.1703  -27.8962   20.1896 C   0  0  0  0  0  0  0  0  0  0  0  0
  -30.4616  -24.4847   18.5504 C   0  0  0  0  0  0  0  0  0  0  0  0
  -28.5142  -20.6342   20.1225 C   0  0  0  0  0  0  0  0  0  0  0  0
  -20.7935   -4.8804   23.4122 C   0  0  0  0  0  0  0  0  0  0  0  0
  -24.5675  -10.6117   22.1660 C   0  0  0  0  0  0  0  0  0  0  0  0
  -24.2452  -12.8404   20.9674 C   0  0  0  0  0  0  0  0  0  0  0  0
  -25.2641  -31.6503   27.6782 C   0  0  0  0  0  0  0  0  0  0  0  0
  -26.4942  -29.9894   21.3615 C   0  0  0  0  0  0  0  0  0  0  0  0
  -25.2990  -30.7042   26.6362 C   0  0  0  0  0  0  0  0  0  0  0  0
  -25.6613  -29.1250   20.6367 C   0  0  0  0  0  0  0  0  0  0  0  0
  -29.6830  -24.7076   19.7128 C   0  0  0  0  0  0  0  0  0  0  0  0
  -29.6689  -21.1380   19.5239 C   0  0  0  0  0  0  0  0  0  0  0  0
  -29.3466  -18.3845   19.8349 C   0  0  0  0  0  0  0  0  0  0  0  0
  -28.3530  -19.2574   20.2781 C   0  0  0  0  0  0  0  0  0  0  0  0
  -23.7094   -8.4413   23.6942 C   0  0  0  0  0  0  0  0  0  0  0  0
  -27.4930  -27.5377   20.4487 C   0  0  0  0  0  0  0  0  0  0  0  0
  -22.0756   -6.8047   24.1123 C   0  0  0  0  0  0  0  0  0  0  0  0
  -19.6262   -5.6430   23.4540 C   0  0  0  0  0  0  0  0  0  0  0  0
  -22.0182   -5.4613   23.7414 C   0  0  0  0  0  0  0  0  0  0  0  0
  -25.0114  -11.7328   21.3771 C   0  0  0  0  0  0  0  0  0  0  0  0
  -25.1206  -13.6160   20.2474 C   0  0  0  0  0  0  0  0  0  0  0  0
  -30.5365  -23.1225   18.3604 C   0  0  0  0  0  0  0  0  0  0  0  0
  -29.3059  -23.4747   20.1979 C   0  0  0  0  0  0  0  0  0  0  0  0
  -22.8655  -13.1413   21.2155 C   0  0  0  0  0  0  0  0  0  0  0  0
  -23.9732  -30.6315   23.1880 C   0  0  0  0  0  0  0  0  0  0  0  0
  -22.6045  -31.4059   20.3509 C   0  0  0  0  0  0  0  0  0  0  0  0
  -22.5541  -31.0280   16.9595 C   0  0  0  0  0  0  0  0  0  0  0  0
  -30.1107  -15.9967   19.5879 C   0  0  0  0  0  0  0  0  0  0  0  0
  -24.0452  -32.4998   27.9379 C   0  0  0  0  0  0  0  0  0  0  0  0
  -25.9828  -31.3234   21.8319 C   0  0  0  0  0  0  0  0  0  0  0  0
  -24.2289  -29.4755   20.3306 C   0  0  0  0  0  0  0  0  0  0  0  0
  -23.0812  -32.5593   26.7558 C   0  0  0  0  0  0  0  0  0  0  0  0
  -29.7795  -12.6089   18.5436 C   0  0  0  0  0  0  0  0  0  0  0  0
  -22.8418  -31.1626   26.1913 C   0  0  0  0  0  0  0  0  0  0  0  0
  -28.4464  -12.1701   19.1540 C   0  0  0  0  0  0  0  0  0  0  0  0
  -30.5441  -13.5526   19.4701 C   0  0  0  0  0  0  0  0  0  0  0  0
  -28.4498  -14.2810   20.5436 C   0  0  0  0  0  0  0  0  0  0  0  0
  -24.1459  -30.5479   25.6687 C   0  0  1  0  0  0  0  0  0  0  0  0
  -24.4643  -31.3654   21.9723 C   0  0  1  0  0  0  0  0  0  0  0  0
  -27.6138  -13.3809   19.6191 C   0  0  2  0  0  0  0  0  0  0  0  0
  -21.2962  -31.7581   14.9145 C   0  0  0  0  0  0  0  0  0  0  0  0
  -20.3388  -29.4905   21.0637 C   0  0  0  0  0  0  0  0  0  0  0  0
  -19.6415  -29.5312   18.6595 C   0  0  0  0  0  0  0  0  0  0  0  0
  -19.6000  -31.6319   20.0040 C   0  0  0  0  0  0  0  0  0  0  0  0
  -24.9574  -32.3032   15.7946 C   0  0  0  0  0  0  0  0  0  0  0  0
  -29.3371  -26.0430   20.3031 C   0  0  0  0  0  0  0  0  0  1  0  0
  -21.8229  -30.6543   19.3005 C   0  0  1  0  0  0  0  0  0  0  0  0
  -22.4735  -32.0434   15.8339 C   0  0  2  0  0  0  0  0  0  0  0  0
  -20.3772  -30.3192   19.7642 C   0  0  0  0  0  0  0  0  0  0  0  0
  -26.2762  -11.7953   20.9526 N   0  0  0  0  0  0  0  0  0  0  0  0
  -29.8306  -22.5186   19.3680 N   0  0  0  0  0  0  0  0  0  0  0  0
  -26.3115  -12.9516   20.2685 N   0  0  0  0  0  0  0  0  0  0  0  0
  -23.7736  -30.7883   20.8172 N   0  0  0  0  0  0  0  0  0  0  0  0
  -29.6942  -14.6776   19.8661 N   0  0  0  0  0  0  0  0  0  0  0  0
  -27.1758  -18.7683   20.8876 N   0  0  0  0  0  0  0  0  0  0  0  0
  -24.9802  -14.7948   19.6045 N   0  0  0  0  0  0  0  0  0  0  0  0
  -22.1102  -12.2364   21.9739 N   0  0  0  0  0  0  0  0  0  0  0  0
  -29.2059  -16.9821   19.9813 N   0  0  0  0  0  0  0  0  0  0  0  0
  -24.4873  -31.1081   24.3788 N   0  0  0  0  0  0  0  0  0  0  0  0
  -21.8892  -31.4615   18.0870 N   0  0  0  0  0  0  0  0  0  0  0  0
  -23.7222  -32.0157   15.0209 N   0  3  0  0  0  0  0  0  0  0  0  0
  -22.3143  -14.1736   20.7637 O   0  0  0  0  0  0  0  0  0  0  0  0
  -23.1850  -29.7025   23.0556 O   0  0  0  0  0  0  0  0  0  0  0  0
  -22.1965  -32.5037   20.7380 O   0  0  0  0  0  0  0  0  0  0  0  0
  -23.1444  -29.9557   16.8483 O   0  0  0  0  0  0  0  0  0  0  0  0
  -31.1781  -16.2332   19.0163 O   0  0  0  0  0  0  0  0  0  0  0  0
  -31.1483  -22.4174   17.4164 O   0  0  0  0  0  0  0  0  0  0  0  0
  -28.5767  -23.1492   21.2592 O   0  0  0  0  0  0  0  0  0  0  0  0
  -23.2906   -7.3827   24.4402 O   0  0  0  0  0  0  0  0  0  0  0  0
  -27.9737  -26.3434   20.0076 O   0  0  0  0  0  0  0  0  0  1  0  0
  -18.4499   -5.0849   23.1394 F   0  0  0  0  0  0  0  0  0  0  0  0
  -23.1360   -4.7234   23.7005 F   0  0  0  0  0  0  0  0  0  0  0  0
  1  2  1  0  0  0  0
  1  5  2  0  0  0  0
  2  6  2  0  0  0  0
  3 10  2  0  0  0  0
  3 19  1  0  0  0  0
  4 11  1  0  0  0  0
  4 19  2  0  0  0  0
  5 21  1  0  0  0  0
  6 23  1  0  0  0  0
  7 12  2  0  0  0  0
  7 22  1  0  0  0  0
  8  9  2  0  0  0  0
  8 26  1  0  0  0  0
  9 27  1  0  0  0  0
 10 29  1  0  0  0  0
 11 29  2  0  0  0  0
 12 30  1  0  0  0  0
 13 14  2  0  0  0  0
 13 31  1  0  0  0  0
 14 32  1  0  0  0  0
 15 24  1  0  0  0  0
 15 30  2  0  0  0  0
 16 25  1  0  0  0  0
 16 36  2  0  0  0  0
 17 26  2  0  0  0  0
 17 28  1  0  0  0  0
 18 32  2  0  0  0  0
 18 33  1  0  0  0  0
 19 34  1  0  0  0  0
 20 34  1  0  0  0  0
 20 35  2  0  0  0  0
 20 38  1  0  0  0  0
 21 23  2  0  0  0  0
 21 43  1  0  0  0  0
 22 24  2  0  0  0  0
 22 44  1  0  0  0  0
 23 52  1  0  0  0  0
 24 45  1  0  0  0  0
 25 37  2  0  0  0  0
 25 60  1  0  0  0  0
 26 65  1  0  0  0  0
 27 28  2  0  0  0  0
 27 72  1  0  0  0  0
 28 69  1  0  0  0  0
 29 83  1  0  0  0  0
 30 84  1  0  0  0  0
 31 33  2  0  0  0  0
 31 83  1  0  0  0  0
 32 85  1  0  0  0  0
 33 86  1  0  0  0  0
 34 64  2  0  0  0  0
 35 66  1  0  0  0  0
 35 70  1  0  0  0  0
 36 65  1  0  0  0  0
 36 81  1  0  0  0  0
 37 65  1  0  0  0  0
 37 82  1  0  0  0  0
 38 71  1  0  0  0  0
 38 76  2  0  0  0  0
 39 53  1  0  0  0  0
 39 73  1  0  0  0  0
 39 77  2  0  0  0  0
 40 61  1  0  0  0  0
 40 67  1  0  0  0  0
 40 78  2  0  0  0  0
 41 62  1  0  0  0  0
 41 74  1  0  0  0  0
 41 79  2  0  0  0  0
 42 68  1  0  0  0  0
 42 72  1  0  0  0  0
 42 80  2  0  0  0  0
 43 46  1  0  0  0  0
 44 53  1  0  0  0  0
 45 67  1  0  0  0  0
 46 48  1  0  0  0  0
 47 49  1  0  0  0  0
 47 50  1  0  0  0  0
 48 52  1  0  0  0  0
 49 54  1  0  0  0  0
 50 68  1  0  0  0  0
 51 54  1  0  0  0  0
 51 68  1  0  0  0  0
 52 73  1  0  0  0  0
 53 67  1  0  0  0  0
 54 66  1  0  0  0  0
 55 62  1  0  0  0  0
 56 63  1  0  0  0  0
 57 63  1  0  0  0  0
 58 63  1  0  0  0  0
 59 75  1  0  0  0  0
 60 84  1  0  0  0  0
 61 63  1  0  0  0  0
 61 74  1  0  0  0  0
 62 75  1  0  0  0  0
 64 66  1  0  0  0  0
M  CHG  1  75   1
M  ISO  4  42 100  60 101  72 100  84 101
M  END
> <Batch ID>
0095

> <Smiles>
CNC(C)C(=O)NC(C(=O)N1Cc2cc([101O:1][101CH2:1]C3CC(=O)N(c4ccc([100NH:0][100C:0](=O)N5CCCC(n6nc(-c7ccc(Oc8ccc(F)cc8F)cc7)c(C(N)=O)c6N)C5)c(N)c4)C3=O)ccc2CC1C(=O)NC1CCCc2ccccc21)C(C)(C)C

> <Shape>
0.342

> <Color>
0.130

> <Negative vol penalty>
0.000

$$$$

  -OEChem-04052300433D

 88 97  0     1  0  0  0  0  0999 V2000
  -26.2409  -27.4115   29.1456 C   0  0  0  0  0  0  0  0  0  0  0  0
  -26.5963  -26.4515   28.2035 C   0  0  0  0  0  0  0  0  0  0  0  0
  -25.6469  -15.0215   15.7951 C   0  0  0  0  0  0  0  0  0  0  0  0
  -23.2253   -9.8366   19.9747 C   0  0  0  0  0  0  0  0  0  0  0  0
  -23.7640  -10.0172   22.3230 C   0  0  0  0  0  0  0  0  0  0  0  0
  -25.5667  -28.5641   28.7446 C   0  0  0  0  0  0  0  0  0  0  0  0
  -26.2768  -26.6432   26.8598 C   0  0  0  0  0  0  0  0  0  0  0  0
  -29.5801  -24.9024   22.0056 C   0  0  0  0  0  0  0  0  0  0  0  0
  -25.8163  -16.0893   16.6764 C   0  0  0  0  0  0  0  0  0  0  0  0
  -26.6997  -14.1371   15.5605 C   0  0  0  0  0  0  0  0  0  0  0  0
  -22.4796   -8.6867   20.2342 C   0  0  0  0  0  0  0  0  0  0  0  0
  -23.0182   -8.8674   22.5825 C   0  0  0  0  0  0  0  0  0  0  0  0
  -29.4907  -23.8001   21.1567 C   0  0  0  0  0  0  0  0  0  0  0  0
  -19.4201   -7.9248   21.4556 C   0  0  0  0  0  0  0  0  0  0  0  0
  -18.1661   -7.8161   20.8547 C   0  0  0  0  0  0  0  0  0  0  0  0
  -28.2171  -25.1185   19.5886 C   0  0  0  0  0  0  0  0  0  0  0  0
  -28.0914  -15.3884   17.0883 C   0  0  0  0  0  0  0  0  0  0  0  0
  -18.8798   -5.8004   19.7300 C   0  0  0  0  0  0  0  0  0  0  0  0
  -23.8675  -10.5018   21.0191 C   0  0  0  0  0  0  0  0  0  0  0  0
  -24.1787  -13.0200   20.7549 C   0  0  0  0  0  0  0  0  0  0  0  0
  -25.2473  -28.7745   27.3939 C   0  0  0  0  0  0  0  0  0  0  0  0
  -28.9783  -26.1200   21.6568 C   0  0  0  0  0  0  0  0  0  0  0  0
  -25.5965  -27.7991   26.4405 C   0  0  0  0  0  0  0  0  0  0  0  0
  -28.3025  -26.2355   20.4337 C   0  0  0  0  0  0  0  0  0  0  0  0
  -27.0385  -16.2728   17.3230 C   0  0  0  0  0  0  0  0  0  0  0  0
  -27.9220  -14.3206   16.2071 C   0  0  0  0  0  0  0  0  0  0  0  0
  -22.3761   -8.2021   21.5381 C   0  0  0  0  0  0  0  0  0  0  0  0
  -28.8066  -23.9072   19.9493 C   0  0  0  0  0  0  0  0  0  0  0  0
  -20.4041   -6.9713   21.1937 C   0  0  0  0  0  0  0  0  0  0  0  0
  -17.8959   -6.7539   19.9919 C   0  0  0  0  0  0  0  0  0  0  0  0
  -20.1338   -5.9091   20.3310 C   0  0  0  0  0  0  0  0  0  0  0  0
  -24.6384  -11.6894   20.7516 C   0  0  0  0  0  0  0  0  0  0  0  0
  -25.2883  -13.7673   20.4438 C   0  0  0  0  0  0  0  0  0  0  0  0
  -28.4734  -19.4020   18.8328 C   0  0  0  0  0  0  0  0  0  0  0  0
  -29.1166  -20.5437   18.5400 C   0  0  0  0  0  0  0  0  0  0  0  0
  -29.6257  -20.7782   17.1558 C   0  0  0  0  0  0  0  0  0  0  0  0
  -22.8661  -13.5344   21.0160 C   0  0  0  0  0  0  0  0  0  0  0  0
  -26.6880  -27.9312   22.9128 C   0  0  0  0  0  0  0  0  0  0  0  0
  -27.5604  -29.9855   20.5588 C   0  0  0  0  0  0  0  0  0  0  0  0
  -28.9971  -30.4417   17.4970 C   0  0  0  0  0  0  0  0  0  0  0  0
  -29.9957  -13.1057   16.9246 C   0  0  0  0  0  0  0  0  0  0  0  0
  -24.4760  -30.0140   27.0149 C   0  0  0  0  0  0  0  0  0  0  0  0
  -29.1067  -27.3073   22.5712 C   0  0  0  0  0  0  0  0  0  0  0  0
  -27.6564  -27.5263   20.0034 C   0  0  0  0  0  0  0  0  0  0  0  0
  -29.2971  -19.7574   16.0933 C   0  0  0  0  0  0  0  0  0  0  0  0
  -24.5059  -30.3163   25.5189 C   0  0  0  0  0  0  0  0  0  0  0  0
  -30.1683  -13.0589   20.6206 C   0  0  0  0  0  0  0  0  0  0  0  0
  -24.2216  -29.0527   24.7131 C   0  0  0  0  0  0  0  0  0  0  0  0
  -28.7299  -12.7393   21.0234 C   0  0  0  0  0  0  0  0  0  0  0  0
  -30.5188  -12.4701   19.2575 C   0  0  0  0  0  0  0  0  0  0  0  0
  -28.1387  -12.5641   18.5737 C   0  0  0  0  0  0  0  0  0  0  0  0
  -28.0860  -18.9325   16.4822 C   0  0  0  0  0  0  0  0  0  0  0  0
  -25.2894  -27.9826   24.9700 C   0  0  1  0  0  0  0  0  0  0  0  0
  -28.0166  -28.3517   22.3510 C   0  0  1  0  0  0  0  0  0  0  0  0
  -27.7483  -13.1806   19.9253 C   0  0  1  0  0  0  0  0  0  0  0  0
  -29.9779  -14.0300   13.7869 C   0  0  0  0  0  0  0  0  0  0  0  0
  -29.5312  -32.2288   15.8182 C   0  0  0  0  0  0  0  0  0  0  0  0
  -24.6303  -30.0615   19.7111 C   0  0  0  0  0  0  0  0  0  0  0  0
  -25.3589  -31.0549   17.5315 C   0  0  0  0  0  0  0  0  0  0  0  0
  -25.7880  -32.2778   19.6630 C   0  0  0  0  0  0  0  0  0  0  0  0
  -31.9032  -29.9157   17.6889 C   0  0  0  0  0  0  0  0  0  0  0  0
  -27.2202  -17.4215   18.2709 C   0  0  0  0  0  0  0  0  0  0  0  0
  -29.3478  -21.6264   19.5480 C   0  0  0  0  0  0  0  0  0  1  0  0
  -29.2471  -12.9724   14.5893 C   0  0  0  0  0  0  0  0  0  0  0  0
  -27.1406  -30.2103   19.1262 C   0  0  1  0  0  0  0  0  0  0  0  0
  -30.0387  -31.4331   17.0108 C   0  0  2  0  0  0  0  0  0  0  0  0
  -25.7399  -30.8761   19.0167 C   0  0  0  0  0  0  0  0  0  0  0  0
  -25.9386  -11.5938   20.4612 N   0  0  0  0  0  0  0  0  0  0  0  0
  -26.3054  -12.8738   20.2791 N   0  0  0  0  0  0  0  0  0  0  0  0
  -27.8041  -28.6569   20.9347 N   0  0  0  0  0  0  0  0  0  0  0  0
  -29.5426  -12.8495   18.2350 N   0  0  0  0  0  0  0  0  0  0  0  0
  -25.4833  -15.0951   20.2976 N   0  0  0  0  0  0  0  0  0  0  0  0
  -21.8415  -12.6278   21.3200 N   0  0  0  0  0  0  0  0  0  0  0  0
  -26.4978  -28.2875   24.2343 N   0  0  0  0  0  0  0  0  0  0  0  0
  -28.2154  -30.9732   18.5009 N   0  0  0  0  0  0  0  0  0  0  0  0
  -29.0103  -13.4054   15.9647 N   0  0  0  0  0  0  0  0  0  0  0  0
  -28.3187  -18.3602   17.8552 N   0  3  2  0  0  0  0  0  0  0  0  0
  -31.2828  -30.7201   16.6049 N   0  3  0  0  0  0  0  0  0  0  0  0
  -30.3189  -21.7609   16.8974 O   0  0  0  0  0  0  0  0  0  0  0  0
  -22.6058  -14.7604   20.9646 O   0  0  0  0  0  0  0  0  0  0  0  0
  -25.8936  -27.3295   22.1997 O   0  0  0  0  0  0  0  0  0  0  0  0
  -27.6749  -30.9537   21.3144 O   0  0  0  0  0  0  0  0  0  0  0  0
  -28.8854  -29.3102   17.0302 O   0  0  0  0  0  0  0  0  0  0  0  0
  -31.1908  -13.0188   16.6168 O   0  0  0  0  0  0  0  0  0  0  0  0
  -21.6483   -7.0802   21.7917 O   0  0  0  0  0  0  0  0  0  0  0  0
  -28.7173  -22.8326   19.1192 O   0  0  0  0  0  0  0  0  0  1  0  0
  -16.6911   -6.6487   19.4161 F   0  0  0  0  0  0  0  0  0  0  0  0
  -21.0747   -4.9894   20.0764 F   0  0  0  0  0  0  0  0  0  0  0  0
  1  2  1  0  0  0  0
  1  6  2  0  0  0  0
  2  7  2  0  0  0  0
  3  9  1  0  0  0  0
  3 10  2  0  0  0  0
  4 11  2  0  0  0  0
  4 19  1  0  0  0  0
  5 12  1  0  0  0  0
  5 19  2  0  0  0  0
  6 21  1  0  0  0  0
  7 23  1  0  0  0  0
  8 13  2  0  0  0  0
  8 22  1  0  0  0  0
  9 25  2  0  0  0  0
 10 26  1  0  0  0  0
 11 27  1  0  0  0  0
 12 27  2  0  0  0  0
 13 28  1  0  0  0  0
 14 15  2  0  0  0  0
 14 29  1  0  0  0  0
 15 30  1  0  0  0  0
 16 24  1  0  0  0  0
 16 28  2  0  0  0  0
 17 25  1  0  0  0  0
 17 26  2  0  0  0  0
 18 30  2  0  0  0  0
 18 31  1  0  0  0  0
 19 32  1  0  0  0  0
 20 32  1  0  0  0  0
 20 33  2  0  0  0  0
 20 37  1  0  0  0  0
 21 23  2  0  0  0  0
 21 42  1  0  0  0  0
 22 24  2  0  0  0  0
 22 43  1  0  0  0  0
 23 53  1  0  0  0  0
 24 44  1  0  0  0  0
 25 62  1  0  0  0  0
 26 76  1  0  0  0  0
 27 85  1  0  0  0  0
 28 86  1  0  0  0  0
 29 31  2  0  0  0  0
 29 85  1  0  0  0  0
 30 87  1  0  0  0  0
 31 88  1  0  0  0  0
 32 68  2  0  0  0  0
 33 69  1  0  0  0  0
 33 72  1  0  0  0  0
 34 35  2  0  0  0  0
 34 77  1  0  0  0  0
 35 36  1  0  0  0  0
 35 63  1  0  0  0  0
 36 45  1  0  0  0  0
 36 79  2  0  0  0  0
 37 73  1  0  0  0  0
 37 80  2  0  0  0  0
 38 54  1  0  0  0  0
 38 74  1  0  0  0  0
 38 81  2  0  0  0  0
 39 65  1  0  0  0  0
 39 70  1  0  0  0  0
 39 82  2  0  0  0  0
 40 66  1  0  0  0  0
 40 75  1  0  0  0  0
 40 83  2  0  0  0  0
 41 71  1  0  0  0  0
 41 76  1  0  0  0  0
 41 84  2  0  0  0  0
 42 46  1  0  0  0  0
 43 54  1  0  0  0  0
 44 70  1  0  0  0  0
 45 52  1  0  0  0  0
 46 48  1  0  0  0  0
 47 49  1  0  0  0  0
 47 50  1  0  0  0  0
 48 53  1  0  0  0  0
 49 55  1  0  0  0  0
 50 71  1  0  0  0  0
 51 55  1  0  0  0  0
 51 71  1  0  0  0  0
 52 77  1  0  0  0  0
 53 74  1  0  0  0  0
 54 70  1  0  0  0  0
 55 69  1  0  0  0  0
 56 64  1  0  0  0  0
 57 66  1  0  0  0  0
 58 67  1  0  0  0  0
 59 67  1  0  0  0  0
 60 67  1  0  0  0  0
 61 78  1  0  0  0  0
 62 77  1  0  0  0  0
 63 86  1  0  0  0  0
 64 76  1  0  0  0  0
 65 67  1  0  0  0  0
 65 75  1  0  0  0  0
 66 78  1  0  0  0  0
 68 69  1  0  0  0  0
M  CHG  2  77   1  78   1
M  ISO  4  41 100  63 101  76 100  86 101
M  END
> <Batch ID>
0095

> <Smiles>
CC[100N:0](c1cccc(CN2C=C([101CH2:1][101O:1]c3ccc4c(c3)CN(C(=O)C(NC(=O)C(C)NC)C(C)(C)C)C(C(=O)NC3CCCc5ccccc53)C4)C(=O)CC2)c1)[100C:0](=O)N1CCCC(n2nc(-c3ccc(Oc4ccc(F)cc4F)cc3)c(C(N)=O)c2N)C1

> <Shape>
0.223

> <Color>
0.187

> <Negative vol penalty>
0.000

$$$$

  -OEChem-04052300433D

 86 94  0     1  0  0  0  0  0999 V2000
  -28.6974  -33.4805   18.9020 C   0  0  0  0  0  0  0  0  0  0  0  0
  -28.2657  -32.4259   18.1040 C   0  0  0  0  0  0  0  0  0  0  0  0
  -23.1679  -10.4323   18.7435 C   0  0  0  0  0  0  0  0  0  0  0  0
  -22.9370  -10.0865   21.1234 C   0  0  0  0  0  0  0  0  0  0  0  0
  -28.3605  -17.6376   17.4094 C   0  0  0  0  0  0  0  0  0  0  0  0
  -28.7937  -33.3141   20.2830 C   0  0  0  0  0  0  0  0  0  0  0  0
  -27.9310  -31.2039   18.6864 C   0  0  0  0  0  0  0  0  0  0  0  0
  -23.5392  -27.3408   16.8715 C   0  0  0  0  0  0  0  0  0  0  0  0
  -27.4722  -18.5750   16.8824 C   0  0  0  0  0  0  0  0  0  0  0  0
  -22.2959   -9.3703   18.5045 C   0  0  0  0  0  0  0  0  0  0  0  0
  -22.0649   -9.0245   20.8845 C   0  0  0  0  0  0  0  0  0  0  0  0
  -23.5711  -26.1802   16.0996 C   0  0  0  0  0  0  0  0  0  0  0  0
  -18.8147   -8.6105   20.0565 C   0  0  0  0  0  0  0  0  0  0  0  0
  -17.6496   -8.5462   20.8206 C   0  0  0  0  0  0  0  0  0  0  0  0
  -29.6723  -19.4227   18.3737 C   0  0  0  0  0  0  0  0  0  0  0  0
  -23.6557  -24.8517   18.1113 C   0  0  0  0  0  0  0  0  0  0  0  0
  -18.3279   -6.3899   21.6735 C   0  0  0  0  0  0  0  0  0  0  0  0
  -23.4886  -10.7904   20.0529 C   0  0  0  0  0  0  0  0  0  0  0  0
  -29.4606  -18.0615   18.1551 C   0  0  0  0  0  0  0  0  0  0  0  0
  -24.0527  -13.2439   20.4650 C   0  0  0  0  0  0  0  0  0  0  0  0
  -28.4509  -32.0925   20.8836 C   0  0  0  0  0  0  0  0  0  0  0  0
  -23.5764  -27.2658   18.2713 C   0  0  0  0  0  0  0  0  0  0  0  0
  -28.0241  -31.0206   20.0765 C   0  0  0  0  0  0  0  0  0  0  0  0
  -23.6216  -26.0127   18.8988 C   0  0  0  0  0  0  0  0  0  0  0  0
  -27.6839  -19.9363   17.1011 C   0  0  0  0  0  0  0  0  0  0  0  0
  -28.7839  -20.3602   17.8467 C   0  0  0  0  0  0  0  0  0  0  0  0
  -21.7443   -8.6664   19.5750 C   0  0  0  0  0  0  0  0  0  0  0  0
  -23.6323  -24.9355   16.7194 C   0  0  0  0  0  0  0  0  0  0  0  0
  -19.7364   -7.5644   20.1008 C   0  0  0  0  0  0  0  0  0  0  0  0
  -17.4061   -7.4359   21.6291 C   0  0  0  0  0  0  0  0  0  0  0  0
  -19.4930   -6.4542   20.9093 C   0  0  0  0  0  0  0  0  0  0  0  0
  -24.3898  -11.8871   20.3004 C   0  0  0  0  0  0  0  0  0  0  0  0
  -25.2553  -13.8736   20.6740 C   0  0  0  0  0  0  0  0  0  0  0  0
  -30.4062  -17.0626   18.7163 C   0  0  0  0  0  0  0  0  0  0  0  0
  -22.7674  -13.8784   20.4320 C   0  0  0  0  0  0  0  0  0  0  0  0
  -24.9130  -21.8320   15.4018 C   0  0  0  0  0  0  0  0  0  0  0  0
  -25.6473  -20.5873   15.8083 C   0  0  0  0  0  0  0  0  0  0  0  0
  -25.5772  -28.2878   20.5199 C   0  0  0  0  0  0  0  0  0  0  0  0
  -23.2721  -27.1900   22.5209 C   0  0  0  0  0  0  0  0  0  0  0  0
  -20.6294  -25.0893   23.0209 C   0  0  0  0  0  0  0  0  0  0  0  0
  -30.5959  -14.7096   19.4586 C   0  0  0  0  0  0  0  0  0  0  0  0
  -28.6163  -31.9454   22.3754 C   0  0  0  0  0  0  0  0  0  0  0  0
  -23.5144  -28.5259   19.0902 C   0  0  0  0  0  0  0  0  0  0  0  0
  -23.6431  -25.8771   20.3987 C   0  0  0  0  0  0  0  0  0  0  0  0
  -27.8850  -30.7363   22.9531 C   0  0  0  0  0  0  0  0  0  0  0  0
  -29.8627  -11.9691   21.5680 C   0  0  0  0  0  0  0  0  0  0  0  0
  -28.1485  -29.4971   22.1036 C   0  0  0  0  0  0  0  0  0  0  0  0
  -28.3438  -11.8174   21.4481 C   0  0  0  0  0  0  0  0  0  0  0  0
  -30.5011  -12.3572   20.2350 C   0  0  0  0  0  0  0  0  0  0  0  0
  -28.3993  -13.3782   19.4619 C   0  0  0  0  0  0  0  0  0  0  0  0
  -27.6284  -29.6876   20.6737 C   0  0  1  0  0  0  0  0  0  0  0  0
  -24.0761  -28.3520   20.4979 C   0  0  1  0  0  0  0  0  0  0  0  0
  -27.7015  -13.0568   20.7934 C   0  0  1  0  0  0  0  0  0  0  0  0
  -18.9720  -24.3906   24.7708 C   0  0  0  0  0  0  0  0  0  0  0  0
  -25.4365  -25.5502   23.9126 C   0  0  0  0  0  0  0  0  0  0  0  0
  -23.6237  -24.1944   24.9821 C   0  0  0  0  0  0  0  0  0  0  0  0
  -23.7967  -26.6373   25.4565 C   0  0  0  0  0  0  0  0  0  0  0  0
  -18.3387  -25.9858   21.3752 C   0  0  0  0  0  0  0  0  0  0  0  0
  -24.3550  -22.6790   16.5157 C   0  0  0  0  0  0  0  0  0  1  0  0
  -22.9781  -25.8696   23.1910 C   0  0  1  0  0  0  0  0  0  0  0  0
  -19.2493  -25.3284   23.6062 C   0  0  2  0  0  0  0  0  0  0  0  0
  -23.9603  -25.5652   24.3572 C   0  0  0  0  0  0  0  0  0  0  0  0
  -25.7037  -11.6669   20.3964 N   0  0  0  0  0  0  0  0  0  0  0  0
  -26.2028  -12.8939   20.6235 N   0  0  0  0  0  0  0  0  0  0  0  0
  -23.5871  -27.1386   21.1557 N   0  0  0  0  0  0  0  0  0  0  0  0
  -29.8432  -13.5442   19.6862 N   0  0  0  0  0  0  0  0  0  0  0  0
  -29.0175  -21.7337   18.0817 N   0  0  0  0  0  0  0  0  0  0  0  0
  -25.5842  -15.1643   20.8942 N   0  0  0  0  0  0  0  0  0  0  0  0
  -21.6355  -13.0834   20.2059 N   0  0  0  0  0  0  0  0  0  0  0  0
  -26.7690  -20.8684   16.5581 N   0  0  0  0  0  0  0  0  0  0  0  0
  -29.8676  -15.8015   18.9733 N   0  0  0  0  0  0  0  0  0  0  0  0
  -26.1915  -29.5204   20.6320 N   0  0  0  0  0  0  0  0  0  0  0  0
  -21.5751  -25.9168   23.5883 N   0  0  0  0  0  0  0  0  0  0  0  0
  -18.2018  -25.1116   22.5685 N   0  3  0  0  0  0  0  0  0  0  0  0
  -31.5814  -17.3783   18.8809 O   0  0  0  0  0  0  0  0  0  0  0  0
  -22.6284  -15.1160   20.5818 O   0  0  0  0  0  0  0  0  0  0  0  0
  -24.8027  -22.0586   14.2063 O   0  0  0  0  0  0  0  0  0  0  0  0
  -25.1873  -19.5283   15.4145 O   0  0  0  0  0  0  0  0  0  0  0  0
  -26.1365  -27.2002   20.4426 O   0  0  0  0  0  0  0  0  0  0  0  0
  -23.2170  -28.2295   23.1828 O   0  0  0  0  0  0  0  0  0  0  0  0
  -20.8473  -24.2497   22.1502 O   0  0  0  0  0  0  0  0  0  0  0  0
  -31.8043  -14.7838   19.7024 O   0  0  0  0  0  0  0  0  0  0  0  0
  -20.8931   -7.6301   19.3422 O   0  0  0  0  0  0  0  0  0  0  0  0
  -23.6641  -23.8012   15.9683 O   0  0  0  0  0  0  0  0  0  1  0  0
  -16.2879   -7.3750   22.3640 F   0  0  0  0  0  0  0  0  0  0  0  0
  -20.3754   -5.4467   20.9569 F   0  0  0  0  0  0  0  0  0  0  0  0
  1  2  1  0  0  0  0
  1  6  2  0  0  0  0
  2  7  2  0  0  0  0
  3 10  2  0  0  0  0
  3 18  1  0  0  0  0
  4 11  1  0  0  0  0
  4 18  2  0  0  0  0
  5  9  2  0  0  0  0
  5 19  1  0  0  0  0
  6 21  1  0  0  0  0
  7 23  1  0  0  0  0
  8 12  2  0  0  0  0
  8 22  1  0  0  0  0
  9 25  1  0  0  0  0
 10 27  1  0  0  0  0
 11 27  2  0  0  0  0
 12 28  1  0  0  0  0
 13 14  2  0  0  0  0
 13 29  1  0  0  0  0
 14 30  1  0  0  0  0
 15 19  2  0  0  0  0
 15 26  1  0  0  0  0
 16 24  1  0  0  0  0
 16 28  2  0  0  0  0
 17 30  2  0  0  0  0
 17 31  1  0  0  0  0
 18 32  1  0  0  0  0
 19 34  1  0  0  0  0
 20 32  1  0  0  0  0
 20 33  2  0  0  0  0
 20 35  1  0  0  0  0
 21 23  2  0  0  0  0
 21 42  1  0  0  0  0
 22 24  2  0  0  0  0
 22 43  1  0  0  0  0
 23 51  1  0  0  0  0
 24 44  1  0  0  0  0
 25 26  2  0  0  0  0
 25 70  1  0  0  0  0
 26 67  1  0  0  0  0
 27 83  1  0  0  0  0
 28 84  1  0  0  0  0
 29 31  2  0  0  0  0
 29 83  1  0  0  0  0
 30 85  1  0  0  0  0
 31 86  1  0  0  0  0
 32 63  2  0  0  0  0
 33 64  1  0  0  0  0
 33 68  1  0  0  0  0
 34 71  1  0  0  0  0
 34 75  2  0  0  0  0
 35 69  1  0  0  0  0
 35 76  2  0  0  0  0
 36 37  1  0  0  0  0
 36 59  1  0  0  0  0
 36 77  2  0  0  0  0
 37 70  1  0  0  0  0
 37 78  2  0  0  0  0
 38 52  1  0  0  0  0
 38 72  1  0  0  0  0
 38 79  2  0  0  0  0
 39 60  1  0  0  0  0
 39 65  1  0  0  0  0
 39 80  2  0  0  0  0
 40 61  1  0  0  0  0
 40 73  1  0  0  0  0
 40 81  2  0  0  0  0
 41 66  1  0  0  0  0
 41 71  1  0  0  0  0
 41 82  2  0  0  0  0
 42 45  1  0  0  0  0
 43 52  1  0  0  0  0
 44 65  1  0  0  0  0
 45 47  1  0  0  0  0
 46 48  1  0  0  0  0
 46 49  1  0  0  0  0
 47 51  1  0  0  0  0
 48 53  1  0  0  0  0
 49 66  1  0  0  0  0
 50 53  1  0  0  0  0
 50 66  1  0  0  0  0
 51 72  1  0  0  0  0
 52 65  1  0  0  0  0
 53 64  1  0  0  0  0
 54 61  1  0  0  0  0
 55 62  1  0  0  0  0
 56 62  1  0  0  0  0
 57 62  1  0  0  0  0
 58 74  1  0  0  0  0
 59 84  1  0  0  0  0
 60 62  1  0  0  0  0
 60 73  1  0  0  0  0
 61 74  1  0  0  0  0
 63 64  1  0  0  0  0
M  CHG  1  74   1
M  ISO  4  41 100  59 101  71 100  84 101
M  END
> <Batch ID>
0095

> <Smiles>
CNC(C)C(=O)NC(C(=O)N1Cc2cc([101O:1][101CH2:1]C(=O)C(=O)Nc3ccc(C(=O)[100NH:0][100C:0](=O)N4CCCC(n5nc(-c6ccc(Oc7ccc(F)cc7F)cc6)c(C(N)=O)c5N)C4)cc3N)ccc2CC1C(=O)NC1CCCc2ccccc21)C(C)(C)C

> <Shape>
0.193

> <Color>
0.118

> <Negative vol penalty>
0.000

$$$$

  -OEChem-04052300433D

 85 93  0     1  0  0  0  0  0999 V2000
  -16.0829  -29.3591   23.5652 C   0  0  0  0  0  0  0  0  0  0  0  0
  -16.9380  -28.3750   24.0508 C   0  0  0  0  0  0  0  0  0  0  0  0
  -23.3906  -10.3121   21.2951 C   0  0  0  0  0  0  0  0  0  0  0  0
  -24.8033   -8.5613   22.1759 C   0  0  0  0  0  0  0  0  0  0  0  0
  -29.3864  -19.6047   21.1102 C   0  0  0  0  0  0  0  0  0  0  0  0
  -16.5747  -30.3533   22.7204 C   0  0  0  0  0  0  0  0  0  0  0  0
  -18.2852  -28.3839   23.6911 C   0  0  0  0  0  0  0  0  0  0  0  0
  -23.0347  -26.6866   27.1648 C   0  0  0  0  0  0  0  0  0  0  0  0
  -28.7324  -20.3567   22.0861 C   0  0  0  0  0  0  0  0  0  0  0  0
  -22.3362   -9.4057   21.1845 C   0  0  0  0  0  0  0  0  0  0  0  0
  -23.7489   -7.6549   22.0653 C   0  0  0  0  0  0  0  0  0  0  0  0
  -23.7719  -25.5052   27.2333 C   0  0  0  0  0  0  0  0  0  0  0  0
  -20.9468   -6.8743   23.7856 C   0  0  0  0  0  0  0  0  0  0  0  0
  -20.7112   -6.0218   24.8642 C   0  0  0  0  0  0  0  0  0  0  0  0
  -25.4252  -26.4586   25.7579 C   0  0  0  0  0  0  0  0  0  0  0  0
  -28.0424  -18.3222   23.1914 C   0  0  0  0  0  0  0  0  0  0  0  0
  -21.0867   -4.1102   23.4352 C   0  0  0  0  0  0  0  0  0  0  0  0
  -24.6242   -9.8899   21.7907 C   0  0  0  0  0  0  0  0  0  0  0  0
  -29.3683  -18.2114   21.1748 C   0  0  0  0  0  0  0  0  0  0  0  0
  -26.0269  -11.6353   23.0129 C   0  0  0  0  0  0  0  0  0  0  0  0
  -17.9306  -30.3800   22.3578 C   0  0  0  0  0  0  0  0  0  0  0  0
  -23.4825  -27.7607   26.3824 C   0  0  0  0  0  0  0  0  0  0  0  0
  -18.7952  -29.3787   22.8395 C   0  0  0  0  0  0  0  0  0  0  0  0
  -24.6932  -27.6534   25.6832 C   0  0  0  0  0  0  0  0  0  0  0  0
  -28.0604  -19.7155   23.1267 C   0  0  0  0  0  0  0  0  0  0  0  0
  -22.5153   -8.0771   21.5697 C   0  0  0  0  0  0  0  0  0  0  0  0
  -24.9659  -25.3900   26.5275 C   0  0  0  0  0  0  0  0  0  0  0  0
  -21.2522   -6.3447   22.5318 C   0  0  0  0  0  0  0  0  0  0  0  0
  -20.7812   -4.6397   24.6890 C   0  0  0  0  0  0  0  0  0  0  0  0
  -28.6964  -17.5702   22.2155 C   0  0  0  0  0  0  0  0  0  0  0  0
  -21.3222   -4.9627   22.3566 C   0  0  0  0  0  0  0  0  0  0  0  0
  -25.7140  -10.8256   21.9046 C   0  0  0  0  0  0  0  0  0  0  0  0
  -27.1412  -12.3367   22.6220 C   0  0  0  0  0  0  0  0  0  0  0  0
  -30.0657  -17.4146   20.1330 C   0  0  0  0  0  0  0  0  0  0  0  0
  -25.3691  -11.7437   24.2823 C   0  0  0  0  0  0  0  0  0  0  0  0
  -22.3463  -29.3247   23.8592 C   0  0  0  0  0  0  0  0  0  0  0  0
  -26.5794  -22.3891   25.3040 C   0  0  0  0  0  0  0  0  0  0  0  0
  -24.9075  -31.2447   24.3852 C   0  0  0  0  0  0  0  0  0  0  0  0
  -28.0349  -31.6069   25.7024 C   0  0  0  0  0  0  0  0  0  0  0  0
  -29.9885  -15.2774   18.8880 C   0  0  0  0  0  0  0  0  0  0  0  0
  -18.4061  -31.4473   21.4041 C   0  0  0  0  0  0  0  0  0  0  0  0
  -22.6892  -29.0379   26.3403 C   0  0  0  0  0  0  0  0  0  0  0  0
  -25.2278  -28.7848   24.8450 C   0  0  0  0  0  0  0  0  0  0  0  0
  -19.9244  -31.6022   21.3714 C   0  0  0  0  0  0  0  0  0  0  0  0
  -30.1556  -11.7586   18.5930 C   0  0  0  0  0  0  0  0  0  0  0  0
  -20.5983  -30.2374   21.2720 C   0  0  0  0  0  0  0  0  0  0  0  0
  -29.0460  -11.2649   19.5253 C   0  0  0  0  0  0  0  0  0  0  0  0
  -29.7521  -13.0354   17.8569 C   0  0  0  0  0  0  0  0  0  0  0  0
  -28.1675  -13.6310   19.6436 C   0  0  0  0  0  0  0  0  0  0  0  0
  -20.2680  -29.3689   22.4919 C   0  0  1  0  0  0  0  0  0  0  0  0
  -22.9798  -29.8813   25.1028 C   0  0  1  0  0  0  0  0  0  0  0  0
  -28.5522  -12.3869   20.4606 C   0  0  1  0  0  0  0  0  0  0  0  0
  -29.8898  -33.2800   25.9420 C   0  0  0  0  0  0  0  0  0  0  0  0
  -25.6827  -30.7994   21.4679 C   0  0  0  0  0  0  0  0  0  0  0  0
  -27.9652  -31.6713   22.0139 C   0  0  0  0  0  0  0  0  0  0  0  0
  -25.9720  -33.1479   22.2774 C   0  0  0  0  0  0  0  0  0  0  0  0
  -27.8687  -31.5415   28.6565 C   0  0  0  0  0  0  0  0  0  0  0  0
  -27.3756  -21.9034   24.1115 C   0  0  0  0  0  0  0  0  0  0  0  0
  -26.4665  -23.8944   25.4471 C   0  0  0  0  0  0  0  0  0  1  0  0
  -26.3436  -31.2626   23.9204 C   0  0  1  0  0  0  0  0  0  0  0  0
  -28.6403  -32.6900   26.5770 C   0  0  2  0  0  0  0  0  0  0  0  0
  -26.4801  -31.6981   22.4341 C   0  0  0  0  0  0  0  0  0  0  0  0
  -26.5610  -10.9960   20.8861 N   0  0  0  0  0  0  0  0  0  0  0  0
  -27.4171  -11.9209   21.3527 N   0  0  0  0  0  0  0  0  0  0  0  0
  -24.4128  -30.0108   24.8308 N   0  0  0  0  0  0  0  0  0  0  0  0
  -29.3064  -14.0505   18.8130 N   0  0  0  0  0  0  0  0  0  0  0  0
  -27.9022  -13.2624   23.2437 N   0  0  0  0  0  0  0  0  0  0  0  0
  -24.2378  -10.9508   24.5184 N   0  0  0  0  0  0  0  0  0  0  0  0
  -27.4099  -20.4633   24.0977 N   0  0  0  0  0  0  0  0  0  0  0  0
  -29.5130  -16.1627   19.8617 N   0  0  0  0  0  0  0  0  0  0  0  0
  -21.0604  -29.7768   23.6321 N   0  0  0  0  0  0  0  0  0  0  0  0
  -27.0665  -32.1120   24.8607 N   0  0  0  0  0  0  0  0  0  0  0  0
  -29.0082  -32.1340   27.9099 N   0  3  0  0  0  0  0  0  0  0  0  0
  -31.0353  -17.9010   19.5573 O   0  0  0  0  0  0  0  0  0  0  0  0
  -25.7628  -12.5328   25.1744 O   0  0  0  0  0  0  0  0  0  0  0  0
  -22.9780  -28.5442   23.1568 O   0  0  0  0  0  0  0  0  0  0  0  0
  -26.0544  -21.6223   26.1104 O   0  0  0  0  0  0  0  0  0  0  0  0
  -24.2509  -32.2887   24.3608 O   0  0  0  0  0  0  0  0  0  0  0  0
  -28.3885  -30.4311   25.7575 O   0  0  0  0  0  0  0  0  0  0  0  0
  -30.9611  -15.5467   18.1761 O   0  0  0  0  0  0  0  0  0  0  0  0
  -21.4865   -7.1924   21.4621 O   0  0  0  0  0  0  0  0  0  0  0  0
  -25.6871  -24.2378   26.5921 O   0  0  0  0  0  0  0  0  0  1  0  0
  -20.5565   -3.8212   25.7252 F   0  0  0  0  0  0  0  0  0  0  0  0
  -28.6707  -16.2317   22.2858 F   0  0  0  0  0  0  0  0  0  0  0  0
  -21.6163   -4.4481   21.1547 F   0  0  0  0  0  0  0  0  0  0  0  0
  1  2  1  0  0  0  0
  1  6  2  0  0  0  0
  2  7  2  0  0  0  0
  3 10  2  0  0  0  0
  3 18  1  0  0  0  0
  4 11  1  0  0  0  0
  4 18  2  0  0  0  0
  5  9  2  0  0  0  0
  5 19  1  0  0  0  0
  6 21  1  0  0  0  0
  7 23  1  0  0  0  0
  8 12  2  0  0  0  0
  8 22  1  0  0  0  0
  9 25  1  0  0  0  0
 10 26  1  0  0  0  0
 11 26  2  0  0  0  0
 12 27  1  0  0  0  0
 13 14  2  0  0  0  0
 13 28  1  0  0  0  0
 14 29  1  0  0  0  0
 15 24  1  0  0  0  0
 15 27  2  0  0  0  0
 16 25  2  0  0  0  0
 16 30  1  0  0  0  0
 17 29  2  0  0  0  0
 17 31  1  0  0  0  0
 18 32  1  0  0  0  0
 19 30  2  0  0  0  0
 19 34  1  0  0  0  0
 20 32  1  0  0  0  0
 20 33  2  0  0  0  0
 20 35  1  0  0  0  0
 21 23  2  0  0  0  0
 21 41  1  0  0  0  0
 22 24  2  0  0  0  0
 22 42  1  0  0  0  0
 23 50  1  0  0  0  0
 24 43  1  0  0  0  0
 25 69  1  0  0  0  0
 26 81  1  0  0  0  0
 27 82  1  0  0  0  0
 28 31  2  0  0  0  0
 28 81  1  0  0  0  0
 29 83  1  0  0  0  0
 30 84  1  0  0  0  0
 31 85  1  0  0  0  0
 32 63  2  0  0  0  0
 33 64  1  0  0  0  0
 33 67  1  0  0  0  0
 34 70  1  0  0  0  0
 34 74  2  0  0  0  0
 35 68  1  0  0  0  0
 35 75  2  0  0  0  0
 36 51  1  0  0  0  0
 36 71  1  0  0  0  0
 36 76  2  0  0  0  0
 37 58  1  0  0  0  0
 37 59  1  0  0  0  0
 37 77  2  0  0  0  0
 38 60  1  0  0  0  0
 38 65  1  0  0  0  0
 38 78  2  0  0  0  0
 39 61  1  0  0  0  0
 39 72  1  0  0  0  0
 39 79  2  0  0  0  0
 40 66  1  0  0  0  0
 40 70  1  0  0  0  0
 40 80  2  0  0  0  0
 41 44  1  0  0  0  0
 42 51  1  0  0  0  0
 43 65  1  0  0  0  0
 44 46  1  0  0  0  0
 45 47  1  0  0  0  0
 45 48  1  0  0  0  0
 46 50  1  0  0  0  0
 47 52  1  0  0  0  0
 48 66  1  0  0  0  0
 49 52  1  0  0  0  0
 49 66  1  0  0  0  0
 50 71  1  0  0  0  0
 51 65  1  0  0  0  0
 52 64  1  0  0  0  0
 53 61  1  0  0  0  0
 54 62  1  0  0  0  0
 55 62  1  0  0  0  0
 56 62  1  0  0  0  0
 57 73  1  0  0  0  0
 58 69  1  0  0  0  0
 59 82  1  0  0  0  0
 60 62  1  0  0  0  0
 60 72  1  0  0  0  0
 61 73  1  0  0  0  0
 63 64  1  0  0  0  0
M  CHG  1  73   1
M  ISO  4  40 100  59 101  70 100  82 101
M  END
> <Batch ID>
0095

> <Smiles>
CNC(C)C(=O)NC(C(=O)N1Cc2cc([101O:1][101CH2:1]C(=O)CNc3ccc(C(=O)[100NH:0][100C:0](=O)N4CCCC(n5nc(-c6ccc(Oc7ccc(F)cc7F)cc6)c(C(N)=O)c5N)C4)c(F)c3)ccc2CC1C(=O)NC1CCCc2ccccc21)C(C)(C)C

> <Shape>
0.272

> <Color>
0.117

> <Negative vol penalty>
0.000

$$$$

  -OEChem-04052300433D

 85 93  0     1  0  0  0  0  0999 V2000
  -16.0829  -29.3591   23.5652 C   0  0  0  0  0  0  0  0  0  0  0  0
  -16.9380  -28.3750   24.0508 C   0  0  0  0  0  0  0  0  0  0  0  0
  -23.3906  -10.3121   21.2951 C   0  0  0  0  0  0  0  0  0  0  0  0
  -24.8033   -8.5613   22.1759 C   0  0  0  0  0  0  0  0  0  0  0  0
  -29.3864  -19.6047   21.1102 C   0  0  0  0  0  0  0  0  0  0  0  0
  -16.5747  -30.3533   22.7204 C   0  0  0  0  0  0  0  0  0  0  0  0
  -18.2852  -28.3839   23.6911 C   0  0  0  0  0  0  0  0  0  0  0  0
  -23.0347  -26.6866   27.1648 C   0  0  0  0  0  0  0  0  0  0  0  0
  -28.7324  -20.3567   22.0861 C   0  0  0  0  0  0  0  0  0  0  0  0
  -22.3362   -9.4057   21.1845 C   0  0  0  0  0  0  0  0  0  0  0  0
  -23.7489   -7.6549   22.0653 C   0  0  0  0  0  0  0  0  0  0  0  0
  -23.7719  -25.5052   27.2333 C   0  0  0  0  0  0  0  0  0  0  0  0
  -20.9468   -6.8743   23.7856 C   0  0  0  0  0  0  0  0  0  0  0  0
  -20.7112   -6.0218   24.8642 C   0  0  0  0  0  0  0  0  0  0  0  0
  -25.4252  -26.4586   25.7579 C   0  0  0  0  0  0  0  0  0  0  0  0
  -28.0424  -18.3222   23.1914 C   0  0  0  0  0  0  0  0  0  0  0  0
  -21.0867   -4.1102   23.4352 C   0  0  0  0  0  0  0  0  0  0  0  0
  -24.6242   -9.8899   21.7907 C   0  0  0  0  0  0  0  0  0  0  0  0
  -29.3683  -18.2114   21.1748 C   0  0  0  0  0  0  0  0  0  0  0  0
  -26.0269  -11.6353   23.0129 C   0  0  0  0  0  0  0  0  0  0  0  0
  -17.9306  -30.3800   22.3578 C   0  0  0  0  0  0  0  0  0  0  0  0
  -23.4825  -27.7607   26.3824 C   0  0  0  0  0  0  0  0  0  0  0  0
  -18.7952  -29.3787   22.8395 C   0  0  0  0  0  0  0  0  0  0  0  0
  -24.6932  -27.6534   25.6832 C   0  0  0  0  0  0  0  0  0  0  0  0
  -28.0604  -19.7155   23.1267 C   0  0  0  0  0  0  0  0  0  0  0  0
  -22.5153   -8.0771   21.5697 C   0  0  0  0  0  0  0  0  0  0  0  0
  -24.9659  -25.3900   26.5275 C   0  0  0  0  0  0  0  0  0  0  0  0
  -21.2522   -6.3447   22.5318 C   0  0  0  0  0  0  0  0  0  0  0  0
  -20.7812   -4.6397   24.6890 C   0  0  0  0  0  0  0  0  0  0  0  0
  -28.6964  -17.5702   22.2155 C   0  0  0  0  0  0  0  0  0  0  0  0
  -21.3222   -4.9627   22.3566 C   0  0  0  0  0  0  0  0  0  0  0  0
  -25.7140  -10.8256   21.9046 C   0  0  0  0  0  0  0  0  0  0  0  0
  -27.1412  -12.3367   22.6220 C   0  0  0  0  0  0  0  0  0  0  0  0
  -30.0657  -17.4146   20.1330 C   0  0  0  0  0  0  0  0  0  0  0  0
  -25.3691  -11.7437   24.2823 C   0  0  0  0  0  0  0  0  0  0  0  0
  -22.3463  -29.3247   23.8592 C   0  0  0  0  0  0  0  0  0  0  0  0
  -26.5794  -22.3891   25.3040 C   0  0  0  0  0  0  0  0  0  0  0  0
  -24.9075  -31.2447   24.3852 C   0  0  0  0  0  0  0  0  0  0  0  0
  -28.0349  -31.6069   25.7024 C   0  0  0  0  0  0  0  0  0  0  0  0
  -29.9885  -15.2774   18.8880 C   0  0  0  0  0  0  0  0  0  0  0  0
  -18.4061  -31.4473   21.4041 C   0  0  0  0  0  0  0  0  0  0  0  0
  -22.6892  -29.0379   26.3403 C   0  0  0  0  0  0  0  0  0  0  0  0
  -25.2278  -28.7848   24.8450 C   0  0  0  0  0  0  0  0  0  0  0  0
  -19.9244  -31.6022   21.3714 C   0  0  0  0  0  0  0  0  0  0  0  0
  -30.1556  -11.7586   18.5930 C   0  0  0  0  0  0  0  0  0  0  0  0
  -20.5983  -30.2374   21.2720 C   0  0  0  0  0  0  0  0  0  0  0  0
  -29.0460  -11.2649   19.5253 C   0  0  0  0  0  0  0  0  0  0  0  0
  -29.7521  -13.0354   17.8569 C   0  0  0  0  0  0  0  0  0  0  0  0
  -28.1675  -13.6310   19.6436 C   0  0  0  0  0  0  0  0  0  0  0  0
  -20.2680  -29.3689   22.4919 C   0  0  1  0  0  0  0  0  0  0  0  0
  -22.9798  -29.8813   25.1028 C   0  0  1  0  0  0  0  0  0  0  0  0
  -28.5522  -12.3869   20.4606 C   0  0  1  0  0  0  0  0  0  0  0  0
  -29.8898  -33.2800   25.9420 C   0  0  0  0  0  0  0  0  0  0  0  0
  -25.6827  -30.7994   21.4679 C   0  0  0  0  0  0  0  0  0  0  0  0
  -27.9652  -31.6713   22.0139 C   0  0  0  0  0  0  0  0  0  0  0  0
  -25.9720  -33.1479   22.2774 C   0  0  0  0  0  0  0  0  0  0  0  0
  -27.8687  -31.5415   28.6565 C   0  0  0  0  0  0  0  0  0  0  0  0
  -27.3756  -21.9034   24.1115 C   0  0  0  0  0  0  0  0  0  0  0  0
  -26.4665  -23.8944   25.4471 C   0  0  0  0  0  0  0  0  0  1  0  0
  -26.3436  -31.2626   23.9204 C   0  0  1  0  0  0  0  0  0  0  0  0
  -28.6403  -32.6900   26.5770 C   0  0  2  0  0  0  0  0  0  0  0  0
  -26.4801  -31.6981   22.4341 C   0  0  0  0  0  0  0  0  0  0  0  0
  -26.5610  -10.9960   20.8861 N   0  0  0  0  0  0  0  0  0  0  0  0
  -27.4171  -11.9209   21.3527 N   0  0  0  0  0  0  0  0  0  0  0  0
  -24.4128  -30.0108   24.8308 N   0  0  0  0  0  0  0  0  0  0  0  0
  -29.3064  -14.0505   18.8130 N   0  0  0  0  0  0  0  0  0  0  0  0
  -27.9022  -13.2624   23.2437 N   0  0  0  0  0  0  0  0  0  0  0  0
  -24.2378  -10.9508   24.5184 N   0  0  0  0  0  0  0  0  0  0  0  0
  -27.4099  -20.4633   24.0977 N   0  0  0  0  0  0  0  0  0  0  0  0
  -29.5130  -16.1627   19.8617 N   0  0  0  0  0  0  0  0  0  0  0  0
  -21.0604  -29.7768   23.6321 N   0  0  0  0  0  0  0  0  0  0  0  0
  -27.0665  -32.1120   24.8607 N   0  0  0  0  0  0  0  0  0  0  0  0
  -29.0082  -32.1340   27.9099 N   0  3  0  0  0  0  0  0  0  0  0  0
  -31.0353  -17.9010   19.5573 O   0  0  0  0  0  0  0  0  0  0  0  0
  -25.7628  -12.5328   25.1744 O   0  0  0  0  0  0  0  0  0  0  0  0
  -22.9780  -28.5442   23.1568 O   0  0  0  0  0  0  0  0  0  0  0  0
  -26.0544  -21.6223   26.1104 O   0  0  0  0  0  0  0  0  0  0  0  0
  -24.2509  -32.2887   24.3608 O   0  0  0  0  0  0  0  0  0  0  0  0
  -28.3885  -30.4311   25.7575 O   0  0  0  0  0  0  0  0  0  0  0  0
  -30.9611  -15.5467   18.1761 O   0  0  0  0  0  0  0  0  0  0  0  0
  -21.4865   -7.1924   21.4621 O   0  0  0  0  0  0  0  0  0  0  0  0
  -25.6871  -24.2378   26.5921 O   0  0  0  0  0  0  0  0  0  1  0  0
  -20.5565   -3.8212   25.7252 F   0  0  0  0  0  0  0  0  0  0  0  0
  -28.6707  -16.2317   22.2858 F   0  0  0  0  0  0  0  0  0  0  0  0
  -21.6163   -4.4481   21.1547 F   0  0  0  0  0  0  0  0  0  0  0  0
  1  2  1  0  0  0  0
  1  6  2  0  0  0  0
  2  7  2  0  0  0  0
  3 10  2  0  0  0  0
  3 18  1  0  0  0  0
  4 11  1  0  0  0  0
  4 18  2  0  0  0  0
  5  9  2  0  0  0  0
  5 19  1  0  0  0  0
  6 21  1  0  0  0  0
  7 23  1  0  0  0  0
  8 12  2  0  0  0  0
  8 22  1  0  0  0  0
  9 25  1  0  0  0  0
 10 26  1  0  0  0  0
 11 26  2  0  0  0  0
 12 27  1  0  0  0  0
 13 14  2  0  0  0  0
 13 28  1  0  0  0  0
 14 29  1  0  0  0  0
 15 24  1  0  0  0  0
 15 27  2  0  0  0  0
 16 25  2  0  0  0  0
 16 30  1  0  0  0  0
 17 29  2  0  0  0  0
 17 31  1  0  0  0  0
 18 32  1  0  0  0  0
 19 30  2  0  0  0  0
 19 34  1  0  0  0  0
 20 32  1  0  0  0  0
 20 33  2  0  0  0  0
 20 35  1  0  0  0  0
 21 23  2  0  0  0  0
 21 41  1  0  0  0  0
 22 24  2  0  0  0  0
 22 42  1  0  0  0  0
 23 50  1  0  0  0  0
 24 43  1  0  0  0  0
 25 69  1  0  0  0  0
 26 81  1  0  0  0  0
 27 82  1  0  0  0  0
 28 31  2  0  0  0  0
 28 81  1  0  0  0  0
 29 83  1  0  0  0  0
 30 84  1  0  0  0  0
 31 85  1  0  0  0  0
 32 63  2  0  0  0  0
 33 64  1  0  0  0  0
 33 67  1  0  0  0  0
 34 70  1  0  0  0  0
 34 74  2  0  0  0  0
 35 68  1  0  0  0  0
 35 75  2  0  0  0  0
 36 51  1  0  0  0  0
 36 71  1  0  0  0  0
 36 76  2  0  0  0  0
 37 58  1  0  0  0  0
 37 59  1  0  0  0  0
 37 77  2  0  0  0  0
 38 60  1  0  0  0  0
 38 65  1  0  0  0  0
 38 78  2  0  0  0  0
 39 61  1  0  0  0  0
 39 72  1  0  0  0  0
 39 79  2  0  0  0  0
 40 66  1  0  0  0  0
 40 70  1  0  0  0  0
 40 80  2  0  0  0  0
 41 44  1  0  0  0  0
 42 51  1  0  0  0  0
 43 65  1  0  0  0  0
 44 46  1  0  0  0  0
 45 47  1  0  0  0  0
 45 48  1  0  0  0  0
 46 50  1  0  0  0  0
 47 52  1  0  0  0  0
 48 66  1  0  0  0  0
 49 52  1  0  0  0  0
 49 66  1  0  0  0  0
 50 71  1  0  0  0  0
 51 65  1  0  0  0  0
 52 64  1  0  0  0  0
 53 61  1  0  0  0  0
 54 62  1  0  0  0  0
 55 62  1  0  0  0  0
 56 62  1  0  0  0  0
 57 73  1  0  0  0  0
 58 69  1  0  0  0  0
 59 82  1  0  0  0  0
 60 62  1  0  0  0  0
 60 72  1  0  0  0  0
 61 73  1  0  0  0  0
 63 64  1  0  0  0  0
M  CHG  1  73   1
M  ISO  4  40 100  59 101  70 100  82 101
M  END
> <Batch ID>
0095

> <Smiles>
CNC(C)C(=O)NC(C(=O)N1Cc2cc([101O:1][101CH2:1]C(=O)CNc3ccc(C(=O)[100NH:0][100C:0](=O)N4CCCC(n5nc(-c6ccc(Oc7ccc(F)cc7F)cc6)c(C(N)=O)c5N)C4)c(F)c3)ccc2CC1C(=O)NC1CCCc2ccccc21)C(C)(C)C

> <Shape>
0.272

> <Color>
0.117

> <Negative vol penalty>
0.000

$$$$

  -OEChem-04052300433D

 89 98  0     1  0  0  0  0  0999 V2000
  -33.5904  -33.6147   17.3254 C   0  0  0  0  0  0  0  0  0  0  0  0
  -33.2460  -32.2679   17.3797 C   0  0  0  0  0  0  0  0  0  0  0  0
  -22.9021  -15.8486   18.4466 C   0  0  0  0  0  0  0  0  0  0  0  0
  -22.3326  -14.8851   20.5877 C   0  0  0  0  0  0  0  0  0  0  0  0
  -33.2770  -34.4566   18.3916 C   0  0  0  0  0  0  0  0  0  0  0  0
  -32.5890  -31.7620   18.5008 C   0  0  0  0  0  0  0  0  0  0  0  0
  -28.3521  -27.3411   18.6021 C   0  0  0  0  0  0  0  0  0  0  0  0
  -29.5236  -18.2501   17.7303 C   0  0  0  0  0  0  0  0  0  0  0  0
  -29.7666  -16.9934   17.1759 C   0  0  0  0  0  0  0  0  0  0  0  0
  -21.5897  -15.6610   18.0130 C   0  0  0  0  0  0  0  0  0  0  0  0
  -21.0201  -14.6975   20.1541 C   0  0  0  0  0  0  0  0  0  0  0  0
  -28.4256  -25.9778   18.8844 C   0  0  0  0  0  0  0  0  0  0  0  0
  -18.5952  -17.1813   18.4061 C   0  0  0  0  0  0  0  0  0  0  0  0
  -17.9781  -18.2353   17.7326 C   0  0  0  0  0  0  0  0  0  0  0  0
  -27.7575  -26.4193   21.1600 C   0  0  0  0  0  0  0  0  0  0  0  0
  -30.5283  -17.5289   19.8057 C   0  0  0  0  0  0  0  0  0  0  0  0
  -17.6819  -16.8236   15.7945 C   0  0  0  0  0  0  0  0  0  0  0  0
  -23.2736  -15.4606   19.7339 C   0  0  0  0  0  0  0  0  0  0  0  0
  -25.1568  -16.7854   20.8321 C   0  0  0  0  0  0  0  0  0  0  0  0
  -32.6073  -33.9629   19.5222 C   0  0  0  0  0  0  0  0  0  0  0  0
  -27.9908  -28.2565   19.6011 C   0  0  0  0  0  0  0  0  0  0  0  0
  -32.2676  -32.5979   19.5837 C   0  0  0  0  0  0  0  0  0  0  0  0
  -27.6777  -27.7934   20.8871 C   0  0  0  0  0  0  0  0  0  0  0  0
  -29.9045  -18.5178   19.0452 C   0  0  0  0  0  0  0  0  0  0  0  0
  -30.3905  -16.0045   17.9365 C   0  0  0  0  0  0  0  0  0  0  0  0
  -20.6487  -15.0855   18.8668 C   0  0  0  0  0  0  0  0  0  0  0  0
  -28.1311  -25.5170   20.1643 C   0  0  0  0  0  0  0  0  0  0  0  0
  -18.7557  -15.9483   17.7738 C   0  0  0  0  0  0  0  0  0  0  0  0
  -30.7714  -16.2722   19.2514 C   0  0  0  0  0  0  0  0  0  0  0  0
  -17.5214  -18.0565   16.4268 C   0  0  0  0  0  0  0  0  0  0  0  0
  -18.2991  -15.7695   16.4680 C   0  0  0  0  0  0  0  0  0  0  0  0
  -24.6293  -15.6535   20.1822 C   0  0  0  0  0  0  0  0  0  0  0  0
  -26.4777  -16.4748   21.0446 C   0  0  0  0  0  0  0  0  0  0  0  0
  -29.9787  -20.2220   20.9165 C   0  0  0  0  0  0  0  0  0  0  0  0
  -24.5105  -18.0082   21.2099 C   0  0  0  0  0  0  0  0  0  0  0  0
  -29.4213  -30.7214   21.0086 C   0  0  0  0  0  0  0  0  0  0  0  0
  -26.5194  -31.1069   22.4061 C   0  0  0  0  0  0  0  0  0  0  0  0
  -23.5639  -29.7060   23.3802 C   0  0  0  0  0  0  0  0  0  0  0  0
  -30.6653  -13.5164   18.0960 C   0  0  0  0  0  0  0  0  0  0  0  0
  -32.3318  -34.9014   20.6703 C   0  0  0  0  0  0  0  0  0  0  0  0
  -27.8902  -29.7210   19.2734 C   0  0  0  0  0  0  0  0  0  0  0  0
  -27.2650  -28.7329   21.9895 C   0  0  0  0  0  0  0  0  0  0  0  0
  -29.6143  -21.6851   21.0244 C   0  0  0  0  0  0  0  0  0  0  0  0
  -31.3012  -34.3659   21.6609 C   0  0  0  0  0  0  0  0  0  0  0  0
  -29.1250  -12.3153   21.2389 C   0  0  0  0  0  0  0  0  0  0  0  0
  -31.6046  -32.9133   22.0141 C   0  0  0  0  0  0  0  0  0  0  0  0
  -27.8164  -13.1012   21.2974 C   0  0  0  0  0  0  0  0  0  0  0  0
  -29.5850  -12.0874   19.8022 C   0  0  0  0  0  0  0  0  0  0  0  0
  -29.0811  -20.8894   18.8404 C   0  0  0  0  0  0  0  0  0  0  0  0
  -28.3999  -14.1363   19.0682 C   0  0  0  0  0  0  0  0  0  0  0  0
  -31.5323  -32.0169   20.7720 C   0  0  1  0  0  0  0  0  0  0  0  0
  -28.0106  -30.6178   20.5017 C   0  0  1  0  0  0  0  0  0  0  0  0
  -28.6216  -21.8906   19.8891 C   0  0  2  0  0  0  0  0  0  0  0  0
  -27.9363  -14.4140   20.5060 C   0  0  1  0  0  0  0  0  0  0  0  0
  -30.5236  -14.2528   13.5425 C   0  0  0  0  0  0  0  0  0  0  0  0
  -21.4048  -30.2628   24.5317 C   0  0  0  0  0  0  0  0  0  0  0  0
  -27.9527  -31.0834   25.0996 C   0  0  0  0  0  0  0  0  0  0  0  0
  -25.7376  -30.6850   26.1962 C   0  0  0  0  0  0  0  0  0  0  0  0
  -26.1281  -32.7825   24.9036 C   0  0  0  0  0  0  0  0  0  0  0  0
  -21.9720  -29.0089   20.9846 C   0  0  0  0  0  0  0  0  0  0  0  0
  -31.7340  -15.6836   21.3449 C   0  0  0  0  0  0  0  0  0  0  0  0
  -28.5860  -23.3197   19.3762 C   0  0  0  0  0  0  0  0  0  1  0  0
  -30.0186  -14.3290   14.9766 C   0  0  0  0  0  0  0  0  0  0  0  0
  -31.1225  -14.6631   15.9729 C   0  0  0  0  0  0  0  0  0  0  0  0
  -25.8625  -30.5945   23.6650 C   0  0  1  0  0  0  0  0  0  0  0  0
  -22.1262  -30.1578   23.1971 C   0  0  2  0  0  0  0  0  0  0  0  0
  -26.4299  -31.2686   24.9461 C   0  0  0  0  0  0  0  0  0  0  0  0
  -25.5407  -14.6955   19.9940 N   0  0  0  0  0  0  0  0  0  0  0  0
  -26.6543  -15.2246   20.5289 N   0  0  0  0  0  0  0  0  0  0  0  0
  -29.6551  -19.8033   19.6124 N   0  0  0  0  0  0  0  0  0  0  0  0
  -27.1874  -30.1562   21.6214 N   0  0  0  0  0  0  0  0  0  0  0  0
  -29.6367  -13.3383   19.0439 N   0  0  0  0  0  0  0  0  0  0  0  0
  -27.4937  -17.1519   21.6204 N   0  0  0  0  0  0  0  0  0  0  0  0
  -23.1488  -18.1627   20.9164 N   0  0  0  0  0  0  0  0  0  0  0  0
  -30.1542  -31.7393   20.4286 N   0  0  0  0  0  0  0  0  0  0  0  0
  -24.4270  -30.7767   23.4796 N   0  0  0  0  0  0  0  0  0  0  0  0
  -30.6340  -14.7096   17.3492 N   0  0  0  0  0  0  0  0  0  0  0  0
  -21.3854  -29.1921   22.3371 N   0  3  0  0  0  0  0  0  0  0  0  0
  -30.5110  -19.6096   21.8310 O   0  0  0  0  0  0  0  0  0  0  0  0
  -25.1263  -18.9430   21.7760 O   0  0  0  0  0  0  0  0  0  0  0  0
  -29.8152  -29.9371   21.8638 O   0  0  0  0  0  0  0  0  0  0  0  0
  -26.4366  -32.3052   22.1255 O   0  0  0  0  0  0  0  0  0  0  0  0
  -23.8882  -28.5217   23.4338 O   0  0  0  0  0  0  0  0  0  0  0  0
  -31.5217  -12.6479   17.8888 O   0  0  0  0  0  0  0  0  0  0  0  0
  -19.3679  -14.9025   18.4441 O   0  0  0  0  0  0  0  0  0  0  0  0
  -31.3807  -15.3194   20.0124 O   0  0  0  0  0  0  0  0  0  0  0  0
  -28.2026  -24.1869   20.4427 O   0  0  0  0  0  0  0  0  0  1  0  0
  -16.9274  -19.0684   15.7807 F   0  0  0  0  0  0  0  0  0  0  0  0
  -18.4494  -14.5869   15.8558 F   0  0  0  0  0  0  0  0  0  0  0  0
  1  2  1  0  0  0  0
  1  5  2  0  0  0  0
  2  6  2  0  0  0  0
  3 10  2  0  0  0  0
  3 18  1  0  0  0  0
  4 11  1  0  0  0  0
  4 18  2  0  0  0  0
  5 20  1  0  0  0  0
  6 22  1  0  0  0  0
  7 12  2  0  0  0  0
  7 21  1  0  0  0  0
  8  9  2  0  0  0  0
  8 24  1  0  0  0  0
  9 25  1  0  0  0  0
 10 26  1  0  0  0  0
 11 26  2  0  0  0  0
 12 27  1  0  0  0  0
 13 14  2  0  0  0  0
 13 28  1  0  0  0  0
 14 30  1  0  0  0  0
 15 23  1  0  0  0  0
 15 27  2  0  0  0  0
 16 24  2  0  0  0  0
 16 29  1  0  0  0  0
 17 30  2  0  0  0  0
 17 31  1  0  0  0  0
 18 32  1  0  0  0  0
 19 32  1  0  0  0  0
 19 33  2  0  0  0  0
 19 35  1  0  0  0  0
 20 22  2  0  0  0  0
 20 40  1  0  0  0  0
 21 23  2  0  0  0  0
 21 41  1  0  0  0  0
 22 51  1  0  0  0  0
 23 42  1  0  0  0  0
 24 70  1  0  0  0  0
 25 29  2  0  0  0  0
 25 77  1  0  0  0  0
 26 85  1  0  0  0  0
 27 87  1  0  0  0  0
 28 31  2  0  0  0  0
 28 85  1  0  0  0  0
 29 86  1  0  0  0  0
 30 88  1  0  0  0  0
 31 89  1  0  0  0  0
 32 68  2  0  0  0  0
 33 69  1  0  0  0  0
 33 73  1  0  0  0  0
 34 43  1  0  0  0  0
 34 70  1  0  0  0  0
 34 79  2  0  0  0  0
 35 74  1  0  0  0  0
 35 80  2  0  0  0  0
 36 52  1  0  0  0  0
 36 75  1  0  0  0  0
 36 81  2  0  0  0  0
 37 65  1  0  0  0  0
 37 71  1  0  0  0  0
 37 82  2  0  0  0  0
 38 66  1  0  0  0  0
 38 76  1  0  0  0  0
 38 83  2  0  0  0  0
 39 72  1  0  0  0  0
 39 77  1  0  0  0  0
 39 84  2  0  0  0  0
 40 44  1  0  0  0  0
 41 52  1  0  0  0  0
 42 71  1  0  0  0  0
 43 53  1  0  0  0  0
 44 46  1  0  0  0  0
 45 47  1  0  0  0  0
 45 48  1  0  0  0  0
 46 51  1  0  0  0  0
 47 54  1  0  0  0  0
 48 72  1  0  0  0  0
 49 53  1  0  0  0  0
 49 70  1  0  0  0  0
 50 54  1  0  0  0  0
 50 72  1  0  0  0  0
 51 75  1  0  0  0  0
 52 71  1  0  0  0  0
 53 62  1  0  0  0  0
 54 69  1  0  0  0  0
 55 63  1  0  0  0  0
 56 66  1  0  0  0  0
 57 67  1  0  0  0  0
 58 67  1  0  0  0  0
 59 67  1  0  0  0  0
 60 78  1  0  0  0  0
 61 86  1  0  0  0  0
 62 87  1  0  0  0  0
 63 64  1  0  0  0  0
 64 77  1  0  0  0  0
 65 67  1  0  0  0  0
 65 76  1  0  0  0  0
 66 78  1  0  0  0  0
 68 69  1  0  0  0  0
M  CHG  1  78   1
M  ISO  4  39 100  62 101  77 100  87 101
M  END
> <Batch ID>
0095

> <Smiles>
CCC[100N:0](c1ccc(N2CC([101CH2:1][101O:1]c3ccc4c(c3)CN(C(=O)C(NC(=O)C(C)NC)C(C)(C)C)C(C(=O)NC3CCCc5ccccc53)C4)CC2=O)cc1OC)[100C:0](=O)N1CCCC(n2nc(-c3ccc(Oc4ccc(F)cc4F)cc3)c(C(N)=O)c2N)C1

> <Shape>
0.230

> <Color>
0.085

> <Negative vol penalty>
0.000

$$$$

  -OEChem-04052300433D

 90 99  0     1  0  0  0  0  0999 V2000
  -27.9285  -37.3538   20.3230 C   0  0  0  0  0  0  0  0  0  0  0  0
  -28.3767  -36.0591   20.0817 C   0  0  0  0  0  0  0  0  0  0  0  0
  -24.5064  -12.8766   24.2064 C   0  0  0  0  0  0  0  0  0  0  0  0
  -24.4629  -15.2259   23.6442 C   0  0  0  0  0  0  0  0  0  0  0  0
  -26.9883  -37.5894   21.3252 C   0  0  0  0  0  0  0  0  0  0  0  0
  -27.8857  -34.9993   20.8434 C   0  0  0  0  0  0  0  0  0  0  0  0
  -26.8592  -29.2676   18.9460 C   0  0  0  0  0  0  0  0  0  0  0  0
  -29.1560  -18.9560   18.7853 C   0  0  0  0  0  0  0  0  0  0  0  0
  -28.8828  -20.1546   19.4443 C   0  0  0  0  0  0  0  0  0  0  0  0
  -24.1179  -13.1815   25.5108 C   0  0  0  0  0  0  0  0  0  0  0  0
  -24.0744  -15.5308   24.9487 C   0  0  0  0  0  0  0  0  0  0  0  0
  -27.6065  -28.0956   19.0546 C   0  0  0  0  0  0  0  0  0  0  0  0
  -21.2364  -15.4586   26.7821 C   0  0  0  0  0  0  0  0  0  0  0  0
  -20.2008  -16.3777   26.9502 C   0  0  0  0  0  0  0  0  0  0  0  0
  -26.3436  -27.4792   21.0153 C   0  0  0  0  0  0  0  0  0  0  0  0
  -29.7887  -23.7815   22.1133 C   0  0  0  0  0  0  0  0  0  0  0  0
  -31.2316  -20.4128   19.9483 C   0  0  0  0  0  0  0  0  0  0  0  0
  -21.6829  -17.8190   28.2005 C   0  0  0  0  0  0  0  0  0  0  0  0
  -24.6789  -13.8988   23.2730 C   0  0  0  0  0  0  0  0  0  0  0  0
  -24.2403  -13.3072   20.8306 C   0  0  0  0  0  0  0  0  0  0  0  0
  -26.4783  -36.5306   22.0931 C   0  0  0  0  0  0  0  0  0  0  0  0
  -25.8541  -29.5599   19.8792 C   0  0  0  0  0  0  0  0  0  0  0  0
  -26.9388  -35.2211   21.8577 C   0  0  0  0  0  0  0  0  0  0  0  0
  -25.5832  -28.6543   20.9148 C   0  0  0  0  0  0  0  0  0  0  0  0
  -30.4669  -18.4857   18.7078 C   0  0  0  0  0  0  0  0  0  0  0  0
  -28.6874  -24.0065   21.2509 C   0  0  0  0  0  0  0  0  0  0  0  0
  -29.9206  -20.8830   20.0258 C   0  0  0  0  0  0  0  0  0  0  0  0
  -23.9019  -14.5086   25.8821 C   0  0  0  0  0  0  0  0  0  0  0  0
  -27.3507  -27.2026   20.0910 C   0  0  0  0  0  0  0  0  0  0  0  0
  -22.4953  -15.7196   27.3232 C   0  0  0  0  0  0  0  0  0  0  0  0
  -20.4240  -17.5579   27.6593 C   0  0  0  0  0  0  0  0  0  0  0  0
  -31.5047  -19.2141   19.2893 C   0  0  0  0  0  0  0  0  0  0  0  0
  -22.7185  -16.8998   28.0324 C   0  0  0  0  0  0  0  0  0  0  0  0
  -25.0807  -13.5845   21.9255 C   0  0  0  0  0  0  0  0  0  0  0  0
  -25.1020  -13.0742   19.7868 C   0  0  0  0  0  0  0  0  0  0  0  0
  -30.3642  -22.5864   21.7423 C   0  0  0  0  0  0  0  0  0  0  0  0
  -28.6234  -22.9418   20.3792 C   0  0  0  0  0  0  0  0  0  0  0  0
  -22.8088  -13.2641   20.7632 C   0  0  0  0  0  0  0  0  0  0  0  0
  -25.3634  -31.8816   21.9941 C   0  0  0  0  0  0  0  0  0  0  0  0
  -22.5087  -30.3912   22.3842 C   0  0  0  0  0  0  0  0  0  0  0  0
  -20.6793  -27.5218   22.1259 C   0  0  0  0  0  0  0  0  0  0  0  0
  -30.7218  -14.8143   18.6726 C   0  0  0  0  0  0  0  0  0  0  0  0
  -25.4986  -36.8406   23.1970 C   0  0  0  0  0  0  0  0  0  0  0  0
  -25.0390  -30.8155   19.7326 C   0  0  0  0  0  0  0  0  0  0  0  0
  -24.5015  -28.9118   21.9307 C   0  0  0  0  0  0  0  0  0  0  0  0
  -24.7490  -35.6132   23.7086 C   0  0  0  0  0  0  0  0  0  0  0  0
  -29.5132  -11.4705   18.8593 C   0  0  0  0  0  0  0  0  0  0  0  0
  -25.7163  -34.4583   23.9480 C   0  0  0  0  0  0  0  0  0  0  0  0
  -28.1644  -11.6081   19.5675 C   0  0  0  0  0  0  0  0  0  0  0  0
  -30.5423  -12.4559   19.4088 C   0  0  0  0  0  0  0  0  0  0  0  0
  -28.7609  -14.0035   20.1196 C   0  0  0  0  0  0  0  0  0  0  0  0
  -26.4115  -34.0419   22.6462 C   0  0  1  0  0  0  0  0  0  0  0  0
  -24.3856  -31.2595   21.0377 C   0  0  1  0  0  0  0  0  0  0  0  0
  -27.6743  -13.0686   19.5615 C   0  0  2  0  0  0  0  0  0  0  0  0
  -30.7233  -18.1004   14.1973 C   0  0  0  0  0  0  0  0  0  0  0  0
  -18.3838  -26.6037   22.5561 C   0  0  0  0  0  0  0  0  0  0  0  0
  -23.1130  -30.2874   25.3731 C   0  0  0  0  0  0  0  0  0  0  0  0
  -21.3073  -28.5690   25.6077 C   0  0  0  0  0  0  0  0  0  0  0  0
  -20.7463  -30.8639   24.8067 C   0  0  0  0  0  0  0  0  0  0  0  0
  -20.2789  -26.8677   19.2675 C   0  0  0  0  0  0  0  0  0  0  0  0
  -27.7635  -25.1882   21.2859 C   0  0  0  0  0  0  0  0  0  1  0  0
  -31.0965  -18.2050   15.6680 C   0  0  0  0  0  0  0  0  0  0  0  0
  -30.3374  -17.1758   16.5110 C   0  0  0  0  0  0  0  0  0  0  0  0
  -30.7552  -17.2037   18.0025 C   0  0  2  0  0  0  0  0  0  0  0  0
  -21.9924  -29.2862   23.2737 C   0  0  1  0  0  0  0  0  0  0  0  0
  -19.3069  -27.2519   21.5360 C   0  0  2  0  0  0  0  0  0  0  0  0
  -21.8115  -29.7474   24.7475 C   0  0  0  0  0  0  0  0  0  0  0  0
  -26.3768  -13.5327   21.6068 N   0  0  0  0  0  0  0  0  0  0  0  0
  -29.6473  -22.0847   20.6875 N   0  0  0  0  0  0  0  0  0  0  0  0
  -26.3573  -13.2201   20.2999 N   0  0  0  0  0  0  0  0  0  0  0  0
  -23.7361  -30.1562   21.7485 N   0  0  0  0  0  0  0  0  0  0  0  0
  -30.0162  -13.8226   19.3738 N   0  0  0  0  0  0  0  0  0  0  0  0
  -24.9009  -12.7608   18.4892 N   0  0  0  0  0  0  0  0  0  0  0  0
  -22.0768  -13.5287   21.9288 N   0  0  0  0  0  0  0  0  0  0  0  0
  -25.5209  -33.2446   21.8303 N   0  0  0  0  0  0  0  0  0  0  0  0
  -20.7698  -28.7952   22.6469 N   0  0  0  0  0  0  0  0  0  0  0  0
  -30.1507  -16.0809   18.6842 N   0  0  0  0  0  0  0  0  0  0  0  0
  -19.4182  -26.3442   20.3593 N   0  3  0  0  0  0  0  0  0  0  0  0
  -22.1973  -12.9827   19.7048 O   0  0  0  0  0  0  0  0  0  0  0  0
  -25.9316  -31.1774   22.8204 O   0  0  0  0  0  0  0  0  0  0  0  0
  -21.8439  -31.4219   22.2524 O   0  0  0  0  0  0  0  0  0  0  0  0
  -21.5797  -26.6853   22.1279 O   0  0  0  0  0  0  0  0  0  0  0  0
  -31.7795  -14.5865   18.0755 O   0  0  0  0  0  0  0  0  0  0  0  0
  -31.4149  -21.9457   22.2405 O   0  0  0  0  0  0  0  0  0  0  0  0
  -27.7755  -22.6839   19.3899 O   0  0  0  0  0  0  0  0  0  0  0  0
  -23.5227  -14.8065   27.1548 O   0  0  0  0  0  0  0  0  0  0  0  0
  -28.0790  -26.0582   20.1997 O   0  0  0  0  0  0  0  0  0  1  0  0
  -19.4298  -18.4412   27.8193 F   0  0  0  0  0  0  0  0  0  0  0  0
  -32.7671  -18.7690   19.2214 F   0  0  0  0  0  0  0  0  0  0  0  0
  -23.9261  -17.1567   28.5536 F   0  0  0  0  0  0  0  0  0  0  0  0
  1  2  1  0  0  0  0
  1  5  2  0  0  0  0
  2  6  2  0  0  0  0
  3 10  2  0  0  0  0
  3 19  1  0  0  0  0
  4 11  1  0  0  0  0
  4 19  2  0  0  0  0
  5 21  1  0  0  0  0
  6 23  1  0  0  0  0
  7 12  2  0  0  0  0
  7 22  1  0  0  0  0
  8  9  2  0  0  0  0
  8 25  1  0  0  0  0
  9 27  1  0  0  0  0
 10 28  1  0  0  0  0
 11 28  2  0  0  0  0
 12 29  1  0  0  0  0
 13 14  2  0  0  0  0
 13 30  1  0  0  0  0
 14 31  1  0  0  0  0
 15 24  1  0  0  0  0
 15 29  2  0  0  0  0
 16 26  1  0  0  0  0
 16 36  2  0  0  0  0
 17 27  2  0  0  0  0
 17 32  1  0  0  0  0
 18 31  2  0  0  0  0
 18 33  1  0  0  0  0
 19 34  1  0  0  0  0
 20 34  1  0  0  0  0
 20 35  2  0  0  0  0
 20 38  1  0  0  0  0
 21 23  2  0  0  0  0
 21 43  1  0  0  0  0
 22 24  2  0  0  0  0
 22 44  1  0  0  0  0
 23 52  1  0  0  0  0
 24 45  1  0  0  0  0
 25 32  2  0  0  0  0
 25 64  1  0  0  0  0
 26 37  2  0  0  0  0
 26 61  1  0  0  0  0
 27 69  1  0  0  0  0
 28 86  1  0  0  0  0
 29 87  1  0  0  0  0
 30 33  2  0  0  0  0
 30 86  1  0  0  0  0
 31 88  1  0  0  0  0
 32 89  1  0  0  0  0
 33 90  1  0  0  0  0
 34 68  2  0  0  0  0
 35 70  1  0  0  0  0
 35 73  1  0  0  0  0
 36 69  1  0  0  0  0
 36 84  1  0  0  0  0
 37 69  1  0  0  0  0
 37 85  1  0  0  0  0
 38 74  1  0  0  0  0
 38 79  2  0  0  0  0
 39 53  1  0  0  0  0
 39 75  1  0  0  0  0
 39 80  2  0  0  0  0
 40 65  1  0  0  0  0
 40 71  1  0  0  0  0
 40 81  2  0  0  0  0
 41 66  1  0  0  0  0
 41 76  1  0  0  0  0
 41 82  2  0  0  0  0
 42 72  1  0  0  0  0
 42 77  1  0  0  0  0
 42 83  2  0  0  0  0
 43 46  1  0  0  0  0
 44 53  1  0  0  0  0
 45 71  1  0  0  0  0
 46 48  1  0  0  0  0
 47 49  1  0  0  0  0
 47 50  1  0  0  0  0
 48 52  1  0  0  0  0
 49 54  1  0  0  0  0
 50 72  1  0  0  0  0
 51 54  1  0  0  0  0
 51 72  1  0  0  0  0
 52 75  1  0  0  0  0
 53 71  1  0  0  0  0
 54 70  1  0  0  0  0
 55 62  1  0  0  0  0
 56 66  1  0  0  0  0
 57 67  1  0  0  0  0
 58 67  1  0  0  0  0
 59 67  1  0  0  0  0
 60 78  1  0  0  0  0
 61 87  1  0  0  0  0
 62 63  1  0  0  0  0
 63 64  1  0  0  0  0
 64 77  1  0  0  0  0
 65 67  1  0  0  0  0
 65 76  1  0  0  0  0
 66 78  1  0  0  0  0
 68 70  1  0  0  0  0
M  CHG  1  78   1
M  ISO  4  42 100  61 101  77 100  87 101
M  END
> <Batch ID>
0095

> <Smiles>
CCCC([100NH:0][100C:0](=O)N1CCCC(n2nc(-c3ccc(Oc4ccc(F)cc4F)cc3)c(C(N)=O)c2N)C1)c1ccc(N2C(=O)CC([101CH2:1][101O:1]c3ccc4c(c3)CN(C(=O)C(NC(=O)C(C)NC)C(C)(C)C)C(C(=O)NC3CCCc5ccccc53)C4)C2=O)cc1F

> <Shape>
0.278

> <Color>
0.091

> <Negative vol penalty>
0.000

$$$$

  -OEChem-04052300433D

 87 96  0     1  0  0  0  0  0999 V2000
  -15.9476  -27.6643   21.7130 C   0  0  0  0  0  0  0  0  0  0  0  0
  -17.1629  -27.0631   21.4013 C   0  0  0  0  0  0  0  0  0  0  0  0
  -22.8437  -15.8133   21.7710 C   0  0  0  0  0  0  0  0  0  0  0  0
  -22.1332  -14.9840   19.6159 C   0  0  0  0  0  0  0  0  0  0  0  0
  -15.8644  -29.0521   21.8177 C   0  0  0  0  0  0  0  0  0  0  0  0
  -18.2954  -27.8495   21.1931 C   0  0  0  0  0  0  0  0  0  0  0  0
  -22.3935  -26.0121   23.5329 C   0  0  0  0  0  0  0  0  0  0  0  0
  -28.9888  -19.3486   19.3213 C   0  0  0  0  0  0  0  0  0  0  0  0
  -29.6778  -18.1722   19.6163 C   0  0  0  0  0  0  0  0  0  0  0  0
  -21.7232  -16.6425   21.8213 C   0  0  0  0  0  0  0  0  0  0  0  0
  -21.0127  -15.8132   19.6662 C   0  0  0  0  0  0  0  0  0  0  0  0
  -23.0404  -24.9337   22.9310 C   0  0  0  0  0  0  0  0  0  0  0  0
  -20.7521  -19.5995   20.5030 C   0  0  0  0  0  0  0  0  0  0  0  0
  -20.9417  -20.9197   20.9110 C   0  0  0  0  0  0  0  0  0  0  0  0
  -24.6906  -26.4396   22.0207 C   0  0  0  0  0  0  0  0  0  0  0  0
  -26.4116  -22.7088   18.8795 C   0  0  0  0  0  0  0  0  0  0  0  0
  -28.1071  -19.3962   21.5702 C   0  0  0  0  0  0  0  0  0  0  0  0
  -19.4285  -20.5653   22.7608 C   0  0  0  0  0  0  0  0  0  0  0  0
  -23.0487  -14.9841   20.6682 C   0  0  0  0  0  0  0  0  0  0  0  0
  -24.3085  -12.8063   21.0900 C   0  0  0  0  0  0  0  0  0  0  0  0
  -16.9986  -29.8553   21.6201 C   0  0  0  0  0  0  0  0  0  0  0  0
  -22.8848  -27.3158   23.3739 C   0  0  0  0  0  0  0  0  0  0  0  0
  -18.2269  -29.2494   21.2939 C   0  0  0  0  0  0  0  0  0  0  0  0
  -24.0495  -27.5324   22.6238 C   0  0  0  0  0  0  0  0  0  0  0  0
  -26.5220  -23.1143   20.2325 C   0  0  0  0  0  0  0  0  0  0  0  0
  -28.2035  -19.9606   20.2983 C   0  0  0  0  0  0  0  0  0  0  0  0
  -29.5814  -17.6078   20.8882 C   0  0  0  0  0  0  0  0  0  0  0  0
  -20.8077  -16.6425   20.7689 C   0  0  0  0  0  0  0  0  0  0  0  0
  -24.1875  -25.1477   22.1724 C   0  0  0  0  0  0  0  0  0  0  0  0
  -19.9007  -18.7621   21.2238 C   0  0  0  0  0  0  0  0  0  0  0  0
  -20.2799  -21.4026   22.0399 C   0  0  0  0  0  0  0  0  0  0  0  0
  -28.7960  -18.2197   21.8652 C   0  0  0  0  0  0  0  0  0  0  0  0
  -19.2389  -19.2450   22.3527 C   0  0  0  0  0  0  0  0  0  0  0  0
  -24.2063  -14.1277   20.6154 C   0  0  0  0  0  0  0  0  0  0  0  0
  -25.6006  -12.4380   20.8047 C   0  0  0  0  0  0  0  0  0  0  0  0
  -27.0315  -21.4841   18.7653 C   0  0  0  0  0  0  0  0  0  0  0  0
  -27.2061  -22.1251   20.9039 C   0  0  0  0  0  0  0  0  0  0  0  0
  -23.3235  -11.9851   21.7312 C   0  0  0  0  0  0  0  0  0  0  0  0
  -21.7542  -29.9992   22.0994 C   0  0  0  0  0  0  0  0  0  0  0  0
  -24.4768  -31.2681   23.3241 C   0  0  0  0  0  0  0  0  0  0  0  0
  -27.6813  -30.7721   24.3879 C   0  0  0  0  0  0  0  0  0  0  0  0
  -30.5598  -15.4290   20.1905 C   0  0  0  0  0  0  0  0  0  0  0  0
  -16.8491  -31.3541   21.6973 C   0  0  0  0  0  0  0  0  0  0  0  0
  -22.1906  -28.4651   24.0518 C   0  0  0  0  0  0  0  0  0  0  0  0
  -24.6291  -28.9103   22.4393 C   0  0  0  0  0  0  0  0  0  0  0  0
  -18.1784  -32.0927   21.8305 C   0  0  0  0  0  0  0  0  0  0  0  0
  -29.1519  -13.2880   17.7253 C   0  0  0  0  0  0  0  0  0  0  0  0
  -19.1930  -31.5507   20.8286 C   0  0  0  0  0  0  0  0  0  0  0  0
  -27.7183  -13.1409   18.2341 C   0  0  0  0  0  0  0  0  0  0  0  0
  -29.6818  -14.7103   17.9103 C   0  0  0  0  0  0  0  0  0  0  0  0
  -28.1325  -15.0720   19.8058 C   0  0  0  0  0  0  0  0  0  0  0  0
  -19.4832  -30.0670   21.0852 C   0  0  1  0  0  0  0  0  0  0  0  0
  -22.4864  -29.8114   23.3980 C   0  0  1  0  0  0  0  0  0  0  0  0
  -27.5937  -13.6380   19.6852 C   0  0  1  0  0  0  0  0  0  0  0  0
  -29.6682  -32.0059   25.2977 C   0  0  0  0  0  0  0  0  0  0  0  0
  -25.0773  -32.3521   20.5358 C   0  0  0  0  0  0  0  0  0  0  0  0
  -27.4431  -32.7241   21.2659 C   0  0  0  0  0  0  0  0  0  0  0  0
  -25.5835  -33.9374   22.4028 C   0  0  0  0  0  0  0  0  0  0  0  0
  -30.9542  -16.2697   22.4954 C   0  0  0  0  0  0  0  0  0  0  0  0
  -27.6500  -29.2061   26.8990 C   0  0  0  0  0  0  0  0  0  0  0  0
  -25.9907  -24.3886   20.8202 C   0  0  0  0  0  0  0  0  0  1  0  0
  -25.8866  -31.4623   22.8204 C   0  0  1  0  0  0  0  0  0  0  0  0
  -28.4084  -31.2261   25.6408 C   0  0  2  0  0  0  0  0  0  0  0  0
  -25.9859  -32.5931   21.7579 C   0  0  0  0  0  0  0  0  0  0  0  0
  -25.3429  -14.5691   20.0702 N   0  0  0  0  0  0  0  0  0  0  0  0
  -27.5110  -21.1393   20.0020 N   0  0  0  0  0  0  0  0  0  0  0  0
  -26.1716  -13.5192   20.2005 N   0  0  0  0  0  0  0  0  0  0  0  0
  -23.9107  -30.0023   23.1167 N   0  0  0  0  0  0  0  0  0  0  0  0
  -29.5047  -15.1558   19.2996 N   0  0  0  0  0  0  0  0  0  0  0  0
  -26.2926  -11.2980   21.0144 N   0  0  0  0  0  0  0  0  0  0  0  0
  -22.0461  -12.5197   21.9475 N   0  0  0  0  0  0  0  0  0  0  0  0
  -20.3795  -29.9147   22.2112 N   0  0  0  0  0  0  0  0  0  0  0  0
  -26.7159  -31.6775   24.0013 N   0  0  0  0  0  0  0  0  0  0  0  0
  -30.2948  -16.3892   21.1905 N   0  0  0  0  0  0  0  0  0  0  0  0
  -28.7951  -30.0499   26.4702 N   0  3  0  0  0  0  0  0  0  0  0  0
  -23.5737  -10.8178   22.1162 O   0  0  0  0  0  0  0  0  0  0  0  0
  -22.3895  -30.2071   21.0722 O   0  0  0  0  0  0  0  0  0  0  0  0
  -23.9017  -32.2028   23.8874 O   0  0  0  0  0  0  0  0  0  0  0  0
  -27.9461  -29.7213   23.8080 O   0  0  0  0  0  0  0  0  0  0  0  0
  -31.6458  -14.8417   20.1148 O   0  0  0  0  0  0  0  0  0  0  0  0
  -27.1941  -20.6969   17.7086 O   0  0  0  0  0  0  0  0  0  0  0  0
  -27.5630  -22.0338   22.1800 O   0  0  0  0  0  0  0  0  0  0  0  0
  -19.7141  -17.4513   20.8178 O   0  0  0  0  0  0  0  0  0  0  0  0
  -24.8206  -24.0969   21.5832 O   0  0  0  0  0  0  0  0  0  1  0  0
  -20.4633  -22.6701   22.4326 F   0  0  0  0  0  0  0  0  0  0  0  0
  -28.6949  -17.6851   23.0905 F   0  0  0  0  0  0  0  0  0  0  0  0
  -18.4206  -18.4449   23.0499 F   0  0  0  0  0  0  0  0  0  0  0  0
  1  2  1  0  0  0  0
  1  5  2  0  0  0  0
  2  6  2  0  0  0  0
  3 10  2  0  0  0  0
  3 19  1  0  0  0  0
  4 11  1  0  0  0  0
  4 19  2  0  0  0  0
  5 21  1  0  0  0  0
  6 23  1  0  0  0  0
  7 12  2  0  0  0  0
  7 22  1  0  0  0  0
  8  9  2  0  0  0  0
  8 26  1  0  0  0  0
  9 27  1  0  0  0  0
 10 28  1  0  0  0  0
 11 28  2  0  0  0  0
 12 29  1  0  0  0  0
 13 14  2  0  0  0  0
 13 30  1  0  0  0  0
 14 31  1  0  0  0  0
 15 24  1  0  0  0  0
 15 29  2  0  0  0  0
 16 25  1  0  0  0  0
 16 36  2  0  0  0  0
 17 26  2  0  0  0  0
 17 32  1  0  0  0  0
 18 31  2  0  0  0  0
 18 33  1  0  0  0  0
 19 34  1  0  0  0  0
 20 34  1  0  0  0  0
 20 35  2  0  0  0  0
 20 38  1  0  0  0  0
 21 23  2  0  0  0  0
 21 43  1  0  0  0  0
 22 24  2  0  0  0  0
 22 44  1  0  0  0  0
 23 52  1  0  0  0  0
 24 45  1  0  0  0  0
 25 37  2  0  0  0  0
 25 61  1  0  0  0  0
 26 66  1  0  0  0  0
 27 32  2  0  0  0  0
 27 74  1  0  0  0  0
 28 83  1  0  0  0  0
 29 84  1  0  0  0  0
 30 33  2  0  0  0  0
 30 83  1  0  0  0  0
 31 85  1  0  0  0  0
 32 86  1  0  0  0  0
 33 87  1  0  0  0  0
 34 65  2  0  0  0  0
 35 67  1  0  0  0  0
 35 70  1  0  0  0  0
 36 66  1  0  0  0  0
 36 81  1  0  0  0  0
 37 66  1  0  0  0  0
 37 82  1  0  0  0  0
 38 71  1  0  0  0  0
 38 76  2  0  0  0  0
 39 53  1  0  0  0  0
 39 72  1  0  0  0  0
 39 77  2  0  0  0  0
 40 62  1  0  0  0  0
 40 68  1  0  0  0  0
 40 78  2  0  0  0  0
 41 63  1  0  0  0  0
 41 73  1  0  0  0  0
 41 79  2  0  0  0  0
 42 69  1  0  0  0  0
 42 74  1  0  0  0  0
 42 80  2  0  0  0  0
 43 46  1  0  0  0  0
 44 53  1  0  0  0  0
 45 68  1  0  0  0  0
 46 48  1  0  0  0  0
 47 49  1  0  0  0  0
 47 50  1  0  0  0  0
 48 52  1  0  0  0  0
 49 54  1  0  0  0  0
 50 69  1  0  0  0  0
 51 54  1  0  0  0  0
 51 69  1  0  0  0  0
 52 72  1  0  0  0  0
 53 68  1  0  0  0  0
 54 67  1  0  0  0  0
 55 63  1  0  0  0  0
 56 64  1  0  0  0  0
 57 64  1  0  0  0  0
 58 64  1  0  0  0  0
 59 74  1  0  0  0  0
 60 75  1  0  0  0  0
 61 84  1  0  0  0  0
 62 64  1  0  0  0  0
 62 73  1  0  0  0  0
 63 75  1  0  0  0  0
 65 67  1  0  0  0  0
M  CHG  1  75   1
M  ISO  4  42 100  61 101  74 100  84 101
M  END
> <Batch ID>
0095

> <Smiles>
CNC(C)C(=O)NC(C(=O)N1Cc2cc([101O:1][101CH2:1]C3CC(=O)N(c4ccc([100N:0](C)[100C:0](=O)N5CCCC(n6nc(-c7ccc(Oc8ccc(F)cc8F)cc7)c(C(N)=O)c6N)C5)c(F)c4)C3=O)ccc2CC1C(=O)NC1CCCc2ccccc21)C(C)(C)C

> <Shape>
0.255

> <Color>
0.089

> <Negative vol penalty>
0.000

$$$$

  -OEChem-04052300433D

 85 94  0     1  0  0  0  0  0999 V2000
  -17.5919  -26.1552   21.3911 C   0  0  0  0  0  0  0  0  0  0  0  0
  -18.8054  -25.5982   21.7814 C   0  0  0  0  0  0  0  0  0  0  0  0
  -24.0965   -9.8603   21.7164 C   0  0  0  0  0  0  0  0  0  0  0  0
  -24.6450  -11.0699   23.7346 C   0  0  0  0  0  0  0  0  0  0  0  0
  -17.5600  -27.4319   20.8316 C   0  0  0  0  0  0  0  0  0  0  0  0
  -19.9881  -26.3171   21.6115 C   0  0  0  0  0  0  0  0  0  0  0  0
  -24.8933  -26.2549   25.2776 C   0  0  0  0  0  0  0  0  0  0  0  0
  -30.9810  -20.5534   21.0607 C   0  0  0  0  0  0  0  0  0  0  0  0
  -30.7237  -19.2409   20.6648 C   0  0  0  0  0  0  0  0  0  0  0  0
  -23.6705   -8.7753   22.4824 C   0  0  0  0  0  0  0  0  0  0  0  0
  -24.2190   -9.9848   24.5007 C   0  0  0  0  0  0  0  0  0  0  0  0
  -26.1077  -25.5734   25.2081 C   0  0  0  0  0  0  0  0  0  0  0  0
  -20.9380   -7.9136   24.2778 C   0  0  0  0  0  0  0  0  0  0  0  0
  -19.7330   -7.3052   23.9262 C   0  0  0  0  0  0  0  0  0  0  0  0
  -27.1257  -27.5044   24.1814 C   0  0  0  0  0  0  0  0  0  0  0  0
  -28.3532  -19.6262   20.9282 C   0  0  0  0  0  0  0  0  0  0  0  0
  -20.8931   -5.2171   23.5639 C   0  0  0  0  0  0  0  0  0  0  0  0
  -24.5839  -11.0076   22.3425 C   0  0  0  0  0  0  0  0  0  0  0  0
  -24.2471  -13.2164   21.1113 C   0  0  0  0  0  0  0  0  0  0  0  0
  -18.7418  -28.1707   20.6637 C   0  0  0  0  0  0  0  0  0  0  0  0
  -24.7832  -27.5645   24.7887 C   0  0  0  0  0  0  0  0  0  0  0  0
  -19.9722  -27.6044   21.0480 C   0  0  0  0  0  0  0  0  0  0  0  0
  -25.9095  -28.2012   24.2482 C   0  0  0  0  0  0  0  0  0  0  0  0
  -29.9244  -21.4023   21.3904 C   0  0  0  0  0  0  0  0  0  0  0  0
  -29.4098  -18.7773   20.5985 C   0  0  0  0  0  0  0  0  0  0  0  0
  -23.7317   -8.8376   23.8745 C   0  0  0  0  0  0  0  0  0  0  0  0
  -27.2233  -26.1971   24.6574 C   0  0  0  0  0  0  0  0  0  0  0  0
  -22.1205   -7.1738   24.2723 C   0  0  0  0  0  0  0  0  0  0  0  0
  -19.7106   -5.9569   23.5693 C   0  0  0  0  0  0  0  0  0  0  0  0
  -28.6105  -20.9387   21.3241 C   0  0  0  0  0  0  0  0  0  0  0  0
  -22.0981   -5.8256   23.9154 C   0  0  0  0  0  0  0  0  0  0  0  0
  -25.0246  -12.1286   21.5517 C   0  0  0  0  0  0  0  0  0  0  0  0
  -25.1244  -14.0012   20.4036 C   0  0  0  0  0  0  0  0  0  0  0  0
  -31.2747  -23.5444   21.3876 C   0  0  0  0  0  0  0  0  0  0  0  0
  -22.8563  -13.4927   21.3232 C   0  0  0  0  0  0  0  0  0  0  0  0
  -23.0860  -28.9678   22.4965 C   0  0  0  0  0  0  0  0  0  0  0  0
  -24.3904  -31.6720   23.7247 C   0  0  0  0  0  0  0  0  0  0  0  0
  -26.9261  -33.1232   25.4884 C   0  0  0  0  0  0  0  0  0  0  0  0
  -30.0816  -16.4723   19.8357 C   0  0  0  0  0  0  0  0  0  0  0  0
  -18.6627  -29.5280   20.0108 C   0  0  0  0  0  0  0  0  0  0  0  0
  -23.4729  -28.2955   24.8953 C   0  0  0  0  0  0  0  0  0  0  0  0
  -25.8489  -29.6133   23.7279 C   0  0  0  0  0  0  0  0  0  0  0  0
  -31.0791  -24.9141   21.9962 C   0  0  0  0  0  0  0  0  0  0  0  0
  -19.9179  -30.3737   20.2100 C   0  0  0  0  0  0  0  0  0  0  0  0
  -29.8413  -13.0675   18.8224 C   0  0  0  0  0  0  0  0  0  0  0  0
  -21.1688  -29.5460   19.9329 C   0  0  0  0  0  0  0  0  0  0  0  0
  -28.5028  -12.6092   19.4059 C   0  0  0  0  0  0  0  0  0  0  0  0
  -30.5651  -14.0362   19.7560 C   0  0  0  0  0  0  0  0  0  0  0  0
  -29.2856  -23.4860   22.6530 C   0  0  0  0  0  0  0  0  0  0  0  0
  -28.4319  -14.7348   20.7711 C   0  0  0  0  0  0  0  0  0  0  0  0
  -21.2736  -28.3629   20.9028 C   0  0  1  0  0  0  0  0  0  0  0  0
  -23.3460  -29.4430   23.8981 C   0  0  1  0  0  0  0  0  0  0  0  0
  -30.1176  -24.6590   23.1483 C   0  0  2  0  0  0  0  0  0  0  0  0
  -27.6360  -13.8083   19.8374 C   0  0  2  0  0  0  0  0  0  0  0  0
  -27.7375  -35.3562   26.2963 C   0  0  0  0  0  0  0  0  0  0  0  0
  -25.3448  -32.3426   20.9052 C   0  0  0  0  0  0  0  0  0  0  0  0
  -26.9109  -34.0183   21.9090 C   0  0  0  0  0  0  0  0  0  0  0  0
  -24.4475  -34.2893   22.1934 C   0  0  0  0  0  0  0  0  0  0  0  0
  -26.7507  -32.2912   28.3232 C   0  0  0  0  0  0  0  0  0  0  0  0
  -29.2817  -25.8742   23.5107 C   0  0  0  0  0  0  0  0  0  1  0  0
  -25.6488  -32.4648   23.4662 C   0  0  1  0  0  0  0  0  0  0  0  0
  -26.9151  -34.1217   26.6318 C   0  0  2  0  0  0  0  0  0  0  0  0
  -25.5890  -33.2514   22.1264 C   0  0  0  0  0  0  0  0  0  0  0  0
  -26.2979  -12.2114   21.1567 N   0  0  0  0  0  0  0  0  0  0  0  0
  -26.3271  -13.3606   20.4605 N   0  0  0  0  0  0  0  0  0  0  0  0
  -30.1907  -22.7445   21.7952 N   0  0  0  0  0  0  0  0  0  0  0  0
  -24.5437  -30.2839   23.8486 N   0  0  0  0  0  0  0  0  0  0  0  0
  -29.6842  -15.1484   20.1189 N   0  0  0  0  0  0  0  0  0  0  0  0
  -24.9765  -15.1699   19.7442 N   0  0  0  0  0  0  0  0  0  0  0  0
  -22.1008  -12.5815   22.0737 N   0  0  0  0  0  0  0  0  0  0  0  0
  -29.1486  -17.4440   20.1963 N   0  0  0  0  0  0  0  0  0  0  0  0
  -21.7466  -28.8095   22.1955 N   0  0  0  0  0  0  0  0  0  0  0  0
  -25.8520  -33.3031   24.6428 N   0  0  0  0  0  0  0  0  0  0  0  0
  -27.4778  -33.5031   27.8653 N   0  3  0  0  0  0  0  0  0  0  0  0
  -32.2058  -23.2865   20.6384 O   0  0  0  0  0  0  0  0  0  0  0  0
  -22.2962  -14.5090   20.8468 O   0  0  0  0  0  0  0  0  0  0  0  0
  -24.0305  -28.7617   21.7435 O   0  0  0  0  0  0  0  0  0  0  0  0
  -23.3121  -32.2634   23.8204 O   0  0  0  0  0  0  0  0  0  0  0  0
  -27.8022  -32.2713   25.3565 O   0  0  0  0  0  0  0  0  0  0  0  0
  -31.1576  -16.7236   19.2870 O   0  0  0  0  0  0  0  0  0  0  0  0
  -23.3158   -7.7791   24.6223 O   0  0  0  0  0  0  0  0  0  0  0  0
  -28.4096  -25.5340   24.5878 O   0  0  0  0  0  0  0  0  0  1  0  0
  -18.5532   -5.3724   23.2332 F   0  0  0  0  0  0  0  0  0  0  0  0
  -27.5871  -21.7457   21.6394 F   0  0  0  0  0  0  0  0  0  0  0  0
  -23.2307   -5.1094   23.9094 F   0  0  0  0  0  0  0  0  0  0  0  0
  1  2  1  0  0  0  0
  1  5  2  0  0  0  0
  2  6  2  0  0  0  0
  3 10  2  0  0  0  0
  3 18  1  0  0  0  0
  4 11  1  0  0  0  0
  4 18  2  0  0  0  0
  5 20  1  0  0  0  0
  6 22  1  0  0  0  0
  7 12  2  0  0  0  0
  7 21  1  0  0  0  0
  8  9  2  0  0  0  0
  8 24  1  0  0  0  0
  9 25  1  0  0  0  0
 10 26  1  0  0  0  0
 11 26  2  0  0  0  0
 12 27  1  0  0  0  0
 13 14  2  0  0  0  0
 13 28  1  0  0  0  0
 14 29  1  0  0  0  0
 15 23  1  0  0  0  0
 15 27  2  0  0  0  0
 16 25  2  0  0  0  0
 16 30  1  0  0  0  0
 17 29  2  0  0  0  0
 17 31  1  0  0  0  0
 18 32  1  0  0  0  0
 19 32  1  0  0  0  0
 19 33  2  0  0  0  0
 19 35  1  0  0  0  0
 20 22  2  0  0  0  0
 20 40  1  0  0  0  0
 21 23  2  0  0  0  0
 21 41  1  0  0  0  0
 22 51  1  0  0  0  0
 23 42  1  0  0  0  0
 24 30  2  0  0  0  0
 24 66  1  0  0  0  0
 25 71  1  0  0  0  0
 26 81  1  0  0  0  0
 27 82  1  0  0  0  0
 28 31  2  0  0  0  0
 28 81  1  0  0  0  0
 29 83  1  0  0  0  0
 30 84  1  0  0  0  0
 31 85  1  0  0  0  0
 32 64  2  0  0  0  0
 33 65  1  0  0  0  0
 33 69  1  0  0  0  0
 34 43  1  0  0  0  0
 34 66  1  0  0  0  0
 34 75  2  0  0  0  0
 35 70  1  0  0  0  0
 35 76  2  0  0  0  0
 36 52  1  0  0  0  0
 36 72  1  0  0  0  0
 36 77  2  0  0  0  0
 37 61  1  0  0  0  0
 37 67  1  0  0  0  0
 37 78  2  0  0  0  0
 38 62  1  0  0  0  0
 38 73  1  0  0  0  0
 38 79  2  0  0  0  0
 39 68  1  0  0  0  0
 39 71  1  0  0  0  0
 39 80  2  0  0  0  0
 40 44  1  0  0  0  0
 41 52  1  0  0  0  0
 42 67  1  0  0  0  0
 43 53  1  0  0  0  0
 44 46  1  0  0  0  0
 45 47  1  0  0  0  0
 45 48  1  0  0  0  0
 46 51  1  0  0  0  0
 47 54  1  0  0  0  0
 48 68  1  0  0  0  0
 49 53  1  0  0  0  0
 49 66  1  0  0  0  0
 50 54  1  0  0  0  0
 50 68  1  0  0  0  0
 51 72  1  0  0  0  0
 52 67  1  0  0  0  0
 53 60  1  0  0  0  0
 54 65  1  0  0  0  0
 55 62  1  0  0  0  0
 56 63  1  0  0  0  0
 57 63  1  0  0  0  0
 58 63  1  0  0  0  0
 59 74  1  0  0  0  0
 60 82  1  0  0  0  0
 61 63  1  0  0  0  0
 61 73  1  0  0  0  0
 62 74  1  0  0  0  0
 64 65  1  0  0  0  0
M  CHG  1  74   1
M  ISO  4  39 100  60 101  71 100  82 101
M  END
> <Batch ID>
0095

> <Smiles>
CNC(C)C(=O)NC(C(=O)N1Cc2cc([101O:1][101CH2:1]C3CC(=O)N(c4ccc([100NH:0][100C:0](=O)N5CCCC(n6nc(-c7ccc(Oc8ccc(F)cc8F)cc7)c(C(N)=O)c6N)C5)cc4F)C3)ccc2CC1C(=O)NC1CCCc2ccccc21)C(C)(C)C

> <Shape>
0.289

> <Color>
0.143

> <Negative vol penalty>
0.000

$$$$

  -OEChem-04052300433D

 86 95  0     1  0  0  0  0  0999 V2000
  -22.2460  -11.2624   19.0642 C   0  0  0  0  0  0  0  0  0  0  0  0
  -21.8845  -12.6057   19.0792 C   0  0  0  0  0  0  0  0  0  0  0  0
  -22.2485  -25.2985   23.4335 C   0  0  0  0  0  0  0  0  0  0  0  0
  -22.2135  -26.7060   25.3969 C   0  0  0  0  0  0  0  0  0  0  0  0
  -23.4132  -10.8486   19.7049 C   0  0  0  0  0  0  0  0  0  0  0  0
  -22.6893  -13.5359   19.7360 C   0  0  0  0  0  0  0  0  0  0  0  0
  -23.6953  -19.3478   18.0880 C   0  0  0  0  0  0  0  0  0  0  0  0
  -25.0860  -28.7436   19.3133 C   0  0  0  0  0  0  0  0  0  0  0  0
  -26.0848  -29.6020   19.7726 C   0  0  0  0  0  0  0  0  0  0  0  0
  -22.1648  -24.1662   24.2437 C   0  0  0  0  0  0  0  0  0  0  0  0
  -22.1298  -25.5737   26.2071 C   0  0  0  0  0  0  0  0  0  0  0  0
  -23.1421  -20.5535   18.5168 C   0  0  0  0  0  0  0  0  0  0  0  0
  -19.7710  -22.4956   25.9500 C   0  0  0  0  0  0  0  0  0  0  0  0
  -18.8715  -21.4968   25.5772 C   0  0  0  0  0  0  0  0  0  0  0  0
  -24.9917  -20.8550   20.0358 C   0  0  0  0  0  0  0  0  0  0  0  0
  -26.0093  -26.9546   20.6491 C   0  0  0  0  0  0  0  0  0  0  0  0
  -20.6939  -19.9199   25.4054 C   0  0  0  0  0  0  0  0  0  0  0  0
  -22.2729  -26.5684   24.0101 C   0  0  0  0  0  0  0  0  0  0  0  0
  -21.4496  -28.1415   22.1784 C   0  0  0  0  0  0  0  0  0  0  0  0
  -24.2378  -11.7757   20.3616 C   0  0  0  0  0  0  0  0  0  0  0  0
  -24.8973  -18.8804   18.6387 C   0  0  0  0  0  0  0  0  0  0  0  0
  -23.8679  -13.1339   20.3873 C   0  0  0  0  0  0  0  0  0  0  0  0
  -25.5594  -19.6442   19.6104 C   0  0  0  0  0  0  0  0  0  0  0  0
  -25.0482  -27.4198   19.7516 C   0  0  0  0  0  0  0  0  0  0  0  0
  -27.0459  -29.1368   20.6701 C   0  0  0  0  0  0  0  0  0  0  0  0
  -27.0082  -27.8131   21.1084 C   0  0  0  0  0  0  0  0  0  0  0  0
  -22.1054  -24.3038   25.6305 C   0  0  0  0  0  0  0  0  0  0  0  0
  -23.7888  -21.3059   19.4930 C   0  0  0  0  0  0  0  0  0  0  0  0
  -21.1319  -22.2066   26.0504 C   0  0  0  0  0  0  0  0  0  0  0  0
  -19.3329  -20.2089   25.3049 C   0  0  0  0  0  0  0  0  0  0  0  0
  -21.5933  -20.9187   25.7781 C   0  0  0  0  0  0  0  0  0  0  0  0
  -22.3599  -27.7385   23.1737 C   0  0  0  0  0  0  0  0  0  0  0  0
  -21.9797  -29.3063   21.6795 C   0  0  0  0  0  0  0  0  0  0  0  0
  -22.9934  -26.8628   18.3808 C   0  0  0  0  0  0  0  0  0  0  0  0
  -20.2335  -27.5188   21.7436 C   0  0  0  0  0  0  0  0  0  0  0  0
  -25.7529  -16.3108   20.3026 C   0  0  0  0  0  0  0  0  0  0  0  0
  -28.7330  -17.5313   19.9134 C   0  0  0  0  0  0  0  0  0  0  0  0
  -30.6913  -20.2664   19.3381 C   0  0  0  0  0  0  0  0  0  0  0  0
  -27.7881  -31.2337   21.8292 C   0  0  0  0  0  0  0  0  0  0  0  0
  -25.4650  -11.2740   21.0805 C   0  0  0  0  0  0  0  0  0  0  0  0
  -25.4947  -17.5909   18.1461 C   0  0  0  0  0  0  0  0  0  0  0  0
  -26.8625  -19.1966   20.2186 C   0  0  0  0  0  0  0  0  0  0  0  0
  -22.2217  -25.5920   18.1075 C   0  0  0  0  0  0  0  0  0  0  0  0
  -26.4578  -12.3783   21.4342 C   0  0  0  0  0  0  0  0  0  0  0  0
  -24.7297  -33.0207   22.8996 C   0  0  0  0  0  0  0  0  0  0  0  0
  -25.7333  -13.5693   22.0535 C   0  0  0  0  0  0  0  0  0  0  0  0
  -23.7227  -31.8875   23.0871 C   0  0  0  0  0  0  0  0  0  0  0  0
  -26.1609  -32.5529   23.1454 C   0  0  0  0  0  0  0  0  0  0  0  0
  -23.9881  -25.1376   19.6441 C   0  0  0  0  0  0  0  0  0  0  0  0
  -25.5460  -30.2409   22.4989 C   0  0  0  0  0  0  0  0  0  0  0  0
  -24.7278  -14.1767   21.0679 C   0  0  1  0  0  0  0  0  0  0  0  0
  -26.4588  -16.9589   19.1454 C   0  0  1  0  0  0  0  0  0  0  0  0
  -22.5763  -24.6982   19.2873 C   0  0  2  0  0  0  0  0  0  0  0  0
  -24.1003  -30.6770   22.2175 C   0  0  1  0  0  0  0  0  0  0  0  0
  -33.0932  -20.9572   19.1126 C   0  0  0  0  0  0  0  0  0  0  0  0
  -29.0662  -17.3520   22.9410 C   0  0  0  0  0  0  0  0  0  0  0  0
  -31.0290  -18.8941   22.7464 C   0  0  0  0  0  0  0  0  0  0  0  0
  -31.0805  -16.6652   21.6273 C   0  0  0  0  0  0  0  0  0  0  0  0
  -29.4281  -29.8539   20.6300 C   0  0  0  0  0  0  0  0  0  0  0  0
  -30.2833  -21.1979   16.5588 C   0  0  0  0  0  0  0  0  0  0  0  0
  -22.4739  -23.2168   18.9681 C   0  0  0  0  0  0  0  0  0  1  0  0
  -29.6050  -18.4903   20.6872 C   0  0  1  0  0  0  0  0  0  0  0  0
  -31.8444  -20.4957   18.3777 C   0  0  2  0  0  0  0  0  0  0  0  0
  -30.1696  -17.8582   21.9906 C   0  0  0  0  0  0  0  0  0  0  0  0
  -23.3903  -28.5788   23.3009 N   0  0  0  0  0  0  0  0  0  0  0  0
  -23.1307  -29.5215   22.3789 N   0  0  0  0  0  0  0  0  0  0  0  0
  -24.0261  -26.5419   19.2817 N   0  0  0  0  0  0  0  0  0  0  0  0
  -27.4033  -17.9258   19.7086 N   0  0  0  0  0  0  0  0  0  0  0  0
  -26.4866  -31.3641   22.3558 N   0  0  0  0  0  0  0  0  0  0  0  0
  -27.9716  -27.3211   22.0175 N   0  0  0  0  0  0  0  0  0  0  0  0
  -21.5690  -30.1571   20.7152 N   0  0  0  0  0  0  0  0  0  0  0  0
  -19.0362  -27.8748   22.3794 N   0  0  0  0  0  0  0  0  0  0  0  0
  -25.4115  -14.9896   20.0850 N   0  0  0  0  0  0  0  0  0  0  0  0
  -30.6280  -18.9539   19.7561 N   0  0  0  0  0  0  0  0  0  0  0  0
  -28.0686  -30.0438   21.1309 N   0  0  0  0  0  0  0  0  0  0  0  0
  -31.4814  -21.5326   17.3708 N   0  3  0  0  0  0  0  0  0  0  0  0
  -22.7327  -27.9206   17.8260 O   0  0  0  0  0  0  0  0  0  0  0  0
  -20.2115  -26.6597   20.8299 O   0  0  0  0  0  0  0  0  0  0  0  0
  -25.5353  -16.9609   21.3184 O   0  0  0  0  0  0  0  0  0  0  0  0
  -29.2159  -16.4743   19.4995 O   0  0  0  0  0  0  0  0  0  0  0  0
  -29.9257  -21.1628   19.6858 O   0  0  0  0  0  0  0  0  0  0  0  0
  -28.6585  -32.0929   22.0155 O   0  0  0  0  0  0  0  0  0  0  0  0
  -22.0235  -23.1991   26.4214 O   0  0  0  0  0  0  0  0  0  0  0  0
  -23.2506  -22.4828   19.9138 O   0  0  0  0  0  0  0  0  0  1  0  0
  -18.4689  -19.2495   24.9484 F   0  0  0  0  0  0  0  0  0  0  0  0
  -22.8995  -20.6348   25.8741 F   0  0  0  0  0  0  0  0  0  0  0  0
  1  2  1  0  0  0  0
  1  5  2  0  0  0  0
  2  6  2  0  0  0  0
  3 10  2  0  0  0  0
  3 18  1  0  0  0  0
  4 11  1  0  0  0  0
  4 18  2  0  0  0  0
  5 20  1  0  0  0  0
  6 22  1  0  0  0  0
  7 12  2  0  0  0  0
  7 21  1  0  0  0  0
  8  9  2  0  0  0  0
  8 24  1  0  0  0  0
  9 25  1  0  0  0  0
 10 27  1  0  0  0  0
 11 27  2  0  0  0  0
 12 28  1  0  0  0  0
 13 14  2  0  0  0  0
 13 29  1  0  0  0  0
 14 30  1  0  0  0  0
 15 23  1  0  0  0  0
 15 28  2  0  0  0  0
 16 24  2  0  0  0  0
 16 26  1  0  0  0  0
 17 30  2  0  0  0  0
 17 31  1  0  0  0  0
 18 32  1  0  0  0  0
 19 32  1  0  0  0  0
 19 33  2  0  0  0  0
 19 35  1  0  0  0  0
 20 22  2  0  0  0  0
 20 40  1  0  0  0  0
 21 23  2  0  0  0  0
 21 41  1  0  0  0  0
 22 51  1  0  0  0  0
 23 42  1  0  0  0  0
 24 67  1  0  0  0  0
 25 26  2  0  0  0  0
 25 75  1  0  0  0  0
 26 70  1  0  0  0  0
 27 83  1  0  0  0  0
 28 84  1  0  0  0  0
 29 31  2  0  0  0  0
 29 83  1  0  0  0  0
 30 85  1  0  0  0  0
 31 86  1  0  0  0  0
 32 65  2  0  0  0  0
 33 66  1  0  0  0  0
 33 71  1  0  0  0  0
 34 43  1  0  0  0  0
 34 67  1  0  0  0  0
 34 77  2  0  0  0  0
 35 72  1  0  0  0  0
 35 78  2  0  0  0  0
 36 52  1  0  0  0  0
 36 73  1  0  0  0  0
 36 79  2  0  0  0  0
 37 62  1  0  0  0  0
 37 68  1  0  0  0  0
 37 80  2  0  0  0  0
 38 63  1  0  0  0  0
 38 74  1  0  0  0  0
 38 81  2  0  0  0  0
 39 69  1  0  0  0  0
 39 75  1  0  0  0  0
 39 82  2  0  0  0  0
 40 44  1  0  0  0  0
 41 52  1  0  0  0  0
 42 68  1  0  0  0  0
 43 53  1  0  0  0  0
 44 46  1  0  0  0  0
 45 47  1  0  0  0  0
 45 48  1  0  0  0  0
 46 51  1  0  0  0  0
 47 54  1  0  0  0  0
 48 69  1  0  0  0  0
 49 53  1  0  0  0  0
 49 67  1  0  0  0  0
 50 54  1  0  0  0  0
 50 69  1  0  0  0  0
 51 73  1  0  0  0  0
 52 68  1  0  0  0  0
 53 61  1  0  0  0  0
 54 66  1  0  0  0  0
 55 63  1  0  0  0  0
 56 64  1  0  0  0  0
 57 64  1  0  0  0  0
 58 64  1  0  0  0  0
 59 75  1  0  0  0  0
 60 76  1  0  0  0  0
 61 84  1  0  0  0  0
 62 64  1  0  0  0  0
 62 74  1  0  0  0  0
 63 76  1  0  0  0  0
 65 66  1  0  0  0  0
M  CHG  1  76   1
M  ISO  4  39 100  61 101  75 100  84 101
M  END
> <Batch ID>
0095

> <Smiles>
CNC(C)C(=O)NC(C(=O)N1Cc2cc([101O:1][101CH2:1]C3CC(=O)N(c4ccc([100N:0](C)[100C:0](=O)N5CCCC(n6nc(-c7ccc(Oc8ccc(F)cc8F)cc7)c(C(N)=O)c6N)C5)c(N)c4)C3)ccc2CC1C(=O)NC1CCCc2ccccc21)C(C)(C)C

> <Shape>
0.221

> <Color>
0.078

> <Negative vol penalty>
0.000

$$$$

  -OEChem-04052300433D

 85 93  0     1  0  0  0  0  0999 V2000
  -29.9564  -35.8136   20.6480 C   0  0  0  0  0  0  0  0  0  0  0  0
  -29.9478  -34.4261   20.7498 C   0  0  0  0  0  0  0  0  0  0  0  0
  -23.8115  -16.0576   22.3244 C   0  0  0  0  0  0  0  0  0  0  0  0
  -22.7497  -15.8003   20.1696 C   0  0  0  0  0  0  0  0  0  0  0  0
  -28.9791  -36.5652   21.2991 C   0  0  0  0  0  0  0  0  0  0  0  0
  -28.9625  -33.7896   21.5037 C   0  0  0  0  0  0  0  0  0  0  0  0
  -26.9985  -29.7678   19.1344 C   0  0  0  0  0  0  0  0  0  0  0  0
  -28.9526  -20.0354   18.2981 C   0  0  0  0  0  0  0  0  0  0  0  0
  -28.6912  -21.3285   18.7511 C   0  0  0  0  0  0  0  0  0  0  0  0
  -22.9837  -17.1453   22.6025 C   0  0  0  0  0  0  0  0  0  0  0  0
  -21.9218  -16.8880   20.4476 C   0  0  0  0  0  0  0  0  0  0  0  0
  -27.7515  -28.5945   19.1411 C   0  0  0  0  0  0  0  0  0  0  0  0
  -19.1288  -17.4931   22.2514 C   0  0  0  0  0  0  0  0  0  0  0  0
  -17.7716  -17.3646   21.9564 C   0  0  0  0  0  0  0  0  0  0  0  0
  -26.3889  -27.7374   20.9378 C   0  0  0  0  0  0  0  0  0  0  0  0
  -27.1781  -19.1856   19.7003 C   0  0  0  0  0  0  0  0  0  0  0  0
  -17.9230  -19.2414   20.4424 C   0  0  0  0  0  0  0  0  0  0  0  0
  -23.6946  -15.3852   21.1079 C   0  0  0  0  0  0  0  0  0  0  0  0
  -24.2982  -12.9066   21.1054 C   0  0  0  0  0  0  0  0  0  0  0  0
  -27.9756  -35.9370   22.0535 C   0  0  0  0  0  0  0  0  0  0  0  0
  -25.9402  -29.9395   20.0383 C   0  0  0  0  0  0  0  0  0  0  0  0
  -27.9717  -34.5336   22.1666 C   0  0  0  0  0  0  0  0  0  0  0  0
  -25.6225  -28.9128   20.9389 C   0  0  0  0  0  0  0  0  0  0  0  0
  -28.1959  -18.9639   18.7727 C   0  0  0  0  0  0  0  0  0  0  0  0
  -27.6734  -21.5502   19.6787 C   0  0  0  0  0  0  0  0  0  0  0  0
  -26.9168  -20.4787   20.1533 C   0  0  0  0  0  0  0  0  0  0  0  0
  -22.0388  -17.5604   21.6641 C   0  0  0  0  0  0  0  0  0  0  0  0
  -27.4486  -27.5802   20.0448 C   0  0  0  0  0  0  0  0  0  0  0  0
  -19.8831  -18.4958   21.6419 C   0  0  0  0  0  0  0  0  0  0  0  0
  -17.1687  -18.2387   21.0519 C   0  0  0  0  0  0  0  0  0  0  0  0
  -19.2803  -19.3698   20.7374 C   0  0  0  0  0  0  0  0  0  0  0  0
  -24.5498  -14.2620   20.8198 C   0  0  0  0  0  0  0  0  0  0  0  0
  -25.4072  -12.2454   20.6370 C   0  0  0  0  0  0  0  0  0  0  0  0
  -23.1635  -12.2996   21.7376 C   0  0  0  0  0  0  0  0  0  0  0  0
  -25.3077  -31.9828   22.3897 C   0  0  0  0  0  0  0  0  0  0  0  0
  -22.4525  -30.4440   22.4339 C   0  0  0  0  0  0  0  0  0  0  0  0
  -28.9739  -17.3742   17.0217 C   0  0  0  0  0  0  0  0  0  0  0  0
  -28.0923  -24.0310   19.7422 C   0  0  0  0  0  0  0  0  0  0  0  0
  -20.6718  -27.6202   21.7251 C   0  0  0  0  0  0  0  0  0  0  0  0
  -28.4822  -16.5927   19.2665 C   0  0  0  0  0  0  0  0  0  0  0  0
  -26.9683  -36.7941   22.7781 C   0  0  0  0  0  0  0  0  0  0  0  0
  -25.1207  -31.2002   20.0004 C   0  0  0  0  0  0  0  0  0  0  0  0
  -24.4834  -29.0395   21.9161 C   0  0  0  0  0  0  0  0  0  0  0  0
  -25.7388  -36.0220   23.2500 C   0  0  0  0  0  0  0  0  0  0  0  0
  -27.2658  -13.8648   17.0944 C   0  0  0  0  0  0  0  0  0  0  0  0
  -26.1538  -34.7207   23.9291 C   0  0  0  0  0  0  0  0  0  0  0  0
  -27.4695  -12.6438   17.9833 C   0  0  0  0  0  0  0  0  0  0  0  0
  -28.3317  -14.9280   17.3386 C   0  0  0  0  0  0  0  0  0  0  0  0
  -28.5911  -14.1529   19.6927 C   0  0  0  0  0  0  0  0  0  0  0  0
  -26.9048  -33.8051   22.9548 C   0  0  1  0  0  0  0  0  0  0  0  0
  -24.3912  -31.4784   21.3111 C   0  0  1  0  0  0  0  0  0  0  0  0
  -27.5867  -13.0075   19.4713 C   0  0  1  0  0  0  0  0  0  0  0  0
  -28.3197  -18.1095   15.8720 C   0  0  0  0  0  0  0  0  0  0  0  0
  -18.3663  -26.6468   21.9103 C   0  0  0  0  0  0  0  0  0  0  0  0
  -22.8917  -29.9775   25.4171 C   0  0  0  0  0  0  0  0  0  0  0  0
  -21.0948  -28.2359   25.3383 C   0  0  0  0  0  0  0  0  0  0  0  0
  -20.5537  -30.6092   24.7931 C   0  0  0  0  0  0  0  0  0  0  0  0
  -20.4373  -27.3193   18.7902 C   0  0  0  0  0  0  0  0  0  0  0  0
  -27.5150  -25.2389   20.4564 C   0  0  0  0  0  0  0  0  0  1  0  0
  -21.8999  -29.2362   23.1515 C   0  0  1  0  0  0  0  0  0  0  0  0
  -19.3372  -27.4188   21.0304 C   0  0  2  0  0  0  0  0  0  0  0  0
  -21.6328  -29.5128   24.6580 C   0  0  0  0  0  0  0  0  0  0  0  0
  -25.7264  -14.4521   20.2168 N   0  0  0  0  0  0  0  0  0  0  0  0
  -26.2240  -13.2075   20.1198 N   0  0  0  0  0  0  0  0  0  0  0  0
  -23.7157  -30.2937   21.8444 N   0  0  0  0  0  0  0  0  0  0  0  0
  -28.4502  -15.2754   18.7605 N   0  0  0  0  0  0  0  0  0  0  0  0
  -25.8809  -20.6807   21.0929 N   0  0  0  0  0  0  0  0  0  0  0  0
  -25.7536  -10.9408   20.6213 N   0  0  0  0  0  0  0  0  0  0  0  0
  -22.1119  -13.1252   22.1580 N   0  0  0  0  0  0  0  0  0  0  0  0
  -27.4268  -22.8708   20.1232 N   0  0  0  0  0  0  0  0  0  0  0  0
  -25.9755  -33.1471   22.0614 N   0  0  0  0  0  0  0  0  0  0  0  0
  -20.7194  -28.8206   22.4018 N   0  0  0  0  0  0  0  0  0  0  0  0
  -28.4664  -17.6264   18.3037 N   0  0  0  0  0  0  0  0  0  0  0  0
  -19.5234  -26.6624   19.7599 N   0  3  0  0  0  0  0  0  0  0  0  0
  -23.0917  -11.0636   21.9388 O   0  0  0  0  0  0  0  0  0  0  0  0
  -25.4009  -31.3623   23.4423 O   0  0  0  0  0  0  0  0  0  0  0  0
  -21.7847  -31.4803   22.3917 O   0  0  0  0  0  0  0  0  0  0  0  0
  -29.8789  -16.5668   16.7929 O   0  0  0  0  0  0  0  0  0  0  0  0
  -29.0214  -24.1373   18.9484 O   0  0  0  0  0  0  0  0  0  0  0  0
  -21.5799  -26.7935   21.6756 O   0  0  0  0  0  0  0  0  0  0  0  0
  -28.5833  -16.8387   20.4748 O   0  0  0  0  0  0  0  0  0  0  0  0
  -21.2307  -18.6215   21.9353 O   0  0  0  0  0  0  0  0  0  0  0  0
  -28.1824  -26.4342   20.0538 O   0  0  0  0  0  0  0  0  0  1  0  0
  -15.8657  -18.1143   20.7675 F   0  0  0  0  0  0  0  0  0  0  0  0
  -20.0001  -20.3343   20.1479 F   0  0  0  0  0  0  0  0  0  0  0  0
  1  2  1  0  0  0  0
  1  5  2  0  0  0  0
  2  6  2  0  0  0  0
  3 10  2  0  0  0  0
  3 18  1  0  0  0  0
  4 11  1  0  0  0  0
  4 18  2  0  0  0  0
  5 20  1  0  0  0  0
  6 22  1  0  0  0  0
  7 12  2  0  0  0  0
  7 21  1  0  0  0  0
  8  9  2  0  0  0  0
  8 24  1  0  0  0  0
  9 25  1  0  0  0  0
 10 27  1  0  0  0  0
 11 27  2  0  0  0  0
 12 28  1  0  0  0  0
 13 14  2  0  0  0  0
 13 29  1  0  0  0  0
 14 30  1  0  0  0  0
 15 23  1  0  0  0  0
 15 28  2  0  0  0  0
 16 24  2  0  0  0  0
 16 26  1  0  0  0  0
 17 30  2  0  0  0  0
 17 31  1  0  0  0  0
 18 32  1  0  0  0  0
 19 32  1  0  0  0  0
 19 33  2  0  0  0  0
 19 34  1  0  0  0  0
 20 22  2  0  0  0  0
 20 41  1  0  0  0  0
 21 23  2  0  0  0  0
 21 42  1  0  0  0  0
 22 50  1  0  0  0  0
 23 43  1  0  0  0  0
 24 73  1  0  0  0  0
 25 26  2  0  0  0  0
 25 70  1  0  0  0  0
 26 67  1  0  0  0  0
 27 82  1  0  0  0  0
 28 83  1  0  0  0  0
 29 31  2  0  0  0  0
 29 82  1  0  0  0  0
 30 84  1  0  0  0  0
 31 85  1  0  0  0  0
 32 63  2  0  0  0  0
 33 64  1  0  0  0  0
 33 68  1  0  0  0  0
 34 69  1  0  0  0  0
 34 75  2  0  0  0  0
 35 51  1  0  0  0  0
 35 71  1  0  0  0  0
 35 76  2  0  0  0  0
 36 60  1  0  0  0  0
 36 65  1  0  0  0  0
 36 77  2  0  0  0  0
 37 53  1  0  0  0  0
 37 73  1  0  0  0  0
 37 78  2  0  0  0  0
 38 59  1  0  0  0  0
 38 70  1  0  0  0  0
 38 79  2  0  0  0  0
 39 61  1  0  0  0  0
 39 72  1  0  0  0  0
 39 80  2  0  0  0  0
 40 66  1  0  0  0  0
 40 73  1  0  0  0  0
 40 81  2  0  0  0  0
 41 44  1  0  0  0  0
 42 51  1  0  0  0  0
 43 65  1  0  0  0  0
 44 46  1  0  0  0  0
 45 47  1  0  0  0  0
 45 48  1  0  0  0  0
 46 50  1  0  0  0  0
 47 52  1  0  0  0  0
 48 66  1  0  0  0  0
 49 52  1  0  0  0  0
 49 66  1  0  0  0  0
 50 71  1  0  0  0  0
 51 65  1  0  0  0  0
 52 64  1  0  0  0  0
 54 61  1  0  0  0  0
 55 62  1  0  0  0  0
 56 62  1  0  0  0  0
 57 62  1  0  0  0  0
 58 74  1  0  0  0  0
 59 83  1  0  0  0  0
 60 62  1  0  0  0  0
 60 72  1  0  0  0  0
 61 74  1  0  0  0  0
 63 64  1  0  0  0  0
M  CHG  1  74   1
M  ISO  4  40 100  59 101  73 100  83 101
M  END
> <Batch ID>
0095

> <Smiles>
CNC(C)C(=O)NC(C(=O)N1Cc2cc([101O:1][101CH2:1]C(=O)Nc3ccc([100N:0](C(C)=O)[100C:0](=O)N4CCCC(n5nc(-c6ccc(Oc7ccc(F)cc7F)cc6)c(C(N)=O)c5N)C4)cc3N)ccc2CC1C(=O)NC1CCCc2ccccc21)C(C)(C)C

> <Shape>
0.270

> <Color>
0.108

> <Negative vol penalty>
0.000

$$$$

  -OEChem-04052300433D

 85 93  0     1  0  0  0  0  0999 V2000
  -23.3089  -36.4458   22.4645 C   0  0  0  0  0  0  0  0  0  0  0  0
  -24.2909  -35.5279   22.1060 C   0  0  0  0  0  0  0  0  0  0  0  0
  -25.0704   -8.7498   21.5177 C   0  0  0  0  0  0  0  0  0  0  0  0
  -23.5415  -10.5961   21.2164 C   0  0  0  0  0  0  0  0  0  0  0  0
  -22.2189  -36.0351   23.2308 C   0  0  0  0  0  0  0  0  0  0  0  0
  -24.1840  -34.1990   22.5144 C   0  0  0  0  0  0  0  0  0  0  0  0
  -25.9612  -29.2354   19.3983 C   0  0  0  0  0  0  0  0  0  0  0  0
  -23.9956   -7.8608   21.5240 C   0  0  0  0  0  0  0  0  0  0  0  0
  -22.4667   -9.7071   21.2227 C   0  0  0  0  0  0  0  0  0  0  0  0
  -27.1069  -28.4441   19.4688 C   0  0  0  0  0  0  0  0  0  0  0  0
  -21.6236   -6.8366   23.7034 C   0  0  0  0  0  0  0  0  0  0  0  0
  -21.6108   -5.8435   24.6827 C   0  0  0  0  0  0  0  0  0  0  0  0
  -25.9436  -26.8989   20.9105 C   0  0  0  0  0  0  0  0  0  0  0  0
  -29.1332  -19.3808   23.3808 C   0  0  0  0  0  0  0  0  0  0  0  0
  -28.9896  -20.0297   20.6714 C   0  0  0  0  0  0  0  0  0  0  0  0
  -21.6131   -4.1471   22.9624 C   0  0  0  0  0  0  0  0  0  0  0  0
  -24.8433  -10.1175   21.3639 C   0  0  0  0  0  0  0  0  0  0  0  0
  -26.6937  -11.4676   20.2409 C   0  0  0  0  0  0  0  0  0  0  0  0
  -22.0936  -34.6984   23.6407 C   0  0  0  0  0  0  0  0  0  0  0  0
  -24.7996  -28.8695   20.0933 C   0  0  0  0  0  0  0  0  0  0  0  0
  -23.0919  -33.7703   23.2880 C   0  0  0  0  0  0  0  0  0  0  0  0
  -24.7837  -27.6860   20.8451 C   0  0  0  0  0  0  0  0  0  0  0  0
  -29.1710  -20.7164   22.9806 C   0  0  0  0  0  0  0  0  0  0  0  0
  -29.0236  -18.3695   22.4262 C   0  0  0  0  0  0  0  0  0  0  0  0
  -29.0992  -21.0409   21.6259 C   0  0  0  0  0  0  0  0  0  0  0  0
  -22.6937   -8.3394   21.3765 C   0  0  0  0  0  0  0  0  0  0  0  0
  -27.0991  -27.2771   20.2273 C   0  0  0  0  0  0  0  0  0  0  0  0
  -21.6311   -6.4850   22.3535 C   0  0  0  0  0  0  0  0  0  0  0  0
  -21.6056   -4.4987   24.3122 C   0  0  0  0  0  0  0  0  0  0  0  0
  -28.9517  -18.6940   21.0715 C   0  0  0  0  0  0  0  0  0  0  0  0
  -21.6259   -5.1403   21.9831 C   0  0  0  0  0  0  0  0  0  0  0  0
  -25.9531  -11.0363   21.3579 C   0  0  0  0  0  0  0  0  0  0  0  0
  -27.6293  -12.3283   20.7608 C   0  0  0  0  0  0  0  0  0  0  0  0
  -26.5487  -11.1212   18.8572 C   0  0  0  0  0  0  0  0  0  0  0  0
  -29.1438  -24.3423   19.8208 C   0  0  0  0  0  0  0  0  0  0  0  0
  -29.0762  -22.8444   19.8969 C   0  0  0  0  0  0  0  0  0  0  0  0
  -23.0675  -30.1803   22.4140 C   0  0  0  0  0  0  0  0  0  0  0  0
  -21.0824  -27.6872   21.8087 C   0  0  0  0  0  0  0  0  0  0  0  0
  -20.6918  -24.5260   20.5837 C   0  0  0  0  0  0  0  0  0  0  0  0
  -29.0447  -16.5221   24.1388 C   0  0  0  0  0  0  0  0  0  0  0  0
  -20.9217  -34.3118   24.5078 C   0  0  0  0  0  0  0  0  0  0  0  0
  -23.5637  -29.7200   19.9855 C   0  0  0  0  0  0  0  0  0  0  0  0
  -23.5558  -27.2383   21.5936 C   0  0  0  0  0  0  0  0  0  0  0  0
  -20.6912  -32.8047   24.5837 C   0  0  0  0  0  0  0  0  0  0  0  0
  -28.9417  -13.2592   25.5601 C   0  0  0  0  0  0  0  0  0  0  0  0
  -22.0071  -32.0754   24.8360 C   0  0  0  0  0  0  0  0  0  0  0  0
  -28.2159  -12.4255   24.5016 C   0  0  0  0  0  0  0  0  0  0  0  0
  -28.3720  -14.6734   25.6569 C   0  0  0  0  0  0  0  0  0  0  0  0
  -27.5795  -14.5705   23.3265 C   0  0  0  0  0  0  0  0  0  0  0  0
  -22.9987  -32.3146   23.6910 C   0  0  1  0  0  0  0  0  0  0  0  0
  -22.5973  -29.5200   21.1489 C   0  0  1  0  0  0  0  0  0  0  0  0
  -28.1610  -13.1587   23.1470 C   0  0  2  0  0  0  0  0  0  0  0  0
  -18.9601  -22.7389   20.2595 C   0  0  0  0  0  0  0  0  0  0  0  0
  -21.2205  -27.0174   24.7823 C   0  0  0  0  0  0  0  0  0  0  0  0
  -20.2931  -24.7549   24.2446 C   0  0  0  0  0  0  0  0  0  0  0  0
  -18.9448  -26.7990   23.7684 C   0  0  0  0  0  0  0  0  0  0  0  0
  -21.0357  -24.5636   17.6444 C   0  0  0  0  0  0  0  0  0  0  0  0
  -28.0245  -25.1015   20.4843 C   0  0  0  0  0  0  0  0  0  1  0  0
  -20.9527  -26.2743   22.3243 C   0  0  1  0  0  0  0  0  0  0  0  0
  -19.6655  -23.9329   19.6353 C   0  0  2  0  0  0  0  0  0  0  0  0
  -20.3767  -26.2206   23.7675 C   0  0  0  0  0  0  0  0  0  0  0  0
  -26.3815  -11.5783   22.5010 N   0  0  0  0  0  0  0  0  0  0  0  0
  -27.4014  -12.3588   22.1052 N   0  0  0  0  0  0  0  0  0  0  0  0
  -22.3744  -28.1070   21.4620 N   0  0  0  0  0  0  0  0  0  0  0  0
  -28.3548  -15.3074   24.3368 N   0  0  0  0  0  0  0  0  0  0  0  0
  -29.2838  -21.7246   23.9642 N   0  0  0  0  0  0  0  0  0  0  0  0
  -28.6165  -13.0543   20.1946 N   0  0  0  0  0  0  0  0  0  0  0  0
  -25.5357  -10.2225   18.4961 N   0  0  0  0  0  0  0  0  0  0  0  0
  -29.1369  -22.3878   21.1958 N   0  0  0  0  0  0  0  0  0  0  0  0
  -28.9848  -17.0134   22.8351 N   0  0  0  0  0  0  0  0  0  0  0  0
  -22.6592  -31.4935   22.5486 N   0  0  0  0  0  0  0  0  0  0  0  0
  -20.1591  -25.5507   21.3369 N   0  0  0  0  0  0  0  0  0  0  0  0
  -20.3229  -23.4843   18.3753 N   0  3  0  0  0  0  0  0  0  0  0  0
  -27.3058  -11.5819   17.9695 O   0  0  0  0  0  0  0  0  0  0  0  0
  -30.0824  -24.8359   19.2142 O   0  0  0  0  0  0  0  0  0  0  0  0
  -29.0056  -22.2461   18.8362 O   0  0  0  0  0  0  0  0  0  0  0  0
  -23.7490  -29.5448   23.2100 O   0  0  0  0  0  0  0  0  0  0  0  0
  -20.0735  -28.3901   21.7103 O   0  0  0  0  0  0  0  0  0  0  0  0
  -21.8493  -24.1183   20.6523 O   0  0  0  0  0  0  0  0  0  0  0  0
  -29.6673  -17.0711   25.0516 O   0  0  0  0  0  0  0  0  0  0  0  0
  -21.6447   -7.4722   21.3824 O   0  0  0  0  0  0  0  0  0  0  0  0
  -28.2162  -26.5032   20.2983 O   0  0  0  0  0  0  0  0  0  1  0  0
  -21.5948   -3.5451   25.2528 F   0  0  0  0  0  0  0  0  0  0  0  0
  -28.8463  -17.7305   20.1453 F   0  0  0  0  0  0  0  0  0  0  0  0
  -21.6343   -4.7963   20.6879 F   0  0  0  0  0  0  0  0  0  0  0  0
  1  2  1  0  0  0  0
  1  5  2  0  0  0  0
  2  6  2  0  0  0  0
  3  8  2  0  0  0  0
  3 17  1  0  0  0  0
  4  9  1  0  0  0  0
  4 17  2  0  0  0  0
  5 19  1  0  0  0  0
  6 21  1  0  0  0  0
  7 10  2  0  0  0  0
  7 20  1  0  0  0  0
  8 26  1  0  0  0  0
  9 26  2  0  0  0  0
 10 27  1  0  0  0  0
 11 12  2  0  0  0  0
 11 28  1  0  0  0  0
 12 29  1  0  0  0  0
 13 22  1  0  0  0  0
 13 27  2  0  0  0  0
 14 23  1  0  0  0  0
 14 24  2  0  0  0  0
 15 25  1  0  0  0  0
 15 30  2  0  0  0  0
 16 29  2  0  0  0  0
 16 31  1  0  0  0  0
 17 32  1  0  0  0  0
 18 32  1  0  0  0  0
 18 33  2  0  0  0  0
 18 34  1  0  0  0  0
 19 21  2  0  0  0  0
 19 41  1  0  0  0  0
 20 22  2  0  0  0  0
 20 42  1  0  0  0  0
 21 50  1  0  0  0  0
 22 43  1  0  0  0  0
 23 25  2  0  0  0  0
 23 66  1  0  0  0  0
 24 30  1  0  0  0  0
 24 70  1  0  0  0  0
 25 69  1  0  0  0  0
 26 81  1  0  0  0  0
 27 82  1  0  0  0  0
 28 31  2  0  0  0  0
 28 81  1  0  0  0  0
 29 83  1  0  0  0  0
 30 84  1  0  0  0  0
 31 85  1  0  0  0  0
 32 62  2  0  0  0  0
 33 63  1  0  0  0  0
 33 67  1  0  0  0  0
 34 68  1  0  0  0  0
 34 74  2  0  0  0  0
 35 36  1  0  0  0  0
 35 58  1  0  0  0  0
 35 75  2  0  0  0  0
 36 69  1  0  0  0  0
 36 76  2  0  0  0  0
 37 51  1  0  0  0  0
 37 71  1  0  0  0  0
 37 77  2  0  0  0  0
 38 59  1  0  0  0  0
 38 64  1  0  0  0  0
 38 78  2  0  0  0  0
 39 60  1  0  0  0  0
 39 72  1  0  0  0  0
 39 79  2  0  0  0  0
 40 65  1  0  0  0  0
 40 70  1  0  0  0  0
 40 80  2  0  0  0  0
 41 44  1  0  0  0  0
 42 51  1  0  0  0  0
 43 64  1  0  0  0  0
 44 46  1  0  0  0  0
 45 47  1  0  0  0  0
 45 48  1  0  0  0  0
 46 50  1  0  0  0  0
 47 52  1  0  0  0  0
 48 65  1  0  0  0  0
 49 52  1  0  0  0  0
 49 65  1  0  0  0  0
 50 71  1  0  0  0  0
 51 64  1  0  0  0  0
 52 63  1  0  0  0  0
 53 60  1  0  0  0  0
 54 61  1  0  0  0  0
 55 61  1  0  0  0  0
 56 61  1  0  0  0  0
 57 73  1  0  0  0  0
 58 82  1  0  0  0  0
 59 61  1  0  0  0  0
 59 72  1  0  0  0  0
 60 73  1  0  0  0  0
 62 63  1  0  0  0  0
M  CHG  1  73   1
M  ISO  4  40 100  58 101  70 100  82 101
M  END
> <Batch ID>
0095

> <Smiles>
CNC(C)C(=O)NC(C(=O)N1Cc2cc([101O:1][101CH2:1]C(=O)C(=O)Nc3cc(F)c([100NH:0][100C:0](=O)N4CCCC(n5nc(-c6ccc(Oc7ccc(F)cc7F)cc6)c(C(N)=O)c5N)C4)cc3N)ccc2CC1C(=O)NC1CCCc2ccccc21)C(C)(C)C

> <Shape>
0.289

> <Color>
0.107

> <Negative vol penalty>
0.000

$$$$

  -OEChem-04052300433D

 82 90  0     1  0  0  0  0  0999 V2000
  -29.5792  -34.3630   16.2617 C   0  0  0  0  0  0  0  0  0  0  0  0
  -29.6876  -32.9797   16.3622 C   0  0  0  0  0  0  0  0  0  0  0  0
  -24.8755   -8.5020   21.0709 C   0  0  0  0  0  0  0  0  0  0  0  0
  -23.3628  -10.0489   19.9958 C   0  0  0  0  0  0  0  0  0  0  0  0
  -29.0143  -35.0945   17.3057 C   0  0  0  0  0  0  0  0  0  0  0  0
  -29.2321  -32.3271   17.5072 C   0  0  0  0  0  0  0  0  0  0  0  0
  -26.6469  -26.7832   17.8025 C   0  0  0  0  0  0  0  0  0  0  0  0
  -29.4760  -20.1256   18.9692 C   0  0  0  0  0  0  0  0  0  0  0  0
  -28.8714  -21.3713   19.1370 C   0  0  0  0  0  0  0  0  0  0  0  0
  -23.7993   -7.6776   21.3991 C   0  0  0  0  0  0  0  0  0  0  0  0
  -22.2865   -9.2245   20.3240 C   0  0  0  0  0  0  0  0  0  0  0  0
  -27.1568  -25.5265   18.1257 C   0  0  0  0  0  0  0  0  0  0  0  0
  -21.3463   -7.5914   23.7229 C   0  0  0  0  0  0  0  0  0  0  0  0
  -21.2952   -7.0789   25.0191 C   0  0  0  0  0  0  0  0  0  0  0  0
  -26.3890  -25.8053   20.3955 C   0  0  0  0  0  0  0  0  0  0  0  0
  -27.3924  -19.2260   18.1407 C   0  0  0  0  0  0  0  0  0  0  0  0
  -21.3574   -4.8320   24.1333 C   0  0  0  0  0  0  0  0  0  0  0  0
  -24.6573   -9.6877   20.3693 C   0  0  0  0  0  0  0  0  0  0  0  0
  -26.5507  -10.4924   18.8610 C   0  0  0  0  0  0  0  0  0  0  0  0
  -28.5429  -34.4496   18.4600 C   0  0  0  0  0  0  0  0  0  0  0  0
  -26.0128  -27.5663   18.7777 C   0  0  0  0  0  0  0  0  0  0  0  0
  -28.6616  -33.0508   18.5682 C   0  0  0  0  0  0  0  0  0  0  0  0
  -25.8696  -27.0705   20.0815 C   0  0  0  0  0  0  0  0  0  0  0  0
  -28.7365  -19.0529   18.4710 C   0  0  0  0  0  0  0  0  0  0  0  0
  -27.5273  -21.5444   18.8067 C   0  0  0  0  0  0  0  0  0  0  0  0
  -26.7878  -20.4718   18.3086 C   0  0  0  0  0  0  0  0  0  0  0  0
  -22.5048   -8.0388   21.0256 C   0  0  0  0  0  0  0  0  0  0  0  0
  -27.0305  -25.0386   19.4231 C   0  0  0  0  0  0  0  0  0  0  0  0
  -21.4029   -6.7242   22.6318 C   0  0  0  0  0  0  0  0  0  0  0  0
  -21.3008   -5.6992   25.2244 C   0  0  0  0  0  0  0  0  0  0  0  0
  -21.4085   -5.3445   22.8370 C   0  0  0  0  0  0  0  0  0  0  0  0
  -25.7685  -10.5400   20.0305 C   0  0  0  0  0  0  0  0  0  0  0  0
  -27.4684  -11.5019   19.0204 C   0  0  0  0  0  0  0  0  0  0  0  0
  -26.4562   -9.6143   17.7316 C   0  0  0  0  0  0  0  0  0  0  0  0
  -26.5765  -30.4065   20.0889 C   0  0  0  0  0  0  0  0  0  0  0  0
  -23.7095  -29.8834   21.5134 C   0  0  0  0  0  0  0  0  0  0  0  0
  -21.3663  -27.6386   22.5705 C   0  0  0  0  0  0  0  0  0  0  0  0
  -28.7411  -16.7367   20.4771 C   0  0  0  0  0  0  0  0  0  0  0  0
  -27.9831  -35.2873   19.5822 C   0  0  0  0  0  0  0  0  0  0  0  0
  -25.4445  -28.9085   18.4065 C   0  0  0  0  0  0  0  0  0  0  0  0
  -25.1794  -27.8634   21.1601 C   0  0  0  0  0  0  0  0  0  0  0  0
  -27.1830  -34.4820   20.6029 C   0  0  0  0  0  0  0  0  0  0  0  0
  -28.6093  -14.3044   23.0739 C   0  0  0  0  0  0  0  0  0  0  0  0
  -27.9396  -33.2173   20.9965 C   0  0  0  0  0  0  0  0  0  0  0  0
  -27.9177  -13.1073   22.4190 C   0  0  0  0  0  0  0  0  0  0  0  0
  -28.0346  -15.6292   22.5773 C   0  0  0  0  0  0  0  0  0  0  0  0
  -27.3300  -14.5908   20.4562 C   0  0  0  0  0  0  0  0  0  0  0  0
  -28.1565  -32.3042   19.7837 C   0  0  1  0  0  0  0  0  0  0  0  0
  -25.2731  -29.8370   19.6048 C   0  0  1  0  0  0  0  0  0  0  0  0
  -27.9135  -13.2332   20.8837 C   0  0  2  0  0  0  0  0  0  0  0  0
  -19.1465  -27.5087   23.7337 C   0  0  0  0  0  0  0  0  0  0  0  0
  -30.8868  -17.6399   18.6910 C   0  0  0  0  0  0  0  0  0  0  0  0
  -29.3016  -17.2713   16.8046 C   0  0  0  0  0  0  0  0  0  0  0  0
  -25.0819  -30.4133   24.1865 C   0  0  0  0  0  0  0  0  0  0  0  0
  -23.1168  -29.3597   25.3251 C   0  0  0  0  0  0  0  0  0  0  0  0
  -22.8064  -31.4264   23.9632 C   0  0  0  0  0  0  0  0  0  0  0  0
  -20.0770  -26.3859   20.2195 C   0  0  0  0  0  0  0  0  0  0  0  0
  -23.2567  -29.2292   22.7963 C   0  0  1  0  0  0  0  0  0  0  0  0
  -19.8592  -27.5969   22.3932 C   0  0  2  0  0  0  0  0  0  0  0  0
  -29.3830  -17.7211   18.2913 C   0  0  0  0  0  0  0  0  0  0  0  0
  -23.5802  -30.0928   24.0482 C   0  0  0  0  0  0  0  0  0  0  0  0
  -26.1556  -11.5034   20.8709 N   0  0  0  0  0  0  0  0  0  0  0  0
  -27.1911  -12.0704   20.2287 N   0  0  0  0  0  0  0  0  0  0  0  0
  -24.6460  -29.1728   20.7493 N   0  0  0  0  0  0  0  0  0  0  0  0
  -28.0609  -15.6855   21.1137 N   0  0  0  0  0  0  0  0  0  0  0  0
  -25.4258  -20.6257   17.9668 N   0  0  0  0  0  0  0  0  0  0  0  0
  -28.4774  -11.9498   18.2434 N   0  0  0  0  0  0  0  0  0  0  0  0
  -25.4553   -8.6332   17.7299 N   0  0  0  0  0  0  0  0  0  0  0  0
  -26.9408  -22.8046   18.9820 N   0  0  0  0  0  0  0  0  0  1  0  0
  -26.9404  -31.5860   19.4679 N   0  0  0  0  0  0  0  0  0  0  0  0
  -21.8385  -28.9330   22.6251 N   0  0  0  0  0  0  0  0  0  0  0  0
  -28.7225  -16.7113   19.0880 N   0  0  0  0  0  0  0  0  0  0  0  0
  -19.4667  -26.4157   21.5736 N   0  3  0  0  0  0  0  0  0  0  0  0
  -27.2465   -9.6866   16.7602 O   0  0  0  0  0  0  0  0  0  0  0  0
  -27.2048  -29.8200   20.9624 O   0  0  0  0  0  0  0  0  0  0  0  0
  -23.2439  -30.9810   21.1971 O   0  0  0  0  0  0  0  0  0  0  0  0
  -22.0553  -26.6245   22.6561 O   0  0  0  0  0  0  0  0  0  0  0  0
  -29.3265  -17.6287   21.1006 O   0  0  0  0  0  0  0  0  0  0  0  0
  -21.4544   -7.2345   21.3455 O   0  0  0  0  0  0  0  0  0  0  0  0
  -27.5279  -23.8125   19.7414 O   0  0  0  0  0  0  0  0  0  1  0  0
  -21.2532   -5.2073   26.4693 F   0  0  0  0  0  0  0  0  0  0  0  0
  -21.4639   -4.5064   21.7928 F   0  0  0  0  0  0  0  0  0  0  0  0
  1  2  1  0  0  0  0
  1  5  2  0  0  0  0
  2  6  2  0  0  0  0
  3 10  2  0  0  0  0
  3 18  1  0  0  0  0
  4 11  1  0  0  0  0
  4 18  2  0  0  0  0
  5 20  1  0  0  0  0
  6 22  1  0  0  0  0
  7 12  2  0  0  0  0
  7 21  1  0  0  0  0
  8  9  2  0  0  0  0
  8 24  1  0  0  0  0
  9 25  1  0  0  0  0
 10 27  1  0  0  0  0
 11 27  2  0  0  0  0
 12 28  1  0  0  0  0
 13 14  2  0  0  0  0
 13 29  1  0  0  0  0
 14 30  1  0  0  0  0
 15 23  1  0  0  0  0
 15 28  2  0  0  0  0
 16 24  2  0  0  0  0
 16 26  1  0  0  0  0
 17 30  2  0  0  0  0
 17 31  1  0  0  0  0
 18 32  1  0  0  0  0
 19 32  1  0  0  0  0
 19 33  2  0  0  0  0
 19 34  1  0  0  0  0
 20 22  2  0  0  0  0
 20 39  1  0  0  0  0
 21 23  2  0  0  0  0
 21 40  1  0  0  0  0
 22 48  1  0  0  0  0
 23 41  1  0  0  0  0
 24 60  1  0  0  0  0
 25 26  2  0  0  0  0
 25 69  1  0  0  0  0
 26 66  1  0  0  0  0
 27 79  1  0  0  0  0
 28 80  1  0  0  0  0
 29 31  2  0  0  0  0
 29 79  1  0  0  0  0
 30 81  1  0  0  0  0
 31 82  1  0  0  0  0
 32 62  2  0  0  0  0
 33 63  1  0  0  0  0
 33 67  1  0  0  0  0
 34 68  1  0  0  0  0
 34 74  2  0  0  0  0
 35 49  1  0  0  0  0
 35 70  1  0  0  0  0
 35 75  2  0  0  0  0
 36 58  1  0  0  0  0
 36 64  1  0  0  0  0
 36 76  2  0  0  0  0
 37 59  1  0  0  0  0
 37 71  1  0  0  0  0
 37 77  2  0  0  0  0
 38 65  1  0  0  0  0
 38 72  1  0  0  0  0
 38 78  2  0  0  0  0
 39 42  1  0  0  0  0
 40 49  1  0  0  0  0
 41 64  1  0  0  0  0
 42 44  1  0  0  0  0
 43 45  1  0  0  0  0
 43 46  1  0  0  0  0
 44 48  1  0  0  0  0
 45 50  1  0  0  0  0
 46 65  1  0  0  0  0
 47 50  1  0  0  0  0
 47 65  1  0  0  0  0
 48 70  1  0  0  0  0
 49 64  1  0  0  0  0
 50 63  1  0  0  0  0
 51 59  1  0  0  0  0
 52 60  1  0  0  0  0
 53 60  1  0  0  0  0
 54 61  1  0  0  0  0
 55 61  1  0  0  0  0
 56 61  1  0  0  0  0
 57 73  1  0  0  0  0
 58 61  1  0  0  0  0
 58 71  1  0  0  0  0
 59 73  1  0  0  0  0
 60 72  1  0  0  0  0
 62 63  1  0  0  0  0
 69 80  1  0  0  0  0
M  CHG  1  73   1
M  ISO  4  38 100  69 101  72 100  80 101
M  END
> <Batch ID>
0095

> <Smiles>
CNC(C)C(=O)NC(C(=O)N1Cc2cc([101O:1][101NH:1]c3ccc(C(C)(C)[100NH:0][100C:0](=O)N4CCCC(n5nc(-c6ccc(Oc7ccc(F)cc7F)cc6)c(C(N)=O)c5N)C4)cc3N)ccc2CC1C(=O)NC1CCCc2ccccc21)C(C)(C)C

> <Shape>
0.279

> <Color>
0.074

> <Negative vol penalty>
0.000

$$$$

  -OEChem-04052300433D

 85 93  0     1  0  0  0  0  0999 V2000
  -29.7720  -32.5390   24.6645 C   0  0  0  0  0  0  0  0  0  0  0  0
  -29.5531  -31.3357   24.0015 C   0  0  0  0  0  0  0  0  0  0  0  0
  -23.5199  -12.4662   15.7360 C   0  0  0  0  0  0  0  0  0  0  0  0
  -22.7786  -10.9963   17.5043 C   0  0  0  0  0  0  0  0  0  0  0  0
  -28.7488  -33.1159   25.4157 C   0  0  0  0  0  0  0  0  0  0  0  0
  -28.3111  -30.7080   24.0902 C   0  0  0  0  0  0  0  0  0  0  0  0
  -26.6589  -29.0274   19.6079 C   0  0  0  0  0  0  0  0  0  0  0  0
  -22.7196  -11.7753   14.8262 C   0  0  0  0  0  0  0  0  0  0  0  0
  -21.9782  -10.3054   16.5945 C   0  0  0  0  0  0  0  0  0  0  0  0
  -27.2153  -27.8427   19.1277 C   0  0  0  0  0  0  0  0  0  0  0  0
  -20.0159   -7.9291   14.6678 C   0  0  0  0  0  0  0  0  0  0  0  0
  -20.0376   -6.5352   14.7132 C   0  0  0  0  0  0  0  0  0  0  0  0
  -28.5322  -18.6340   20.9384 C   0  0  0  0  0  0  0  0  0  0  0  0
  -25.2710  -26.6307   19.8825 C   0  0  0  0  0  0  0  0  0  0  0  0
  -29.5092  -20.8509   19.5550 C   0  0  0  0  0  0  0  0  0  0  0  0
  -22.4081   -6.5568   14.2471 C   0  0  0  0  0  0  0  0  0  0  0  0
  -23.5495  -12.0766   17.0751 C   0  0  0  0  0  0  0  0  0  0  0  0
  -29.7960  -18.5874   20.3499 C   0  0  0  0  0  0  0  0  0  0  0  0
  -24.0127  -13.9062   18.7913 C   0  0  0  0  0  0  0  0  0  0  0  0
  -27.4907  -32.4998   25.5058 C   0  0  0  0  0  0  0  0  0  0  0  0
  -25.4071  -29.0210   20.2399 C   0  0  0  0  0  0  0  0  0  0  0  0
  -27.2706  -31.2765   24.8444 C   0  0  0  0  0  0  0  0  0  0  0  0
  -24.6998  -27.8171   20.3676 C   0  0  0  0  0  0  0  0  0  0  0  0
  -27.7569  -19.7890   20.8351 C   0  0  0  0  0  0  0  0  0  0  0  0
  -30.2845  -19.6959   19.6583 C   0  0  0  0  0  0  0  0  0  0  0  0
  -28.2454  -20.8974   20.1435 C   0  0  0  0  0  0  0  0  0  0  0  0
  -21.9487  -10.6950   15.2554 C   0  0  0  0  0  0  0  0  0  0  0  0
  -26.5227  -26.6437   19.2675 C   0  0  0  0  0  0  0  0  0  0  0  0
  -21.1904   -8.6369   14.4119 C   0  0  0  0  0  0  0  0  0  0  0  0
  -21.2337   -5.8490   14.5029 C   0  0  0  0  0  0  0  0  0  0  0  0
  -22.3865   -7.9508   14.2017 C   0  0  0  0  0  0  0  0  0  0  0  0
  -24.3765  -12.7895   18.0153 C   0  0  0  0  0  0  0  0  0  0  0  0
  -25.1419  -14.2047   19.5140 C   0  0  0  0  0  0  0  0  0  0  0  0
  -30.5968  -17.3428   20.4783 C   0  0  0  0  0  0  0  0  0  0  0  0
  -22.7655  -14.6107   18.8535 C   0  0  0  0  0  0  0  0  0  0  0  0
  -24.3584  -29.7622   23.1475 C   0  0  0  0  0  0  0  0  0  0  0  0
  -21.4514  -29.2295   21.8104 C   0  0  0  0  0  0  0  0  0  0  0  0
  -27.8277  -23.2566   19.3732 C   0  0  0  0  0  0  0  0  0  0  0  0
  -19.6214  -27.6980   19.3707 C   0  0  0  0  0  0  0  0  0  0  0  0
  -30.6195  -14.9325   19.9185 C   0  0  0  0  0  0  0  0  0  0  0  0
  -26.4303  -33.1373   26.3683 C   0  0  0  0  0  0  0  0  0  0  0  0
  -24.8088  -30.3116   20.7286 C   0  0  0  0  0  0  0  0  0  0  0  0
  -23.3436  -27.7595   21.0202 C   0  0  0  0  0  0  0  0  0  0  0  0
  -25.0264  -32.5985   26.1058 C   0  0  0  0  0  0  0  0  0  0  0  0
  -29.4448  -11.6050   20.1307 C   0  0  0  0  0  0  0  0  0  0  0  0
  -25.0424  -31.0744   26.0445 C   0  0  0  0  0  0  0  0  0  0  0  0
  -27.9879  -11.7064   19.6709 C   0  0  0  0  0  0  0  0  0  0  0  0
  -30.3572  -12.5374   19.3350 C   0  0  0  0  0  0  0  0  0  0  0  0
  -28.4735  -14.0379   18.8269 C   0  0  0  0  0  0  0  0  0  0  0  0
  -25.9292  -30.5777   24.8964 C   0  0  1  0  0  0  0  0  0  0  0  0
  -23.7571  -30.1090   21.8149 C   0  0  1  0  0  0  0  0  0  0  0  0
  -27.5035  -13.1700   19.6448 C   0  0  1  0  0  0  0  0  0  0  0  0
  -17.2634  -27.4201   18.5583 C   0  0  0  0  0  0  0  0  0  0  0  0
  -20.8961  -27.2847   24.0951 C   0  0  0  0  0  0  0  0  0  0  0  0
  -18.9990  -26.3562   22.7509 C   0  0  0  0  0  0  0  0  0  0  0  0
  -18.9622  -28.7435   23.4735 C   0  0  0  0  0  0  0  0  0  0  0  0
  -20.2557  -28.9245   16.7530 C   0  0  0  0  0  0  0  0  0  0  0  0
  -26.7161  -24.2834   19.4856 C   0  0  0  0  0  0  0  0  0  1  0  0
  -20.5548  -28.0262   21.6456 C   0  0  1  0  0  0  0  0  0  0  0  0
  -18.5477  -28.2253   18.4360 C   0  0  2  0  0  0  0  0  0  0  0  0
  -19.8794  -27.6031   22.9806 C   0  0  0  0  0  0  0  0  0  0  0  0
  -25.6382  -12.4047   18.2251 N   0  0  0  0  0  0  0  0  0  0  0  0
  -26.0771  -13.2847   19.1412 N   0  0  0  0  0  0  0  0  0  0  0  0
  -22.8036  -29.0470   21.4875 N   0  0  0  0  0  0  0  0  0  0  0  0
  -29.8346  -13.9046   19.3675 N   0  0  0  0  0  0  0  0  0  0  0  0
  -26.4797  -19.8150   21.4394 N   0  0  0  0  0  0  0  0  0  0  0  0
  -31.5614  -19.6685   19.0545 N   0  0  0  0  0  0  0  0  0  0  0  0
  -25.4162  -15.1619   20.4256 N   0  0  0  0  0  0  0  0  0  0  0  0
  -21.7089  -14.1713   18.0443 N   0  0  0  0  0  0  0  0  0  0  0  0
  -27.4772  -22.0800   20.0264 N   0  0  0  0  0  0  0  0  0  0  0  0
  -30.0145  -16.1940   19.9420 N   0  0  0  0  0  0  0  0  0  0  0  0
  -25.2395  -30.7106   23.6311 N   0  0  0  0  0  0  0  0  0  0  0  0
  -19.6156  -28.3598   20.5803 N   0  0  0  0  0  0  0  0  0  0  0  0
  -19.0126  -28.1566   17.0218 N   0  3  0  0  0  0  0  0  0  0  0  0
  -31.7087  -17.3979   20.9965 O   0  0  0  0  0  0  0  0  0  0  0  0
  -22.5982  -15.6106   19.5922 O   0  0  0  0  0  0  0  0  0  0  0  0
  -24.0451  -28.7127   23.6971 O   0  0  0  0  0  0  0  0  0  0  0  0
  -20.9685  -30.2941   22.2042 O   0  0  0  0  0  0  0  0  0  0  0  0
  -28.8688  -23.5001   18.7720 O   0  0  0  0  0  0  0  0  0  0  0  0
  -20.3862  -26.7874   19.0602 O   0  0  0  0  0  0  0  0  0  0  0  0
  -31.7465  -14.7371   20.3844 O   0  0  0  0  0  0  0  0  0  0  0  0
  -21.1674  -10.0208   14.3680 O   0  0  0  0  0  0  0  0  0  0  0  0
  -27.0637  -25.4857   18.8002 O   0  0  0  0  0  0  0  0  0  1  0  0
  -21.2546   -4.5105   14.5480 F   0  0  0  0  0  0  0  0  0  0  0  0
  -23.5182   -8.6253   13.9567 F   0  0  0  0  0  0  0  0  0  0  0  0
  1  2  1  0  0  0  0
  1  5  2  0  0  0  0
  2  6  2  0  0  0  0
  3  8  2  0  0  0  0
  3 17  1  0  0  0  0
  4  9  1  0  0  0  0
  4 17  2  0  0  0  0
  5 20  1  0  0  0  0
  6 22  1  0  0  0  0
  7 10  2  0  0  0  0
  7 21  1  0  0  0  0
  8 27  1  0  0  0  0
  9 27  2  0  0  0  0
 10 28  1  0  0  0  0
 11 12  2  0  0  0  0
 11 29  1  0  0  0  0
 12 30  1  0  0  0  0
 13 18  2  0  0  0  0
 13 24  1  0  0  0  0
 14 23  1  0  0  0  0
 14 28  2  0  0  0  0
 15 25  2  0  0  0  0
 15 26  1  0  0  0  0
 16 30  2  0  0  0  0
 16 31  1  0  0  0  0
 17 32  1  0  0  0  0
 18 25  1  0  0  0  0
 18 34  1  0  0  0  0
 19 32  1  0  0  0  0
 19 33  2  0  0  0  0
 19 35  1  0  0  0  0
 20 22  2  0  0  0  0
 20 41  1  0  0  0  0
 21 23  2  0  0  0  0
 21 42  1  0  0  0  0
 22 50  1  0  0  0  0
 23 43  1  0  0  0  0
 24 26  2  0  0  0  0
 24 66  1  0  0  0  0
 25 67  1  0  0  0  0
 26 70  1  0  0  0  0
 27 82  1  0  0  0  0
 28 83  1  0  0  0  0
 29 31  2  0  0  0  0
 29 82  1  0  0  0  0
 30 84  1  0  0  0  0
 31 85  1  0  0  0  0
 32 62  2  0  0  0  0
 33 63  1  0  0  0  0
 33 68  1  0  0  0  0
 34 71  1  0  0  0  0
 34 75  2  0  0  0  0
 35 69  1  0  0  0  0
 35 76  2  0  0  0  0
 36 51  1  0  0  0  0
 36 72  1  0  0  0  0
 36 77  2  0  0  0  0
 37 59  1  0  0  0  0
 37 64  1  0  0  0  0
 37 78  2  0  0  0  0
 38 58  1  0  0  0  0
 38 70  1  0  0  0  0
 38 79  2  0  0  0  0
 39 60  1  0  0  0  0
 39 73  1  0  0  0  0
 39 80  2  0  0  0  0
 40 65  1  0  0  0  0
 40 71  1  0  0  0  0
 40 81  2  0  0  0  0
 41 44  1  0  0  0  0
 42 51  1  0  0  0  0
 43 64  1  0  0  0  0
 44 46  1  0  0  0  0
 45 47  1  0  0  0  0
 45 48  1  0  0  0  0
 46 50  1  0  0  0  0
 47 52  1  0  0  0  0
 48 65  1  0  0  0  0
 49 52  1  0  0  0  0
 49 65  1  0  0  0  0
 50 72  1  0  0  0  0
 51 64  1  0  0  0  0
 52 63  1  0  0  0  0
 53 60  1  0  0  0  0
 54 61  1  0  0  0  0
 55 61  1  0  0  0  0
 56 61  1  0  0  0  0
 57 74  1  0  0  0  0
 58 83  1  0  0  0  0
 59 61  1  0  0  0  0
 59 73  1  0  0  0  0
 60 74  1  0  0  0  0
 62 63  1  0  0  0  0
M  CHG  1  74   1
M  ISO  4  40 100  58 101  71 100  83 101
M  END
> <Batch ID>
0095

> <Smiles>
CNC(C)C(=O)NC(C(=O)N1Cc2cc([101O:1][101CH2:1]C(=O)Nc3cc(N)c(C(=O)[100NH:0][100C:0](=O)N4CCCC(n5nc(-c6ccc(Oc7ccc(F)cc7F)cc6)c(C(N)=O)c5N)C4)cc3N)ccc2CC1C(=O)NC1CCCc2ccccc21)C(C)(C)C

> <Shape>
0.278

> <Color>
0.116

> <Negative vol penalty>
0.000

$$$$

  -OEChem-04052300433D

 88 97  0     1  0  0  0  0  0999 V2000
  -22.4944  -30.7041   22.8199 C   0  0  0  0  0  0  0  0  0  0  0  0
  -22.3186  -29.4251   23.3382 C   0  0  0  0  0  0  0  0  0  0  0  0
  -28.7240  -13.0838   20.6712 C   0  0  0  0  0  0  0  0  0  0  0  0
  -28.1429  -12.2701   18.4718 C   0  0  0  0  0  0  0  0  0  0  0  0
  -23.0389  -30.8706   21.5473 C   0  0  0  0  0  0  0  0  0  0  0  0
  -22.6864  -28.3117   22.5836 C   0  0  0  0  0  0  0  0  0  0  0  0
  -25.0003  -23.0437   24.6813 C   0  0  0  0  0  0  0  0  0  0  0  0
  -30.0749  -13.0550   20.3249 C   0  0  0  0  0  0  0  0  0  0  0  0
  -29.4938  -12.2414   18.1255 C   0  0  0  0  0  0  0  0  0  0  0  0
  -24.4186  -21.8064   24.9540 C   0  0  0  0  0  0  0  0  0  0  0  0
  -33.6526  -13.5388   19.8996 C   0  0  0  0  0  0  0  0  0  0  0  0
  -34.4344  -14.6408   20.2457 C   0  0  0  0  0  0  0  0  0  0  0  0
  -25.0841  -21.0196   22.7729 C   0  0  0  0  0  0  0  0  0  0  0  0
  -21.9009  -17.2557   24.0738 C   0  0  0  0  0  0  0  0  0  0  0  0
  -24.2515  -13.4201   24.9990 C   0  0  0  0  0  0  0  0  0  0  0  0
  -21.9459  -13.0115   24.4041 C   0  0  0  0  0  0  0  0  0  0  0  0
  -33.0182  -16.0668   18.9049 C   0  0  0  0  0  0  0  0  0  0  0  0
  -27.7580  -12.6913   19.7446 C   0  0  0  0  0  0  0  0  0  0  0  0
  -25.4659  -13.7938   19.9414 C   0  0  0  0  0  0  0  0  0  0  0  0
  -23.4225  -29.7590   20.7806 C   0  0  0  0  0  0  0  0  0  0  0  0
  -25.6197  -23.2822   23.4461 C   0  0  0  0  0  0  0  0  0  0  0  0
  -23.2354  -28.4634   21.2989 C   0  0  0  0  0  0  0  0  0  0  0  0
  -25.6751  -22.2599   22.4880 C   0  0  0  0  0  0  0  0  0  0  0  0
  -23.2649  -17.3545   23.7039 C   0  0  0  0  0  0  0  0  0  0  0  0
  -23.0132  -13.8947   24.5667 C   0  0  0  0  0  0  0  0  0  0  0  0
  -24.4226  -12.0623   25.2686 C   0  0  0  0  0  0  0  0  0  0  0  0
  -23.3552  -11.1791   25.1061 C   0  0  0  0  0  0  0  0  0  0  0  0
  -30.4598  -12.6338   19.0521 C   0  0  0  0  0  0  0  0  0  0  0  0
  -24.4579  -20.7950   23.9987 C   0  0  0  0  0  0  0  0  0  0  0  0
  -32.5535  -13.7008   19.0560 C   0  0  0  0  0  0  0  0  0  0  0  0
  -34.1172  -15.9048   19.7484 C   0  0  0  0  0  0  0  0  0  0  0  0
  -22.1169  -11.6537   24.6738 C   0  0  0  0  0  0  0  0  0  0  0  0
  -32.2363  -14.9648   18.5587 C   0  0  0  0  0  0  0  0  0  0  0  0
  -26.3624  -12.7203   20.1018 C   0  0  0  0  0  0  0  0  0  0  0  0
  -24.2729  -13.3208   20.4306 C   0  0  0  0  0  0  0  0  0  0  0  0
  -21.6664  -15.9474   24.4351 C   0  0  0  0  0  0  0  0  0  0  0  0
  -23.8224  -16.1034   23.8504 C   0  0  0  0  0  0  0  0  0  0  0  0
  -25.6915  -15.1015   19.3985 C   0  0  0  0  0  0  0  0  0  0  0  0
  -25.1203  -25.2961   21.0380 C   0  0  0  0  0  0  0  0  0  0  0  0
  -27.8861  -24.0264   19.9151 C   0  0  0  0  0  0  0  0  0  0  0  0
  -30.0697  -21.4038   19.8894 C   0  0  0  0  0  0  0  0  0  0  0  0
  -23.3086   -8.7699   24.4097 C   0  0  0  0  0  0  0  0  0  0  0  0
  -23.9630  -29.9871   19.3911 C   0  0  0  0  0  0  0  0  0  0  0  0
  -26.2660  -24.6137   23.1776 C   0  0  0  0  0  0  0  0  0  0  0  0
  -26.3459  -22.4587   21.1541 C   0  0  0  0  0  0  0  0  0  0  0  0
  -24.6739  -28.7693   18.8065 C   0  0  0  0  0  0  0  0  0  0  0  0
  -21.7984   -9.2816   21.0705 C   0  0  0  0  0  0  0  0  0  0  0  0
  -23.8422  -27.5095   19.0257 C   0  0  0  0  0  0  0  0  0  0  0  0
  -22.7727  -10.2500   20.4023 C   0  0  0  0  0  0  0  0  0  0  0  0
  -22.4946   -8.4002   22.1030 C   0  0  0  0  0  0  0  0  0  0  0  0
  -24.2150  -10.1450   22.4736 C   0  0  0  0  0  0  0  0  0  0  0  0
  -23.6450  -27.2317   20.5209 C   0  0  1  0  0  0  0  0  0  0  0  0
  -26.4192  -24.9143   21.6898 C   0  0  1  0  0  0  0  0  0  0  0  0
  -23.5302  -11.0719   21.4581 C   0  0  1  0  0  0  0  0  0  0  0  0
  -32.2206  -20.6415   18.8453 C   0  0  0  0  0  0  0  0  0  0  0  0
  -26.4074  -23.4230   17.3153 C   0  0  0  0  0  0  0  0  0  0  0  0
  -28.2636  -21.8580   16.7042 C   0  0  0  0  0  0  0  0  0  0  0  0
  -28.7347  -24.2878   17.0152 C   0  0  0  0  0  0  0  0  0  0  0  0
  -23.6288   -9.3530   26.7738 C   0  0  0  0  0  0  0  0  0  0  0  0
  -31.4167  -21.2231   22.5184 C   0  0  0  0  0  0  0  0  0  0  0  0
  -23.9674  -18.5958   23.2379 C   0  0  0  0  0  0  0  0  0  1  0  0
  -28.2443  -22.8517   19.0373 C   0  0  1  0  0  0  0  0  0  0  0  0
  -31.5803  -21.3495   20.0293 C   0  0  2  0  0  0  0  0  0  0  0  0
  -27.8981  -23.1017   17.5423 C   0  0  0  0  0  0  0  0  0  0  0  0
  -25.7880  -11.6464   20.6503 N   0  0  0  0  0  0  0  0  0  0  0  0
  -22.8414  -15.2561   24.2951 N   0  0  0  0  0  0  0  0  0  0  0  0
  -24.5178  -12.0427   20.8388 N   0  0  0  0  0  0  0  0  0  0  0  0
  -26.9577  -23.7799   20.9365 N   0  0  0  0  0  0  0  0  0  0  0  0
  -23.2607   -9.1933   23.0656 N   0  0  0  0  0  0  0  0  0  0  0  0
  -25.6857  -11.6033   25.7053 N   0  0  0  0  0  0  0  0  0  0  0  0
  -23.0487  -13.8778   20.5472 N   0  0  0  0  0  0  0  0  0  0  0  0
  -26.9768  -15.4224   18.9410 N   0  0  0  0  0  0  0  0  0  0  0  0
  -24.8416  -26.6486   21.0887 N   0  0  0  0  0  0  0  0  0  0  0  0
  -29.6544  -22.5717   19.2854 N   0  0  0  0  0  0  0  0  0  0  0  0
  -23.5108   -9.7711   25.3787 N   0  0  0  0  0  0  0  0  0  0  0  0
  -31.9595  -20.6216   21.2732 N   0  3  0  0  0  0  0  0  0  0  0  0
  -24.7842  -15.9655   19.3365 O   0  0  0  0  0  0  0  0  0  0  0  0
  -24.4234  -24.4281   20.5257 O   0  0  0  0  0  0  0  0  0  0  0  0
  -28.4161  -25.1207   19.7069 O   0  0  0  0  0  0  0  0  0  0  0  0
  -29.3322  -20.4990   20.2739 O   0  0  0  0  0  0  0  0  0  0  0  0
  -23.2325   -7.5753   24.7226 O   0  0  0  0  0  0  0  0  0  0  0  0
  -20.5539  -15.3564   24.8544 O   0  0  0  0  0  0  0  0  0  0  0  0
  -25.0613  -15.6777   23.6310 O   0  0  0  0  0  0  0  0  0  0  0  0
  -31.7779  -12.6058   18.7138 O   0  0  0  0  0  0  0  0  0  0  0  0
  -23.8903  -19.5865   24.2620 O   0  0  0  0  0  0  0  0  0  1  0  0
  -34.8672  -16.9633   20.0822 F   0  0  0  0  0  0  0  0  0  0  0  0
  -21.0834  -10.8146   24.5136 F   0  0  0  0  0  0  0  0  0  0  0  0
  -31.1810  -15.1268   17.7488 F   0  0  0  0  0  0  0  0  0  0  0  0
  1  2  1  0  0  0  0
  1  5  2  0  0  0  0
  2  6  2  0  0  0  0
  3  8  2  0  0  0  0
  3 18  1  0  0  0  0
  4  9  1  0  0  0  0
  4 18  2  0  0  0  0
  5 20  1  0  0  0  0
  6 22  1  0  0  0  0
  7 10  2  0  0  0  0
  7 21  1  0  0  0  0
  8 28  1  0  0  0  0
  9 28  2  0  0  0  0
 10 29  1  0  0  0  0
 11 12  2  0  0  0  0
 11 30  1  0  0  0  0
 12 31  1  0  0  0  0
 13 23  1  0  0  0  0
 13 29  2  0  0  0  0
 14 24  1  0  0  0  0
 14 36  2  0  0  0  0
 15 25  1  0  0  0  0
 15 26  2  0  0  0  0
 16 25  2  0  0  0  0
 16 32  1  0  0  0  0
 17 31  2  0  0  0  0
 17 33  1  0  0  0  0
 18 34  1  0  0  0  0
 19 34  1  0  0  0  0
 19 35  2  0  0  0  0
 19 38  1  0  0  0  0
 20 22  2  0  0  0  0
 20 43  1  0  0  0  0
 21 23  2  0  0  0  0
 21 44  1  0  0  0  0
 22 52  1  0  0  0  0
 23 45  1  0  0  0  0
 24 37  2  0  0  0  0
 24 61  1  0  0  0  0
 25 66  1  0  0  0  0
 26 27  1  0  0  0  0
 26 70  1  0  0  0  0
 27 32  2  0  0  0  0
 27 75  1  0  0  0  0
 28 84  1  0  0  0  0
 29 85  1  0  0  0  0
 30 33  2  0  0  0  0
 30 84  1  0  0  0  0
 31 86  1  0  0  0  0
 32 87  1  0  0  0  0
 33 88  1  0  0  0  0
 34 65  2  0  0  0  0
 35 67  1  0  0  0  0
 35 71  1  0  0  0  0
 36 66  1  0  0  0  0
 36 82  1  0  0  0  0
 37 66  1  0  0  0  0
 37 83  1  0  0  0  0
 38 72  1  0  0  0  0
 38 77  2  0  0  0  0
 39 53  1  0  0  0  0
 39 73  1  0  0  0  0
 39 78  2  0  0  0  0
 40 62  1  0  0  0  0
 40 68  1  0  0  0  0
 40 79  2  0  0  0  0
 41 63  1  0  0  0  0
 41 74  1  0  0  0  0
 41 80  2  0  0  0  0
 42 69  1  0  0  0  0
 42 75  1  0  0  0  0
 42 81  2  0  0  0  0
 43 46  1  0  0  0  0
 44 53  1  0  0  0  0
 45 68  1  0  0  0  0
 46 48  1  0  0  0  0
 47 49  1  0  0  0  0
 47 50  1  0  0  0  0
 48 52  1  0  0  0  0
 49 54  1  0  0  0  0
 50 69  1  0  0  0  0
 51 54  1  0  0  0  0
 51 69  1  0  0  0  0
 52 73  1  0  0  0  0
 53 68  1  0  0  0  0
 54 67  1  0  0  0  0
 55 63  1  0  0  0  0
 56 64  1  0  0  0  0
 57 64  1  0  0  0  0
 58 64  1  0  0  0  0
 59 75  1  0  0  0  0
 60 76  1  0  0  0  0
 61 85  1  0  0  0  0
 62 64  1  0  0  0  0
 62 74  1  0  0  0  0
 63 76  1  0  0  0  0
 65 67  1  0  0  0  0
M  CHG  1  76   1
M  ISO  4  42 100  61 101  75 100  85 101
M  END
> <Batch ID>
0095

> <Smiles>
CNC(C)C(=O)NC(C(=O)N1Cc2cc([101O:1][101CH2:1]C3CC(=O)N(c4cc(N)c([100N:0](C)[100C:0](=O)N5CCCC(n6nc(-c7ccc(Oc8ccc(F)cc8F)cc7)c(C(N)=O)c6N)C5)c(F)c4)C3=O)ccc2CC1C(=O)NC1CCCc2ccccc21)C(C)(C)C

> <Shape>
0.193

> <Color>
0.090

> <Negative vol penalty>
0.000

$$$$

  -OEChem-04052300433D

 87 96  0     1  0  0  0  0  0999 V2000
  -27.1490  -23.0609   16.0289 C   0  0  0  0  0  0  0  0  0  0  0  0
  -26.1942  -23.6979   16.8152 C   0  0  0  0  0  0  0  0  0  0  0  0
  -27.4723  -14.2509   18.9681 C   0  0  0  0  0  0  0  0  0  0  0  0
  -25.5250  -15.0953   20.1223 C   0  0  0  0  0  0  0  0  0  0  0  0
  -28.4605  -22.9415   16.4868 C   0  0  0  0  0  0  0  0  0  0  0  0
  -26.5502  -24.2149   18.0603 C   0  0  0  0  0  0  0  0  0  0  0  0
  -24.6818  -28.8562   18.8428 C   0  0  0  0  0  0  0  0  0  0  0  0
  -21.6126  -23.9104   21.4786 C   0  0  0  0  0  0  0  0  0  0  0  0
  -21.0145  -25.0880   19.4556 C   0  0  0  0  0  0  0  0  0  0  0  0
  -22.4382  -23.0621   20.7408 C   0  0  0  0  0  0  0  0  0  0  0  0
  -21.8402  -24.2397   18.7177 C   0  0  0  0  0  0  0  0  0  0  0  0
  -27.2025  -12.9701   19.4498 C   0  0  0  0  0  0  0  0  0  0  0  0
  -25.2551  -13.8144   20.6040 C   0  0  0  0  0  0  0  0  0  0  0  0
  -23.3365  -28.9497   19.1967 C   0  0  0  0  0  0  0  0  0  0  0  0
  -23.8786  -10.9560   19.4397 C   0  0  0  0  0  0  0  0  0  0  0  0
  -22.5604  -10.5048   19.3737 C   0  0  0  0  0  0  0  0  0  0  0  0
  -23.9696  -29.2167   21.5091 C   0  0  0  0  0  0  0  0  0  0  0  0
  -22.5280  -10.2480   21.7758 C   0  0  0  0  0  0  0  0  0  0  0  0
  -26.6336  -15.3136   19.3044 C   0  0  0  0  0  0  0  0  0  0  0  0
  -28.0722  -17.4025   19.0316 C   0  0  0  0  0  0  0  0  0  0  0  0
  -28.8350  -23.4659   17.7340 C   0  0  0  0  0  0  0  0  0  0  0  0
  -25.6824  -28.9315   19.8224 C   0  0  0  0  0  0  0  0  0  0  0  0
  -27.8677  -24.1013   18.5359 C   0  0  0  0  0  0  0  0  0  0  0  0
  -25.3270  -29.1264   21.1647 C   0  0  0  0  0  0  0  0  0  0  0  0
  -20.9007  -24.9233   20.8360 C   0  0  0  0  0  0  0  0  0  0  0  0
  -22.5520  -23.2268   19.3604 C   0  0  0  0  0  0  0  0  0  0  0  0
  -26.0939  -12.7517   20.2677 C   0  0  0  0  0  0  0  0  0  0  0  0
  -22.9801  -29.1271   20.5304 C   0  0  0  0  0  0  0  0  0  0  0  0
  -24.5216  -11.0531   20.6738 C   0  0  0  0  0  0  0  0  0  0  0  0
  -21.8851  -10.1509   20.5417 C   0  0  0  0  0  0  0  0  0  0  0  0
  -23.8463  -10.6991   21.8418 C   0  0  0  0  0  0  0  0  0  0  0  0
  -26.9122  -16.6371   18.8076 C   0  0  0  0  0  0  0  0  0  0  0  0
  -27.8475  -18.5739   18.3505 C   0  0  0  0  0  0  0  0  0  0  0  0
  -19.4073  -25.3675   22.7746 C   0  0  0  0  0  0  0  0  0  0  0  0
  -29.2478  -17.0832   19.7877 C   0  0  0  0  0  0  0  0  0  0  0  0
  -27.9463  -26.9626   20.8724 C   0  0  0  0  0  0  0  0  0  0  0  0
  -28.8404  -29.5476   22.6162 C   0  0  0  0  0  0  0  0  0  0  0  0
  -27.1983  -32.1407   24.5126 C   0  0  0  0  0  0  0  0  0  0  0  0
  -23.1589  -22.0084   17.2536 C   0  0  0  0  0  0  0  0  0  0  0  0
  -30.2537  -23.2709   18.2070 C   0  0  0  0  0  0  0  0  0  0  0  0
  -27.1300  -28.8556   19.4211 C   0  0  0  0  0  0  0  0  0  0  0  0
  -26.3636  -29.2338   22.2520 C   0  0  0  0  0  0  0  0  0  0  0  0
  -18.6196  -26.4637   23.4666 C   0  0  0  0  0  0  0  0  0  0  0  0
  -30.6363  -24.1764   19.3749 C   0  0  0  0  0  0  0  0  0  0  0  0
  -19.4650  -27.7249   23.5459 C   0  0  0  0  0  0  0  0  0  0  0  0
  -24.8780  -19.9893   14.6727 C   0  0  0  0  0  0  0  0  0  0  0  0
  -29.5450  -24.1627   20.4407 C   0  0  0  0  0  0  0  0  0  0  0  0
  -25.6162  -18.9385   15.5000 C   0  0  0  0  0  0  0  0  0  0  0  0
  -23.6085  -20.4695   15.3695 C   0  0  0  0  0  0  0  0  0  0  0  0
  -24.5858  -19.9306   17.5822 C   0  0  0  0  0  0  0  0  0  0  0  0
  -19.7127  -27.1274   21.0722 C   0  0  0  0  0  0  0  0  0  0  0  0
  -28.2209  -24.6969   19.8814 C   0  0  1  0  0  0  0  0  0  0  0  0
  -28.0456  -28.4300   20.5647 C   0  0  1  0  0  0  0  0  0  0  0  0
  -25.8896  -19.4603   16.9203 C   0  0  1  0  0  0  0  0  0  0  0  0
  -19.8531  -28.2416   22.1417 C   0  0  1  0  0  0  0  0  0  0  0  0
  -18.9390  -29.4164   21.7475 C   0  0  0  0  0  0  0  0  0  0  0  0
  -27.9291  -34.4805   25.0499 C   0  0  0  0  0  0  0  0  0  0  0  0
  -29.9170  -28.3109   25.1894 C   0  0  0  0  0  0  0  0  0  0  0  0
  -29.1701  -30.3666   26.4077 C   0  0  0  0  0  0  0  0  0  0  0  0
  -30.8953  -30.5394   24.6142 C   0  0  0  0  0  0  0  0  0  0  0  0
  -24.4188  -21.5823   19.3182 C   0  0  0  0  0  0  0  0  0  0  0  0
  -24.7253  -33.2990   23.3718 C   0  0  0  0  0  0  0  0  0  0  0  0
  -21.3066  -28.7507   22.1777 C   0  0  0  0  0  0  0  0  0  1  0  0
  -28.4893  -30.0902   23.9805 C   0  0  1  0  0  0  0  0  0  0  0  0
  -27.0830  -33.6070   24.1368 C   0  0  2  0  0  0  0  0  0  0  0  0
  -29.5994  -29.8114   25.0328 C   0  0  0  0  0  0  0  0  0  0  0  0
  -26.0169  -17.2691   18.0440 N   0  0  0  0  0  0  0  0  0  0  0  0
  -26.6145  -18.4441   17.7823 N   0  0  0  0  0  0  0  0  0  0  0  0
  -20.0493  -25.7975   21.5963 N   0  0  0  0  0  0  0  0  0  0  0  0
  -27.7653  -29.1474   21.8101 N   0  0  0  0  0  0  0  0  0  0  0  0
  -23.8743  -20.9068   16.7409 N   0  0  0  0  0  0  0  0  0  0  0  0
  -28.5864  -19.6920   18.1883 N   0  0  0  0  0  0  0  0  0  0  0  0
  -29.3145  -15.8364   20.4243 N   0  0  0  0  0  0  0  0  0  0  0  0
  -28.2515  -26.1417   19.8035 N   0  0  0  0  0  0  0  0  0  0  0  0
  -28.1868  -31.5049   23.7916 N   0  0  0  0  0  0  0  0  0  0  0  0
  -23.4058  -22.3497   18.5970 N   0  0  0  0  0  0  0  0  0  0  0  0
  -25.6659  -34.0573   24.2363 N   0  3  0  0  0  0  0  0  0  0  0  0
  -19.3905  -24.2239   23.2280 O   0  0  0  0  0  0  0  0  0  0  0  0
  -30.2036  -17.8865   19.9092 O   0  0  0  0  0  0  0  0  0  0  0  0
  -27.6185  -26.6019   21.9967 O   0  0  0  0  0  0  0  0  0  0  0  0
  -30.0245  -29.4878   22.2755 O   0  0  0  0  0  0  0  0  0  0  0  0
  -26.4855  -31.6132   25.3636 O   0  0  0  0  0  0  0  0  0  0  0  0
  -22.3163  -22.6128   16.5788 O   0  0  0  0  0  0  0  0  0  0  0  0
  -25.8301  -11.5019   20.7377 O   0  0  0  0  0  0  0  0  0  0  0  0
  -21.6678  -29.2180   20.8786 O   0  0  0  0  0  0  0  0  0  1  0  0
  -20.6187   -9.7191   20.4783 F   0  0  0  0  0  0  0  0  0  0  0  0
  -24.4583  -10.7914   23.0304 F   0  0  0  0  0  0  0  0  0  0  0  0
  1  2  1  0  0  0  0
  1  5  2  0  0  0  0
  2  6  2  0  0  0  0
  3 12  2  0  0  0  0
  3 19  1  0  0  0  0
  4 13  1  0  0  0  0
  4 19  2  0  0  0  0
  5 21  1  0  0  0  0
  6 23  1  0  0  0  0
  7 14  2  0  0  0  0
  7 22  1  0  0  0  0
  8 10  2  0  0  0  0
  8 25  1  0  0  0  0
  9 11  1  0  0  0  0
  9 25  2  0  0  0  0
 10 26  1  0  0  0  0
 11 26  2  0  0  0  0
 12 27  1  0  0  0  0
 13 27  2  0  0  0  0
 14 28  1  0  0  0  0
 15 16  2  0  0  0  0
 15 29  1  0  0  0  0
 16 30  1  0  0  0  0
 17 24  1  0  0  0  0
 17 28  2  0  0  0  0
 18 30  2  0  0  0  0
 18 31  1  0  0  0  0
 19 32  1  0  0  0  0
 20 32  1  0  0  0  0
 20 33  2  0  0  0  0
 20 35  1  0  0  0  0
 21 23  2  0  0  0  0
 21 40  1  0  0  0  0
 22 24  2  0  0  0  0
 22 41  1  0  0  0  0
 23 52  1  0  0  0  0
 24 42  1  0  0  0  0
 25 69  1  0  0  0  0
 26 76  1  0  0  0  0
 27 84  1  0  0  0  0
 28 85  1  0  0  0  0
 29 31  2  0  0  0  0
 29 84  1  0  0  0  0
 30 86  1  0  0  0  0
 31 87  1  0  0  0  0
 32 67  2  0  0  0  0
 33 68  1  0  0  0  0
 33 72  1  0  0  0  0
 34 43  1  0  0  0  0
 34 69  1  0  0  0  0
 34 78  2  0  0  0  0
 35 73  1  0  0  0  0
 35 79  2  0  0  0  0
 36 53  1  0  0  0  0
 36 74  1  0  0  0  0
 36 80  2  0  0  0  0
 37 64  1  0  0  0  0
 37 70  1  0  0  0  0
 37 81  2  0  0  0  0
 38 65  1  0  0  0  0
 38 75  1  0  0  0  0
 38 82  2  0  0  0  0
 39 71  1  0  0  0  0
 39 76  1  0  0  0  0
 39 83  2  0  0  0  0
 40 44  1  0  0  0  0
 41 53  1  0  0  0  0
 42 70  1  0  0  0  0
 43 45  1  0  0  0  0
 44 47  1  0  0  0  0
 45 55  1  0  0  0  0
 46 48  1  0  0  0  0
 46 49  1  0  0  0  0
 47 52  1  0  0  0  0
 48 54  1  0  0  0  0
 49 71  1  0  0  0  0
 50 54  1  0  0  0  0
 50 71  1  0  0  0  0
 51 55  1  0  0  0  0
 51 69  1  0  0  0  0
 52 74  1  0  0  0  0
 53 70  1  0  0  0  0
 54 68  1  0  0  0  0
 55 56  1  0  0  0  0
 55 63  1  0  0  0  0
 57 65  1  0  0  0  0
 58 66  1  0  0  0  0
 59 66  1  0  0  0  0
 60 66  1  0  0  0  0
 61 76  1  0  0  0  0
 62 77  1  0  0  0  0
 63 85  1  0  0  0  0
 64 66  1  0  0  0  0
 64 75  1  0  0  0  0
 65 77  1  0  0  0  0
 67 68  1  0  0  0  0
M  CHG  1  77   1
M  ISO  4  39 100  63 101  76 100  85 101
M  END
> <Batch ID>
0095

> <Smiles>
CNC(C)C(=O)NC(C(=O)N1Cc2cc([101O:1][101CH2:1]C3(C)CCC(=O)N(c4ccc([100N:0](C)[100C:0](=O)N5CCCC(n6nc(-c7ccc(Oc8ccc(F)cc8F)cc7)c(C(N)=O)c6N)C5)cc4)C3)ccc2CC1C(=O)NC1CCCc2ccccc21)C(C)(C)C

> <Shape>
0.271

> <Color>
0.075

> <Negative vol penalty>
0.000

$$$$

  -OEChem-04052300433D

 85 93  0     1  0  0  0  0  0999 V2000
  -16.9290  -29.8710   24.1136 C   0  0  0  0  0  0  0  0  0  0  0  0
  -18.0402  -29.7580   24.9429 C   0  0  0  0  0  0  0  0  0  0  0  0
  -23.3512  -14.3838   19.6851 C   0  0  0  0  0  0  0  0  0  0  0  0
  -24.6240  -14.5750   21.7297 C   0  0  0  0  0  0  0  0  0  0  0  0
  -25.1931  -24.1275   25.7148 C   0  0  0  0  0  0  0  0  0  0  0  0
  -16.9542  -29.3128   22.8362 C   0  0  0  0  0  0  0  0  0  0  0  0
  -19.1771  -29.0857   24.4956 C   0  0  0  0  0  0  0  0  0  0  0  0
  -25.0051  -30.4275   25.8144 C   0  0  0  0  0  0  0  0  0  0  0  0
  -24.2380  -23.4859   24.9264 C   0  0  0  0  0  0  0  0  0  0  0  0
  -24.3706  -13.6161   19.1222 C   0  0  0  0  0  0  0  0  0  0  0  0
  -25.6435  -13.8072   21.1668 C   0  0  0  0  0  0  0  0  0  0  0  0
  -25.9018  -29.9010   26.7431 C   0  0  0  0  0  0  0  0  0  0  0  0
  -28.7388  -12.2003   20.1435 C   0  0  0  0  0  0  0  0  0  0  0  0
  -30.0517  -12.6373   20.3188 C   0  0  0  0  0  0  0  0  0  0  0  0
  -25.5905  -22.0662   26.9107 C   0  0  0  0  0  0  0  0  0  0  0  0
  -26.8105  -28.4568   25.0379 C   0  0  0  0  0  0  0  0  0  0  0  0
  -29.5171  -14.7003   19.1807 C   0  0  0  0  0  0  0  0  0  0  0  0
  -23.4779  -14.8634   20.9889 C   0  0  0  0  0  0  0  0  0  0  0  0
  -25.8695  -23.4176   26.7070 C   0  0  0  0  0  0  0  0  0  0  0  0
  -21.3172  -15.1928   22.3043 C   0  0  0  0  0  0  0  0  0  0  0  0
  -18.0954  -28.6417   22.3695 C   0  0  0  0  0  0  0  0  0  0  0  0
  -24.9970  -29.9640   24.4909 C   0  0  0  0  0  0  0  0  0  0  0  0
  -19.2171  -28.5168   23.2113 C   0  0  0  0  0  0  0  0  0  0  0  0
  -25.9144  -28.9808   24.0937 C   0  0  0  0  0  0  0  0  0  0  0  0
  -23.9590  -22.1345   25.1301 C   0  0  0  0  0  0  0  0  0  0  0  0
  -25.5167  -13.3277   19.8630 C   0  0  0  0  0  0  0  0  0  0  0  0
  -26.8028  -28.9135   26.3556 C   0  0  0  0  0  0  0  0  0  0  0  0
  -27.8149  -13.0133   19.4867 C   0  0  0  0  0  0  0  0  0  0  0  0
  -30.4409  -13.8873   19.8374 C   0  0  0  0  0  0  0  0  0  0  0  0
  -24.6353  -21.4246   26.1223 C   0  0  0  0  0  0  0  0  0  0  0  0
  -28.2041  -14.2633   19.0053 C   0  0  0  0  0  0  0  0  0  0  0  0
  -22.4254  -15.6570   21.5707 C   0  0  0  0  0  0  0  0  0  0  0  0
  -20.6214  -16.3308   22.6321 C   0  0  0  0  0  0  0  0  0  0  0  0
  -26.8864  -24.1008   27.5466 C   0  0  0  0  0  0  0  0  0  0  0  0
  -20.9496  -13.8529   22.6579 C   0  0  0  0  0  0  0  0  0  0  0  0
  -22.8676  -28.5003   22.6398 C   0  0  0  0  0  0  0  0  0  0  0  0
  -25.1215  -28.9574   20.3522 C   0  0  0  0  0  0  0  0  0  0  0  0
  -28.4081  -29.4601   19.5826 C   0  0  0  0  0  0  0  0  0  0  0  0
  -27.5698  -26.3017   28.4349 C   0  0  0  0  0  0  0  0  0  0  0  0
  -22.2278  -22.0471   23.3022 C   0  0  0  0  0  0  0  0  0  0  0  0
  -18.0584  -28.0137   20.9988 C   0  0  0  0  0  0  0  0  0  0  0  0
  -24.0414  -30.5612   23.4946 C   0  0  0  0  0  0  0  0  0  0  0  0
  -25.9600  -28.4636   22.6799 C   0  0  0  0  0  0  0  0  0  0  0  0
  -19.4382  -27.6422   20.4616 C   0  0  0  0  0  0  0  0  0  0  0  0
  -19.7626  -20.7756   21.0698 C   0  0  0  0  0  0  0  0  0  0  0  0
  -20.2502  -26.9184   21.5310 C   0  0  0  0  0  0  0  0  0  0  0  0
  -20.0611  -19.2755   21.0164 C   0  0  0  0  0  0  0  0  0  0  0  0
  -21.0419  -21.6053   21.1636 C   0  0  0  0  0  0  0  0  0  0  0  0
  -22.2493  -19.7238   22.1986 C   0  0  0  0  0  0  0  0  0  0  0  0
  -20.4779  -27.8166   22.7529 C   0  0  1  0  0  0  0  0  0  0  0  0
  -23.7751  -29.6489   22.3012 C   0  0  1  0  0  0  0  0  0  0  0  0
  -20.9888  -18.8441   22.1691 C   0  0  2  0  0  0  0  0  0  0  0  0
  -29.9496  -29.7581   17.6250 C   0  0  0  0  0  0  0  0  0  0  0  0
  -27.6056  -28.5004   29.6456 C   0  0  0  0  0  0  0  0  0  0  0  0
  -24.9635  -25.9654   19.7754 C   0  0  0  0  0  0  0  0  0  0  0  0
  -27.1305  -26.1605   18.5367 C   0  0  0  0  0  0  0  0  0  0  0  0
  -25.1246  -27.4127   17.7422 C   0  0  0  0  0  0  0  0  0  0  0  0
  -29.2267  -32.1558   20.4894 C   0  0  0  0  0  0  0  0  0  0  0  0
  -26.3056  -28.1699   19.8455 C   0  0  1  0  0  0  0  0  0  0  0  0
  -29.0857  -30.4589   18.6620 C   0  0  2  0  0  0  0  0  0  0  0  0
  -27.1243  -27.7578   28.4092 C   0  0  1  0  0  0  0  0  0  1  0  0
  -25.8791  -26.9353   19.0021 C   0  0  0  0  0  0  0  0  0  0  0  0
  -22.4371  -16.9862   21.4398 N   0  0  0  0  0  0  0  0  0  0  0  0
  -21.3275  -17.3670   22.0955 N   0  0  0  0  0  0  0  0  0  0  0  0
  -25.0014  -29.0743   21.7442 N   0  0  0  0  0  0  0  0  0  0  0  0
  -21.8687  -21.1427   22.2804 N   0  0  0  0  0  0  0  0  0  0  0  0
  -19.4805  -16.5361   23.3240 N   0  0  0  0  0  0  0  0  0  0  0  0
  -21.7764  -12.8010   22.2406 N   0  0  0  0  0  0  0  0  0  0  0  0
  -22.9877  -21.4859   24.3279 N   0  0  0  0  0  0  0  0  0  0  0  0
  -26.7107  -25.4738   27.7099 N   0  0  0  0  0  0  0  0  0  0  0  0
  -21.5234  -28.7804   22.4839 N   0  0  0  0  0  0  0  0  0  0  0  0
  -27.1511  -29.1192   19.1298 N   0  0  0  0  0  0  0  0  0  0  0  0
  -29.9513  -31.3832   19.4477 N   0  3  0  0  0  0  0  0  0  0  0  0
  -27.8128  -23.4452   28.0156 O   0  0  0  0  0  0  0  0  0  0  0  0
  -19.9097  -13.5946   23.3102 O   0  0  0  0  0  0  0  0  0  0  0  0
  -23.3511  -27.4380   23.0133 O   0  0  0  0  0  0  0  0  0  0  0  0
  -24.3361  -29.4567   19.5425 O   0  0  0  0  0  0  0  0  0  0  0  0
  -28.9421  -29.0230   20.5997 O   0  0  0  0  0  0  0  0  0  0  0  0
  -28.5856  -25.9334   29.0200 O   0  0  0  0  0  0  0  0  0  0  0  0
  -21.8633  -23.2255   23.2833 O   0  0  0  0  0  0  0  0  0  0  0  0
  -26.5116  -12.5784   19.3142 O   0  0  0  0  0  0  0  0  0  0  0  0
  -27.6787  -28.3974   27.2603 O   0  0  0  0  0  0  0  0  0  1  0  0
  -31.7014  -14.3074   20.0072 F   0  0  0  0  0  0  0  0  0  0  0  0
  -24.3750  -20.1254   26.3277 F   0  0  0  0  0  0  0  0  0  0  0  0
  -27.3208  -15.0492   18.3746 F   0  0  0  0  0  0  0  0  0  0  0  0
  1  2  1  0  0  0  0
  1  6  2  0  0  0  0
  2  7  2  0  0  0  0
  3 10  2  0  0  0  0
  3 18  1  0  0  0  0
  4 11  1  0  0  0  0
  4 18  2  0  0  0  0
  5  9  2  0  0  0  0
  5 19  1  0  0  0  0
  6 21  1  0  0  0  0
  7 23  1  0  0  0  0
  8 12  2  0  0  0  0
  8 22  1  0  0  0  0
  9 25  1  0  0  0  0
 10 26  1  0  0  0  0
 11 26  2  0  0  0  0
 12 27  1  0  0  0  0
 13 14  2  0  0  0  0
 13 28  1  0  0  0  0
 14 29  1  0  0  0  0
 15 19  2  0  0  0  0
 15 30  1  0  0  0  0
 16 24  1  0  0  0  0
 16 27  2  0  0  0  0
 17 29  2  0  0  0  0
 17 31  1  0  0  0  0
 18 32  1  0  0  0  0
 19 34  1  0  0  0  0
 20 32  1  0  0  0  0
 20 33  2  0  0  0  0
 20 35  1  0  0  0  0
 21 23  2  0  0  0  0
 21 41  1  0  0  0  0
 22 24  2  0  0  0  0
 22 42  1  0  0  0  0
 23 50  1  0  0  0  0
 24 43  1  0  0  0  0
 25 30  2  0  0  0  0
 25 69  1  0  0  0  0
 26 81  1  0  0  0  0
 27 82  1  0  0  0  0
 28 31  2  0  0  0  0
 28 81  1  0  0  0  0
 29 83  1  0  0  0  0
 30 84  1  0  0  0  0
 31 85  1  0  0  0  0
 32 63  2  0  0  0  0
 33 64  1  0  0  0  0
 33 67  1  0  0  0  0
 34 70  1  0  0  0  0
 34 74  2  0  0  0  0
 35 68  1  0  0  0  0
 35 75  2  0  0  0  0
 36 51  1  0  0  0  0
 36 71  1  0  0  0  0
 36 76  2  0  0  0  0
 37 59  1  0  0  0  0
 37 65  1  0  0  0  0
 37 77  2  0  0  0  0
 38 60  1  0  0  0  0
 38 72  1  0  0  0  0
 38 78  2  0  0  0  0
 39 61  1  0  0  0  0
 39 70  1  0  0  0  0
 39 79  2  0  0  0  0
 40 66  1  0  0  0  0
 40 69  1  0  0  0  0
 40 80  2  0  0  0  0
 41 44  1  0  0  0  0
 42 51  1  0  0  0  0
 43 65  1  0  0  0  0
 44 46  1  0  0  0  0
 45 47  1  0  0  0  0
 45 48  1  0  0  0  0
 46 50  1  0  0  0  0
 47 52  1  0  0  0  0
 48 66  1  0  0  0  0
 49 52  1  0  0  0  0
 49 66  1  0  0  0  0
 50 71  1  0  0  0  0
 51 65  1  0  0  0  0
 52 64  1  0  0  0  0
 53 60  1  0  0  0  0
 54 61  1  0  0  0  0
 55 62  1  0  0  0  0
 56 62  1  0  0  0  0
 57 62  1  0  0  0  0
 58 73  1  0  0  0  0
 59 62  1  0  0  0  0
 59 72  1  0  0  0  0
 60 73  1  0  0  0  0
 61 82  1  0  0  0  0
 63 64  1  0  0  0  0
M  CHG  1  73   1
M  ISO  4  40 100  61 101  69 100  82 101
M  END
> <Batch ID>
0095

> <Smiles>
CNC(C)C(=O)NC(C(=O)N1Cc2cc([101O:1][101CH:1](C)C(=O)NC(=O)c3ccc([100NH:0][100C:0](=O)N4CCCC(n5nc(-c6ccc(Oc7ccc(F)cc7F)cc6)c(C(N)=O)c5N)C4)c(F)c3)ccc2CC1C(=O)NC1CCCc2ccccc21)C(C)(C)C

> <Shape>
0.204

> <Color>
0.074

> <Negative vol penalty>
0.000

$$$$

  -OEChem-04052300433D

 87 96  0     1  0  0  0  0  0999 V2000
  -29.5994  -31.5940   26.0596 C   0  0  0  0  0  0  0  0  0  0  0  0
  -29.2812  -30.4704   25.3035 C   0  0  0  0  0  0  0  0  0  0  0  0
  -23.8017   -9.3729   21.2272 C   0  0  0  0  0  0  0  0  0  0  0  0
  -22.9087  -11.5964   21.5363 C   0  0  0  0  0  0  0  0  0  0  0  0
  -28.5833  -32.4096   26.5558 C   0  0  0  0  0  0  0  0  0  0  0  0
  -27.9464  -30.1612   25.0441 C   0  0  0  0  0  0  0  0  0  0  0  0
  -27.1550  -28.8706   20.2116 C   0  0  0  0  0  0  0  0  0  0  0  0
  -22.9160   -8.8837   22.1873 C   0  0  0  0  0  0  0  0  0  0  0  0
  -22.0229  -11.1072   22.4964 C   0  0  0  0  0  0  0  0  0  0  0  0
  -27.5207  -27.5808   19.8290 C   0  0  0  0  0  0  0  0  0  0  0  0
  -19.6476   -8.0342   22.3582 C   0  0  0  0  0  0  0  0  0  0  0  0
  -18.9648   -6.8530   22.0681 C   0  0  0  0  0  0  0  0  0  0  0  0
  -25.2187  -26.8820   20.0065 C   0  0  0  0  0  0  0  0  0  0  0  0
  -28.7001  -23.2040   17.3434 C   0  0  0  0  0  0  0  0  0  0  0  0
  -27.9597  -19.7655   20.2966 C   0  0  0  0  0  0  0  0  0  0  0  0
  -29.4884  -19.1884   18.5172 C   0  0  0  0  0  0  0  0  0  0  0  0
  -19.9572   -5.8037   24.0050 C   0  0  0  0  0  0  0  0  0  0  0  0
  -23.7981  -10.7293   20.9017 C   0  0  0  0  0  0  0  0  0  0  0  0
  -24.4923  -11.3395   18.5241 C   0  0  0  0  0  0  0  0  0  0  0  0
  -27.2358  -32.1156   26.2942 C   0  0  0  0  0  0  0  0  0  0  0  0
  -25.8178  -29.1736   20.5056 C   0  0  0  0  0  0  0  0  0  0  0  0
  -26.9113  -30.9729   25.5384 C   0  0  0  0  0  0  0  0  0  0  0  0
  -24.8382  -28.1770   20.3902 C   0  0  0  0  0  0  0  0  0  0  0  0
  -28.4708  -23.6644   18.6634 C   0  0  0  0  0  0  0  0  0  0  0  0
  -28.7010  -20.1339   19.1740 C   0  0  0  0  0  0  0  0  0  0  0  0
  -28.0059  -18.4515   20.7626 C   0  0  0  0  0  0  0  0  0  0  0  0
  -28.7934  -17.5060   20.1057 C   0  0  0  0  0  0  0  0  0  0  0  0
  -22.0266   -9.7508   22.8219 C   0  0  0  0  0  0  0  0  0  0  0  0
  -26.5529  -26.5855   19.7291 C   0  0  0  0  0  0  0  0  0  0  0  0
  -20.4854   -8.1002   23.4715 C   0  0  0  0  0  0  0  0  0  0  0  0
  -19.1196   -5.7378   22.8915 C   0  0  0  0  0  0  0  0  0  0  0  0
  -29.5347  -17.8744   18.9830 C   0  0  0  0  0  0  0  0  0  0  0  0
  -20.6401   -6.9850   24.2950 C   0  0  0  0  0  0  0  0  0  0  0  0
  -24.7132  -11.2353   19.9105 C   0  0  0  0  0  0  0  0  0  0  0  0
  -25.6561  -11.8764   18.0303 C   0  0  0  0  0  0  0  0  0  0  0  0
  -28.8103  -21.8321   17.3995 C   0  0  0  0  0  0  0  0  0  0  0  0
  -28.4480  -22.5598   19.4861 C   0  0  0  0  0  0  0  0  0  0  0  0
  -23.3383  -10.9829   17.7516 C   0  0  0  0  0  0  0  0  0  0  0  0
  -24.2618  -30.1824   23.0873 C   0  0  0  0  0  0  0  0  0  0  0  0
  -21.7558  -30.3478   21.0342 C   0  0  0  0  0  0  0  0  0  0  0  0
  -20.3074  -29.2708   18.1378 C   0  0  0  0  0  0  0  0  0  0  0  0
  -29.9281  -15.2831   20.4489 C   0  0  0  0  0  0  0  0  0  0  0  0
  -26.1706  -33.0005   26.8915 C   0  0  0  0  0  0  0  0  0  0  0  0
  -25.4356  -30.5764   20.8912 C   0  0  0  0  0  0  0  0  0  0  0  0
  -23.3858  -28.4558   20.6752 C   0  0  0  0  0  0  0  0  0  0  0  0
  -24.7954  -32.8120   26.2562 C   0  0  0  0  0  0  0  0  0  0  0  0
  -30.3556  -12.0932   18.9261 C   0  0  0  0  0  0  0  0  0  0  0  0
  -24.4668  -31.3282   26.1249 C   0  0  0  0  0  0  0  0  0  0  0  0
  -28.9363  -11.5232   18.8740 C   0  0  0  0  0  0  0  0  0  0  0  0
  -30.5954  -12.9025   20.1994 C   0  0  0  0  0  0  0  0  0  0  0  0
  -28.1892  -13.3885   20.4069 C   0  0  0  0  0  0  0  0  0  0  0  0
  -25.4762  -30.6181   25.2147 C   0  0  1  0  0  0  0  0  0  0  0  0
  -24.1227  -30.6467   21.6650 C   0  0  1  0  0  0  0  0  0  0  0  0
  -27.8795  -12.6197   19.1120 C   0  0  2  0  0  0  0  0  0  0  0  0
  -18.2411  -29.5582   16.7432 C   0  0  0  0  0  0  0  0  0  0  0  0
  -20.1892  -28.6231   23.0042 C   0  0  0  0  0  0  0  0  0  0  0  0
  -18.5382  -28.1613   21.1796 C   0  0  0  0  0  0  0  0  0  0  0  0
  -18.8806  -30.4963   21.9879 C   0  0  0  0  0  0  0  0  0  0  0  0
  -21.8643  -30.2752   15.8299 C   0  0  0  0  0  0  0  0  0  0  0  0
  -28.2884  -25.0935   19.0826 C   0  0  0  0  0  0  0  0  0  1  0  0
  -20.6743  -29.3937   20.5882 C   0  0  1  0  0  0  0  0  0  0  0  0
  -19.6659  -30.0291   16.9898 C   0  0  2  0  0  0  0  0  0  0  0  0
  -19.5982  -29.1626   21.6864 C   0  0  0  0  0  0  0  0  0  0  0  0
  -25.9224  -11.6709   20.2741 N   0  0  0  0  0  0  0  0  0  0  0  0
  -28.6557  -21.4517   18.7070 N   0  0  0  0  0  0  0  0  0  0  0  0
  -26.4717  -12.0539   19.1090 N   0  0  0  0  0  0  0  0  0  0  0  0
  -23.0630  -29.8413   21.0546 N   0  0  0  0  0  0  0  0  0  0  0  0
  -29.5584  -13.9246   20.3566 N   0  0  0  0  0  0  0  0  0  0  0  0
  -27.2471  -18.1004   21.9018 N   0  0  0  0  0  0  0  0  0  0  0  0
  -26.0512  -12.2092   16.7831 N   0  0  0  0  0  0  0  0  0  0  0  0
  -22.2290  -10.4440   18.4175 N   0  0  0  0  0  0  0  0  0  0  0  0
  -28.8550  -16.1663   20.5631 N   0  0  0  0  0  0  0  0  0  0  0  0
  -25.1866  -30.8970   23.8245 N   0  0  0  0  0  0  0  0  0  0  0  0
  -20.1468  -29.9299   19.3382 N   0  0  0  0  0  0  0  0  0  0  0  0
  -20.4492  -29.8325   15.7373 N   0  3  0  0  0  0  0  0  0  0  0  0
  -23.2983  -11.1223   16.5056 O   0  0  0  0  0  0  0  0  0  0  0  0
  -23.5793  -29.2462   23.4867 O   0  0  0  0  0  0  0  0  0  0  0  0
  -21.4529  -31.5023   21.3458 O   0  0  0  0  0  0  0  0  0  0  0  0
  -20.8893  -28.1990   17.9855 O   0  0  0  0  0  0  0  0  0  0  0  0
  -31.1083  -15.6392   20.4008 O   0  0  0  0  0  0  0  0  0  0  0  0
  -29.0254  -20.9457   16.4348 O   0  0  0  0  0  0  0  0  0  0  0  0
  -28.2700  -22.4627   20.7988 O   0  0  0  0  0  0  0  0  0  0  0  0
  -21.1620   -9.2738   23.7586 O   0  0  0  0  0  0  0  0  0  0  0  0
  -26.9072  -25.3256   19.3565 O   0  0  0  0  0  0  0  0  0  1  0  0
  -18.4626   -4.6040   22.6138 F   0  0  0  0  0  0  0  0  0  0  0  0
  -30.2955  -16.9747   18.3431 F   0  0  0  0  0  0  0  0  0  0  0  0
  -21.4426   -7.0427   25.3667 F   0  0  0  0  0  0  0  0  0  0  0  0
  1  2  1  0  0  0  0
  1  5  2  0  0  0  0
  2  6  2  0  0  0  0
  3  8  2  0  0  0  0
  3 18  1  0  0  0  0
  4  9  1  0  0  0  0
  4 18  2  0  0  0  0
  5 20  1  0  0  0  0
  6 22  1  0  0  0  0
  7 10  2  0  0  0  0
  7 21  1  0  0  0  0
  8 28  1  0  0  0  0
  9 28  2  0  0  0  0
 10 29  1  0  0  0  0
 11 12  2  0  0  0  0
 11 30  1  0  0  0  0
 12 31  1  0  0  0  0
 13 23  1  0  0  0  0
 13 29  2  0  0  0  0
 14 24  1  0  0  0  0
 14 36  2  0  0  0  0
 15 25  1  0  0  0  0
 15 26  2  0  0  0  0
 16 25  2  0  0  0  0
 16 32  1  0  0  0  0
 17 31  2  0  0  0  0
 17 33  1  0  0  0  0
 18 34  1  0  0  0  0
 19 34  1  0  0  0  0
 19 35  2  0  0  0  0
 19 38  1  0  0  0  0
 20 22  2  0  0  0  0
 20 43  1  0  0  0  0
 21 23  2  0  0  0  0
 21 44  1  0  0  0  0
 22 52  1  0  0  0  0
 23 45  1  0  0  0  0
 24 37  2  0  0  0  0
 24 60  1  0  0  0  0
 25 65  1  0  0  0  0
 26 27  1  0  0  0  0
 26 69  1  0  0  0  0
 27 32  2  0  0  0  0
 27 72  1  0  0  0  0
 28 83  1  0  0  0  0
 29 84  1  0  0  0  0
 30 33  2  0  0  0  0
 30 83  1  0  0  0  0
 31 85  1  0  0  0  0
 32 86  1  0  0  0  0
 33 87  1  0  0  0  0
 34 64  2  0  0  0  0
 35 66  1  0  0  0  0
 35 70  1  0  0  0  0
 36 65  1  0  0  0  0
 36 81  1  0  0  0  0
 37 65  1  0  0  0  0
 37 82  1  0  0  0  0
 38 71  1  0  0  0  0
 38 76  2  0  0  0  0
 39 53  1  0  0  0  0
 39 73  1  0  0  0  0
 39 77  2  0  0  0  0
 40 61  1  0  0  0  0
 40 67  1  0  0  0  0
 40 78  2  0  0  0  0
 41 62  1  0  0  0  0
 41 74  1  0  0  0  0
 41 79  2  0  0  0  0
 42 68  1  0  0  0  0
 42 72  1  0  0  0  0
 42 80  2  0  0  0  0
 43 46  1  0  0  0  0
 44 53  1  0  0  0  0
 45 67  1  0  0  0  0
 46 48  1  0  0  0  0
 47 49  1  0  0  0  0
 47 50  1  0  0  0  0
 48 52  1  0  0  0  0
 49 54  1  0  0  0  0
 50 68  1  0  0  0  0
 51 54  1  0  0  0  0
 51 68  1  0  0  0  0
 52 73  1  0  0  0  0
 53 67  1  0  0  0  0
 54 66  1  0  0  0  0
 55 62  1  0  0  0  0
 56 63  1  0  0  0  0
 57 63  1  0  0  0  0
 58 63  1  0  0  0  0
 59 75  1  0  0  0  0
 60 84  1  0  0  0  0
 61 63  1  0  0  0  0
 61 74  1  0  0  0  0
 62 75  1  0  0  0  0
 64 66  1  0  0  0  0
M  CHG  1  75   1
M  ISO  4  42 100  60 101  72 100  84 101
M  END
> <Batch ID>
0095

> <Smiles>
CNC(C)C(=O)NC(C(=O)N1Cc2cc([101O:1][101CH2:1]C3CC(=O)N(c4cc(N)c([100NH:0][100C:0](=O)N5CCCC(n6nc(-c7ccc(Oc8ccc(F)cc8F)cc7)c(C(N)=O)c6N)C5)c(F)c4)C3=O)ccc2CC1C(=O)NC1CCCc2ccccc21)C(C)(C)C

> <Shape>
0.329

> <Color>
0.082

> <Negative vol penalty>
0.000

$$$$

  -OEChem-04052300433D

 82 90  0     1  0  0  0  0  0999 V2000
  -14.0773  -24.8873   20.8634 C   0  0  0  0  0  0  0  0  0  0  0  0
  -14.8312  -24.4179   21.9342 C   0  0  0  0  0  0  0  0  0  0  0  0
  -23.0719   -9.8737   19.9414 C   0  0  0  0  0  0  0  0  0  0  0  0
  -23.8394   -9.8745   22.2322 C   0  0  0  0  0  0  0  0  0  0  0  0
  -14.7012  -25.1958   19.6553 C   0  0  0  0  0  0  0  0  0  0  0  0
  -16.2094  -24.2557   21.7973 C   0  0  0  0  0  0  0  0  0  0  0  0
  -22.2837  -24.6875   25.5698 C   0  0  0  0  0  0  0  0  0  0  0  0
  -22.3288   -8.7200   20.1907 C   0  0  0  0  0  0  0  0  0  0  0  0
  -23.0962   -8.7208   22.4816 C   0  0  0  0  0  0  0  0  0  0  0  0
  -23.4185  -23.9368   25.8737 C   0  0  0  0  0  0  0  0  0  0  0  0
  -19.8700   -7.9216   23.0926 C   0  0  0  0  0  0  0  0  0  0  0  0
  -19.1169   -7.8786   24.2659 C   0  0  0  0  0  0  0  0  0  0  0  0
  -24.3994  -24.5769   23.7648 C   0  0  0  0  0  0  0  0  0  0  0  0
  -28.7716  -18.6790   24.5112 C   0  0  0  0  0  0  0  0  0  0  0  0
  -20.3606   -5.9391   24.9931 C   0  0  0  0  0  0  0  0  0  0  0  0
  -23.8273  -10.4510   20.9621 C   0  0  0  0  0  0  0  0  0  0  0  0
  -24.1689  -12.9765   20.8477 C   0  0  0  0  0  0  0  0  0  0  0  0
  -16.0891  -25.0465   19.5065 C   0  0  0  0  0  0  0  0  0  0  0  0
  -22.1936  -25.3810   24.3543 C   0  0  0  0  0  0  0  0  0  0  0  0
  -16.8522  -24.5613   20.5856 C   0  0  0  0  0  0  0  0  0  0  0  0
  -23.2635  -25.3378   23.4490 C   0  0  0  0  0  0  0  0  0  0  0  0
  -29.6185  -17.6247   24.0623 C   0  0  0  0  0  0  0  0  0  0  0  0
  -22.3409   -8.1435   21.4608 C   0  0  0  0  0  0  0  0  0  0  0  0
  -24.4754  -23.8791   24.9699 C   0  0  0  0  0  0  0  0  0  0  0  0
  -20.8684   -6.9733   22.8695 C   0  0  0  0  0  0  0  0  0  0  0  0
  -19.3622   -6.8874   25.2161 C   0  0  0  0  0  0  0  0  0  0  0  0
  -21.1136   -5.9821   23.8197 C   0  0  0  0  0  0  0  0  0  0  0  0
  -24.5956  -11.6425   20.7050 C   0  0  0  0  0  0  0  0  0  0  0  0
  -29.9603  -17.7651   22.7353 C   0  0  0  0  0  0  0  0  0  0  0  0
  -25.2599  -13.7268   20.4828 C   0  0  0  0  0  0  0  0  0  0  0  0
  -28.4987  -19.5852   23.5101 C   0  0  0  0  0  0  0  0  0  0  0  0
  -22.8999  -13.4912   21.2722 C   0  0  0  0  0  0  0  0  0  0  0  0
  -20.2617  -25.2474   21.8336 C   0  0  0  0  0  0  0  0  0  0  0  0
  -21.9386  -27.8623   20.8995 C   0  0  0  0  0  0  0  0  0  0  0  0
  -27.0060  -21.3036   24.5840 C   0  0  0  0  0  0  0  0  0  0  0  0
  -24.8212  -29.6785   21.0974 C   0  0  0  0  0  0  0  0  0  0  0  0
  -30.7444  -14.7450   20.6558 C   0  0  0  0  0  0  0  0  0  0  0  0
  -16.7121  -25.3481   18.1665 C   0  0  0  0  0  0  0  0  0  0  0  0
  -20.9738  -26.2080   24.0531 C   0  0  0  0  0  0  0  0  0  0  0  0
  -23.2246  -26.0807   22.1394 C   0  0  0  0  0  0  0  0  0  0  0  0
  -18.2297  -25.5041   18.2216 C   0  0  0  0  0  0  0  0  0  0  0  0
  -29.5987  -12.3669   18.2665 C   0  0  0  0  0  0  0  0  0  0  0  0
  -18.8533  -24.3739   19.0344 C   0  0  0  0  0  0  0  0  0  0  0  0
  -28.1627  -12.0722   18.7033 C   0  0  0  0  0  0  0  0  0  0  0  0
  -30.5198  -12.5845   19.4649 C   0  0  0  0  0  0  0  0  0  0  0  0
  -28.6227  -13.3120   20.8597 C   0  0  0  0  0  0  0  0  0  0  0  0
  -18.3530  -24.3956   20.4838 C   0  0  1  0  0  0  0  0  0  0  0  0
  -20.7747  -26.4578   22.5614 C   0  0  1  0  0  0  0  0  0  0  0  0
  -27.6446  -13.1406   19.6848 C   0  0  2  0  0  0  0  0  0  0  0  0
  -30.0718  -16.5125   24.9310 C   0  0  0  0  0  0  0  0  0  0  0  0
  -25.9115  -31.7485   20.1899 C   0  0  0  0  0  0  0  0  0  0  0  0
  -22.4805  -26.4195   18.2661 C   0  0  0  0  0  0  0  0  0  0  0  0
  -24.3043  -28.0744   17.8151 C   0  0  0  0  0  0  0  0  0  0  0  0
  -21.9436  -28.8509   18.0322 C   0  0  0  0  0  0  0  0  0  0  0  0
  -25.0370  -30.8858   23.7909 C   0  0  0  0  0  0  0  0  0  0  0  0
  -30.8145  -16.8922   21.8982 C   0  0  0  0  0  0  0  0  0  0  0  0
  -26.2967  -22.5782   24.1659 C   0  0  0  0  0  0  0  0  0  1  0  0
  -23.1948  -28.0958   20.0954 C   0  0  1  0  0  0  0  0  0  0  0  0
  -25.0646  -31.1619   21.3086 C   0  0  2  0  0  0  0  0  0  0  0  0
  -22.9810  -27.8445   18.5759 C   0  0  0  0  0  0  0  0  0  0  0  0
  -25.8591  -11.5477   20.2823 N   0  0  0  0  0  0  0  0  0  0  0  0
  -26.2357  -12.8316   20.1562 N   0  0  0  0  0  0  0  0  0  0  0  0
  -22.0077  -26.8703   21.8878 N   0  0  0  0  0  0  0  0  0  0  0  0
  -29.9722  -13.6107   20.3554 N   0  0  0  0  0  0  0  0  0  0  0  0
  -25.4702  -15.0585   20.4127 N   0  0  0  0  0  0  0  0  0  0  0  0
  -21.8890  -12.5812   21.6104 N   0  0  0  0  0  0  0  0  0  0  0  0
  -27.7146  -20.7632   23.5163 N   0  0  0  0  0  0  0  0  0  0  0  0
  -19.0291  -25.4304   21.2364 N   0  0  0  0  0  0  0  0  0  0  0  0
  -23.6427  -29.4456   20.4206 N   0  0  0  0  0  0  0  0  0  0  0  0
  -30.1481  -15.6716   21.5023 N   0  0  0  0  0  0  0  0  0  0  0  0
  -25.7690  -31.3924   22.6015 N   0  3  0  0  0  0  0  0  0  0  0  0
  -22.6639  -14.7217   21.3336 O   0  0  0  0  0  0  0  0  0  0  0  0
  -20.9351  -24.2238   21.8140 O   0  0  0  0  0  0  0  0  0  0  0  0
  -20.9353  -28.5403   20.6643 O   0  0  0  0  0  0  0  0  0  0  0  0
  -26.9215  -20.8665   25.7270 O   0  0  0  0  0  0  0  0  0  0  0  0
  -25.6006  -28.8131   21.4901 O   0  0  0  0  0  0  0  0  0  0  0  0
  -31.8788  -14.9216   20.1989 O   0  0  0  0  0  0  0  0  0  0  0  0
  -21.6157   -7.0178   21.7045 O   0  0  0  0  0  0  0  0  0  0  0  0
  -25.5840  -23.1465   25.2638 O   0  0  0  0  0  0  0  0  0  1  0  0
  -18.6400   -6.8471   26.3435 F   0  0  0  0  0  0  0  0  0  0  0  0
  -22.0722   -5.0691   23.6115 F   0  0  0  0  0  0  0  0  0  0  0  0
  -29.2616  -19.1635   22.0362 S   0  0  0  0  0  0  0  0  0  0  0  0
  1  2  1  0  0  0  0
  1  5  2  0  0  0  0
  2  6  2  0  0  0  0
  3  8  2  0  0  0  0
  3 16  1  0  0  0  0
  4  9  1  0  0  0  0
  4 16  2  0  0  0  0
  5 18  1  0  0  0  0
  6 20  1  0  0  0  0
  7 10  2  0  0  0  0
  7 19  1  0  0  0  0
  8 23  1  0  0  0  0
  9 23  2  0  0  0  0
 10 24  1  0  0  0  0
 11 12  2  0  0  0  0
 11 25  1  0  0  0  0
 12 26  1  0  0  0  0
 13 21  1  0  0  0  0
 13 24  2  0  0  0  0
 14 22  1  0  0  0  0
 14 31  2  0  0  0  0
 15 26  2  0  0  0  0
 15 27  1  0  0  0  0
 16 28  1  0  0  0  0
 17 28  1  0  0  0  0
 17 30  2  0  0  0  0
 17 32  1  0  0  0  0
 18 20  2  0  0  0  0
 18 38  1  0  0  0  0
 19 21  2  0  0  0  0
 19 39  1  0  0  0  0
 20 47  1  0  0  0  0
 21 40  1  0  0  0  0
 22 29  2  0  0  0  0
 22 50  1  0  0  0  0
 23 78  1  0  0  0  0
 24 79  1  0  0  0  0
 25 27  2  0  0  0  0
 25 78  1  0  0  0  0
 26 80  1  0  0  0  0
 27 81  1  0  0  0  0
 28 61  2  0  0  0  0
 29 56  1  0  0  0  0
 29 82  1  0  0  0  0
 30 62  1  0  0  0  0
 30 65  1  0  0  0  0
 31 67  1  0  0  0  0
 31 82  1  0  0  0  0
 32 66  1  0  0  0  0
 32 72  2  0  0  0  0
 33 48  1  0  0  0  0
 33 68  1  0  0  0  0
 33 73  2  0  0  0  0
 34 58  1  0  0  0  0
 34 63  1  0  0  0  0
 34 74  2  0  0  0  0
 35 57  1  0  0  0  0
 35 67  1  0  0  0  0
 35 75  2  0  0  0  0
 36 59  1  0  0  0  0
 36 69  1  0  0  0  0
 36 76  2  0  0  0  0
 37 64  1  0  0  0  0
 37 70  1  0  0  0  0
 37 77  2  0  0  0  0
 38 41  1  0  0  0  0
 39 48  1  0  0  0  0
 40 63  1  0  0  0  0
 41 43  1  0  0  0  0
 42 44  1  0  0  0  0
 42 45  1  0  0  0  0
 43 47  1  0  0  0  0
 44 49  1  0  0  0  0
 45 64  1  0  0  0  0
 46 49  1  0  0  0  0
 46 64  1  0  0  0  0
 47 68  1  0  0  0  0
 48 63  1  0  0  0  0
 49 62  1  0  0  0  0
 51 59  1  0  0  0  0
 52 60  1  0  0  0  0
 53 60  1  0  0  0  0
 54 60  1  0  0  0  0
 55 71  1  0  0  0  0
 56 70  1  0  0  0  0
 57 79  1  0  0  0  0
 58 60  1  0  0  0  0
 58 69  1  0  0  0  0
 59 71  1  0  0  0  0
 61 62  1  0  0  0  0
M  CHG  1  71   1
M  ISO  4  37 100  57 101  70 100  79 101
M  END
> <Batch ID>
0095

> <Smiles>
CNC(C)C(=O)NC(C(=O)N1Cc2cc([101O:1][101CH2:1]C(=O)Nc3cc(C)c(C[100NH:0][100C:0](=O)N4CCCC(n5nc(-c6ccc(Oc7ccc(F)cc7F)cc6)c(C(N)=O)c5N)C4)s3)ccc2CC1C(=O)NC1CCCc2ccccc21)C(C)(C)C

> <Shape>
0.261

> <Color>
0.191

> <Negative vol penalty>
0.000

$$$$

  -OEChem-04052300433D

 84 92  0     1  0  0  0  0  0999 V2000
  -26.6490  -21.8848   16.2821 C   0  0  0  0  0  0  0  0  0  0  0  0
  -27.1221  -20.7015   16.8377 C   0  0  0  0  0  0  0  0  0  0  0  0
  -22.9393  -29.8215   22.2238 C   0  0  0  0  0  0  0  0  0  0  0  0
  -23.8407  -28.5951   24.1001 C   0  0  0  0  0  0  0  0  0  0  0  0
  -29.4096  -21.3390   23.7453 C   0  0  0  0  0  0  0  0  0  0  0  0
  -25.4205  -22.3998   16.6905 C   0  0  0  0  0  0  0  0  0  0  0  0
  -26.3615  -20.0265   17.7931 C   0  0  0  0  0  0  0  0  0  0  0  0
  -27.9831  -15.6084   19.2266 C   0  0  0  0  0  0  0  0  0  0  0  0
  -29.1661  -22.5344   23.0692 C   0  0  0  0  0  0  0  0  0  0  0  0
  -21.7050  -29.9008   22.8687 C   0  0  0  0  0  0  0  0  0  0  0  0
  -22.6064  -28.6745   24.7450 C   0  0  0  0  0  0  0  0  0  0  0  0
  -29.1071  -15.4440   20.0349 C   0  0  0  0  0  0  0  0  0  0  0  0
  -19.0430  -27.8889   23.4076 C   0  0  0  0  0  0  0  0  0  0  0  0
  -17.9007  -27.6172   22.6547 C   0  0  0  0  0  0  0  0  0  0  0  0
  -27.6753  -15.0139   21.9281 C   0  0  0  0  0  0  0  0  0  0  0  0
  -29.0611  -21.3299   20.9775 C   0  0  0  0  0  0  0  0  0  0  0  0
  -17.0710  -29.8399   23.1112 C   0  0  0  0  0  0  0  0  0  0  0  0
  -24.0072  -29.1686   22.8395 C   0  0  0  0  0  0  0  0  0  0  0  0
  -29.4790  -20.1390   23.0376 C   0  0  0  0  0  0  0  0  0  0  0  0
  -26.3478  -30.0018   22.2607 C   0  0  0  0  0  0  0  0  0  0  0  0
  -24.6509  -21.7367   17.6606 C   0  0  0  0  0  0  0  0  0  0  0  0
  -26.6945  -15.4875   19.7663 C   0  0  0  0  0  0  0  0  0  0  0  0
  -25.1081  -20.5176   18.2009 C   0  0  0  0  0  0  0  0  0  0  0  0
  -26.5366  -15.1748   21.1240 C   0  0  0  0  0  0  0  0  0  0  0  0
  -28.9918  -22.5299   21.6852 C   0  0  0  0  0  0  0  0  0  0  0  0
  -21.5385  -29.3273   24.1292 C   0  0  0  0  0  0  0  0  0  0  0  0
  -28.9533  -15.1495   21.3865 C   0  0  0  0  0  0  0  0  0  0  0  0
  -19.1993  -29.1362   24.0124 C   0  0  0  0  0  0  0  0  0  0  0  0
  -16.9147  -28.5926   22.5065 C   0  0  0  0  0  0  0  0  0  0  0  0
  -29.3047  -20.1345   21.6537 C   0  0  0  0  0  0  0  0  0  0  0  0
  -18.2133  -30.1116   23.8641 C   0  0  0  0  0  0  0  0  0  0  0  0
  -25.2823  -29.0859   22.1737 C   0  0  0  0  0  0  0  0  0  0  0  0
  -27.3216  -29.4738   21.4488 C   0  0  0  0  0  0  0  0  0  0  0  0
  -29.7375  -18.8752   23.7563 C   0  0  0  0  0  0  0  0  0  0  0  0
  -26.4482  -31.2209   23.0087 C   0  0  0  0  0  0  0  0  0  0  0  0
  -24.2054  -17.4379   20.0886 C   0  0  0  0  0  0  0  0  0  0  0  0
  -22.7355  -14.7522   21.1604 C   0  0  0  0  0  0  0  0  0  0  0  0
  -23.0246  -11.6542   22.5625 C   0  0  0  0  0  0  0  0  0  0  0  0
  -28.5484  -23.9161   19.6290 C   0  0  0  0  0  0  0  0  0  0  0  0
  -23.3250  -22.3345   18.0602 C   0  0  0  0  0  0  0  0  0  0  0  0
  -25.4925  -15.6414   18.8753 C   0  0  0  0  0  0  0  0  0  0  0  0
  -25.1751  -15.0144   21.7478 C   0  0  0  0  0  0  0  0  0  0  0  0
  -22.8039  -21.7918   19.3870 C   0  0  0  0  0  0  0  0  0  0  0  0
  -27.8755  -26.7345   17.5599 C   0  0  0  0  0  0  0  0  0  0  0  0
  -22.8637  -20.2716   19.3861 C   0  0  0  0  0  0  0  0  0  0  0  0
  -27.2367  -27.7430   18.5175 C   0  0  0  0  0  0  0  0  0  0  0  0
  -27.4535  -25.3018   17.8808 C   0  0  0  0  0  0  0  0  0  0  0  0
  -27.0248  -25.8986   20.2322 C   0  0  0  0  0  0  0  0  0  0  0  0
  -24.3123  -19.7821   19.2640 C   0  0  1  0  0  0  0  0  0  0  0  0
  -24.2236  -16.0037   19.6410 C   0  0  1  0  0  0  0  0  0  0  0  0
  -27.4714  -27.3495   19.9891 C   0  0  2  0  0  0  0  0  0  0  0  0
  -21.6445   -9.7134   23.3536 C   0  0  0  0  0  0  0  0  0  0  0  0
  -21.9658  -16.3220   23.6611 C   0  0  0  0  0  0  0  0  0  0  0  0
  -21.4526  -14.1446   24.7853 C   0  0  0  0  0  0  0  0  0  0  0  0
  -20.1634  -14.8375   22.7653 C   0  0  0  0  0  0  0  0  0  0  0  0
  -24.2906   -9.8133   20.6216 C   0  0  0  0  0  0  0  0  0  0  0  0
  -31.9923  -16.0558   23.0959 C   0  0  0  0  0  0  0  0  0  0  0  0
  -31.1883  -16.9019   24.0690 C   0  0  0  0  0  0  0  0  0  0  0  0
  -31.2181  -15.7273   21.8257 C   0  0  0  0  0  0  0  0  0  1  0  0
  -22.5653  -14.0915   22.5071 C   0  0  1  0  0  0  0  0  0  0  0  0
  -22.4109  -10.3175   22.1872 C   0  0  2  0  0  0  0  0  0  0  0  0
  -21.5626  -14.8538   23.4187 C   0  0  0  0  0  0  0  0  0  0  0  0
  -25.5535  -28.0543   21.3698 N   0  0  0  0  0  0  0  0  0  0  0  0
  -26.8004  -28.3189   20.9442 N   0  0  0  0  0  0  0  0  0  0  0  0
  -24.0306  -15.1807   20.8367 N   0  0  0  0  0  0  0  0  0  0  0  0
  -27.7092  -24.9987   19.2906 N   0  0  0  0  0  0  0  0  0  0  0  0
  -28.5644  -29.8895   21.1243 N   0  0  0  0  0  0  0  0  0  0  0  0
  -28.8713  -18.4991   24.6972 N   0  0  0  0  0  0  0  0  0  0  0  0
  -25.3551  -31.6165   23.7915 N   0  0  0  0  0  0  0  0  0  0  0  0
  -28.7442  -23.7446   20.9989 N   0  0  0  0  0  0  0  0  0  0  0  0
  -24.3110  -18.3508   19.0566 N   0  0  0  0  0  0  0  0  0  0  0  0
  -22.1945  -12.7064   22.2383 N   0  0  0  0  0  0  0  0  0  0  0  0
  -30.8283  -18.1688   23.4318 N   0  3  0  0  0  0  0  0  0  0  0  0
  -23.4734   -9.3571   21.7753 N   0  3  0  0  0  0  0  0  0  0  0  0
  -27.4707  -31.9465   22.9708 O   0  0  0  0  0  0  0  0  0  0  0  0
  -24.1016  -17.6971   21.2818 O   0  0  0  0  0  0  0  0  0  0  0  0
  -21.7568  -14.8768   20.4200 O   0  0  0  0  0  0  0  0  0  0  0  0
  -24.1283  -11.7548   23.0939 O   0  0  0  0  0  0  0  0  0  0  0  0
  -29.0777  -23.2110   18.7661 O   0  0  0  0  0  0  0  0  0  0  0  0
  -20.3343  -29.4047   24.7588 O   0  0  0  0  0  0  0  0  0  0  0  0
  -30.0487  -14.9891   22.1778 O   0  0  0  0  0  0  0  0  0  1  0  0
  -15.8185  -28.3320   21.7822 F   0  0  0  0  0  0  0  0  0  0  0  0
  -29.3715  -18.9866   20.9647 F   0  0  0  0  0  0  0  0  0  0  0  0
  -18.3585  -31.3121   24.4417 F   0  0  0  0  0  0  0  0  0  0  0  0
  1  2  1  0  0  0  0
  1  6  2  0  0  0  0
  2  7  2  0  0  0  0
  3 10  2  0  0  0  0
  3 18  1  0  0  0  0
  4 11  1  0  0  0  0
  4 18  2  0  0  0  0
  5  9  2  0  0  0  0
  5 19  1  0  0  0  0
  6 21  1  0  0  0  0
  7 23  1  0  0  0  0
  8 12  2  0  0  0  0
  8 22  1  0  0  0  0
  9 25  1  0  0  0  0
 10 26  1  0  0  0  0
 11 26  2  0  0  0  0
 12 27  1  0  0  0  0
 13 14  2  0  0  0  0
 13 28  1  0  0  0  0
 14 29  1  0  0  0  0
 15 24  1  0  0  0  0
 15 27  2  0  0  0  0
 16 25  2  0  0  0  0
 16 30  1  0  0  0  0
 17 29  2  0  0  0  0
 17 31  1  0  0  0  0
 18 32  1  0  0  0  0
 19 30  2  0  0  0  0
 19 34  1  0  0  0  0
 20 32  1  0  0  0  0
 20 33  2  0  0  0  0
 20 35  1  0  0  0  0
 21 23  2  0  0  0  0
 21 40  1  0  0  0  0
 22 24  2  0  0  0  0
 22 41  1  0  0  0  0
 23 49  1  0  0  0  0
 24 42  1  0  0  0  0
 25 70  1  0  0  0  0
 26 80  1  0  0  0  0
 27 81  1  0  0  0  0
 28 31  2  0  0  0  0
 28 80  1  0  0  0  0
 29 82  1  0  0  0  0
 30 83  1  0  0  0  0
 31 84  1  0  0  0  0
 32 63  2  0  0  0  0
 33 64  1  0  0  0  0
 33 67  1  0  0  0  0
 34 68  1  0  0  0  0
 34 73  2  0  0  0  0
 35 69  1  0  0  0  0
 35 75  2  0  0  0  0
 36 50  1  0  0  0  0
 36 71  1  0  0  0  0
 36 76  2  0  0  0  0
 37 60  1  0  0  0  0
 37 65  1  0  0  0  0
 37 77  2  0  0  0  0
 38 61  1  0  0  0  0
 38 72  1  0  0  0  0
 38 78  2  0  0  0  0
 39 66  1  0  0  0  0
 39 70  1  0  0  0  0
 39 79  2  0  0  0  0
 40 43  1  0  0  0  0
 41 50  1  0  0  0  0
 42 65  1  0  0  0  0
 43 45  1  0  0  0  0
 44 46  1  0  0  0  0
 44 47  1  0  0  0  0
 45 49  1  0  0  0  0
 46 51  1  0  0  0  0
 47 66  1  0  0  0  0
 48 51  1  0  0  0  0
 48 66  1  0  0  0  0
 49 71  1  0  0  0  0
 50 65  1  0  0  0  0
 51 64  1  0  0  0  0
 52 61  1  0  0  0  0
 53 62  1  0  0  0  0
 54 62  1  0  0  0  0
 55 62  1  0  0  0  0
 56 74  1  0  0  0  0
 57 58  1  0  0  0  0
 57 59  1  0  0  0  0
 58 73  1  0  0  0  0
 59 81  1  0  0  0  0
 60 62  1  0  0  0  0
 60 72  1  0  0  0  0
 61 74  1  0  0  0  0
 63 64  1  0  0  0  0
M  CHG  2  73   1  74   1
M  ISO  4  39 100  59 101  70 100  81 101
M  END
> <Batch ID>
0095

> <Smiles>
CNC(C)C(=O)NC(C(=O)N1Cc2cc([101O:1][101CH2:1]CCN=C(N)c3ccc([100NH:0][100C:0](=O)N4CCCC(n5nc(-c6ccc(Oc7ccc(F)cc7F)cc6)c(C(N)=O)c5N)C4)cc3F)ccc2CC1C(=O)NC1CCCc2ccccc21)C(C)(C)C

> <Shape>
0.241

> <Color>
0.060

> <Negative vol penalty>
0.000

$$$$

  -OEChem-04052300433D

 87 96  0     1  0  0  0  0  0999 V2000
  -19.9077  -22.9222   27.9756 C   0  0  0  0  0  0  0  0  0  0  0  0
  -21.2219  -22.4882   27.8349 C   0  0  0  0  0  0  0  0  0  0  0  0
  -22.7024  -10.2933   20.1587 C   0  0  0  0  0  0  0  0  0  0  0  0
  -24.3400   -9.4054   21.6972 C   0  0  0  0  0  0  0  0  0  0  0  0
  -19.5299  -24.1696   27.4805 C   0  0  0  0  0  0  0  0  0  0  0  0
  -22.1590  -23.3010   27.1980 C   0  0  0  0  0  0  0  0  0  0  0  0
  -28.1132  -23.8036   28.5396 C   0  0  0  0  0  0  0  0  0  0  0  0
  -32.0450  -18.6694   21.7630 C   0  0  0  0  0  0  0  0  0  0  0  0
  -31.7715  -17.3261   21.5056 C   0  0  0  0  0  0  0  0  0  0  0  0
  -21.9493   -9.1263   20.2868 C   0  0  0  0  0  0  0  0  0  0  0  0
  -23.5869   -8.2384   21.8253 C   0  0  0  0  0  0  0  0  0  0  0  0
  -29.2529  -23.2288   27.9787 C   0  0  0  0  0  0  0  0  0  0  0  0
  -20.8220   -7.2300   23.4865 C   0  0  0  0  0  0  0  0  0  0  0  0
  -20.6284   -6.7233   24.7715 C   0  0  0  0  0  0  0  0  0  0  0  0
  -29.5767  -25.2020   26.6294 C   0  0  0  0  0  0  0  0  0  0  0  0
  -30.8069  -18.5250   23.8327 C   0  0  0  0  0  0  0  0  0  0  0  0
  -21.7199   -4.6671   24.1251 C   0  0  0  0  0  0  0  0  0  0  0  0
  -23.8979  -10.4329   20.8638 C   0  0  0  0  0  0  0  0  0  0  0  0
  -24.2711  -12.9503   21.0398 C   0  0  0  0  0  0  0  0  0  0  0  0
  -20.4651  -25.0022   26.8458 C   0  0  0  0  0  0  0  0  0  0  0  0
  -27.6899  -25.0796   28.1409 C   0  0  0  0  0  0  0  0  0  0  0  0
  -21.7931  -24.5602   26.6927 C   0  0  0  0  0  0  0  0  0  0  0  0
  -28.4328  -25.7918   27.1886 C   0  0  0  0  0  0  0  0  0  0  0  0
  -31.5628  -19.2689   22.9266 C   0  0  0  0  0  0  0  0  0  0  0  0
  -31.0156  -16.5822   22.4117 C   0  0  0  0  0  0  0  0  0  0  0  0
  -22.3915   -8.0989   21.1201 C   0  0  0  0  0  0  0  0  0  0  0  0
  -29.9832  -23.9268   27.0213 C   0  0  0  0  0  0  0  0  0  0  0  0
  -21.4645   -6.4553   22.5207 C   0  0  0  0  0  0  0  0  0  0  0  0
  -21.0774   -5.4419   25.0909 C   0  0  0  0  0  0  0  0  0  0  0  0
  -30.5333  -17.1817   23.5753 C   0  0  0  0  0  0  0  0  0  0  0  0
  -21.9135   -5.1738   22.8400 C   0  0  0  0  0  0  0  0  0  0  0  0
  -24.6766  -11.6379   20.7315 C   0  0  0  0  0  0  0  0  0  0  0  0
  -25.3642  -13.7265   20.7412 C   0  0  0  0  0  0  0  0  0  0  0  0
  -32.5851  -21.5191   22.3764 C   0  0  0  0  0  0  0  0  0  0  0  0
  -30.2973  -12.9738   22.9308 C   0  0  0  0  0  0  0  0  0  0  0  0
  -30.5587  -14.2629   23.1582 C   0  0  0  0  0  0  0  0  0  0  0  0
  -23.0184  -13.4252   21.5506 C   0  0  0  0  0  0  0  0  0  0  0  0
  -25.0820  -26.2434   26.7451 C   0  0  0  0  0  0  0  0  0  0  0  0
  -26.5102  -29.0948   27.3382 C   0  0  0  0  0  0  0  0  0  0  0  0
  -29.3939  -30.8264   27.9147 C   0  0  0  0  0  0  0  0  0  0  0  0
  -30.7912  -14.7256   20.8008 C   0  0  0  0  0  0  0  0  0  0  0  0
  -19.9987  -26.3223   26.2848 C   0  0  0  0  0  0  0  0  0  0  0  0
  -26.4735  -25.6967   28.7751 C   0  0  0  0  0  0  0  0  0  0  0  0
  -28.0319  -27.1730   26.7412 C   0  0  0  0  0  0  0  0  0  0  0  0
  -32.5250  -22.8882   23.0145 C   0  0  0  0  0  0  0  0  0  0  0  0
  -21.1398  -27.2813   25.9554 C   0  0  0  0  0  0  0  0  0  0  0  0
  -29.6280  -12.6159   18.2740 C   0  0  0  0  0  0  0  0  0  0  0  0
  -22.2421  -26.5564   25.1897 C   0  0  0  0  0  0  0  0  0  0  0  0
  -28.2039  -12.2704   18.7082 C   0  0  0  0  0  0  0  0  0  0  0  0
  -30.5732  -12.6424   19.4696 C   0  0  0  0  0  0  0  0  0  0  0  0
  -31.2984  -21.3340   24.3441 C   0  0  0  0  0  0  0  0  0  0  0  0
  -28.7235  -13.2448   20.9991 C   0  0  0  0  0  0  0  0  0  0  0  0
  -22.8443  -25.4237   26.0298 C   0  0  1  0  0  0  0  0  0  0  0  0
  -25.8435  -26.7910   27.9190 C   0  0  1  0  0  0  0  0  0  0  0  0
  -32.1446  -22.5928   24.4583 C   0  0  2  0  0  0  0  0  0  0  0  0
  -27.7234  -13.2125   19.8260 C   0  0  2  0  0  0  0  0  0  0  0  0
  -30.2478  -33.1502   28.3248 C   0  0  0  0  0  0  0  0  0  0  0  0
  -26.1663  -29.7414   24.3762 C   0  0  0  0  0  0  0  0  0  0  0  0
  -27.8385  -31.5836   24.6557 C   0  0  0  0  0  0  0  0  0  0  0  0
  -25.6905  -31.6486   25.9224 C   0  0  0  0  0  0  0  0  0  0  0  0
  -30.4671  -30.0879   30.5721 C   0  0  0  0  0  0  0  0  0  0  0  0
  -31.4172  -23.7428   25.1330 C   0  0  0  0  0  0  0  0  0  1  0  0
  -27.4731  -29.9845   26.5896 C   0  0  1  0  0  0  0  0  0  0  0  0
  -29.7544  -31.8618   28.9646 C   0  0  2  0  0  0  0  0  0  0  0  0
  -26.7988  -30.7127   25.3928 C   0  0  0  0  0  0  0  0  0  0  0  0
  -25.9294  -11.5799   20.2721 N   0  0  0  0  0  0  0  0  0  0  0  0
  -26.3206  -12.8655   20.2894 N   0  0  0  0  0  0  0  0  0  0  0  0
  -31.8420  -20.6433   23.1898 N   0  0  0  0  0  0  0  0  0  0  0  0
  -26.8317  -27.7309   27.3860 N   0  0  0  0  0  0  0  0  0  0  0  0
  -30.0796  -13.5445   20.5108 N   0  0  0  0  0  0  0  0  0  0  0  0
  -25.5909  -15.0548   20.8236 N   0  0  0  0  0  0  0  0  0  0  0  0
  -22.8501  -13.5045   22.9397 N   0  0  0  0  0  0  0  0  0  0  0  0
  -23.7577  -25.9575   27.0173 N   0  0  0  0  0  0  0  0  0  0  0  0
  -28.0569  -30.8803   27.5821 N   0  0  0  0  0  0  0  0  0  0  0  0
  -30.7327  -15.1877   22.1414 N   0  0  0  0  0  0  0  0  0  0  0  0
  -30.8263  -31.3408   29.8593 N   0  3  0  0  0  0  0  0  0  0  0  0
  -33.1506  -21.3161   21.3117 O   0  0  0  0  0  0  0  0  0  0  0  0
  -22.0704  -13.7536   20.7976 O   0  0  0  0  0  0  0  0  0  0  0  0
  -25.6532  -26.0928   25.6714 O   0  0  0  0  0  0  0  0  0  0  0  0
  -25.5134  -29.5928   27.8674 O   0  0  0  0  0  0  0  0  0  0  0  0
  -30.2170  -30.0501   27.4346 O   0  0  0  0  0  0  0  0  0  0  0  0
  -31.4501  -15.3177   19.9362 O   0  0  0  0  0  0  0  0  0  0  0  0
  -21.6567   -6.9601   21.2456 O   0  0  0  0  0  0  0  0  0  0  0  0
  -31.0956  -23.3678   26.4718 O   0  0  0  0  0  0  0  0  0  1  0  0
  -20.8928   -4.9560   26.3254 F   0  0  0  0  0  0  0  0  0  0  0  0
  -29.8045  -16.4768   24.4526 F   0  0  0  0  0  0  0  0  0  0  0  0
  -22.5324   -4.4253   21.9168 F   0  0  0  0  0  0  0  0  0  0  0  0
  1  2  1  0  0  0  0
  1  5  2  0  0  0  0
  2  6  2  0  0  0  0
  3 10  2  0  0  0  0
  3 18  1  0  0  0  0
  4 11  1  0  0  0  0
  4 18  2  0  0  0  0
  5 20  1  0  0  0  0
  6 22  1  0  0  0  0
  7 12  2  0  0  0  0
  7 21  1  0  0  0  0
  8  9  2  0  0  0  0
  8 24  1  0  0  0  0
  9 25  1  0  0  0  0
 10 26  1  0  0  0  0
 11 26  2  0  0  0  0
 12 27  1  0  0  0  0
 13 14  2  0  0  0  0
 13 28  1  0  0  0  0
 14 29  1  0  0  0  0
 15 23  1  0  0  0  0
 15 27  2  0  0  0  0
 16 24  2  0  0  0  0
 16 30  1  0  0  0  0
 17 29  2  0  0  0  0
 17 31  1  0  0  0  0
 18 32  1  0  0  0  0
 19 32  1  0  0  0  0
 19 33  2  0  0  0  0
 19 37  1  0  0  0  0
 20 22  2  0  0  0  0
 20 42  1  0  0  0  0
 21 23  2  0  0  0  0
 21 43  1  0  0  0  0
 22 53  1  0  0  0  0
 23 44  1  0  0  0  0
 24 68  1  0  0  0  0
 25 30  2  0  0  0  0
 25 75  1  0  0  0  0
 26 83  1  0  0  0  0
 27 84  1  0  0  0  0
 28 31  2  0  0  0  0
 28 83  1  0  0  0  0
 29 85  1  0  0  0  0
 30 86  1  0  0  0  0
 31 87  1  0  0  0  0
 32 66  2  0  0  0  0
 33 67  1  0  0  0  0
 33 71  1  0  0  0  0
 34 45  1  0  0  0  0
 34 68  1  0  0  0  0
 34 77  2  0  0  0  0
 35 36  2  0  0  0  0
 36 75  1  0  0  0  0
 37 72  1  0  0  0  0
 37 78  2  0  0  0  0
 38 54  1  0  0  0  0
 38 73  1  0  0  0  0
 38 79  2  0  0  0  0
 39 63  1  0  0  0  0
 39 69  1  0  0  0  0
 39 80  2  0  0  0  0
 40 64  1  0  0  0  0
 40 74  1  0  0  0  0
 40 81  2  0  0  0  0
 41 70  1  0  0  0  0
 41 75  1  0  0  0  0
 41 82  2  0  0  0  0
 42 46  1  0  0  0  0
 43 54  1  0  0  0  0
 44 69  1  0  0  0  0
 45 55  1  0  0  0  0
 46 48  1  0  0  0  0
 47 49  1  0  0  0  0
 47 50  1  0  0  0  0
 48 53  1  0  0  0  0
 49 56  1  0  0  0  0
 50 70  1  0  0  0  0
 51 55  1  0  0  0  0
 51 68  1  0  0  0  0
 52 56  1  0  0  0  0
 52 70  1  0  0  0  0
 53 73  1  0  0  0  0
 54 69  1  0  0  0  0
 55 62  1  0  0  0  0
 56 67  1  0  0  0  0
 57 64  1  0  0  0  0
 58 65  1  0  0  0  0
 59 65  1  0  0  0  0
 60 65  1  0  0  0  0
 61 76  1  0  0  0  0
 62 84  1  0  0  0  0
 63 65  1  0  0  0  0
 63 74  1  0  0  0  0
 64 76  1  0  0  0  0
 66 67  1  0  0  0  0
M  CHG  1  76   1
M  ISO  4  41 100  62 101  75 100  84 101
M  END
> <Batch ID>
0095

> <Smiles>
C=C[100N:0](c1ccc(N2CC([101CH2:1][101O:1]c3ccc4c(c3)CN(C(=O)C(NC(=O)C(C)NC)C(C)(C)C)C(C(=O)NC3CCCc5ccccc53)C4)CC2=O)cc1F)[100C:0](=O)N1CCCC(n2nc(-c3ccc(Oc4ccc(F)cc4F)cc3)c(C(N)=O)c2N)C1

> <Shape>
0.222

> <Color>
0.189

> <Negative vol penalty>
0.000

$$$$

  -OEChem-04052300433D

 84 92  0     1  0  0  0  0  0999 V2000
  -21.2827  -12.9052   19.9353 C   0  0  0  0  0  0  0  0  0  0  0  0
  -21.4415  -14.2330   20.3188 C   0  0  0  0  0  0  0  0  0  0  0  0
  -27.3492  -24.8073   18.6797 C   0  0  0  0  0  0  0  0  0  0  0  0
  -28.9402  -26.5307   18.1001 C   0  0  0  0  0  0  0  0  0  0  0  0
  -22.3632  -12.0267   20.0052 C   0  0  0  0  0  0  0  0  0  0  0  0
  -22.6805  -14.6829   20.7736 C   0  0  0  0  0  0  0  0  0  0  0  0
  -23.9872  -19.1418   18.7597 C   0  0  0  0  0  0  0  0  0  0  0  0
  -27.7323  -24.0756   17.5557 C   0  0  0  0  0  0  0  0  0  0  0  0
  -29.3233  -25.7989   16.9761 C   0  0  0  0  0  0  0  0  0  0  0  0
  -23.3861  -20.2815   19.2921 C   0  0  0  0  0  0  0  0  0  0  0  0
  -28.1427  -25.2147   13.8623 C   0  0  0  0  0  0  0  0  0  0  0  0
  -28.2822  -25.9033   12.6574 C   0  0  0  0  0  0  0  0  0  0  0  0
  -18.9129  -26.1107   22.5182 C   0  0  0  0  0  0  0  0  0  0  0  0
  -21.3106  -25.8272   22.6029 C   0  0  0  0  0  0  0  0  0  0  0  0
  -25.3683  -20.7092   20.5987 C   0  0  0  0  0  0  0  0  0  0  0  0
  -30.6043  -25.2450   12.5501 C   0  0  0  0  0  0  0  0  0  0  0  0
  -27.9531  -26.0349   18.9519 C   0  0  0  0  0  0  0  0  0  0  0  0
  -20.1950  -26.6599   22.5151 C   0  0  0  0  0  0  0  0  0  0  0  0
  -28.1099  -26.7165   21.4052 C   0  0  0  0  0  0  0  0  0  0  0  0
  -23.6186  -12.4684   20.4519 C   0  0  0  0  0  0  0  0  0  0  0  0
  -25.2814  -18.7706   19.1517 C   0  0  0  0  0  0  0  0  0  0  0  0
  -23.7784  -13.8091   20.8508 C   0  0  0  0  0  0  0  0  0  0  0  0
  -25.9845  -19.5658   20.0678 C   0  0  0  0  0  0  0  0  0  0  0  0
  -18.7462  -24.7288   22.6090 C   0  0  0  0  0  0  0  0  0  0  0  0
  -19.8618  -23.8961   22.6968 C   0  0  0  0  0  0  0  0  0  0  0  0
  -28.7194  -24.5713   16.7039 C   0  0  0  0  0  0  0  0  0  0  0  0
  -24.0755  -21.0639   20.2139 C   0  0  0  0  0  0  0  0  0  0  0  0
  -29.2340  -24.5413   14.4112 C   0  0  0  0  0  0  0  0  0  0  0  0
  -21.1440  -24.4453   22.6937 C   0  0  0  0  0  0  0  0  0  0  0  0
  -29.5130  -25.9184   12.0012 C   0  0  0  0  0  0  0  0  0  0  0  0
  -30.4648  -24.5564   13.7551 C   0  0  0  0  0  0  0  0  0  0  0  0
  -27.5574  -26.7915   20.1125 C   0  0  0  0  0  0  0  0  0  0  0  0
  -27.3911  -27.6281   22.1392 C   0  0  0  0  0  0  0  0  0  0  0  0
  -20.3736  -28.1317   22.4209 C   0  0  0  0  0  0  0  0  0  0  0  0
  -29.1774  -25.8962   21.8983 C   0  0  0  0  0  0  0  0  0  0  0  0
  -26.5452  -16.2467   20.6133 C   0  0  0  0  0  0  0  0  0  0  0  0
  -29.3423  -17.7398   19.9287 C   0  0  0  0  0  0  0  0  0  0  0  0
  -30.9759  -20.6538   19.2309 C   0  0  0  0  0  0  0  0  0  0  0  0
  -21.9199  -29.8954   21.6322 C   0  0  0  0  0  0  0  0  0  0  0  0
  -24.7447  -11.4704   20.5548 C   0  0  0  0  0  0  0  0  0  0  0  0
  -25.9259  -17.5530   18.5479 C   0  0  0  0  0  0  0  0  0  0  0  0
  -27.3839  -19.2218   20.5061 C   0  0  0  0  0  0  0  0  0  0  0  0
  -26.1207  -12.1169   20.6931 C   0  0  0  0  0  0  0  0  0  0  0  0
  -24.9453  -31.7237   21.6672 C   0  0  0  0  0  0  0  0  0  0  0  0
  -26.0857  -13.2286   21.7369 C   0  0  0  0  0  0  0  0  0  0  0  0
  -26.0138  -30.6586   21.4059 C   0  0  0  0  0  0  0  0  0  0  0  0
  -23.6758  -31.4645   20.8573 C   0  0  0  0  0  0  0  0  0  0  0  0
  -24.1770  -29.0577   20.7371 C   0  0  0  0  0  0  0  0  0  0  0  0
  -25.1132  -14.3408   21.3260 C   0  0  1  0  0  0  0  0  0  0  0  0
  -27.0516  -16.9850   19.4067 C   0  0  1  0  0  0  0  0  0  0  0  0
  -25.4487  -29.2350   21.5825 C   0  0  1  0  0  0  0  0  0  0  0  0
  -32.8764  -22.1618   18.5898 C   0  0  0  0  0  0  0  0  0  0  0  0
  -30.0431  -17.5139   22.8897 C   0  0  0  0  0  0  0  0  0  0  0  0
  -31.8288  -19.2308   22.5266 C   0  0  0  0  0  0  0  0  0  0  0  0
  -31.9408  -17.0449   21.3299 C   0  0  0  0  0  0  0  0  0  0  0  0
  -30.3886  -20.3595   16.3452 C   0  0  0  0  0  0  0  0  0  0  0  0
  -24.2547  -22.9317   21.6751 C   0  0  0  0  0  0  0  0  0  1  0  0
  -23.4338  -24.1187   22.1405 C   0  0  0  0  0  0  0  0  0  0  0  0
  -30.2131  -18.7533   20.6312 C   0  0  1  0  0  0  0  0  0  0  0  0
  -31.9840  -21.0103   18.1535 C   0  0  2  0  0  0  0  0  0  0  0  0
  -30.9794  -18.1414   21.8378 C   0  0  0  0  0  0  0  0  0  0  0  0
  -26.5641  -27.6804   20.0271 N   0  0  0  0  0  0  0  0  0  0  0  0
  -26.4868  -28.1723   21.2753 N   0  0  0  0  0  0  0  0  0  0  0  0
  -27.9687  -18.0182   19.8921 N   0  0  0  0  0  0  0  0  0  0  0  0
  -23.1996  -30.0993   21.0872 N   0  0  0  0  0  0  0  0  0  0  0  0
  -17.4382  -24.1943   22.6100 N   0  0  0  0  0  0  0  0  0  0  0  0
  -19.7009  -22.4936   22.7900 N   0  0  0  0  0  0  0  0  0  0  0  0
  -27.4507  -28.0092   23.4329 N   0  0  0  0  0  0  0  0  0  0  0  0
  -29.8077  -25.0145   21.0097 N   0  0  0  0  0  0  0  0  0  0  0  0
  -21.5749  -28.5574   21.8534 N   0  0  0  0  0  0  0  0  0  0  0  0
  -25.7106  -15.1865   20.3149 N   0  0  0  0  0  0  0  0  0  0  0  0
  -31.0757  -19.3307   19.6061 N   0  0  0  0  0  0  0  0  0  0  0  0
  -31.2834  -21.4078   16.8996 N   0  3  0  0  0  0  0  0  0  0  0  0
  -19.4675  -28.8694   22.7984 O   0  0  0  0  0  0  0  0  0  0  0  0
  -29.5501  -25.9319   23.0955 O   0  0  0  0  0  0  0  0  0  0  0  0
  -26.8874  -16.6109   21.7322 O   0  0  0  0  0  0  0  0  0  0  0  0
  -29.8627  -16.7415   19.4245 O   0  0  0  0  0  0  0  0  0  0  0  0
  -30.1819  -21.4685   19.6961 O   0  0  0  0  0  0  0  0  0  0  0  0
  -21.1644  -30.8253   21.9319 O   0  0  0  0  0  0  0  0  0  0  0  0
  -29.0937  -23.8574   15.6072 O   0  0  0  0  0  0  0  0  0  0  0  0
  -23.4909  -22.1765   20.7356 O   0  0  0  0  0  0  0  0  0  1  0  0
  -22.2536  -23.6460   22.7784 O   0  0  0  0  0  0  0  0  0  0  0  0
  -29.6465  -26.5784   10.8433 F   0  0  0  0  0  0  0  0  0  0  0  0
  -31.5165  -23.9103   14.2769 F   0  0  0  0  0  0  0  0  0  0  0  0
  1  2  1  0  0  0  0
  1  5  2  0  0  0  0
  2  6  2  0  0  0  0
  3  8  2  0  0  0  0
  3 17  1  0  0  0  0
  4  9  1  0  0  0  0
  4 17  2  0  0  0  0
  5 20  1  0  0  0  0
  6 22  1  0  0  0  0
  7 10  2  0  0  0  0
  7 21  1  0  0  0  0
  8 26  1  0  0  0  0
  9 26  2  0  0  0  0
 10 27  1  0  0  0  0
 11 12  2  0  0  0  0
 11 28  1  0  0  0  0
 12 30  1  0  0  0  0
 13 18  1  0  0  0  0
 13 24  2  0  0  0  0
 14 18  2  0  0  0  0
 14 29  1  0  0  0  0
 15 23  1  0  0  0  0
 15 27  2  0  0  0  0
 16 30  2  0  0  0  0
 16 31  1  0  0  0  0
 17 32  1  0  0  0  0
 18 34  1  0  0  0  0
 19 32  1  0  0  0  0
 19 33  2  0  0  0  0
 19 35  1  0  0  0  0
 20 22  2  0  0  0  0
 20 40  1  0  0  0  0
 21 23  2  0  0  0  0
 21 41  1  0  0  0  0
 22 49  1  0  0  0  0
 23 42  1  0  0  0  0
 24 25  1  0  0  0  0
 24 66  1  0  0  0  0
 25 29  2  0  0  0  0
 25 67  1  0  0  0  0
 26 80  1  0  0  0  0
 27 81  1  0  0  0  0
 28 31  2  0  0  0  0
 28 80  1  0  0  0  0
 29 82  1  0  0  0  0
 30 83  1  0  0  0  0
 31 84  1  0  0  0  0
 32 62  2  0  0  0  0
 33 63  1  0  0  0  0
 33 68  1  0  0  0  0
 34 70  1  0  0  0  0
 34 74  2  0  0  0  0
 35 69  1  0  0  0  0
 35 75  2  0  0  0  0
 36 50  1  0  0  0  0
 36 71  1  0  0  0  0
 36 76  2  0  0  0  0
 37 59  1  0  0  0  0
 37 64  1  0  0  0  0
 37 77  2  0  0  0  0
 38 60  1  0  0  0  0
 38 72  1  0  0  0  0
 38 78  2  0  0  0  0
 39 65  1  0  0  0  0
 39 70  1  0  0  0  0
 39 79  2  0  0  0  0
 40 43  1  0  0  0  0
 41 50  1  0  0  0  0
 42 64  1  0  0  0  0
 43 45  1  0  0  0  0
 44 46  1  0  0  0  0
 44 47  1  0  0  0  0
 45 49  1  0  0  0  0
 46 51  1  0  0  0  0
 47 65  1  0  0  0  0
 48 51  1  0  0  0  0
 48 65  1  0  0  0  0
 49 71  1  0  0  0  0
 50 64  1  0  0  0  0
 51 63  1  0  0  0  0
 52 60  1  0  0  0  0
 53 61  1  0  0  0  0
 54 61  1  0  0  0  0
 55 61  1  0  0  0  0
 56 73  1  0  0  0  0
 57 58  1  0  0  0  0
 57 81  1  0  0  0  0
 58 82  1  0  0  0  0
 59 61  1  0  0  0  0
 59 72  1  0  0  0  0
 60 73  1  0  0  0  0
 62 63  1  0  0  0  0
M  CHG  1  73   1
M  ISO  4  39 100  57 101  70 100  81 101
M  END
> <Batch ID>
0095

> <Smiles>
CNC(C)C(=O)NC(C(=O)N1Cc2cc([101O:1][101CH2:1]COc3cc(C(=O)[100NH:0][100C:0](=O)N4CCCC(n5nc(-c6ccc(Oc7ccc(F)cc7F)cc6)c(C(N)=O)c5N)C4)cc(N)c3N)ccc2CC1C(=O)NC1CCCc2ccccc21)C(C)(C)C

> <Shape>
0.220

> <Color>
0.061

> <Negative vol penalty>
0.000

$$$$

  -OEChem-04052300433D

 86 94  0     1  0  0  0  0  0999 V2000
  -19.0835  -33.7396   20.5960 C   0  0  0  0  0  0  0  0  0  0  0  0
  -20.4311  -33.4587   20.3948 C   0  0  0  0  0  0  0  0  0  0  0  0
  -23.2405  -14.3751   20.2071 C   0  0  0  0  0  0  0  0  0  0  0  0
  -25.3321  -13.2423   20.6301 C   0  0  0  0  0  0  0  0  0  0  0  0
  -18.3743  -33.0706   21.5927 C   0  0  0  0  0  0  0  0  0  0  0  0
  -21.0706  -32.5093   21.1911 C   0  0  0  0  0  0  0  0  0  0  0  0
  -25.5183  -28.6629   19.4796 C   0  0  0  0  0  0  0  0  0  0  0  0
  -22.6420  -13.1541   19.8963 C   0  0  0  0  0  0  0  0  0  0  0  0
  -24.7336  -12.0212   20.3194 C   0  0  0  0  0  0  0  0  0  0  0  0
  -26.9043  -28.7081   19.6235 C   0  0  0  0  0  0  0  0  0  0  0  0
  -23.6629   -8.5627   19.9870 C   0  0  0  0  0  0  0  0  0  0  0  0
  -23.9160   -7.4820   20.8317 C   0  0  0  0  0  0  0  0  0  0  0  0
  -26.7371  -27.3441   21.6061 C   0  0  0  0  0  0  0  0  0  0  0  0
  -30.2005  -22.0431   23.3664 C   0  0  0  0  0  0  0  0  0  0  0  0
  -31.0691  -23.3889   21.5578 C   0  0  0  0  0  0  0  0  0  0  0  0
  -22.9554   -8.7032   22.6819 C   0  0  0  0  0  0  0  0  0  0  0  0
  -24.5855  -14.4192   20.5739 C   0  0  0  0  0  0  0  0  0  0  0  0
  -25.2805  -16.2927   22.1597 C   0  0  0  0  0  0  0  0  0  0  0  0
  -19.0031  -32.1055   22.3951 C   0  0  0  0  0  0  0  0  0  0  0  0
  -24.7290  -27.9658   20.4056 C   0  0  0  0  0  0  0  0  0  0  0  0
  -20.3695  -31.8277   22.2003 C   0  0  0  0  0  0  0  0  0  0  0  0
  -25.3415  -27.2894   21.4703 C   0  0  0  0  0  0  0  0  0  0  0  0
  -30.9123  -22.1461   22.1713 C   0  0  0  0  0  0  0  0  0  0  0  0
  -29.6453  -23.1829   23.9479 C   0  0  0  0  0  0  0  0  0  0  0  0
  -30.5140  -24.5288   22.1394 C   0  0  0  0  0  0  0  0  0  0  0  0
  -29.8020  -24.4258   23.3345 C   0  0  0  0  0  0  0  0  0  0  0  0
  -23.3885  -11.9772   19.9525 C   0  0  0  0  0  0  0  0  0  0  0  0
  -27.5137  -28.0511   20.6884 C   0  0  0  0  0  0  0  0  0  0  0  0
  -23.0561   -9.7137   20.4897 C   0  0  0  0  0  0  0  0  0  0  0  0
  -23.5623   -7.5522   22.1792 C   0  0  0  0  0  0  0  0  0  0  0  0
  -22.7023   -9.7839   21.8371 C   0  0  0  0  0  0  0  0  0  0  0  0
  -25.2045  -15.6803   20.8944 C   0  0  0  0  0  0  0  0  0  0  0  0
  -25.9615  -17.4639   21.9340 C   0  0  0  0  0  0  0  0  0  0  0  0
  -24.7803  -15.8430   23.4260 C   0  0  0  0  0  0  0  0  0  0  0  0
  -22.4289  -28.7697   22.4469 C   0  0  0  0  0  0  0  0  0  0  0  0
  -22.2392  -25.5621   22.8917 C   0  0  0  0  0  0  0  0  0  0  0  0
  -30.8225  -26.0211   20.1330 C   0  0  0  0  0  0  0  0  0  0  0  0
  -23.7751  -22.5189   22.7296 C   0  0  0  0  0  0  0  0  0  0  0  0
  -30.1633  -20.2716   19.5661 C   0  0  0  0  0  0  0  0  0  0  0  0
  -18.2071  -31.4425   23.4912 C   0  0  0  0  0  0  0  0  0  0  0  0
  -23.2375  -27.9043   20.2214 C   0  0  0  0  0  0  0  0  0  0  0  0
  -24.5407  -26.5102   22.4803 C   0  0  0  0  0  0  0  0  0  0  0  0
  -18.8648  -30.1805   24.0435 C   0  0  0  0  0  0  0  0  0  0  0  0
  -27.2380  -19.7481   17.6051 C   0  0  0  0  0  0  0  0  0  0  0  0
  -20.3453  -30.4260   24.3171 C   0  0  0  0  0  0  0  0  0  0  0  0
  -26.4581  -18.6896   18.3870 C   0  0  0  0  0  0  0  0  0  0  0  0
  -28.7446  -19.5112   17.6831 C   0  0  0  0  0  0  0  0  0  0  0  0
  -28.5024  -18.3308   19.8330 C   0  0  0  0  0  0  0  0  0  0  0  0
  -21.0922  -30.7865   23.0272 C   0  0  1  0  0  0  0  0  0  0  0  0
  -22.4881  -27.5938   21.5134 C   0  0  1  0  0  0  0  0  0  0  0  0
  -26.9813  -18.5598   19.8301 C   0  0  2  0  0  0  0  0  0  0  0  0
  -31.8733  -27.7022   18.6104 C   0  0  0  0  0  0  0  0  0  0  0  0
  -23.3787  -20.0850   23.1948 C   0  0  0  0  0  0  0  0  0  0  0  0
  -22.5597  -26.0837   25.8809 C   0  0  0  0  0  0  0  0  0  0  0  0
  -23.1063  -23.6582   26.1747 C   0  0  0  0  0  0  0  0  0  0  0  0
  -20.8690  -24.3340   25.3026 C   0  0  0  0  0  0  0  0  0  0  0  0
  -24.2065  -21.7875   19.8945 C   0  0  0  0  0  0  0  0  0  0  0  0
  -31.5049  -20.9275   21.5483 C   0  0  0  0  0  0  0  0  0  0  0  0
  -29.6421  -28.2106   19.6395 C   0  0  0  0  0  0  0  0  0  1  0  0
  -22.9012  -24.5701   23.8173 C   0  0  1  0  0  0  0  0  0  0  0  0
  -30.9922  -27.5194   19.8456 C   0  0  1  0  0  0  0  0  0  0  0  0
  -23.3205  -21.1906   22.1522 C   0  0  2  0  0  0  0  0  0  0  0  0
  -22.3743  -24.6777   25.2761 C   0  0  0  0  0  0  0  0  0  0  0  0
  -25.7903  -16.4028   19.9359 N   0  0  0  0  0  0  0  0  0  0  0  0
  -26.2408  -17.4813   20.5991 N   0  0  0  0  0  0  0  0  0  0  0  0
  -23.0852  -26.4851   22.2606 N   0  0  0  0  0  0  0  0  0  0  0  0
  -29.1765  -19.3990   19.0784 N   0  0  0  0  0  0  0  0  0  0  0  0
  -28.9284  -23.0546   25.1589 N   0  0  0  0  0  0  0  0  0  0  0  0
  -29.2381  -25.5828   23.9244 N   0  0  0  0  0  0  0  0  0  0  0  0
  -26.3425  -18.4703   22.7491 N   0  0  0  0  0  0  0  0  0  0  0  0
  -24.1042  -14.6164   23.4798 N   0  0  0  0  0  0  0  0  0  0  0  0
  -30.6880  -25.7781   21.4974 N   0  0  0  0  0  0  0  0  0  0  0  0
  -21.3429  -29.5986   22.2395 N   0  0  0  0  0  0  0  0  0  0  0  0
  -22.7140  -23.2571   23.2096 N   0  0  0  0  0  0  0  0  0  0  0  0
  -30.5100  -20.1018   20.9009 N   0  0  0  0  0  0  0  0  0  0  0  0
  -24.1877  -20.8006   21.0047 N   0  3  0  0  0  0  0  0  0  0  0  0
  -24.9141  -16.5168   24.4755 O   0  0  0  0  0  0  0  0  0  0  0  0
  -23.3029  -28.9135   23.2938 O   0  0  0  0  0  0  0  0  0  0  0  0
  -21.0173  -25.5151   22.7290 O   0  0  0  0  0  0  0  0  0  0  0  0
  -30.8229  -25.1877   19.2316 O   0  0  0  0  0  0  0  0  0  0  0  0
  -24.9540  -22.8652   22.7559 O   0  0  0  0  0  0  0  0  0  0  0  0
  -30.6920  -21.1414   18.8655 O   0  0  0  0  0  0  0  0  0  0  0  0
  -22.8048  -10.7855   19.6496 O   0  0  0  0  0  0  0  0  0  0  0  0
  -28.8663  -28.0942   20.8315 O   0  0  0  0  0  0  0  0  0  1  0  0
  -23.8040   -6.5137   22.9899 F   0  0  0  0  0  0  0  0  0  0  0  0
  -22.1180  -10.8866   22.3256 F   0  0  0  0  0  0  0  0  0  0  0  0
  1  2  1  0  0  0  0
  1  5  2  0  0  0  0
  2  6  2  0  0  0  0
  3  8  2  0  0  0  0
  3 17  1  0  0  0  0
  4  9  1  0  0  0  0
  4 17  2  0  0  0  0
  5 19  1  0  0  0  0
  6 21  1  0  0  0  0
  7 10  2  0  0  0  0
  7 20  1  0  0  0  0
  8 27  1  0  0  0  0
  9 27  2  0  0  0  0
 10 28  1  0  0  0  0
 11 12  2  0  0  0  0
 11 29  1  0  0  0  0
 12 30  1  0  0  0  0
 13 22  1  0  0  0  0
 13 28  2  0  0  0  0
 14 23  1  0  0  0  0
 14 24  2  0  0  0  0
 15 23  2  0  0  0  0
 15 25  1  0  0  0  0
 16 30  2  0  0  0  0
 16 31  1  0  0  0  0
 17 32  1  0  0  0  0
 18 32  1  0  0  0  0
 18 33  2  0  0  0  0
 18 34  1  0  0  0  0
 19 21  2  0  0  0  0
 19 40  1  0  0  0  0
 20 22  2  0  0  0  0
 20 41  1  0  0  0  0
 21 49  1  0  0  0  0
 22 42  1  0  0  0  0
 23 58  1  0  0  0  0
 24 26  1  0  0  0  0
 24 68  1  0  0  0  0
 25 26  2  0  0  0  0
 25 72  1  0  0  0  0
 26 69  1  0  0  0  0
 27 83  1  0  0  0  0
 28 84  1  0  0  0  0
 29 31  2  0  0  0  0
 29 83  1  0  0  0  0
 30 85  1  0  0  0  0
 31 86  1  0  0  0  0
 32 64  2  0  0  0  0
 33 65  1  0  0  0  0
 33 70  1  0  0  0  0
 34 71  1  0  0  0  0
 34 77  2  0  0  0  0
 35 50  1  0  0  0  0
 35 73  1  0  0  0  0
 35 78  2  0  0  0  0
 36 60  1  0  0  0  0
 36 66  1  0  0  0  0
 36 79  2  0  0  0  0
 37 61  1  0  0  0  0
 37 72  1  0  0  0  0
 37 80  2  0  0  0  0
 38 62  1  0  0  0  0
 38 74  1  0  0  0  0
 38 81  2  0  0  0  0
 39 67  1  0  0  0  0
 39 75  1  0  0  0  0
 39 82  2  0  0  0  0
 40 43  1  0  0  0  0
 41 50  1  0  0  0  0
 42 66  1  0  0  0  0
 43 45  1  0  0  0  0
 44 46  1  0  0  0  0
 44 47  1  0  0  0  0
 45 49  1  0  0  0  0
 46 51  1  0  0  0  0
 47 67  1  0  0  0  0
 48 51  1  0  0  0  0
 48 67  1  0  0  0  0
 49 73  1  0  0  0  0
 50 66  1  0  0  0  0
 51 65  1  0  0  0  0
 52 61  1  0  0  0  0
 53 62  1  0  0  0  0
 54 63  1  0  0  0  0
 55 63  1  0  0  0  0
 56 63  1  0  0  0  0
 57 76  1  0  0  0  0
 58 75  1  0  0  0  0
 59 61  1  0  0  0  0
 59 84  1  0  0  0  0
 60 63  1  0  0  0  0
 60 74  1  0  0  0  0
 62 76  1  0  0  0  0
 64 65  1  0  0  0  0
M  CHG  1  76   1
M  ISO  4  39 100  59 101  75 100  84 101
M  END
> <Batch ID>
0095

> <Smiles>
CNC(C)C(=O)NC(C(=O)N1Cc2cc([101O:1][101CH2:1]C(C)C(=O)Nc3cc(C[100NH:0][100C:0](=O)N4CCCC(n5nc(-c6ccc(Oc7ccc(F)cc7F)cc6)c(C(N)=O)c5N)C4)cc(N)c3N)ccc2CC1C(=O)NC1CCCc2ccccc21)C(C)(C)C

> <Shape>
0.200

> <Color>
0.083

> <Negative vol penalty>
0.000

$$$$

  -OEChem-04052300433D

 85 93  0     1  0  0  0  0  0999 V2000
  -24.4197  -30.9071   28.6422 C   0  0  0  0  0  0  0  0  0  0  0  0
  -25.2475  -30.1989   27.7769 C   0  0  0  0  0  0  0  0  0  0  0  0
  -22.9468  -10.2057   19.9425 C   0  0  0  0  0  0  0  0  0  0  0  0
  -24.0598   -9.6440   22.0120 C   0  0  0  0  0  0  0  0  0  0  0  0
  -23.0532  -30.9968   28.3804 C   0  0  0  0  0  0  0  0  0  0  0  0
  -24.7089  -29.5792   26.6498 C   0  0  0  0  0  0  0  0  0  0  0  0
  -27.3860  -28.9137   21.1821 C   0  0  0  0  0  0  0  0  0  0  0  0
  -31.6342  -18.5082   20.8145 C   0  0  0  0  0  0  0  0  0  0  0  0
  -31.3210  -19.7373   20.2341 C   0  0  0  0  0  0  0  0  0  0  0  0
  -22.2195   -9.0175   20.0111 C   0  0  0  0  0  0  0  0  0  0  0  0
  -23.3325   -8.4558   22.0806 C   0  0  0  0  0  0  0  0  0  0  0  0
  -28.0652  -27.8477   20.5937 C   0  0  0  0  0  0  0  0  0  0  0  0
  -20.2191   -7.4910   22.9730 C   0  0  0  0  0  0  0  0  0  0  0  0
  -19.6561   -7.1476   24.2020 C   0  0  0  0  0  0  0  0  0  0  0  0
  -26.0342  -27.1772   19.4781 C   0  0  0  0  0  0  0  0  0  0  0  0
  -29.2423  -19.7885   21.4644 C   0  0  0  0  0  0  0  0  0  0  0  0
  -20.9431   -5.1030   24.2203 C   0  0  0  0  0  0  0  0  0  0  0  0
  -23.8670  -10.5190   20.9430 C   0  0  0  0  0  0  0  0  0  0  0  0
  -24.2568  -12.9970   21.4069 C   0  0  0  0  0  0  0  0  0  0  0  0
  -22.4992  -30.3860   27.2444 C   0  0  0  0  0  0  0  0  0  0  0  0
  -26.0209  -29.1134   20.9309 C   0  0  0  0  0  0  0  0  0  0  0  0
  -23.3335  -29.6598   26.3733 C   0  0  0  0  0  0  0  0  0  0  0  0
  -25.3406  -28.2480   20.0624 C   0  0  0  0  0  0  0  0  0  0  0  0
  -30.7514  -17.9192   21.7198 C   0  0  0  0  0  0  0  0  0  0  0  0
  -30.1250  -20.3775   20.5591 C   0  0  0  0  0  0  0  0  0  0  0  0
  -22.4123   -8.1425   21.0802 C   0  0  0  0  0  0  0  0  0  0  0  0
  -27.3887  -26.9775   19.7439 C   0  0  0  0  0  0  0  0  0  0  0  0
  -21.1440   -6.6403   22.3675 C   0  0  0  0  0  0  0  0  0  0  0  0
  -20.0181   -5.9536   24.8257 C   0  0  0  0  0  0  0  0  0  0  0  0
  -29.5555  -18.5594   22.0447 C   0  0  0  0  0  0  0  0  0  0  0  0
  -21.5060   -5.4464   22.9912 C   0  0  0  0  0  0  0  0  0  0  0  0
  -24.6190  -11.7461   20.8724 C   0  0  0  0  0  0  0  0  0  0  0  0
  -25.2985  -13.8276   21.0731 C   0  0  0  0  0  0  0  0  0  0  0  0
  -28.0782  -24.7445   19.8379 C   0  0  0  0  0  0  0  0  0  1  0  0
  -23.0837  -13.3744   22.1398 C   0  0  0  0  0  0  0  0  0  0  0  0
  -28.6976  -23.6557   19.3663 C   0  0  0  0  0  0  0  0  0  0  0  0
  -28.6708  -22.3949   20.1773 C   0  0  0  0  0  0  0  0  0  0  0  0
  -23.3912  -29.1336   22.7164 C   0  0  0  0  0  0  0  0  0  0  0  0
  -21.9905  -30.0899   19.9513 C   0  0  0  0  0  0  0  0  0  0  0  0
  -22.0751  -30.1800   16.5408 C   0  0  0  0  0  0  0  0  0  0  0  0
  -30.7696  -14.8357   20.6300 C   0  0  0  0  0  0  0  0  0  0  0  0
  -21.0089  -30.4708   27.0285 C   0  0  0  0  0  0  0  0  0  0  0  0
  -25.3090  -30.2837   21.5522 C   0  0  0  0  0  0  0  0  0  0  0  0
  -23.8798  -28.4307   19.7443 C   0  0  0  0  0  0  0  0  0  0  0  0
  -20.5766  -30.1010   25.6119 C   0  0  0  0  0  0  0  0  0  0  0  0
  -29.2017  -13.1156   17.9355 C   0  0  0  0  0  0  0  0  0  0  0  0
  -21.2678  -28.8183   25.1606 C   0  0  0  0  0  0  0  0  0  0  0  0
  -27.8431  -12.7041   18.5055 C   0  0  0  0  0  0  0  0  0  0  0  0
  -30.3032  -13.0382   18.9905 C   0  0  0  0  0  0  0  0  0  0  0  0
  -28.6662  -13.3720   20.8023 C   0  0  0  0  0  0  0  0  0  0  0  0
  -22.7907  -28.9947   25.1270 C   0  0  1  0  0  0  0  0  0  0  0  0
  -23.7978  -30.0903   21.6315 C   0  0  1  0  0  0  0  0  0  0  0  0
  -27.5134  -13.4876   19.7903 C   0  0  2  0  0  0  0  0  0  0  0  0
  -20.7720  -30.9995   14.5589 C   0  0  0  0  0  0  0  0  0  0  0  0
  -20.0133  -27.7930   20.3047 C   0  0  0  0  0  0  0  0  0  0  0  0
  -19.3739  -28.0656   17.8995 C   0  0  0  0  0  0  0  0  0  0  0  0
  -18.9942  -29.9335   19.5086 C   0  0  0  0  0  0  0  0  0  0  0  0
  -24.2925  -31.9314   15.6605 C   0  0  0  0  0  0  0  0  0  0  0  0
  -31.0911  -16.6057   22.3396 C   0  0  0  0  0  0  0  0  0  0  0  0
  -21.3520  -29.3873   18.7776 C   0  0  1  0  0  0  0  0  0  0  0  0
  -21.8731  -31.3192   15.5579 C   0  0  2  0  0  0  0  0  0  0  0  0
  -19.9604  -28.7900   19.1299 C   0  0  0  0  0  0  0  0  0  0  0  0
  -25.7985  -11.7748   20.2463 N   0  0  0  0  0  0  0  0  0  0  0  0
  -26.1865  -13.0539   20.3854 N   0  0  0  0  0  0  0  0  0  0  0  0
  -23.2262  -29.5860   20.3812 N   0  0  0  0  0  0  0  0  0  0  0  0
  -29.9290  -13.8031   20.1825 N   0  0  0  0  0  0  0  0  0  0  0  0
  -25.5323  -15.1371   21.3036 N   0  0  0  0  0  0  0  0  0  0  0  0
  -22.1126  -12.3968   22.3958 N   0  0  0  0  0  0  0  0  0  0  0  0
  -29.8062  -21.6241   19.9685 N   0  0  0  0  0  0  0  0  0  0  0  0
  -23.1884  -29.7306   23.9460 N   0  0  0  0  0  0  0  0  0  0  0  0
  -21.3278  -30.3553   17.6863 N   0  0  0  0  0  0  0  0  0  0  0  0
  -30.3377  -15.5146   21.7628 N   0  0  0  0  0  0  0  0  0  0  0  0
  -23.1311  -31.5811   14.8030 N   0  3  0  0  0  0  0  0  0  0  0  0
  -22.8944  -14.5477   22.5410 O   0  0  0  0  0  0  0  0  0  0  0  0
  -27.7254  -22.1408   20.9158 O   0  0  0  0  0  0  0  0  0  0  0  0
  -23.2690  -27.9422   22.4568 O   0  0  0  0  0  0  0  0  0  0  0  0
  -21.4174  -31.0549   20.4632 O   0  0  0  0  0  0  0  0  0  0  0  0
  -22.8184  -29.2280   16.3134 O   0  0  0  0  0  0  0  0  0  0  0  0
  -31.8240  -15.1343   20.0589 O   0  0  0  0  0  0  0  0  0  0  0  0
  -29.3625  -23.6454   18.1569 O   0  0  0  0  0  0  0  0  0  0  0  0
  -21.7027   -6.9830   21.1476 O   0  0  0  0  0  0  0  0  0  0  0  0
  -28.0490  -25.9359   19.1689 O   0  0  0  0  0  0  0  0  0  1  0  0
  -19.4785   -5.6247   26.0068 F   0  0  0  0  0  0  0  0  0  0  0  0
  -28.7010  -18.0014   22.9136 F   0  0  0  0  0  0  0  0  0  0  0  0
  -22.3950   -4.6257   22.4149 F   0  0  0  0  0  0  0  0  0  0  0  0
  1  2  1  0  0  0  0
  1  5  2  0  0  0  0
  2  6  2  0  0  0  0
  3 10  2  0  0  0  0
  3 18  1  0  0  0  0
  4 11  1  0  0  0  0
  4 18  2  0  0  0  0
  5 20  1  0  0  0  0
  6 22  1  0  0  0  0
  7 12  2  0  0  0  0
  7 21  1  0  0  0  0
  8  9  2  0  0  0  0
  8 24  1  0  0  0  0
  9 25  1  0  0  0  0
 10 26  1  0  0  0  0
 11 26  2  0  0  0  0
 12 27  1  0  0  0  0
 13 14  2  0  0  0  0
 13 28  1  0  0  0  0
 14 29  1  0  0  0  0
 15 23  1  0  0  0  0
 15 27  2  0  0  0  0
 16 25  2  0  0  0  0
 16 30  1  0  0  0  0
 17 29  2  0  0  0  0
 17 31  1  0  0  0  0
 18 32  1  0  0  0  0
 19 32  1  0  0  0  0
 19 33  2  0  0  0  0
 19 35  1  0  0  0  0
 20 22  2  0  0  0  0
 20 42  1  0  0  0  0
 21 23  2  0  0  0  0
 21 43  1  0  0  0  0
 22 51  1  0  0  0  0
 23 44  1  0  0  0  0
 24 30  2  0  0  0  0
 24 59  1  0  0  0  0
 25 69  1  0  0  0  0
 26 81  1  0  0  0  0
 27 82  1  0  0  0  0
 28 31  2  0  0  0  0
 28 81  1  0  0  0  0
 29 83  1  0  0  0  0
 30 84  1  0  0  0  0
 31 85  1  0  0  0  0
 32 63  2  0  0  0  0
 33 64  1  0  0  0  0
 33 67  1  0  0  0  0
 34 36  2  0  0  0  0
 34 82  1  0  0  0  0
 35 68  1  0  0  0  0
 35 74  2  0  0  0  0
 36 37  1  0  0  0  0
 36 80  1  0  0  0  0
 37 69  1  0  0  0  0
 37 75  2  0  0  0  0
 38 52  1  0  0  0  0
 38 70  1  0  0  0  0
 38 76  2  0  0  0  0
 39 60  1  0  0  0  0
 39 65  1  0  0  0  0
 39 77  2  0  0  0  0
 40 61  1  0  0  0  0
 40 71  1  0  0  0  0
 40 78  2  0  0  0  0
 41 66  1  0  0  0  0
 41 72  1  0  0  0  0
 41 79  2  0  0  0  0
 42 45  1  0  0  0  0
 43 52  1  0  0  0  0
 44 65  1  0  0  0  0
 45 47  1  0  0  0  0
 46 48  1  0  0  0  0
 46 49  1  0  0  0  0
 47 51  1  0  0  0  0
 48 53  1  0  0  0  0
 49 66  1  0  0  0  0
 50 53  1  0  0  0  0
 50 66  1  0  0  0  0
 51 70  1  0  0  0  0
 52 65  1  0  0  0  0
 53 64  1  0  0  0  0
 54 61  1  0  0  0  0
 55 62  1  0  0  0  0
 56 62  1  0  0  0  0
 57 62  1  0  0  0  0
 58 73  1  0  0  0  0
 59 72  1  0  0  0  0
 60 62  1  0  0  0  0
 60 71  1  0  0  0  0
 61 73  1  0  0  0  0
 63 64  1  0  0  0  0
M  CHG  1  73   1
M  ISO  4  34 101  41 100  72 100  82 101
M  END
> <Batch ID>
0095

> <Smiles>
CNC(C)C(=O)NC(C(=O)N1Cc2cc([101O:1][101CH2:1]C(=O)C(=O)Nc3ccc(C[100NH:0][100C:0](=O)N4CCCC(n5nc(-c6ccc(Oc7ccc(F)cc7F)cc6)c(C(N)=O)c5N)C4)c(F)c3)ccc2CC1C(=O)NC1CCCc2ccccc21)C(C)(C)C

> <Shape>
0.333

> <Color>
0.176

> <Negative vol penalty>
0.000

$$$$

  -OEChem-04052300433D

 87 96  0     1  0  0  0  0  0999 V2000
  -17.1891  -30.1237   24.7310 C   0  0  0  0  0  0  0  0  0  0  0  0
  -17.9617  -28.9972   24.9948 C   0  0  0  0  0  0  0  0  0  0  0  0
  -26.9255  -18.3419   19.4947 C   0  0  0  0  0  0  0  0  0  0  0  0
  -28.9369  -17.0363   19.7890 C   0  0  0  0  0  0  0  0  0  0  0  0
  -17.2591  -30.7387   23.4817 C   0  0  0  0  0  0  0  0  0  0  0  0
  -18.8040  -28.4844   24.0089 C   0  0  0  0  0  0  0  0  0  0  0  0
  -24.2639  -25.8387   24.8428 C   0  0  0  0  0  0  0  0  0  0  0  0
  -23.1821  -17.2843   22.7517 C   0  0  0  0  0  0  0  0  0  0  0  0
  -22.3434  -16.2922   22.2437 C   0  0  0  0  0  0  0  0  0  0  0  0
  -27.5912  -19.4737   19.9655 C   0  0  0  0  0  0  0  0  0  0  0  0
  -29.6026  -18.1681   20.2598 C   0  0  0  0  0  0  0  0  0  0  0  0
  -24.6595  -24.5032   24.9038 C   0  0  0  0  0  0  0  0  0  0  0  0
  -29.7836  -21.7523   18.7680 C   0  0  0  0  0  0  0  0  0  0  0  0
  -29.6132  -22.9443   18.0640 C   0  0  0  0  0  0  0  0  0  0  0  0
  -25.2565  -24.5796   22.5678 C   0  0  0  0  0  0  0  0  0  0  0  0
  -23.5185  -14.6315   23.5468 C   0  0  0  0  0  0  0  0  0  0  0  0
  -28.6941  -23.9816   20.0430 C   0  0  0  0  0  0  0  0  0  0  0  0
  -27.5983  -17.1232   19.4065 C   0  0  0  0  0  0  0  0  0  0  0  0
  -26.8207  -15.5135   17.5867 C   0  0  0  0  0  0  0  0  0  0  0  0
  -18.1099  -30.2389   22.4832 C   0  0  0  0  0  0  0  0  0  0  0  0
  -24.3515  -26.5527   23.6391 C   0  0  0  0  0  0  0  0  0  0  0  0
  -18.8844  -29.0925   22.7446 C   0  0  0  0  0  0  0  0  0  0  0  0
  -24.8637  -25.9248   22.4948 C   0  0  0  0  0  0  0  0  0  0  0  0
  -24.1890  -16.9499   23.6573 C   0  0  0  0  0  0  0  0  0  0  0  0
  -22.5116  -14.9658   22.6412 C   0  0  0  0  0  0  0  0  0  0  0  0
  -28.9297  -19.3867   20.3480 C   0  0  0  0  0  0  0  0  0  0  0  0
  -25.1532  -23.8726   23.7655 C   0  0  0  0  0  0  0  0  0  0  0  0
  -29.4092  -21.6749   20.1095 C   0  0  0  0  0  0  0  0  0  0  0  0
  -29.0684  -24.0590   18.7015 C   0  0  0  0  0  0  0  0  0  0  0  0
  -24.3572  -15.6235   24.0548 C   0  0  0  0  0  0  0  0  0  0  0  0
  -28.8645  -22.7895   20.7470 C   0  0  0  0  0  0  0  0  0  0  0  0
  -26.9110  -15.9537   18.9208 C   0  0  0  0  0  0  0  0  0  0  0  0
  -26.0676  -14.3668   17.6537 C   0  0  0  0  0  0  0  0  0  0  0  0
  -24.5992  -19.2910   24.3362 C   0  0  0  0  0  0  0  0  0  0  0  0
  -25.3843  -20.3300   24.6597 C   0  0  0  0  0  0  0  0  0  0  0  0
  -26.4020  -17.6701   24.5035 C   0  0  0  0  0  0  0  0  0  0  0  0
  -27.3686  -16.0896   16.3935 C   0  0  0  0  0  0  0  0  0  0  0  0
  -22.2584  -27.9851   21.7232 C   0  0  0  0  0  0  0  0  0  0  0  0
  -24.9354  -28.9652   20.1754 C   0  0  0  0  0  0  0  0  0  0  0  0
  -28.2325  -28.4363   19.4714 C   0  0  0  0  0  0  0  0  0  0  0  0
  -22.0929  -12.6107   21.9534 C   0  0  0  0  0  0  0  0  0  0  0  0
  -18.1163  -30.9095   21.1324 C   0  0  0  0  0  0  0  0  0  0  0  0
  -23.9456  -28.0004   23.5964 C   0  0  0  0  0  0  0  0  0  0  0  0
  -24.9970  -26.6530   21.1831 C   0  0  0  0  0  0  0  0  0  0  0  0
  -26.8440  -20.1265   24.9167 C   0  0  0  0  0  0  0  0  0  0  0  0
  -27.1105  -18.7014   25.3634 C   0  0  0  0  0  0  0  0  0  0  0  0
  -19.3141  -30.5255   20.2674 C   0  0  0  0  0  0  0  0  0  0  0  0
  -24.9752  -10.7568   20.5875 C   0  0  0  0  0  0  0  0  0  0  0  0
  -19.5261  -29.0151   20.2894 C   0  0  0  0  0  0  0  0  0  0  0  0
  -25.8178  -11.8597   19.9491 C   0  0  0  0  0  0  0  0  0  0  0  0
  -24.1712  -11.2742   21.7766 C   0  0  0  0  0  0  0  0  0  0  0  0
  -24.1587  -13.5566   20.8171 C   0  0  0  0  0  0  0  0  0  0  0  0
  -19.8287  -28.5211   21.7092 C   0  0  1  0  0  0  0  0  0  0  0  0
  -23.5969  -28.4820   22.1915 C   0  0  1  0  0  0  0  0  0  0  0  0
  -24.9476  -13.0764   19.5895 C   0  0  1  0  0  0  0  0  0  0  0  0
  -30.1405  -29.3847   18.1456 C   0  0  0  0  0  0  0  0  0  0  0  0
  -23.7265  -27.8180   17.6195 C   0  0  0  0  0  0  0  0  0  0  0  0
  -26.0005  -27.9273   16.5778 C   0  0  0  0  0  0  0  0  0  0  0  0
  -24.8745  -30.0212   17.3330 C   0  0  0  0  0  0  0  0  0  0  0  0
  -20.2135  -14.2345   21.9778 C   0  0  0  0  0  0  0  0  0  0  0  0
  -29.8439  -28.9075   21.9087 C   0  0  0  0  0  0  0  0  0  0  0  0
  -24.8647  -21.7318   24.7603 C   0  0  0  0  0  0  0  0  0  1  0  0
  -25.7866  -28.4131   19.0576 C   0  0  1  0  0  0  0  0  0  0  0  0
  -29.4289  -29.3706   19.4896 C   0  0  2  0  0  0  0  0  0  0  0  0
  -25.0929  -28.5303   17.6711 C   0  0  0  0  0  0  0  0  0  0  0  0
  -26.2666  -15.1521   19.7730 N   0  0  0  0  0  0  0  0  0  0  0  0
  -25.7642  -14.1967   18.9725 N   0  0  0  0  0  0  0  0  0  0  0  0
  -25.0593  -17.9832   24.1836 N   0  0  0  0  0  0  0  0  0  0  0  0
  -24.5811  -28.0652   21.1905 N   0  0  0  0  0  0  0  0  0  0  0  0
  -23.3882  -12.4579   21.4196 N   0  0  0  0  0  0  0  0  0  0  0  0
  -25.6419  -13.4976   16.7126 N   0  0  0  0  0  0  0  0  0  0  0  0
  -28.1173  -17.2692   16.5040 N   0  0  0  0  0  0  0  0  0  0  0  0
  -21.2022  -28.8091   22.0625 N   0  0  0  0  0  0  0  0  0  0  0  0
  -27.0700  -29.1014   19.1437 N   0  0  0  0  0  0  0  0  0  0  0  0
  -21.6434  -13.9391   22.1151 N   0  0  0  0  0  0  0  0  0  0  0  0
  -30.4036  -28.9438   20.5330 N   0  3  0  0  0  0  0  0  0  0  0  0
  -27.0039  -16.6422   24.1874 O   0  0  0  0  0  0  0  0  0  0  0  0
  -27.1856  -15.5825   15.2609 O   0  0  0  0  0  0  0  0  0  0  0  0
  -22.1891  -26.9329   21.0989 O   0  0  0  0  0  0  0  0  0  0  0  0
  -24.6032  -30.1529   20.1526 O   0  0  0  0  0  0  0  0  0  0  0  0
  -28.3211  -27.2358   19.7191 O   0  0  0  0  0  0  0  0  0  0  0  0
  -21.3841  -11.6370   22.2347 O   0  0  0  0  0  0  0  0  0  0  0  0
  -29.5797  -20.4909   20.8072 O   0  0  0  0  0  0  0  0  0  0  0  0
  -25.5395  -22.5690   23.8222 O   0  0  0  0  0  0  0  0  0  1  0  0
  -28.9063  -25.2041   18.0258 F   0  0  0  0  0  0  0  0  0  0  0  0
  -25.3222  -15.2904   24.9242 F   0  0  0  0  0  0  0  0  0  0  0  0
  -28.5040  -22.7216   22.0359 F   0  0  0  0  0  0  0  0  0  0  0  0
  1  2  1  0  0  0  0
  1  5  2  0  0  0  0
  2  6  2  0  0  0  0
  3 10  2  0  0  0  0
  3 18  1  0  0  0  0
  4 11  1  0  0  0  0
  4 18  2  0  0  0  0
  5 20  1  0  0  0  0
  6 22  1  0  0  0  0
  7 12  2  0  0  0  0
  7 21  1  0  0  0  0
  8  9  2  0  0  0  0
  8 24  1  0  0  0  0
  9 25  1  0  0  0  0
 10 26  1  0  0  0  0
 11 26  2  0  0  0  0
 12 27  1  0  0  0  0
 13 14  2  0  0  0  0
 13 28  1  0  0  0  0
 14 29  1  0  0  0  0
 15 23  1  0  0  0  0
 15 27  2  0  0  0  0
 16 25  2  0  0  0  0
 16 30  1  0  0  0  0
 17 29  2  0  0  0  0
 17 31  1  0  0  0  0
 18 32  1  0  0  0  0
 19 32  1  0  0  0  0
 19 33  2  0  0  0  0
 19 37  1  0  0  0  0
 20 22  2  0  0  0  0
 20 42  1  0  0  0  0
 21 23  2  0  0  0  0
 21 43  1  0  0  0  0
 22 53  1  0  0  0  0
 23 44  1  0  0  0  0
 24 30  2  0  0  0  0
 24 68  1  0  0  0  0
 25 75  1  0  0  0  0
 26 83  1  0  0  0  0
 27 84  1  0  0  0  0
 28 31  2  0  0  0  0
 28 83  1  0  0  0  0
 29 85  1  0  0  0  0
 30 86  1  0  0  0  0
 31 87  1  0  0  0  0
 32 66  2  0  0  0  0
 33 67  1  0  0  0  0
 33 71  1  0  0  0  0
 34 35  2  0  0  0  0
 34 68  1  0  0  0  0
 35 45  1  0  0  0  0
 35 62  1  0  0  0  0
 36 46  1  0  0  0  0
 36 68  1  0  0  0  0
 36 77  2  0  0  0  0
 37 72  1  0  0  0  0
 37 78  2  0  0  0  0
 38 54  1  0  0  0  0
 38 73  1  0  0  0  0
 38 79  2  0  0  0  0
 39 63  1  0  0  0  0
 39 69  1  0  0  0  0
 39 80  2  0  0  0  0
 40 64  1  0  0  0  0
 40 74  1  0  0  0  0
 40 81  2  0  0  0  0
 41 70  1  0  0  0  0
 41 75  1  0  0  0  0
 41 82  2  0  0  0  0
 42 47  1  0  0  0  0
 43 54  1  0  0  0  0
 44 69  1  0  0  0  0
 45 46  1  0  0  0  0
 47 49  1  0  0  0  0
 48 50  1  0  0  0  0
 48 51  1  0  0  0  0
 49 53  1  0  0  0  0
 50 55  1  0  0  0  0
 51 70  1  0  0  0  0
 52 55  1  0  0  0  0
 52 70  1  0  0  0  0
 53 73  1  0  0  0  0
 54 69  1  0  0  0  0
 55 67  1  0  0  0  0
 56 64  1  0  0  0  0
 57 65  1  0  0  0  0
 58 65  1  0  0  0  0
 59 65  1  0  0  0  0
 60 75  1  0  0  0  0
 61 76  1  0  0  0  0
 62 84  1  0  0  0  0
 63 65  1  0  0  0  0
 63 74  1  0  0  0  0
 64 76  1  0  0  0  0
 66 67  1  0  0  0  0
M  CHG  1  76   1
M  ISO  4  41 100  62 101  75 100  84 101
M  END
> <Batch ID>
0095

> <Smiles>
CNC(C)C(=O)NC(C(=O)N1Cc2cc([101O:1][101CH2:1]C3=CN(c4ccc([100N:0](C)[100C:0](=O)N5CCCC(n6nc(-c7ccc(Oc8ccc(F)cc8F)cc7)c(C(N)=O)c6N)C5)cc4F)C(=O)CC3)ccc2CC1C(=O)NC1CCCc2ccccc21)C(C)(C)C

> <Shape>
0.207

> <Color>
0.068

> <Negative vol penalty>
0.000

$$$$

  -OEChem-04052300433D

 87 96  0     1  0  0  0  0  0999 V2000
  -27.7133  -38.0345   19.3820 C   0  0  0  0  0  0  0  0  0  0  0  0
  -28.0589  -36.7366   19.0194 C   0  0  0  0  0  0  0  0  0  0  0  0
  -26.1877  -10.7754   20.2935 C   0  0  0  0  0  0  0  0  0  0  0  0
  -25.6556  -13.1224   20.5066 C   0  0  0  0  0  0  0  0  0  0  0  0
  -27.2768  -38.3019   20.6789 C   0  0  0  0  0  0  0  0  0  0  0  0
  -27.9694  -35.7056   19.9539 C   0  0  0  0  0  0  0  0  0  0  0  0
  -26.4217  -29.8799   18.8711 C   0  0  0  0  0  0  0  0  0  0  0  0
  -32.2177  -21.4288   21.4753 C   0  0  0  0  0  0  0  0  0  0  0  0
  -32.1470  -20.0687   21.7764 C   0  0  0  0  0  0  0  0  0  0  0  0
  -24.8644  -10.4485   20.5897 C   0  0  0  0  0  0  0  0  0  0  0  0
  -24.3323  -12.7955   20.8027 C   0  0  0  0  0  0  0  0  0  0  0  0
  -27.1820  -28.7247   18.6945 C   0  0  0  0  0  0  0  0  0  0  0  0
  -22.5760  -11.6946   23.4737 C   0  0  0  0  0  0  0  0  0  0  0  0
  -21.9676  -12.3577   24.5394 C   0  0  0  0  0  0  0  0  0  0  0  0
  -26.8848  -28.1800   21.0256 C   0  0  0  0  0  0  0  0  0  0  0  0
  -30.2207  -19.8498   20.3346 C   0  0  0  0  0  0  0  0  0  0  0  0
  -20.2883  -13.2305   23.0376 C   0  0  0  0  0  0  0  0  0  0  0  0
  -26.5833  -12.1123   20.2520 C   0  0  0  0  0  0  0  0  0  0  0  0
  -28.6604  -12.1410   18.7713 C   0  0  0  0  0  0  0  0  0  0  0  0
  -27.1726  -37.2719   21.6270 C   0  0  0  0  0  0  0  0  0  0  0  0
  -25.8955  -30.2000   20.1309 C   0  0  0  0  0  0  0  0  0  0  0  0
  -27.5324  -35.9597   21.2650 C   0  0  0  0  0  0  0  0  0  0  0  0
  -26.1160  -29.3385   21.2150 C   0  0  0  0  0  0  0  0  0  0  0  0
  -31.2899  -21.9995   20.6039 C   0  0  0  0  0  0  0  0  0  0  0  0
  -31.1485  -19.2792   21.2061 C   0  0  0  0  0  0  0  0  0  0  0  0
  -23.9367  -11.4585   20.8443 C   0  0  0  0  0  0  0  0  0  0  0  0
  -27.4161  -27.8760   19.7725 C   0  0  0  0  0  0  0  0  0  0  0  0
  -22.0406  -11.7995   22.1899 C   0  0  0  0  0  0  0  0  0  0  0  0
  -20.8238  -13.1256   24.3214 C   0  0  0  0  0  0  0  0  0  0  0  0
  -30.2914  -21.2100   20.0336 C   0  0  0  0  0  0  0  0  0  0  0  0
  -20.8968  -12.5674   21.9719 C   0  0  0  0  0  0  0  0  0  0  0  0
  -27.9502  -12.4506   19.9467 C   0  0  0  0  0  0  0  0  0  0  0  0
  -29.9080  -12.6789   18.9722 C   0  0  0  0  0  0  0  0  0  0  0  0
  -30.3087  -24.2479   20.5855 C   0  0  0  0  0  0  0  0  0  0  0  0
  -30.1259  -25.5419   20.2615 C   0  0  0  0  0  0  0  0  0  0  0  0
  -31.4461  -25.5494   18.1777 C   0  0  0  0  0  0  0  0  0  0  0  0
  -28.2306  -11.4307   17.6023 C   0  0  0  0  0  0  0  0  0  0  0  0
  -26.2691  -32.6079   22.1720 C   0  0  0  0  0  0  0  0  0  0  0  0
  -23.8949  -31.0966   23.7849 C   0  0  0  0  0  0  0  0  0  0  0  0
  -21.6322  -29.7318   25.9446 C   0  0  0  0  0  0  0  0  0  0  0  0
  -31.9187  -17.1745   22.3564 C   0  0  0  0  0  0  0  0  0  0  0  0
  -26.7409  -37.6178   23.0301 C   0  0  0  0  0  0  0  0  0  0  0  0
  -25.0550  -31.4360   20.2989 C   0  0  0  0  0  0  0  0  0  0  0  0
  -25.5563  -29.6264   22.5834 C   0  0  0  0  0  0  0  0  0  0  0  0
  -31.0863  -26.3340   19.4202 C   0  0  0  0  0  0  0  0  0  0  0  0
  -32.4282  -24.4019   18.2996 C   0  0  0  0  0  0  0  0  0  0  0  0
  -26.3168  -36.4043   23.8534 C   0  0  0  0  0  0  0  0  0  0  0  0
  -32.9925  -13.7815   22.4658 C   0  0  0  0  0  0  0  0  0  0  0  0
  -27.3312  -35.2752   23.7016 C   0  0  0  0  0  0  0  0  0  0  0  0
  -31.8889  -13.0278   21.7199 C   0  0  0  0  0  0  0  0  0  0  0  0
  -32.6302  -23.8587   19.7133 C   0  0  0  0  0  0  0  0  0  0  0  0
  -32.4302  -14.9325   23.2981 C   0  0  0  0  0  0  0  0  0  0  0  0
  -30.4716  -15.1180   21.8154 C   0  0  0  0  0  0  0  0  0  0  0  0
  -27.4249  -34.8101   22.2434 C   0  0  1  0  0  0  0  0  0  0  0  0
  -24.9995  -31.9294   21.7414 C   0  0  1  0  0  0  0  0  0  0  0  0
  -30.9962  -13.9900   20.9120 C   0  0  2  0  0  0  0  0  0  0  0  0
  -20.9539  -29.7538   28.3606 C   0  0  0  0  0  0  0  0  0  0  0  0
  -26.3023  -29.3532   24.4742 C   0  0  0  0  0  0  0  0  0  0  0  0
  -25.1044  -28.6430   26.5547 C   0  0  0  0  0  0  0  0  0  0  0  0
  -25.7029  -31.0413   26.2193 C   0  0  0  0  0  0  0  0  0  0  0  0
  -18.9260  -30.7389   25.2957 C   0  0  0  0  0  0  0  0  0  0  0  0
  -28.9062  -26.2876   20.7277 C   0  0  0  0  0  0  0  0  0  1  0  0
  -23.8377  -30.0258   24.8475 C   0  0  1  0  0  0  0  0  0  0  0  0
  -20.7261  -30.3634   26.9861 C   0  0  2  0  0  0  0  0  0  0  0  0
  -25.2249  -29.7621   25.4984 C   0  0  0  0  0  0  0  0  0  0  0  0
  -28.6856  -13.1322   20.8290 N   0  0  0  0  0  0  0  0  0  0  0  0
  -29.8709  -13.2553   20.2077 N   0  0  0  0  0  0  0  0  0  0  0  0
  -31.3637  -23.3856   20.3004 N   0  0  0  0  0  0  0  0  0  0  0  0
  -24.7463  -30.8504   22.6985 N   0  0  0  0  0  0  0  0  0  0  0  0
  -31.5986  -15.8047   22.4659 N   0  0  0  0  0  0  0  0  0  0  0  0
  -31.0223  -12.7103   18.2107 N   0  0  0  0  0  0  0  0  0  0  0  0
  -26.9164  -10.9455   17.5608 N   0  0  0  0  0  0  0  0  0  0  0  0
  -31.0768  -17.8975   21.5119 N   0  0  0  0  0  0  0  0  0  0  0  0
  -26.2992  -33.9642   21.9093 N   0  0  0  0  0  0  0  0  0  0  0  0
  -22.8046  -30.4410   25.7902 N   0  0  0  0  0  0  0  0  0  0  0  0
  -19.2959  -30.1669   26.6159 N   0  3  0  0  0  0  0  0  0  0  0  0
  -30.9661  -25.8458   17.0813 O   0  0  0  0  0  0  0  0  0  0  0  0
  -28.9945  -11.2180   16.6303 O   0  0  0  0  0  0  0  0  0  0  0  0
  -27.1552  -31.9499   22.7046 O   0  0  0  0  0  0  0  0  0  0  0  0
  -23.2041  -32.1108   23.9106 O   0  0  0  0  0  0  0  0  0  0  0  0
  -21.3318  -28.7095   25.3323 O   0  0  0  0  0  0  0  0  0  0  0  0
  -32.8859  -17.6640   22.9453 O   0  0  0  0  0  0  0  0  0  0  0  0
  -22.6454  -11.1399   21.1331 O   0  0  0  0  0  0  0  0  0  0  0  0
  -28.1584  -26.7481   19.6030 O   0  0  0  0  0  0  0  0  0  1  0  0
  -20.2387  -13.7611   25.3451 F   0  0  0  0  0  0  0  0  0  0  0  0
  -29.3940  -21.7488   19.1960 F   0  0  0  0  0  0  0  0  0  0  0  0
  -20.3771  -12.6710   20.7410 F   0  0  0  0  0  0  0  0  0  0  0  0
  1  2  1  0  0  0  0
  1  5  2  0  0  0  0
  2  6  2  0  0  0  0
  3 10  2  0  0  0  0
  3 18  1  0  0  0  0
  4 11  1  0  0  0  0
  4 18  2  0  0  0  0
  5 20  1  0  0  0  0
  6 22  1  0  0  0  0
  7 12  2  0  0  0  0
  7 21  1  0  0  0  0
  8  9  2  0  0  0  0
  8 24  1  0  0  0  0
  9 25  1  0  0  0  0
 10 26  1  0  0  0  0
 11 26  2  0  0  0  0
 12 27  1  0  0  0  0
 13 14  2  0  0  0  0
 13 28  1  0  0  0  0
 14 29  1  0  0  0  0
 15 23  1  0  0  0  0
 15 27  2  0  0  0  0
 16 25  2  0  0  0  0
 16 30  1  0  0  0  0
 17 29  2  0  0  0  0
 17 31  1  0  0  0  0
 18 32  1  0  0  0  0
 19 32  1  0  0  0  0
 19 33  2  0  0  0  0
 19 37  1  0  0  0  0
 20 22  2  0  0  0  0
 20 42  1  0  0  0  0
 21 23  2  0  0  0  0
 21 43  1  0  0  0  0
 22 54  1  0  0  0  0
 23 44  1  0  0  0  0
 24 30  2  0  0  0  0
 24 68  1  0  0  0  0
 25 73  1  0  0  0  0
 26 83  1  0  0  0  0
 27 84  1  0  0  0  0
 28 31  2  0  0  0  0
 28 83  1  0  0  0  0
 29 85  1  0  0  0  0
 30 86  1  0  0  0  0
 31 87  1  0  0  0  0
 32 66  2  0  0  0  0
 33 67  1  0  0  0  0
 33 71  1  0  0  0  0
 34 35  2  0  0  0  0
 34 68  1  0  0  0  0
 35 45  1  0  0  0  0
 35 62  1  0  0  0  0
 36 45  1  0  0  0  0
 36 46  1  0  0  0  0
 36 77  2  0  0  0  0
 37 72  1  0  0  0  0
 37 78  2  0  0  0  0
 38 55  1  0  0  0  0
 38 74  1  0  0  0  0
 38 79  2  0  0  0  0
 39 63  1  0  0  0  0
 39 69  1  0  0  0  0
 39 80  2  0  0  0  0
 40 64  1  0  0  0  0
 40 75  1  0  0  0  0
 40 81  2  0  0  0  0
 41 70  1  0  0  0  0
 41 73  1  0  0  0  0
 41 82  2  0  0  0  0
 42 47  1  0  0  0  0
 43 55  1  0  0  0  0
 44 69  1  0  0  0  0
 46 51  1  0  0  0  0
 47 49  1  0  0  0  0
 48 50  1  0  0  0  0
 48 52  1  0  0  0  0
 49 54  1  0  0  0  0
 50 56  1  0  0  0  0
 51 68  1  0  0  0  0
 52 70  1  0  0  0  0
 53 56  1  0  0  0  0
 53 70  1  0  0  0  0
 54 74  1  0  0  0  0
 55 69  1  0  0  0  0
 56 67  1  0  0  0  0
 57 64  1  0  0  0  0
 58 65  1  0  0  0  0
 59 65  1  0  0  0  0
 60 65  1  0  0  0  0
 61 76  1  0  0  0  0
 62 84  1  0  0  0  0
 63 65  1  0  0  0  0
 63 75  1  0  0  0  0
 64 76  1  0  0  0  0
 66 67  1  0  0  0  0
M  CHG  1  76   1
M  ISO  4  41 100  62 101  73 100  84 101
M  END
> <Batch ID>
0095

> <Smiles>
CNC(C)C(=O)NC(C(=O)N1Cc2cc([101O:1][101CH2:1]C3=CN(c4ccc([100NH:0][100C:0](=O)N5CCCC(n6nc(-c7ccc(Oc8ccc(F)cc8F)cc7)c(C(N)=O)c6N)C5)cc4F)CCC(=O)C3)ccc2CC1C(=O)NC1CCCc2ccccc21)C(C)(C)C

> <Shape>
0.287

> <Color>
0.076

> <Negative vol penalty>
0.000

$$$$

  -OEChem-04052300433D

 86 94  0     1  0  0  0  0  0999 V2000
  -14.9478  -29.6093   25.2575 C   0  0  0  0  0  0  0  0  0  0  0  0
  -15.6580  -28.4549   24.9439 C   0  0  0  0  0  0  0  0  0  0  0  0
  -22.7292  -11.3234   19.1615 C   0  0  0  0  0  0  0  0  0  0  0  0
  -23.1492   -9.9794   21.1248 C   0  0  0  0  0  0  0  0  0  0  0  0
  -15.3376  -30.8344   24.7179 C   0  0  0  0  0  0  0  0  0  0  0  0
  -16.7578  -28.5247   24.0896 C   0  0  0  0  0  0  0  0  0  0  0  0
  -21.8678  -25.1621   24.3844 C   0  0  0  0  0  0  0  0  0  0  0  0
  -21.7181  -10.4435   18.7754 C   0  0  0  0  0  0  0  0  0  0  0  0
  -22.1381   -9.0995   20.7387 C   0  0  0  0  0  0  0  0  0  0  0  0
  -22.2796  -24.0195   23.6998 C   0  0  0  0  0  0  0  0  0  0  0  0
  -18.7619   -8.9899   20.8375 C   0  0  0  0  0  0  0  0  0  0  0  0
  -17.8620   -8.5694   21.8168 C   0  0  0  0  0  0  0  0  0  0  0  0
  -29.6791  -19.9208   19.5043 C   0  0  0  0  0  0  0  0  0  0  0  0
  -23.4952  -25.4001   22.1391 C   0  0  0  0  0  0  0  0  0  0  0  0
  -27.2610  -19.4562   20.8157 C   0  0  0  0  0  0  0  0  0  0  0  0
  -18.5231   -6.2764   21.4396 C   0  0  0  0  0  0  0  0  0  0  0  0
  -23.4448  -11.0913   20.3361 C   0  0  0  0  0  0  0  0  0  0  0  0
  -29.3638  -18.6380   19.9521 C   0  0  0  0  0  0  0  0  0  0  0  0
  -24.3586  -13.1429   21.5461 C   0  0  0  0  0  0  0  0  0  0  0  0
  -16.4486  -30.9208   23.8642 C   0  0  0  0  0  0  0  0  0  0  0  0
  -22.2583  -26.4350   23.9443 C   0  0  0  0  0  0  0  0  0  0  0  0
  -17.1621  -29.7519   23.5370 C   0  0  0  0  0  0  0  0  0  0  0  0
  -23.0891  -26.5571   22.8214 C   0  0  0  0  0  0  0  0  0  0  0  0
  -27.5763  -20.7391   20.3679 C   0  0  0  0  0  0  0  0  0  0  0  0
  -21.4225   -9.3316   19.5640 C   0  0  0  0  0  0  0  0  0  0  0  0
  -23.0910  -24.1385   22.5752 C   0  0  0  0  0  0  0  0  0  0  0  0
  -19.5423   -8.0537   20.1592 C   0  0  0  0  0  0  0  0  0  0  0  0
  -28.7853  -20.9714   19.7123 C   0  0  0  0  0  0  0  0  0  0  0  0
  -17.7427   -7.2127   22.1179 C   0  0  0  0  0  0  0  0  0  0  0  0
  -28.1548  -18.4057   20.6078 C   0  0  0  0  0  0  0  0  0  0  0  0
  -19.4230   -6.6970   20.4603 C   0  0  0  0  0  0  0  0  0  0  0  0
  -24.4898  -11.9996   20.7352 C   0  0  0  0  0  0  0  0  0  0  0  0
  -25.6305  -13.6552   21.6257 C   0  0  0  0  0  0  0  0  0  0  0  0
  -30.3190  -17.5223   19.7291 C   0  0  0  0  0  0  0  0  0  0  0  0
  -23.1914  -13.6926   22.1715 C   0  0  0  0  0  0  0  0  0  0  0  0
  -20.7249  -29.0134   22.8935 C   0  0  0  0  0  0  0  0  0  0  0  0
  -23.6876  -30.3314   22.9784 C   0  0  0  0  0  0  0  0  0  0  0  0
  -25.4221  -21.7250   21.2172 C   0  0  0  0  0  0  0  0  0  0  0  0
  -27.0680  -29.8674   22.9116 C   0  0  0  0  0  0  0  0  0  0  0  0
  -30.4623  -15.0856   19.3224 C   0  0  0  0  0  0  0  0  0  0  0  0
  -16.8034  -32.2598   23.2677 C   0  0  0  0  0  0  0  0  0  0  0  0
  -21.8276  -27.6562   24.7096 C   0  0  0  0  0  0  0  0  0  0  0  0
  -23.5527  -27.8996   22.3201 C   0  0  0  0  0  0  0  0  0  0  0  0
  -18.2065  -32.3072   22.6684 C   0  0  0  0  0  0  0  0  0  0  0  0
  -30.0739  -11.6840   20.2029 C   0  0  0  0  0  0  0  0  0  0  0  0
  -18.4591  -31.0769   21.8027 C   0  0  0  0  0  0  0  0  0  0  0  0
  -28.5765  -11.5553   20.4952 C   0  0  0  0  0  0  0  0  0  0  0  0
  -30.3443  -12.6265   19.0310 C   0  0  0  0  0  0  0  0  0  0  0  0
  -28.2295  -13.8205   19.4309 C   0  0  0  0  0  0  0  0  0  0  0  0
  -18.3756  -29.7909   22.6338 C   0  0  1  0  0  0  0  0  0  0  0  0
  -21.8630  -28.9301   23.8709 C   0  0  1  0  0  0  0  0  0  0  0  0
  -27.9091  -12.9370   20.6474 C   0  0  1  0  0  0  0  0  0  0  0  0
  -29.2320  -31.1371   22.9597 C   0  0  0  0  0  0  0  0  0  0  0  0
  -23.2741  -31.1417   20.0659 C   0  0  0  0  0  0  0  0  0  0  0  0
  -25.7417  -31.5289   19.8959 C   0  0  0  0  0  0  0  0  0  0  0  0
  -24.3755  -32.8806   21.4862 C   0  0  0  0  0  0  0  0  0  0  0  0
  -27.9255  -28.5397   25.4138 C   0  0  0  0  0  0  0  0  0  0  0  0
  -29.8244  -23.0611   20.1699 C   0  0  0  0  0  0  0  0  0  0  0  0
  -24.7550  -23.0877   21.2400 C   0  0  0  0  0  0  0  0  0  1  0  0
  -24.8339  -30.4486   22.0030 C   0  0  1  0  0  0  0  0  0  0  0  0
  -28.1780  -30.4191   23.7880 C   0  0  2  0  0  0  0  0  0  0  0  0
  -24.5462  -31.4746   20.8708 C   0  0  0  0  0  0  0  0  0  0  0  0
  -25.7458  -11.7972   20.3285 N   0  0  0  0  0  0  0  0  0  0  0  0
  -26.4155  -12.8203   20.8861 N   0  0  0  0  0  0  0  0  0  0  0  0
  -23.0998  -29.0642   23.0986 N   0  0  0  0  0  0  0  0  0  0  0  0
  -29.6867  -13.9149   19.2566 N   0  0  0  0  0  0  0  0  0  0  0  0
  -26.1427  -14.7338   22.2553 N   0  0  0  0  0  0  0  0  0  0  0  0
  -21.9646  -13.0406   21.9867 N   0  0  0  0  0  0  0  0  0  0  0  0
  -26.6589  -21.7944   20.5852 N   0  0  0  0  0  0  0  0  0  0  0  0
  -29.7457  -16.2587   19.5838 N   0  0  0  0  0  0  0  0  0  0  0  0
  -19.5868  -29.6078   23.4044 N   0  0  0  0  0  0  0  0  0  0  0  0
  -26.0177  -30.7537   22.7992 N   0  0  0  0  0  0  0  0  0  0  0  0
  -28.8415  -29.3161   24.5391 N   0  3  0  0  0  0  0  0  0  0  0  0
  -31.5190  -17.7697   19.6474 O   0  0  0  0  0  0  0  0  0  0  0  0
  -23.2322  -14.7404   22.8599 O   0  0  0  0  0  0  0  0  0  0  0  0
  -20.8690  -28.5724   21.7593 O   0  0  0  0  0  0  0  0  0  0  0  0
  -23.3316  -31.3259   23.6155 O   0  0  0  0  0  0  0  0  0  0  0  0
  -24.8846  -20.7382   21.7090 O   0  0  0  0  0  0  0  0  0  0  0  0
  -27.1284  -28.7624   22.3769 O   0  0  0  0  0  0  0  0  0  0  0  0
  -31.6910  -15.0820   19.1974 O   0  0  0  0  0  0  0  0  0  0  0  0
  -20.4358   -8.4729   19.1878 O   0  0  0  0  0  0  0  0  0  0  0  0
  -29.1130  -22.2174   19.2670 O   0  0  0  0  0  0  0  0  0  0  0  0
  -23.4938  -23.0249   21.9048 O   0  0  0  0  0  0  0  0  0  1  0  0
  -16.8796   -6.8091   23.0594 F   0  0  0  0  0  0  0  0  0  0  0  0
  -27.8407  -17.1764   21.0409 F   0  0  0  0  0  0  0  0  0  0  0  0
  -20.1709   -5.7930   19.8128 F   0  0  0  0  0  0  0  0  0  0  0  0
  1  2  1  0  0  0  0
  1  5  2  0  0  0  0
  2  6  2  0  0  0  0
  3  8  2  0  0  0  0
  3 17  1  0  0  0  0
  4  9  1  0  0  0  0
  4 17  2  0  0  0  0
  5 20  1  0  0  0  0
  6 22  1  0  0  0  0
  7 10  2  0  0  0  0
  7 21  1  0  0  0  0
  8 25  1  0  0  0  0
  9 25  2  0  0  0  0
 10 26  1  0  0  0  0
 11 12  2  0  0  0  0
 11 27  1  0  0  0  0
 12 29  1  0  0  0  0
 13 18  2  0  0  0  0
 13 28  1  0  0  0  0
 14 23  1  0  0  0  0
 14 26  2  0  0  0  0
 15 24  1  0  0  0  0
 15 30  2  0  0  0  0
 16 29  2  0  0  0  0
 16 31  1  0  0  0  0
 17 32  1  0  0  0  0
 18 30  1  0  0  0  0
 18 34  1  0  0  0  0
 19 32  1  0  0  0  0
 19 33  2  0  0  0  0
 19 35  1  0  0  0  0
 20 22  2  0  0  0  0
 20 41  1  0  0  0  0
 21 23  2  0  0  0  0
 21 42  1  0  0  0  0
 22 50  1  0  0  0  0
 23 43  1  0  0  0  0
 24 28  2  0  0  0  0
 24 69  1  0  0  0  0
 25 81  1  0  0  0  0
 26 83  1  0  0  0  0
 27 31  2  0  0  0  0
 27 81  1  0  0  0  0
 28 82  1  0  0  0  0
 29 84  1  0  0  0  0
 30 85  1  0  0  0  0
 31 86  1  0  0  0  0
 32 63  2  0  0  0  0
 33 64  1  0  0  0  0
 33 67  1  0  0  0  0
 34 70  1  0  0  0  0
 34 74  2  0  0  0  0
 35 68  1  0  0  0  0
 35 75  2  0  0  0  0
 36 51  1  0  0  0  0
 36 71  1  0  0  0  0
 36 76  2  0  0  0  0
 37 60  1  0  0  0  0
 37 65  1  0  0  0  0
 37 77  2  0  0  0  0
 38 59  1  0  0  0  0
 38 69  1  0  0  0  0
 38 78  2  0  0  0  0
 39 61  1  0  0  0  0
 39 72  1  0  0  0  0
 39 79  2  0  0  0  0
 40 66  1  0  0  0  0
 40 70  1  0  0  0  0
 40 80  2  0  0  0  0
 41 44  1  0  0  0  0
 42 51  1  0  0  0  0
 43 65  1  0  0  0  0
 44 46  1  0  0  0  0
 45 47  1  0  0  0  0
 45 48  1  0  0  0  0
 46 50  1  0  0  0  0
 47 52  1  0  0  0  0
 48 66  1  0  0  0  0
 49 52  1  0  0  0  0
 49 66  1  0  0  0  0
 50 71  1  0  0  0  0
 51 65  1  0  0  0  0
 52 64  1  0  0  0  0
 53 61  1  0  0  0  0
 54 62  1  0  0  0  0
 55 62  1  0  0  0  0
 56 62  1  0  0  0  0
 57 73  1  0  0  0  0
 58 82  1  0  0  0  0
 59 83  1  0  0  0  0
 60 62  1  0  0  0  0
 60 72  1  0  0  0  0
 61 73  1  0  0  0  0
 63 64  1  0  0  0  0
M  CHG  1  73   1
M  ISO  4  40 100  59 101  70 100  83 101
M  END
> <Batch ID>
0095

> <Smiles>
CNC(C)C(=O)NC(C(=O)N1Cc2cc([101O:1][101CH2:1]C(=O)Nc3cc(F)c(C(=O)[100NH:0][100C:0](=O)N4CCCC(n5nc(-c6ccc(Oc7ccc(F)cc7F)cc6)c(C(N)=O)c5N)C4)cc3OC)ccc2CC1C(=O)NC1CCCc2ccccc21)C(C)(C)C

> <Shape>
0.282

> <Color>
0.102

> <Negative vol penalty>
0.000

$$$$

  -OEChem-04052300433D

 86 95  0     1  0  0  0  0  0999 V2000
  -28.9749  -33.5249   31.1176 C   0  0  0  0  0  0  0  0  0  0  0  0
  -29.1245  -32.3640   30.3658 C   0  0  0  0  0  0  0  0  0  0  0  0
  -23.6342   -9.6149   20.4300 C   0  0  0  0  0  0  0  0  0  0  0  0
  -24.0670  -10.1970   22.7345 C   0  0  0  0  0  0  0  0  0  0  0  0
  -27.9975  -34.4570   30.7715 C   0  0  0  0  0  0  0  0  0  0  0  0
  -28.2961  -32.1340   29.2680 C   0  0  0  0  0  0  0  0  0  0  0  0
  -29.8067  -29.3239   24.0405 C   0  0  0  0  0  0  0  0  0  0  0  0
  -30.1352  -20.1408   19.9558 C   0  0  0  0  0  0  0  0  0  0  0  0
  -30.1932  -18.7734   20.2246 C   0  0  0  0  0  0  0  0  0  0  0  0
  -23.0570   -8.4137   20.8418 C   0  0  0  0  0  0  0  0  0  0  0  0
  -23.4898   -8.9958   23.1463 C   0  0  0  0  0  0  0  0  0  0  0  0
  -29.6136  -28.0198   23.5868 C   0  0  0  0  0  0  0  0  0  0  0  0
  -20.1052   -7.3801   22.1269 C   0  0  0  0  0  0  0  0  0  0  0  0
  -18.9000   -7.0034   21.5344 C   0  0  0  0  0  0  0  0  0  0  0  0
  -27.6243  -28.7268   22.4197 C   0  0  0  0  0  0  0  0  0  0  0  0
  -28.3284  -18.9931   21.7449 C   0  0  0  0  0  0  0  0  0  0  0  0
  -19.9357   -4.9808   20.7136 C   0  0  0  0  0  0  0  0  0  0  0  0
  -24.1392  -10.5066   21.3764 C   0  0  0  0  0  0  0  0  0  0  0  0
  -24.0868  -12.9819   20.7619 C   0  0  0  0  0  0  0  0  0  0  0  0
  -27.1630  -34.2429   29.6632 C   0  0  0  0  0  0  0  0  0  0  0  0
  -28.9025  -30.3387   23.6955 C   0  0  0  0  0  0  0  0  0  0  0  0
  -27.3057  -33.0635   28.9076 C   0  0  0  0  0  0  0  0  0  0  0  0
  -27.8096  -30.0435   22.8682 C   0  0  0  0  0  0  0  0  0  0  0  0
  -29.1738  -20.9345   20.5817 C   0  0  0  0  0  0  0  0  0  0  0  0
  -29.2898  -18.1995   21.1191 C   0  0  0  0  0  0  0  0  0  0  0  0
  -28.2704  -20.3606   21.4761 C   0  0  0  0  0  0  0  0  0  0  0  0
  -22.9848   -8.1042   22.1999 C   0  0  0  0  0  0  0  0  0  0  0  0
  -28.5207  -27.7205   22.7787 C   0  0  0  0  0  0  0  0  0  0  0  0
  -21.2258   -6.5572   22.0127 C   0  0  0  0  0  0  0  0  0  0  0  0
  -18.8152   -5.8038   20.8278 C   0  0  0  0  0  0  0  0  0  0  0  0
  -21.1409   -5.3576   21.3061 C   0  0  0  0  0  0  0  0  0  0  0  0
  -24.7361  -11.7473   20.9516 C   0  0  0  0  0  0  0  0  0  0  0  0
  -25.0843  -13.8362   20.3597 C   0  0  0  0  0  0  0  0  0  0  0  0
  -29.2999  -23.3062   21.2581 C   0  0  0  0  0  0  0  0  0  0  0  0
  -29.2385  -24.6325   21.0726 C   0  0  0  0  0  0  0  0  0  0  0  0
  -28.8764  -25.1034   19.7062 C   0  0  0  0  0  0  0  0  0  0  0  0
  -22.7056  -13.3258   20.9340 C   0  0  0  0  0  0  0  0  0  0  0  0
  -26.9537  -32.2540   25.3196 C   0  0  0  0  0  0  0  0  0  0  0  0
  -26.4830  -33.6009   22.4064 C   0  0  0  0  0  0  0  0  0  0  0  0
  -26.5583  -33.2618   19.0114 C   0  0  0  0  0  0  0  0  0  0  0  0
  -30.2395  -15.8812   20.8545 C   0  0  0  0  0  0  0  0  0  0  0  0
  -26.0895  -35.2568   29.3562 C   0  0  0  0  0  0  0  0  0  0  0  0
  -29.1397  -31.7459   24.1711 C   0  0  0  0  0  0  0  0  0  0  0  0
  -26.8211  -31.1011   22.4526 C   0  0  0  0  0  0  0  0  0  0  0  0
  -28.4052  -24.0700   18.7048 C   0  0  0  0  0  0  0  0  0  0  0  0
  -25.5009  -35.1152   27.9548 C   0  0  0  0  0  0  0  0  0  0  0  0
  -29.8541  -12.8985   18.9487 C   0  0  0  0  0  0  0  0  0  0  0  0
  -25.1769  -33.6547   27.6569 C   0  0  0  0  0  0  0  0  0  0  0  0
  -28.4348  -12.4347   19.2843 C   0  0  0  0  0  0  0  0  0  0  0  0
  -29.0930  -22.7183   18.8769 C   0  0  0  0  0  0  0  0  0  0  0  0
  -30.5505  -13.5155   20.1603 C   0  0  0  0  0  0  0  0  0  0  0  0
  -28.3838  -14.1267   21.1608 C   0  0  0  0  0  0  0  0  0  0  0  0
  -26.4426  -32.7899   27.6950 C   0  0  1  0  0  0  0  0  0  0  0  0
  -27.8723  -32.5950   24.1805 C   0  0  1  0  0  0  0  0  0  0  0  0
  -27.6189  -13.5572   19.9549 C   0  0  2  0  0  0  0  0  0  0  0  0
  -26.0827  -34.5231   16.8947 C   0  0  0  0  0  0  0  0  0  0  0  0
  -23.4897  -33.2031   22.8449 C   0  0  0  0  0  0  0  0  0  0  0  0
  -23.1515  -33.5772   20.3926 C   0  0  0  0  0  0  0  0  0  0  0  0
  -24.1104  -35.3931   21.8089 C   0  0  0  0  0  0  0  0  0  0  0  0
  -29.3684  -33.0389   18.1100 C   0  0  0  0  0  0  0  0  0  0  0  0
  -29.4940  -25.6475   22.1373 C   0  0  0  0  0  0  0  0  0  1  0  0
  -25.5240  -33.3691   21.2638 C   0  0  1  0  0  0  0  0  0  0  0  0
  -27.1380  -34.1475   17.9233 C   0  0  2  0  0  0  0  0  0  0  0  0
  -24.0863  -33.8651   21.5868 C   0  0  0  0  0  0  0  0  0  0  0  0
  -26.0447  -11.8076   20.6912 N   0  0  0  0  0  0  0  0  0  0  0  0
  -26.2258  -13.0903   20.3336 N   0  0  0  0  0  0  0  0  0  0  0  0
  -29.1325  -22.3241   20.2933 N   0  0  0  0  0  0  0  0  0  0  0  0
  -27.0927  -32.4605   22.9483 N   0  0  0  0  0  0  0  0  0  0  0  0
  -29.7211  -14.5739   20.7407 N   0  0  0  0  0  0  0  0  0  0  0  0
  -27.2887  -21.1465   22.1205 N   0  0  0  0  0  0  0  0  0  0  0  0
  -25.0874  -15.1451   20.0293 N   0  0  0  0  0  0  0  0  0  0  0  0
  -21.8156  -12.3273   21.3525 N   0  0  0  0  0  0  0  0  0  0  0  0
  -29.3484  -16.8101   21.3910 N   0  0  0  0  0  0  0  0  0  0  0  0
  -27.2085  -32.9612   26.4790 N   0  0  0  0  0  0  0  0  0  0  0  0
  -26.1244  -33.9991   20.0928 N   0  0  0  0  0  0  0  0  0  0  0  0
  -28.2495  -33.4455   17.2214 N   0  3  0  0  0  0  0  0  0  0  0  0
  -28.8919  -26.3011   19.4284 O   0  0  0  0  0  0  0  0  0  0  0  0
  -22.2704  -14.4802   20.7070 O   0  0  0  0  0  0  0  0  0  0  0  0
  -26.0775  -31.4126   25.1580 O   0  0  0  0  0  0  0  0  0  0  0  0
  -26.6891  -34.7521   22.7989 O   0  0  0  0  0  0  0  0  0  0  0  0
  -26.4933  -32.0387   18.9105 O   0  0  0  0  0  0  0  0  0  0  0  0
  -31.3798  -16.1623   20.4768 O   0  0  0  0  0  0  0  0  0  0  0  0
  -22.4214   -6.9322   22.6021 O   0  0  0  0  0  0  0  0  0  0  0  0
  -28.3295  -26.4483   22.3350 O   0  0  0  0  0  0  0  0  0  1  0  0
  -17.6573   -5.4414   20.2602 F   0  0  0  0  0  0  0  0  0  0  0  0
  -22.2137   -4.5623   21.1939 F   0  0  0  0  0  0  0  0  0  0  0  0
  1  2  1  0  0  0  0
  1  5  2  0  0  0  0
  2  6  2  0  0  0  0
  3 10  2  0  0  0  0
  3 18  1  0  0  0  0
  4 11  1  0  0  0  0
  4 18  2  0  0  0  0
  5 20  1  0  0  0  0
  6 22  1  0  0  0  0
  7 12  2  0  0  0  0
  7 21  1  0  0  0  0
  8  9  2  0  0  0  0
  8 24  1  0  0  0  0
  9 25  1  0  0  0  0
 10 27  1  0  0  0  0
 11 27  2  0  0  0  0
 12 28  1  0  0  0  0
 13 14  2  0  0  0  0
 13 29  1  0  0  0  0
 14 30  1  0  0  0  0
 15 23  1  0  0  0  0
 15 28  2  0  0  0  0
 16 25  2  0  0  0  0
 16 26  1  0  0  0  0
 17 30  2  0  0  0  0
 17 31  1  0  0  0  0
 18 32  1  0  0  0  0
 19 32  1  0  0  0  0
 19 33  2  0  0  0  0
 19 37  1  0  0  0  0
 20 22  2  0  0  0  0
 20 42  1  0  0  0  0
 21 23  2  0  0  0  0
 21 43  1  0  0  0  0
 22 53  1  0  0  0  0
 23 44  1  0  0  0  0
 24 26  2  0  0  0  0
 24 67  1  0  0  0  0
 25 73  1  0  0  0  0
 26 70  1  0  0  0  0
 27 83  1  0  0  0  0
 28 84  1  0  0  0  0
 29 31  2  0  0  0  0
 29 83  1  0  0  0  0
 30 85  1  0  0  0  0
 31 86  1  0  0  0  0
 32 65  2  0  0  0  0
 33 66  1  0  0  0  0
 33 71  1  0  0  0  0
 34 35  2  0  0  0  0
 34 67  1  0  0  0  0
 35 36  1  0  0  0  0
 35 61  1  0  0  0  0
 36 45  1  0  0  0  0
 36 77  2  0  0  0  0
 37 72  1  0  0  0  0
 37 78  2  0  0  0  0
 38 54  1  0  0  0  0
 38 74  1  0  0  0  0
 38 79  2  0  0  0  0
 39 62  1  0  0  0  0
 39 68  1  0  0  0  0
 39 80  2  0  0  0  0
 40 63  1  0  0  0  0
 40 75  1  0  0  0  0
 40 81  2  0  0  0  0
 41 69  1  0  0  0  0
 41 73  1  0  0  0  0
 41 82  2  0  0  0  0
 42 46  1  0  0  0  0
 43 54  1  0  0  0  0
 44 68  1  0  0  0  0
 45 50  1  0  0  0  0
 46 48  1  0  0  0  0
 47 49  1  0  0  0  0
 47 51  1  0  0  0  0
 48 53  1  0  0  0  0
 49 55  1  0  0  0  0
 50 67  1  0  0  0  0
 51 69  1  0  0  0  0
 52 55  1  0  0  0  0
 52 69  1  0  0  0  0
 53 74  1  0  0  0  0
 54 68  1  0  0  0  0
 55 66  1  0  0  0  0
 56 63  1  0  0  0  0
 57 64  1  0  0  0  0
 58 64  1  0  0  0  0
 59 64  1  0  0  0  0
 60 76  1  0  0  0  0
 61 84  1  0  0  0  0
 62 64  1  0  0  0  0
 62 75  1  0  0  0  0
 63 76  1  0  0  0  0
 65 66  1  0  0  0  0
M  CHG  1  76   1
M  ISO  4  41 100  61 101  73 100  84 101
M  END
> <Batch ID>
0095

> <Smiles>
CNC(C)C(=O)NC(C(=O)N1Cc2cc([101O:1][101CH2:1]C3=CN(c4ccc([100NH:0][100C:0](=O)N5CCCC(n6nc(-c7ccc(Oc8ccc(F)cc8F)cc7)c(C(N)=O)c6N)C5)cc4N)CCC3=O)ccc2CC1C(=O)NC1CCCc2ccccc21)C(C)(C)C

> <Shape>
0.285

> <Color>
0.152

> <Negative vol penalty>
0.000

$$$$

  -OEChem-04052300433D

 83 91  0     1  0  0  0  0  0999 V2000
  -32.8961  -28.4916   15.2997 C   0  0  0  0  0  0  0  0  0  0  0  0
  -32.5434  -27.6800   16.3731 C   0  0  0  0  0  0  0  0  0  0  0  0
  -22.8782  -10.2317   19.9784 C   0  0  0  0  0  0  0  0  0  0  0  0
  -24.0803   -9.5474   21.9593 C   0  0  0  0  0  0  0  0  0  0  0  0
  -32.2505  -29.7125   15.1087 C   0  0  0  0  0  0  0  0  0  0  0  0
  -31.5455  -28.0894   17.2569 C   0  0  0  0  0  0  0  0  0  0  0  0
  -28.2889  -24.3734   18.3664 C   0  0  0  0  0  0  0  0  0  0  0  0
  -22.1203   -9.0621   20.0343 C   0  0  0  0  0  0  0  0  0  0  0  0
  -23.3223   -8.3778   22.0152 C   0  0  0  0  0  0  0  0  0  0  0  0
  -28.7053  -23.4168   19.2911 C   0  0  0  0  0  0  0  0  0  0  0  0
  -21.4578   -5.3811   22.8879 C   0  0  0  0  0  0  0  0  0  0  0  0
  -20.9501   -4.9951   24.1283 C   0  0  0  0  0  0  0  0  0  0  0  0
  -29.9740  -17.2809   20.8164 C   0  0  0  0  0  0  0  0  0  0  0  0
  -27.4396  -24.5378   21.0118 C   0  0  0  0  0  0  0  0  0  0  0  0
  -28.2702  -17.8906   22.9397 C   0  0  0  0  0  0  0  0  0  0  0  0
  -19.7235   -7.0716   24.2724 C   0  0  0  0  0  0  0  0  0  0  0  0
  -23.8583  -10.4744   20.9409 C   0  0  0  0  0  0  0  0  0  0  0  0
  -29.8118  -16.3734   21.8632 C   0  0  0  0  0  0  0  0  0  0  0  0
  -24.3456  -12.9174   21.4901 C   0  0  0  0  0  0  0  0  0  0  0  0
  -31.2375  -30.1327   15.9851 C   0  0  0  0  0  0  0  0  0  0  0  0
  -27.4520  -25.4274   18.7605 C   0  0  0  0  0  0  0  0  0  0  0  0
  -30.8867  -29.3177   17.0783 C   0  0  0  0  0  0  0  0  0  0  0  0
  -27.0118  -25.5050   20.0895 C   0  0  0  0  0  0  0  0  0  0  0  0
  -29.2843  -18.4933   20.8313 C   0  0  0  0  0  0  0  0  0  0  0  0
  -28.9599  -16.6783   22.9248 C   0  0  0  0  0  0  0  0  0  0  0  0
  -22.3423   -8.1351   21.0527 C   0  0  0  0  0  0  0  0  0  0  0  0
  -28.2831  -23.5005   20.6147 C   0  0  0  0  0  0  0  0  0  0  0  0
  -21.0985   -6.6124   22.3397 C   0  0  0  0  0  0  0  0  0  0  0  0
  -28.4324  -18.7981   21.8928 C   0  0  0  0  0  0  0  0  0  0  0  0
  -20.0829   -5.8403   24.8206 C   0  0  0  0  0  0  0  0  0  0  0  0
  -20.2313   -7.4576   23.0319 C   0  0  0  0  0  0  0  0  0  0  0  0
  -24.6419  -11.6821   20.8834 C   0  0  0  0  0  0  0  0  0  0  0  0
  -25.3929  -13.7331   21.1374 C   0  0  0  0  0  0  0  0  0  0  0  0
  -30.5482  -15.1163   21.8194 C   0  0  0  0  0  0  0  0  0  0  0  0
  -23.2241  -13.2938   22.3002 C   0  0  0  0  0  0  0  0  0  0  0  0
  -30.9037  -14.4781   20.5312 C   0  0  0  0  0  0  0  0  0  0  0  0
  -27.7138  -28.5945   18.8283 C   0  0  0  0  0  0  0  0  0  0  0  0
  -24.5944  -28.4439   19.7053 C   0  0  0  0  0  0  0  0  0  0  0  0
  -22.0610  -26.6311   21.0990 C   0  0  0  0  0  0  0  0  0  0  0  0
  -30.6010  -31.4822   15.7652 C   0  0  0  0  0  0  0  0  0  0  0  0
  -26.9900  -26.4361   17.7449 C   0  0  0  0  0  0  0  0  0  0  0  0
  -26.0967  -26.6054   20.5588 C   0  0  0  0  0  0  0  0  0  0  0  0
  -29.2944  -31.6715   16.5315 C   0  0  0  0  0  0  0  0  0  0  0  0
  -29.0961  -13.0840   17.7661 C   0  0  0  0  0  0  0  0  0  0  0  0
  -29.4514  -31.2094   17.9767 C   0  0  0  0  0  0  0  0  0  0  0  0
  -27.7667  -12.6612   18.3904 C   0  0  0  0  0  0  0  0  0  0  0  0
  -30.2528  -12.9112   18.7452 C   0  0  0  0  0  0  0  0  0  0  0  0
  -28.7228  -13.2035   20.6746 C   0  0  0  0  0  0  0  0  0  0  0  0
  -29.7920  -29.7158   18.0444 C   0  0  1  0  0  0  0  0  0  0  0  0
  -26.5532  -27.7571   18.3707 C   0  0  1  0  0  0  0  0  0  0  0  0
  -27.5268  -13.3899   19.7247 C   0  0  2  0  0  0  0  0  0  0  0  0
  -19.6333  -26.7886   21.7145 C   0  0  0  0  0  0  0  0  0  0  0  0
  -25.3209  -30.1583   22.1225 C   0  0  0  0  0  0  0  0  0  0  0  0
  -23.1424  -29.4929   23.1616 C   0  0  0  0  0  0  0  0  0  0  0  0
  -23.1617  -30.7715   21.0197 C   0  0  0  0  0  0  0  0  0  0  0  0
  -21.3383  -24.4033   19.2897 C   0  0  0  0  0  0  0  0  0  0  0  0
  -27.7994  -22.2799   22.5976 C   0  0  0  0  0  0  0  0  0  1  0  0
  -27.9977  -20.8404   23.0313 C   0  0  0  0  0  0  0  0  0  0  0  0
  -23.8569  -28.3407   21.0185 C   0  0  1  0  0  0  0  0  0  0  0  0
  -20.6344  -26.3796   20.6452 C   0  0  2  0  0  0  0  0  0  0  0  0
  -23.8893  -29.6711   21.8225 C   0  0  0  0  0  0  0  0  0  0  0  0
  -25.7875  -11.7063   20.1971 N   0  0  0  0  0  0  0  0  0  0  0  0
  -30.9387  -14.4807   22.8889 N   0  0  0  0  0  0  0  0  0  0  0  0
  -26.2203  -12.9668   20.3704 N   0  0  0  0  0  0  0  0  0  0  0  0
  -29.9771  -13.5842   20.0130 N   0  0  0  0  0  0  0  0  0  0  0  0
  -25.6776  -27.5712   19.5297 N   0  0  0  0  0  0  0  0  0  0  0  0
  -29.4579  -19.4028   19.7652 N   0  0  0  0  0  0  0  0  0  0  0  0
  -28.7828  -15.7735   23.9952 N   0  0  0  0  0  0  0  0  0  0  0  0
  -25.6774  -15.0240   21.4116 N   0  0  0  0  0  0  0  0  0  0  0  0
  -22.2389  -12.3329   22.5653 N   0  0  0  0  0  0  0  0  0  0  0  0
  -28.6060  -28.9164   17.8234 N   0  0  0  0  0  0  0  0  0  0  0  0
  -22.5142  -27.8696   20.6966 N   0  0  0  0  0  0  0  0  0  0  0  0
  -20.4343  -24.9342   20.3423 N   0  3  0  0  0  0  0  0  0  0  0  0
  -23.0912  -14.4528   22.7614 O   0  0  0  0  0  0  0  0  0  0  0  0
  -31.9833  -14.8092   20.0588 O   0  0  0  0  0  0  0  0  0  0  0  0
  -27.7931  -28.9254   20.0055 O   0  0  0  0  0  0  0  0  0  0  0  0
  -24.2187  -29.2635   18.8635 O   0  0  0  0  0  0  0  0  0  0  0  0
  -22.7073  -25.8124   21.7489 O   0  0  0  0  0  0  0  0  0  0  0  0
  -21.6028   -6.9938   21.1077 O   0  0  0  0  0  0  0  0  0  0  0  0
  -28.6886  -22.5684   21.5195 O   0  0  0  0  0  0  0  0  0  1  0  0
  -27.7450  -19.9828   21.9249 O   0  0  0  0  0  0  0  0  0  0  0  0
  -19.5942   -5.4688   26.0111 F   0  0  0  0  0  0  0  0  0  0  0  0
  -19.8815   -8.6412   22.5098 F   0  0  0  0  0  0  0  0  0  0  0  0
  1  2  1  0  0  0  0
  1  5  2  0  0  0  0
  2  6  2  0  0  0  0
  3  8  2  0  0  0  0
  3 17  1  0  0  0  0
  4  9  1  0  0  0  0
  4 17  2  0  0  0  0
  5 20  1  0  0  0  0
  6 22  1  0  0  0  0
  7 10  2  0  0  0  0
  7 21  1  0  0  0  0
  8 26  1  0  0  0  0
  9 26  2  0  0  0  0
 10 27  1  0  0  0  0
 11 12  2  0  0  0  0
 11 28  1  0  0  0  0
 12 30  1  0  0  0  0
 13 18  2  0  0  0  0
 13 24  1  0  0  0  0
 14 23  1  0  0  0  0
 14 27  2  0  0  0  0
 15 25  2  0  0  0  0
 15 29  1  0  0  0  0
 16 30  2  0  0  0  0
 16 31  1  0  0  0  0
 17 32  1  0  0  0  0
 18 25  1  0  0  0  0
 18 34  1  0  0  0  0
 19 32  1  0  0  0  0
 19 33  2  0  0  0  0
 19 35  1  0  0  0  0
 20 22  2  0  0  0  0
 20 40  1  0  0  0  0
 21 23  2  0  0  0  0
 21 41  1  0  0  0  0
 22 49  1  0  0  0  0
 23 42  1  0  0  0  0
 24 29  2  0  0  0  0
 24 67  1  0  0  0  0
 25 68  1  0  0  0  0
 26 79  1  0  0  0  0
 27 80  1  0  0  0  0
 28 31  2  0  0  0  0
 28 79  1  0  0  0  0
 29 81  1  0  0  0  0
 30 82  1  0  0  0  0
 31 83  1  0  0  0  0
 32 62  2  0  0  0  0
 33 64  1  0  0  0  0
 33 69  1  0  0  0  0
 34 36  1  0  0  0  0
 34 63  2  0  0  0  0
 35 70  1  0  0  0  0
 35 74  2  0  0  0  0
 36 65  1  0  0  0  0
 36 75  2  0  0  0  0
 37 50  1  0  0  0  0
 37 71  1  0  0  0  0
 37 76  2  0  0  0  0
 38 59  1  0  0  0  0
 38 66  1  0  0  0  0
 38 77  2  0  0  0  0
 39 60  1  0  0  0  0
 39 72  1  0  0  0  0
 39 78  2  0  0  0  0
 40 43  1  0  0  0  0
 41 50  1  0  0  0  0
 42 66  1  0  0  0  0
 43 45  1  0  0  0  0
 44 46  1  0  0  0  0
 44 47  1  0  0  0  0
 45 49  1  0  0  0  0
 46 51  1  0  0  0  0
 47 65  1  0  0  0  0
 48 51  1  0  0  0  0
 48 65  1  0  0  0  0
 49 71  1  0  0  0  0
 50 66  1  0  0  0  0
 51 64  1  0  0  0  0
 52 60  1  0  0  0  0
 53 61  1  0  0  0  0
 54 61  1  0  0  0  0
 55 61  1  0  0  0  0
 56 73  1  0  0  0  0
 57 58  1  0  0  0  0
 57 80  1  0  0  0  0
 58 81  1  0  0  0  0
 59 61  1  0  0  0  0
 59 72  1  0  0  0  0
 60 73  1  0  0  0  0
 62 64  1  0  0  0  0
M  CHG  1  73   1
M  ISO  4  34 100  36 100  57 101  80 101
M  END
> <Batch ID>
0095

> <Smiles>
CNC(C)C(=O)NC(C(=O)N1Cc2cc([101O:1][101CH2:1]COc3cc(N)c([100C:0](=N)[100C:0](=O)N4CCCC(n5nc(-c6ccc(Oc7ccc(F)cc7F)cc6)c(C(N)=O)c5N)C4)cc3N)ccc2CC1C(=O)NC1CCCc2ccccc21)C(C)(C)C

> <Shape>
0.307

> <Color>
0.134

> <Negative vol penalty>
0.000

$$$$

  -OEChem-04052300433D

 85 93  0     1  0  0  0  0  0999 V2000
  -34.6180  -12.4708   19.5574 C   0  0  0  0  0  0  0  0  0  0  0  0
  -33.7381  -13.5458   19.4838 C   0  0  0  0  0  0  0  0  0  0  0  0
  -22.6813  -26.6418   25.5531 C   0  0  0  0  0  0  0  0  0  0  0  0
  -22.2578  -28.9489   26.1320 C   0  0  0  0  0  0  0  0  0  0  0  0
  -26.6102  -25.0067   21.7307 C   0  0  0  0  0  0  0  0  0  0  0  0
  -34.1978  -11.1996   19.1683 C   0  0  0  0  0  0  0  0  0  0  0  0
  -32.4376  -13.3505   19.0200 C   0  0  0  0  0  0  0  0  0  0  0  0
  -28.9813  -15.6991   21.8805 C   0  0  0  0  0  0  0  0  0  0  0  0
  -26.4892  -23.6372   21.4953 C   0  0  0  0  0  0  0  0  0  0  0  0
  -22.8074  -26.3255   26.9057 C   0  0  0  0  0  0  0  0  0  0  0  0
  -22.3838  -28.6326   27.4847 C   0  0  0  0  0  0  0  0  0  0  0  0
  -28.8319  -17.0733   21.6989 C   0  0  0  0  0  0  0  0  0  0  0  0
  -25.1514  -26.6167   29.3234 C   0  0  0  0  0  0  0  0  0  0  0  0
  -26.2201  -25.8039   29.7012 C   0  0  0  0  0  0  0  0  0  0  0  0
  -26.8871  -16.6747   20.3286 C   0  0  0  0  0  0  0  0  0  0  0  0
  -24.6688  -24.1671   30.5680 C   0  0  0  0  0  0  0  0  0  0  0  0
  -22.4065  -27.9535   25.1662 C   0  0  0  0  0  0  0  0  0  0  0  0
  -27.5299  -25.7611   21.0021 C   0  0  0  0  0  0  0  0  0  0  0  0
  -21.1001  -28.2591   22.9965 C   0  0  0  0  0  0  0  0  0  0  0  0
  -32.8886  -10.9867   18.7086 C   0  0  0  0  0  0  0  0  0  0  0  0
  -28.0896  -14.8004   21.2776 C   0  0  0  0  0  0  0  0  0  0  0  0
  -31.9999  -12.0755   18.6231 C   0  0  0  0  0  0  0  0  0  0  0  0
  -27.0258  -15.2896   20.5062 C   0  0  0  0  0  0  0  0  0  0  0  0
  -27.2880  -23.0220   20.5314 C   0  0  0  0  0  0  0  0  0  0  0  0
  -28.2077  -23.7763   19.8028 C   0  0  0  0  0  0  0  0  0  0  0  0
  -22.6586  -27.3208   27.8715 C   0  0  0  0  0  0  0  0  0  0  0  0
  -27.7864  -17.5612   20.9205 C   0  0  0  0  0  0  0  0  0  0  0  0
  -23.8413  -26.2048   29.5679 C   0  0  0  0  0  0  0  0  0  0  0  0
  -25.9788  -24.5791   30.3235 C   0  0  0  0  0  0  0  0  0  0  0  0
  -23.6000  -24.9799   30.1902 C   0  0  0  0  0  0  0  0  0  0  0  0
  -28.3287  -25.1458   20.0382 C   0  0  0  0  0  0  0  0  0  0  0  0
  -22.2768  -28.2810   23.7691 C   0  0  0  0  0  0  0  0  0  0  0  0
  -21.5049  -28.6488   21.7432 C   0  0  0  0  0  0  0  0  0  0  0  0
  -27.6519  -27.2085   21.2527 C   0  0  0  0  0  0  0  0  0  0  0  0
  -19.7609  -27.9172   23.3778 C   0  0  0  0  0  0  0  0  0  0  0  0
  -28.3618  -12.4672   19.1361 C   0  0  0  0  0  0  0  0  0  0  0  0
  -25.2375  -11.9721   19.8548 C   0  0  0  0  0  0  0  0  0  0  0  0
  -22.3019  -13.2422   21.0446 C   0  0  0  0  0  0  0  0  0  0  0  0
  -26.8757  -28.9903   22.7476 C   0  0  0  0  0  0  0  0  0  0  0  0
  -32.4946   -9.6035   18.2545 C   0  0  0  0  0  0  0  0  0  0  0  0
  -28.2487  -13.3221   21.5051 C   0  0  0  0  0  0  0  0  0  0  0  0
  -26.0295  -14.3676   19.8539 C   0  0  0  0  0  0  0  0  0  0  0  0
  -30.9855   -9.4107   18.1283 C   0  0  0  0  0  0  0  0  0  0  0  0
  -24.7310  -31.5627   21.5225 C   0  0  0  0  0  0  0  0  0  0  0  0
  -30.3573  -10.5861   17.3864 C   0  0  0  0  0  0  0  0  0  0  0  0
  -23.7845  -30.8524   20.5590 C   0  0  0  0  0  0  0  0  0  0  0  0
  -26.1301  -30.9669   21.4515 C   0  0  0  0  0  0  0  0  0  0  0  0
  -25.2158  -28.7469   20.8203 C   0  0  0  0  0  0  0  0  0  0  0  0
  -30.5738  -11.8990   18.1487 C   0  0  1  0  0  0  0  0  0  0  0  0
  -27.5855  -12.4761   20.4226 C   0  0  1  0  0  0  0  0  0  0  0  0
  -23.7865  -29.3234   20.7269 C   0  0  1  0  0  0  0  0  0  0  0  0
  -19.9125  -12.6082   21.4761 C   0  0  0  0  0  0  0  0  0  0  0  0
  -24.6489  -12.1666   16.8672 C   0  0  0  0  0  0  0  0  0  0  0  0
  -22.2308  -12.4810   17.4350 C   0  0  0  0  0  0  0  0  0  0  0  0
  -23.3927  -10.3647   18.0628 C   0  0  0  0  0  0  0  0  0  0  0  0
  -27.9371  -27.0179   23.7233 C   0  0  0  0  0  0  0  0  0  0  0  0
  -22.5647  -13.7683   23.9451 C   0  0  0  0  0  0  0  0  0  0  0  0
  -26.2205  -20.8237   21.0348 C   0  0  0  0  0  0  0  0  0  0  0  0
  -26.3118  -19.3886   20.5437 C   0  0  0  0  0  0  0  0  0  1  0  0
  -23.9231  -12.4910   19.3236 C   0  0  1  0  0  0  0  0  0  0  0  0
  -21.3119  -12.7064   22.0632 C   0  0  2  0  0  0  0  0  0  0  0  0
  -23.5686  -11.8934   17.9327 C   0  0  0  0  0  0  0  0  0  0  0  0
  -23.3487  -28.6549   23.0654 N   0  0  0  0  0  0  0  0  0  0  0  0
  -22.8472  -28.8715   21.8375 N   0  0  0  0  0  0  0  0  0  0  0  0
  -26.2311  -12.9303   20.1009 N   0  0  0  0  0  0  0  0  0  0  0  0
  -26.1098  -29.5248   21.6924 N   0  0  0  0  0  0  0  0  0  0  0  0
  -29.0250  -23.1704   18.8224 N   0  0  0  0  0  0  0  0  0  0  0  0
  -20.8401  -28.8193   20.5808 N   0  0  0  0  0  0  0  0  0  0  0  0
  -19.5202  -27.5390   24.7057 N   0  0  0  0  0  0  0  0  0  0  0  0
  -27.1522  -21.6608   20.3144 N   0  0  0  0  0  0  0  0  0  0  0  0
  -29.6541  -11.9944   19.2620 N   0  0  0  0  0  0  0  0  0  0  0  0
  -22.9306  -12.2243   20.3591 N   0  0  0  0  0  0  0  0  0  0  0  0
  -27.3738  -27.6861   22.5492 N   0  0  0  0  0  0  0  0  0  0  0  0
  -21.2601  -13.6000   23.2547 N   0  3  0  0  0  0  0  0  0  0  0  0
  -28.0066  -27.9049   20.3019 O   0  0  0  0  0  0  0  0  0  0  0  0
  -18.8090  -27.9303   22.5609 O   0  0  0  0  0  0  0  0  0  0  0  0
  -27.8273  -12.8587   18.1052 O   0  0  0  0  0  0  0  0  0  0  0  0
  -25.3751  -10.7621   20.0510 O   0  0  0  0  0  0  0  0  0  0  0  0
  -22.4951  -14.4435   20.8715 O   0  0  0  0  0  0  0  0  0  0  0  0
  -27.1244  -29.6247   23.7792 O   0  0  0  0  0  0  0  0  0  0  0  0
  -22.7813  -27.0125   29.1915 O   0  0  0  0  0  0  0  0  0  0  0  0
  -27.6387  -18.9020   20.7411 O   0  0  0  0  0  0  0  0  0  1  0  0
  -27.0051  -23.7979   30.6849 F   0  0  0  0  0  0  0  0  0  0  0  0
  -22.3436  -24.5783   30.4267 F   0  0  0  0  0  0  0  0  0  0  0  0
  -29.2131  -25.8722   19.3375 F   0  0  0  0  0  0  0  0  0  0  0  0
  1  2  1  0  0  0  0
  1  6  2  0  0  0  0
  2  7  2  0  0  0  0
  3 10  2  0  0  0  0
  3 17  1  0  0  0  0
  4 11  1  0  0  0  0
  4 17  2  0  0  0  0
  5  9  2  0  0  0  0
  5 18  1  0  0  0  0
  6 20  1  0  0  0  0
  7 22  1  0  0  0  0
  8 12  2  0  0  0  0
  8 21  1  0  0  0  0
  9 24  1  0  0  0  0
 10 26  1  0  0  0  0
 11 26  2  0  0  0  0
 12 27  1  0  0  0  0
 13 14  2  0  0  0  0
 13 28  1  0  0  0  0
 14 29  1  0  0  0  0
 15 23  1  0  0  0  0
 15 27  2  0  0  0  0
 16 29  2  0  0  0  0
 16 30  1  0  0  0  0
 17 32  1  0  0  0  0
 18 31  2  0  0  0  0
 18 34  1  0  0  0  0
 19 32  1  0  0  0  0
 19 33  2  0  0  0  0
 19 35  1  0  0  0  0
 20 22  2  0  0  0  0
 20 40  1  0  0  0  0
 21 23  2  0  0  0  0
 21 41  1  0  0  0  0
 22 49  1  0  0  0  0
 23 42  1  0  0  0  0
 24 25  2  0  0  0  0
 24 70  1  0  0  0  0
 25 31  1  0  0  0  0
 25 67  1  0  0  0  0
 26 81  1  0  0  0  0
 27 82  1  0  0  0  0
 28 30  2  0  0  0  0
 28 81  1  0  0  0  0
 29 83  1  0  0  0  0
 30 84  1  0  0  0  0
 31 85  1  0  0  0  0
 32 63  2  0  0  0  0
 33 64  1  0  0  0  0
 33 68  1  0  0  0  0
 34 73  1  0  0  0  0
 34 75  2  0  0  0  0
 35 69  1  0  0  0  0
 35 76  2  0  0  0  0
 36 50  1  0  0  0  0
 36 71  1  0  0  0  0
 36 77  2  0  0  0  0
 37 60  1  0  0  0  0
 37 65  1  0  0  0  0
 37 78  2  0  0  0  0
 38 61  1  0  0  0  0
 38 72  1  0  0  0  0
 38 79  2  0  0  0  0
 39 66  1  0  0  0  0
 39 73  1  0  0  0  0
 39 80  2  0  0  0  0
 40 43  1  0  0  0  0
 41 50  1  0  0  0  0
 42 65  1  0  0  0  0
 43 45  1  0  0  0  0
 44 46  1  0  0  0  0
 44 47  1  0  0  0  0
 45 49  1  0  0  0  0
 46 51  1  0  0  0  0
 47 66  1  0  0  0  0
 48 51  1  0  0  0  0
 48 66  1  0  0  0  0
 49 71  1  0  0  0  0
 50 65  1  0  0  0  0
 51 64  1  0  0  0  0
 52 61  1  0  0  0  0
 53 62  1  0  0  0  0
 54 62  1  0  0  0  0
 55 62  1  0  0  0  0
 56 73  1  0  0  0  0
 57 74  1  0  0  0  0
 58 59  1  0  0  0  0
 58 70  1  0  0  0  0
 59 82  1  0  0  0  0
 60 62  1  0  0  0  0
 60 72  1  0  0  0  0
 61 74  1  0  0  0  0
 63 64  1  0  0  0  0
M  CHG  1  74   1
M  ISO  4  39 100  59 101  73 100  82 101
M  END
> <Batch ID>
0095

> <Smiles>
CNC(C)C(=O)NC(C(=O)N1Cc2cc([101O:1][101CH2:1]CNc3ccc(C(=O)[100N:0](C)[100C:0](=O)N4CCCC(n5nc(-c6ccc(Oc7ccc(F)cc7F)cc6)c(C(N)=O)c5N)C4)c(F)c3N)ccc2CC1C(=O)NC1CCCc2ccccc21)C(C)(C)C

> <Shape>
0.235

> <Color>
0.082

> <Negative vol penalty>
0.000

$$$$

  -OEChem-04052300433D

 89 98  0     1  0  0  0  0  0999 V2000
  -30.9474  -25.5554   29.5480 C   0  0  0  0  0  0  0  0  0  0  0  0
  -30.3850  -25.1482   28.3424 C   0  0  0  0  0  0  0  0  0  0  0  0
  -23.0305  -10.0361   19.9979 C   0  0  0  0  0  0  0  0  0  0  0  0
  -24.5535   -9.3588   21.7468 C   0  0  0  0  0  0  0  0  0  0  0  0
  -30.4154  -26.6489   30.2299 C   0  0  0  0  0  0  0  0  0  0  0  0
  -29.2896  -25.8339   27.8185 C   0  0  0  0  0  0  0  0  0  0  0  0
  -28.0565  -26.8315   21.9033 C   0  0  0  0  0  0  0  0  0  0  0  0
  -21.9800   -9.4128   20.6713 C   0  0  0  0  0  0  0  0  0  0  0  0
  -23.5030   -8.7355   22.4202 C   0  0  0  0  0  0  0  0  0  0  0  0
  -27.2115  -26.1885   20.9999 C   0  0  0  0  0  0  0  0  0  0  0  0
  -21.7666   -5.8433   22.1946 C   0  0  0  0  0  0  0  0  0  0  0  0
  -21.9929   -4.5662   22.7077 C   0  0  0  0  0  0  0  0  0  0  0  0
  -24.4162  -19.5372   19.4999 C   0  0  0  0  0  0  0  0  0  0  0  0
  -25.4979  -27.8266   21.4459 C   0  0  0  0  0  0  0  0  0  0  0  0
  -26.8021  -19.1742   20.8994 C   0  0  0  0  0  0  0  0  0  0  0  0
  -21.5187   -5.3766   24.9338 C   0  0  0  0  0  0  0  0  0  0  0  0
  -24.3173  -10.0091   20.5356 C   0  0  0  0  0  0  0  0  0  0  0  0
  -25.1002  -18.3249   19.4096 C   0  0  0  0  0  0  0  0  0  0  0  0
  -25.8727  -10.3634   18.5449 C   0  0  0  0  0  0  0  0  0  0  0  0
  -29.3190  -27.3543   29.7093 C   0  0  0  0  0  0  0  0  0  0  0  0
  -27.6239  -27.9726   22.5941 C   0  0  0  0  0  0  0  0  0  0  0  0
  -28.7417  -26.9371   28.4948 C   0  0  0  0  0  0  0  0  0  0  0  0
  -26.3402  -28.4838   22.3556 C   0  0  0  0  0  0  0  0  0  0  0  0
  -24.9252  -20.5680   20.2898 C   0  0  0  0  0  0  0  0  0  0  0  0
  -26.2931  -18.1434   20.1094 C   0  0  0  0  0  0  0  0  0  0  0  0
  -26.1181  -20.3865   20.9896 C   0  0  0  0  0  0  0  0  0  0  0  0
  -22.2162   -8.7625   21.8825 C   0  0  0  0  0  0  0  0  0  0  0  0
  -25.9310  -26.6843   20.7732 C   0  0  0  0  0  0  0  0  0  0  0  0
  -21.4164   -6.8871   23.0511 C   0  0  0  0  0  0  0  0  0  0  0  0
  -21.8689   -4.3328   24.0774 C   0  0  0  0  0  0  0  0  0  0  0  0
  -21.2925   -6.6537   24.4207 C   0  0  0  0  0  0  0  0  0  0  0  0
  -25.4030  -10.6524   19.8402 C   0  0  0  0  0  0  0  0  0  0  0  0
  -26.9081  -11.2447   18.3507 C   0  0  0  0  0  0  0  0  0  0  0  0
  -22.9220  -24.2904   20.5019 C   0  0  0  0  0  0  0  0  0  0  0  0
  -24.5434  -17.2688   18.5734 C   0  0  0  0  0  0  0  0  0  0  0  0
  -25.4140   -9.3859   17.6017 C   0  0  0  0  0  0  0  0  0  0  0  0
  -27.1758  -28.7068   25.6541 C   0  0  0  0  0  0  0  0  0  0  0  0
  -26.6089  -31.6680   24.4574 C   0  0  0  0  0  0  0  0  0  0  0  0
  -25.6750  -34.8491   23.6478 C   0  0  0  0  0  0  0  0  0  0  0  0
  -28.2021  -16.5978   20.6691 C   0  0  0  0  0  0  0  0  0  0  0  0
  -28.7490  -28.5010   30.5060 C   0  0  0  0  0  0  0  0  0  0  0  0
  -28.5570  -28.6703   23.5454 C   0  0  0  0  0  0  0  0  0  0  0  0
  -25.8351  -29.7175   23.0566 C   0  0  0  0  0  0  0  0  0  0  0  0
  -23.0484  -23.4409   21.7451 C   0  0  0  0  0  0  0  0  0  0  0  0
  -27.8222  -29.4041   29.6961 C   0  0  0  0  0  0  0  0  0  0  0  0
  -30.2495  -13.6863   20.7606 C   0  0  0  0  0  0  0  0  0  0  0  0
  -26.8360  -28.5683   28.8864 C   0  0  0  0  0  0  0  0  0  0  0  0
  -29.2831  -12.5523   20.4111 C   0  0  0  0  0  0  0  0  0  0  0  0
  -23.2061  -21.9643   21.4039 C   0  0  0  0  0  0  0  0  0  0  0  0
  -29.5791  -14.7592   21.6169 C   0  0  0  0  0  0  0  0  0  0  0  0
  -24.0200  -22.5245   19.1187 C   0  0  0  0  0  0  0  0  0  0  0  0
  -27.3632  -14.1668   20.7181 C   0  0  0  0  0  0  0  0  0  0  0  0
  -27.5684  -27.6705   27.8819 C   0  0  1  0  0  0  0  0  0  0  0  0
  -23.9189  -24.0276   19.3883 C   0  0  2  0  0  0  0  0  0  0  0  0
  -27.8286  -29.5261   24.5770 C   0  0  1  0  0  0  0  0  0  0  0  0
  -27.9750  -13.0943   19.8022 C   0  0  2  0  0  0  0  0  0  0  0  0
  -24.3815  -36.8083   24.5342 C   0  0  0  0  0  0  0  0  0  0  0  0
  -23.9955  -30.2369   23.7999 C   0  0  0  0  0  0  0  0  0  0  0  0
  -22.8597  -32.4680   23.7809 C   0  0  0  0  0  0  0  0  0  0  0  0
  -23.9277  -31.6320   25.8744 C   0  0  0  0  0  0  0  0  0  0  0  0
  -28.0657  -36.5933   23.6085 C   0  0  0  0  0  0  0  0  0  0  0  0
  -25.2678  -24.6492   19.7367 C   0  0  0  0  0  0  0  0  0  1  0  0
  -25.3884  -32.4049   23.9611 C   0  0  1  0  0  0  0  0  0  0  0  0
  -25.7481  -36.1496   24.4274 C   0  0  2  0  0  0  0  0  0  0  0  0
  -24.0651  -31.6804   24.3371 C   0  0  0  0  0  0  0  0  0  0  0  0
  -26.0842  -11.6398   20.4274 N   0  0  0  0  0  0  0  0  0  0  0  0
  -26.9926  -11.9790   19.4969 N   0  0  0  0  0  0  0  0  0  0  0  0
  -24.2245  -21.7755   20.3667 N   0  0  2  0  0  0  0  0  0  0  0  0
  -26.7825  -30.3604   23.9821 N   0  0  0  0  0  0  0  0  0  0  0  0
  -28.3490  -15.2283   20.9753 N   0  0  0  0  0  0  0  0  0  0  0  0
  -26.6507  -21.4171   21.7962 N   0  0  0  0  0  0  0  0  0  0  0  0
  -27.7455  -11.4552   17.3130 N   0  0  0  0  0  0  0  0  0  0  0  0
  -23.6631  -16.3723   19.1687 N   0  0  0  0  0  0  0  0  0  0  0  0
  -25.9883   -8.1078   17.6314 N   0  0  0  0  0  0  0  0  0  0  0  0
  -27.0049  -16.9207   20.0311 N   0  0  0  0  0  0  0  0  0  0  0  0
  -27.9962  -28.4408   26.7338 N   0  0  0  0  0  0  0  0  0  0  0  0
  -25.4935  -33.7645   24.4796 N   0  0  0  0  0  0  0  0  0  0  0  0
  -26.6783  -37.1028   23.7588 N   0  3  0  0  0  0  0  0  0  0  0  0
  -22.1140  -25.2165   20.4367 O   0  0  0  0  0  0  0  0  0  0  0  0
  -24.8560  -17.1616   17.3763 O   0  0  0  0  0  0  0  0  0  0  0  0
  -24.5329   -9.6434   16.7467 O   0  0  0  0  0  0  0  0  0  0  0  0
  -26.0134  -28.3441   25.5166 O   0  0  0  0  0  0  0  0  0  0  0  0
  -27.3836  -32.2343   25.2325 O   0  0  0  0  0  0  0  0  0  0  0  0
  -25.7659  -34.8006   22.4231 O   0  0  0  0  0  0  0  0  0  0  0  0
  -29.0857  -17.4190   20.9276 O   0  0  0  0  0  0  0  0  0  0  0  0
  -21.1913   -8.1543   22.5400 O   0  0  0  0  0  0  0  0  0  0  0  0
  -25.1039  -26.0581   19.8924 O   0  0  0  0  0  0  0  0  0  1  0  0
  -22.0847   -3.1060   24.5698 F   0  0  0  0  0  0  0  0  0  0  0  0
  -20.9552   -7.6523   25.2483 F   0  0  0  0  0  0  0  0  0  0  0  0
  1  2  1  0  0  0  0
  1  5  2  0  0  0  0
  2  6  2  0  0  0  0
  3  8  2  0  0  0  0
  3 17  1  0  0  0  0
  4  9  1  0  0  0  0
  4 17  2  0  0  0  0
  5 20  1  0  0  0  0
  6 22  1  0  0  0  0
  7 10  2  0  0  0  0
  7 21  1  0  0  0  0
  8 27  1  0  0  0  0
  9 27  2  0  0  0  0
 10 28  1  0  0  0  0
 11 12  2  0  0  0  0
 11 29  1  0  0  0  0
 12 30  1  0  0  0  0
 13 18  2  0  0  0  0
 13 24  1  0  0  0  0
 14 23  1  0  0  0  0
 14 28  2  0  0  0  0
 15 25  2  0  0  0  0
 15 26  1  0  0  0  0
 16 30  2  0  0  0  0
 16 31  1  0  0  0  0
 17 32  1  0  0  0  0
 18 25  1  0  0  0  0
 18 35  1  0  0  0  0
 19 32  1  0  0  0  0
 19 33  2  0  0  0  0
 19 36  1  0  0  0  0
 20 22  2  0  0  0  0
 20 41  1  0  0  0  0
 21 23  2  0  0  0  0
 21 42  1  0  0  0  0
 22 53  1  0  0  0  0
 23 43  1  0  0  0  0
 24 26  2  0  0  0  0
 24 68  1  0  0  0  0
 25 75  1  0  0  0  0
 26 71  1  0  0  0  0
 27 86  1  0  0  0  0
 28 87  1  0  0  0  0
 29 31  2  0  0  0  0
 29 86  1  0  0  0  0
 30 88  1  0  0  0  0
 31 89  1  0  0  0  0
 32 66  2  0  0  0  0
 33 67  1  0  0  0  0
 33 72  1  0  0  0  0
 34 44  1  0  0  0  0
 34 54  1  0  0  0  0
 34 79  2  0  0  0  0
 35 73  1  0  0  0  0
 35 80  2  0  0  0  0
 36 74  1  0  0  0  0
 36 81  2  0  0  0  0
 37 55  1  0  0  0  0
 37 76  1  0  0  0  0
 37 82  2  0  0  0  0
 38 63  1  0  0  0  0
 38 69  1  0  0  0  0
 38 83  2  0  0  0  0
 39 64  1  0  0  0  0
 39 77  1  0  0  0  0
 39 84  2  0  0  0  0
 40 70  1  0  0  0  0
 40 75  1  0  0  0  0
 40 85  2  0  0  0  0
 41 45  1  0  0  0  0
 42 55  1  0  0  0  0
 43 69  1  0  0  0  0
 44 49  1  0  0  0  0
 45 47  1  0  0  0  0
 46 48  1  0  0  0  0
 46 50  1  0  0  0  0
 47 53  1  0  0  0  0
 48 56  1  0  0  0  0
 49 68  1  0  0  0  0
 50 70  1  0  0  0  0
 51 54  1  0  0  0  0
 51 68  1  0  0  0  0
 52 56  1  0  0  0  0
 52 70  1  0  0  0  0
 53 76  1  0  0  0  0
 54 62  1  0  0  0  0
 55 69  1  0  0  0  0
 56 67  1  0  0  0  0
 57 64  1  0  0  0  0
 58 65  1  0  0  0  0
 59 65  1  0  0  0  0
 60 65  1  0  0  0  0
 61 78  1  0  0  0  0
 62 87  1  0  0  0  0
 63 65  1  0  0  0  0
 63 77  1  0  0  0  0
 64 78  1  0  0  0  0
 66 67  1  0  0  0  0
M  CHG  1  78   1
M  ISO  4  40 100  62 101  75 100  87 101
M  END
> <Batch ID>
0095

> <Smiles>
CNC(C)C(=O)NC(C(=O)N1Cc2cc([101O:1][101CH2:1]C3CN(c4cc(C(N)=O)c([100NH:0][100C:0](=O)N5CCCC(n6nc(-c7ccc(Oc8ccc(F)cc8F)cc7)c(C(N)=O)c6N)C5)cc4N)CCC3=O)ccc2CC1C(=O)NC1CCCc2ccccc21)C(C)(C)C

> <Shape>
0.252

> <Color>
0.115

> <Negative vol penalty>
0.000

$$$$

  -OEChem-04052300433D

 85 93  0     1  0  0  0  0  0999 V2000
  -16.9024  -25.6697   24.6880 C   0  0  0  0  0  0  0  0  0  0  0  0
  -17.6818  -24.6782   24.1008 C   0  0  0  0  0  0  0  0  0  0  0  0
  -23.1666  -17.5565   22.6775 C   0  0  0  0  0  0  0  0  0  0  0  0
  -24.5884  -16.1317   24.0138 C   0  0  0  0  0  0  0  0  0  0  0  0
  -17.0913  -27.0048   24.3335 C   0  0  0  0  0  0  0  0  0  0  0  0
  -18.6500  -25.0212   23.1577 C   0  0  0  0  0  0  0  0  0  0  0  0
  -24.0750  -22.3125   22.2987 C   0  0  0  0  0  0  0  0  0  0  0  0
  -22.7803  -16.4550   21.9140 C   0  0  0  0  0  0  0  0  0  0  0  0
  -24.2020  -15.0301   23.2503 C   0  0  0  0  0  0  0  0  0  0  0  0
  -24.5114  -21.3560   21.3830 C   0  0  0  0  0  0  0  0  0  0  0  0
  -24.9514  -13.7050   20.2314 C   0  0  0  0  0  0  0  0  0  0  0  0
  -25.9495  -12.8266   19.8097 C   0  0  0  0  0  0  0  0  0  0  0  0
  -28.8618  -21.0806   20.8275 C   0  0  0  0  0  0  0  0  0  0  0  0
  -25.3680  -23.1112   19.9671 C   0  0  0  0  0  0  0  0  0  0  0  0
  -30.6845  -20.4594   22.2866 C   0  0  0  0  0  0  0  0  0  0  0  0
  -24.8678  -11.0251   21.0020 C   0  0  0  0  0  0  0  0  0  0  0  0
  -24.0708  -17.3949   23.7274 C   0  0  0  0  0  0  0  0  0  0  0  0
  -29.1255  -19.9705   20.0253 C   0  0  0  0  0  0  0  0  0  0  0  0
  -23.6385  -19.3710   25.2817 C   0  0  0  0  0  0  0  0  0  0  0  0
  -18.0689  -27.3653   23.3927 C   0  0  0  0  0  0  0  0  0  0  0  0
  -24.2726  -23.6783   22.0499 C   0  0  0  0  0  0  0  0  0  0  0  0
  -18.8513  -26.3622   22.7893 C   0  0  0  0  0  0  0  0  0  0  0  0
  -24.9355  -24.0829   20.8825 C   0  0  0  0  0  0  0  0  0  0  0  0
  -29.6413  -21.3252   21.9581 C   0  0  0  0  0  0  0  0  0  0  0  0
  -30.9482  -19.3492   21.4844 C   0  0  0  0  0  0  0  0  0  0  0  0
  -30.1687  -19.1047   20.3537 C   0  0  0  0  0  0  0  0  0  0  0  0
  -23.2980  -15.1918   22.2004 C   0  0  0  0  0  0  0  0  0  0  0  0
  -25.1554  -21.7554   20.2156 C   0  0  0  0  0  0  0  0  0  0  0  0
  -23.9115  -13.2435   21.0385 C   0  0  0  0  0  0  0  0  0  0  0  0
  -25.9077  -11.4867   20.1950 C   0  0  0  0  0  0  0  0  0  0  0  0
  -23.8697  -11.9036   21.4238 C   0  0  0  0  0  0  0  0  0  0  0  0
  -24.4707  -18.5325   24.5161 C   0  0  0  0  0  0  0  0  0  0  0  0
  -24.4942  -20.2925   25.8339 C   0  0  0  0  0  0  0  0  0  0  0  0
  -28.2717  -19.7404   18.8220 C   0  0  0  0  0  0  0  0  0  0  0  0
  -22.2188  -19.3212   25.4764 C   0  0  0  0  0  0  0  0  0  0  0  0
  -22.3593  -26.1838   21.6425 C   0  0  0  0  0  0  0  0  0  0  0  0
  -25.1566  -27.8262   21.6356 C   0  0  0  0  0  0  0  0  0  0  0  0
  -28.5303  -27.8002   21.1212 C   0  0  0  0  0  0  0  0  0  0  0  0
  -29.6391  -22.4582   24.1734 C   0  0  0  0  0  0  0  0  0  0  0  0
  -18.2043  -28.8168   23.0064 C   0  0  0  0  0  0  0  0  0  0  0  0
  -23.8198  -24.6963   23.0604 C   0  0  0  0  0  0  0  0  0  0  0  0
  -25.1901  -25.5358   20.5781 C   0  0  0  0  0  0  0  0  0  0  0  0
  -19.5067  -29.1338   22.2759 C   0  0  0  0  0  0  0  0  0  0  0  0
  -29.0191  -20.8232   27.2694 C   0  0  0  0  0  0  0  0  0  0  0  0
  -19.7717  -28.1013   21.1848 C   0  0  0  0  0  0  0  0  0  0  0  0
  -27.6946  -20.1179   26.9802 C   0  0  0  0  0  0  0  0  0  0  0  0
  -29.9624  -20.7855   26.0666 C   0  0  0  0  0  0  0  0  0  0  0  0
  -28.0357  -20.5948   24.5252 C   0  0  0  0  0  0  0  0  0  0  0  0
  -19.9286  -26.6971   21.7806 C   0  0  1  0  0  0  0  0  0  0  0  0
  -23.6158  -26.0840   22.4604 C   0  0  1  0  0  0  0  0  0  0  0  0
  -27.0451  -20.6669   25.6977 C   0  0  1  0  0  0  0  0  0  0  0  0
  -30.8874  -28.6605   21.0891 C   0  0  0  0  0  0  0  0  0  0  0  0
  -24.2919  -29.0415   18.9738 C   0  0  0  0  0  0  0  0  0  0  0  0
  -26.6643  -29.7529   18.6075 C   0  0  0  0  0  0  0  0  0  0  0  0
  -25.3810  -30.6491   20.5498 C   0  0  0  0  0  0  0  0  0  0  0  0
  -29.0334  -23.7453   22.1358 C   0  0  0  0  0  0  0  0  0  0  0  0
  -29.0072  -26.9348   23.9110 C   0  0  0  0  0  0  0  0  0  0  0  0
  -25.9563  -19.5482   19.8380 C   0  0  0  0  0  0  0  0  0  1  0  0
  -27.0065  -18.8988   18.9421 C   0  0  1  0  0  0  0  0  0  0  0  0
  -26.1502  -28.2409   20.5775 C   0  0  1  0  0  0  0  0  0  0  0  0
  -29.6805  -28.3350   21.9552 C   0  0  2  0  0  0  0  0  0  0  0  0
  -25.6155  -29.3937   19.6817 C   0  0  0  0  0  0  0  0  0  0  0  0
  -25.7564  -18.8898   24.5742 N   0  0  0  0  0  0  0  0  0  0  0  0
  -25.7384  -19.9631   25.3828 N   0  0  0  0  0  0  0  0  0  0  0  0
  -24.7229  -26.4935   21.5940 N   0  0  0  0  0  0  0  0  0  0  0  0
  -29.2866  -21.2803   24.8588 N   0  0  0  0  0  0  0  0  0  0  0  0
  -32.0114  -18.4868   21.8357 N   0  0  0  0  0  0  0  0  0  0  0  0
  -30.4364  -17.9791   19.5385 N   0  0  0  0  0  0  0  0  0  0  0  0
  -24.2962  -21.3445   26.6564 N   0  0  0  0  0  0  0  0  0  0  0  0
  -21.7170  -18.5645   26.5440 N   0  0  0  0  0  0  0  0  0  0  0  0
  -21.2409  -26.5421   22.3707 N   0  0  0  0  0  0  0  0  0  0  0  0
  -27.3885  -28.5564   21.2815 N   0  0  0  0  0  0  0  0  0  0  0  0
  -29.3684  -22.4749   22.7882 N   0  0  0  0  0  0  0  0  0  0  0  0
  -26.4011  -18.7010   17.5873 N   0  3  0  0  0  0  0  0  0  0  0  0
  -30.0917  -27.3296   22.9756 N   0  3  0  0  0  0  0  0  0  0  0  0
  -28.6075  -20.2471   17.7524 O   0  0  0  0  0  0  0  0  0  0  0  0
  -21.4182  -19.9164   24.7159 O   0  0  0  0  0  0  0  0  0  0  0  0
  -22.4017  -25.9542   20.4395 O   0  0  0  0  0  0  0  0  0  0  0  0
  -24.7845  -28.6522   22.4728 O   0  0  0  0  0  0  0  0  0  0  0  0
  -28.6353  -26.8128   20.3970 O   0  0  0  0  0  0  0  0  0  0  0  0
  -30.1331  -23.4299   24.7580 O   0  0  0  0  0  0  0  0  0  0  0  0
  -22.9210  -14.1167   21.4557 O   0  0  0  0  0  0  0  0  0  0  0  0
  -25.5817  -20.8240   19.3198 O   0  0  0  0  0  0  0  0  0  1  0  0
  -26.8654  -10.6429   19.7887 F   0  0  0  0  0  0  0  0  0  0  0  0
  -22.8726  -11.4541   22.1980 F   0  0  0  0  0  0  0  0  0  0  0  0
  1  2  1  0  0  0  0
  1  5  2  0  0  0  0
  2  6  2  0  0  0  0
  3  8  2  0  0  0  0
  3 17  1  0  0  0  0
  4  9  1  0  0  0  0
  4 17  2  0  0  0  0
  5 20  1  0  0  0  0
  6 22  1  0  0  0  0
  7 10  2  0  0  0  0
  7 21  1  0  0  0  0
  8 27  1  0  0  0  0
  9 27  2  0  0  0  0
 10 28  1  0  0  0  0
 11 12  2  0  0  0  0
 11 29  1  0  0  0  0
 12 30  1  0  0  0  0
 13 18  1  0  0  0  0
 13 24  2  0  0  0  0
 14 23  1  0  0  0  0
 14 28  2  0  0  0  0
 15 24  1  0  0  0  0
 15 25  2  0  0  0  0
 16 30  2  0  0  0  0
 16 31  1  0  0  0  0
 17 32  1  0  0  0  0
 18 26  2  0  0  0  0
 18 34  1  0  0  0  0
 19 32  1  0  0  0  0
 19 33  2  0  0  0  0
 19 35  1  0  0  0  0
 20 22  2  0  0  0  0
 20 40  1  0  0  0  0
 21 23  2  0  0  0  0
 21 41  1  0  0  0  0
 22 49  1  0  0  0  0
 23 42  1  0  0  0  0
 24 73  1  0  0  0  0
 25 26  1  0  0  0  0
 25 67  1  0  0  0  0
 26 68  1  0  0  0  0
 27 82  1  0  0  0  0
 28 83  1  0  0  0  0
 29 31  2  0  0  0  0
 29 82  1  0  0  0  0
 30 84  1  0  0  0  0
 31 85  1  0  0  0  0
 32 63  2  0  0  0  0
 33 64  1  0  0  0  0
 33 69  1  0  0  0  0
 34 59  1  0  0  0  0
 34 76  2  0  0  0  0
 35 70  1  0  0  0  0
 35 77  2  0  0  0  0
 36 50  1  0  0  0  0
 36 71  1  0  0  0  0
 36 78  2  0  0  0  0
 37 60  1  0  0  0  0
 37 65  1  0  0  0  0
 37 79  2  0  0  0  0
 38 61  1  0  0  0  0
 38 72  1  0  0  0  0
 38 80  2  0  0  0  0
 39 66  1  0  0  0  0
 39 73  1  0  0  0  0
 39 81  2  0  0  0  0
 40 43  1  0  0  0  0
 41 50  1  0  0  0  0
 42 65  1  0  0  0  0
 43 45  1  0  0  0  0
 44 46  1  0  0  0  0
 44 47  1  0  0  0  0
 45 49  1  0  0  0  0
 46 51  1  0  0  0  0
 47 66  1  0  0  0  0
 48 51  1  0  0  0  0
 48 66  1  0  0  0  0
 49 71  1  0  0  0  0
 50 65  1  0  0  0  0
 51 64  1  0  0  0  0
 52 61  1  0  0  0  0
 53 62  1  0  0  0  0
 54 62  1  0  0  0  0
 55 62  1  0  0  0  0
 56 73  1  0  0  0  0
 57 75  1  0  0  0  0
 58 59  1  0  0  0  0
 58 83  1  0  0  0  0
 59 74  1  0  0  0  0
 60 62  1  0  0  0  0
 60 72  1  0  0  0  0
 61 75  1  0  0  0  0
 63 64  1  0  0  0  0
M  CHG  2  74   1  75   1
M  ISO  4  39 100  58 101  73 100  83 101
M  END
> <Batch ID>
0095

> <Smiles>
CNC(C)C(=O)NC(C(=O)N1Cc2cc([101O:1][101CH2:1]C(N)C(=O)c3cc([100N:0](C)[100C:0](=O)N4CCCC(n5nc(-c6ccc(Oc7ccc(F)cc7F)cc6)c(C(N)=O)c5N)C4)cc(N)c3N)ccc2CC1C(=O)NC1CCCc2ccccc21)C(C)(C)C

> <Shape>
0.176

> <Color>
0.065

> <Negative vol penalty>
0.000

$$$$

  -OEChem-04052300433D

 86 94  0     1  0  0  0  0  0999 V2000
  -26.7334  -34.7005   24.7417 C   0  0  0  0  0  0  0  0  0  0  0  0
  -27.1684  -33.4655   24.2716 C   0  0  0  0  0  0  0  0  0  0  0  0
  -22.6813  -13.3035   23.0219 C   0  0  0  0  0  0  0  0  0  0  0  0
  -22.4733  -14.7776   21.1190 C   0  0  0  0  0  0  0  0  0  0  0  0
  -25.4181  -34.8554   25.1773 C   0  0  0  0  0  0  0  0  0  0  0  0
  -26.2885  -32.3843   24.2380 C   0  0  0  0  0  0  0  0  0  0  0  0
  -26.5566  -29.7957   19.8937 C   0  0  0  0  0  0  0  0  0  0  0  0
  -29.3625  -18.9265   19.2796 C   0  0  0  0  0  0  0  0  0  0  0  0
  -21.5649  -13.9011   23.6068 C   0  0  0  0  0  0  0  0  0  0  0  0
  -21.3568  -15.3751   21.7039 C   0  0  0  0  0  0  0  0  0  0  0  0
  -27.6292  -28.9183   19.7405 C   0  0  0  0  0  0  0  0  0  0  0  0
  -29.4355  -20.2455   19.7273 C   0  0  0  0  0  0  0  0  0  0  0  0
  -20.7311  -17.6636   24.1127 C   0  0  0  0  0  0  0  0  0  0  0  0
  -20.6562  -19.0562   24.0924 C   0  0  0  0  0  0  0  0  0  0  0  0
  -26.1927  -27.0701   20.3237 C   0  0  0  0  0  0  0  0  0  0  0  0
  -18.5943  -18.9270   22.8398 C   0  0  0  0  0  0  0  0  0  0  0  0
  -23.1355  -13.7418   21.7779 C   0  0  0  0  0  0  0  0  0  0  0  0
  -24.3043  -12.0134   20.3102 C   0  0  0  0  0  0  0  0  0  0  0  0
  -24.5189  -33.7780   25.1400 C   0  0  0  0  0  0  0  0  0  0  0  0
  -25.2945  -29.3174   20.2743 C   0  0  0  0  0  0  0  0  0  0  0  0
  -24.9602  -32.5245   24.6748 C   0  0  0  0  0  0  0  0  0  0  0  0
  -25.1052  -27.9432   20.4785 C   0  0  0  0  0  0  0  0  0  0  0  0
  -30.3775  -18.4051   18.4774 C   0  0  0  0  0  0  0  0  0  0  0  0
  -31.4655  -19.2027   18.1228 C   0  0  0  0  0  0  0  0  0  0  0  0
  -31.5384  -20.5218   18.5705 C   0  0  0  0  0  0  0  0  0  0  0  0
  -20.9026  -14.9369   22.9478 C   0  0  0  0  0  0  0  0  0  0  0  0
  -27.4481  -27.5556   19.9583 C   0  0  0  0  0  0  0  0  0  0  0  0
  -30.5234  -21.0432   19.3727 C   0  0  0  0  0  0  0  0  0  0  0  0
  -19.7377  -16.9026   23.4965 C   0  0  0  0  0  0  0  0  0  0  0  0
  -19.5878  -19.6880   23.4560 C   0  0  0  0  0  0  0  0  0  0  0  0
  -18.6693  -17.5343   22.8601 C   0  0  0  0  0  0  0  0  0  0  0  0
  -24.2891  -13.1253   21.1734 C   0  0  0  0  0  0  0  0  0  0  0  0
  -25.6328  -11.8242   20.0174 C   0  0  0  0  0  0  0  0  0  0  0  0
  -23.2149  -11.2223   19.8171 C   0  0  0  0  0  0  0  0  0  0  0  0
  -23.3726  -29.7911   22.7614 C   0  0  0  0  0  0  0  0  0  0  0  0
  -29.4907  -24.4912   19.8341 C   0  0  0  0  0  0  0  0  0  0  0  0
  -21.3198  -27.9771   21.0244 C   0  0  0  0  0  0  0  0  0  0  0  0
  -20.8794  -25.6200   18.5960 C   0  0  0  0  0  0  0  0  0  0  0  0
  -30.3651  -15.4924   19.9925 C   0  0  0  0  0  0  0  0  0  0  0  0
  -23.1200  -33.9815   25.6657 C   0  0  0  0  0  0  0  0  0  0  0  0
  -24.1413  -30.2736   20.4093 C   0  0  0  0  0  0  0  0  0  0  0  0
  -23.7653  -27.3766   20.8687 C   0  0  0  0  0  0  0  0  0  0  0  0
  -22.1462  -32.8831   25.2468 C   0  0  0  0  0  0  0  0  0  0  0  0
  -30.0020  -12.4789   21.8537 C   0  0  0  0  0  0  0  0  0  0  0  0
  -22.7700  -31.5073   25.4584 C   0  0  0  0  0  0  0  0  0  0  0  0
  -28.4980  -12.2026   21.8125 C   0  0  0  0  0  0  0  0  0  0  0  0
  -30.2987  -13.9739   21.9487 C   0  0  0  0  0  0  0  0  0  0  0  0
  -28.1533  -14.5235   20.8674 C   0  0  0  0  0  0  0  0  0  0  0  0
  -24.0287  -31.3343   24.5997 C   0  0  1  0  0  0  0  0  0  0  0  0
  -23.0241  -29.7402   21.3008 C   0  0  1  0  0  0  0  0  0  0  0  0
  -27.8052  -13.0328   20.7153 C   0  0  2  0  0  0  0  0  0  0  0  0
  -29.5459  -16.8563   16.6688 C   0  0  0  0  0  0  0  0  0  0  0  0
  -19.0884  -24.3108   17.4231 C   0  0  0  0  0  0  0  0  0  0  0  0
  -21.0350  -26.1782   23.4725 C   0  0  0  0  0  0  0  0  0  0  0  0
  -20.0356  -24.4298   21.9849 C   0  0  0  0  0  0  0  0  0  0  0  0
  -18.8969  -26.6325   22.2573 C   0  0  0  0  0  0  0  0  0  0  0  0
  -21.5950  -26.7750   15.9667 C   0  0  0  0  0  0  0  0  0  0  0  0
  -28.2368  -25.3138   20.0491 C   0  0  0  0  0  0  0  0  0  1  0  0
  -29.3440  -22.9975   20.0400 C   0  0  0  0  0  0  0  0  0  0  0  0
  -30.2713  -16.9882   18.0144 C   0  0  2  0  0  0  0  0  0  0  0  0
  -21.0325  -26.4994   20.9107 C   0  0  1  0  0  0  0  0  0  0  0  0
  -19.9447  -25.5674   17.4010 C   0  0  2  0  0  0  0  0  0  0  0  0
  -20.2758  -25.9456   22.1509 C   0  0  0  0  0  0  0  0  0  0  0  0
  -25.5109  -13.6085   21.4135 N   0  0  0  0  0  0  0  0  0  0  0  0
  -26.3064  -12.7962   20.6968 N   0  0  0  0  0  0  0  0  0  0  0  0
  -22.6703  -28.3527   20.9944 N   0  0  0  0  0  0  0  0  0  0  0  0
  -29.6135  -14.7037   20.8791 N   0  0  0  0  0  0  0  0  0  0  0  0
  -32.4930  -18.6694   17.3092 N   0  0  0  0  0  0  0  0  0  0  0  0
  -32.6381  -21.3387   18.2167 N   0  0  0  0  0  0  0  0  0  0  0  0
  -26.2788  -10.9228   19.2476 N   0  0  0  0  0  0  0  0  0  0  0  0
  -21.9134  -11.5541   20.2173 N   0  0  0  0  0  0  0  0  0  0  0  0
  -23.6688  -31.0587   23.2253 N   0  0  0  0  0  0  0  0  0  0  0  0
  -20.3244  -26.3172   19.6482 N   0  0  0  0  0  0  0  0  0  0  0  0
  -29.6386  -16.1453   19.0044 N   0  0  0  0  0  0  0  0  0  0  0  0
  -20.7255  -25.5818   16.1317 N   0  3  0  0  0  0  0  0  0  0  0  0
  -23.3919  -10.2399   19.0574 O   0  0  0  0  0  0  0  0  0  0  0  0
  -23.3715  -28.7573   23.4193 O   0  0  0  0  0  0  0  0  0  0  0  0
  -30.5614  -25.0044   19.5129 O   0  0  0  0  0  0  0  0  0  0  0  0
  -20.3802  -28.7695   21.1287 O   0  0  0  0  0  0  0  0  0  0  0  0
  -21.9893  -25.0920   18.5973 O   0  0  0  0  0  0  0  0  0  0  0  0
  -31.5934  -15.6020   20.0722 O   0  0  0  0  0  0  0  0  0  0  0  0
  -19.8131  -15.5200   23.5182 O   0  0  0  0  0  0  0  0  0  0  0  0
  -28.4935  -26.6971   19.8101 O   0  0  0  0  0  0  0  0  0  1  0  0
  -30.5751  -22.3402   19.8257 O   0  0  0  0  0  0  0  0  0  0  0  0
  -19.5152  -21.0254   23.4379 F   0  0  0  0  0  0  0  0  0  0  0  0
  -17.7113  -16.8086   22.2674 F   0  0  0  0  0  0  0  0  0  0  0  0
  1  2  1  0  0  0  0
  1  5  2  0  0  0  0
  2  6  2  0  0  0  0
  3  9  2  0  0  0  0
  3 17  1  0  0  0  0
  4 10  1  0  0  0  0
  4 17  2  0  0  0  0
  5 19  1  0  0  0  0
  6 21  1  0  0  0  0
  7 11  2  0  0  0  0
  7 20  1  0  0  0  0
  8 12  2  0  0  0  0
  8 23  1  0  0  0  0
  9 26  1  0  0  0  0
 10 26  2  0  0  0  0
 11 27  1  0  0  0  0
 12 28  1  0  0  0  0
 13 14  2  0  0  0  0
 13 29  1  0  0  0  0
 14 30  1  0  0  0  0
 15 22  1  0  0  0  0
 15 27  2  0  0  0  0
 16 30  2  0  0  0  0
 16 31  1  0  0  0  0
 17 32  1  0  0  0  0
 18 32  1  0  0  0  0
 18 33  2  0  0  0  0
 18 34  1  0  0  0  0
 19 21  2  0  0  0  0
 19 40  1  0  0  0  0
 20 22  2  0  0  0  0
 20 41  1  0  0  0  0
 21 49  1  0  0  0  0
 22 42  1  0  0  0  0
 23 24  2  0  0  0  0
 23 60  1  0  0  0  0
 24 25  1  0  0  0  0
 24 68  1  0  0  0  0
 25 28  2  0  0  0  0
 25 69  1  0  0  0  0
 26 82  1  0  0  0  0
 27 83  1  0  0  0  0
 28 84  1  0  0  0  0
 29 31  2  0  0  0  0
 29 82  1  0  0  0  0
 30 85  1  0  0  0  0
 31 86  1  0  0  0  0
 32 64  2  0  0  0  0
 33 65  1  0  0  0  0
 33 70  1  0  0  0  0
 34 71  1  0  0  0  0
 34 76  2  0  0  0  0
 35 50  1  0  0  0  0
 35 72  1  0  0  0  0
 35 77  2  0  0  0  0
 36 58  1  0  0  0  0
 36 59  1  0  0  0  0
 36 78  2  0  0  0  0
 37 61  1  0  0  0  0
 37 66  1  0  0  0  0
 37 79  2  0  0  0  0
 38 62  1  0  0  0  0
 38 73  1  0  0  0  0
 38 80  2  0  0  0  0
 39 67  1  0  0  0  0
 39 74  1  0  0  0  0
 39 81  2  0  0  0  0
 40 43  1  0  0  0  0
 41 50  1  0  0  0  0
 42 66  1  0  0  0  0
 43 45  1  0  0  0  0
 44 46  1  0  0  0  0
 44 47  1  0  0  0  0
 45 49  1  0  0  0  0
 46 51  1  0  0  0  0
 47 67  1  0  0  0  0
 48 51  1  0  0  0  0
 48 67  1  0  0  0  0
 49 72  1  0  0  0  0
 50 66  1  0  0  0  0
 51 65  1  0  0  0  0
 52 60  1  0  0  0  0
 53 62  1  0  0  0  0
 54 63  1  0  0  0  0
 55 63  1  0  0  0  0
 56 63  1  0  0  0  0
 57 75  1  0  0  0  0
 58 83  1  0  0  0  0
 59 84  1  0  0  0  0
 60 74  1  0  0  0  0
 61 63  1  0  0  0  0
 61 73  1  0  0  0  0
 62 75  1  0  0  0  0
 64 65  1  0  0  0  0
M  CHG  1  75   1
M  ISO  4  39 100  58 101  74 100  83 101
M  END
> <Batch ID>
0095

> <Smiles>
CNC(C)C(=O)NC(C(=O)N1Cc2cc([101O:1][101CH2:1]C(=O)COc3ccc(C(C)[100NH:0][100C:0](=O)N4CCCC(n5nc(-c6ccc(Oc7ccc(F)cc7F)cc6)c(C(N)=O)c5N)C4)c(N)c3N)ccc2CC1C(=O)NC1CCCc2ccccc21)C(C)(C)C

> <Shape>
0.276

> <Color>
0.098

> <Negative vol penalty>
0.000

$$$$

  -OEChem-04052300433D

 87 95  0     1  0  0  0  0  0999 V2000
  -29.6210  -25.8604   16.4773 C   0  0  0  0  0  0  0  0  0  0  0  0
  -28.2834  -25.7256   16.8349 C   0  0  0  0  0  0  0  0  0  0  0  0
  -27.2808  -12.9115   21.4984 C   0  0  0  0  0  0  0  0  0  0  0  0
  -26.9126  -14.2705   19.5351 C   0  0  0  0  0  0  0  0  0  0  0  0
  -30.5288  -26.4191   17.3760 C   0  0  0  0  0  0  0  0  0  0  0  0
  -27.8529  -26.1485   18.0920 C   0  0  0  0  0  0  0  0  0  0  0  0
  -22.4292  -28.6289   19.4840 C   0  0  0  0  0  0  0  0  0  0  0  0
  -24.5192  -22.6014   21.5976 C   0  0  0  0  0  0  0  0  0  0  0  0
  -23.2827  -23.1251   21.9751 C   0  0  0  0  0  0  0  0  0  0  0  0
  -26.4020  -11.9507   20.9982 C   0  0  0  0  0  0  0  0  0  0  0  0
  -26.0338  -13.3097   19.0349 C   0  0  0  0  0  0  0  0  0  0  0  0
  -21.2637  -28.0909   20.0279 C   0  0  0  0  0  0  0  0  0  0  0  0
  -23.9780   -9.3061   20.4037 C   0  0  0  0  0  0  0  0  0  0  0  0
  -23.0377   -8.7657   21.2809 C   0  0  0  0  0  0  0  0  0  0  0  0
  -21.9562  -28.8223   22.2198 C   0  0  0  0  0  0  0  0  0  0  0  0
  -25.6308  -24.4814   22.6305 C   0  0  0  0  0  0  0  0  0  0  0  0
  -22.1161  -10.9684   21.6498 C   0  0  0  0  0  0  0  0  0  0  0  0
  -27.5361  -14.0715   20.7669 C   0  0  0  0  0  0  0  0  0  0  0  0
  -29.8334  -15.1375   21.0729 C   0  0  0  0  0  0  0  0  0  0  0  0
  -30.1074  -26.8580   18.6411 C   0  0  0  0  0  0  0  0  0  0  0  0
  -23.3738  -29.2590   20.3068 C   0  0  0  0  0  0  0  0  0  0  0  0
  -28.7561  -26.7124   19.0090 C   0  0  0  0  0  0  0  0  0  0  0  0
  -23.1317  -29.3697   21.6835 C   0  0  0  0  0  0  0  0  0  0  0  0
  -25.6932  -23.2795   21.9254 C   0  0  0  0  0  0  0  0  0  0  0  0
  -23.2202  -24.3269   22.6802 C   0  0  0  0  0  0  0  0  0  0  0  0
  -24.3943  -25.0051   23.0079 C   0  0  0  0  0  0  0  0  0  0  0  0
  -25.7786  -12.1498   19.7664 C   0  0  0  0  0  0  0  0  0  0  0  0
  -21.0283  -28.1850   21.3964 C   0  0  0  0  0  0  0  0  0  0  0  0
  -23.9875  -10.6776   20.1496 C   0  0  0  0  0  0  0  0  0  0  0  0
  -22.1067   -9.5969   21.9039 C   0  0  0  0  0  0  0  0  0  0  0  0
  -23.0565  -11.5087   20.7726 C   0  0  0  0  0  0  0  0  0  0  0  0
  -28.4433  -15.0646   21.2834 C   0  0  0  0  0  0  0  0  0  0  0  0
  -30.2281  -16.2531   21.7701 C   0  0  0  0  0  0  0  0  0  0  0  0
  -30.6911  -14.2741   20.3149 C   0  0  0  0  0  0  0  0  0  0  0  0
  -26.4184  -28.7223   21.0457 C   0  0  0  0  0  0  0  0  0  0  0  0
  -26.1340  -31.5532   22.6037 C   0  0  0  0  0  0  0  0  0  0  0  0
  -20.7050  -24.2794   22.7980 C   0  0  0  0  0  0  0  0  0  0  0  0
  -24.0972  -33.8365   24.1152 C   0  0  0  0  0  0  0  0  0  0  0  0
  -27.3580  -21.2245   23.4729 C   0  0  0  0  0  0  0  0  0  0  0  0
  -31.1344  -27.4122   19.5965 C   0  0  0  0  0  0  0  0  0  0  0  0
  -24.6134  -29.8578   19.7009 C   0  0  0  0  0  0  0  0  0  0  0  0
  -24.1046  -30.0543   22.6073 C   0  0  0  0  0  0  0  0  0  0  0  0
  -30.5256  -28.1792   20.7676 C   0  0  0  0  0  0  0  0  0  0  0  0
  -29.0489  -18.9019   25.5760 C   0  0  0  0  0  0  0  0  0  0  0  0
  -29.3690  -27.3932   21.3769 C   0  0  0  0  0  0  0  0  0  0  0  0
  -29.2109  -17.6617   24.6953 C   0  0  0  0  0  0  0  0  0  0  0  0
  -27.7208  -19.6093   25.3157 C   0  0  0  0  0  0  0  0  0  0  0  0
  -27.6293  -18.7104   23.0228 C   0  0  0  0  0  0  0  0  0  0  0  0
  -28.2461  -27.1821   20.3541 C   0  0  1  0  0  0  0  0  0  0  0  0
  -25.7493  -30.0239   20.7056 C   0  0  1  0  0  0  0  0  0  0  0  0
  -28.9781  -17.9948   23.2094 C   0  0  2  0  0  0  0  0  0  0  0  0
  -24.1585  -36.0322   25.3287 C   0  0  0  0  0  0  0  0  0  0  0  0
  -28.2607  -23.5570   21.9385 C   0  0  0  0  0  0  0  0  0  0  0  0
  -27.0918  -22.5620   19.9761 C   0  0  0  0  0  0  0  0  0  0  0  0
  -27.1794  -30.1422   25.0989 C   0  0  0  0  0  0  0  0  0  0  0  0
  -26.3327  -32.0673   26.4574 C   0  0  0  0  0  0  0  0  0  0  0  0
  -28.0999  -32.4391   24.7365 C   0  0  0  0  0  0  0  0  0  0  0  0
  -22.4043  -35.1458   22.0710 C   0  0  0  0  0  0  0  0  0  0  0  0
  -19.6010  -25.1558   23.3734 C   0  0  0  0  0  0  0  0  0  0  0  0
  -18.6311  -25.6540   22.3076 C   0  0  0  0  0  0  0  0  0  0  0  0
  -19.3305  -26.5243   21.2735 C   0  0  0  0  0  0  0  0  0  1  0  0
  -25.7281  -31.9710   23.9964 C   0  0  1  0  0  0  0  0  0  0  0  0
  -24.0015  -35.3456   23.9809 C   0  0  2  0  0  0  0  0  0  0  0  0
  -27.0149  -22.7191   21.5216 C   0  0  0  0  0  0  0  0  0  0  0  0
  -26.8174  -31.6402   25.0554 C   0  0  0  0  0  0  0  0  0  0  0  0
  -27.9858  -16.0549   22.0541 N   0  0  0  0  0  0  0  0  0  0  0  0
  -29.0947  -16.7606   22.3341 N   0  0  0  0  0  0  0  0  0  0  0  0
  -25.3049  -30.6182   21.9679 N   0  0  0  0  0  0  0  0  0  0  0  0
  -27.5625  -19.8984   23.8884 N   0  0  0  0  0  0  0  0  0  0  0  0
  -24.3541  -26.2241   23.7215 N   0  0  0  0  0  0  0  0  0  0  0  0
  -31.4307  -16.8397   21.9497 N   0  0  0  0  0  0  0  0  0  0  0  0
  -30.1215  -13.1733   19.6607 N   0  0  0  0  0  0  0  0  0  0  0  0
  -21.9543  -24.8386   23.0521 N   0  0  0  0  0  0  0  0  0  0  0  0
  -27.4641  -28.3908   20.2054 N   0  0  0  0  0  0  0  0  0  0  0  0
  -25.3850  -33.3866   23.9143 N   0  0  0  0  0  0  0  0  0  0  0  0
  -27.2241  -21.4116   22.1026 N   0  0  0  0  0  0  0  0  0  0  0  0
  -22.6812  -35.7319   23.4077 N   0  3  0  0  0  0  0  0  0  0  0  0
  -31.9284  -14.4636   20.2341 O   0  0  0  0  0  0  0  0  0  0  0  0
  -26.0166  -28.0679   22.0008 O   0  0  0  0  0  0  0  0  0  0  0  0
  -27.1453  -32.0439   22.0957 O   0  0  0  0  0  0  0  0  0  0  0  0
  -20.4633  -23.2351   22.2019 O   0  0  0  0  0  0  0  0  0  0  0  0
  -23.1273  -33.1282   24.3762 O   0  0  0  0  0  0  0  0  0  0  0  0
  -27.3043  -22.1722   24.2640 O   0  0  0  0  0  0  0  0  0  0  0  0
  -24.9212  -11.2124   19.2779 O   0  0  0  0  0  0  0  0  0  0  0  0
  -19.8918  -27.6602   21.9300 O   0  0  0  0  0  0  0  0  0  1  0  0
  -21.2028   -9.0776   22.7450 F   0  0  0  0  0  0  0  0  0  0  0  0
  -23.0599  -12.8269   20.5315 F   0  0  0  0  0  0  0  0  0  0  0  0
  1  2  1  0  0  0  0
  1  5  2  0  0  0  0
  2  6  2  0  0  0  0
  3 10  2  0  0  0  0
  3 18  1  0  0  0  0
  4 11  1  0  0  0  0
  4 18  2  0  0  0  0
  5 20  1  0  0  0  0
  6 22  1  0  0  0  0
  7 12  2  0  0  0  0
  7 21  1  0  0  0  0
  8  9  2  0  0  0  0
  8 24  1  0  0  0  0
  9 25  1  0  0  0  0
 10 27  1  0  0  0  0
 11 27  2  0  0  0  0
 12 28  1  0  0  0  0
 13 14  2  0  0  0  0
 13 29  1  0  0  0  0
 14 30  1  0  0  0  0
 15 23  1  0  0  0  0
 15 28  2  0  0  0  0
 16 24  2  0  0  0  0
 16 26  1  0  0  0  0
 17 30  2  0  0  0  0
 17 31  1  0  0  0  0
 18 32  1  0  0  0  0
 19 32  1  0  0  0  0
 19 33  2  0  0  0  0
 19 34  1  0  0  0  0
 20 22  2  0  0  0  0
 20 40  1  0  0  0  0
 21 23  2  0  0  0  0
 21 41  1  0  0  0  0
 22 49  1  0  0  0  0
 23 42  1  0  0  0  0
 24 64  1  0  0  0  0
 25 26  2  0  0  0  0
 25 73  1  0  0  0  0
 26 70  1  0  0  0  0
 27 84  1  0  0  0  0
 28 85  1  0  0  0  0
 29 31  2  0  0  0  0
 29 84  1  0  0  0  0
 30 86  1  0  0  0  0
 31 87  1  0  0  0  0
 32 66  2  0  0  0  0
 33 67  1  0  0  0  0
 33 71  1  0  0  0  0
 34 72  1  0  0  0  0
 34 78  2  0  0  0  0
 35 50  1  0  0  0  0
 35 74  1  0  0  0  0
 35 79  2  0  0  0  0
 36 62  1  0  0  0  0
 36 68  1  0  0  0  0
 36 80  2  0  0  0  0
 37 59  1  0  0  0  0
 37 73  1  0  0  0  0
 37 81  2  0  0  0  0
 38 63  1  0  0  0  0
 38 75  1  0  0  0  0
 38 82  2  0  0  0  0
 39 69  1  0  0  0  0
 39 76  1  0  0  0  0
 39 83  2  0  0  0  0
 40 43  1  0  0  0  0
 41 50  1  0  0  0  0
 42 68  1  0  0  0  0
 43 45  1  0  0  0  0
 44 46  1  0  0  0  0
 44 47  1  0  0  0  0
 45 49  1  0  0  0  0
 46 51  1  0  0  0  0
 47 69  1  0  0  0  0
 48 51  1  0  0  0  0
 48 69  1  0  0  0  0
 49 74  1  0  0  0  0
 50 68  1  0  0  0  0
 51 67  1  0  0  0  0
 52 63  1  0  0  0  0
 53 64  1  0  0  0  0
 54 64  1  0  0  0  0
 55 65  1  0  0  0  0
 56 65  1  0  0  0  0
 57 65  1  0  0  0  0
 58 77  1  0  0  0  0
 59 60  1  0  0  0  0
 60 61  1  0  0  0  0
 61 85  1  0  0  0  0
 62 65  1  0  0  0  0
 62 75  1  0  0  0  0
 63 77  1  0  0  0  0
 64 76  1  0  0  0  0
 66 67  1  0  0  0  0
M  CHG  1  77   1
M  ISO  4  39 100  61 101  76 100  85 101
M  END
> <Batch ID>
0095

> <Smiles>
CNC(C)C(=O)NC(C(=O)N1Cc2cc([101O:1][101CH2:1]CCC(=O)Nc3ccc(C(C)(C)[100NH:0][100C:0](=O)N4CCCC(n5nc(-c6ccc(Oc7ccc(F)cc7F)cc6)c(C(N)=O)c5N)C4)cc3N)ccc2CC1C(=O)NC1CCCc2ccccc21)C(C)(C)C

> <Shape>
0.318

> <Color>
0.072

> <Negative vol penalty>
0.000

$$$$

  -OEChem-04052300433D

 87 96  0     1  0  0  0  0  0999 V2000
  -16.5614  -27.3872   23.0669 C   0  0  0  0  0  0  0  0  0  0  0  0
  -17.7461  -26.6646   22.9685 C   0  0  0  0  0  0  0  0  0  0  0  0
  -23.1177  -10.2922   21.9278 C   0  0  0  0  0  0  0  0  0  0  0  0
  -23.5902  -12.6171   22.3842 C   0  0  0  0  0  0  0  0  0  0  0  0
  -16.5233  -28.7202   22.6598 C   0  0  0  0  0  0  0  0  0  0  0  0
  -18.8933  -27.2743   22.4618 C   0  0  0  0  0  0  0  0  0  0  0  0
  -24.6771  -26.2541   24.1976 C   0  0  0  0  0  0  0  0  0  0  0  0
  -30.8672  -18.9010   20.8176 C   0  0  0  0  0  0  0  0  0  0  0  0
  -30.7780  -17.5172   20.6666 C   0  0  0  0  0  0  0  0  0  0  0  0
  -22.2649  -10.2489   23.0307 C   0  0  0  0  0  0  0  0  0  0  0  0
  -22.7374  -12.5739   23.4872 C   0  0  0  0  0  0  0  0  0  0  0  0
  -25.6930  -25.4660   23.6586 C   0  0  0  0  0  0  0  0  0  0  0  0
  -19.4094  -12.6736   24.0658 C   0  0  0  0  0  0  0  0  0  0  0  0
  -18.5143  -13.7302   24.2327 C   0  0  0  0  0  0  0  0  0  0  0  0
  -26.5707  -27.3954   22.5071 C   0  0  0  0  0  0  0  0  0  0  0  0
  -28.9778  -18.8586   22.3227 C   0  0  0  0  0  0  0  0  0  0  0  0
  -19.5084  -14.2336   26.3764 C   0  0  0  0  0  0  0  0  0  0  0  0
  -23.7804  -11.4763   21.6046 C   0  0  0  0  0  0  0  0  0  0  0  0
  -24.3275  -11.2705   19.1214 C   0  0  0  0  0  0  0  0  0  0  0  0
  -17.6731  -29.3493   22.1569 C   0  0  0  0  0  0  0  0  0  0  0  0
  -24.5938  -27.6188   23.8862 C   0  0  0  0  0  0  0  0  0  0  0  0
  -18.8702  -28.6166   22.0464 C   0  0  0  0  0  0  0  0  0  0  0  0
  -25.5543  -28.1992   23.0455 C   0  0  0  0  0  0  0  0  0  0  0  0
  -29.9671  -19.5717   21.6457 C   0  0  0  0  0  0  0  0  0  0  0  0
  -29.7886  -16.8041   21.3436 C   0  0  0  0  0  0  0  0  0  0  0  0
  -22.0747  -11.3898   23.8104 C   0  0  0  0  0  0  0  0  0  0  0  0
  -26.6383  -26.0359   22.8110 C   0  0  0  0  0  0  0  0  0  0  0  0
  -20.3540  -12.3969   25.0542 C   0  0  0  0  0  0  0  0  0  0  0  0
  -28.8885  -17.4748   22.1717 C   0  0  0  0  0  0  0  0  0  0  0  0
  -18.5638  -14.5103   25.3880 C   0  0  0  0  0  0  0  0  0  0  0  0
  -20.4035  -13.1769   26.2095 C   0  0  0  0  0  0  0  0  0  0  0  0
  -24.6619  -11.5214   20.4657 C   0  0  0  0  0  0  0  0  0  0  0  0
  -25.5059  -11.4413   18.4369 C   0  0  0  0  0  0  0  0  0  0  0  0
  -31.2979  -21.6638   21.6946 C   0  0  0  0  0  0  0  0  0  0  0  0
  -23.0646  -10.9149   18.5432 C   0  0  0  0  0  0  0  0  0  0  0  0
  -22.4451  -29.4631   22.4420 C   0  0  0  0  0  0  0  0  0  0  0  0
  -24.4441  -31.8453   23.3646 C   0  0  0  0  0  0  0  0  0  0  0  0
  -27.5960  -32.7983   24.2611 C   0  0  0  0  0  0  0  0  0  0  0  0
  -30.5282  -14.5842   20.3924 C   0  0  0  0  0  0  0  0  0  0  0  0
  -17.5712  -30.7783   21.6853 C   0  0  0  0  0  0  0  0  0  0  0  0
  -23.5075  -28.4610   24.4970 C   0  0  0  0  0  0  0  0  0  0  0  0
  -25.5211  -29.6639   22.6961 C   0  0  0  0  0  0  0  0  0  0  0  0
  -31.2515  -23.1741   21.5601 C   0  0  0  0  0  0  0  0  0  0  0  0
  -18.9258  -31.4597   21.5094 C   0  0  0  0  0  0  0  0  0  0  0  0
  -30.1362  -23.8365   22.3387 C   0  0  0  0  0  0  0  0  0  0  0  0
  -30.2473  -11.0466   19.3604 C   0  0  0  0  0  0  0  0  0  0  0  0
  -19.8869  -30.5493   20.7515 C   0  0  0  0  0  0  0  0  0  0  0  0
  -28.7546  -10.7814   19.1581 C   0  0  0  0  0  0  0  0  0  0  0  0
  -30.6379  -12.4882   19.0655 C   0  0  0  0  0  0  0  0  0  0  0  0
  -28.8572  -21.7142   22.2804 C   0  0  0  0  0  0  0  0  0  0  0  0
  -28.4577  -13.1155   20.1256 C   0  0  0  0  0  0  0  0  0  0  0  0
  -20.1419  -29.2501   21.5251 C   0  0  1  0  0  0  0  0  0  0  0  0
  -23.2178  -29.7307   23.7025 C   0  0  1  0  0  0  0  0  0  0  0  0
  -28.8142  -23.2027   21.9382 C   0  0  1  0  0  0  0  0  0  0  0  0
  -27.9096  -12.0662   19.1458 C   0  0  2  0  0  0  0  0  0  0  0  0
  -28.9303  -34.8184   24.9216 C   0  0  0  0  0  0  0  0  0  0  0  0
  -24.4941  -32.7607   20.4543 C   0  0  0  0  0  0  0  0  0  0  0  0
  -26.5204  -34.1292   20.9923 C   0  0  0  0  0  0  0  0  0  0  0  0
  -24.3530  -34.6133   22.1283 C   0  0  0  0  0  0  0  0  0  0  0  0
  -28.2558  -31.6420   26.9044 C   0  0  0  0  0  0  0  0  0  0  0  0
  -26.6634  -16.6354   22.1741 C   0  0  0  0  0  0  0  0  0  0  0  0
  -27.6430  -23.8872   22.6399 C   0  0  0  0  0  0  0  0  0  1  0  0
  -25.6429  -32.5312   22.7551 C   0  0  1  0  0  0  0  0  0  0  0  0
  -28.1028  -33.6424   25.4166 C   0  0  2  0  0  0  0  0  0  0  0  0
  -25.2524  -33.4806   21.5874 C   0  0  0  0  0  0  0  0  0  0  0  0
  -25.9517  -11.8281   20.6276 N   0  0  0  0  0  0  0  0  0  0  0  0
  -26.4383  -11.7709   19.3762 N   0  0  0  0  0  0  0  0  0  0  0  0
  -30.0594  -21.0077   21.8015 N   0  0  0  0  0  0  0  0  0  0  0  0
  -24.4359  -30.4442   23.3133 N   0  0  0  0  0  0  0  0  0  0  0  0
  -29.8773  -13.4306   19.8912 N   0  0  0  0  0  0  0  0  0  0  0  0
  -25.8253  -11.3400   17.1291 N   0  0  0  0  0  0  0  0  0  0  0  0
  -22.2121  -11.9424   18.1167 N   0  0  0  0  0  0  0  0  0  0  0  0
  -29.7101  -15.3988   21.1793 N   0  0  0  0  0  0  0  0  0  0  0  0
  -21.0735  -29.4813   22.6083 N   0  0  0  0  0  0  0  0  0  0  0  0
  -26.3384  -33.1911   23.8547 N   0  0  0  0  0  0  0  0  0  0  0  0
  -28.9508  -32.8206   26.3257 N   0  3  0  0  0  0  0  0  0  0  0  0
  -32.3998  -21.1107   21.6425 O   0  0  0  0  0  0  0  0  0  0  0  0
  -22.6959   -9.7219   18.4237 O   0  0  0  0  0  0  0  0  0  0  0  0
  -23.0487  -29.2567   21.3956 O   0  0  0  0  0  0  0  0  0  0  0  0
  -23.5513  -32.5274   23.8739 O   0  0  0  0  0  0  0  0  0  0  0  0
  -28.2519  -31.8843   23.7661 O   0  0  0  0  0  0  0  0  0  0  0  0
  -31.7154  -14.8139   20.1515 O   0  0  0  0  0  0  0  0  0  0  0  0
  -21.2424  -11.3480   24.8866 O   0  0  0  0  0  0  0  0  0  0  0  0
  -27.9132  -16.7973   22.8410 O   0  0  0  0  0  0  0  0  0  0  0  0
  -27.6306  -25.2688   22.2830 O   0  0  0  0  0  0  0  0  0  1  0  0
  -17.7052  -15.5259   25.5475 F   0  0  0  0  0  0  0  0  0  0  0  0
  -21.3095  -12.9167   27.1619 F   0  0  0  0  0  0  0  0  0  0  0  0
  1  2  1  0  0  0  0
  1  5  2  0  0  0  0
  2  6  2  0  0  0  0
  3 10  2  0  0  0  0
  3 18  1  0  0  0  0
  4 11  1  0  0  0  0
  4 18  2  0  0  0  0
  5 20  1  0  0  0  0
  6 22  1  0  0  0  0
  7 12  2  0  0  0  0
  7 21  1  0  0  0  0
  8  9  2  0  0  0  0
  8 24  1  0  0  0  0
  9 25  1  0  0  0  0
 10 26  1  0  0  0  0
 11 26  2  0  0  0  0
 12 27  1  0  0  0  0
 13 14  2  0  0  0  0
 13 28  1  0  0  0  0
 14 30  1  0  0  0  0
 15 23  1  0  0  0  0
 15 27  2  0  0  0  0
 16 24  2  0  0  0  0
 16 29  1  0  0  0  0
 17 30  2  0  0  0  0
 17 31  1  0  0  0  0
 18 32  1  0  0  0  0
 19 32  1  0  0  0  0
 19 33  2  0  0  0  0
 19 35  1  0  0  0  0
 20 22  2  0  0  0  0
 20 40  1  0  0  0  0
 21 23  2  0  0  0  0
 21 41  1  0  0  0  0
 22 52  1  0  0  0  0
 23 42  1  0  0  0  0
 24 68  1  0  0  0  0
 25 29  2  0  0  0  0
 25 73  1  0  0  0  0
 26 83  1  0  0  0  0
 27 85  1  0  0  0  0
 28 31  2  0  0  0  0
 28 83  1  0  0  0  0
 29 84  1  0  0  0  0
 30 86  1  0  0  0  0
 31 87  1  0  0  0  0
 32 66  2  0  0  0  0
 33 67  1  0  0  0  0
 33 71  1  0  0  0  0
 34 43  1  0  0  0  0
 34 68  1  0  0  0  0
 34 77  2  0  0  0  0
 35 72  1  0  0  0  0
 35 78  2  0  0  0  0
 36 53  1  0  0  0  0
 36 74  1  0  0  0  0
 36 79  2  0  0  0  0
 37 63  1  0  0  0  0
 37 69  1  0  0  0  0
 37 80  2  0  0  0  0
 38 64  1  0  0  0  0
 38 75  1  0  0  0  0
 38 81  2  0  0  0  0
 39 70  1  0  0  0  0
 39 73  1  0  0  0  0
 39 82  2  0  0  0  0
 40 44  1  0  0  0  0
 41 53  1  0  0  0  0
 42 69  1  0  0  0  0
 43 45  1  0  0  0  0
 44 47  1  0  0  0  0
 45 54  1  0  0  0  0
 46 48  1  0  0  0  0
 46 49  1  0  0  0  0
 47 52  1  0  0  0  0
 48 55  1  0  0  0  0
 49 70  1  0  0  0  0
 50 54  1  0  0  0  0
 50 68  1  0  0  0  0
 51 55  1  0  0  0  0
 51 70  1  0  0  0  0
 52 74  1  0  0  0  0
 53 69  1  0  0  0  0
 54 62  1  0  0  0  0
 55 67  1  0  0  0  0
 56 64  1  0  0  0  0
 57 65  1  0  0  0  0
 58 65  1  0  0  0  0
 59 65  1  0  0  0  0
 60 76  1  0  0  0  0
 61 84  1  0  0  0  0
 62 85  1  0  0  0  0
 63 65  1  0  0  0  0
 63 75  1  0  0  0  0
 64 76  1  0  0  0  0
 66 67  1  0  0  0  0
M  CHG  1  76   1
M  ISO  4  39 100  62 101  73 100  85 101
M  END
> <Batch ID>
0095

> <Smiles>
CNC(C)C(=O)NC(C(=O)N1Cc2cc([101O:1][101CH2:1]C3CCC(=O)N(c4ccc([100NH:0][100C:0](=O)N5CCCC(n6nc(-c7ccc(Oc8ccc(F)cc8F)cc7)c(C(N)=O)c6N)C5)c(OC)c4)C3)ccc2CC1C(=O)NC1CCCc2ccccc21)C(C)(C)C

> <Shape>
0.242

> <Color>
0.092

> <Negative vol penalty>
0.000

$$$$

  -OEChem-04052300433D

 88 97  0     1  0  0  0  0  0999 V2000
  -29.5691  -10.9243   16.0049 C   0  0  0  0  0  0  0  0  0  0  0  0
  -28.5865  -11.9063   15.9299 C   0  0  0  0  0  0  0  0  0  0  0  0
  -21.3764  -21.2658   20.8509 C   0  0  0  0  0  0  0  0  0  0  0  0
  -19.6720  -21.4413   22.5542 C   0  0  0  0  0  0  0  0  0  0  0  0
  -24.6527  -28.1371   20.2990 C   0  0  0  0  0  0  0  0  0  0  0  0
  -30.1774  -10.6405   17.2269 C   0  0  0  0  0  0  0  0  0  0  0  0
  -28.2109  -12.6043   17.0772 C   0  0  0  0  0  0  0  0  0  0  0  0
  -28.7887  -19.7769   17.4099 C   0  0  0  0  0  0  0  0  0  0  0  0
  -25.7422  -27.5328   19.6718 C   0  0  0  0  0  0  0  0  0  0  0  0
  -21.7601  -20.0262   21.3625 C   0  0  0  0  0  0  0  0  0  0  0  0
  -20.0556  -20.2016   23.0658 C   0  0  0  0  0  0  0  0  0  0  0  0
  -28.6712  -21.1655   17.4749 C   0  0  0  0  0  0  0  0  0  0  0  0
  -22.9501  -16.6506   21.9986 C   0  0  0  0  0  0  0  0  0  0  0  0
  -23.1756  -15.6161   21.0907 C   0  0  0  0  0  0  0  0  0  0  0  0
  -27.9078  -21.0044   19.7638 C   0  0  0  0  0  0  0  0  0  0  0  0
  -27.2271  -29.1288   20.7135 C   0  0  0  0  0  0  0  0  0  0  0  0
  -20.8924  -15.7938   20.3211 C   0  0  0  0  0  0  0  0  0  0  0  0
  -20.3324  -21.9734   21.4468 C   0  0  0  0  0  0  0  0  0  0  0  0
  -24.8503  -29.2374   21.1333 C   0  0  0  0  0  0  0  0  0  0  0  0
  -19.4632  -23.5299   19.6221 C   0  0  0  0  0  0  0  0  0  0  0  0
  -29.8159  -11.3420   18.3878 C   0  0  0  0  0  0  0  0  0  0  0  0
  -28.4805  -18.9969   18.5279 C   0  0  0  0  0  0  0  0  0  0  0  0
  -28.8140  -12.3286   18.3161 C   0  0  0  0  0  0  0  0  0  0  0  0
  -28.0355  -19.6139   19.7086 C   0  0  0  0  0  0  0  0  0  0  0  0
  -27.0294  -28.0286   19.8791 C   0  0  0  0  0  0  0  0  0  0  0  0
  -21.0997  -19.4941   22.4699 C   0  0  0  0  0  0  0  0  0  0  0  0
  -28.2316  -21.7777   18.6489 C   0  0  0  0  0  0  0  0  0  0  0  0
  -21.6957  -17.2568   22.0678 C   0  0  0  0  0  0  0  0  0  0  0  0
  -22.1468  -15.1876   20.2519 C   0  0  0  0  0  0  0  0  0  0  0  0
  -26.1375  -29.7331   21.3406 C   0  0  0  0  0  0  0  0  0  0  0  0
  -20.6668  -16.8284   21.2290 C   0  0  0  0  0  0  0  0  0  0  0  0
  -19.9360  -23.2542   20.9191 C   0  0  0  0  0  0  0  0  0  0  0  0
  -19.2271  -24.8830   19.6231 C   0  0  0  0  0  0  0  0  0  0  0  0
  -29.2975  -28.1514   18.8837 C   0  0  0  0  0  0  0  0  0  0  0  0
  -23.6866  -29.8795   21.7969 C   0  0  0  0  0  0  0  0  0  0  0  0
  -19.2558  -22.6423   18.5154 C   0  0  0  0  0  0  0  0  0  0  0  0
  -28.2664  -15.5612   20.0199 C   0  0  0  0  0  0  0  0  0  0  0  0
  -29.4057  -17.4057   22.1902 C   0  0  0  0  0  0  0  0  0  0  0  0
  -31.0571  -18.7508   24.8550 C   0  0  0  0  0  0  0  0  0  0  0  0
  -21.4467  -29.4270   22.7466 C   0  0  0  0  0  0  0  0  0  0  0  0
  -30.4680  -10.9672   19.6951 C   0  0  0  0  0  0  0  0  0  0  0  0
  -28.5336  -17.4939   18.4837 C   0  0  0  0  0  0  0  0  0  0  0  0
  -27.6821  -18.7326   20.8753 C   0  0  0  0  0  0  0  0  0  0  0  0
  -30.5349  -27.3621   18.5001 C   0  0  0  0  0  0  0  0  0  0  0  0
  -30.2786  -12.0120   20.7918 C   0  0  0  0  0  0  0  0  0  0  0  0
  -30.2496  -26.0782   17.7523 C   0  0  0  0  0  0  0  0  0  0  0  0
  -18.0463  -28.4774   22.5665 C   0  0  0  0  0  0  0  0  0  0  0  0
  -28.8236  -12.4660   20.8512 C   0  0  0  0  0  0  0  0  0  0  0  0
  -18.0974  -27.0597   21.9903 C   0  0  0  0  0  0  0  0  0  0  0  0
  -19.1994  -28.7383   23.5346 C   0  0  0  0  0  0  0  0  0  0  0  0
  -27.9849  -26.0152   18.7575 C   0  0  0  0  0  0  0  0  0  0  0  0
  -20.5847  -27.0278   22.4331 C   0  0  0  0  0  0  0  0  0  0  0  0
  -28.3970  -13.1246   19.5337 C   0  0  1  0  0  0  0  0  0  0  0  0
  -28.9785  -16.8663   19.8168 C   0  0  1  0  0  0  0  0  0  0  0  0
  -29.2862  -25.2361   18.5724 C   0  0  1  0  0  0  0  0  0  0  0  0
  -19.4847  -26.7391   21.3988 C   0  0  1  0  0  0  0  0  0  0  0  0
  -31.3784  -18.4560   27.3263 C   0  0  0  0  0  0  0  0  0  0  0  0
  -26.6518  -18.6184   22.6891 C   0  0  0  0  0  0  0  0  0  0  0  0
  -27.3950  -19.1719   25.0149 C   0  0  0  0  0  0  0  0  0  0  0  0
  -27.2905  -16.7923   24.2739 C   0  0  0  0  0  0  0  0  0  0  0  0
  -33.9644  -18.2954   24.5401 C   0  0  0  0  0  0  0  0  0  0  0  0
  -29.0224  -23.8915   17.8978 C   0  0  0  0  0  0  0  0  0  1  0  0
  -29.1187  -18.2906   23.3768 C   0  0  1  0  0  0  0  0  0  0  0  0
  -31.9047  -18.1134   25.9412 C   0  0  2  0  0  0  0  0  0  0  0  0
  -27.6286  -18.2278   23.8162 C   0  0  0  0  0  0  0  0  0  0  0  0
  -19.9975  -24.3446   21.6881 N   0  0  0  0  0  0  0  0  0  0  0  0
  -19.5602  -25.3186   20.8719 N   0  0  0  0  0  0  0  0  0  0  0  0
  -28.1598  -27.4013   19.2282 N   0  0  0  0  0  0  0  0  0  0  0  0
  -28.6831  -17.6640   21.0191 N   0  0  0  0  0  0  0  0  0  0  0  0
  -20.4775  -28.4197   22.8957 N   0  0  0  0  0  0  0  0  0  0  0  0
  -18.7692  -25.7307   18.6775 N   0  0  0  0  0  0  0  0  0  0  0  0
  -18.0041  -22.0269   18.3779 N   0  0  0  0  0  0  0  0  0  0  0  0
  -22.6157  -29.0332   22.0860 N   0  0  0  0  0  0  0  0  0  0  0  0
  -28.9089  -14.4759   19.4552 N   0  0  0  0  0  0  0  0  0  0  0  0
  -30.0650  -17.8997   24.4160 N   0  0  0  0  0  0  0  0  0  0  0  0
  -33.3142  -18.5876   25.8435 N   0  3  0  0  0  0  0  0  0  0  0  0
  -29.3846  -29.3816   18.9260 O   0  0  0  0  0  0  0  0  0  0  0  0
  -23.7440  -31.0725   22.0820 O   0  0  0  0  0  0  0  0  0  0  0  0
  -20.1592  -22.3892   17.6827 O   0  0  0  0  0  0  0  0  0  0  0  0
  -27.2122  -15.5390   20.6443 O   0  0  0  0  0  0  0  0  0  0  0  0
  -30.2433  -16.5056   22.2977 O   0  0  0  0  0  0  0  0  0  0  0  0
  -31.2530  -19.8910   24.4403 O   0  0  0  0  0  0  0  0  0  0  0  0
  -21.2715  -30.5866   23.1339 O   0  0  0  0  0  0  0  0  0  0  0  0
  -21.4736  -18.2843   22.9692 O   0  0  0  0  0  0  0  0  0  0  0  0
  -28.1235  -23.1340   18.7070 O   0  0  0  0  0  0  0  0  0  1  0  0
  -22.3639  -14.1951   19.3790 F   0  0  0  0  0  0  0  0  0  0  0  0
  -26.3393  -30.7903   22.1402 F   0  0  0  0  0  0  0  0  0  0  0  0
  -19.4600  -17.4076   21.2901 F   0  0  0  0  0  0  0  0  0  0  0  0
  1  2  1  0  0  0  0
  1  6  2  0  0  0  0
  2  7  2  0  0  0  0
  3 10  2  0  0  0  0
  3 18  1  0  0  0  0
  4 11  1  0  0  0  0
  4 18  2  0  0  0  0
  5  9  2  0  0  0  0
  5 19  1  0  0  0  0
  6 21  1  0  0  0  0
  7 23  1  0  0  0  0
  8 12  2  0  0  0  0
  8 22  1  0  0  0  0
  9 25  1  0  0  0  0
 10 26  1  0  0  0  0
 11 26  2  0  0  0  0
 12 27  1  0  0  0  0
 13 14  2  0  0  0  0
 13 28  1  0  0  0  0
 14 29  1  0  0  0  0
 15 24  1  0  0  0  0
 15 27  2  0  0  0  0
 16 25  2  0  0  0  0
 16 30  1  0  0  0  0
 17 29  2  0  0  0  0
 17 31  1  0  0  0  0
 18 32  1  0  0  0  0
 19 30  2  0  0  0  0
 19 35  1  0  0  0  0
 20 32  1  0  0  0  0
 20 33  2  0  0  0  0
 20 36  1  0  0  0  0
 21 23  2  0  0  0  0
 21 41  1  0  0  0  0
 22 24  2  0  0  0  0
 22 42  1  0  0  0  0
 23 53  1  0  0  0  0
 24 43  1  0  0  0  0
 25 68  1  0  0  0  0
 26 84  1  0  0  0  0
 27 85  1  0  0  0  0
 28 31  2  0  0  0  0
 28 84  1  0  0  0  0
 29 86  1  0  0  0  0
 30 87  1  0  0  0  0
 31 88  1  0  0  0  0
 32 66  2  0  0  0  0
 33 67  1  0  0  0  0
 33 71  1  0  0  0  0
 34 44  1  0  0  0  0
 34 68  1  0  0  0  0
 34 77  2  0  0  0  0
 35 73  1  0  0  0  0
 35 78  2  0  0  0  0
 36 72  1  0  0  0  0
 36 79  2  0  0  0  0
 37 54  1  0  0  0  0
 37 74  1  0  0  0  0
 37 80  2  0  0  0  0
 38 63  1  0  0  0  0
 38 69  1  0  0  0  0
 38 81  2  0  0  0  0
 39 64  1  0  0  0  0
 39 75  1  0  0  0  0
 39 82  2  0  0  0  0
 40 70  1  0  0  0  0
 40 73  1  0  0  0  0
 40 83  2  0  0  0  0
 41 45  1  0  0  0  0
 42 54  1  0  0  0  0
 43 69  1  0  0  0  0
 44 46  1  0  0  0  0
 45 48  1  0  0  0  0
 46 55  1  0  0  0  0
 47 49  1  0  0  0  0
 47 50  1  0  0  0  0
 48 53  1  0  0  0  0
 49 56  1  0  0  0  0
 50 70  1  0  0  0  0
 51 55  1  0  0  0  0
 51 68  1  0  0  0  0
 52 56  1  0  0  0  0
 52 70  1  0  0  0  0
 53 74  1  0  0  0  0
 54 69  1  0  0  0  0
 55 62  1  0  0  0  0
 56 67  1  0  0  0  0
 57 64  1  0  0  0  0
 58 65  1  0  0  0  0
 59 65  1  0  0  0  0
 60 65  1  0  0  0  0
 61 76  1  0  0  0  0
 62 85  1  0  0  0  0
 63 65  1  0  0  0  0
 63 75  1  0  0  0  0
 64 76  1  0  0  0  0
 66 67  1  0  0  0  0
M  CHG  1  76   1
M  ISO  4  40 100  62 101  73 100  85 101
M  END
> <Batch ID>
0095

> <Smiles>
CNC(C)C(=O)NC(C(=O)N1Cc2cc([101O:1][101CH2:1]C3CCC(=O)N(c4ccc(C(=O)[100NH:0][100C:0](=O)N5CCCC(n6nc(-c7ccc(Oc8ccc(F)cc8F)cc7)c(C(N)=O)c6N)C5)c(F)c4)C3)ccc2CC1C(=O)NC1CCCc2ccccc21)C(C)(C)C

> <Shape>
0.255

> <Color>
0.055

> <Negative vol penalty>
0.000

$$$$

  -OEChem-04052300433D

 89 98  0     1  0  0  0  0  0999 V2000
  -21.8890  -31.0472   14.2748 C   0  0  0  0  0  0  0  0  0  0  0  0
  -23.0183  -30.4866   14.8627 C   0  0  0  0  0  0  0  0  0  0  0  0
  -26.6749   -8.2474   22.1147 C   0  0  0  0  0  0  0  0  0  0  0  0
  -24.7099   -8.4204   20.7197 C   0  0  0  0  0  0  0  0  0  0  0  0
  -21.3463  -32.2229   14.7916 C   0  0  0  0  0  0  0  0  0  0  0  0
  -23.6063  -31.1020   15.9672 C   0  0  0  0  0  0  0  0  0  0  0  0
  -24.8116  -27.8036   19.6159 C   0  0  0  0  0  0  0  0  0  0  0  0
  -29.0376  -20.6254   21.5690 C   0  0  0  0  0  0  0  0  0  0  0  0
  -28.2613  -19.4666   21.5619 C   0  0  0  0  0  0  0  0  0  0  0  0
  -26.2011   -7.0420   22.6326 C   0  0  0  0  0  0  0  0  0  0  0  0
  -24.2361   -7.2149   21.2375 C   0  0  0  0  0  0  0  0  0  0  0  0
  -25.9671  -27.0452   19.4324 C   0  0  0  0  0  0  0  0  0  0  0  0
  -22.6948   -6.1464   24.0506 C   0  0  0  0  0  0  0  0  0  0  0  0
  -21.3522   -6.0844   24.4236 C   0  0  0  0  0  0  0  0  0  0  0  0
  -27.1718  -28.5379   20.8951 C   0  0  0  0  0  0  0  0  0  0  0  0
  -26.7983  -20.4567   19.9137 C   0  0  0  0  0  0  0  0  0  0  0  0
  -20.9919   -4.3039   22.8308 C   0  0  0  0  0  0  0  0  0  0  0  0
  -25.9292   -8.9366   21.1582 C   0  0  0  0  0  0  0  0  0  0  0  0
  -27.6217  -10.3934   19.9250 C   0  0  0  0  0  0  0  0  0  0  0  0
  -21.9223  -32.8478   15.9090 C   0  0  0  0  0  0  0  0  0  0  0  0
  -24.8304  -28.9430   20.4331 C   0  0  0  0  0  0  0  0  0  0  0  0
  -23.0717  -32.2879   16.4986 C   0  0  0  0  0  0  0  0  0  0  0  0
  -26.0147  -29.3075   21.0894 C   0  0  0  0  0  0  0  0  0  0  0  0
  -27.5746  -21.6156   19.9209 C   0  0  0  0  0  0  0  0  0  0  0  0
  -28.6942  -21.6999   20.7485 C   0  0  0  0  0  0  0  0  0  0  0  0
  -27.1417  -19.3822   20.7343 C   0  0  0  0  0  0  0  0  0  0  0  0
  -24.9818   -6.5258   22.1940 C   0  0  0  0  0  0  0  0  0  0  0  0
  -27.1481  -27.4140   20.0697 C   0  0  0  0  0  0  0  0  0  0  0  0
  -23.1860   -5.2872   23.0676 C   0  0  0  0  0  0  0  0  0  0  0  0
  -20.5007   -5.1632   23.8137 C   0  0  0  0  0  0  0  0  0  0  0  0
  -22.3345   -4.3660   22.4577 C   0  0  0  0  0  0  0  0  0  0  0  0
  -26.4178  -10.1821   20.6233 C   0  0  0  0  0  0  0  0  0  0  0  0
  -27.6194  -11.7359   19.6349 C   0  0  0  0  0  0  0  0  0  0  0  0
  -31.5292  -23.8642   19.7793 C   0  0  0  0  0  0  0  0  0  0  0  0
  -28.9609  -24.1372   21.1362 C   0  0  0  0  0  0  0  0  0  0  0  0
  -28.6502   -9.4595   19.5701 C   0  0  0  0  0  0  0  0  0  0  0  0
  -24.3193  -32.0456   19.9681 C   0  0  0  0  0  0  0  0  0  0  0  0
  -24.6232  -32.1814   23.1948 C   0  0  0  0  0  0  0  0  0  0  0  0
  -26.7563  -30.7067   25.7033 C   0  0  0  0  0  0  0  0  0  0  0  0
  -26.9085  -16.9186   20.9943 C   0  0  0  0  0  0  0  0  0  0  0  0
  -21.3280  -34.1430   16.4030 C   0  0  0  0  0  0  0  0  0  0  0  0
  -23.5689  -29.7350   20.6420 C   0  0  0  0  0  0  0  0  0  0  0  0
  -26.0824  -30.5104   21.9933 C   0  0  0  0  0  0  0  0  0  0  0  0
  -30.7053  -25.1190   19.6577 C   0  0  0  0  0  0  0  0  0  0  0  0
  -30.9634  -22.7462   20.6289 C   0  0  0  0  0  0  0  0  0  0  0  0
  -21.7898  -34.5290   17.8058 C   0  0  0  0  0  0  0  0  0  0  0  0
  -23.9566  -15.1911   20.0220 C   0  0  0  0  0  0  0  0  0  0  0  0
  -23.3016  -34.3702   17.9328 C   0  0  0  0  0  0  0  0  0  0  0  0
  -24.4332  -13.7392   20.0452 C   0  0  0  0  0  0  0  0  0  0  0  0
  -24.5390  -16.0033   21.1793 C   0  0  0  0  0  0  0  0  0  0  0  0
  -26.4929  -14.4890   21.2968 C   0  0  0  0  0  0  0  0  0  0  0  0
  -23.7235  -32.9123   17.7133 C   0  0  1  0  0  0  0  0  0  0  0  0
  -29.9365  -25.3029   20.9629 C   0  0  1  0  0  0  0  0  0  0  0  0
  -23.8314  -31.1702   21.0877 C   0  0  1  0  0  0  0  0  0  0  0  0
  -25.9687  -13.6630   20.1118 C   0  0  1  0  0  0  0  0  0  0  0  0
  -27.1835  -22.7515   19.0323 C   0  0  0  0  0  0  0  0  0  0  0  0
  -24.3009  -18.6515   22.0376 C   0  0  0  0  0  0  0  0  0  0  0  0
  -26.3325  -30.2310   28.1306 C   0  0  0  0  0  0  0  0  0  0  0  0
  -25.9187  -34.9051   23.6565 C   0  0  0  0  0  0  0  0  0  0  0  0
  -27.0275  -33.9552   25.6904 C   0  0  0  0  0  0  0  0  0  0  0  0
  -24.5386  -34.0691   25.5672 C   0  0  0  0  0  0  0  0  0  0  0  0
  -27.4531  -27.8481   25.3842 C   0  0  0  0  0  0  0  0  0  0  0  0
  -29.2102  -26.6453   20.9714 C   0  0  0  0  0  0  0  0  0  1  0  0
  -24.8789  -18.3170   20.6774 C   0  0  0  0  0  0  0  0  0  0  0  0
  -25.7734  -32.3756   24.1531 C   0  0  1  0  0  0  0  0  0  0  0  0
  -26.3649  -29.6535   26.7241 C   0  0  2  0  0  0  0  0  0  0  0  0
  -25.8183  -33.8142   24.7413 C   0  0  0  0  0  0  0  0  0  0  0  0
  -25.7027  -11.3009   20.7683 N   0  0  0  0  0  0  0  0  0  0  0  0
  -26.4595  -12.2280   20.1571 N   0  0  0  0  0  0  0  0  0  0  0  0
  -29.5094  -22.8882   20.7708 N   0  0  0  0  0  0  0  0  0  0  0  0
  -24.8242  -31.2563   22.1607 N   0  0  0  0  0  0  0  0  0  0  0  0
  -26.0017  -15.8674   21.2270 N   0  0  0  0  0  0  0  0  0  0  0  0
  -28.4964  -12.5316   18.9867 N   0  0  0  0  0  0  0  0  0  0  0  0
  -28.5528   -8.7935   18.3408 N   0  0  0  0  0  0  0  0  0  0  0  0
  -23.4513  -32.1238   18.8959 N   0  0  0  0  0  0  0  0  0  0  0  0
  -25.6510  -31.3235   25.1563 N   0  0  0  0  0  0  0  0  0  0  0  0
  -26.3388  -18.1819   20.7267 N   0  0  0  0  0  0  0  0  0  0  0  0
  -27.3371  -28.5242   26.7019 N   0  3  0  0  0  0  0  0  0  0  0  0
  -32.6465  -23.7790   19.2702 O   0  0  0  0  0  0  0  0  0  0  0  0
  -27.8327  -24.3218   21.5929 O   0  0  0  0  0  0  0  0  0  0  0  0
  -29.6180   -9.2105   20.3282 O   0  0  0  0  0  0  0  0  0  0  0  0
  -25.4025  -32.6095   20.0703 O   0  0  0  0  0  0  0  0  0  0  0  0
  -23.5821  -32.8216   23.3621 O   0  0  0  0  0  0  0  0  0  0  0  0
  -27.9257  -30.9599   25.4223 O   0  0  0  0  0  0  0  0  0  0  0  0
  -28.1325  -16.7478   21.0474 O   0  0  0  0  0  0  0  0  0  0  0  0
  -24.5193   -5.3495   22.6989 O   0  0  0  0  0  0  0  0  0  0  0  0
  -28.2775  -26.6759   19.8918 O   0  0  0  0  0  0  0  0  0  1  0  0
  -19.2118   -5.1027   24.1731 F   0  0  0  0  0  0  0  0  0  0  0  0
  -22.8009   -3.5371   21.5136 F   0  0  0  0  0  0  0  0  0  0  0  0
  1  2  1  0  0  0  0
  1  5  2  0  0  0  0
  2  6  2  0  0  0  0
  3 10  2  0  0  0  0
  3 18  1  0  0  0  0
  4 11  1  0  0  0  0
  4 18  2  0  0  0  0
  5 20  1  0  0  0  0
  6 22  1  0  0  0  0
  7 12  2  0  0  0  0
  7 21  1  0  0  0  0
  8  9  2  0  0  0  0
  8 25  1  0  0  0  0
  9 26  1  0  0  0  0
 10 27  1  0  0  0  0
 11 27  2  0  0  0  0
 12 28  1  0  0  0  0
 13 14  2  0  0  0  0
 13 29  1  0  0  0  0
 14 30  1  0  0  0  0
 15 23  1  0  0  0  0
 15 28  2  0  0  0  0
 16 24  1  0  0  0  0
 16 26  2  0  0  0  0
 17 30  2  0  0  0  0
 17 31  1  0  0  0  0
 18 32  1  0  0  0  0
 19 32  1  0  0  0  0
 19 33  2  0  0  0  0
 19 36  1  0  0  0  0
 20 22  2  0  0  0  0
 20 41  1  0  0  0  0
 21 23  2  0  0  0  0
 21 42  1  0  0  0  0
 22 52  1  0  0  0  0
 23 43  1  0  0  0  0
 24 25  2  0  0  0  0
 24 56  1  0  0  0  0
 25 70  1  0  0  0  0
 26 77  1  0  0  0  0
 27 86  1  0  0  0  0
 28 87  1  0  0  0  0
 29 31  2  0  0  0  0
 29 86  1  0  0  0  0
 30 88  1  0  0  0  0
 31 89  1  0  0  0  0
 32 68  2  0  0  0  0
 33 69  1  0  0  0  0
 33 73  1  0  0  0  0
 34 44  1  0  0  0  0
 34 45  1  0  0  0  0
 34 79  2  0  0  0  0
 35 53  1  0  0  0  0
 35 70  1  0  0  0  0
 35 80  2  0  0  0  0
 36 74  1  0  0  0  0
 36 81  2  0  0  0  0
 37 54  1  0  0  0  0
 37 75  1  0  0  0  0
 37 82  2  0  0  0  0
 38 65  1  0  0  0  0
 38 71  1  0  0  0  0
 38 83  2  0  0  0  0
 39 66  1  0  0  0  0
 39 76  1  0  0  0  0
 39 84  2  0  0  0  0
 40 72  1  0  0  0  0
 40 77  1  0  0  0  0
 40 85  2  0  0  0  0
 41 46  1  0  0  0  0
 42 54  1  0  0  0  0
 43 71  1  0  0  0  0
 44 53  1  0  0  0  0
 45 70  1  0  0  0  0
 46 48  1  0  0  0  0
 47 49  1  0  0  0  0
 47 50  1  0  0  0  0
 48 52  1  0  0  0  0
 49 55  1  0  0  0  0
 50 72  1  0  0  0  0
 51 55  1  0  0  0  0
 51 72  1  0  0  0  0
 52 75  1  0  0  0  0
 53 63  1  0  0  0  0
 54 71  1  0  0  0  0
 55 69  1  0  0  0  0
 57 64  1  0  0  0  0
 58 66  1  0  0  0  0
 59 67  1  0  0  0  0
 60 67  1  0  0  0  0
 61 67  1  0  0  0  0
 62 78  1  0  0  0  0
 63 87  1  0  0  0  0
 64 77  1  0  0  0  0
 65 67  1  0  0  0  0
 65 76  1  0  0  0  0
 66 78  1  0  0  0  0
 68 69  1  0  0  0  0
M  CHG  1  78   1
M  ISO  4  40 100  63 101  77 100  87 101
M  END
> <Batch ID>
0095

> <Smiles>
CC[100N:0](c1ccc(N2CC(=O)CC([101CH2:1][101O:1]c3ccc4c(c3)CN(C(=O)C(NC(=O)C(C)NC)C(C)(C)C)C(C(=O)NC3CCCc5ccccc53)C4)C2=O)c(C)c1)[100C:0](=O)N1CCCC(n2nc(-c3ccc(Oc4ccc(F)cc4F)cc3)c(C(N)=O)c2N)C1

> <Shape>
0.287

> <Color>
0.101

> <Negative vol penalty>
0.000

$$$$

  -OEChem-04052300433D

 82 90  0     1  0  0  0  0  0999 V2000
  -36.2703  -14.4750   13.6660 C   0  0  0  0  0  0  0  0  0  0  0  0
  -35.2991  -15.3754   14.0919 C   0  0  0  0  0  0  0  0  0  0  0  0
  -28.3362  -17.3534   17.7074 C   0  0  0  0  0  0  0  0  0  0  0  0
  -23.0907   -9.8347   21.4731 C   0  0  0  0  0  0  0  0  0  0  0  0
  -23.8834  -10.7374   23.5693 C   0  0  0  0  0  0  0  0  0  0  0  0
  -29.0817  -16.5193   18.5405 C   0  0  0  0  0  0  0  0  0  0  0  0
  -36.8772  -13.6198   14.5848 C   0  0  0  0  0  0  0  0  0  0  0  0
  -34.9335  -15.4205   15.4368 C   0  0  0  0  0  0  0  0  0  0  0  0
  -33.2937  -20.3745   18.6422 C   0  0  0  0  0  0  0  0  0  0  0  0
  -27.7463  -18.5074   18.2231 C   0  0  0  0  0  0  0  0  0  0  0  0
  -22.3846   -8.8501   22.1641 C   0  0  0  0  0  0  0  0  0  0  0  0
  -23.1772   -9.7528   24.2603 C   0  0  0  0  0  0  0  0  0  0  0  0
  -32.0489  -20.8913   18.9988 C   0  0  0  0  0  0  0  0  0  0  0  0
  -23.0578   -5.9104   23.6902 C   0  0  0  0  0  0  0  0  0  0  0  0
  -23.1410   -4.6011   23.2164 C   0  0  0  0  0  0  0  0  0  0  0  0
  -28.6471  -17.9930   20.4050 C   0  0  0  0  0  0  0  0  0  0  0  0
  -32.2087  -19.7850   21.1364 C   0  0  0  0  0  0  0  0  0  0  0  0
  -20.7478   -4.5682   22.8869 C   0  0  0  0  0  0  0  0  0  0  0  0
  -23.8402  -10.7784   22.1757 C   0  0  0  0  0  0  0  0  0  0  0  0
  -29.2371  -16.8390   19.8893 C   0  0  0  0  0  0  0  0  0  0  0  0
  -24.1063  -13.0709   21.0888 C   0  0  0  0  0  0  0  0  0  0  0  0
  -36.5258  -13.6611   15.9433 C   0  0  0  0  0  0  0  0  0  0  0  0
  -34.0016  -19.5488   19.5273 C   0  0  0  0  0  0  0  0  0  0  0  0
  -35.5353  -14.5641   16.3744 C   0  0  0  0  0  0  0  0  0  0  0  0
  -33.4634  -19.2611   20.7897 C   0  0  0  0  0  0  0  0  0  0  0  0
  -27.9016  -18.8272   19.5719 C   0  0  0  0  0  0  0  0  0  0  0  0
  -22.4278   -8.8092   23.5577 C   0  0  0  0  0  0  0  0  0  0  0  0
  -31.5049  -20.5942   20.2449 C   0  0  0  0  0  0  0  0  0  0  0  0
  -21.8196   -6.5486   23.7624 C   0  0  0  0  0  0  0  0  0  0  0  0
  -21.9861   -3.9300   22.8147 C   0  0  0  0  0  0  0  0  0  0  0  0
  -20.6646   -5.8775   23.3608 C   0  0  0  0  0  0  0  0  0  0  0  0
  -24.5703  -11.7954   21.4624 C   0  0  0  0  0  0  0  0  0  0  0  0
  -25.1706  -13.6468   20.4393 C   0  0  0  0  0  0  0  0  0  0  0  0
  -30.0146  -15.9686   20.7570 C   0  0  0  0  0  0  0  0  0  0  0  0
  -22.8275  -13.6806   21.3093 C   0  0  0  0  0  0  0  0  0  0  0  0
  -30.6537  -14.7365   20.2406 C   0  0  0  0  0  0  0  0  0  0  0  0
  -35.0282  -16.5414   19.4544 C   0  0  0  0  0  0  0  0  0  0  0  0
  -27.9576  -21.1131   20.0875 C   0  0  0  0  0  0  0  0  0  0  0  0
  -36.4492  -17.3690   22.2505 C   0  0  0  0  0  0  0  0  0  0  0  0
  -36.5008  -19.4187   24.9787 C   0  0  0  0  0  0  0  0  0  0  0  0
  -37.1756  -12.6843   16.8912 C   0  0  0  0  0  0  0  0  0  0  0  0
  -35.3553  -19.0210   19.1380 C   0  0  0  0  0  0  0  0  0  0  0  0
  -34.1924  -18.3961   21.7841 C   0  0  0  0  0  0  0  0  0  0  0  0
  -37.0001  -13.0543   18.3618 C   0  0  0  0  0  0  0  0  0  0  0  0
  -29.5136  -11.6554   18.8042 C   0  0  0  0  0  0  0  0  0  0  0  0
  -35.5506  -13.4336   18.6476 C   0  0  0  0  0  0  0  0  0  0  0  0
  -28.1017  -11.5035   19.3692 C   0  0  0  0  0  0  0  0  0  0  0  0
  -30.4488  -12.3198   19.8094 C   0  0  0  0  0  0  0  0  0  0  0  0
  -28.5426  -13.4945   20.8748 C   0  0  0  0  0  0  0  0  0  0  0  0
  -35.1295  -14.6601   17.8291 C   0  0  1  0  0  0  0  0  0  0  0  0
  -35.7561  -17.7719   19.9166 C   0  0  1  0  0  0  0  0  0  0  0  0
  -27.5625  -12.8523   19.8776 C   0  0  2  0  0  0  0  0  0  0  0  0
  -27.2479  -22.3284   20.6357 C   0  0  0  0  0  0  0  0  0  0  0  0
  -37.7577  -19.8276   27.1118 C   0  0  0  0  0  0  0  0  0  0  0  0
  -35.0858  -14.9498   23.5148 C   0  0  0  0  0  0  0  0  0  0  0  0
  -35.5833  -15.9321   25.7633 C   0  0  0  0  0  0  0  0  0  0  0  0
  -37.4537  -15.3077   24.2354 C   0  0  0  0  0  0  0  0  0  0  0  0
  -37.2683  -22.1507   24.1386 C   0  0  0  0  0  0  0  0  0  0  0  0
  -29.3553  -21.3301   19.5423 C   0  0  0  0  0  0  0  0  0  1  0  0
  -36.0454  -17.3392   23.7048 C   0  0  1  0  0  0  0  0  0  0  0  0
  -37.6306  -20.1875   25.6397 C   0  0  2  0  0  0  0  0  0  0  0  0
  -36.0272  -15.8969   24.2853 C   0  0  0  0  0  0  0  0  0  0  0  0
  -25.8312  -11.5735   21.0817 N   0  0  0  0  0  0  0  0  0  0  0  0
  -30.2035  -16.2059   22.0270 N   0  0  0  0  0  0  0  0  0  0  0  0
  -27.3085  -19.9877   20.0901 N   0  0  0  0  0  0  0  0  0  0  0  0
  -26.1685  -12.7173   20.4621 N   0  0  0  0  0  0  0  0  0  0  0  0
  -29.8905  -13.5788   20.2986 N   0  0  0  0  0  0  0  0  0  0  0  0
  -35.5098  -17.8988   21.3545 N   0  0  0  0  0  0  0  0  0  0  0  0
  -25.3409  -14.8525   19.8565 N   0  0  0  0  0  0  0  0  0  0  0  0
  -21.8476  -12.9490   21.9941 N   0  0  0  0  0  0  0  0  0  0  0  0
  -35.6570  -15.8696   18.4235 N   0  0  0  0  0  0  0  0  0  0  0  0
  -36.9489  -18.2510   24.3981 N   0  0  0  0  0  0  0  0  0  0  0  0
  -37.3903  -21.6545   25.5335 N   0  3  0  0  0  0  0  0  0  0  0  0
  -22.5562  -14.8337   20.8966 O   0  0  0  0  0  0  0  0  0  0  0  0
  -31.7937  -14.8720   19.8159 O   0  0  0  0  0  0  0  0  0  0  0  0
  -33.9748  -16.2240   19.9941 O   0  0  0  0  0  0  0  0  0  0  0  0
  -37.5600  -16.9446   21.9225 O   0  0  0  0  0  0  0  0  0  0  0  0
  -35.3366  -19.8125   24.9806 O   0  0  0  0  0  0  0  0  0  0  0  0
  -21.7387   -7.8487   24.2323 O   0  0  0  0  0  0  0  0  0  0  0  0
  -30.2898  -21.0968   20.5952 O   0  0  0  0  0  0  0  0  0  1  0  0
  -22.0663   -2.6733   22.3583 F   0  0  0  0  0  0  0  0  0  0  0  0
  -19.4724   -6.4858   23.4268 F   0  0  0  0  0  0  0  0  0  0  0  0
  1  2  1  0  0  0  0
  1  7  2  0  0  0  0
  2  8  2  0  0  0  0
  3  6  1  0  0  0  0
  3 10  2  0  0  0  0
  4 11  2  0  0  0  0
  4 19  1  0  0  0  0
  5 12  1  0  0  0  0
  5 19  2  0  0  0  0
  6 20  2  0  0  0  0
  7 22  1  0  0  0  0
  8 24  1  0  0  0  0
  9 13  2  0  0  0  0
  9 23  1  0  0  0  0
 10 26  1  0  0  0  0
 11 27  1  0  0  0  0
 12 27  2  0  0  0  0
 13 28  1  0  0  0  0
 14 15  2  0  0  0  0
 14 29  1  0  0  0  0
 15 30  1  0  0  0  0
 16 20  1  0  0  0  0
 16 26  2  0  0  0  0
 17 25  1  0  0  0  0
 17 28  2  0  0  0  0
 18 30  2  0  0  0  0
 18 31  1  0  0  0  0
 19 32  1  0  0  0  0
 20 34  1  0  0  0  0
 21 32  1  0  0  0  0
 21 33  2  0  0  0  0
 21 35  1  0  0  0  0
 22 24  2  0  0  0  0
 22 41  1  0  0  0  0
 23 25  2  0  0  0  0
 23 42  1  0  0  0  0
 24 50  1  0  0  0  0
 25 43  1  0  0  0  0
 26 65  1  0  0  0  0
 27 79  1  0  0  0  0
 28 80  1  0  0  0  0
 29 31  2  0  0  0  0
 29 79  1  0  0  0  0
 30 81  1  0  0  0  0
 31 82  1  0  0  0  0
 32 63  2  0  0  0  0
 33 66  1  0  0  0  0
 33 69  1  0  0  0  0
 34 36  1  0  0  0  0
 34 64  2  0  0  0  0
 35 70  1  0  0  0  0
 35 74  2  0  0  0  0
 36 67  1  0  0  0  0
 36 75  2  0  0  0  0
 37 51  1  0  0  0  0
 37 71  1  0  0  0  0
 37 76  2  0  0  0  0
 38 53  1  0  0  0  0
 38 59  1  0  0  0  0
 38 65  2  0  0  0  0
 39 60  1  0  0  0  0
 39 68  1  0  0  0  0
 39 77  2  0  0  0  0
 40 61  1  0  0  0  0
 40 72  1  0  0  0  0
 40 78  2  0  0  0  0
 41 44  1  0  0  0  0
 42 51  1  0  0  0  0
 43 68  1  0  0  0  0
 44 46  1  0  0  0  0
 45 47  1  0  0  0  0
 45 48  1  0  0  0  0
 46 50  1  0  0  0  0
 47 52  1  0  0  0  0
 48 67  1  0  0  0  0
 49 52  1  0  0  0  0
 49 67  1  0  0  0  0
 50 71  1  0  0  0  0
 51 68  1  0  0  0  0
 52 66  1  0  0  0  0
 54 61  1  0  0  0  0
 55 62  1  0  0  0  0
 56 62  1  0  0  0  0
 57 62  1  0  0  0  0
 58 73  1  0  0  0  0
 59 80  1  0  0  0  0
 60 62  1  0  0  0  0
 60 72  1  0  0  0  0
 61 73  1  0  0  0  0
 63 66  1  0  0  0  0
M  CHG  1  73   1
M  ISO  4  34 100  36 100  59 101  80 101
M  END
> <Batch ID>
0095

> <Smiles>
C=C(Nc1cccc([100C:0](=N)[100C:0](=O)N2CCCC(n3nc(-c4ccc(Oc5ccc(F)cc5F)cc4)c(C(N)=O)c3N)C2)c1)[101CH2:1][101O:1]c1ccc2c(c1)CN(C(=O)C(NC(=O)C(C)NC)C(C)(C)C)C(C(=O)NC1CCCc3ccccc31)C2

> <Shape>
0.194

> <Color>
0.159

> <Negative vol penalty>
0.000

$$$$

  -OEChem-04052300433D

 86 94  0     1  0  0  0  0  0999 V2000
  -27.6431  -24.3254   16.6969 C   0  0  0  0  0  0  0  0  0  0  0  0
  -26.4750  -24.5921   17.4038 C   0  0  0  0  0  0  0  0  0  0  0  0
  -26.3024  -14.2849   20.8433 C   0  0  0  0  0  0  0  0  0  0  0  0
  -23.8971  -14.3046   20.6174 C   0  0  0  0  0  0  0  0  0  0  0  0
  -28.8709  -24.7648   17.1903 C   0  0  0  0  0  0  0  0  0  0  0  0
  -26.5341  -25.2976   18.6052 C   0  0  0  0  0  0  0  0  0  0  0  0
  -22.9658  -28.8758   18.9345 C   0  0  0  0  0  0  0  0  0  0  0  0
  -18.9729  -21.9776   25.5251 C   0  0  0  0  0  0  0  0  0  0  0  0
  -18.8243  -23.1625   24.8044 C   0  0  0  0  0  0  0  0  0  0  0  0
  -26.2348  -13.0331   21.4547 C   0  0  0  0  0  0  0  0  0  0  0  0
  -23.8294  -13.0528   21.2289 C   0  0  0  0  0  0  0  0  0  0  0  0
  -21.6735  -28.4591   19.2511 C   0  0  0  0  0  0  0  0  0  0  0  0
  -23.0521   -9.7014   22.4047 C   0  0  0  0  0  0  0  0  0  0  0  0
  -22.2207   -8.7413   21.8280 C   0  0  0  0  0  0  0  0  0  0  0  0
  -22.0276  -29.1226   21.5432 C   0  0  0  0  0  0  0  0  0  0  0  0
  -20.2588  -21.0347   23.7100 C   0  0  0  0  0  0  0  0  0  0  0  0
  -23.4990   -8.8636   19.7815 C   0  0  0  0  0  0  0  0  0  0  0  0
  -25.1336  -14.9207   20.4247 C   0  0  0  0  0  0  0  0  0  0  0  0
  -25.3340  -16.4828   18.4178 C   0  0  0  0  0  0  0  0  0  0  0  0
  -28.9440  -25.4843   18.3934 C   0  0  0  0  0  0  0  0  0  0  0  0
  -23.8039  -29.4099   19.9239 C   0  0  0  0  0  0  0  0  0  0  0  0
  -27.7641  -25.7458   19.1158 C   0  0  0  0  0  0  0  0  0  0  0  0
  -23.3292  -29.5477   21.2360 C   0  0  0  0  0  0  0  0  0  0  0  0
  -20.1101  -22.2196   22.9892 C   0  0  0  0  0  0  0  0  0  0  0  0
  -19.6902  -20.9137   24.9779 C   0  0  0  0  0  0  0  0  0  0  0  0
  -19.3929  -23.2836   23.5364 C   0  0  0  0  0  0  0  0  0  0  0  0
  -24.9983  -12.4170   21.6475 C   0  0  0  0  0  0  0  0  0  0  0  0
  -21.2053  -28.5798   20.5562 C   0  0  0  0  0  0  0  0  0  0  0  0
  -24.1069  -10.2427   21.6697 C   0  0  0  0  0  0  0  0  0  0  0  0
  -22.4442   -8.3224   20.5164 C   0  0  0  0  0  0  0  0  0  0  0  0
  -24.3303   -9.8238   20.3582 C   0  0  0  0  0  0  0  0  0  0  0  0
  -25.2028  -16.2141   19.7935 C   0  0  0  0  0  0  0  0  0  0  0  0
  -25.3521  -17.8538   18.3359 C   0  0  0  0  0  0  0  0  0  0  0  0
  -19.7991  -27.1908   21.8068 C   0  0  0  0  0  0  0  0  0  1  0  0
  -25.4307  -15.5744   17.3128 C   0  0  0  0  0  0  0  0  0  0  0  0
  -18.6079  -26.7153   22.1896 C   0  0  0  0  0  0  0  0  0  0  0  0
  -18.5553  -25.6361   23.2292 C   0  0  0  0  0  0  0  0  0  0  0  0
  -26.5962  -28.5716   21.1904 C   0  0  0  0  0  0  0  0  0  0  0  0
  -26.3175  -31.4206   22.7160 C   0  0  0  0  0  0  0  0  0  0  0  0
  -24.2781  -33.9009   23.8718 C   0  0  0  0  0  0  0  0  0  0  0  0
  -23.1972  -22.1785   21.8721 C   0  0  0  0  0  0  0  0  0  0  0  0
  -30.2991  -25.8977   18.9108 C   0  0  0  0  0  0  0  0  0  0  0  0
  -25.1859  -29.8794   19.5605 C   0  0  0  0  0  0  0  0  0  0  0  0
  -24.1822  -30.1334   22.3305 C   0  0  0  0  0  0  0  0  0  0  0  0
  -30.2353  -26.9639   20.0014 C   0  0  0  0  0  0  0  0  0  0  0  0
  -26.5778  -21.7388   20.8449 C   0  0  0  0  0  0  0  0  0  0  0  0
  -29.1803  -26.6012   21.0416 C   0  0  0  0  0  0  0  0  0  0  0  0
  -26.6206  -20.2973   20.3348 C   0  0  0  0  0  0  0  0  0  0  0  0
  -25.6504  -21.8840   22.0494 C   0  0  0  0  0  0  0  0  0  0  0  0
  -24.3242  -19.9347   21.3317 C   0  0  0  0  0  0  0  0  0  0  0  0
  -27.7847  -26.5296   20.4102 C   0  0  1  0  0  0  0  0  0  0  0  0
  -26.1323  -29.9331   20.7559 C   0  0  1  0  0  0  0  0  0  0  0  0
  -25.2030  -19.7494   20.0828 C   0  0  2  0  0  0  0  0  0  0  0  0
  -19.7862  -21.8701   20.5124 C   0  0  0  0  0  0  0  0  0  0  0  0
  -24.3369  -36.0823   25.1109 C   0  0  0  0  0  0  0  0  0  0  0  0
  -26.7493  -29.9179   25.3362 C   0  0  0  0  0  0  0  0  0  0  0  0
  -25.8665  -31.9217   26.5501 C   0  0  0  0  0  0  0  0  0  0  0  0
  -27.9437  -32.1097   25.1816 C   0  0  0  0  0  0  0  0  0  0  0  0
  -23.1211  -35.3686   21.5769 C   0  0  0  0  0  0  0  0  0  0  0  0
  -20.7311  -22.3220   21.6338 C   0  0  2  0  0  0  0  0  0  0  0  0
  -25.7102  -31.8806   24.0193 C   0  0  1  0  0  0  0  0  0  0  0  0
  -24.3586  -35.4116   23.7462 C   0  0  2  0  0  0  0  0  0  0  0  0
  -26.5517  -31.4446   25.2518 C   0  0  0  0  0  0  0  0  0  0  0  0
  -25.1420  -17.3252   20.5323 N   0  0  0  0  0  0  0  0  0  0  0  0
  -25.2355  -18.3053   19.6176 N   0  0  0  0  0  0  0  0  0  0  0  0
  -25.5283  -30.5722   21.9267 N   0  0  0  0  0  0  0  0  0  0  0  0
  -24.3221  -21.3470   21.7442 N   0  0  0  0  0  0  0  0  0  0  0  0
  -19.8409  -19.7158   25.7072 N   0  0  0  0  0  0  0  0  0  0  0  0
  -25.4563  -18.7050   17.2934 N   0  0  0  0  0  0  0  0  0  0  0  0
  -25.3956  -14.1979   17.5744 N   0  0  0  0  0  0  0  0  0  0  0  0
  -19.2323  -24.4949   22.8214 N   0  0  0  0  0  0  0  0  0  0  0  0
  -27.2539  -27.8603   20.2050 N   0  0  0  0  0  0  0  0  0  0  0  0
  -25.5298  -33.3233   23.8990 N   0  0  0  0  0  0  0  0  0  0  0  0
  -21.9773  -21.5926   21.5571 N   0  0  0  0  0  0  0  0  0  0  0  0
  -23.2087  -35.9273   22.9507 N   0  3  0  0  0  0  0  0  0  0  0  0
  -25.5614  -15.9714   16.1301 O   0  0  0  0  0  0  0  0  0  0  0  0
  -17.9659  -25.8116   24.2902 O   0  0  0  0  0  0  0  0  0  0  0  0
  -26.3751  -28.1949   22.3354 O   0  0  0  0  0  0  0  0  0  0  0  0
  -27.4477  -31.8059   22.4063 O   0  0  0  0  0  0  0  0  0  0  0  0
  -23.2116  -33.2943   23.9427 O   0  0  0  0  0  0  0  0  0  0  0  0
  -23.2749  -23.3572   22.2348 O   0  0  0  0  0  0  0  0  0  0  0  0
  -17.4195  -27.1811   21.6649 O   0  0  0  0  0  0  0  0  0  0  0  0
  -24.9319  -11.1953   22.2439 O   0  0  0  0  0  0  0  0  0  0  0  0
  -19.9446  -28.1733   20.8681 O   0  0  0  0  0  0  0  0  0  1  0  0
  -21.6466   -7.3992   19.9633 F   0  0  0  0  0  0  0  0  0  0  0  0
  -25.3428  -10.3394   19.6475 F   0  0  0  0  0  0  0  0  0  0  0  0
  1  2  1  0  0  0  0
  1  5  2  0  0  0  0
  2  6  2  0  0  0  0
  3 10  2  0  0  0  0
  3 18  1  0  0  0  0
  4 11  1  0  0  0  0
  4 18  2  0  0  0  0
  5 20  1  0  0  0  0
  6 22  1  0  0  0  0
  7 12  2  0  0  0  0
  7 21  1  0  0  0  0
  8  9  2  0  0  0  0
  8 25  1  0  0  0  0
  9 26  1  0  0  0  0
 10 27  1  0  0  0  0
 11 27  2  0  0  0  0
 12 28  1  0  0  0  0
 13 14  2  0  0  0  0
 13 29  1  0  0  0  0
 14 30  1  0  0  0  0
 15 23  1  0  0  0  0
 15 28  2  0  0  0  0
 16 24  1  0  0  0  0
 16 25  2  0  0  0  0
 17 30  2  0  0  0  0
 17 31  1  0  0  0  0
 18 32  1  0  0  0  0
 19 32  1  0  0  0  0
 19 33  2  0  0  0  0
 19 35  1  0  0  0  0
 20 22  2  0  0  0  0
 20 42  1  0  0  0  0
 21 23  2  0  0  0  0
 21 43  1  0  0  0  0
 22 51  1  0  0  0  0
 23 44  1  0  0  0  0
 24 26  2  0  0  0  0
 24 60  1  0  0  0  0
 25 68  1  0  0  0  0
 26 71  1  0  0  0  0
 27 83  1  0  0  0  0
 28 84  1  0  0  0  0
 29 31  2  0  0  0  0
 29 83  1  0  0  0  0
 30 85  1  0  0  0  0
 31 86  1  0  0  0  0
 32 64  2  0  0  0  0
 33 65  1  0  0  0  0
 33 69  1  0  0  0  0
 34 36  2  0  0  0  0
 34 84  1  0  0  0  0
 35 70  1  0  0  0  0
 35 76  2  0  0  0  0
 36 37  1  0  0  0  0
 36 82  1  0  0  0  0
 37 71  1  0  0  0  0
 37 77  2  0  0  0  0
 38 52  1  0  0  0  0
 38 72  1  0  0  0  0
 38 78  2  0  0  0  0
 39 61  1  0  0  0  0
 39 66  1  0  0  0  0
 39 79  2  0  0  0  0
 40 62  1  0  0  0  0
 40 73  1  0  0  0  0
 40 80  2  0  0  0  0
 41 67  1  0  0  0  0
 41 74  1  0  0  0  0
 41 81  2  0  0  0  0
 42 45  1  0  0  0  0
 43 52  1  0  0  0  0
 44 66  1  0  0  0  0
 45 47  1  0  0  0  0
 46 48  1  0  0  0  0
 46 49  1  0  0  0  0
 47 51  1  0  0  0  0
 48 53  1  0  0  0  0
 49 67  1  0  0  0  0
 50 53  1  0  0  0  0
 50 67  1  0  0  0  0
 51 72  1  0  0  0  0
 52 66  1  0  0  0  0
 53 65  1  0  0  0  0
 54 60  1  0  0  0  0
 55 62  1  0  0  0  0
 56 63  1  0  0  0  0
 57 63  1  0  0  0  0
 58 63  1  0  0  0  0
 59 75  1  0  0  0  0
 60 74  1  0  0  0  0
 61 63  1  0  0  0  0
 61 73  1  0  0  0  0
 62 75  1  0  0  0  0
 64 65  1  0  0  0  0
M  CHG  1  75   1
M  ISO  4  34 101  41 100  74 100  84 101
M  END
> <Batch ID>
0095

> <Smiles>
CNC(C)C(=O)NC(C(=O)N1Cc2cc([101O:1][101CH2:1]C(=O)C(=O)Nc3ccc(N)cc3C(C)[100NH:0][100C:0](=O)N3CCCC(n4nc(-c5ccc(Oc6ccc(F)cc6F)cc5)c(C(N)=O)c4N)C3)ccc2CC1C(=O)NC1CCCc2ccccc21)C(C)(C)C

> <Shape>
0.276

> <Color>
0.074

> <Negative vol penalty>
0.000

$$$$

  -OEChem-04052300433D

 89 97  0     1  0  0  0  0  0999 V2000
  -17.5161  -24.6494   23.3395 C   0  0  0  0  0  0  0  0  0  0  0  0
  -18.3462  -24.2256   22.3066 C   0  0  0  0  0  0  0  0  0  0  0  0
  -25.6459  -15.7306   21.6425 C   0  0  0  0  0  0  0  0  0  0  0  0
  -25.0991  -16.4558   19.4037 C   0  0  0  0  0  0  0  0  0  0  0  0
  -17.5528  -25.9779   23.7612 C   0  0  0  0  0  0  0  0  0  0  0  0
  -19.2127  -25.1303   21.6942 C   0  0  0  0  0  0  0  0  0  0  0  0
  -23.8557  -23.2231   21.0229 C   0  0  0  0  0  0  0  0  0  0  0  0
  -24.4216  -15.0676   21.7267 C   0  0  0  0  0  0  0  0  0  0  0  0
  -23.8748  -15.7927   19.4879 C   0  0  0  0  0  0  0  0  0  0  0  0
  -24.0342  -22.3419   19.9574 C   0  0  0  0  0  0  0  0  0  0  0  0
  -20.8427  -16.3281   20.8844 C   0  0  0  0  0  0  0  0  0  0  0  0
  -19.7071  -17.0052   20.4399 C   0  0  0  0  0  0  0  0  0  0  0  0
  -24.9809  -24.1306   18.6446 C   0  0  0  0  0  0  0  0  0  0  0  0
  -29.6397  -25.0561   17.0845 C   0  0  0  0  0  0  0  0  0  0  0  0
  -29.9210  -23.8196   14.5997 C   0  0  0  0  0  0  0  0  0  0  0  0
  -19.3144  -15.2719   18.8032 C   0  0  0  0  0  0  0  0  0  0  0  0
  -25.9847  -16.4247   20.4809 C   0  0  0  0  0  0  0  0  0  0  0  0
  -28.4692  -16.5869   19.9257 C   0  0  0  0  0  0  0  0  0  0  0  0
  -18.4271  -26.8970   23.1601 C   0  0  0  0  0  0  0  0  0  0  0  0
  -24.2291  -24.5695   20.9033 C   0  0  0  0  0  0  0  0  0  0  0  0
  -19.2602  -26.4725   22.1073 C   0  0  0  0  0  0  0  0  0  0  0  0
  -24.8085  -25.0263   19.7109 C   0  0  0  0  0  0  0  0  0  0  0  0
  -29.6527  -25.8246   15.9206 C   0  0  0  0  0  0  0  0  0  0  0  0
  -29.7674  -23.6692   17.0061 C   0  0  0  0  0  0  0  0  0  0  0  0
  -29.7934  -25.2064   14.6782 C   0  0  0  0  0  0  0  0  0  0  0  0
  -23.5361  -15.0986   20.6495 C   0  0  0  0  0  0  0  0  0  0  0  0
  -24.5942  -22.7962   18.7670 C   0  0  0  0  0  0  0  0  0  0  0  0
  -21.2142  -15.1230   20.2883 C   0  0  0  0  0  0  0  0  0  0  0  0
  -29.9080  -23.0510   15.7636 C   0  0  0  0  0  0  0  0  0  0  0  0
  -18.9429  -16.4771   19.3993 C   0  0  0  0  0  0  0  0  0  0  0  0
  -20.4500  -14.5949   19.2477 C   0  0  0  0  0  0  0  0  0  0  0  0
  -27.2490  -17.1103   20.3935 C   0  0  0  0  0  0  0  0  0  0  0  0
  -29.3575  -17.6277   20.0450 C   0  0  0  0  0  0  0  0  0  0  0  0
  -28.7727  -15.2770   19.4278 C   0  0  0  0  0  0  0  0  0  0  0  0
  -22.6856  -27.3453   21.0314 C   0  0  0  0  0  0  0  0  0  0  0  0
  -25.6810  -28.5752   20.8389 C   0  0  0  0  0  0  0  0  0  0  0  0
  -26.4714  -18.9655   15.0912 C   0  0  0  0  0  0  0  0  0  0  0  0
  -28.7244  -27.9019   20.3973 C   0  0  0  0  0  0  0  0  0  0  0  0
  -29.6197  -23.3721   19.5033 C   0  0  0  0  0  0  0  0  0  0  0  0
  -18.3973  -28.3337   23.6182 C   0  0  0  0  0  0  0  0  0  0  0  0
  -24.0546  -25.5012   22.0712 C   0  0  0  0  0  0  0  0  0  0  0  0
  -25.2449  -26.4575   19.5387 C   0  0  0  0  0  0  0  0  0  0  0  0
  -19.6123  -29.1415   23.1693 C   0  0  0  0  0  0  0  0  0  0  0  0
  -29.4980  -21.8027   22.6970 C   0  0  0  0  0  0  0  0  0  0  0  0
  -19.9021  -28.8936   21.6923 C   0  0  0  0  0  0  0  0  0  0  0  0
  -29.0251  -20.3811   22.3846 C   0  0  0  0  0  0  0  0  0  0  0  0
  -28.8240  -22.8356   21.7955 C   0  0  0  0  0  0  0  0  0  0  0  0
  -28.4548  -21.1434   20.0434 C   0  0  0  0  0  0  0  0  0  0  0  0
  -20.2315  -27.4182   21.4348 C   0  0  1  0  0  0  0  0  0  0  0  0
  -23.9972  -26.9694   21.6609 C   0  0  1  0  0  0  0  0  0  0  0  0
  -29.1545  -20.0615   20.8823 C   0  0  2  0  0  0  0  0  0  0  0  0
  -31.1200  -28.4896   19.9360 C   0  0  0  0  0  0  0  0  0  0  0  0
  -24.7138  -30.2306   18.4652 C   0  0  0  0  0  0  0  0  0  0  0  0
  -27.1094  -30.6508   17.8713 C   0  0  0  0  0  0  0  0  0  0  0  0
  -26.2072  -31.4568   20.0528 C   0  0  0  0  0  0  0  0  0  0  0  0
  -28.2862  -18.1611   13.5602 C   0  0  0  0  0  0  0  0  0  0  0  0
  -29.6294  -26.7111   22.9511 C   0  0  0  0  0  0  0  0  0  0  0  0
  -26.1443  -19.7927   16.3277 C   0  0  0  0  0  0  0  0  0  0  0  0
  -24.6528  -19.7935   16.6562 C   0  0  0  0  0  0  0  0  0  0  0  0
  -28.8619  -19.6072   15.4701 C   0  0  0  0  0  0  0  0  0  0  0  0
  -24.3560  -20.5865   17.9208 C   0  0  0  0  0  0  0  0  0  1  0  0
  -29.0454  -21.0058   14.9099 C   0  0  0  0  0  0  0  0  0  0  0  0
  -26.5991  -28.9825   19.7118 C   0  0  1  0  0  0  0  0  0  0  0  0
  -30.0776  -28.2166   21.0091 C   0  0  2  0  0  0  0  0  0  0  0  0
  -26.1474  -30.3036   19.0276 C   0  0  0  0  0  0  0  0  0  0  0  0
  -27.3493  -18.3845   20.7812 N   0  0  0  0  0  0  0  0  0  0  0  0
  -28.6432  -18.6705   20.5574 N   0  0  0  0  0  0  0  0  0  0  0  0
  -25.0477  -27.3312   20.7071 N   0  0  0  0  0  0  0  0  0  0  0  0
  -28.9914  -22.4696   20.3873 N   0  0  0  0  0  0  0  0  0  0  0  0
  -29.5246  -27.2280   16.0231 N   0  0  0  0  0  0  0  0  0  0  0  0
  -29.8072  -25.9660   13.4869 N   0  0  0  0  0  0  0  0  0  0  0  0
  -30.6721  -17.7434   19.7607 N   0  0  0  0  0  0  0  0  0  0  0  0
  -27.7428  -14.3280   19.3727 N   0  0  0  0  0  0  0  0  0  0  0  0
  -29.7521  -22.9019   18.1972 N   0  0  0  0  0  0  0  0  0  0  0  0
  -21.5887  -27.1248   21.8424 N   0  0  0  0  0  0  0  0  0  0  0  0
  -27.9430  -29.0316   20.2775 N   0  0  0  0  0  0  0  0  0  0  0  0
  -27.8200  -18.9139   14.7225 N   0  0  0  0  0  0  0  0  0  0  0  0
  -30.5482  -27.0734   21.8414 N   0  3  0  0  0  0  0  0  0  0  0  0
  -29.9268  -14.9527   19.0585 O   0  0  0  0  0  0  0  0  0  0  0  0
  -22.6701  -27.8029   19.8948 O   0  0  0  0  0  0  0  0  0  0  0  0
  -25.5369  -29.3297   21.8041 O   0  0  0  0  0  0  0  0  0  0  0  0
  -25.5757  -18.3859   14.4716 O   0  0  0  0  0  0  0  0  0  0  0  0
  -28.3950  -26.7681   20.0561 O   0  0  0  0  0  0  0  0  0  0  0  0
  -30.0360  -24.4694   19.8836 O   0  0  0  0  0  0  0  0  0  0  0  0
  -22.3414  -14.4516   20.7312 O   0  0  0  0  0  0  0  0  0  0  0  0
  -24.7689  -21.9384   17.7252 O   0  0  0  0  0  0  0  0  0  1  0  0
  -30.0372  -21.6904   15.6646 O   0  0  0  0  0  0  0  0  0  0  0  0
  -17.8516  -17.1266   18.9736 F   0  0  0  0  0  0  0  0  0  0  0  0
  -20.8013  -13.4369   18.6719 F   0  0  0  0  0  0  0  0  0  0  0  0
  1  2  1  0  0  0  0
  1  5  2  0  0  0  0
  2  6  2  0  0  0  0
  3  8  2  0  0  0  0
  3 17  1  0  0  0  0
  4  9  1  0  0  0  0
  4 17  2  0  0  0  0
  5 19  1  0  0  0  0
  6 21  1  0  0  0  0
  7 10  2  0  0  0  0
  7 20  1  0  0  0  0
  8 26  1  0  0  0  0
  9 26  2  0  0  0  0
 10 27  1  0  0  0  0
 11 12  2  0  0  0  0
 11 28  1  0  0  0  0
 12 30  1  0  0  0  0
 13 22  1  0  0  0  0
 13 27  2  0  0  0  0
 14 23  2  0  0  0  0
 14 24  1  0  0  0  0
 15 25  2  0  0  0  0
 15 29  1  0  0  0  0
 16 30  2  0  0  0  0
 16 31  1  0  0  0  0
 17 32  1  0  0  0  0
 18 32  1  0  0  0  0
 18 33  2  0  0  0  0
 18 34  1  0  0  0  0
 19 21  2  0  0  0  0
 19 40  1  0  0  0  0
 20 22  2  0  0  0  0
 20 41  1  0  0  0  0
 21 49  1  0  0  0  0
 22 42  1  0  0  0  0
 23 25  1  0  0  0  0
 23 70  1  0  0  0  0
 24 29  2  0  0  0  0
 24 74  1  0  0  0  0
 25 71  1  0  0  0  0
 26 85  1  0  0  0  0
 27 86  1  0  0  0  0
 28 31  2  0  0  0  0
 28 85  1  0  0  0  0
 29 87  1  0  0  0  0
 30 88  1  0  0  0  0
 31 89  1  0  0  0  0
 32 66  2  0  0  0  0
 33 67  1  0  0  0  0
 33 72  1  0  0  0  0
 34 73  1  0  0  0  0
 34 79  2  0  0  0  0
 35 50  1  0  0  0  0
 35 75  1  0  0  0  0
 35 80  2  0  0  0  0
 36 63  1  0  0  0  0
 36 68  1  0  0  0  0
 36 81  2  0  0  0  0
 37 58  1  0  0  0  0
 37 77  1  0  0  0  0
 37 82  2  0  0  0  0
 38 64  1  0  0  0  0
 38 76  1  0  0  0  0
 38 83  2  0  0  0  0
 39 69  1  0  0  0  0
 39 74  1  0  0  0  0
 39 84  2  0  0  0  0
 40 43  1  0  0  0  0
 41 50  1  0  0  0  0
 42 68  1  0  0  0  0
 43 45  1  0  0  0  0
 44 46  1  0  0  0  0
 44 47  1  0  0  0  0
 45 49  1  0  0  0  0
 46 51  1  0  0  0  0
 47 69  1  0  0  0  0
 48 51  1  0  0  0  0
 48 69  1  0  0  0  0
 49 75  1  0  0  0  0
 50 68  1  0  0  0  0
 51 67  1  0  0  0  0
 52 64  1  0  0  0  0
 53 65  1  0  0  0  0
 54 65  1  0  0  0  0
 55 65  1  0  0  0  0
 56 77  1  0  0  0  0
 57 78  1  0  0  0  0
 58 59  1  0  0  0  0
 59 61  1  0  0  0  0
 60 62  1  0  0  0  0
 60 77  1  0  0  0  0
 61 86  1  0  0  0  0
 62 87  1  0  0  0  0
 63 65  1  0  0  0  0
 63 76  1  0  0  0  0
 64 78  1  0  0  0  0
 66 67  1  0  0  0  0
M  CHG  1  78   1
M  ISO  4  39 100  61 101  74 100  86 101
M  END
> <Batch ID>
0095

> <Smiles>
CNC(C)C(=O)NC(C(=O)N1Cc2cc([101O:1][101CH2:1]CCC(=O)N(C)CCOc3cc(N)c(N)cc3[100NH:0][100C:0](=O)N3CCCC(n4nc(-c5ccc(Oc6ccc(F)cc6F)cc5)c(C(N)=O)c4N)C3)ccc2CC1C(=O)NC1CCCc2ccccc21)C(C)(C)C

> <Shape>
0.215

> <Color>
0.073

> <Negative vol penalty>
0.000

$$$$

  -OEChem-04052300433D

 86 95  0     1  0  0  0  0  0999 V2000
  -27.4959  -30.9705   28.3643 C   0  0  0  0  0  0  0  0  0  0  0  0
  -27.5365  -30.0425   27.3286 C   0  0  0  0  0  0  0  0  0  0  0  0
  -24.0429   -9.4813   21.5393 C   0  0  0  0  0  0  0  0  0  0  0  0
  -24.6629  -10.6569   23.5568 C   0  0  0  0  0  0  0  0  0  0  0  0
  -26.3652  -31.7668   28.5412 C   0  0  0  0  0  0  0  0  0  0  0  0
  -26.4460  -29.9095   26.4699 C   0  0  0  0  0  0  0  0  0  0  0  0
  -27.8267  -29.6273   21.6058 C   0  0  0  0  0  0  0  0  0  0  0  0
  -30.6625  -20.2650   19.0807 C   0  0  0  0  0  0  0  0  0  0  0  0
  -30.5014  -18.8883   19.2363 C   0  0  0  0  0  0  0  0  0  0  0  0
  -23.6139   -8.3961   22.3034 C   0  0  0  0  0  0  0  0  0  0  0  0
  -24.2338   -9.5717   24.3210 C   0  0  0  0  0  0  0  0  0  0  0  0
  -28.3220  -28.4047   21.1544 C   0  0  0  0  0  0  0  0  0  0  0  0
  -20.9083   -7.5672   24.1542 C   0  0  0  0  0  0  0  0  0  0  0  0
  -19.6837   -6.9864   23.8250 C   0  0  0  0  0  0  0  0  0  0  0  0
  -26.1703  -27.8962   20.1896 C   0  0  0  0  0  0  0  0  0  0  0  0
  -30.4616  -24.4847   18.5504 C   0  0  0  0  0  0  0  0  0  0  0  0
  -28.5142  -20.6342   20.1225 C   0  0  0  0  0  0  0  0  0  0  0  0
  -20.7935   -4.8804   23.4122 C   0  0  0  0  0  0  0  0  0  0  0  0
  -24.5675  -10.6117   22.1660 C   0  0  0  0  0  0  0  0  0  0  0  0
  -24.2452  -12.8404   20.9674 C   0  0  0  0  0  0  0  0  0  0  0  0
  -25.2641  -31.6503   27.6782 C   0  0  0  0  0  0  0  0  0  0  0  0
  -26.4942  -29.9894   21.3615 C   0  0  0  0  0  0  0  0  0  0  0  0
  -25.2990  -30.7042   26.6362 C   0  0  0  0  0  0  0  0  0  0  0  0
  -25.6613  -29.1250   20.6367 C   0  0  0  0  0  0  0  0  0  0  0  0
  -29.6830  -24.7076   19.7128 C   0  0  0  0  0  0  0  0  0  0  0  0
  -29.6689  -21.1380   19.5239 C   0  0  0  0  0  0  0  0  0  0  0  0
  -29.3466  -18.3845   19.8349 C   0  0  0  0  0  0  0  0  0  0  0  0
  -28.3530  -19.2574   20.2781 C   0  0  0  0  0  0  0  0  0  0  0  0
  -23.7094   -8.4413   23.6942 C   0  0  0  0  0  0  0  0  0  0  0  0
  -27.4930  -27.5377   20.4487 C   0  0  0  0  0  0  0  0  0  0  0  0
  -22.0756   -6.8047   24.1123 C   0  0  0  0  0  0  0  0  0  0  0  0
  -19.6262   -5.6430   23.4540 C   0  0  0  0  0  0  0  0  0  0  0  0
  -22.0182   -5.4613   23.7414 C   0  0  0  0  0  0  0  0  0  0  0  0
  -25.0114  -11.7328   21.3771 C   0  0  0  0  0  0  0  0  0  0  0  0
  -25.1206  -13.6160   20.2474 C   0  0  0  0  0  0  0  0  0  0  0  0
  -30.5365  -23.1225   18.3604 C   0  0  0  0  0  0  0  0  0  0  0  0
  -29.3059  -23.4747   20.1979 C   0  0  0  0  0  0  0  0  0  0  0  0
  -22.8655  -13.1413   21.2155 C   0  0  0  0  0  0  0  0  0  0  0  0
  -23.9732  -30.6315   23.1880 C   0  0  0  0  0  0  0  0  0  0  0  0
  -22.6045  -31.4059   20.3509 C   0  0  0  0  0  0  0  0  0  0  0  0
  -22.5541  -31.0280   16.9595 C   0  0  0  0  0  0  0  0  0  0  0  0
  -30.1107  -15.9967   19.5879 C   0  0  0  0  0  0  0  0  0  0  0  0
  -24.0452  -32.4998   27.9379 C   0  0  0  0  0  0  0  0  0  0  0  0
  -25.9828  -31.3234   21.8319 C   0  0  0  0  0  0  0  0  0  0  0  0
  -24.2289  -29.4755   20.3306 C   0  0  0  0  0  0  0  0  0  0  0  0
  -23.0812  -32.5593   26.7558 C   0  0  0  0  0  0  0  0  0  0  0  0
  -29.7795  -12.6089   18.5436 C   0  0  0  0  0  0  0  0  0  0  0  0
  -22.8418  -31.1626   26.1913 C   0  0  0  0  0  0  0  0  0  0  0  0
  -28.4464  -12.1701   19.1540 C   0  0  0  0  0  0  0  0  0  0  0  0
  -30.5441  -13.5526   19.4701 C   0  0  0  0  0  0  0  0  0  0  0  0
  -28.4498  -14.2810   20.5436 C   0  0  0  0  0  0  0  0  0  0  0  0
  -24.1459  -30.5479   25.6687 C   0  0  1  0  0  0  0  0  0  0  0  0
  -24.4643  -31.3654   21.9723 C   0  0  1  0  0  0  0  0  0  0  0  0
  -27.6138  -13.3809   19.6191 C   0  0  2  0  0  0  0  0  0  0  0  0
  -21.2962  -31.7581   14.9145 C   0  0  0  0  0  0  0  0  0  0  0  0
  -20.3388  -29.4905   21.0637 C   0  0  0  0  0  0  0  0  0  0  0  0
  -19.6415  -29.5312   18.6595 C   0  0  0  0  0  0  0  0  0  0  0  0
  -19.6000  -31.6319   20.0040 C   0  0  0  0  0  0  0  0  0  0  0  0
  -24.9574  -32.3032   15.7946 C   0  0  0  0  0  0  0  0  0  0  0  0
  -29.3371  -26.0430   20.3031 C   0  0  0  0  0  0  0  0  0  1  0  0
  -21.8229  -30.6543   19.3005 C   0  0  1  0  0  0  0  0  0  0  0  0
  -22.4735  -32.0434   15.8339 C   0  0  2  0  0  0  0  0  0  0  0  0
  -20.3772  -30.3192   19.7642 C   0  0  0  0  0  0  0  0  0  0  0  0
  -26.2762  -11.7953   20.9526 N   0  0  0  0  0  0  0  0  0  0  0  0
  -29.8306  -22.5186   19.3680 N   0  0  0  0  0  0  0  0  0  0  0  0
  -26.3115  -12.9516   20.2685 N   0  0  0  0  0  0  0  0  0  0  0  0
  -23.7736  -30.7883   20.8172 N   0  0  0  0  0  0  0  0  0  0  0  0
  -29.6942  -14.6776   19.8661 N   0  0  0  0  0  0  0  0  0  0  0  0
  -27.1758  -18.7683   20.8876 N   0  0  0  0  0  0  0  0  0  0  0  0
  -24.9802  -14.7948   19.6045 N   0  0  0  0  0  0  0  0  0  0  0  0
  -22.1102  -12.2364   21.9739 N   0  0  0  0  0  0  0  0  0  0  0  0
  -29.2059  -16.9821   19.9813 N   0  0  0  0  0  0  0  0  0  0  0  0
  -24.4873  -31.1081   24.3788 N   0  0  0  0  0  0  0  0  0  0  0  0
  -21.8892  -31.4615   18.0870 N   0  0  0  0  0  0  0  0  0  0  0  0
  -23.7222  -32.0157   15.0209 N   0  3  0  0  0  0  0  0  0  0  0  0
  -22.3143  -14.1736   20.7637 O   0  0  0  0  0  0  0  0  0  0  0  0
  -23.1850  -29.7025   23.0556 O   0  0  0  0  0  0  0  0  0  0  0  0
  -22.1965  -32.5037   20.7380 O   0  0  0  0  0  0  0  0  0  0  0  0
  -23.1444  -29.9557   16.8483 O   0  0  0  0  0  0  0  0  0  0  0  0
  -31.1781  -16.2332   19.0163 O   0  0  0  0  0  0  0  0  0  0  0  0
  -31.1483  -22.4174   17.4164 O   0  0  0  0  0  0  0  0  0  0  0  0
  -28.5767  -23.1492   21.2592 O   0  0  0  0  0  0  0  0  0  0  0  0
  -23.2906   -7.3827   24.4402 O   0  0  0  0  0  0  0  0  0  0  0  0
  -27.9737  -26.3434   20.0076 O   0  0  0  0  0  0  0  0  0  1  0  0
  -18.4499   -5.0849   23.1394 F   0  0  0  0  0  0  0  0  0  0  0  0
  -23.1360   -4.7234   23.7005 F   0  0  0  0  0  0  0  0  0  0  0  0
  1  2  1  0  0  0  0
  1  5  2  0  0  0  0
  2  6  2  0  0  0  0
  3 10  2  0  0  0  0
  3 19  1  0  0  0  0
  4 11  1  0  0  0  0
  4 19  2  0  0  0  0
  5 21  1  0  0  0  0
  6 23  1  0  0  0  0
  7 12  2  0  0  0  0
  7 22  1  0  0  0  0
  8  9  2  0  0  0  0
  8 26  1  0  0  0  0
  9 27  1  0  0  0  0
 10 29  1  0  0  0  0
 11 29  2  0  0  0  0
 12 30  1  0  0  0  0
 13 14  2  0  0  0  0
 13 31  1  0  0  0  0
 14 32  1  0  0  0  0
 15 24  1  0  0  0  0
 15 30  2  0  0  0  0
 16 25  1  0  0  0  0
 16 36  2  0  0  0  0
 17 26  2  0  0  0  0
 17 28  1  0  0  0  0
 18 32  2  0  0  0  0
 18 33  1  0  0  0  0
 19 34  1  0  0  0  0
 20 34  1  0  0  0  0
 20 35  2  0  0  0  0
 20 38  1  0  0  0  0
 21 23  2  0  0  0  0
 21 43  1  0  0  0  0
 22 24  2  0  0  0  0
 22 44  1  0  0  0  0
 23 52  1  0  0  0  0
 24 45  1  0  0  0  0
 25 37  2  0  0  0  0
 25 60  1  0  0  0  0
 26 65  1  0  0  0  0
 27 28  2  0  0  0  0
 27 72  1  0  0  0  0
 28 69  1  0  0  0  0
 29 83  1  0  0  0  0
 30 84  1  0  0  0  0
 31 33  2  0  0  0  0
 31 83  1  0  0  0  0
 32 85  1  0  0  0  0
 33 86  1  0  0  0  0
 34 64  2  0  0  0  0
 35 66  1  0  0  0  0
 35 70  1  0  0  0  0
 36 65  1  0  0  0  0
 36 81  1  0  0  0  0
 37 65  1  0  0  0  0
 37 82  1  0  0  0  0
 38 71  1  0  0  0  0
 38 76  2  0  0  0  0
 39 53  1  0  0  0  0
 39 73  1  0  0  0  0
 39 77  2  0  0  0  0
 40 61  1  0  0  0  0
 40 67  1  0  0  0  0
 40 78  2  0  0  0  0
 41 62  1  0  0  0  0
 41 74  1  0  0  0  0
 41 79  2  0  0  0  0
 42 68  1  0  0  0  0
 42 72  1  0  0  0  0
 42 80  2  0  0  0  0
 43 46  1  0  0  0  0
 44 53  1  0  0  0  0
 45 67  1  0  0  0  0
 46 48  1  0  0  0  0
 47 49  1  0  0  0  0
 47 50  1  0  0  0  0
 48 52  1  0  0  0  0
 49 54  1  0  0  0  0
 50 68  1  0  0  0  0
 51 54  1  0  0  0  0
 51 68  1  0  0  0  0
 52 73  1  0  0  0  0
 53 67  1  0  0  0  0
 54 66  1  0  0  0  0
 55 62  1  0  0  0  0
 56 63  1  0  0  0  0
 57 63  1  0  0  0  0
 58 63  1  0  0  0  0
 59 75  1  0  0  0  0
 60 84  1  0  0  0  0
 61 63  1  0  0  0  0
 61 74  1  0  0  0  0
 62 75  1  0  0  0  0
 64 66  1  0  0  0  0
M  CHG  1  75   1
M  ISO  4  42 100  60 101  72 100  84 101
M  END
> <Batch ID>
0095

> <Smiles>
CNC(C)C(=O)NC(C(=O)N1Cc2cc([101O:1][101CH2:1]C3CC(=O)N(c4ccc([100NH:0][100C:0](=O)N5CCCC(n6nc(-c7ccc(Oc8ccc(F)cc8F)cc7)c(C(N)=O)c6N)C5)c(N)c4)C3=O)ccc2CC1C(=O)NC1CCCc2ccccc21)C(C)(C)C

> <Shape>
0.342

> <Color>
0.130

> <Negative vol penalty>
0.000

$$$$

  -OEChem-04052300433D

 87 96  0     1  0  0  0  0  0999 V2000
  -28.1937  -32.8198   14.4811 C   0  0  0  0  0  0  0  0  0  0  0  0
  -28.0384  -31.6136   15.1566 C   0  0  0  0  0  0  0  0  0  0  0  0
  -23.1496  -10.3773   19.5622 C   0  0  0  0  0  0  0  0  0  0  0  0
  -23.4392   -9.5633   21.8184 C   0  0  0  0  0  0  0  0  0  0  0  0
  -29.3578  -19.5816   19.6531 C   0  0  0  0  0  0  0  0  0  0  0  0
  -27.8819  -17.9555   18.6458 C   0  0  0  0  0  0  0  0  0  0  0  0
  -28.3707  -34.0018   15.1991 C   0  0  0  0  0  0  0  0  0  0  0  0
  -28.0612  -31.5885   16.5506 C   0  0  0  0  0  0  0  0  0  0  0  0
  -24.3755  -28.7161   18.5025 C   0  0  0  0  0  0  0  0  0  0  0  0
  -28.3703  -20.5581   19.5237 C   0  0  0  0  0  0  0  0  0  0  0  0
  -26.8943  -18.9321   18.5164 C   0  0  0  0  0  0  0  0  0  0  0  0
  -22.2541   -9.3399   19.3028 C   0  0  0  0  0  0  0  0  0  0  0  0
  -22.5436   -8.5258   21.5590 C   0  0  0  0  0  0  0  0  0  0  0  0
  -24.5659  -27.3351   18.4817 C   0  0  0  0  0  0  0  0  0  0  0  0
  -22.5878   -5.5295   19.9934 C   0  0  0  0  0  0  0  0  0  0  0  0
  -22.9386   -4.2487   20.4202 C   0  0  0  0  0  0  0  0  0  0  0  0
  -25.2366  -27.3988   20.7980 C   0  0  0  0  0  0  0  0  0  0  0  0
  -24.1558  -22.1863   18.6998 C   0  0  0  0  0  0  0  0  0  0  0  0
  -20.9621   -4.1698   21.8076 C   0  0  0  0  0  0  0  0  0  0  0  0
  -23.7422  -10.4890   20.8200 C   0  0  0  0  0  0  0  0  0  0  0  0
  -29.1136  -18.2802   19.2141 C   0  0  0  0  0  0  0  0  0  0  0  0
  -24.3645  -12.8403   21.5894 C   0  0  0  0  0  0  0  0  0  0  0  0
  -28.3860  -33.9925   16.6028 C   0  0  0  0  0  0  0  0  0  0  0  0
  -24.6251  -29.4515   19.6701 C   0  0  0  0  0  0  0  0  0  0  0  0
  -28.2400  -32.7713   17.2881 C   0  0  0  0  0  0  0  0  0  0  0  0
  -25.0462  -28.7886   20.8317 C   0  0  0  0  0  0  0  0  0  0  0  0
  -25.1551  -23.1825   18.5732 C   0  0  0  0  0  0  0  0  0  0  0  0
  -27.1386  -20.2334   18.9554 C   0  0  0  0  0  0  0  0  0  0  0  0
  -21.9511   -8.4141   20.3012 C   0  0  0  0  0  0  0  0  0  0  0  0
  -24.9993  -26.6766   19.6287 C   0  0  0  0  0  0  0  0  0  0  0  0
  -21.4243   -6.1305   20.4738 C   0  0  0  0  0  0  0  0  0  0  0  0
  -22.1257   -3.5688   21.3273 C   0  0  0  0  0  0  0  0  0  0  0  0
  -20.6114   -5.4506   21.3808 C   0  0  0  0  0  0  0  0  0  0  0  0
  -24.6679  -11.5601   21.0883 C   0  0  0  0  0  0  0  0  0  0  0  0
  -25.5794  -13.4766   21.6639 C   0  0  0  0  0  0  0  0  0  0  0  0
  -24.7974  -20.9775   18.8559 C   0  0  0  0  0  0  0  0  0  0  0  0
  -26.3771  -22.5521   18.6556 C   0  0  0  0  0  0  0  0  0  0  0  0
  -30.1650  -17.2398   19.3521 C   0  0  0  0  0  0  0  0  0  0  0  0
  -23.0978  -13.4038   21.9548 C   0  0  0  0  0  0  0  0  0  0  0  0
  -26.6310  -31.7857   20.4650 C   0  0  0  0  0  0  0  0  0  0  0  0
  -24.9462  -31.7608   23.2368 C   0  0  0  0  0  0  0  0  0  0  0  0
  -22.9572  -30.0290   25.4029 C   0  0  0  0  0  0  0  0  0  0  0  0
  -30.5268  -14.7998   19.5495 C   0  0  0  0  0  0  0  0  0  0  0  0
  -28.6277  -35.2889   17.3347 C   0  0  0  0  0  0  0  0  0  0  0  0
  -24.3893  -30.9370   19.6837 C   0  0  0  0  0  0  0  0  0  0  0  0
  -25.3087  -29.5295   22.1165 C   0  0  0  0  0  0  0  0  0  0  0  0
  -28.2649  -35.2286   18.8163 C   0  0  0  0  0  0  0  0  0  0  0  0
  -30.2846  -11.6676   21.1706 C   0  0  0  0  0  0  0  0  0  0  0  0
  -28.8272  -33.9613   19.4525 C   0  0  0  0  0  0  0  0  0  0  0  0
  -28.7766  -11.4663   21.3437 C   0  0  0  0  0  0  0  0  0  0  0  0
  -30.6181  -12.3394   19.8393 C   0  0  0  0  0  0  0  0  0  0  0  0
  -28.3919  -13.3849   19.7454 C   0  0  0  0  0  0  0  0  0  0  0  0
  -28.2342  -32.7067   18.8000 C   0  0  1  0  0  0  0  0  0  0  0  0
  -25.1679  -31.6555   20.7814 C   0  0  1  0  0  0  0  0  0  0  0  0
  -27.9996  -12.7758   21.1011 C   0  0  1  0  0  0  0  0  0  0  0  0
  -21.7686  -30.2612   27.6007 C   0  0  0  0  0  0  0  0  0  0  0  0
  -27.6041  -31.4550   24.7038 C   0  0  0  0  0  0  0  0  0  0  0  0
  -26.3221  -30.7480   26.7348 C   0  0  0  0  0  0  0  0  0  0  0  0
  -25.9910  -33.0308   25.7851 C   0  0  0  0  0  0  0  0  0  0  0  0
  -20.3138  -29.5697   24.1538 C   0  0  0  0  0  0  0  0  0  0  0  0
  -24.9199  -24.6522   18.3832 C   0  0  0  0  0  0  0  0  0  1  0  0
  -25.0622  -31.0287   24.5519 C   0  0  1  0  0  0  0  0  0  0  0  0
  -21.6554  -30.3992   26.0905 C   0  0  2  0  0  0  0  0  0  0  0  0
  -26.2418  -31.5516   25.4193 C   0  0  0  0  0  0  0  0  0  0  0  0
  -25.9731  -11.3916   20.8605 N   0  0  0  0  0  0  0  0  0  0  0  0
  -26.1474  -21.2120   18.8271 N   0  0  0  0  0  0  0  0  0  0  0  0
  -26.5007  -12.5742   21.2200 N   0  0  0  0  0  0  0  0  0  0  0  0
  -25.0697  -30.9817   22.0777 N   0  0  0  0  0  0  0  0  0  0  0  0
  -29.8491  -13.5762   19.6907 N   0  0  0  0  0  0  0  0  0  0  0  0
  -25.9388  -14.7144   22.0652 N   0  0  0  0  0  0  0  0  0  0  0  0
  -21.9494  -12.6124   21.8159 N   0  0  0  0  0  0  0  0  0  0  0  0
  -29.7034  -15.9275   19.4573 N   0  0  0  0  0  0  0  0  0  0  0  0
  -26.8945  -32.4665   19.2917 N   0  0  0  0  0  0  0  0  0  0  0  0
  -23.7563  -31.1331   25.1939 N   0  0  0  0  0  0  0  0  0  0  0  0
  -20.5514  -29.5159   25.6193 N   0  3  0  0  0  0  0  0  0  0  0  0
  -31.3458  -17.5758   19.3267 O   0  0  0  0  0  0  0  0  0  0  0  0
  -22.9855  -14.5800   22.3761 O   0  0  0  0  0  0  0  0  0  0  0  0
  -27.4595  -31.3054   21.2295 O   0  0  0  0  0  0  0  0  0  0  0  0
  -24.7460  -32.9780   23.2380 O   0  0  0  0  0  0  0  0  0  0  0  0
  -23.2388  -28.8753   25.0864 O   0  0  0  0  0  0  0  0  0  0  0  0
  -31.7588  -14.8855   19.5444 O   0  0  0  0  0  0  0  0  0  0  0  0
  -24.3039  -19.7550   19.0122 O   0  0  0  0  0  0  0  0  0  0  0  0
  -27.6095  -23.0432   18.5920 O   0  0  0  0  0  0  0  0  0  0  0  0
  -21.0770   -7.4018   20.0485 O   0  0  0  0  0  0  0  0  0  0  0  0
  -25.1865  -25.3289   19.6110 O   0  0  0  0  0  0  0  0  0  1  0  0
  -22.4618   -2.3383   21.7358 F   0  0  0  0  0  0  0  0  0  0  0  0
  -19.4918   -6.0224   21.8448 F   0  0  0  0  0  0  0  0  0  0  0  0
  1  2  1  0  0  0  0
  1  7  2  0  0  0  0
  2  8  2  0  0  0  0
  3 12  2  0  0  0  0
  3 20  1  0  0  0  0
  4 13  1  0  0  0  0
  4 20  2  0  0  0  0
  5 10  2  0  0  0  0
  5 21  1  0  0  0  0
  6 11  1  0  0  0  0
  6 21  2  0  0  0  0
  7 23  1  0  0  0  0
  8 25  1  0  0  0  0
  9 14  2  0  0  0  0
  9 24  1  0  0  0  0
 10 28  1  0  0  0  0
 11 28  2  0  0  0  0
 12 29  1  0  0  0  0
 13 29  2  0  0  0  0
 14 30  1  0  0  0  0
 15 16  2  0  0  0  0
 15 31  1  0  0  0  0
 16 32  1  0  0  0  0
 17 26  1  0  0  0  0
 17 30  2  0  0  0  0
 18 27  1  0  0  0  0
 18 36  2  0  0  0  0
 19 32  2  0  0  0  0
 19 33  1  0  0  0  0
 20 34  1  0  0  0  0
 21 38  1  0  0  0  0
 22 34  1  0  0  0  0
 22 35  2  0  0  0  0
 22 39  1  0  0  0  0
 23 25  2  0  0  0  0
 23 44  1  0  0  0  0
 24 26  2  0  0  0  0
 24 45  1  0  0  0  0
 25 53  1  0  0  0  0
 26 46  1  0  0  0  0
 27 37  2  0  0  0  0
 27 61  1  0  0  0  0
 28 66  1  0  0  0  0
 29 84  1  0  0  0  0
 30 85  1  0  0  0  0
 31 33  2  0  0  0  0
 31 84  1  0  0  0  0
 32 86  1  0  0  0  0
 33 87  1  0  0  0  0
 34 65  2  0  0  0  0
 35 67  1  0  0  0  0
 35 70  1  0  0  0  0
 36 66  1  0  0  0  0
 36 82  1  0  0  0  0
 37 66  1  0  0  0  0
 37 83  1  0  0  0  0
 38 72  1  0  0  0  0
 38 76  2  0  0  0  0
 39 71  1  0  0  0  0
 39 77  2  0  0  0  0
 40 54  1  0  0  0  0
 40 73  1  0  0  0  0
 40 78  2  0  0  0  0
 41 62  1  0  0  0  0
 41 68  1  0  0  0  0
 41 79  2  0  0  0  0
 42 63  1  0  0  0  0
 42 74  1  0  0  0  0
 42 80  2  0  0  0  0
 43 69  1  0  0  0  0
 43 72  1  0  0  0  0
 43 81  2  0  0  0  0
 44 47  1  0  0  0  0
 45 54  1  0  0  0  0
 46 68  1  0  0  0  0
 47 49  1  0  0  0  0
 48 50  1  0  0  0  0
 48 51  1  0  0  0  0
 49 53  1  0  0  0  0
 50 55  1  0  0  0  0
 51 69  1  0  0  0  0
 52 55  1  0  0  0  0
 52 69  1  0  0  0  0
 53 73  1  0  0  0  0
 54 68  1  0  0  0  0
 55 67  1  0  0  0  0
 56 63  1  0  0  0  0
 57 64  1  0  0  0  0
 58 64  1  0  0  0  0
 59 64  1  0  0  0  0
 60 75  1  0  0  0  0
 61 85  1  0  0  0  0
 62 64  1  0  0  0  0
 62 74  1  0  0  0  0
 63 75  1  0  0  0  0
 65 67  1  0  0  0  0
M  CHG  1  75   1
M  ISO  4  43 100  61 101  72 100  85 101
M  END
> <Batch ID>
0095

> <Smiles>
CNC(C)C(=O)NC(C(=O)N1Cc2cc([101O:1][101CH2:1]C3CC(=O)N(c4ccc(C(=O)[100NH:0][100C:0](=O)N5CCCC(n6nc(-c7ccc(Oc8ccc(F)cc8F)cc7)c(C(N)=O)c6N)C5)cc4)C3=O)ccc2CC1C(=O)NC1CCCc2ccccc21)C(C)(C)C

> <Shape>
0.275

> <Color>
0.127

> <Negative vol penalty>
0.000

$$$$

  -OEChem-04052300433D

 89 98  0     1  0  0  0  0  0999 V2000
  -25.7690  -35.7721   22.0073 C   0  0  0  0  0  0  0  0  0  0  0  0
  -26.3681  -34.5169   21.9782 C   0  0  0  0  0  0  0  0  0  0  0  0
  -33.7522  -21.2881   18.6124 C   0  0  0  0  0  0  0  0  0  0  0  0
  -25.3177  -13.8618   21.1147 C   0  0  0  0  0  0  0  0  0  0  0  0
  -26.2570  -12.1331   19.7125 C   0  0  0  0  0  0  0  0  0  0  0  0
  -24.4734  -35.9136   22.5026 C   0  0  0  0  0  0  0  0  0  0  0  0
  -25.6722  -33.4025   22.4454 C   0  0  0  0  0  0  0  0  0  0  0  0
  -26.0984  -29.4111   19.3579 C   0  0  0  0  0  0  0  0  0  0  0  0
  -33.4777  -22.6359   18.8438 C   0  0  0  0  0  0  0  0  0  0  0  0
  -32.7514  -20.4456   18.1283 C   0  0  0  0  0  0  0  0  0  0  0  0
  -24.1706  -13.0896   21.2983 C   0  0  0  0  0  0  0  0  0  0  0  0
  -25.1100  -11.3609   19.8961 C   0  0  0  0  0  0  0  0  0  0  0  0
  -27.2869  -28.6846   19.4168 C   0  0  0  0  0  0  0  0  0  0  0  0
  -22.5807   -8.7788   20.2881 C   0  0  0  0  0  0  0  0  0  0  0  0
  -22.7489   -7.4226   20.5673 C   0  0  0  0  0  0  0  0  0  0  0  0
  -26.2013  -27.0322   20.7988 C   0  0  0  0  0  0  0  0  0  0  0  0
  -23.9882   -7.9871   22.5629 C   0  0  0  0  0  0  0  0  0  0  0  0
  -26.3609  -13.3835   20.3218 C   0  0  0  0  0  0  0  0  0  0  0  0
  -28.4308  -14.6393   21.1255 C   0  0  0  0  0  0  0  0  0  0  0  0
  -23.7577  -34.7989   22.9672 C   0  0  0  0  0  0  0  0  0  0  0  0
  -24.9535  -28.9584   20.0292 C   0  0  0  0  0  0  0  0  0  0  0  0
  -24.3663  -33.5294   22.9486 C   0  0  0  0  0  0  0  0  0  0  0  0
  -24.9988  -27.7534   20.7448 C   0  0  0  0  0  0  0  0  0  0  0  0
  -32.2024  -23.1413   18.5914 C   0  0  0  0  0  0  0  0  0  0  0  0
  -31.4761  -20.9510   17.8759 C   0  0  0  0  0  0  0  0  0  0  0  0
  -24.0668  -11.8391   20.6890 C   0  0  0  0  0  0  0  0  0  0  0  0
  -27.3393  -27.4965   20.1397 C   0  0  0  0  0  0  0  0  0  0  0  0
  -23.1163   -9.7392   21.1463 C   0  0  0  0  0  0  0  0  0  0  0  0
  -23.4526   -7.0267   21.7047 C   0  0  0  0  0  0  0  0  0  0  0  0
  -23.8200   -9.3433   22.2837 C   0  0  0  0  0  0  0  0  0  0  0  0
  -31.2015  -22.2988   18.1074 C   0  0  0  0  0  0  0  0  0  0  0  0
  -27.5457  -14.1809   20.1313 C   0  0  0  0  0  0  0  0  0  0  0  0
  -29.3853  -15.3463   20.4359 C   0  0  0  0  0  0  0  0  0  0  0  0
  -32.8382  -25.5879   18.7369 C   0  0  0  0  0  0  0  0  0  0  0  0
  -26.8794  -19.4706   17.0157 C   0  0  0  0  0  0  0  0  0  0  0  0
  -28.1084  -19.8575   16.6600 C   0  0  0  0  0  0  0  0  0  0  0  0
  -28.3935  -14.4435   22.5453 C   0  0  0  0  0  0  0  0  0  0  0  0
  -29.0835  -20.3244   17.6927 C   0  0  0  0  0  0  0  0  0  0  0  0
  -23.1284  -30.0964   22.3696 C   0  0  0  0  0  0  0  0  0  0  0  0
  -21.2950  -27.5139   21.6684 C   0  0  0  0  0  0  0  0  0  0  0  0
  -21.0974  -24.3745   20.3447 C   0  0  0  0  0  0  0  0  0  0  0  0
  -30.8451  -19.0063   16.5335 C   0  0  0  0  0  0  0  0  0  0  0  0
  -22.3773  -35.0086   23.5373 C   0  0  0  0  0  0  0  0  0  0  0  0
  -23.6718  -29.7399   19.9338 C   0  0  0  0  0  0  0  0  0  0  0  0
  -23.7919  -27.2137   21.4663 C   0  0  0  0  0  0  0  0  0  0  0  0
  -32.0659  -26.8649   18.9780 C   0  0  0  0  0  0  0  0  0  0  0  0
  -21.5692  -33.7200   23.6660 C   0  0  0  0  0  0  0  0  0  0  0  0
  -30.3190  -15.6784   15.4828 C   0  0  0  0  0  0  0  0  0  0  0  0
  -22.4165  -32.6192   24.2961 C   0  0  0  0  0  0  0  0  0  0  0  0
  -29.6093  -15.0265   16.6692 C   0  0  0  0  0  0  0  0  0  0  0  0
  -29.8452  -17.1131   15.2782 C   0  0  0  0  0  0  0  0  0  0  0  0
  -30.5894  -24.9985   19.1328 C   0  0  0  0  0  0  0  0  0  0  0  0
  -29.2917  -17.3347   17.6802 C   0  0  0  0  0  0  0  0  0  0  0  0
  -23.6345  -32.2928   23.4235 C   0  0  1  0  0  0  0  0  0  0  0  0
  -22.7082  -29.4495   21.0802 C   0  0  1  0  0  0  0  0  0  0  0  0
  -30.8113  -26.3927   19.6988 C   0  0  2  0  0  0  0  0  0  0  0  0
  -29.7499  -15.8867   17.9375 C   0  0  1  0  0  0  0  0  0  0  0  0
  -19.4740  -22.5024   19.9485 C   0  0  0  0  0  0  0  0  0  0  0  0
  -21.4447  -26.7623   24.6218 C   0  0  0  0  0  0  0  0  0  0  0  0
  -20.6535  -24.4681   24.0064 C   0  0  0  0  0  0  0  0  0  0  0  0
  -19.1945  -26.4455   23.5775 C   0  0  0  0  0  0  0  0  0  0  0  0
  -21.4648  -24.5218   17.4117 C   0  0  0  0  0  0  0  0  0  0  0  0
  -29.6220  -27.3158   19.4976 C   0  0  0  0  0  0  0  0  0  1  0  0
  -21.2420  -26.0807   22.1398 C   0  0  1  0  0  0  0  0  0  0  0  0
  -20.1153  -23.7532   19.3680 C   0  0  2  0  0  0  0  0  0  0  0  0
  -20.6571  -25.9500   23.5745 C   0  0  0  0  0  0  0  0  0  0  0  0
  -27.9058  -14.5646   18.9037 N   0  0  0  0  0  0  0  0  0  0  0  0
  -29.0277  -15.2716   19.1218 N   0  0  0  0  0  0  0  0  0  0  0  0
  -31.9253  -24.5207   18.8292 N   0  0  0  0  0  0  0  0  0  0  0  0
  -22.5639  -28.0172   21.3483 N   0  0  0  0  0  0  0  0  0  0  0  0
  -29.9845  -17.8920   16.5086 N   0  0  0  0  0  0  0  0  0  0  0  0
  -30.4872  -16.0184   20.8314 N   0  0  0  0  0  0  0  0  0  0  0  0
  -29.0467  -13.3261   23.0830 N   0  0  0  0  0  0  0  0  0  0  0  0
  -23.2442  -31.4715   22.2976 N   0  0  0  0  0  0  0  0  0  0  0  0
  -20.5000  -25.3437   21.1226 N   0  0  0  0  0  0  0  0  0  0  0  0
  -30.4392  -20.0728   17.3733 N   0  0  0  0  0  0  0  0  0  0  0  0
  -20.8086  -23.3817   18.1022 N   0  3  0  0  0  0  0  0  0  0  0  0
  -34.0287  -25.5841   18.4586 O   0  0  0  0  0  0  0  0  0  0  0  0
  -27.7847  -15.2270   23.3128 O   0  0  0  0  0  0  0  0  0  0  0  0
  -28.6837  -20.8296   18.7410 O   0  0  0  0  0  0  0  0  0  0  0  0
  -23.3310  -29.3997   23.3572 O   0  0  0  0  0  0  0  0  0  0  0  0
  -20.2484  -28.1607   21.5804 O   0  0  0  0  0  0  0  0  0  0  0  0
  -22.2756  -24.0317   20.4134 O   0  0  0  0  0  0  0  0  0  0  0  0
  -31.8625  -19.0910   15.8361 O   0  0  0  0  0  0  0  0  0  0  0  0
  -22.9478  -11.0853   20.8682 O   0  0  0  0  0  0  0  0  0  0  0  0
  -28.4982  -26.7858   20.1994 O   0  0  0  0  0  0  0  0  0  1  0  0
  -23.6127   -5.7243   21.9735 F   0  0  0  0  0  0  0  0  0  0  0  0
  -24.3359  -10.2614   23.1125 F   0  0  0  0  0  0  0  0  0  0  0  0
  -29.9743  -22.7850   17.8655 F   0  0  0  0  0  0  0  0  0  0  0  0
  1  2  1  0  0  0  0
  1  6  2  0  0  0  0
  2  7  2  0  0  0  0
  3  9  1  0  0  0  0
  3 10  2  0  0  0  0
  4 11  2  0  0  0  0
  4 18  1  0  0  0  0
  5 12  1  0  0  0  0
  5 18  2  0  0  0  0
  6 20  1  0  0  0  0
  7 22  1  0  0  0  0
  8 13  2  0  0  0  0
  8 21  1  0  0  0  0
  9 24  2  0  0  0  0
 10 25  1  0  0  0  0
 11 26  1  0  0  0  0
 12 26  2  0  0  0  0
 13 27  1  0  0  0  0
 14 15  2  0  0  0  0
 14 28  1  0  0  0  0
 15 29  1  0  0  0  0
 16 23  1  0  0  0  0
 16 27  2  0  0  0  0
 17 29  2  0  0  0  0
 17 30  1  0  0  0  0
 18 32  1  0  0  0  0
 19 32  1  0  0  0  0
 19 33  2  0  0  0  0
 19 37  1  0  0  0  0
 20 22  2  0  0  0  0
 20 43  1  0  0  0  0
 21 23  2  0  0  0  0
 21 44  1  0  0  0  0
 22 54  1  0  0  0  0
 23 45  1  0  0  0  0
 24 31  1  0  0  0  0
 24 69  1  0  0  0  0
 25 31  2  0  0  0  0
 25 76  1  0  0  0  0
 26 85  1  0  0  0  0
 27 86  1  0  0  0  0
 28 30  2  0  0  0  0
 28 85  1  0  0  0  0
 29 87  1  0  0  0  0
 30 88  1  0  0  0  0
 31 89  1  0  0  0  0
 32 67  2  0  0  0  0
 33 68  1  0  0  0  0
 33 72  1  0  0  0  0
 34 46  1  0  0  0  0
 34 69  1  0  0  0  0
 34 78  2  0  0  0  0
 35 36  2  0  0  0  0
 36 38  1  0  0  0  0
 37 73  1  0  0  0  0
 37 79  2  0  0  0  0
 38 76  1  0  0  0  0
 38 80  2  0  0  0  0
 39 55  1  0  0  0  0
 39 74  1  0  0  0  0
 39 81  2  0  0  0  0
 40 64  1  0  0  0  0
 40 70  1  0  0  0  0
 40 82  2  0  0  0  0
 41 65  1  0  0  0  0
 41 75  1  0  0  0  0
 41 83  2  0  0  0  0
 42 71  1  0  0  0  0
 42 76  1  0  0  0  0
 42 84  2  0  0  0  0
 43 47  1  0  0  0  0
 44 55  1  0  0  0  0
 45 70  1  0  0  0  0
 46 56  1  0  0  0  0
 47 49  1  0  0  0  0
 48 50  1  0  0  0  0
 48 51  1  0  0  0  0
 49 54  1  0  0  0  0
 50 57  1  0  0  0  0
 51 71  1  0  0  0  0
 52 56  1  0  0  0  0
 52 69  1  0  0  0  0
 53 57  1  0  0  0  0
 53 71  1  0  0  0  0
 54 74  1  0  0  0  0
 55 70  1  0  0  0  0
 56 63  1  0  0  0  0
 57 68  1  0  0  0  0
 58 65  1  0  0  0  0
 59 66  1  0  0  0  0
 60 66  1  0  0  0  0
 61 66  1  0  0  0  0
 62 77  1  0  0  0  0
 63 86  1  0  0  0  0
 64 66  1  0  0  0  0
 64 75  1  0  0  0  0
 65 77  1  0  0  0  0
 67 68  1  0  0  0  0
M  CHG  1  77   1
M  ISO  4  42 100  63 101  76 100  86 101
M  END
> <Batch ID>
0095

> <Smiles>
C=CC(=O)[100N:0](c1cccc(N2CC([101CH2:1][101O:1]c3ccc4c(c3)CN(C(=O)C(NC(=O)C(C)NC)C(C)(C)C)C(C(=O)NC3CCCc5ccccc53)C4)CC2=O)c1F)[100C:0](=O)N1CCCC(n2nc(-c3ccc(Oc4ccc(F)cc4F)cc3)c(C(N)=O)c2N)C1

> <Shape>
0.267

> <Color>
0.082

> <Negative vol penalty>
0.000

$$$$

  -OEChem-04052300433D

 85 93  0     1  0  0  0  0  0999 V2000
  -19.3219  -33.6240   23.2638 C   0  0  0  0  0  0  0  0  0  0  0  0
  -20.6307  -33.4465   22.8270 C   0  0  0  0  0  0  0  0  0  0  0  0
  -25.7644  -14.2626   21.4436 C   0  0  0  0  0  0  0  0  0  0  0  0
  -25.3748  -14.8895   19.1432 C   0  0  0  0  0  0  0  0  0  0  0  0
  -18.6519  -32.5783   23.8976 C   0  0  0  0  0  0  0  0  0  0  0  0
  -21.2707  -32.2235   23.0246 C   0  0  0  0  0  0  0  0  0  0  0  0
  -25.3340  -29.5508   19.3028 C   0  0  0  0  0  0  0  0  0  0  0  0
  -24.7004  -13.3631   21.3788 C   0  0  0  0  0  0  0  0  0  0  0  0
  -24.3107  -13.9899   19.0783 C   0  0  0  0  0  0  0  0  0  0  0  0
  -26.7272  -29.4989   19.3176 C   0  0  0  0  0  0  0  0  0  0  0  0
  -22.3150  -10.6398   21.7089 C   0  0  0  0  0  0  0  0  0  0  0  0
  -22.5074   -9.3678   22.2479 C   0  0  0  0  0  0  0  0  0  0  0  0
  -29.5298  -24.3168   17.6453 C   0  0  0  0  0  0  0  0  0  0  0  0
  -30.4289  -24.5204   15.4122 C   0  0  0  0  0  0  0  0  0  0  0  0
  -26.6299  -27.3678   20.4436 C   0  0  0  0  0  0  0  0  0  0  0  0
  -29.6422  -22.3788   16.2070 C   0  0  0  0  0  0  0  0  0  0  0  0
  -24.3238   -8.9870   20.7011 C   0  0  0  0  0  0  0  0  0  0  0  0
  -26.1016  -15.0258   20.3258 C   0  0  0  0  0  0  0  0  0  0  0  0
  -30.0918  -25.0985   16.6360 C   0  0  0  0  0  0  0  0  0  0  0  0
  -28.5515  -15.6978   20.0931 C   0  0  0  0  0  0  0  0  0  0  0  0
  -19.2807  -31.3388   24.0945 C   0  0  0  0  0  0  0  0  0  0  0  0
  -24.5772  -28.5150   19.8690 C   0  0  0  0  0  0  0  0  0  0  0  0
  -20.6090  -31.1607   23.6628 C   0  0  0  0  0  0  0  0  0  0  0  0
  -25.2273  -27.4077   20.4325 C   0  0  0  0  0  0  0  0  0  0  0  0
  -29.3050  -22.9569   17.4309 C   0  0  0  0  0  0  0  0  0  0  0  0
  -23.9735  -13.2267   20.1961 C   0  0  0  0  0  0  0  0  0  0  0  0
  -27.3754  -28.4087   19.8906 C   0  0  0  0  0  0  0  0  0  0  0  0
  -23.1270  -11.0855   20.6659 C   0  0  0  0  0  0  0  0  0  0  0  0
  -30.2042  -23.1605   15.1977 C   0  0  0  0  0  0  0  0  0  0  0  0
  -23.5118   -8.5414   21.7441 C   0  0  0  0  0  0  0  0  0  0  0  0
  -24.1315  -10.2591   20.1621 C   0  0  0  0  0  0  0  0  0  0  0  0
  -27.2004  -15.9556   20.3924 C   0  0  0  0  0  0  0  0  0  0  0  0
  -29.1863  -16.8961   20.3112 C   0  0  0  0  0  0  0  0  0  0  0  0
  -30.3304  -26.5471   16.8633 C   0  0  0  0  0  0  0  0  0  0  0  0
  -29.1770  -14.4836   19.6568 C   0  0  0  0  0  0  0  0  0  0  0  0
  -22.4926  -28.3083   22.2597 C   0  0  0  0  0  0  0  0  0  0  0  0
  -22.1440  -25.2705   21.1770 C   0  0  0  0  0  0  0  0  0  0  0  0
  -23.4764  -22.6319   19.4713 C   0  0  0  0  0  0  0  0  0  0  0  0
  -28.3409  -22.5798   19.7275 C   0  0  0  0  0  0  0  0  0  0  0  0
  -18.5323  -30.2533   24.8268 C   0  0  0  0  0  0  0  0  0  0  0  0
  -23.0749  -28.5733   19.8212 C   0  0  0  0  0  0  0  0  0  0  0  0
  -24.4605  -26.2601   21.0354 C   0  0  0  0  0  0  0  0  0  0  0  0
  -19.1528  -28.8684   24.6626 C   0  0  0  0  0  0  0  0  0  0  0  0
  -28.1305  -20.9783   22.9005 C   0  0  0  0  0  0  0  0  0  0  0  0
  -20.6620  -28.9309   24.8757 C   0  0  0  0  0  0  0  0  0  0  0  0
  -28.0013  -19.4942   22.5497 C   0  0  0  0  0  0  0  0  0  0  0  0
  -27.3823  -21.8635   21.9054 C   0  0  0  0  0  0  0  0  0  0  0  0
  -27.5945  -20.1540   20.1442 C   0  0  0  0  0  0  0  0  0  0  0  0
  -21.3285  -29.8408   23.8368 C   0  0  1  0  0  0  0  0  0  0  0  0
  -22.4091  -27.7065   20.8855 C   0  0  1  0  0  0  0  0  0  0  0  0
  -28.3857  -19.2267   21.0813 C   0  0  2  0  0  0  0  0  0  0  0  0
  -22.9704  -20.2714   18.7862 C   0  0  0  0  0  0  0  0  0  0  0  0
  -31.6642  -28.3606   19.7841 C   0  0  0  0  0  0  0  0  0  0  0  0
  -22.7231  -24.3240   24.0193 C   0  0  0  0  0  0  0  0  0  0  0  0
  -23.1430  -22.0347   23.0970 C   0  0  0  0  0  0  0  0  0  0  0  0
  -20.8905  -23.0797   22.8585 C   0  0  0  0  0  0  0  0  0  0  0  0
  -23.6448  -23.3077   16.5948 C   0  0  0  0  0  0  0  0  0  0  0  0
  -31.1030  -23.4530   13.0154 C   0  0  0  0  0  0  0  0  0  0  0  0
  -29.4231  -29.0039   18.8378 C   0  0  0  0  0  0  0  0  0  1  0  0
  -22.8137  -23.9489   21.4665 C   0  0  1  0  0  0  0  0  0  0  0  0
  -22.8995  -21.7376   18.3887 C   0  0  2  0  0  0  0  0  0  0  0  0
  -30.7524  -28.3023   18.5655 C   0  0  2  0  0  0  0  0  0  0  0  0
  -22.4073  -23.3692   22.8508 C   0  0  0  0  0  0  0  0  0  0  0  0
  -26.9882  -17.2185   20.7720 N   0  0  0  0  0  0  0  0  0  0  0  0
  -28.2146  -17.7649   20.7127 N   0  0  0  0  0  0  0  0  0  0  0  0
  -22.9935  -26.3665   20.9700 N   0  0  0  0  0  0  0  0  0  0  0  0
  -27.8008  -21.5571   20.5357 N   0  0  0  0  0  0  0  0  0  0  0  0
  -30.4752  -17.2808   20.1970 N   0  0  0  0  0  0  0  0  0  0  0  0
  -28.3778  -13.3455   19.4828 N   0  0  0  0  0  0  0  0  0  0  0  0
  -28.7335  -22.1631   18.4560 N   0  0  0  0  0  0  0  0  0  0  0  0
  -30.5322  -26.9266   18.1808 N   0  0  0  0  0  0  0  0  0  0  0  0
  -21.4460  -29.1567   22.5669 N   0  0  0  0  0  0  0  0  0  0  0  0
  -22.5017  -23.0774   20.3388 N   0  0  0  0  0  0  0  0  0  0  0  0
  -23.6513  -21.9159   17.1144 N   0  3  0  0  0  0  0  0  0  0  0  0
  -30.3169  -27.3151   15.9049 O   0  0  0  0  0  0  0  0  0  0  0  0
  -30.4107  -14.4058   19.4438 O   0  0  0  0  0  0  0  0  0  0  0  0
  -23.4359  -28.0229   22.9880 O   0  0  0  0  0  0  0  0  0  0  0  0
  -20.9127  -25.3268   21.1290 O   0  0  0  0  0  0  0  0  0  0  0  0
  -24.6727  -22.9047   19.5425 O   0  0  0  0  0  0  0  0  0  0  0  0
  -28.4724  -23.7340   20.1429 O   0  0  0  0  0  0  0  0  0  0  0  0
  -22.9353  -12.3489   20.1324 O   0  0  0  0  0  0  0  0  0  0  0  0
  -30.5326  -22.5962   14.0036 O   0  0  0  0  0  0  0  0  0  0  0  0
  -28.7351  -28.3559   19.9070 O   0  0  0  0  0  0  0  0  0  1  0  0
  -23.6974   -7.3205   22.2629 F   0  0  0  0  0  0  0  0  0  0  0  0
  -24.9155  -10.6821   19.1610 F   0  0  0  0  0  0  0  0  0  0  0  0
  1  2  1  0  0  0  0
  1  5  2  0  0  0  0
  2  6  2  0  0  0  0
  3  8  2  0  0  0  0
  3 18  1  0  0  0  0
  4  9  1  0  0  0  0
  4 18  2  0  0  0  0
  5 21  1  0  0  0  0
  6 23  1  0  0  0  0
  7 10  2  0  0  0  0
  7 22  1  0  0  0  0
  8 26  1  0  0  0  0
  9 26  2  0  0  0  0
 10 27  1  0  0  0  0
 11 12  2  0  0  0  0
 11 28  1  0  0  0  0
 12 30  1  0  0  0  0
 13 19  1  0  0  0  0
 13 25  2  0  0  0  0
 14 19  2  0  0  0  0
 14 29  1  0  0  0  0
 15 24  1  0  0  0  0
 15 27  2  0  0  0  0
 16 25  1  0  0  0  0
 16 29  2  0  0  0  0
 17 30  2  0  0  0  0
 17 31  1  0  0  0  0
 18 32  1  0  0  0  0
 19 34  1  0  0  0  0
 20 32  1  0  0  0  0
 20 33  2  0  0  0  0
 20 35  1  0  0  0  0
 21 23  2  0  0  0  0
 21 40  1  0  0  0  0
 22 24  2  0  0  0  0
 22 41  1  0  0  0  0
 23 49  1  0  0  0  0
 24 42  1  0  0  0  0
 25 70  1  0  0  0  0
 26 81  1  0  0  0  0
 27 83  1  0  0  0  0
 28 31  2  0  0  0  0
 28 81  1  0  0  0  0
 29 82  1  0  0  0  0
 30 84  1  0  0  0  0
 31 85  1  0  0  0  0
 32 64  2  0  0  0  0
 33 65  1  0  0  0  0
 33 68  1  0  0  0  0
 34 71  1  0  0  0  0
 34 75  2  0  0  0  0
 35 69  1  0  0  0  0
 35 76  2  0  0  0  0
 36 50  1  0  0  0  0
 36 72  1  0  0  0  0
 36 77  2  0  0  0  0
 37 60  1  0  0  0  0
 37 66  1  0  0  0  0
 37 78  2  0  0  0  0
 38 61  1  0  0  0  0
 38 73  1  0  0  0  0
 38 79  2  0  0  0  0
 39 67  1  0  0  0  0
 39 70  1  0  0  0  0
 39 80  2  0  0  0  0
 40 43  1  0  0  0  0
 41 50  1  0  0  0  0
 42 66  1  0  0  0  0
 43 45  1  0  0  0  0
 44 46  1  0  0  0  0
 44 47  1  0  0  0  0
 45 49  1  0  0  0  0
 46 51  1  0  0  0  0
 47 67  1  0  0  0  0
 48 51  1  0  0  0  0
 48 67  1  0  0  0  0
 49 72  1  0  0  0  0
 50 66  1  0  0  0  0
 51 65  1  0  0  0  0
 52 61  1  0  0  0  0
 53 62  1  0  0  0  0
 54 63  1  0  0  0  0
 55 63  1  0  0  0  0
 56 63  1  0  0  0  0
 57 74  1  0  0  0  0
 58 82  1  0  0  0  0
 59 62  1  0  0  0  0
 59 83  1  0  0  0  0
 60 63  1  0  0  0  0
 60 73  1  0  0  0  0
 61 74  1  0  0  0  0
 62 71  1  0  0  0  0
 64 65  1  0  0  0  0
M  CHG  1  74   1
M  ISO  4  39 100  59 101  70 100  83 101
M  END
> <Batch ID>
0095

> <Smiles>
CNC(C)C(=O)NC(C(=O)N1Cc2cc([101O:1][101CH2:1]C(C)NC(=O)c3cc([100NH:0][100C:0](=O)N4CCCC(n5nc(-c6ccc(Oc7ccc(F)cc7F)cc6)c(C(N)=O)c5N)C4)cc(OC)c3)ccc2CC1C(=O)NC1CCCc2ccccc21)C(C)(C)C

> <Shape>
0.236

> <Color>
0.078

> <Negative vol penalty>
0.000

$$$$

  -OEChem-04052300433D

 84 93  0     1  0  0  0  0  0999 V2000
  -18.3198  -24.3469   24.5788 C   0  0  0  0  0  0  0  0  0  0  0  0
  -19.6941  -24.2646   24.7782 C   0  0  0  0  0  0  0  0  0  0  0  0
  -23.9590   -9.8070   19.8735 C   0  0  0  0  0  0  0  0  0  0  0  0
  -24.5941  -10.0429   22.1926 C   0  0  0  0  0  0  0  0  0  0  0  0
  -28.0132  -20.1991   24.2116 C   0  0  0  0  0  0  0  0  0  0  0  0
  -30.3741  -20.1176   23.7050 C   0  0  0  0  0  0  0  0  0  0  0  0
  -17.7915  -25.3629   23.7835 C   0  0  0  0  0  0  0  0  0  0  0  0
  -20.5412  -25.1977   24.1813 C   0  0  0  0  0  0  0  0  0  0  0  0
  -24.0796  -26.9256   27.3655 C   0  0  0  0  0  0  0  0  0  0  0  0
  -27.7798  -19.1804   23.2878 C   0  0  0  0  0  0  0  0  0  0  0  0
  -30.1407  -19.0988   22.7812 C   0  0  0  0  0  0  0  0  0  0  0  0
  -23.6264   -8.4715   20.1005 C   0  0  0  0  0  0  0  0  0  0  0  0
  -24.2615   -8.7075   22.4196 C   0  0  0  0  0  0  0  0  0  0  0  0
  -25.1749  -26.0984   27.6099 C   0  0  0  0  0  0  0  0  0  0  0  0
  -21.4548   -6.8899   22.9088 C   0  0  0  0  0  0  0  0  0  0  0  0
  -20.7126   -6.5937   24.0520 C   0  0  0  0  0  0  0  0  0  0  0  0
  -26.4857  -27.3813   26.0430 C   0  0  0  0  0  0  0  0  0  0  0  0
  -22.4944   -5.1643   24.8387 C   0  0  0  0  0  0  0  0  0  0  0  0
  -24.4429  -10.5927   20.9196 C   0  0  0  0  0  0  0  0  0  0  0  0
  -29.3103  -20.6677   24.4202 C   0  0  0  0  0  0  0  0  0  0  0  0
  -23.9414  -13.0912   20.8036 C   0  0  0  0  0  0  0  0  0  0  0  0
  -18.6317  -26.3146   23.1844 C   0  0  0  0  0  0  0  0  0  0  0  0
  -24.1760  -27.9820   26.4484 C   0  0  0  0  0  0  0  0  0  0  0  0
  -20.0238  -26.2266   23.3761 C   0  0  0  0  0  0  0  0  0  0  0  0
  -25.3909  -28.2221   25.7907 C   0  0  0  0  0  0  0  0  0  0  0  0
  -28.8435  -18.6302   22.5726 C   0  0  0  0  0  0  0  0  0  0  0  0
  -23.7776   -7.9218   21.3735 C   0  0  0  0  0  0  0  0  0  0  0  0
  -26.3773  -26.3244   26.9465 C   0  0  0  0  0  0  0  0  0  0  0  0
  -22.7169   -6.3231   22.7305 C   0  0  0  0  0  0  0  0  0  0  0  0
  -21.2323   -5.7310   25.0170 C   0  0  0  0  0  0  0  0  0  0  0  0
  -23.2367   -5.4604   23.6954 C   0  0  0  0  0  0  0  0  0  0  0  0
  -24.7872  -11.9721   20.6856 C   0  0  0  0  0  0  0  0  0  0  0  0
  -24.7392  -14.1606   20.4772 C   0  0  0  0  0  0  0  0  0  0  0  0
  -28.9463  -23.0587   25.2728 C   0  0  0  0  0  0  0  0  0  0  0  0
  -30.3974  -21.4991   26.4230 C   0  0  0  0  0  0  0  0  0  0  0  0
  -29.5585  -21.7457   25.3988 C   0  0  0  0  0  0  0  0  0  0  0  0
  -29.0347  -23.9933   26.2342 C   0  0  0  0  0  0  0  0  0  0  0  0
  -22.5582  -13.1582   21.1752 C   0  0  0  0  0  0  0  0  0  0  0  0
  -22.7322  -28.7173   23.7137 C   0  0  0  0  0  0  0  0  0  0  0  0
  -24.4285  -31.4664   24.0085 C   0  0  0  0  0  0  0  0  0  0  0  0
  -27.1446  -33.0692   25.3128 C   0  0  0  0  0  0  0  0  0  0  0  0
  -29.5502  -16.9396   20.8439 C   0  0  0  0  0  0  0  0  0  0  0  0
  -18.0184  -27.3666   22.2945 C   0  0  0  0  0  0  0  0  0  0  0  0
  -22.9933  -28.8817   26.2159 C   0  0  0  0  0  0  0  0  0  0  0  0
  -25.5524  -29.3552   24.8118 C   0  0  0  0  0  0  0  0  0  0  0  0
  -30.7342  -22.5225   27.4685 C   0  0  0  0  0  0  0  0  0  0  0  0
  -29.7923  -23.7355   27.5122 C   0  0  0  0  0  0  0  0  0  0  0  0
  -18.9529  -28.5379   22.0029 C   0  0  0  0  0  0  0  0  0  0  0  0
  -29.3726  -14.3144   18.4451 C   0  0  0  0  0  0  0  0  0  0  0  0
  -20.3397  -28.0317   21.6189 C   0  0  0  0  0  0  0  0  0  0  0  0
  -28.0942  -13.5630   18.8239 C   0  0  0  0  0  0  0  0  0  0  0  0
  -30.1195  -14.8202   19.6780 C   0  0  0  0  0  0  0  0  0  0  0  0
  -28.0335  -14.8672   20.9878 C   0  0  0  0  0  0  0  0  0  0  0  0
  -20.9731  -27.2347   22.7657 C   0  0  1  0  0  0  0  0  0  0  0  0
  -23.0520  -29.6120   24.8777 C   0  0  1  0  0  0  0  0  0  0  0  0
  -27.2131  -14.3947   19.7765 C   0  0  2  0  0  0  0  0  0  0  0  0
  -28.2842  -35.3046   25.3469 C   0  0  0  0  0  0  0  0  0  0  0  0
  -25.4956  -30.9626   21.1947 C   0  0  0  0  0  0  0  0  0  0  0  0
  -27.2937  -32.6440   21.6508 C   0  0  0  0  0  0  0  0  0  0  0  0
  -24.8994  -33.3438   21.6735 C   0  0  0  0  0  0  0  0  0  0  0  0
  -26.8222  -33.3185   28.2442 C   0  0  0  0  0  0  0  0  0  0  0  0
  -28.3697  -25.3315   26.1096 C   0  0  0  0  0  0  0  0  0  1  0  0
  -25.7959  -31.9312   23.5690 C   0  0  1  0  0  0  0  0  0  0  0  0
  -27.2791  -34.3962   26.0377 C   0  0  2  0  0  0  0  0  0  0  0  0
  -25.8679  -32.1978   22.0389 C   0  0  0  0  0  0  0  0  0  0  0  0
  -26.0273  -12.3001   20.3132 N   0  0  0  0  0  0  0  0  0  0  0  0
  -25.9665  -13.6373   20.1942 N   0  0  0  0  0  0  0  0  0  0  0  0
  -24.3653  -30.2032   24.6136 N   0  0  0  0  0  0  0  0  0  0  0  0
  -29.2231  -15.6031   20.5315 N   0  0  0  0  0  0  0  0  0  0  0  0
  -24.5035  -15.4880   20.4074 N   0  0  0  0  0  0  0  0  0  0  0  0
  -21.8895  -11.9645   21.4790 N   0  0  0  0  0  0  0  0  0  0  0  0
  -28.6070  -17.5940   21.6356 N   0  0  0  0  0  0  0  0  0  0  0  0
  -21.4832  -28.1300   23.7820 N   0  0  0  0  0  0  0  0  0  0  0  0
  -26.1172  -33.0912   24.3934 N   0  0  0  0  0  0  0  0  0  0  0  0
  -27.7307  -34.1765   27.4408 N   0  3  0  0  0  0  0  0  0  0  0  0
  -21.9295  -14.2427   21.2200 O   0  0  0  0  0  0  0  0  0  0  0  0
  -23.5569  -28.5717   22.8191 O   0  0  0  0  0  0  0  0  0  0  0  0
  -23.4535  -32.2002   23.8282 O   0  0  0  0  0  0  0  0  0  0  0  0
  -27.8799  -32.1102   25.5370 O   0  0  0  0  0  0  0  0  0  0  0  0
  -30.5770  -17.4733   20.4164 O   0  0  0  0  0  0  0  0  0  0  0  0
  -23.4529   -6.6187   21.5953 O   0  0  0  0  0  0  0  0  0  0  0  0
  -27.4478  -25.5180   27.1827 O   0  0  0  0  0  0  0  0  0  1  0  0
  -20.5201   -5.4479   26.1155 F   0  0  0  0  0  0  0  0  0  0  0  0
  -24.4490   -4.9139   23.5302 F   0  0  0  0  0  0  0  0  0  0  0  0
  1  2  1  0  0  0  0
  1  7  2  0  0  0  0
  2  8  2  0  0  0  0
  3 12  2  0  0  0  0
  3 19  1  0  0  0  0
  4 13  1  0  0  0  0
  4 19  2  0  0  0  0
  5 10  2  0  0  0  0
  5 20  1  0  0  0  0
  6 11  1  0  0  0  0
  6 20  2  0  0  0  0
  7 22  1  0  0  0  0
  8 24  1  0  0  0  0
  9 14  2  0  0  0  0
  9 23  1  0  0  0  0
 10 26  1  0  0  0  0
 11 26  2  0  0  0  0
 12 27  1  0  0  0  0
 13 27  2  0  0  0  0
 14 28  1  0  0  0  0
 15 16  2  0  0  0  0
 15 29  1  0  0  0  0
 16 30  1  0  0  0  0
 17 25  1  0  0  0  0
 17 28  2  0  0  0  0
 18 30  2  0  0  0  0
 18 31  1  0  0  0  0
 19 32  1  0  0  0  0
 20 36  1  0  0  0  0
 21 32  1  0  0  0  0
 21 33  2  0  0  0  0
 21 38  1  0  0  0  0
 22 24  2  0  0  0  0
 22 43  1  0  0  0  0
 23 25  2  0  0  0  0
 23 44  1  0  0  0  0
 24 54  1  0  0  0  0
 25 45  1  0  0  0  0
 26 72  1  0  0  0  0
 27 81  1  0  0  0  0
 28 82  1  0  0  0  0
 29 31  2  0  0  0  0
 29 81  1  0  0  0  0
 30 83  1  0  0  0  0
 31 84  1  0  0  0  0
 32 66  2  0  0  0  0
 33 67  1  0  0  0  0
 33 70  1  0  0  0  0
 34 36  1  0  0  0  0
 34 37  2  0  0  0  0
 35 36  2  0  0  0  0
 35 46  1  0  0  0  0
 37 47  1  0  0  0  0
 37 62  1  0  0  0  0
 38 71  1  0  0  0  0
 38 76  2  0  0  0  0
 39 55  1  0  0  0  0
 39 73  1  0  0  0  0
 39 77  2  0  0  0  0
 40 63  1  0  0  0  0
 40 68  1  0  0  0  0
 40 78  2  0  0  0  0
 41 64  1  0  0  0  0
 41 74  1  0  0  0  0
 41 79  2  0  0  0  0
 42 69  1  0  0  0  0
 42 72  1  0  0  0  0
 42 80  2  0  0  0  0
 43 48  1  0  0  0  0
 44 55  1  0  0  0  0
 45 68  1  0  0  0  0
 46 47  1  0  0  0  0
 48 50  1  0  0  0  0
 49 51  1  0  0  0  0
 49 52  1  0  0  0  0
 50 54  1  0  0  0  0
 51 56  1  0  0  0  0
 52 69  1  0  0  0  0
 53 56  1  0  0  0  0
 53 69  1  0  0  0  0
 54 73  1  0  0  0  0
 55 68  1  0  0  0  0
 56 67  1  0  0  0  0
 57 64  1  0  0  0  0
 58 65  1  0  0  0  0
 59 65  1  0  0  0  0
 60 65  1  0  0  0  0
 61 75  1  0  0  0  0
 62 82  1  0  0  0  0
 63 65  1  0  0  0  0
 63 74  1  0  0  0  0
 64 75  1  0  0  0  0
 66 67  1  0  0  0  0
M  CHG  1  75   1
M  ISO  4  42 100  62 101  72 100  82 101
M  END
> <Batch ID>
0095

> <Smiles>
CNC(C)C(=O)NC(C(=O)N1Cc2cc([101O:1][101CH2:1]C3=CC(c4ccc([100NH:0][100C:0](=O)N5CCCC(n6nc(-c7ccc(Oc8ccc(F)cc8F)cc7)c(C(N)=O)c6N)C5)cc4)=CCC3)ccc2CC1C(=O)NC1CCCc2ccccc21)C(C)(C)C

> <Shape>
0.272

> <Color>
0.165

> <Negative vol penalty>
0.000

$$$$

  -OEChem-04052300433D

 91100  0     1  0  0  0  0  0999 V2000
  -23.2553  -30.3597   20.3906 C   0  0  0  0  0  0  0  0  0  0  0  0
  -23.7975  -29.2850   19.6948 C   0  0  0  0  0  0  0  0  0  0  0  0
  -22.7876  -15.6349   20.3804 C   0  0  0  0  0  0  0  0  0  0  0  0
  -24.5852  -16.4555   18.9903 C   0  0  0  0  0  0  0  0  0  0  0  0
  -23.8904  -30.8354   21.5358 C   0  0  0  0  0  0  0  0  0  0  0  0
  -24.9683  -28.6782   20.1507 C   0  0  0  0  0  0  0  0  0  0  0  0
  -27.2227  -22.1623   23.6605 C   0  0  0  0  0  0  0  0  0  0  0  0
  -22.0341  -16.7683   20.0751 C   0  0  0  0  0  0  0  0  0  0  0  0
  -23.8316  -17.5889   18.6849 C   0  0  0  0  0  0  0  0  0  0  0  0
  -26.3309  -21.1656   24.0569 C   0  0  0  0  0  0  0  0  0  0  0  0
  -19.7680  -20.0726   19.2198 C   0  0  0  0  0  0  0  0  0  0  0  0
  -18.4988  -20.1820   19.7880 C   0  0  0  0  0  0  0  0  0  0  0  0
  -24.5718  -22.2124   22.7694 C   0  0  0  0  0  0  0  0  0  0  0  0
  -27.5109  -15.0036   21.4190 C   0  0  0  0  0  0  0  0  0  0  0  0
  -28.3584  -16.0245   23.4380 C   0  0  0  0  0  0  0  0  0  0  0  0
  -18.8155  -18.0624   20.9034 C   0  0  0  0  0  0  0  0  0  0  0  0
  -24.0632  -15.4785   19.8381 C   0  0  0  0  0  0  0  0  0  0  0  0
  -24.4674  -13.2363   20.9856 C   0  0  0  0  0  0  0  0  0  0  0  0
  -25.0763  -30.2414   21.9982 C   0  0  0  0  0  0  0  0  0  0  0  0
  -26.7960  -23.1806   22.8035 C   0  0  0  0  0  0  0  0  0  0  0  0
  -25.6111  -29.1285   21.3180 C   0  0  0  0  0  0  0  0  0  0  0  0
  -25.4639  -23.2066   22.3589 C   0  0  0  0  0  0  0  0  0  0  0  0
  -28.7668  -14.4493   21.1720 C   0  0  0  0  0  0  0  0  0  0  0  0
  -27.3067  -15.7913   22.5520 C   0  0  0  0  0  0  0  0  0  0  0  0
  -29.8185  -14.6826   22.0581 C   0  0  0  0  0  0  0  0  0  0  0  0
  -22.5561  -17.7453   19.2274 C   0  0  0  0  0  0  0  0  0  0  0  0
  -25.0087  -21.1907   23.6127 C   0  0  0  0  0  0  0  0  0  0  0  0
  -20.5609  -18.9580   19.4933 C   0  0  0  0  0  0  0  0  0  0  0  0
  -29.6143  -15.4702   23.1911 C   0  0  0  0  0  0  0  0  0  0  0  0
  -18.0226  -19.1769   20.6298 C   0  0  0  0  0  0  0  0  0  0  0  0
  -20.0847  -17.9530   20.3351 C   0  0  0  0  0  0  0  0  0  0  0  0
  -24.8423  -14.3082   20.1536 C   0  0  0  0  0  0  0  0  0  0  0  0
  -25.5463  -12.3868   20.9583 C   0  0  0  0  0  0  0  0  0  0  0  0
  -24.9738  -16.0983   21.8705 C   0  0  0  0  0  0  0  0  0  0  0  0
  -25.8589  -17.1724   23.9709 C   0  0  0  0  0  0  0  0  0  0  0  0
  -23.2525  -13.0272   21.7177 C   0  0  0  0  0  0  0  0  0  0  0  0
  -27.6908  -26.2848   20.8958 C   0  0  0  0  0  0  0  0  0  0  0  0
  -25.8674  -24.6165   19.0785 C   0  0  0  0  0  0  0  0  0  0  0  0
  -27.8678  -22.6076   17.7127 C   0  0  0  0  0  0  0  0  0  0  0  0
  -31.4043  -13.3078   20.6880 C   0  0  0  0  0  0  0  0  0  0  0  0
  -25.7178  -30.7916   23.2476 C   0  0  0  0  0  0  0  0  0  0  0  0
  -27.7058  -24.3090   22.4000 C   0  0  0  0  0  0  0  0  0  0  0  0
  -25.0401  -24.3406   21.4659 C   0  0  0  0  0  0  0  0  0  0  0  0
  -23.6097  -16.6215   22.2417 C   0  0  0  0  0  0  0  0  0  0  0  0
  -27.1775  -30.3759   23.3989 C   0  0  0  0  0  0  0  0  0  0  0  0
  -23.7348  -17.9879   22.8723 C   0  0  0  0  0  0  0  0  0  0  0  0
  -29.3893  -12.2116   17.7514 C   0  0  0  0  0  0  0  0  0  0  0  0
  -27.3135  -28.8738   23.1993 C   0  0  0  0  0  0  0  0  0  0  0  0
  -27.9495  -12.1623   18.2664 C   0  0  0  0  0  0  0  0  0  0  0  0
  -30.4054  -11.8746   18.8365 C   0  0  0  0  0  0  0  0  0  0  0  0
  -28.9754  -13.3667   20.2526 C   0  0  0  0  0  0  0  0  0  0  0  0
  -26.9003  -28.4721   21.7778 C   0  0  1  0  0  0  0  0  0  0  0  0
  -24.4994  -17.8382   24.1744 C   0  0  2  0  0  0  0  0  0  0  0  0
  -27.4522  -24.8051   20.9651 C   0  0  1  0  0  0  0  0  0  0  0  0
  -27.8403  -12.4512   19.7752 C   0  0  1  0  0  0  0  0  0  0  0  0
  -28.9440  -21.3385   19.5912 C   0  0  0  0  0  0  0  0  0  0  0  0
  -26.6680  -27.4520   18.2891 C   0  0  0  0  0  0  0  0  0  0  0  0
  -28.8782  -26.5439   17.5418 C   0  0  0  0  0  0  0  0  0  0  0  0
  -28.1989  -26.3552   19.9346 C   0  0  0  0  0  0  0  0  0  0  0  0
  -32.2447  -14.5999   22.5991 C   0  0  0  0  0  0  0  0  0  0  0  0
  -30.4516  -22.4470   16.2784 C   0  0  0  0  0  0  0  0  0  0  0  0
  -31.8936  -15.1254   23.7758 C   0  0  0  0  0  0  0  0  0  0  0  0
  -28.9550  -13.6099   19.9499 C   0  0  0  0  0  0  0  0  0  0  0  0
  -24.6590  -19.1950   24.8587 C   0  0  0  0  0  0  0  0  0  1  0  0
  -27.0632  -24.9019   18.2055 C   0  0  1  0  0  0  0  0  0  0  0  0
  -28.9528  -21.6176   18.0962 C   0  0  2  0  0  0  0  0  0  0  0  0
  -27.6778  -26.3031   18.4819 C   0  0  0  0  0  0  0  0  0  0  0  0
  -26.0640  -14.1561   19.6356 N   0  0  0  0  0  0  0  0  0  0  0  0
  -26.4662  -12.9787   20.1435 N   0  0  0  0  0  0  0  0  0  0  0  0
  -26.0025  -16.3693   22.8081 N   0  0  0  0  0  0  0  0  0  0  0  0
  -26.0824  -24.6059   20.4620 N   0  0  0  0  0  0  0  0  0  0  0  0
  -30.2971  -12.7905   19.9850 N   0  0  0  0  0  0  0  0  0  0  0  0
  -25.7885  -11.1989   21.5520 N   0  0  0  0  0  0  0  0  0  0  0  0
  -22.2465  -13.9995   21.6346 N   0  0  0  0  0  0  0  0  0  0  0  0
  -26.8424  -27.0294   21.6929 N   0  0  0  0  0  0  0  0  0  0  0  0
  -27.9894  -23.7929   18.4066 N   0  0  0  0  0  0  0  0  0  0  0  0
  -31.1181  -14.1121   21.8069 N   0  0  0  0  0  0  0  0  0  0  0  0
  -27.7196  -13.4779   19.1314 N   0  3  0  0  0  0  0  0  0  0  0  0
  -30.2944  -22.1501   17.7255 N   0  3  0  0  0  0  0  0  0  0  0  0
  -25.1086  -15.4966   20.8026 O   0  0  0  0  0  0  0  0  0  0  0  0
  -26.7122  -17.2755   24.8583 O   0  0  0  0  0  0  0  0  0  0  0  0
  -23.0711  -12.0161   22.4377 O   0  0  0  0  0  0  0  0  0  0  0  0
  -28.5799  -26.7203   20.1737 O   0  0  0  0  0  0  0  0  0  0  0  0
  -24.7725  -24.4028   18.5505 O   0  0  0  0  0  0  0  0  0  0  0  0
  -27.0014  -22.3560   16.8781 O   0  0  0  0  0  0  0  0  0  0  0  0
  -32.5661  -13.0180   20.3772 O   0  0  0  0  0  0  0  0  0  0  0  0
  -21.8210  -18.8512   18.9290 O   0  0  0  0  0  0  0  0  0  0  0  0
  -30.6279  -15.7121   24.0702 O   0  0  0  0  0  0  0  0  0  0  0  0
  -24.1445  -20.2120   24.0000 O   0  0  0  0  0  0  0  0  0  1  0  0
  -16.8044  -19.2829   21.1767 F   0  0  0  0  0  0  0  0  0  0  0  0
  -20.8423  -16.8804   20.6025 F   0  0  0  0  0  0  0  0  0  0  0  0
  1  2  1  0  0  0  0
  1  5  2  0  0  0  0
  2  6  2  0  0  0  0
  3  8  2  0  0  0  0
  3 17  1  0  0  0  0
  4  9  1  0  0  0  0
  4 17  2  0  0  0  0
  5 19  1  0  0  0  0
  6 21  1  0  0  0  0
  7 10  2  0  0  0  0
  7 20  1  0  0  0  0
  8 26  1  0  0  0  0
  9 26  2  0  0  0  0
 10 27  1  0  0  0  0
 11 12  2  0  0  0  0
 11 28  1  0  0  0  0
 12 30  1  0  0  0  0
 13 22  1  0  0  0  0
 13 27  2  0  0  0  0
 14 23  2  0  0  0  0
 14 24  1  0  0  0  0
 15 24  2  0  0  0  0
 15 29  1  0  0  0  0
 16 30  2  0  0  0  0
 16 31  1  0  0  0  0
 17 32  1  0  0  0  0
 18 32  1  0  0  0  0
 18 33  2  0  0  0  0
 18 36  1  0  0  0  0
 19 21  2  0  0  0  0
 19 41  1  0  0  0  0
 20 22  2  0  0  0  0
 20 42  1  0  0  0  0
 21 52  1  0  0  0  0
 22 43  1  0  0  0  0
 23 25  1  0  0  0  0
 23 63  1  0  0  0  0
 24 70  1  0  0  0  0
 25 29  2  0  0  0  0
 25 77  1  0  0  0  0
 26 87  1  0  0  0  0
 27 89  1  0  0  0  0
 28 31  2  0  0  0  0
 28 87  1  0  0  0  0
 29 88  1  0  0  0  0
 30 90  1  0  0  0  0
 31 91  1  0  0  0  0
 32 68  2  0  0  0  0
 33 69  1  0  0  0  0
 33 73  1  0  0  0  0
 34 44  1  0  0  0  0
 34 70  1  0  0  0  0
 34 80  2  0  0  0  0
 35 53  1  0  0  0  0
 35 70  1  0  0  0  0
 35 81  2  0  0  0  0
 36 74  1  0  0  0  0
 36 82  2  0  0  0  0
 37 54  1  0  0  0  0
 37 75  1  0  0  0  0
 37 83  2  0  0  0  0
 38 65  1  0  0  0  0
 38 71  1  0  0  0  0
 38 84  2  0  0  0  0
 39 66  1  0  0  0  0
 39 76  1  0  0  0  0
 39 85  2  0  0  0  0
 40 72  1  0  0  0  0
 40 77  1  0  0  0  0
 40 86  2  0  0  0  0
 41 45  1  0  0  0  0
 42 54  1  0  0  0  0
 43 71  1  0  0  0  0
 44 46  1  0  0  0  0
 45 48  1  0  0  0  0
 46 53  1  0  0  0  0
 47 49  1  0  0  0  0
 47 50  1  0  0  0  0
 48 52  1  0  0  0  0
 49 55  1  0  0  0  0
 50 72  1  0  0  0  0
 51 55  1  0  0  0  0
 51 72  1  0  0  0  0
 52 75  1  0  0  0  0
 53 64  1  0  0  0  0
 54 71  1  0  0  0  0
 55 69  1  0  0  0  0
 56 66  1  0  0  0  0
 57 67  1  0  0  0  0
 58 67  1  0  0  0  0
 59 67  1  0  0  0  0
 60 77  1  0  0  0  0
 61 79  1  0  0  0  0
 62 88  1  0  0  0  0
 63 78  1  0  0  0  0
 64 89  1  0  0  0  0
 65 67  1  0  0  0  0
 65 76  1  0  0  0  0
 66 79  1  0  0  0  0
 68 69  1  0  0  0  0
M  CHG  2  78   1  79   1
M  ISO  4  40 100  64 101  77 100  89 101
M  END
> <Batch ID>
0095

> <Smiles>
CNC(C)C(=O)NC(C(=O)N1Cc2cc([101O:1][101CH2:1]C3CCC(=O)N(c4cc(CN)c([100N:0](C)[100C:0](=O)N5CCCC(n6nc(-c7ccc(Oc8ccc(F)cc8F)cc7)c(C(N)=O)c6N)C5)c(OC)c4)C3=O)ccc2CC1C(=O)NC1CCCc2ccccc21)C(C)(C)C

> <Shape>
0.223

> <Color>
0.079

> <Negative vol penalty>
0.000

$$$$

  -OEChem-04052300433D

 76 83  0     1  0  0  0  0  0999 V2000
  -26.2318  -31.7832   28.7707 C   0  0  0  0  0  0  0  0  0  0  0  0
  -26.6516  -30.8360   27.8423 C   0  0  0  0  0  0  0  0  0  0  0  0
  -27.5026  -11.0239   20.7212 C   0  0  0  0  0  0  0  0  0  0  0  0
  -27.2957  -11.4912   18.3598 C   0  0  0  0  0  0  0  0  0  0  0  0
  -24.9469  -32.3179   28.6871 C   0  0  0  0  0  0  0  0  0  0  0  0
  -25.7863  -30.4221   26.8303 C   0  0  0  0  0  0  0  0  0  0  0  0
  -27.2954  -28.8757   21.0999 C   0  0  0  0  0  0  0  0  0  0  0  0
  -26.5064  -10.0532   20.6164 C   0  0  0  0  0  0  0  0  0  0  0  0
  -26.2995  -10.5205   18.2550 C   0  0  0  0  0  0  0  0  0  0  0  0
  -27.4989  -27.6415   20.4841 C   0  0  0  0  0  0  0  0  0  0  0  0
  -23.1326   -9.9567   20.4359 C   0  0  0  0  0  0  0  0  0  0  0  0
  -22.1376   -9.9421   21.4133 C   0  0  0  0  0  0  0  0  0  0  0  0
  -25.2237  -27.6729   19.6829 C   0  0  0  0  0  0  0  0  0  0  0  0
  -22.7674   -7.6902   22.0209 C   0  0  0  0  0  0  0  0  0  0  0  0
  -27.8973  -11.7429   19.5929 C   0  0  0  0  0  0  0  0  0  0  0  0
  -30.3126  -12.5621   19.5425 C   0  0  0  0  0  0  0  0  0  0  0  0
  -24.0687  -31.9174   27.6678 C   0  0  0  0  0  0  0  0  0  0  0  0
  -26.0491  -29.5137   21.0209 C   0  0  0  0  0  0  0  0  0  0  0  0
  -24.4879  -30.9509   26.7337 C   0  0  0  0  0  0  0  0  0  0  0  0
  -25.0077  -28.9163   20.2964 C   0  0  0  0  0  0  0  0  0  0  0  0
  -25.9049   -9.8015   19.3833 C   0  0  0  0  0  0  0  0  0  0  0  0
  -26.4621  -27.0386   19.7779 C   0  0  0  0  0  0  0  0  0  0  0  0
  -23.9450   -8.8380   20.2509 C   0  0  0  0  0  0  0  0  0  0  0  0
  -21.9550   -8.8089   22.2059 C   0  0  0  0  0  0  0  0  0  0  0  0
  -23.7624   -7.7048   21.0435 C   0  0  0  0  0  0  0  0  0  0  0  0
  -28.9259  -12.7461   19.7006 C   0  0  0  0  0  0  0  0  0  0  0  0
  -30.8495  -13.8106   19.7417 C   0  0  0  0  0  0  0  0  0  0  0  0
  -27.9098  -23.9123   18.5996 C   0  0  0  0  0  0  0  0  0  0  0  0
  -31.0495  -11.3694   19.2424 C   0  0  0  0  0  0  0  0  0  0  0  0
  -23.8513  -30.4127   23.1340 C   0  0  0  0  0  0  0  0  0  0  0  0
  -22.4620  -31.7610   20.5313 C   0  0  0  0  0  0  0  0  0  0  0  0
  -22.0866  -31.7970   17.1395 C   0  0  0  0  0  0  0  0  0  0  0  0
  -28.0939  -21.6304   18.5598 C   0  0  0  0  0  0  0  0  0  0  0  0
  -28.3983  -19.2022   19.0163 C   0  0  0  0  0  0  0  0  0  0  0  0
  -22.6729  -32.4885   27.6462 C   0  0  0  0  0  0  0  0  0  0  0  0
  -25.8537  -30.8573   21.6682 C   0  0  0  0  0  0  0  0  0  0  0  0
  -23.6570  -29.5695   20.1645 C   0  0  0  0  0  0  0  0  0  0  0  0
  -21.9473  -32.2736   26.3204 C   0  0  0  0  0  0  0  0  0  0  0  0
  -30.0763  -17.9085   22.0452 C   0  0  0  0  0  0  0  0  0  0  0  0
  -22.1108  -30.8318   25.8500 C   0  0  0  0  0  0  0  0  0  0  0  0
  -30.0334  -16.4062   21.7844 C   0  0  0  0  0  0  0  0  0  0  0  0
  -28.8550  -18.6273   21.4733 C   0  0  0  0  0  0  0  0  0  0  0  0
  -28.5909  -16.8488   19.7618 C   0  0  0  0  0  0  0  0  0  0  0  0
  -23.5868  -30.4948   25.6067 C   0  0  1  0  0  0  0  0  0  0  0  0
  -24.3896  -31.1746   21.9561 C   0  0  1  0  0  0  0  0  0  0  0  0
  -29.8386  -16.1233   20.2873 C   0  0  2  0  0  0  0  0  0  0  0  0
  -20.8549  -32.9888   15.3064 C   0  0  0  0  0  0  0  0  0  0  0  0
  -19.9149  -30.2486   21.2628 C   0  0  0  0  0  0  0  0  0  0  0  0
  -19.0650  -30.7023   18.9519 C   0  0  0  0  0  0  0  0  0  0  0  0
  -19.5479  -32.6007   20.4965 C   0  0  0  0  0  0  0  0  0  0  0  0
  -24.6055  -32.7119   15.8835 C   0  0  0  0  0  0  0  0  0  0  0  0
  -27.9401  -25.2376   19.3022 C   0  0  0  0  0  0  0  0  0  1  0  0
  -21.4695  -31.3016   19.4906 C   0  0  1  0  0  0  0  0  0  0  0  0
  -22.1301  -32.9329   16.1332 C   0  0  2  0  0  0  0  0  0  0  0  0
  -20.0241  -31.1998   20.0544 C   0  0  0  0  0  0  0  0  0  0  0  0
  -28.6020  -14.0117   19.9789 N   0  0  0  0  0  0  0  0  0  0  0  0
  -28.1259  -22.8212   19.2553 N   0  0  0  0  0  0  0  0  0  0  0  0
  -29.7929  -14.6342   19.9974 N   0  0  0  0  0  0  0  0  0  0  0  0
  -23.5135  -30.8797   20.8204 N   0  0  0  0  0  0  0  0  0  0  0  0
  -28.6339  -18.2854   20.0593 N   0  0  0  0  0  0  0  0  0  0  0  0
  -32.1176  -14.2731   19.7214 N   0  0  0  0  0  0  0  0  0  0  0  0
  -30.3414  -10.1725   19.0683 N   0  0  0  0  0  0  0  0  0  0  0  0
  -24.0310  -31.0507   24.3464 N   0  0  0  0  0  0  0  0  0  0  0  0
  -21.6079  -32.2164   18.3627 N   0  0  0  0  0  0  0  0  0  0  0  0
  -28.3453  -20.5461   19.4045 N   0  0  0  0  0  0  0  0  0  0  0  0
  -23.2841  -32.7598   15.2062 N   0  3  0  0  0  0  0  0  0  0  0  0
  -32.3004  -11.3620   19.1481 O   0  0  0  0  0  0  0  0  0  0  0  0
  -23.3116  -29.3270   22.9559 O   0  0  0  0  0  0  0  0  0  0  0  0
  -22.3139  -32.8643   21.0628 O   0  0  0  0  0  0  0  0  0  0  0  0
  -22.4384  -30.6515   16.8665 O   0  0  0  0  0  0  0  0  0  0  0  0
  -27.8875  -21.5103   17.3527 O   0  0  0  0  0  0  0  0  0  0  0  0
  -28.2192  -18.8531   17.8452 O   0  0  0  0  0  0  0  0  0  0  0  0
  -24.9329   -8.8543   19.2806 O   0  0  0  0  0  0  0  0  0  0  0  0
  -26.6598  -25.8220   19.1706 O   0  0  0  0  0  0  0  0  0  1  0  0
  -21.0005   -8.7957   23.1455 F   0  0  0  0  0  0  0  0  0  0  0  0
  -24.5406   -6.6274   20.8712 F   0  0  0  0  0  0  0  0  0  0  0  0
  1  2  1  0  0  0  0
  1  5  2  0  0  0  0
  2  6  2  0  0  0  0
  3  8  2  0  0  0  0
  3 15  1  0  0  0  0
  4  9  1  0  0  0  0
  4 15  2  0  0  0  0
  5 17  1  0  0  0  0
  6 19  1  0  0  0  0
  7 10  2  0  0  0  0
  7 18  1  0  0  0  0
  8 21  1  0  0  0  0
  9 21  2  0  0  0  0
 10 22  1  0  0  0  0
 11 12  2  0  0  0  0
 11 23  1  0  0  0  0
 12 24  1  0  0  0  0
 13 20  1  0  0  0  0
 13 22  2  0  0  0  0
 14 24  2  0  0  0  0
 14 25  1  0  0  0  0
 15 26  1  0  0  0  0
 16 26  1  0  0  0  0
 16 27  2  0  0  0  0
 16 29  1  0  0  0  0
 17 19  2  0  0  0  0
 17 35  1  0  0  0  0
 18 20  2  0  0  0  0
 18 36  1  0  0  0  0
 19 44  1  0  0  0  0
 20 37  1  0  0  0  0
 21 73  1  0  0  0  0
 22 74  1  0  0  0  0
 23 25  2  0  0  0  0
 23 73  1  0  0  0  0
 24 75  1  0  0  0  0
 25 76  1  0  0  0  0
 26 56  2  0  0  0  0
 27 58  1  0  0  0  0
 27 61  1  0  0  0  0
 28 52  1  0  0  0  0
 28 57  2  0  0  0  0
 29 62  1  0  0  0  0
 29 67  2  0  0  0  0
 30 45  1  0  0  0  0
 30 63  1  0  0  0  0
 30 68  2  0  0  0  0
 31 53  1  0  0  0  0
 31 59  1  0  0  0  0
 31 69  2  0  0  0  0
 32 54  1  0  0  0  0
 32 64  1  0  0  0  0
 32 70  2  0  0  0  0
 33 57  1  0  0  0  0
 33 65  1  0  0  0  0
 33 71  2  0  0  0  0
 34 60  1  0  0  0  0
 34 65  1  0  0  0  0
 34 72  2  0  0  0  0
 35 38  1  0  0  0  0
 36 45  1  0  0  0  0
 37 59  1  0  0  0  0
 38 40  1  0  0  0  0
 39 41  1  0  0  0  0
 39 42  1  0  0  0  0
 40 44  1  0  0  0  0
 41 46  1  0  0  0  0
 42 60  1  0  0  0  0
 43 46  1  0  0  0  0
 43 60  1  0  0  0  0
 44 63  1  0  0  0  0
 45 59  1  0  0  0  0
 46 58  1  0  0  0  0
 47 54  1  0  0  0  0
 48 55  1  0  0  0  0
 49 55  1  0  0  0  0
 50 55  1  0  0  0  0
 51 66  1  0  0  0  0
 52 74  1  0  0  0  0
 53 55  1  0  0  0  0
 53 64  1  0  0  0  0
 54 66  1  0  0  0  0
 56 58  1  0  0  0  0
M  CHG  1  66   1
M  ISO  4  34 100  52 101  65 100  74 101
M  END
> <Batch ID>
0095

> <Smiles>
CNC(C)C(=O)NC(C(=O)N1Cc2cc([101O:1][101CH:1]=CNC(=O)[100NH:0][100C:0](=O)N3CCCC(n4nc(-c5ccc(Oc6ccc(F)cc6F)cc5)c(C(N)=O)c4N)C3)ccc2CC1C(=O)NC1CCCc2ccccc21)C(C)(C)C

> <Shape>
0.252

> <Color>
0.094

> <Negative vol penalty>
0.000

$$$$

  -OEChem-04052300433D

 87 96  0     1  0  0  0  0  0999 V2000
  -15.9476  -27.6643   21.7130 C   0  0  0  0  0  0  0  0  0  0  0  0
  -17.1629  -27.0631   21.4013 C   0  0  0  0  0  0  0  0  0  0  0  0
  -22.8437  -15.8133   21.7710 C   0  0  0  0  0  0  0  0  0  0  0  0
  -22.1332  -14.9840   19.6159 C   0  0  0  0  0  0  0  0  0  0  0  0
  -15.8644  -29.0521   21.8177 C   0  0  0  0  0  0  0  0  0  0  0  0
  -18.2954  -27.8495   21.1931 C   0  0  0  0  0  0  0  0  0  0  0  0
  -22.3935  -26.0121   23.5329 C   0  0  0  0  0  0  0  0  0  0  0  0
  -28.9888  -19.3486   19.3213 C   0  0  0  0  0  0  0  0  0  0  0  0
  -29.6778  -18.1722   19.6163 C   0  0  0  0  0  0  0  0  0  0  0  0
  -21.7232  -16.6425   21.8213 C   0  0  0  0  0  0  0  0  0  0  0  0
  -21.0127  -15.8132   19.6662 C   0  0  0  0  0  0  0  0  0  0  0  0
  -23.0404  -24.9337   22.9310 C   0  0  0  0  0  0  0  0  0  0  0  0
  -20.7521  -19.5995   20.5030 C   0  0  0  0  0  0  0  0  0  0  0  0
  -20.9417  -20.9197   20.9110 C   0  0  0  0  0  0  0  0  0  0  0  0
  -24.6906  -26.4396   22.0207 C   0  0  0  0  0  0  0  0  0  0  0  0
  -26.4116  -22.7088   18.8795 C   0  0  0  0  0  0  0  0  0  0  0  0
  -28.1071  -19.3962   21.5702 C   0  0  0  0  0  0  0  0  0  0  0  0
  -19.4285  -20.5653   22.7608 C   0  0  0  0  0  0  0  0  0  0  0  0
  -23.0487  -14.9841   20.6682 C   0  0  0  0  0  0  0  0  0  0  0  0
  -24.3085  -12.8063   21.0900 C   0  0  0  0  0  0  0  0  0  0  0  0
  -16.9986  -29.8553   21.6201 C   0  0  0  0  0  0  0  0  0  0  0  0
  -22.8848  -27.3158   23.3739 C   0  0  0  0  0  0  0  0  0  0  0  0
  -18.2269  -29.2494   21.2939 C   0  0  0  0  0  0  0  0  0  0  0  0
  -24.0495  -27.5324   22.6238 C   0  0  0  0  0  0  0  0  0  0  0  0
  -26.5220  -23.1143   20.2325 C   0  0  0  0  0  0  0  0  0  0  0  0
  -28.2035  -19.9606   20.2983 C   0  0  0  0  0  0  0  0  0  0  0  0
  -29.5814  -17.6078   20.8882 C   0  0  0  0  0  0  0  0  0  0  0  0
  -20.8077  -16.6425   20.7689 C   0  0  0  0  0  0  0  0  0  0  0  0
  -24.1875  -25.1477   22.1724 C   0  0  0  0  0  0  0  0  0  0  0  0
  -19.9007  -18.7621   21.2238 C   0  0  0  0  0  0  0  0  0  0  0  0
  -20.2799  -21.4026   22.0399 C   0  0  0  0  0  0  0  0  0  0  0  0
  -28.7960  -18.2197   21.8652 C   0  0  0  0  0  0  0  0  0  0  0  0
  -19.2389  -19.2450   22.3527 C   0  0  0  0  0  0  0  0  0  0  0  0
  -24.2063  -14.1277   20.6154 C   0  0  0  0  0  0  0  0  0  0  0  0
  -25.6006  -12.4380   20.8047 C   0  0  0  0  0  0  0  0  0  0  0  0
  -27.0315  -21.4841   18.7653 C   0  0  0  0  0  0  0  0  0  0  0  0
  -27.2061  -22.1251   20.9039 C   0  0  0  0  0  0  0  0  0  0  0  0
  -23.3235  -11.9851   21.7312 C   0  0  0  0  0  0  0  0  0  0  0  0
  -21.7542  -29.9992   22.0994 C   0  0  0  0  0  0  0  0  0  0  0  0
  -24.4768  -31.2681   23.3241 C   0  0  0  0  0  0  0  0  0  0  0  0
  -27.6813  -30.7721   24.3879 C   0  0  0  0  0  0  0  0  0  0  0  0
  -30.5598  -15.4290   20.1905 C   0  0  0  0  0  0  0  0  0  0  0  0
  -16.8491  -31.3541   21.6973 C   0  0  0  0  0  0  0  0  0  0  0  0
  -22.1906  -28.4651   24.0518 C   0  0  0  0  0  0  0  0  0  0  0  0
  -24.6291  -28.9103   22.4393 C   0  0  0  0  0  0  0  0  0  0  0  0
  -18.1784  -32.0927   21.8305 C   0  0  0  0  0  0  0  0  0  0  0  0
  -29.1519  -13.2880   17.7253 C   0  0  0  0  0  0  0  0  0  0  0  0
  -19.1930  -31.5507   20.8286 C   0  0  0  0  0  0  0  0  0  0  0  0
  -27.7183  -13.1409   18.2341 C   0  0  0  0  0  0  0  0  0  0  0  0
  -29.6818  -14.7103   17.9103 C   0  0  0  0  0  0  0  0  0  0  0  0
  -28.1325  -15.0720   19.8058 C   0  0  0  0  0  0  0  0  0  0  0  0
  -19.4832  -30.0670   21.0852 C   0  0  1  0  0  0  0  0  0  0  0  0
  -22.4864  -29.8114   23.3980 C   0  0  1  0  0  0  0  0  0  0  0  0
  -27.5937  -13.6380   19.6852 C   0  0  1  0  0  0  0  0  0  0  0  0
  -29.6682  -32.0059   25.2977 C   0  0  0  0  0  0  0  0  0  0  0  0
  -25.0773  -32.3521   20.5358 C   0  0  0  0  0  0  0  0  0  0  0  0
  -27.4431  -32.7241   21.2659 C   0  0  0  0  0  0  0  0  0  0  0  0
  -25.5835  -33.9374   22.4028 C   0  0  0  0  0  0  0  0  0  0  0  0
  -30.9542  -16.2697   22.4954 C   0  0  0  0  0  0  0  0  0  0  0  0
  -27.6500  -29.2061   26.8990 C   0  0  0  0  0  0  0  0  0  0  0  0
  -25.9907  -24.3886   20.8202 C   0  0  0  0  0  0  0  0  0  1  0  0
  -25.8866  -31.4623   22.8204 C   0  0  1  0  0  0  0  0  0  0  0  0
  -28.4084  -31.2261   25.6408 C   0  0  2  0  0  0  0  0  0  0  0  0
  -25.9859  -32.5931   21.7579 C   0  0  0  0  0  0  0  0  0  0  0  0
  -25.3429  -14.5691   20.0702 N   0  0  0  0  0  0  0  0  0  0  0  0
  -27.5110  -21.1393   20.0020 N   0  0  0  0  0  0  0  0  0  0  0  0
  -26.1716  -13.5192   20.2005 N   0  0  0  0  0  0  0  0  0  0  0  0
  -23.9107  -30.0023   23.1167 N   0  0  0  0  0  0  0  0  0  0  0  0
  -29.5047  -15.1558   19.2996 N   0  0  0  0  0  0  0  0  0  0  0  0
  -26.2926  -11.2980   21.0144 N   0  0  0  0  0  0  0  0  0  0  0  0
  -22.0461  -12.5197   21.9475 N   0  0  0  0  0  0  0  0  0  0  0  0
  -20.3795  -29.9147   22.2112 N   0  0  0  0  0  0  0  0  0  0  0  0
  -26.7159  -31.6775   24.0013 N   0  0  0  0  0  0  0  0  0  0  0  0
  -30.2948  -16.3892   21.1905 N   0  0  0  0  0  0  0  0  0  0  0  0
  -28.7951  -30.0499   26.4702 N   0  3  0  0  0  0  0  0  0  0  0  0
  -23.5737  -10.8178   22.1162 O   0  0  0  0  0  0  0  0  0  0  0  0
  -22.3895  -30.2071   21.0722 O   0  0  0  0  0  0  0  0  0  0  0  0
  -23.9017  -32.2028   23.8874 O   0  0  0  0  0  0  0  0  0  0  0  0
  -27.9461  -29.7213   23.8080 O   0  0  0  0  0  0  0  0  0  0  0  0
  -31.6458  -14.8417   20.1148 O   0  0  0  0  0  0  0  0  0  0  0  0
  -27.1941  -20.6969   17.7086 O   0  0  0  0  0  0  0  0  0  0  0  0
  -27.5630  -22.0338   22.1800 O   0  0  0  0  0  0  0  0  0  0  0  0
  -19.7141  -17.4513   20.8178 O   0  0  0  0  0  0  0  0  0  0  0  0
  -24.8206  -24.0969   21.5832 O   0  0  0  0  0  0  0  0  0  1  0  0
  -20.4633  -22.6701   22.4326 F   0  0  0  0  0  0  0  0  0  0  0  0
  -28.6949  -17.6851   23.0905 F   0  0  0  0  0  0  0  0  0  0  0  0
  -18.4206  -18.4449   23.0499 F   0  0  0  0  0  0  0  0  0  0  0  0
  1  2  1  0  0  0  0
  1  5  2  0  0  0  0
  2  6  2  0  0  0  0
  3 10  2  0  0  0  0
  3 19  1  0  0  0  0
  4 11  1  0  0  0  0
  4 19  2  0  0  0  0
  5 21  1  0  0  0  0
  6 23  1  0  0  0  0
  7 12  2  0  0  0  0
  7 22  1  0  0  0  0
  8  9  2  0  0  0  0
  8 26  1  0  0  0  0
  9 27  1  0  0  0  0
 10 28  1  0  0  0  0
 11 28  2  0  0  0  0
 12 29  1  0  0  0  0
 13 14  2  0  0  0  0
 13 30  1  0  0  0  0
 14 31  1  0  0  0  0
 15 24  1  0  0  0  0
 15 29  2  0  0  0  0
 16 25  1  0  0  0  0
 16 36  2  0  0  0  0
 17 26  2  0  0  0  0
 17 32  1  0  0  0  0
 18 31  2  0  0  0  0
 18 33  1  0  0  0  0
 19 34  1  0  0  0  0
 20 34  1  0  0  0  0
 20 35  2  0  0  0  0
 20 38  1  0  0  0  0
 21 23  2  0  0  0  0
 21 43  1  0  0  0  0
 22 24  2  0  0  0  0
 22 44  1  0  0  0  0
 23 52  1  0  0  0  0
 24 45  1  0  0  0  0
 25 37  2  0  0  0  0
 25 61  1  0  0  0  0
 26 66  1  0  0  0  0
 27 32  2  0  0  0  0
 27 74  1  0  0  0  0
 28 83  1  0  0  0  0
 29 84  1  0  0  0  0
 30 33  2  0  0  0  0
 30 83  1  0  0  0  0
 31 85  1  0  0  0  0
 32 86  1  0  0  0  0
 33 87  1  0  0  0  0
 34 65  2  0  0  0  0
 35 67  1  0  0  0  0
 35 70  1  0  0  0  0
 36 66  1  0  0  0  0
 36 81  1  0  0  0  0
 37 66  1  0  0  0  0
 37 82  1  0  0  0  0
 38 71  1  0  0  0  0
 38 76  2  0  0  0  0
 39 53  1  0  0  0  0
 39 72  1  0  0  0  0
 39 77  2  0  0  0  0
 40 62  1  0  0  0  0
 40 68  1  0  0  0  0
 40 78  2  0  0  0  0
 41 63  1  0  0  0  0
 41 73  1  0  0  0  0
 41 79  2  0  0  0  0
 42 69  1  0  0  0  0
 42 74  1  0  0  0  0
 42 80  2  0  0  0  0
 43 46  1  0  0  0  0
 44 53  1  0  0  0  0
 45 68  1  0  0  0  0
 46 48  1  0  0  0  0
 47 49  1  0  0  0  0
 47 50  1  0  0  0  0
 48 52  1  0  0  0  0
 49 54  1  0  0  0  0
 50 69  1  0  0  0  0
 51 54  1  0  0  0  0
 51 69  1  0  0  0  0
 52 72  1  0  0  0  0
 53 68  1  0  0  0  0
 54 67  1  0  0  0  0
 55 63  1  0  0  0  0
 56 64  1  0  0  0  0
 57 64  1  0  0  0  0
 58 64  1  0  0  0  0
 59 74  1  0  0  0  0
 60 75  1  0  0  0  0
 61 84  1  0  0  0  0
 62 64  1  0  0  0  0
 62 73  1  0  0  0  0
 63 75  1  0  0  0  0
 65 67  1  0  0  0  0
M  CHG  1  75   1
M  ISO  4  42 100  61 101  74 100  84 101
M  END
> <Batch ID>
0095

> <Smiles>
CNC(C)C(=O)NC(C(=O)N1Cc2cc([101O:1][101CH2:1]C3CC(=O)N(c4ccc([100N:0](C)[100C:0](=O)N5CCCC(n6nc(-c7ccc(Oc8ccc(F)cc8F)cc7)c(C(N)=O)c6N)C5)c(F)c4)C3=O)ccc2CC1C(=O)NC1CCCc2ccccc21)C(C)(C)C

> <Shape>
0.255

> <Color>
0.089

> <Negative vol penalty>
0.000

$$$$

  -OEChem-04052300433D

 89 98  0     1  0  0  0  0  0999 V2000
  -21.2768  -13.0731   19.8213 C   0  0  0  0  0  0  0  0  0  0  0  0
  -21.5078  -14.2884   20.4577 C   0  0  0  0  0  0  0  0  0  0  0  0
  -22.2556  -21.2775   23.6632 C   0  0  0  0  0  0  0  0  0  0  0  0
  -20.4762  -21.9072   25.1713 C   0  0  0  0  0  0  0  0  0  0  0  0
  -25.1689  -27.9758   21.4250 C   0  0  0  0  0  0  0  0  0  0  0  0
  -22.3173  -12.1574   19.6709 C   0  0  0  0  0  0  0  0  0  0  0  0
  -22.7794  -14.5882   20.9453 C   0  0  0  0  0  0  0  0  0  0  0  0
  -26.3483  -20.4139   18.6613 C   0  0  0  0  0  0  0  0  0  0  0  0
  -26.3479  -27.3113   21.0872 C   0  0  0  0  0  0  0  0  0  0  0  0
  -22.7646  -20.4073   24.6271 C   0  0  0  0  0  0  0  0  0  0  0  0
  -20.9852  -21.0369   26.1352 C   0  0  0  0  0  0  0  0  0  0  0  0
  -27.0071  -21.6219   18.4316 C   0  0  0  0  0  0  0  0  0  0  0  0
  -22.0666  -17.3180   25.8112 C   0  0  0  0  0  0  0  0  0  0  0  0
  -22.4469  -16.0418   25.3962 C   0  0  0  0  0  0  0  0  0  0  0  0
  -28.8505  -20.8921   19.8162 C   0  0  0  0  0  0  0  0  0  0  0  0
  -26.6570  -28.8103   19.2177 C   0  0  0  0  0  0  0  0  0  0  0  0
  -24.7043  -16.4720   26.1422 C   0  0  0  0  0  0  0  0  0  0  0  0
  -21.1114  -22.0275   23.9353 C   0  0  0  0  0  0  0  0  0  0  0  0
  -24.7339  -29.0574   20.6591 C   0  0  0  0  0  0  0  0  0  0  0  0
  -20.1348  -22.5960   21.6482 C   0  0  0  0  0  0  0  0  0  0  0  0
  -23.6046  -12.4501   20.1482 C   0  0  0  0  0  0  0  0  0  0  0  0
  -26.9457  -19.4330   19.4578 C   0  0  0  0  0  0  0  0  0  0  0  0
  -23.8378  -13.6749   20.8023 C   0  0  0  0  0  0  0  0  0  0  0  0
  -28.2010  -19.6752   20.0397 C   0  0  0  0  0  0  0  0  0  0  0  0
  -27.0919  -27.7286   19.9836 C   0  0  0  0  0  0  0  0  0  0  0  0
  -22.1294  -20.2869   25.8631 C   0  0  0  0  0  0  0  0  0  0  0  0
  -28.2550  -21.8605   19.0079 C   0  0  0  0  0  0  0  0  0  0  0  0
  -23.0051  -18.1713   26.3916 C   0  0  0  0  0  0  0  0  0  0  0  0
  -23.7658  -15.6188   25.5617 C   0  0  0  0  0  0  0  0  0  0  0  0
  -25.4779  -29.4747   19.5555 C   0  0  0  0  0  0  0  0  0  0  0  0
  -24.3239  -17.7482   26.5572 C   0  0  0  0  0  0  0  0  0  0  0  0
  -20.5854  -22.9271   22.9402 C   0  0  0  0  0  0  0  0  0  0  0  0
  -19.7382  -23.7938   21.1055 C   0  0  0  0  0  0  0  0  0  0  0  0
  -29.3369  -27.7889   19.0004 C   0  0  0  0  0  0  0  0  0  0  0  0
  -28.4021  -25.6528   19.9380 C   0  0  0  0  0  0  0  0  0  0  0  0
  -23.4761  -29.7602   21.0210 C   0  0  0  0  0  0  0  0  0  0  0  0
  -20.0795  -21.3199   20.9970 C   0  0  0  0  0  0  0  0  0  0  0  0
  -26.7052  -16.0005   20.9530 C   0  0  0  0  0  0  0  0  0  0  0  0
  -29.6070  -16.3683   20.0285 C   0  0  0  0  0  0  0  0  0  0  0  0
  -32.7964  -15.9424   18.8957 C   0  0  0  0  0  0  0  0  0  0  0  0
  -21.2709  -29.4501   22.1000 C   0  0  0  0  0  0  0  0  0  0  0  0
  -24.6863  -11.4090   20.0045 C   0  0  0  0  0  0  0  0  0  0  0  0
  -26.2452  -18.1416   19.7823 C   0  0  0  0  0  0  0  0  0  0  0  0
  -28.7900  -18.6050   20.9176 C   0  0  0  0  0  0  0  0  0  0  0  0
  -30.5388  -27.0210   18.4903 C   0  0  0  0  0  0  0  0  0  0  0  0
  -26.0940  -11.9600   20.2165 C   0  0  0  0  0  0  0  0  0  0  0  0
  -30.3284  -25.5270   18.4129 C   0  0  0  0  0  0  0  0  0  0  0  0
  -18.0188  -28.0887   22.3606 C   0  0  0  0  0  0  0  0  0  0  0  0
  -26.1417  -12.8375   21.4633 C   0  0  0  0  0  0  0  0  0  0  0  0
  -18.2624  -26.5778   22.4056 C   0  0  0  0  0  0  0  0  0  0  0  0
  -19.0929  -28.8597   23.1266 C   0  0  0  0  0  0  0  0  0  0  0  0
  -20.7161  -27.0398   22.7929 C   0  0  0  0  0  0  0  0  0  0  0  0
  -25.2093  -14.0469   21.3226 C   0  0  1  0  0  0  0  0  0  0  0  0
  -29.7873  -25.0509   19.7492 C   0  0  2  0  0  0  0  0  0  0  0  0
  -27.2077  -16.9465   19.9024 C   0  0  1  0  0  0  0  0  0  0  0  0
  -19.7005  -26.2237   21.9769 C   0  0  1  0  0  0  0  0  0  0  0  0
  -34.8959  -14.6489   19.3613 C   0  0  0  0  0  0  0  0  0  0  0  0
  -30.1963  -18.1874   22.4049 C   0  0  0  0  0  0  0  0  0  0  0  0
  -32.6046  -17.5282   22.2217 C   0  0  0  0  0  0  0  0  0  0  0  0
  -30.8754  -15.8017   22.7233 C   0  0  0  0  0  0  0  0  0  0  0  0
  -32.7288  -14.6501   16.2341 C   0  0  0  0  0  0  0  0  0  0  0  0
  -29.7543  -23.5254   19.8063 C   0  0  0  0  0  0  0  0  0  1  0  0
  -31.0091  -16.7826   20.3970 C   0  0  1  0  0  0  0  0  0  0  0  0
  -33.5936  -14.6905   18.5769 C   0  0  2  0  0  0  0  0  0  0  0  0
  -31.1578  -17.0865   21.9145 C   0  0  0  0  0  0  0  0  0  0  0  0
  -20.4850  -24.2329   23.2024 N   0  0  0  0  0  0  0  0  0  0  0  0
  -19.9668  -24.7329   22.0677 N   0  0  0  0  0  0  0  0  0  0  0  0
  -28.3171  -27.0380   19.6327 N   0  0  0  0  0  0  0  0  0  0  0  0
  -28.5837  -17.2831   20.3053 N   0  0  0  0  0  0  0  0  0  0  0  0
  -20.4244  -28.4746   22.6552 N   0  0  0  0  0  0  0  0  0  0  0  0
  -19.2198  -24.1248   19.9038 N   0  0  0  0  0  0  0  0  0  0  0  0
  -18.9171  -20.5491   21.1351 N   0  0  0  0  0  0  0  0  0  0  0  0
  -22.5039  -28.9743   21.6404 N   0  0  0  0  0  0  0  0  0  0  0  0
  -25.8142  -15.0561   20.4800 N   0  0  0  0  0  0  0  0  0  0  0  0
  -31.8884  -15.7251   19.9104 N   0  0  0  0  0  0  0  0  0  0  0  0
  -33.9187  -14.6394   17.1234 N   0  3  0  0  0  0  0  0  0  0  0  0
  -29.3587  -29.0207   18.9100 O   0  0  0  0  0  0  0  0  0  0  0  0
  -27.4606  -24.9497   20.3104 O   0  0  0  0  0  0  0  0  0  0  0  0
  -23.3786  -30.9640   20.7993 O   0  0  0  0  0  0  0  0  0  0  0  0
  -21.0390  -20.8691   20.3264 O   0  0  0  0  0  0  0  0  0  0  0  0
  -27.0974  -16.1167   22.1082 O   0  0  0  0  0  0  0  0  0  0  0  0
  -29.4205  -15.2619   19.5143 O   0  0  0  0  0  0  0  0  0  0  0  0
  -32.9651  -17.0076   18.3063 O   0  0  0  0  0  0  0  0  0  0  0  0
  -20.9425  -30.6354   21.9881 O   0  0  0  0  0  0  0  0  0  0  0  0
  -22.6257  -19.4377   26.8038 O   0  0  0  0  0  0  0  0  0  0  0  0
  -28.8947  -23.0402   18.7758 O   0  0  0  0  0  0  0  0  0  1  0  0
  -24.1305  -14.3926   25.1646 F   0  0  0  0  0  0  0  0  0  0  0  0
  -25.0692  -30.5128   18.8120 F   0  0  0  0  0  0  0  0  0  0  0  0
  -25.2297  -18.5630   27.1152 F   0  0  0  0  0  0  0  0  0  0  0  0
  1  2  1  0  0  0  0
  1  6  2  0  0  0  0
  2  7  2  0  0  0  0
  3 10  2  0  0  0  0
  3 18  1  0  0  0  0
  4 11  1  0  0  0  0
  4 18  2  0  0  0  0
  5  9  2  0  0  0  0
  5 19  1  0  0  0  0
  6 21  1  0  0  0  0
  7 23  1  0  0  0  0
  8 12  2  0  0  0  0
  8 22  1  0  0  0  0
  9 25  1  0  0  0  0
 10 26  1  0  0  0  0
 11 26  2  0  0  0  0
 12 27  1  0  0  0  0
 13 14  2  0  0  0  0
 13 28  1  0  0  0  0
 14 29  1  0  0  0  0
 15 24  1  0  0  0  0
 15 27  2  0  0  0  0
 16 25  2  0  0  0  0
 16 30  1  0  0  0  0
 17 29  2  0  0  0  0
 17 31  1  0  0  0  0
 18 32  1  0  0  0  0
 19 30  2  0  0  0  0
 19 36  1  0  0  0  0
 20 32  1  0  0  0  0
 20 33  2  0  0  0  0
 20 37  1  0  0  0  0
 21 23  2  0  0  0  0
 21 42  1  0  0  0  0
 22 24  2  0  0  0  0
 22 43  1  0  0  0  0
 23 53  1  0  0  0  0
 24 44  1  0  0  0  0
 25 68  1  0  0  0  0
 26 85  1  0  0  0  0
 27 86  1  0  0  0  0
 28 31  2  0  0  0  0
 28 85  1  0  0  0  0
 29 87  1  0  0  0  0
 30 88  1  0  0  0  0
 31 89  1  0  0  0  0
 32 66  2  0  0  0  0
 33 67  1  0  0  0  0
 33 71  1  0  0  0  0
 34 45  1  0  0  0  0
 34 68  1  0  0  0  0
 34 77  2  0  0  0  0
 35 54  1  0  0  0  0
 35 68  1  0  0  0  0
 35 78  2  0  0  0  0
 36 73  1  0  0  0  0
 36 79  2  0  0  0  0
 37 72  1  0  0  0  0
 37 80  2  0  0  0  0
 38 55  1  0  0  0  0
 38 74  1  0  0  0  0
 38 81  2  0  0  0  0
 39 63  1  0  0  0  0
 39 69  1  0  0  0  0
 39 82  2  0  0  0  0
 40 64  1  0  0  0  0
 40 75  1  0  0  0  0
 40 83  2  0  0  0  0
 41 70  1  0  0  0  0
 41 73  1  0  0  0  0
 41 84  2  0  0  0  0
 42 46  1  0  0  0  0
 43 55  1  0  0  0  0
 44 69  1  0  0  0  0
 45 47  1  0  0  0  0
 46 49  1  0  0  0  0
 47 54  1  0  0  0  0
 48 50  1  0  0  0  0
 48 51  1  0  0  0  0
 49 53  1  0  0  0  0
 50 56  1  0  0  0  0
 51 70  1  0  0  0  0
 52 56  1  0  0  0  0
 52 70  1  0  0  0  0
 53 74  1  0  0  0  0
 54 62  1  0  0  0  0
 55 69  1  0  0  0  0
 56 67  1  0  0  0  0
 57 64  1  0  0  0  0
 58 65  1  0  0  0  0
 59 65  1  0  0  0  0
 60 65  1  0  0  0  0
 61 76  1  0  0  0  0
 62 86  1  0  0  0  0
 63 65  1  0  0  0  0
 63 75  1  0  0  0  0
 64 76  1  0  0  0  0
 66 67  1  0  0  0  0
M  CHG  1  76   1
M  ISO  4  41 100  62 101  73 100  86 101
M  END
> <Batch ID>
0095

> <Smiles>
CNC(C)C(=O)NC(C(=O)N1Cc2cc([101O:1][101CH2:1]C3CCC(=O)N(c4ccc(C(=O)[100NH:0][100C:0](=O)N5CCCC(n6nc(-c7ccc(Oc8ccc(F)cc8F)cc7)c(C(N)=O)c6N)C5)c(F)c4)C3=O)ccc2CC1C(=O)NC1CCCc2ccccc21)C(C)(C)C

> <Shape>
0.250

> <Color>
0.090

> <Negative vol penalty>
0.000

$$$$

  -OEChem-04052300433D

 87 96  0     1  0  0  0  0  0999 V2000
  -24.5311  -28.6742   13.0039 C   0  0  0  0  0  0  0  0  0  0  0  0
  -25.6054  -28.2564   13.7828 C   0  0  0  0  0  0  0  0  0  0  0  0
  -24.7535  -10.5868   23.8230 C   0  0  0  0  0  0  0  0  0  0  0  0
  -24.6156   -9.2792   21.7960 C   0  0  0  0  0  0  0  0  0  0  0  0
  -23.7672  -29.7702   13.4025 C   0  0  0  0  0  0  0  0  0  0  0  0
  -25.9171  -28.9351   14.9604 C   0  0  0  0  0  0  0  0  0  0  0  0
  -26.8875  -25.7957   18.8136 C   0  0  0  0  0  0  0  0  0  0  0  0
  -24.4000   -9.4640   24.5713 C   0  0  0  0  0  0  0  0  0  0  0  0
  -24.2622   -8.1564   22.5444 C   0  0  0  0  0  0  0  0  0  0  0  0
  -28.1423  -25.1887   18.8399 C   0  0  0  0  0  0  0  0  0  0  0  0
  -21.4919   -6.9381   24.0517 C   0  0  0  0  0  0  0  0  0  0  0  0
  -20.4333   -6.1572   23.5879 C   0  0  0  0  0  0  0  0  0  0  0  0
  -28.8875  -26.8133   20.4600 C   0  0  0  0  0  0  0  0  0  0  0  0
  -29.9582  -19.9207   21.2140 C   0  0  0  0  0  0  0  0  0  0  0  0
  -31.4690  -18.0687   19.7753 C   0  0  0  0  0  0  0  0  0  0  0  0
  -21.9109   -4.2528   23.4223 C   0  0  0  0  0  0  0  0  0  0  0  0
  -24.8612  -10.4944   22.4353 C   0  0  0  0  0  0  0  0  0  0  0  0
  -24.5342  -12.8780   21.5872 C   0  0  0  0  0  0  0  0  0  0  0  0
  -24.0636  -30.4568   14.5906 C   0  0  0  0  0  0  0  0  0  0  0  0
  -26.6261  -26.9245   19.6035 C   0  0  0  0  0  0  0  0  0  0  0  0
  -25.1571  -30.0422   15.3746 C   0  0  0  0  0  0  0  0  0  0  0  0
  -27.6277  -27.4311   20.4439 C   0  0  0  0  0  0  0  0  0  0  0  0
  -29.3788  -18.7230   20.7952 C   0  0  0  0  0  0  0  0  0  0  0  0
  -31.2929  -20.1925   20.9135 C   0  0  0  0  0  0  0  0  0  0  0  0
  -30.1342  -17.7970   20.0758 C   0  0  0  0  0  0  0  0  0  0  0  0
  -32.0483  -19.2665   20.1941 C   0  0  0  0  0  0  0  0  0  0  0  0
  -24.1544   -8.2488   23.9321 C   0  0  0  0  0  0  0  0  0  0  0  0
  -29.1435  -25.6992   19.6610 C   0  0  0  0  0  0  0  0  0  0  0  0
  -22.7600   -6.3765   24.2007 C   0  0  0  0  0  0  0  0  0  0  0  0
  -20.6428   -4.8145   23.2733 C   0  0  0  0  0  0  0  0  0  0  0  0
  -22.9694   -5.0338   23.8861 C   0  0  0  0  0  0  0  0  0  0  0  0
  -25.2257  -11.6540   21.6616 C   0  0  0  0  0  0  0  0  0  0  0  0
  -25.2826  -13.6433   20.7266 C   0  0  0  0  0  0  0  0  0  0  0  0
  -32.9791  -21.4551   22.2222 C   0  0  0  0  0  0  0  0  0  0  0  0
  -23.3237  -13.2866   22.2378 C   0  0  0  0  0  0  0  0  0  0  0  0
  -25.8200  -29.9410   19.0082 C   0  0  0  0  0  0  0  0  0  0  0  0
  -25.5542  -30.0981   22.2373 C   0  0  0  0  0  0  0  0  0  0  0  0
  -27.3983  -28.8896   25.0932 C   0  0  0  0  0  0  0  0  0  0  0  0
  -30.1904  -15.5577   18.9231 C   0  0  0  0  0  0  0  0  0  0  0  0
  -23.2383  -31.6650   14.9561 C   0  0  0  0  0  0  0  0  0  0  0  0
  -25.2590  -27.5515   19.5838 C   0  0  0  0  0  0  0  0  0  0  0  0
  -27.3916  -28.6286   21.3264 C   0  0  0  0  0  0  0  0  0  0  0  0
  -33.6985  -22.7817   22.3776 C   0  0  0  0  0  0  0  0  0  0  0  0
  -23.4044  -32.0990   16.4101 C   0  0  0  0  0  0  0  0  0  0  0  0
  -32.7928  -23.9926   22.3300 C   0  0  0  0  0  0  0  0  0  0  0  0
  -29.1410  -12.3817   17.7028 C   0  0  0  0  0  0  0  0  0  0  0  0
  -24.8808  -32.1299   16.7926 C   0  0  0  0  0  0  0  0  0  0  0  0
  -27.9719  -12.0100   18.6178 C   0  0  0  0  0  0  0  0  0  0  0  0
  -30.2442  -13.1165   18.4622 C   0  0  0  0  0  0  0  0  0  0  0  0
  -31.1311  -22.6788   21.0431 C   0  0  0  0  0  0  0  0  0  0  0  0
  -28.6286  -13.9167   20.1411 C   0  0  0  0  0  0  0  0  0  0  0  0
  -25.5114  -30.7374   16.6713 C   0  0  1  0  0  0  0  0  0  0  0  0
  -25.2621  -29.0061   20.0438 C   0  0  1  0  0  0  0  0  0  0  0  0
  -31.9812  -23.9485   21.0459 C   0  0  1  0  0  0  0  0  0  0  0  0
  -27.4637  -13.2321   19.4076 C   0  0  2  0  0  0  0  0  0  0  0  0
  -27.9467  -18.4586   21.1300 C   0  0  0  0  0  0  0  0  0  0  0  0
  -26.6323  -28.3528   27.4218 C   0  0  0  0  0  0  0  0  0  0  0  0
  -26.4047  -32.9601   22.8659 C   0  0  0  0  0  0  0  0  0  0  0  0
  -27.2624  -32.1466   25.0728 C   0  0  0  0  0  0  0  0  0  0  0  0
  -24.8357  -31.9487   24.5302 C   0  0  0  0  0  0  0  0  0  0  0  0
  -28.4884  -26.1423   24.9430 C   0  0  0  0  0  0  0  0  0  0  0  0
  -31.1024  -25.1902   20.9097 C   0  0  0  0  0  0  0  0  0  1  0  0
  -26.4925  -30.4300   23.3724 C   0  0  1  0  0  0  0  0  0  0  0  0
  -26.9736  -27.7907   26.0506 C   0  0  2  0  0  0  0  0  0  0  0  0
  -26.2583  -31.8600   23.9360 C   0  0  0  0  0  0  0  0  0  0  0  0
  -26.3286  -11.6382   20.9083 N   0  0  0  0  0  0  0  0  0  0  0  0
  -26.3357  -12.8616   20.3522 N   0  0  0  0  0  0  0  0  0  0  0  0
  -31.8710  -21.4429   21.3576 N   0  0  0  0  0  0  0  0  0  0  0  0
  -26.0405  -29.2104   21.2671 N   0  0  0  0  0  0  0  0  0  0  0  0
  -29.6895  -14.2645   19.1828 N   0  0  0  0  0  0  0  0  0  0  0  0
  -33.4012  -19.5229   19.8763 N   0  0  0  0  0  0  0  0  0  0  0  0
  -25.1360  -14.9020   20.2611 N   0  0  0  0  0  0  0  0  0  0  0  0
  -22.1039  -13.0487   21.5899 N   0  0  0  0  0  0  0  0  0  0  0  0
  -29.5639  -16.5741   19.6436 N   0  0  0  0  0  0  0  0  0  0  0  0
  -25.1430  -29.9152   17.8039 N   0  0  0  0  0  0  0  0  0  0  0  0
  -26.3337  -29.3659   24.3577 N   0  0  0  0  0  0  0  0  0  0  0  0
  -28.0681  -26.7921   26.2111 N   0  3  0  0  0  0  0  0  0  0  0  0
  -33.4411  -20.4728   22.8090 O   0  0  0  0  0  0  0  0  0  0  0  0
  -23.3248  -13.8609   23.3530 O   0  0  0  0  0  0  0  0  0  0  0  0
  -26.7918  -30.6355   19.2821 O   0  0  0  0  0  0  0  0  0  0  0  0
  -24.4285  -30.6021   22.2162 O   0  0  0  0  0  0  0  0  0  0  0  0
  -28.5578  -29.2885   25.0091 O   0  0  0  0  0  0  0  0  0  0  0  0
  -31.0890  -15.7525   18.1006 O   0  0  0  0  0  0  0  0  0  0  0  0
  -23.8097   -7.1530   24.6620 O   0  0  0  0  0  0  0  0  0  0  0  0
  -30.3694  -25.1091   19.6880 O   0  0  0  0  0  0  0  0  0  1  0  0
  -19.6258   -4.0642   22.8294 F   0  0  0  0  0  0  0  0  0  0  0  0
  -24.1852   -4.4884   24.0283 F   0  0  0  0  0  0  0  0  0  0  0  0
  1  2  1  0  0  0  0
  1  5  2  0  0  0  0
  2  6  2  0  0  0  0
  3  8  2  0  0  0  0
  3 17  1  0  0  0  0
  4  9  1  0  0  0  0
  4 17  2  0  0  0  0
  5 19  1  0  0  0  0
  6 21  1  0  0  0  0
  7 10  2  0  0  0  0
  7 20  1  0  0  0  0
  8 27  1  0  0  0  0
  9 27  2  0  0  0  0
 10 28  1  0  0  0  0
 11 12  2  0  0  0  0
 11 29  1  0  0  0  0
 12 30  1  0  0  0  0
 13 22  1  0  0  0  0
 13 28  2  0  0  0  0
 14 23  2  0  0  0  0
 14 24  1  0  0  0  0
 15 25  2  0  0  0  0
 15 26  1  0  0  0  0
 16 30  2  0  0  0  0
 16 31  1  0  0  0  0
 17 32  1  0  0  0  0
 18 32  1  0  0  0  0
 18 33  2  0  0  0  0
 18 35  1  0  0  0  0
 19 21  2  0  0  0  0
 19 40  1  0  0  0  0
 20 22  2  0  0  0  0
 20 41  1  0  0  0  0
 21 52  1  0  0  0  0
 22 42  1  0  0  0  0
 23 25  1  0  0  0  0
 23 56  1  0  0  0  0
 24 26  2  0  0  0  0
 24 68  1  0  0  0  0
 25 74  1  0  0  0  0
 26 71  1  0  0  0  0
 27 84  1  0  0  0  0
 28 85  1  0  0  0  0
 29 31  2  0  0  0  0
 29 84  1  0  0  0  0
 30 86  1  0  0  0  0
 31 87  1  0  0  0  0
 32 66  2  0  0  0  0
 33 67  1  0  0  0  0
 33 72  1  0  0  0  0
 34 43  1  0  0  0  0
 34 68  1  0  0  0  0
 34 78  2  0  0  0  0
 35 73  1  0  0  0  0
 35 79  2  0  0  0  0
 36 53  1  0  0  0  0
 36 75  1  0  0  0  0
 36 80  2  0  0  0  0
 37 63  1  0  0  0  0
 37 69  1  0  0  0  0
 37 81  2  0  0  0  0
 38 64  1  0  0  0  0
 38 76  1  0  0  0  0
 38 82  2  0  0  0  0
 39 70  1  0  0  0  0
 39 74  1  0  0  0  0
 39 83  2  0  0  0  0
 40 44  1  0  0  0  0
 41 53  1  0  0  0  0
 42 69  1  0  0  0  0
 43 45  1  0  0  0  0
 44 47  1  0  0  0  0
 45 54  1  0  0  0  0
 46 48  1  0  0  0  0
 46 49  1  0  0  0  0
 47 52  1  0  0  0  0
 48 55  1  0  0  0  0
 49 70  1  0  0  0  0
 50 54  1  0  0  0  0
 50 68  1  0  0  0  0
 51 55  1  0  0  0  0
 51 70  1  0  0  0  0
 52 75  1  0  0  0  0
 53 69  1  0  0  0  0
 54 62  1  0  0  0  0
 55 67  1  0  0  0  0
 57 64  1  0  0  0  0
 58 65  1  0  0  0  0
 59 65  1  0  0  0  0
 60 65  1  0  0  0  0
 61 77  1  0  0  0  0
 62 85  1  0  0  0  0
 63 65  1  0  0  0  0
 63 76  1  0  0  0  0
 64 77  1  0  0  0  0
 66 67  1  0  0  0  0
M  CHG  1  77   1
M  ISO  4  39 100  62 101  74 100  85 101
M  END
> <Batch ID>
0095

> <Smiles>
CNC(C)C(=O)NC(C(=O)N1Cc2cc([101O:1][101CH2:1]C3CCC(=O)N(c4cc(C)c([100NH:0][100C:0](=O)N5CCCC(n6nc(-c7ccc(Oc8ccc(F)cc8F)cc7)c(C(N)=O)c6N)C5)cc4N)C3)ccc2CC1C(=O)NC1CCCc2ccccc21)C(C)(C)C

> <Shape>
0.271

> <Color>
0.139

> <Negative vol penalty>
0.000

$$$$

  -OEChem-04052300433D

 85 93  0     1  0  0  0  0  0999 V2000
  -29.4370  -33.2450   26.8787 C   0  0  0  0  0  0  0  0  0  0  0  0
  -29.4208  -32.1489   26.0221 C   0  0  0  0  0  0  0  0  0  0  0  0
  -22.9366  -10.9058   19.1585 C   0  0  0  0  0  0  0  0  0  0  0  0
  -23.0918   -9.8823   21.3414 C   0  0  0  0  0  0  0  0  0  0  0  0
  -30.2060  -19.2514   20.0394 C   0  0  0  0  0  0  0  0  0  0  0  0
  -28.2371  -33.7995   27.3221 C   0  0  0  0  0  0  0  0  0  0  0  0
  -28.2046  -31.6058   25.6094 C   0  0  0  0  0  0  0  0  0  0  0  0
  -26.9453  -29.1167   20.1574 C   0  0  0  0  0  0  0  0  0  0  0  0
  -29.3451  -20.3475   19.9851 C   0  0  0  0  0  0  0  0  0  0  0  0
  -21.9267  -10.0092   18.8098 C   0  0  0  0  0  0  0  0  0  0  0  0
  -22.0818   -8.9856   20.9928 C   0  0  0  0  0  0  0  0  0  0  0  0
  -26.8970  -27.7942   19.7187 C   0  0  0  0  0  0  0  0  0  0  0  0
  -18.7113   -9.0050   20.7482 C   0  0  0  0  0  0  0  0  0  0  0  0
  -17.6987   -8.7776   21.6800 C   0  0  0  0  0  0  0  0  0  0  0  0
  -28.5608  -17.9026   18.8943 C   0  0  0  0  0  0  0  0  0  0  0  0
  -24.5117  -27.7686   20.0779 C   0  0  0  0  0  0  0  0  0  0  0  0
  -18.2796   -6.4332   21.7391 C   0  0  0  0  0  0  0  0  0  0  0  0
  -23.5193  -10.8423   20.4243 C   0  0  0  0  0  0  0  0  0  0  0  0
  -29.8139  -18.0289   19.4940 C   0  0  0  0  0  0  0  0  0  0  0  0
  -24.4085  -13.0305   21.3880 C   0  0  0  0  0  0  0  0  0  0  0  0
  -27.0055  -33.2690   26.9069 C   0  0  0  0  0  0  0  0  0  0  0  0
  -25.7768  -29.7727   20.5707 C   0  0  0  0  0  0  0  0  0  0  0  0
  -26.9871  -32.1529   26.0488 C   0  0  0  0  0  0  0  0  0  0  0  0
  -24.5475  -29.1002   20.5190 C   0  0  0  0  0  0  0  0  0  0  0  0
  -28.0921  -20.2212   19.3854 C   0  0  0  0  0  0  0  0  0  0  0  0
  -21.4993   -9.0491   19.7269 C   0  0  0  0  0  0  0  0  0  0  0  0
  -25.6805  -27.1190   19.6817 C   0  0  0  0  0  0  0  0  0  0  0  0
  -19.5081   -7.9466   20.3117 C   0  0  0  0  0  0  0  0  0  0  0  0
  -17.4828   -7.4917   22.1755 C   0  0  0  0  0  0  0  0  0  0  0  0
  -27.6999  -18.9987   18.8400 C   0  0  0  0  0  0  0  0  0  0  0  0
  -19.2922   -6.6607   20.8072 C   0  0  0  0  0  0  0  0  0  0  0  0
  -24.5630  -11.7679   20.7848 C   0  0  0  0  0  0  0  0  0  0  0  0
  -25.6900  -13.5066   21.5211 C   0  0  0  0  0  0  0  0  0  0  0  0
  -30.7300  -16.8609   19.5512 C   0  0  0  0  0  0  0  0  0  0  0  0
  -23.2135  -13.7120   21.7921 C   0  0  0  0  0  0  0  0  0  0  0  0
  -24.7749  -31.0665   23.2958 C   0  0  0  0  0  0  0  0  0  0  0  0
  -26.4073  -23.5647   19.6391 C   0  0  0  0  0  0  0  0  0  0  0  0
  -22.2722  -32.0244   21.4680 C   0  0  0  0  0  0  0  0  0  0  0  0
  -20.3605  -31.5295   18.6846 C   0  0  0  0  0  0  0  0  0  0  0  0
  -30.7922  -14.3871   19.5488 C   0  0  0  0  0  0  0  0  0  0  0  0
  -25.7348  -33.8728   27.4504 C   0  0  0  0  0  0  0  0  0  0  0  0
  -25.8418  -31.2079   21.0159 C   0  0  0  0  0  0  0  0  0  0  0  0
  -23.2614  -29.7660   20.9327 C   0  0  0  0  0  0  0  0  0  0  0  0
  -24.4867  -33.4716   26.6683 C   0  0  0  0  0  0  0  0  0  0  0  0
  -30.1499  -11.1863   20.9049 C   0  0  0  0  0  0  0  0  0  0  0  0
  -24.4804  -31.9687   26.4072 C   0  0  0  0  0  0  0  0  0  0  0  0
  -28.6262  -11.1559   21.0530 C   0  0  0  0  0  0  0  0  0  0  0  0
  -30.5821  -11.9184   19.6353 C   0  0  0  0  0  0  0  0  0  0  0  0
  -28.4997  -13.2305   19.6162 C   0  0  0  0  0  0  0  0  0  0  0  0
  -25.6878  -31.5511   25.5591 C   0  0  1  0  0  0  0  0  0  0  0  0
  -24.6666  -31.6130   21.9003 C   0  0  1  0  0  0  0  0  0  0  0  0
  -28.0163  -12.5654   20.9151 C   0  0  1  0  0  0  0  0  0  0  0  0
  -18.3626  -32.4510   17.4777 C   0  0  0  0  0  0  0  0  0  0  0  0
  -20.4327  -30.7290   23.5291 C   0  0  0  0  0  0  0  0  0  0  0  0
  -18.5848  -30.8340   21.8432 C   0  0  0  0  0  0  0  0  0  0  0  0
  -19.6405  -32.9387   22.6666 C   0  0  0  0  0  0  0  0  0  0  0  0
  -21.9592  -32.1523   16.2731 C   0  0  0  0  0  0  0  0  0  0  0  0
  -27.5592  -22.6100   19.8706 C   0  0  0  0  0  0  0  0  0  0  0  0
  -26.7878  -25.0239   19.4803 C   0  0  0  0  0  0  0  0  0  1  0  0
  -20.9324  -31.4359   21.0967 C   0  0  1  0  0  0  0  0  0  0  0  0
  -19.8770  -32.4880   17.6112 C   0  0  2  0  0  0  0  0  0  0  0  0
  -19.9219  -31.4710   22.2779 C   0  0  0  0  0  0  0  0  0  0  0  0
  -25.8418  -11.4613   20.5507 N   0  0  0  0  0  0  0  0  0  0  0  0
  -26.5025  -12.5381   21.0091 N   0  0  0  0  0  0  0  0  0  0  0  0
  -23.3777  -31.1681   21.3664 N   0  0  0  0  0  0  0  0  0  0  0  0
  -29.9700  -13.2474   19.5851 N   0  0  0  0  0  0  0  0  0  0  0  0
  -26.1898  -14.6550   22.0249 N   0  0  0  0  0  0  0  0  0  0  0  0
  -21.9804  -13.0797   21.5824 N   0  0  0  0  0  0  0  0  0  0  0  0
  -27.2372  -21.3128   19.3332 N   0  0  0  0  0  0  0  0  0  0  0  0
  -30.1121  -15.6100   19.5455 N   0  0  0  0  0  0  0  0  0  0  0  0
  -25.4677  -31.8842   24.1680 N   0  0  0  0  0  0  0  0  0  0  0  0
  -20.4867  -32.1539   19.9075 N   0  0  0  0  0  0  0  0  0  0  0  0
  -20.4739  -32.1328   16.2927 N   0  3  0  0  0  0  0  0  0  0  0  0
  -31.9430  -17.0521   19.5597 O   0  0  0  0  0  0  0  0  0  0  0  0
  -23.2374  -14.8550   22.3082 O   0  0  0  0  0  0  0  0  0  0  0  0
  -24.2663  -29.9838   23.5618 O   0  0  0  0  0  0  0  0  0  0  0  0
  -25.2359  -23.1926   19.5822 O   0  0  0  0  0  0  0  0  0  0  0  0
  -22.3364  -33.2025   21.8278 O   0  0  0  0  0  0  0  0  0  0  0  0
  -20.5985  -30.3446   18.4614 O   0  0  0  0  0  0  0  0  0  0  0  0
  -32.0255  -14.3228   19.5571 O   0  0  0  0  0  0  0  0  0  0  0  0
  -20.5136   -8.1741   19.3871 O   0  0  0  0  0  0  0  0  0  0  0  0
  -25.6306  -25.8279   19.2545 O   0  0  0  0  0  0  0  0  0  1  0  0
  -16.5113   -7.2737   23.0715 F   0  0  0  0  0  0  0  0  0  0  0  0
  -26.4979  -18.8659   18.2614 F   0  0  0  0  0  0  0  0  0  0  0  0
  -20.0552   -5.6400   20.3926 F   0  0  0  0  0  0  0  0  0  0  0  0
  1  2  1  0  0  0  0
  1  6  2  0  0  0  0
  2  7  2  0  0  0  0
  3 10  2  0  0  0  0
  3 18  1  0  0  0  0
  4 11  1  0  0  0  0
  4 18  2  0  0  0  0
  5  9  2  0  0  0  0
  5 19  1  0  0  0  0
  6 21  1  0  0  0  0
  7 23  1  0  0  0  0
  8 12  2  0  0  0  0
  8 22  1  0  0  0  0
  9 25  1  0  0  0  0
 10 26  1  0  0  0  0
 11 26  2  0  0  0  0
 12 27  1  0  0  0  0
 13 14  2  0  0  0  0
 13 28  1  0  0  0  0
 14 29  1  0  0  0  0
 15 19  2  0  0  0  0
 15 30  1  0  0  0  0
 16 24  1  0  0  0  0
 16 27  2  0  0  0  0
 17 29  2  0  0  0  0
 17 31  1  0  0  0  0
 18 32  1  0  0  0  0
 19 34  1  0  0  0  0
 20 32  1  0  0  0  0
 20 33  2  0  0  0  0
 20 35  1  0  0  0  0
 21 23  2  0  0  0  0
 21 41  1  0  0  0  0
 22 24  2  0  0  0  0
 22 42  1  0  0  0  0
 23 50  1  0  0  0  0
 24 43  1  0  0  0  0
 25 30  2  0  0  0  0
 25 69  1  0  0  0  0
 26 81  1  0  0  0  0
 27 82  1  0  0  0  0
 28 31  2  0  0  0  0
 28 81  1  0  0  0  0
 29 83  1  0  0  0  0
 30 84  1  0  0  0  0
 31 85  1  0  0  0  0
 32 63  2  0  0  0  0
 33 64  1  0  0  0  0
 33 67  1  0  0  0  0
 34 70  1  0  0  0  0
 34 74  2  0  0  0  0
 35 68  1  0  0  0  0
 35 75  2  0  0  0  0
 36 51  1  0  0  0  0
 36 71  1  0  0  0  0
 36 76  2  0  0  0  0
 37 58  1  0  0  0  0
 37 59  1  0  0  0  0
 37 77  2  0  0  0  0
 38 60  1  0  0  0  0
 38 65  1  0  0  0  0
 38 78  2  0  0  0  0
 39 61  1  0  0  0  0
 39 72  1  0  0  0  0
 39 79  2  0  0  0  0
 40 66  1  0  0  0  0
 40 70  1  0  0  0  0
 40 80  2  0  0  0  0
 41 44  1  0  0  0  0
 42 51  1  0  0  0  0
 43 65  1  0  0  0  0
 44 46  1  0  0  0  0
 45 47  1  0  0  0  0
 45 48  1  0  0  0  0
 46 50  1  0  0  0  0
 47 52  1  0  0  0  0
 48 66  1  0  0  0  0
 49 52  1  0  0  0  0
 49 66  1  0  0  0  0
 50 71  1  0  0  0  0
 51 65  1  0  0  0  0
 52 64  1  0  0  0  0
 53 61  1  0  0  0  0
 54 62  1  0  0  0  0
 55 62  1  0  0  0  0
 56 62  1  0  0  0  0
 57 73  1  0  0  0  0
 58 69  1  0  0  0  0
 59 82  1  0  0  0  0
 60 62  1  0  0  0  0
 60 72  1  0  0  0  0
 61 73  1  0  0  0  0
 63 64  1  0  0  0  0
M  CHG  1  73   1
M  ISO  4  40 100  59 101  70 100  82 101
M  END
> <Batch ID>
0095

> <Smiles>
CNC(C)C(=O)NC(C(=O)N1Cc2cc([101O:1][101CH2:1]C(=O)CNc3ccc(C(=O)[100NH:0][100C:0](=O)N4CCCC(n5nc(-c6ccc(Oc7ccc(F)cc7F)cc6)c(C(N)=O)c5N)C4)cc3F)ccc2CC1C(=O)NC1CCCc2ccccc21)C(C)(C)C

> <Shape>
0.292

> <Color>
0.112

> <Negative vol penalty>
0.000

$$$$

  -OEChem-04052300433D

 85 93  0     1  0  0  0  0  0999 V2000
  -29.7448  -32.5490   24.6580 C   0  0  0  0  0  0  0  0  0  0  0  0
  -29.5315  -31.3454   23.9936 C   0  0  0  0  0  0  0  0  0  0  0  0
  -23.5189  -12.4710   15.7367 C   0  0  0  0  0  0  0  0  0  0  0  0
  -22.7713  -11.0074   17.5076 C   0  0  0  0  0  0  0  0  0  0  0  0
  -28.7206  -33.1177   25.4139 C   0  0  0  0  0  0  0  0  0  0  0  0
  -28.2940  -30.7093   24.0857 C   0  0  0  0  0  0  0  0  0  0  0  0
  -26.6370  -29.0259   19.6062 C   0  0  0  0  0  0  0  0  0  0  0  0
  -22.7174  -11.7806   14.8277 C   0  0  0  0  0  0  0  0  0  0  0  0
  -21.9697  -10.3170   16.5985 C   0  0  0  0  0  0  0  0  0  0  0  0
  -27.1995  -27.8458   19.1219 C   0  0  0  0  0  0  0  0  0  0  0  0
  -20.0021   -7.9423   14.6751 C   0  0  0  0  0  0  0  0  0  0  0  0
  -20.0195   -6.5485   14.7237 C   0  0  0  0  0  0  0  0  0  0  0  0
  -25.2659  -26.6196   19.8814 C   0  0  0  0  0  0  0  0  0  0  0  0
  -29.5441  -20.8452   19.5365 C   0  0  0  0  0  0  0  0  0  0  0  0
  -27.7791  -19.8050   20.8171 C   0  0  0  0  0  0  0  0  0  0  0  0
  -22.3905   -6.5617   14.2601 C   0  0  0  0  0  0  0  0  0  0  0  0
  -23.5459  -12.0844   17.0767 C   0  0  0  0  0  0  0  0  0  0  0  0
  -29.8090  -18.5834   20.3434 C   0  0  0  0  0  0  0  0  0  0  0  0
  -24.0130  -13.9165   18.7893 C   0  0  0  0  0  0  0  0  0  0  0  0
  -27.4669  -32.4931   25.5074 C   0  0  0  0  0  0  0  0  0  0  0  0
  -25.3875  -29.0101   20.2427 C   0  0  0  0  0  0  0  0  0  0  0  0
  -27.2525  -31.2696   24.8446 C   0  0  0  0  0  0  0  0  0  0  0  0
  -24.6886  -27.8013   20.3707 C   0  0  0  0  0  0  0  0  0  0  0  0
  -30.3090  -19.6841   19.6476 C   0  0  0  0  0  0  0  0  0  0  0  0
  -28.2791  -20.9056   20.1213 C   0  0  0  0  0  0  0  0  0  0  0  0
  -21.9428  -10.7036   15.2585 C   0  0  0  0  0  0  0  0  0  0  0  0
  -26.5153  -26.6419   19.2620 C   0  0  0  0  0  0  0  0  0  0  0  0
  -21.1790   -8.6460   14.4189 C   0  0  0  0  0  0  0  0  0  0  0  0
  -21.2136   -5.8581   14.5162 C   0  0  0  0  0  0  0  0  0  0  0  0
  -28.5441  -18.6438   20.9281 C   0  0  0  0  0  0  0  0  0  0  0  0
  -22.3732   -7.9557   14.2114 C   0  0  0  0  0  0  0  0  0  0  0  0
  -24.3742  -12.7969   18.0162 C   0  0  0  0  0  0  0  0  0  0  0  0
  -25.1423  -14.2132   19.5125 C   0  0  0  0  0  0  0  0  0  0  0  0
  -30.6059  -17.3367   20.4754 C   0  0  0  0  0  0  0  0  0  0  0  0
  -22.7679  -14.6250   18.8486 C   0  0  0  0  0  0  0  0  0  0  0  0
  -24.3444  -29.7391   23.1554 C   0  0  0  0  0  0  0  0  0  0  0  0
  -21.4362  -29.1895   21.8277 C   0  0  0  0  0  0  0  0  0  0  0  0
  -27.8431  -23.2635   19.3568 C   0  0  0  0  0  0  0  0  0  0  0  0
  -19.6076  -27.6503   19.3917 C   0  0  0  0  0  0  0  0  0  0  0  0
  -30.6218  -14.9250   19.9211 C   0  0  0  0  0  0  0  0  0  0  0  0
  -26.4054  -33.1221   26.3749 C   0  0  0  0  0  0  0  0  0  0  0  0
  -24.7824  -30.2958   20.7358 C   0  0  0  0  0  0  0  0  0  0  0  0
  -23.3352  -27.7336   21.0280 C   0  0  0  0  0  0  0  0  0  0  0  0
  -25.0042  -32.5744   26.1164 C   0  0  0  0  0  0  0  0  0  0  0  0
  -29.4366  -11.6016   20.1395 C   0  0  0  0  0  0  0  0  0  0  0  0
  -25.0300  -31.0506   26.0523 C   0  0  0  0  0  0  0  0  0  0  0  0
  -27.9805  -11.7064   19.6780 C   0  0  0  0  0  0  0  0  0  0  0  0
  -30.3526  -12.5294   19.3427 C   0  0  0  0  0  0  0  0  0  0  0  0
  -28.4741  -14.0345   18.8292 C   0  0  0  0  0  0  0  0  0  0  0  0
  -25.9160  -30.5618   24.9001 C   0  0  1  0  0  0  0  0  0  0  0  0
  -23.7360  -30.0842   21.8256 C   0  0  1  0  0  0  0  0  0  0  0  0
  -27.5006  -13.1715   19.6481 C   0  0  1  0  0  0  0  0  0  0  0  0
  -31.6603  -19.6465   19.0113 C   0  0  0  0  0  0  0  0  0  0  0  0
  -17.2486  -27.3583   18.5873 C   0  0  0  0  0  0  0  0  0  0  0  0
  -20.9020  -27.2370   24.1108 C   0  0  0  0  0  0  0  0  0  0  0  0
  -19.0062  -26.2983   22.7717 C   0  0  0  0  0  0  0  0  0  0  0  0
  -18.9562  -28.6840   23.4988 C   0  0  0  0  0  0  0  0  0  0  0  0
  -20.2243  -28.8857   16.7740 C   0  0  0  0  0  0  0  0  0  0  0  0
  -26.7251  -24.2826   19.4751 C   0  0  0  0  0  0  0  0  0  1  0  0
  -20.5470  -27.9806   21.6639 C   0  0  1  0  0  0  0  0  0  0  0  0
  -18.5271  -28.1722   18.4619 C   0  0  2  0  0  0  0  0  0  0  0  0
  -19.8792  -27.5506   23.0006 C   0  0  0  0  0  0  0  0  0  0  0  0
  -25.6345  -12.4087   18.2282 N   0  0  0  0  0  0  0  0  0  0  0  0
  -26.0751  -13.2894   19.1427 N   0  0  0  0  0  0  0  0  0  0  0  0
  -22.7883  -29.0166   21.4996 N   0  0  0  0  0  0  0  0  0  0  0  0
  -29.8343  -13.8982   19.3716 N   0  0  0  0  0  0  0  0  0  0  0  0
  -25.4186  -15.1715   20.4222 N   0  0  0  0  0  0  0  0  0  0  0  0
  -21.7108  -14.1870   18.0392 N   0  0  0  0  0  0  0  0  0  0  0  0
  -27.5027  -22.0834   20.0092 N   0  0  0  0  0  0  0  0  0  0  0  0
  -30.0206  -16.1884   19.9411 N   0  0  0  0  0  0  0  0  0  0  0  0
  -25.2209  -30.6924   23.6375 N   0  0  0  0  0  0  0  0  0  0  0  0
  -19.6017  -28.3099   20.6026 N   0  0  0  0  0  0  0  0  0  0  0  0
  -18.9874  -28.1092   17.0459 N   0  3  0  0  0  0  0  0  0  0  0  0
  -31.7174  -17.3895   20.9946 O   0  0  0  0  0  0  0  0  0  0  0  0
  -22.6029  -15.6270   19.5849 O   0  0  0  0  0  0  0  0  0  0  0  0
  -24.0400  -28.6866   23.7042 O   0  0  0  0  0  0  0  0  0  0  0  0
  -20.9477  -30.2502   22.2251 O   0  0  0  0  0  0  0  0  0  0  0  0
  -28.8804  -23.5149   18.7524 O   0  0  0  0  0  0  0  0  0  0  0  0
  -20.3773  -26.7454   19.0769 O   0  0  0  0  0  0  0  0  0  0  0  0
  -31.7477  -14.7272   20.3886 O   0  0  0  0  0  0  0  0  0  0  0  0
  -21.1603  -10.0298   14.3718 O   0  0  0  0  0  0  0  0  0  0  0  0
  -27.0623  -25.4885   18.7906 O   0  0  0  0  0  0  0  0  0  1  0  0
  -21.2304   -4.5197   14.5644 F   0  0  0  0  0  0  0  0  0  0  0  0
  -28.0525  -17.5927   21.5998 F   0  0  0  0  0  0  0  0  0  0  0  0
  -23.5072   -8.6262   13.9661 F   0  0  0  0  0  0  0  0  0  0  0  0
  1  2  1  0  0  0  0
  1  5  2  0  0  0  0
  2  6  2  0  0  0  0
  3  8  2  0  0  0  0
  3 17  1  0  0  0  0
  4  9  1  0  0  0  0
  4 17  2  0  0  0  0
  5 20  1  0  0  0  0
  6 22  1  0  0  0  0
  7 10  2  0  0  0  0
  7 21  1  0  0  0  0
  8 26  1  0  0  0  0
  9 26  2  0  0  0  0
 10 27  1  0  0  0  0
 11 12  2  0  0  0  0
 11 28  1  0  0  0  0
 12 29  1  0  0  0  0
 13 23  1  0  0  0  0
 13 27  2  0  0  0  0
 14 24  2  0  0  0  0
 14 25  1  0  0  0  0
 15 25  2  0  0  0  0
 15 30  1  0  0  0  0
 16 29  2  0  0  0  0
 16 31  1  0  0  0  0
 17 32  1  0  0  0  0
 18 24  1  0  0  0  0
 18 30  2  0  0  0  0
 18 34  1  0  0  0  0
 19 32  1  0  0  0  0
 19 33  2  0  0  0  0
 19 35  1  0  0  0  0
 20 22  2  0  0  0  0
 20 41  1  0  0  0  0
 21 23  2  0  0  0  0
 21 42  1  0  0  0  0
 22 50  1  0  0  0  0
 23 43  1  0  0  0  0
 24 53  1  0  0  0  0
 25 69  1  0  0  0  0
 26 81  1  0  0  0  0
 27 82  1  0  0  0  0
 28 31  2  0  0  0  0
 28 81  1  0  0  0  0
 29 83  1  0  0  0  0
 30 84  1  0  0  0  0
 31 85  1  0  0  0  0
 32 63  2  0  0  0  0
 33 64  1  0  0  0  0
 33 67  1  0  0  0  0
 34 70  1  0  0  0  0
 34 74  2  0  0  0  0
 35 68  1  0  0  0  0
 35 75  2  0  0  0  0
 36 51  1  0  0  0  0
 36 71  1  0  0  0  0
 36 76  2  0  0  0  0
 37 60  1  0  0  0  0
 37 65  1  0  0  0  0
 37 77  2  0  0  0  0
 38 59  1  0  0  0  0
 38 69  1  0  0  0  0
 38 78  2  0  0  0  0
 39 61  1  0  0  0  0
 39 72  1  0  0  0  0
 39 79  2  0  0  0  0
 40 66  1  0  0  0  0
 40 70  1  0  0  0  0
 40 80  2  0  0  0  0
 41 44  1  0  0  0  0
 42 51  1  0  0  0  0
 43 65  1  0  0  0  0
 44 46  1  0  0  0  0
 45 47  1  0  0  0  0
 45 48  1  0  0  0  0
 46 50  1  0  0  0  0
 47 52  1  0  0  0  0
 48 66  1  0  0  0  0
 49 52  1  0  0  0  0
 49 66  1  0  0  0  0
 50 71  1  0  0  0  0
 51 65  1  0  0  0  0
 52 64  1  0  0  0  0
 54 61  1  0  0  0  0
 55 62  1  0  0  0  0
 56 62  1  0  0  0  0
 57 62  1  0  0  0  0
 58 73  1  0  0  0  0
 59 82  1  0  0  0  0
 60 62  1  0  0  0  0
 60 72  1  0  0  0  0
 61 73  1  0  0  0  0
 63 64  1  0  0  0  0
M  CHG  1  73   1
M  ISO  4  40 100  59 101  70 100  82 101
M  END
> <Batch ID>
0095

> <Smiles>
CNC(C)C(=O)NC(C(=O)N1Cc2cc([101O:1][101CH2:1]C(=O)Nc3cc(C)c(C(=O)[100NH:0][100C:0](=O)N4CCCC(n5nc(-c6ccc(Oc7ccc(F)cc7F)cc6)c(C(N)=O)c5N)C4)c(F)c3)ccc2CC1C(=O)NC1CCCc2ccccc21)C(C)(C)C

> <Shape>
0.281

> <Color>
0.124

> <Negative vol penalty>
0.000

$$$$

  -OEChem-04052300433D

 83 91  0     1  0  0  0  0  0999 V2000
  -27.9816  -31.3609   27.0445 C   0  0  0  0  0  0  0  0  0  0  0  0
  -28.2341  -30.0074   26.8456 C   0  0  0  0  0  0  0  0  0  0  0  0
  -23.2061   -9.8372   19.9765 C   0  0  0  0  0  0  0  0  0  0  0  0
  -23.9039   -9.9532   22.2866 C   0  0  0  0  0  0  0  0  0  0  0  0
  -27.3466  -32.1039   26.0501 C   0  0  0  0  0  0  0  0  0  0  0  0
  -27.8506  -29.3957   25.6526 C   0  0  0  0  0  0  0  0  0  0  0  0
  -30.7843  -24.8937   22.7147 C   0  0  0  0  0  0  0  0  0  0  0  0
  -22.5129   -8.6570   20.2451 C   0  0  0  0  0  0  0  0  0  0  0  0
  -23.2107   -8.7730   22.5553 C   0  0  0  0  0  0  0  0  0  0  0  0
  -30.5910  -23.5134   22.6816 C   0  0  0  0  0  0  0  0  0  0  0  0
  -20.0105   -7.8354   23.1030 C   0  0  0  0  0  0  0  0  0  0  0  0
  -19.2258   -7.7945   24.2554 C   0  0  0  0  0  0  0  0  0  0  0  0
  -29.9775  -18.9462   22.6312 C   0  0  0  0  0  0  0  0  0  0  0  0
  -29.3019  -23.7485   20.6563 C   0  0  0  0  0  0  0  0  0  0  0  0
  -20.5402   -5.9448   25.0849 C   0  0  0  0  0  0  0  0  0  0  0  0
  -23.9016  -10.4853   20.9972 C   0  0  0  0  0  0  0  0  0  0  0  0
  -30.0871  -17.6036   22.9931 C   0  0  0  0  0  0  0  0  0  0  0  0
  -24.1231  -13.0193   20.8040 C   0  0  0  0  0  0  0  0  0  0  0  0
  -26.9638  -31.5032   24.8405 C   0  0  0  0  0  0  0  0  0  0  0  0
  -30.2277  -25.7143   21.7232 C   0  0  0  0  0  0  0  0  0  0  0  0
  -27.2086  -30.1310   24.6417 C   0  0  0  0  0  0  0  0  0  0  0  0
  -29.4917  -25.1387   20.6777 C   0  0  0  0  0  0  0  0  0  0  0  0
  -31.2114  -16.8692   22.6161 C   0  0  0  0  0  0  0  0  0  0  0  0
  -30.9922  -19.5544   21.8921 C   0  0  0  0  0  0  0  0  0  0  0  0
  -32.1165  -18.8200   21.5151 C   0  0  0  0  0  0  0  0  0  0  0  0
  -22.5152   -8.1249   21.5345 C   0  0  0  0  0  0  0  0  0  0  0  0
  -29.8473  -22.9409   21.6539 C   0  0  0  0  0  0  0  0  0  0  0  0
  -21.0601   -6.9310   22.9414 C   0  0  0  0  0  0  0  0  0  0  0  0
  -19.4906   -6.8493   25.2464 C   0  0  0  0  0  0  0  0  0  0  0  0
  -21.3249   -5.9857   23.9324 C   0  0  0  0  0  0  0  0  0  0  0  0
  -32.2261  -17.4774   21.8771 C   0  0  0  0  0  0  0  0  0  0  0  0
  -24.6183  -11.7042   20.7202 C   0  0  0  0  0  0  0  0  0  0  0  0
  -25.1867  -13.8103   20.4438 C   0  0  0  0  0  0  0  0  0  0  0  0
  -27.7652  -16.8868   23.3253 C   0  0  0  0  0  0  0  0  0  0  0  0
  -29.0100  -16.9967   23.7643 C   0  0  0  0  0  0  0  0  0  0  0  0
  -22.8184  -13.4844   21.1743 C   0  0  0  0  0  0  0  0  0  0  0  0
  -28.1074  -28.0823   21.7009 C   0  0  0  0  0  0  0  0  0  0  0  0
  -28.9523  -28.2883   18.5759 C   0  0  0  0  0  0  0  0  0  0  0  0
  -30.2380  -26.7488   15.8147 C   0  0  0  0  0  0  0  0  0  0  0  0
  -30.9474  -14.0597   20.9590 C   0  0  0  0  0  0  0  0  0  0  0  0
  -26.2376  -32.3363   23.8142 C   0  0  0  0  0  0  0  0  0  0  0  0
  -30.4679  -27.1987   21.7585 C   0  0  0  0  0  0  0  0  0  0  0  0
  -28.8902  -25.9737   19.5779 C   0  0  0  0  0  0  0  0  0  0  0  0
  -26.1998  -31.6982   22.4279 C   0  0  0  0  0  0  0  0  0  0  0  0
  -29.3741  -13.0804   17.9189 C   0  0  0  0  0  0  0  0  0  0  0  0
  -25.8062  -30.2278   22.5276 C   0  0  0  0  0  0  0  0  0  0  0  0
  -27.9413  -12.7479   18.3392 C   0  0  0  0  0  0  0  0  0  0  0  0
  -30.3852  -12.6698   18.9871 C   0  0  0  0  0  0  0  0  0  0  0  0
  -28.6802  -12.8704   20.7553 C   0  0  0  0  0  0  0  0  0  0  0  0
  -26.8300  -29.4372   23.3512 C   0  0  1  0  0  0  0  0  0  0  0  0
  -29.4227  -27.9918   20.9801 C   0  0  1  0  0  0  0  0  0  0  0  0
  -27.6198  -13.3168   19.7342 C   0  0  2  0  0  0  0  0  0  0  0  0
  -30.7694  -27.1617   13.3972 C   0  0  0  0  0  0  0  0  0  0  0  0
  -25.9874  -28.0695   17.8893 C   0  0  0  0  0  0  0  0  0  0  0  0
  -26.6438  -27.5342   15.5333 C   0  0  0  0  0  0  0  0  0  0  0  0
  -27.2535  -29.7402   16.5254 C   0  0  0  0  0  0  0  0  0  0  0  0
  -33.1192  -26.2214   16.2380 C   0  0  0  0  0  0  0  0  0  0  0  0
  -31.3582  -15.4284   22.9881 C   0  0  0  0  0  0  0  0  0  0  0  0
  -28.4656  -27.6585   17.2931 C   0  0  1  0  0  0  0  0  0  0  0  0
  -31.3007  -27.1840   14.8219 C   0  0  2  0  0  0  0  0  0  0  0  0
  -27.0971  -28.2348   16.8319 C   0  0  0  0  0  0  0  0  0  0  0  0
  -25.8969  -11.6582   20.3368 N   0  0  0  0  0  0  0  0  0  0  0  0
  -26.2141  -12.9542   20.1763 N   0  0  0  0  0  0  0  0  0  0  0  0
  -29.1476  -27.4209   19.6600 N   0  0  0  0  0  0  0  0  0  0  0  0
  -30.0238  -13.2433   20.2857 N   0  0  0  0  0  0  0  0  0  0  0  0
  -33.1546  -19.4191   20.7666 N   0  0  0  0  0  0  0  0  0  0  0  0
  -25.3338  -15.1476   20.3330 N   0  0  0  0  0  0  0  0  0  0  0  0
  -21.8434  -12.5372   21.5156 N   0  0  0  0  0  0  0  0  0  0  0  0
  -30.8627  -20.9039   21.5390 N   0  0  0  0  0  0  0  0  0  1  0  0
  -28.0097  -29.1603   22.5599 N   0  0  0  0  0  0  0  0  0  0  0  0
  -29.5419  -27.8254   16.3224 N   0  0  0  0  0  0  0  0  0  0  0  0
  -30.5227  -14.5677   22.1806 N   0  0  0  0  0  0  0  0  0  0  0  0
  -32.4818  -26.2784   14.8973 N   0  3  0  0  0  0  0  0  0  0  0  0
  -22.5210  -14.7030   21.1859 O   0  0  0  0  0  0  0  0  0  0  0  0
  -27.2446  -27.2376   21.4921 O   0  0  0  0  0  0  0  0  0  0  0  0
  -29.1585  -29.5039   18.6125 O   0  0  0  0  0  0  0  0  0  0  0  0
  -30.0422  -25.5713   16.1075 O   0  0  0  0  0  0  0  0  0  0  0  0
  -32.0656  -14.3211   20.5026 O   0  0  0  0  0  0  0  0  0  0  0  0
  -21.8387   -6.9734   21.7971 O   0  0  0  0  0  0  0  0  0  0  0  0
  -29.6565  -21.5939   21.6196 O   0  0  0  0  0  0  0  0  0  1  0  0
  -18.7379   -6.8111   26.3537 F   0  0  0  0  0  0  0  0  0  0  0  0
  -22.3326   -5.1150   23.7833 F   0  0  0  0  0  0  0  0  0  0  0  0
  -33.3074  -16.7701   21.5153 F   0  0  0  0  0  0  0  0  0  0  0  0
  1  2  1  0  0  0  0
  1  5  2  0  0  0  0
  2  6  2  0  0  0  0
  3  8  2  0  0  0  0
  3 16  1  0  0  0  0
  4  9  1  0  0  0  0
  4 16  2  0  0  0  0
  5 19  1  0  0  0  0
  6 21  1  0  0  0  0
  7 10  2  0  0  0  0
  7 20  1  0  0  0  0
  8 26  1  0  0  0  0
  9 26  2  0  0  0  0
 10 27  1  0  0  0  0
 11 12  2  0  0  0  0
 11 28  1  0  0  0  0
 12 29  1  0  0  0  0
 13 17  1  0  0  0  0
 13 24  2  0  0  0  0
 14 22  1  0  0  0  0
 14 27  2  0  0  0  0
 15 29  2  0  0  0  0
 15 30  1  0  0  0  0
 16 32  1  0  0  0  0
 17 23  2  0  0  0  0
 17 35  1  0  0  0  0
 18 32  1  0  0  0  0
 18 33  2  0  0  0  0
 18 36  1  0  0  0  0
 19 21  2  0  0  0  0
 19 41  1  0  0  0  0
 20 22  2  0  0  0  0
 20 42  1  0  0  0  0
 21 50  1  0  0  0  0
 22 43  1  0  0  0  0
 23 31  1  0  0  0  0
 23 58  1  0  0  0  0
 24 25  1  0  0  0  0
 24 69  1  0  0  0  0
 25 31  2  0  0  0  0
 25 66  1  0  0  0  0
 26 79  1  0  0  0  0
 27 80  1  0  0  0  0
 28 30  2  0  0  0  0
 28 79  1  0  0  0  0
 29 81  1  0  0  0  0
 30 82  1  0  0  0  0
 31 83  1  0  0  0  0
 32 62  2  0  0  0  0
 33 63  1  0  0  0  0
 33 67  1  0  0  0  0
 34 35  2  0  0  0  0
 36 68  1  0  0  0  0
 36 74  2  0  0  0  0
 37 51  1  0  0  0  0
 37 70  1  0  0  0  0
 37 75  2  0  0  0  0
 38 59  1  0  0  0  0
 38 64  1  0  0  0  0
 38 76  2  0  0  0  0
 39 60  1  0  0  0  0
 39 71  1  0  0  0  0
 39 77  2  0  0  0  0
 40 65  1  0  0  0  0
 40 72  1  0  0  0  0
 40 78  2  0  0  0  0
 41 44  1  0  0  0  0
 42 51  1  0  0  0  0
 43 64  1  0  0  0  0
 44 46  1  0  0  0  0
 45 47  1  0  0  0  0
 45 48  1  0  0  0  0
 46 50  1  0  0  0  0
 47 52  1  0  0  0  0
 48 65  1  0  0  0  0
 49 52  1  0  0  0  0
 49 65  1  0  0  0  0
 50 70  1  0  0  0  0
 51 64  1  0  0  0  0
 52 63  1  0  0  0  0
 53 60  1  0  0  0  0
 54 61  1  0  0  0  0
 55 61  1  0  0  0  0
 56 61  1  0  0  0  0
 57 73  1  0  0  0  0
 58 72  1  0  0  0  0
 59 61  1  0  0  0  0
 59 71  1  0  0  0  0
 60 73  1  0  0  0  0
 62 63  1  0  0  0  0
 69 80  1  0  0  0  0
M  CHG  1  73   1
M  ISO  4  40 100  69 101  72 100  80 101
M  END
> <Batch ID>
0095

> <Smiles>
C=Cc1cc([101NH:1][101O:1]c2ccc3c(c2)CN(C(=O)C(NC(=O)C(C)NC)C(C)(C)C)C(C(=O)NC2CCCc4ccccc42)C3)c(N)c(F)c1C[100NH:0][100C:0](=O)N1CCCC(n2nc(-c3ccc(Oc4ccc(F)cc4F)cc3)c(C(N)=O)c2N)C1

> <Shape>
0.303

> <Color>
0.181

> <Negative vol penalty>
0.000

$$$$

  -OEChem-04052300433D

 86 95  0     1  0  0  0  0  0999 V2000
  -23.4865  -35.5276   15.5853 C   0  0  0  0  0  0  0  0  0  0  0  0
  -23.8987  -34.1989   15.5983 C   0  0  0  0  0  0  0  0  0  0  0  0
  -23.8187   -8.8113   20.1326 C   0  0  0  0  0  0  0  0  0  0  0  0
  -22.9789  -10.6254   21.4893 C   0  0  0  0  0  0  0  0  0  0  0  0
  -23.7856  -36.3596   16.6634 C   0  0  0  0  0  0  0  0  0  0  0  0
  -24.6111  -33.7018   16.6891 C   0  0  0  0  0  0  0  0  0  0  0  0
  -24.3043  -28.0460   19.0179 C   0  0  0  0  0  0  0  0  0  0  0  0
  -30.1663  -19.8348   20.6359 C   0  0  0  0  0  0  0  0  0  0  0  0
  -30.1245  -18.4409   20.6094 C   0  0  0  0  0  0  0  0  0  0  0  0
  -22.9193   -7.9378   20.7438 C   0  0  0  0  0  0  0  0  0  0  0  0
  -22.0794   -9.7519   22.1005 C   0  0  0  0  0  0  0  0  0  0  0  0
  -25.1106  -26.9201   18.8564 C   0  0  0  0  0  0  0  0  0  0  0  0
  -22.6837   -6.2434   23.6589 C   0  0  0  0  0  0  0  0  0  0  0  0
  -23.1649   -4.9991   24.0661 C   0  0  0  0  0  0  0  0  0  0  0  0
  -26.3014  -27.4906   20.8752 C   0  0  0  0  0  0  0  0  0  0  0  0
  -29.9896  -24.0604   19.7103 C   0  0  0  0  0  0  0  0  0  0  0  0
  -28.2481  -19.9203   19.1695 C   0  0  0  0  0  0  0  0  0  0  0  0
  -21.5743   -3.9079   22.6113 C   0  0  0  0  0  0  0  0  0  0  0  0
  -23.8485  -10.1551   20.5054 C   0  0  0  0  0  0  0  0  0  0  0  0
  -24.5626  -11.8259   18.7149 C   0  0  0  0  0  0  0  0  0  0  0  0
  -24.4936  -35.8698   17.7722 C   0  0  0  0  0  0  0  0  0  0  0  0
  -24.4981  -28.9101   20.1052 C   0  0  0  0  0  0  0  0  0  0  0  0
  -24.9210  -34.5284   17.7824 C   0  0  0  0  0  0  0  0  0  0  0  0
  -25.4946  -28.6254   21.0496 C   0  0  0  0  0  0  0  0  0  0  0  0
  -28.6820  -24.0911   20.2546 C   0  0  0  0  0  0  0  0  0  0  0  0
  -29.2280  -20.5745   19.9160 C   0  0  0  0  0  0  0  0  0  0  0  0
  -29.1446  -17.7866   19.8629 C   0  0  0  0  0  0  0  0  0  0  0  0
  -28.2063  -18.5263   19.1429 C   0  0  0  0  0  0  0  0  0  0  0  0
  -22.0496   -8.4081   21.7278 C   0  0  0  0  0  0  0  0  0  0  0  0
  -26.1112  -26.6438   19.7835 C   0  0  0  0  0  0  0  0  0  0  0  0
  -21.6477   -6.3200   22.7280 C   0  0  0  0  0  0  0  0  0  0  0  0
  -22.6102   -3.8314   23.5423 C   0  0  0  0  0  0  0  0  0  0  0  0
  -21.0930   -5.1522   22.2042 C   0  0  0  0  0  0  0  0  0  0  0  0
  -24.7778  -11.0578   19.8748 C   0  0  0  0  0  0  0  0  0  0  0  0
  -28.2613  -22.7863   20.3881 C   0  0  0  0  0  0  0  0  0  0  0  0
  -25.7402  -12.5089   18.5320 C   0  0  0  0  0  0  0  0  0  0  0  0
  -30.3281  -22.7377   19.5276 C   0  0  0  0  0  0  0  0  0  0  0  0
  -23.4021  -11.9142   17.8776 C   0  0  0  0  0  0  0  0  0  0  0  0
  -25.2921  -31.9714   20.4238 C   0  0  0  0  0  0  0  0  0  0  0  0
  -24.6922  -31.3975   23.5596 C   0  0  0  0  0  0  0  0  0  0  0  0
  -24.4734  -29.1287   26.0996 C   0  0  0  0  0  0  0  0  0  0  0  0
  -29.9916  -15.5063   20.5181 C   0  0  0  0  0  0  0  0  0  0  0  0
  -24.8345  -36.8196   18.8931 C   0  0  0  0  0  0  0  0  0  0  0  0
  -23.6025  -30.1058   20.2798 C   0  0  0  0  0  0  0  0  0  0  0  0
  -25.7300  -29.5104   22.2454 C   0  0  0  0  0  0  0  0  0  0  0  0
  -25.2679  -36.1163   20.1768 C   0  0  0  0  0  0  0  0  0  0  0  0
  -30.2463  -11.9640   20.7724 C   0  0  0  0  0  0  0  0  0  0  0  0
  -26.2825  -35.0198   19.8683 C   0  0  0  0  0  0  0  0  0  0  0  0
  -28.8286  -11.4757   20.4661 C   0  0  0  0  0  0  0  0  0  0  0  0
  -30.2375  -13.2678   21.5686 C   0  0  0  0  0  0  0  0  0  0  0  0
  -28.0204  -13.8613   20.6732 C   0  0  0  0  0  0  0  0  0  0  0  0
  -25.6743  -33.9456   18.9585 C   0  0  1  0  0  0  0  0  0  0  0  0
  -24.2250  -31.1974   21.1448 C   0  0  1  0  0  0  0  0  0  0  0  0
  -27.9784  -12.5852   19.8167 C   0  0  2  0  0  0  0  0  0  0  0  0
  -26.9793  -22.2555   20.9039 C   0  0  0  0  0  0  0  0  0  0  0  0
  -24.0013  -28.9641   28.5587 C   0  0  0  0  0  0  0  0  0  0  0  0
  -27.4710  -32.5031   24.1646 C   0  0  0  0  0  0  0  0  0  0  0  0
  -27.3178  -31.4550   26.4332 C   0  0  0  0  0  0  0  0  0  0  0  0
  -25.6902  -33.2237   25.7658 C   0  0  0  0  0  0  0  0  0  0  0  0
  -22.1311  -27.3764   25.6506 C   0  0  0  0  0  0  0  0  0  0  0  0
  -27.9057  -25.3234   20.6154 C   0  0  0  0  0  0  0  0  0  1  0  0
  -25.5112  -30.9220   24.7352 C   0  0  1  0  0  0  0  0  0  0  0  0
  -23.4100  -28.9021   27.1590 C   0  0  2  0  0  0  0  0  0  0  0  0
  -26.4946  -32.0101   25.2512 C   0  0  0  0  0  0  0  0  0  0  0  0
  -25.9963  -11.2356   20.3923 N   0  0  0  0  0  0  0  0  0  0  0  0
  -29.2699  -21.9723   19.9428 N   0  0  0  0  0  0  0  0  0  0  0  0
  -26.5574  -12.1232   19.5535 N   0  0  0  0  0  0  0  0  0  0  0  0
  -24.8325  -30.6709   22.3687 N   0  0  0  0  0  0  0  0  0  0  0  0
  -29.4160  -14.2732   20.8910 N   0  0  0  0  0  0  0  0  0  0  0  0
  -27.2050  -17.8836   18.3807 N   0  0  0  0  0  0  0  0  0  0  0  0
  -26.1459  -13.3958   17.5986 N   0  0  0  0  0  0  0  0  0  0  0  0
  -22.2786  -11.1449   18.2096 N   0  0  0  0  0  0  0  0  0  0  0  0
  -29.1230  -16.3698   19.8513 N   0  0  0  0  0  0  0  0  0  0  0  0
  -24.8180  -33.0628   19.7213 N   0  0  0  0  0  0  0  0  0  0  0  0
  -24.5571  -30.4560   25.7357 N   0  0  0  0  0  0  0  0  0  0  0  0
  -22.7734  -27.5670   26.9765 N   0  3  0  0  0  0  0  0  0  0  0  0
  -23.3683  -12.6410   16.8558 O   0  0  0  0  0  0  0  0  0  0  0  0
  -26.4594  -31.6063   20.5005 O   0  0  0  0  0  0  0  0  0  0  0  0
  -23.9497  -32.3732   23.6950 O   0  0  0  0  0  0  0  0  0  0  0  0
  -25.1636  -28.2198   25.6434 O   0  0  0  0  0  0  0  0  0  0  0  0
  -31.1757  -15.7655   20.7473 O   0  0  0  0  0  0  0  0  0  0  0  0
  -31.4394  -22.1917   19.0485 O   0  0  0  0  0  0  0  0  0  0  0  0
  -21.1716   -7.5560   22.3242 O   0  0  0  0  0  0  0  0  0  0  0  0
  -26.9000  -25.5458   19.6279 O   0  0  0  0  0  0  0  0  0  1  0  0
  -23.0735   -2.6366   23.9322 F   0  0  0  0  0  0  0  0  0  0  0  0
  -20.0984   -5.2195   21.3087 F   0  0  0  0  0  0  0  0  0  0  0  0
  1  2  1  0  0  0  0
  1  5  2  0  0  0  0
  2  6  2  0  0  0  0
  3 10  2  0  0  0  0
  3 19  1  0  0  0  0
  4 11  1  0  0  0  0
  4 19  2  0  0  0  0
  5 21  1  0  0  0  0
  6 23  1  0  0  0  0
  7 12  2  0  0  0  0
  7 22  1  0  0  0  0
  8  9  2  0  0  0  0
  8 26  1  0  0  0  0
  9 27  1  0  0  0  0
 10 29  1  0  0  0  0
 11 29  2  0  0  0  0
 12 30  1  0  0  0  0
 13 14  2  0  0  0  0
 13 31  1  0  0  0  0
 14 32  1  0  0  0  0
 15 24  1  0  0  0  0
 15 30  2  0  0  0  0
 16 25  1  0  0  0  0
 16 37  2  0  0  0  0
 17 26  2  0  0  0  0
 17 28  1  0  0  0  0
 18 32  2  0  0  0  0
 18 33  1  0  0  0  0
 19 34  1  0  0  0  0
 20 34  1  0  0  0  0
 20 36  2  0  0  0  0
 20 38  1  0  0  0  0
 21 23  2  0  0  0  0
 21 43  1  0  0  0  0
 22 24  2  0  0  0  0
 22 44  1  0  0  0  0
 23 52  1  0  0  0  0
 24 45  1  0  0  0  0
 25 35  2  0  0  0  0
 25 61  1  0  0  0  0
 26 66  1  0  0  0  0
 27 28  2  0  0  0  0
 27 73  1  0  0  0  0
 28 70  1  0  0  0  0
 29 83  1  0  0  0  0
 30 84  1  0  0  0  0
 31 33  2  0  0  0  0
 31 83  1  0  0  0  0
 32 85  1  0  0  0  0
 33 86  1  0  0  0  0
 34 65  2  0  0  0  0
 35 55  1  0  0  0  0
 35 66  1  0  0  0  0
 36 67  1  0  0  0  0
 36 71  1  0  0  0  0
 37 66  1  0  0  0  0
 37 82  1  0  0  0  0
 38 72  1  0  0  0  0
 38 77  2  0  0  0  0
 39 53  1  0  0  0  0
 39 74  1  0  0  0  0
 39 78  2  0  0  0  0
 40 62  1  0  0  0  0
 40 68  1  0  0  0  0
 40 79  2  0  0  0  0
 41 63  1  0  0  0  0
 41 75  1  0  0  0  0
 41 80  2  0  0  0  0
 42 69  1  0  0  0  0
 42 73  1  0  0  0  0
 42 81  2  0  0  0  0
 43 46  1  0  0  0  0
 44 53  1  0  0  0  0
 45 68  1  0  0  0  0
 46 48  1  0  0  0  0
 47 49  1  0  0  0  0
 47 50  1  0  0  0  0
 48 52  1  0  0  0  0
 49 54  1  0  0  0  0
 50 69  1  0  0  0  0
 51 54  1  0  0  0  0
 51 69  1  0  0  0  0
 52 74  1  0  0  0  0
 53 68  1  0  0  0  0
 54 67  1  0  0  0  0
 56 63  1  0  0  0  0
 57 64  1  0  0  0  0
 58 64  1  0  0  0  0
 59 64  1  0  0  0  0
 60 76  1  0  0  0  0
 61 84  1  0  0  0  0
 62 64  1  0  0  0  0
 62 75  1  0  0  0  0
 63 76  1  0  0  0  0
 65 67  1  0  0  0  0
M  CHG  1  76   1
M  ISO  4  42 100  61 101  73 100  84 101
M  END
> <Batch ID>
0095

> <Smiles>
CNC(C)C(=O)NC(C(=O)N1Cc2cc([101O:1][101CH2:1]C3=C(C)N(c4ccc([100NH:0][100C:0](=O)N5CCCC(n6nc(-c7ccc(Oc8ccc(F)cc8F)cc7)c(C(N)=O)c6N)C5)c(N)c4)C(=O)C3)ccc2CC1C(=O)NC1CCCc2ccccc21)C(C)(C)C

> <Shape>
0.314

> <Color>
0.107

> <Negative vol penalty>
0.000

$$$$

  -OEChem-04052300433D

 84 92  0     1  0  0  0  0  0999 V2000
  -35.9360  -30.9339   21.1111 C   0  0  0  0  0  0  0  0  0  0  0  0
  -35.0565  -30.3631   20.1968 C   0  0  0  0  0  0  0  0  0  0  0  0
  -23.0563   -9.8829   19.9547 C   0  0  0  0  0  0  0  0  0  0  0  0
  -23.8694   -9.8728   22.2297 C   0  0  0  0  0  0  0  0  0  0  0  0
  -36.8054  -30.1232   21.8398 C   0  0  0  0  0  0  0  0  0  0  0  0
  -35.0465  -28.9814   20.0097 C   0  0  0  0  0  0  0  0  0  0  0  0
  -30.5932  -23.5903   18.4538 C   0  0  0  0  0  0  0  0  0  0  0  0
  -22.3174   -8.7285   20.2136 C   0  0  0  0  0  0  0  0  0  0  0  0
  -23.1305   -8.7184   22.4887 C   0  0  0  0  0  0  0  0  0  0  0  0
  -30.4642  -22.5213   17.5682 C   0  0  0  0  0  0  0  0  0  0  0  0
  -21.1748   -5.9731   23.8514 C   0  0  0  0  0  0  0  0  0  0  0  0
  -20.4460   -5.9216   25.0395 C   0  0  0  0  0  0  0  0  0  0  0  0
  -28.8678  -17.6411   22.1011 C   0  0  0  0  0  0  0  0  0  0  0  0
  -29.2609  -16.9973   19.8060 C   0  0  0  0  0  0  0  0  0  0  0  0
  -31.9556  -21.2126   18.9401 C   0  0  0  0  0  0  0  0  0  0  0  0
  -19.1864   -7.8650   24.3512 C   0  0  0  0  0  0  0  0  0  0  0  0
  -23.8324  -10.4550   20.9628 C   0  0  0  0  0  0  0  0  0  0  0  0
  -29.4234  -16.7624   21.1713 C   0  0  0  0  0  0  0  0  0  0  0  0
  -24.1735  -12.9807   20.8530 C   0  0  0  0  0  0  0  0  0  0  0  0
  -36.7993  -28.7299   21.6686 C   0  0  0  0  0  0  0  0  0  0  0  0
  -31.4144  -23.4820   19.5854 C   0  0  0  0  0  0  0  0  0  0  0  0
  -35.9175  -28.1514   20.7358 C   0  0  0  0  0  0  0  0  0  0  0  0
  -32.0913  -22.2808   19.8399 C   0  0  0  0  0  0  0  0  0  0  0  0
  -28.1495  -18.7548   21.6657 C   0  0  0  0  0  0  0  0  0  0  0  0
  -27.9870  -18.9897   20.3004 C   0  0  0  0  0  0  0  0  0  0  0  0
  -22.3545   -8.1463   21.4806 C   0  0  0  0  0  0  0  0  0  0  0  0
  -31.1477  -21.3332   17.8097 C   0  0  0  0  0  0  0  0  0  0  0  0
  -20.9095   -6.9706   22.9131 C   0  0  0  0  0  0  0  0  0  0  0  0
  -28.5427  -18.1109   19.3705 C   0  0  0  0  0  0  0  0  0  0  0  0
  -19.4518   -6.8675   25.2894 C   0  0  0  0  0  0  0  0  0  0  0  0
  -19.9153   -7.9165   23.1630 C   0  0  0  0  0  0  0  0  0  0  0  0
  -24.5963  -11.6472   20.6958 C   0  0  0  0  0  0  0  0  0  0  0  0
  -25.2576  -13.7320   20.4699 C   0  0  0  0  0  0  0  0  0  0  0  0
  -30.1704  -15.5996   21.6241 C   0  0  0  0  0  0  0  0  0  0  0  0
  -22.9136  -13.4944   21.3052 C   0  0  0  0  0  0  0  0  0  0  0  0
  -30.7726  -14.6477   20.6627 C   0  0  0  0  0  0  0  0  0  0  0  0
  -34.0175  -24.9844   20.6199 C   0  0  0  0  0  0  0  0  0  0  0  0
  -33.5379  -23.1714   23.2666 C   0  0  0  0  0  0  0  0  0  0  0  0
  -32.1938  -20.3526   24.6430 C   0  0  0  0  0  0  0  0  0  0  0  0
  -37.7904  -27.8989   22.4445 C   0  0  0  0  0  0  0  0  0  0  0  0
  -31.5218  -24.6351   20.5452 C   0  0  0  0  0  0  0  0  0  0  0  0
  -32.9694  -22.1066   21.0512 C   0  0  0  0  0  0  0  0  0  0  0  0
  -37.4563  -26.4094   22.4599 C   0  0  0  0  0  0  0  0  0  0  0  0
  -29.5422  -12.4061   18.1492 C   0  0  0  0  0  0  0  0  0  0  0  0
  -37.0999  -25.9277   21.0571 C   0  0  0  0  0  0  0  0  0  0  0  0
  -28.1242  -12.0884   18.6229 C   0  0  0  0  0  0  0  0  0  0  0  0
  -30.4940  -12.5976   19.3255 C   0  0  0  0  0  0  0  0  0  0  0  0
  -28.6217  -13.3208   20.7815 C   0  0  0  0  0  0  0  0  0  0  0  0
  -35.8596  -26.6542   20.5229 C   0  0  1  0  0  0  0  0  0  0  0  0
  -32.7900  -24.5914   21.3921 C   0  0  1  0  0  0  0  0  0  0  0  0
  -27.6255  -13.1479   19.6217 C   0  0  2  0  0  0  0  0  0  0  0  0
  -31.5189  -18.7301   26.4345 C   0  0  0  0  0  0  0  0  0  0  0  0
  -36.4225  -22.2181   22.9835 C   0  0  0  0  0  0  0  0  0  0  0  0
  -35.8823  -20.3406   24.5492 C   0  0  0  0  0  0  0  0  0  0  0  0
  -35.7098  -22.7032   25.3311 C   0  0  0  0  0  0  0  0  0  0  0  0
  -29.6087  -21.7269   25.0757 C   0  0  0  0  0  0  0  0  0  0  0  0
  -29.5135  -18.7077   15.9263 C   0  0  0  0  0  0  0  0  0  0  0  0
  -29.7878  -20.1692   16.2439 C   0  0  0  0  0  0  0  0  0  1  0  0
  -29.4424  -17.8558   17.1839 C   0  0  0  0  0  0  0  0  0  0  0  0
  -33.9830  -21.8018   23.7194 C   0  0  1  0  0  0  0  0  0  0  0  0
  -31.3578  -20.1418   25.8924 C   0  0  2  0  0  0  0  0  0  0  0  0
  -35.4845  -21.7695   24.1219 C   0  0  0  0  0  0  0  0  0  0  0  0
  -25.8510  -11.5535   20.2475 N   0  0  0  0  0  0  0  0  0  0  0  0
  -30.3621  -15.3173   22.8845 N   0  0  0  0  0  0  0  0  0  0  0  0
  -26.2259  -12.8377   20.1197 N   0  0  0  0  0  0  0  0  0  0  0  0
  -29.9736  -13.5824   20.2716 N   0  0  0  0  0  0  0  0  0  0  0  0
  -33.0472  -23.2649   21.9566 N   0  0  0  0  0  0  0  0  0  0  0  0
  -27.5956  -19.6318   22.6252 N   0  0  0  0  0  0  0  0  0  0  0  0
  -27.2591  -20.1166   19.8510 N   0  0  0  0  0  0  0  0  0  0  0  0
  -25.4674  -15.0638   20.4016 N   0  0  0  0  0  0  0  0  0  0  0  0
  -21.9090  -12.5836   21.6593 N   0  0  0  0  0  0  0  0  0  0  0  0
  -34.6583  -26.1046   21.1139 N   0  0  0  0  0  0  0  0  0  0  0  0
  -33.0697  -21.4078   24.7866 N   0  0  0  0  0  0  0  0  0  0  0  0
  -29.9153  -20.3691   25.5948 N   0  3  0  0  0  0  0  0  0  0  0  0
  -22.6798  -14.7248   21.3769 O   0  0  0  0  0  0  0  0  0  0  0  0
  -31.9178  -14.9037   20.3142 O   0  0  0  0  0  0  0  0  0  0  0  0
  -34.3589  -24.3197   19.6486 O   0  0  0  0  0  0  0  0  0  0  0  0
  -33.6159  -24.1219   24.0490 O   0  0  0  0  0  0  0  0  0  0  0  0
  -32.0838  -19.6490   23.6413 O   0  0  0  0  0  0  0  0  0  0  0  0
  -21.6334   -7.0199   21.7336 O   0  0  0  0  0  0  0  0  0  0  0  0
  -31.0241  -20.2884   16.9466 O   0  0  0  0  0  0  0  0  0  1  0  0
  -28.3958  -18.3229   18.0243 O   0  0  0  0  0  0  0  0  0  0  0  0
  -18.7509   -6.8169   26.4298 F   0  0  0  0  0  0  0  0  0  0  0  0
  -19.6551   -8.8764   22.2649 F   0  0  0  0  0  0  0  0  0  0  0  0
  1  2  1  0  0  0  0
  1  5  2  0  0  0  0
  2  6  2  0  0  0  0
  3  8  2  0  0  0  0
  3 17  1  0  0  0  0
  4  9  1  0  0  0  0
  4 17  2  0  0  0  0
  5 20  1  0  0  0  0
  6 22  1  0  0  0  0
  7 10  2  0  0  0  0
  7 21  1  0  0  0  0
  8 26  1  0  0  0  0
  9 26  2  0  0  0  0
 10 27  1  0  0  0  0
 11 12  2  0  0  0  0
 11 28  1  0  0  0  0
 12 30  1  0  0  0  0
 13 18  1  0  0  0  0
 13 24  2  0  0  0  0
 14 18  2  0  0  0  0
 14 29  1  0  0  0  0
 15 23  1  0  0  0  0
 15 27  2  0  0  0  0
 16 30  2  0  0  0  0
 16 31  1  0  0  0  0
 17 32  1  0  0  0  0
 18 34  1  0  0  0  0
 19 32  1  0  0  0  0
 19 33  2  0  0  0  0
 19 35  1  0  0  0  0
 20 22  2  0  0  0  0
 20 40  1  0  0  0  0
 21 23  2  0  0  0  0
 21 41  1  0  0  0  0
 22 49  1  0  0  0  0
 23 42  1  0  0  0  0
 24 25  1  0  0  0  0
 24 68  1  0  0  0  0
 25 29  2  0  0  0  0
 25 69  1  0  0  0  0
 26 80  1  0  0  0  0
 27 81  1  0  0  0  0
 28 31  2  0  0  0  0
 28 80  1  0  0  0  0
 29 82  1  0  0  0  0
 30 83  1  0  0  0  0
 31 84  1  0  0  0  0
 32 63  2  0  0  0  0
 33 65  1  0  0  0  0
 33 70  1  0  0  0  0
 34 36  1  0  0  0  0
 34 64  2  0  0  0  0
 35 71  1  0  0  0  0
 35 75  2  0  0  0  0
 36 66  1  0  0  0  0
 36 76  2  0  0  0  0
 37 50  1  0  0  0  0
 37 72  1  0  0  0  0
 37 77  2  0  0  0  0
 38 60  1  0  0  0  0
 38 67  1  0  0  0  0
 38 78  2  0  0  0  0
 39 61  1  0  0  0  0
 39 73  1  0  0  0  0
 39 79  2  0  0  0  0
 40 43  1  0  0  0  0
 41 50  1  0  0  0  0
 42 67  1  0  0  0  0
 43 45  1  0  0  0  0
 44 46  1  0  0  0  0
 44 47  1  0  0  0  0
 45 49  1  0  0  0  0
 46 51  1  0  0  0  0
 47 66  1  0  0  0  0
 48 51  1  0  0  0  0
 48 66  1  0  0  0  0
 49 72  1  0  0  0  0
 50 67  1  0  0  0  0
 51 65  1  0  0  0  0
 52 61  1  0  0  0  0
 53 62  1  0  0  0  0
 54 62  1  0  0  0  0
 55 62  1  0  0  0  0
 56 74  1  0  0  0  0
 57 58  1  0  0  0  0
 57 59  1  0  0  0  0
 58 81  1  0  0  0  0
 59 82  1  0  0  0  0
 60 62  1  0  0  0  0
 60 73  1  0  0  0  0
 61 74  1  0  0  0  0
 63 65  1  0  0  0  0
M  CHG  1  74   1
M  ISO  4  34 100  36 100  58 101  81 101
M  END
> <Batch ID>
0095

> <Smiles>
CNC(C)C(=O)NC(C(=O)N1Cc2cc([101O:1][101CH2:1]CCOc3cc([100C:0](=N)[100C:0](=O)N4CCCC(n5nc(-c6ccc(Oc7ccc(F)cc7F)cc6)c(C(N)=O)c5N)C4)cc(N)c3N)ccc2CC1C(=O)NC1CCCc2ccccc21)C(C)(C)C

> <Shape>
0.216

> <Color>
0.175

> <Negative vol penalty>
0.000

$$$$

  -OEChem-04052300433D

 87 96  0     1  0  0  0  0  0999 V2000
  -13.1220  -18.5507   28.3163 C   0  0  0  0  0  0  0  0  0  0  0  0
  -14.1454  -17.9320   27.6055 C   0  0  0  0  0  0  0  0  0  0  0  0
  -22.6014  -10.3117   20.2413 C   0  0  0  0  0  0  0  0  0  0  0  0
  -24.2589   -9.4854   21.7927 C   0  0  0  0  0  0  0  0  0  0  0  0
  -29.0485  -17.4511   22.3911 C   0  0  0  0  0  0  0  0  0  0  0  0
  -12.9191  -19.9244   28.1906 C   0  0  0  0  0  0  0  0  0  0  0  0
  -14.9659  -18.6866   26.7676 C   0  0  0  0  0  0  0  0  0  0  0  0
  -21.7041  -18.9995   24.3563 C   0  0  0  0  0  0  0  0  0  0  0  0
  -28.3525  -18.6083   22.0417 C   0  0  0  0  0  0  0  0  0  0  0  0
  -21.8387   -9.1615   20.4435 C   0  0  0  0  0  0  0  0  0  0  0  0
  -23.4962   -8.3352   21.9949 C   0  0  0  0  0  0  0  0  0  0  0  0
  -22.4179  -19.0751   23.1611 C   0  0  0  0  0  0  0  0  0  0  0  0
  -19.7080   -7.9643   22.7800 C   0  0  0  0  0  0  0  0  0  0  0  0
  -18.3356   -8.1221   22.9727 C   0  0  0  0  0  0  0  0  0  0  0  0
  -29.3819  -16.9453   20.0523 C   0  0  0  0  0  0  0  0  0  0  0  0
  -22.0243  -21.4538   23.0835 C   0  0  0  0  0  0  0  0  0  0  0  0
  -17.9055   -6.7654   21.0204 C   0  0  0  0  0  0  0  0  0  0  0  0
  -23.8115  -10.4737   20.9159 C   0  0  0  0  0  0  0  0  0  0  0  0
  -29.5633  -16.6196   21.3964 C   0  0  0  0  0  0  0  0  0  0  0  0
  -24.2143  -12.9924   20.9548 C   0  0  0  0  0  0  0  0  0  0  0  0
  -13.7436  -20.6977   27.3583 C   0  0  0  0  0  0  0  0  0  0  0  0
  -21.1348  -20.1507   24.9194 C   0  0  0  0  0  0  0  0  0  0  0  0
  -14.7729  -20.0716   26.6297 C   0  0  0  0  0  0  0  0  0  0  0  0
  -21.3059  -21.3906   24.2872 C   0  0  0  0  0  0  0  0  0  0  0  0
  -28.1712  -18.9340   20.6976 C   0  0  0  0  0  0  0  0  0  0  0  0
  -28.6858  -18.1025   19.7029 C   0  0  0  0  0  0  0  0  0  0  0  0
  -22.2861   -8.1732   21.3203 C   0  0  0  0  0  0  0  0  0  0  0  0
  -22.5757  -20.3019   22.5230 C   0  0  0  0  0  0  0  0  0  0  0  0
  -20.1792   -7.2072   21.7075 C   0  0  0  0  0  0  0  0  0  0  0  0
  -17.4343   -7.5226   22.0929 C   0  0  0  0  0  0  0  0  0  0  0  0
  -19.2780   -6.6077   20.8277 C   0  0  0  0  0  0  0  0  0  0  0  0
  -24.6001  -11.6614   20.7070 C   0  0  0  0  0  0  0  0  0  0  0  0
  -25.3095  -13.7397   20.5962 C   0  0  0  0  0  0  0  0  0  0  0  0
  -28.0607  -21.1622   19.6146 C   0  0  0  0  0  0  0  0  0  0  0  0
  -30.2891  -15.4134   21.7613 C   0  0  0  0  0  0  0  0  0  0  0  0
  -22.9767  -13.5072   21.4636 C   0  0  0  0  0  0  0  0  0  0  0  0
  -30.8486  -14.5087   20.7309 C   0  0  0  0  0  0  0  0  0  0  0  0
  -18.1742  -21.0852   25.6016 C   0  0  0  0  0  0  0  0  0  0  0  0
  -19.6995  -23.6053   26.9598 C   0  0  0  0  0  0  0  0  0  0  0  0
  -22.4943  -25.7390   26.1513 C   0  0  0  0  0  0  0  0  0  0  0  0
  -13.4557  -22.1715   27.2182 C   0  0  0  0  0  0  0  0  0  0  0  0
  -20.3905  -20.0566   26.2230 C   0  0  0  0  0  0  0  0  0  0  0  0
  -20.7316  -22.6592   24.8610 C   0  0  0  0  0  0  0  0  0  0  0  0
  -27.1425  -22.2290   19.0486 C   0  0  0  0  0  0  0  0  0  0  0  0
  -14.6061  -22.9606   26.5983 C   0  0  0  0  0  0  0  0  0  0  0  0
  -25.9655  -22.5740   19.9344 C   0  0  0  0  0  0  0  0  0  0  0  0
  -29.5139  -12.4576   18.1102 C   0  0  0  0  0  0  0  0  0  0  0  0
  -15.1429  -22.2416   25.3647 C   0  0  0  0  0  0  0  0  0  0  0  0
  -28.0977  -12.1454   18.5927 C   0  0  0  0  0  0  0  0  0  0  0  0
  -30.4927  -12.5528   19.2761 C   0  0  0  0  0  0  0  0  0  0  0  0
  -26.1340  -20.3423   20.9996 C   0  0  0  0  0  0  0  0  0  0  0  0
  -28.6674  -13.2291   20.8123 C   0  0  0  0  0  0  0  0  0  0  0  0
  -15.6996  -20.8602   25.7299 C   0  0  1  0  0  0  0  0  0  0  0  0
  -19.4155  -21.2100   26.4390 C   0  0  1  0  0  0  0  0  0  0  0  0
  -25.2031  -21.2993   20.2564 C   0  0  1  0  0  0  0  0  0  0  0  0
  -27.6451  -13.1525   19.6648 C   0  0  2  0  0  0  0  0  0  0  0  0
  -24.0504  -27.0246   27.6424 C   0  0  0  0  0  0  0  0  0  0  0  0
  -17.7652  -25.9193   26.4976 C   0  0  0  0  0  0  0  0  0  0  0  0
  -19.7374  -27.4591   26.4106 C   0  0  0  0  0  0  0  0  0  0  0  0
  -19.2462  -26.1809   28.4958 C   0  0  0  0  0  0  0  0  0  0  0  0
  -24.8812  -24.4580   24.9595 C   0  0  0  0  0  0  0  0  0  0  0  0
  -23.9580  -21.6004   21.0880 C   0  0  0  0  0  0  0  0  0  1  0  0
  -20.1621  -24.9599   26.4802 C   0  0  1  0  0  0  0  0  0  0  0  0
  -23.8521  -25.7544   26.8300 C   0  0  2  0  0  0  0  0  0  0  0  0
  -19.2259  -26.1076   26.9534 C   0  0  0  0  0  0  0  0  0  0  0  0
  -25.8432  -11.5655   20.2279 N   0  0  0  0  0  0  0  0  0  0  0  0
  -30.4978  -15.0489   22.9977 N   0  0  0  0  0  0  0  0  0  0  0  0
  -26.2480  -12.8457   20.1717 N   0  0  0  0  0  0  0  0  0  0  0  0
  -27.4468  -20.1406   20.3596 N   0  0  0  0  0  0  0  0  0  0  0  0
  -30.0155  -13.4893   20.2916 N   0  0  0  0  0  0  0  0  0  0  0  0
  -20.0068  -22.5145   26.1343 N   0  0  0  0  0  0  0  0  0  0  0  0
  -28.5151  -18.4131   18.3351 N   0  0  0  0  0  0  0  0  0  0  0  0
  -25.5516  -15.0678   20.6057 N   0  0  0  0  0  0  0  0  0  0  0  0
  -22.8359  -13.6596   22.8497 N   0  0  0  0  0  0  0  0  0  0  0  0
  -17.0078  -20.9865   26.3358 N   0  0  0  0  0  0  0  0  0  0  0  0
  -21.5462  -25.0980   26.9203 N   0  0  0  0  0  0  0  0  0  0  0  0
  -24.9397  -25.6714   25.8146 N   0  3  0  0  0  0  0  0  0  0  0  0
  -29.2619  -21.2256   19.3392 O   0  0  0  0  0  0  0  0  0  0  0  0
  -22.0179  -13.8072   20.7125 O   0  0  0  0  0  0  0  0  0  0  0  0
  -31.9930  -14.7582   20.3752 O   0  0  0  0  0  0  0  0  0  0  0  0
  -18.2676  -21.0804   24.3797 O   0  0  0  0  0  0  0  0  0  0  0  0
  -19.0943  -23.5173   28.0311 O   0  0  0  0  0  0  0  0  0  0  0  0
  -22.2939  -26.2482   25.0509 O   0  0  0  0  0  0  0  0  0  0  0  0
  -21.5420   -7.0508   21.5180 O   0  0  0  0  0  0  0  0  0  0  0  0
  -23.2714  -20.3784   21.3559 O   0  0  0  0  0  0  0  0  0  1  0  0
  -16.1164   -7.6730   22.2790 F   0  0  0  0  0  0  0  0  0  0  0  0
  -19.7247   -5.8781   19.7962 F   0  0  0  0  0  0  0  0  0  0  0  0
  1  2  1  0  0  0  0
  1  6  2  0  0  0  0
  2  7  2  0  0  0  0
  3 10  2  0  0  0  0
  3 18  1  0  0  0  0
  4 11  1  0  0  0  0
  4 18  2  0  0  0  0
  5  9  2  0  0  0  0
  5 19  1  0  0  0  0
  6 21  1  0  0  0  0
  7 23  1  0  0  0  0
  8 12  2  0  0  0  0
  8 22  1  0  0  0  0
  9 25  1  0  0  0  0
 10 27  1  0  0  0  0
 11 27  2  0  0  0  0
 12 28  1  0  0  0  0
 13 14  2  0  0  0  0
 13 29  1  0  0  0  0
 14 30  1  0  0  0  0
 15 19  2  0  0  0  0
 15 26  1  0  0  0  0
 16 24  1  0  0  0  0
 16 28  2  0  0  0  0
 17 30  2  0  0  0  0
 17 31  1  0  0  0  0
 18 32  1  0  0  0  0
 19 35  1  0  0  0  0
 20 32  1  0  0  0  0
 20 33  2  0  0  0  0
 20 36  1  0  0  0  0
 21 23  2  0  0  0  0
 21 41  1  0  0  0  0
 22 24  2  0  0  0  0
 22 42  1  0  0  0  0
 23 53  1  0  0  0  0
 24 43  1  0  0  0  0
 25 26  2  0  0  0  0
 25 69  1  0  0  0  0
 26 72  1  0  0  0  0
 27 84  1  0  0  0  0
 28 85  1  0  0  0  0
 29 31  2  0  0  0  0
 29 84  1  0  0  0  0
 30 86  1  0  0  0  0
 31 87  1  0  0  0  0
 32 66  2  0  0  0  0
 33 68  1  0  0  0  0
 33 73  1  0  0  0  0
 34 44  1  0  0  0  0
 34 69  1  0  0  0  0
 34 78  2  0  0  0  0
 35 37  1  0  0  0  0
 35 67  2  0  0  0  0
 36 74  1  0  0  0  0
 36 79  2  0  0  0  0
 37 70  1  0  0  0  0
 37 80  2  0  0  0  0
 38 54  1  0  0  0  0
 38 75  1  0  0  0  0
 38 81  2  0  0  0  0
 39 63  1  0  0  0  0
 39 71  1  0  0  0  0
 39 82  2  0  0  0  0
 40 64  1  0  0  0  0
 40 76  1  0  0  0  0
 40 83  2  0  0  0  0
 41 45  1  0  0  0  0
 42 54  1  0  0  0  0
 43 71  1  0  0  0  0
 44 46  1  0  0  0  0
 45 48  1  0  0  0  0
 46 55  1  0  0  0  0
 47 49  1  0  0  0  0
 47 50  1  0  0  0  0
 48 53  1  0  0  0  0
 49 56  1  0  0  0  0
 50 70  1  0  0  0  0
 51 55  1  0  0  0  0
 51 69  1  0  0  0  0
 52 56  1  0  0  0  0
 52 70  1  0  0  0  0
 53 75  1  0  0  0  0
 54 71  1  0  0  0  0
 55 62  1  0  0  0  0
 56 68  1  0  0  0  0
 57 64  1  0  0  0  0
 58 65  1  0  0  0  0
 59 65  1  0  0  0  0
 60 65  1  0  0  0  0
 61 77  1  0  0  0  0
 62 85  1  0  0  0  0
 63 65  1  0  0  0  0
 63 76  1  0  0  0  0
 64 77  1  0  0  0  0
 66 68  1  0  0  0  0
M  CHG  1  77   1
M  ISO  4  35 100  37 100  62 101  85 101
M  END
> <Batch ID>
0095

> <Smiles>
CNC(C)C(=O)NC(C(=O)N1Cc2cc([101O:1][101CH2:1]C3CCC(=O)N(c4ccc([100C:0](=N)[100C:0](=O)N5CCCC(n6nc(-c7ccc(Oc8ccc(F)cc8F)cc7)c(C(N)=O)c6N)C5)cc4N)C3)ccc2CC1C(=O)NC1CCCc2ccccc21)C(C)(C)C

> <Shape>
0.188

> <Color>
0.168

> <Negative vol penalty>
0.000

$$$$

  -OEChem-04052300433D

 83 91  0     1  0  0  0  0  0999 V2000
  -16.8354  -25.9425   22.5319 C   0  0  0  0  0  0  0  0  0  0  0  0
  -18.1370  -25.4539   22.5839 C   0  0  0  0  0  0  0  0  0  0  0  0
  -23.1670  -10.3082   20.8596 C   0  0  0  0  0  0  0  0  0  0  0  0
  -24.4673   -8.8672   22.2984 C   0  0  0  0  0  0  0  0  0  0  0  0
  -28.4022  -20.0369   20.3381 C   0  0  0  0  0  0  0  0  0  0  0  0
  -16.6008  -27.2560   22.1276 C   0  0  0  0  0  0  0  0  0  0  0  0
  -19.2046  -26.2783   22.2307 C   0  0  0  0  0  0  0  0  0  0  0  0
  -23.0683  -25.9566   25.4885 C   0  0  0  0  0  0  0  0  0  0  0  0
  -27.4981  -20.8550   21.0155 C   0  0  0  0  0  0  0  0  0  0  0  0
  -22.2278   -9.2911   20.6896 C   0  0  0  0  0  0  0  0  0  0  0  0
  -23.5280   -7.8500   22.1284 C   0  0  0  0  0  0  0  0  0  0  0  0
  -23.9013  -24.8438   25.3804 C   0  0  0  0  0  0  0  0  0  0  0  0
  -20.4756   -7.0527   23.3399 C   0  0  0  0  0  0  0  0  0  0  0  0
  -20.0669   -6.3538   24.4757 C   0  0  0  0  0  0  0  0  0  0  0  0
  -25.5120  -26.1741   24.1742 C   0  0  0  0  0  0  0  0  0  0  0  0
  -26.7237  -18.9495   22.2830 C   0  0  0  0  0  0  0  0  0  0  0  0
  -20.8789   -4.2970   23.5021 C   0  0  0  0  0  0  0  0  0  0  0  0
  -24.2868  -10.0962   21.6639 C   0  0  0  0  0  0  0  0  0  0  0  0
  -28.4671  -18.6751   20.6331 C   0  0  0  0  0  0  0  0  0  0  0  0
  -25.2618  -12.1427   22.8339 C   0  0  0  0  0  0  0  0  0  0  0  0
  -17.6669  -28.1000   21.7784 C   0  0  0  0  0  0  0  0  0  0  0  0
  -23.4468  -27.1859   24.9297 C   0  0  0  0  0  0  0  0  0  0  0  0
  -18.9839  -27.6040   21.8200 C   0  0  0  0  0  0  0  0  0  0  0  0
  -24.6832  -27.3016   24.2787 C   0  0  0  0  0  0  0  0  0  0  0  0
  -26.6588  -20.3113   21.9880 C   0  0  0  0  0  0  0  0  0  0  0  0
  -22.4083   -8.0620   21.3241 C   0  0  0  0  0  0  0  0  0  0  0  0
  -25.1220  -24.9517   24.7207 C   0  0  0  0  0  0  0  0  0  0  0  0
  -21.0859   -6.3738   22.2852 C   0  0  0  0  0  0  0  0  0  0  0  0
  -20.2685   -4.9759   24.5568 C   0  0  0  0  0  0  0  0  0  0  0  0
  -27.6278  -18.1314   21.6056 C   0  0  0  0  0  0  0  0  0  0  0  0
  -21.2876   -4.9960   22.3663 C   0  0  0  0  0  0  0  0  0  0  0  0
  -25.2577  -11.1464   21.8395 C   0  0  0  0  0  0  0  0  0  0  0  0
  -26.3841  -12.8885   22.5681 C   0  0  0  0  0  0  0  0  0  0  0  0
  -26.1881  -21.6795   23.7578 C   0  0  0  0  0  0  0  0  0  0  0  0
  -29.4303  -17.8063   19.9091 C   0  0  0  0  0  0  0  0  0  0  0  0
  -24.3342  -12.3734   23.9026 C   0  0  0  0  0  0  0  0  0  0  0  0
  -22.2598  -29.0848   22.6738 C   0  0  0  0  0  0  0  0  0  0  0  0
  -24.6301  -31.0736   23.6479 C   0  0  0  0  0  0  0  0  0  0  0  0
  -27.6728  -31.4370   25.1500 C   0  0  0  0  0  0  0  0  0  0  0  0
  -29.7768  -15.5087   19.0578 C   0  0  0  0  0  0  0  0  0  0  0  0
  -17.3602  -29.4978   21.3023 C   0  0  0  0  0  0  0  0  0  0  0  0
  -22.5489  -28.3835   25.0781 C   0  0  0  0  0  0  0  0  0  0  0  0
  -25.1450  -28.6039   23.6793 C   0  0  0  0  0  0  0  0  0  0  0  0
  -18.5752  -30.4220   21.3038 C   0  0  0  0  0  0  0  0  0  0  0  0
  -30.2460  -12.0224   19.4075 C   0  0  0  0  0  0  0  0  0  0  0  0
  -19.7766  -29.7255   20.6726 C   0  0  0  0  0  0  0  0  0  0  0  0
  -28.9945  -11.5633   20.1606 C   0  0  0  0  0  0  0  0  0  0  0  0
  -29.9282  -13.1240   18.3974 C   0  0  0  0  0  0  0  0  0  0  0  0
  -27.9513  -13.8159   19.6900 C   0  0  0  0  0  0  0  0  0  0  0  0
  -20.1703  -28.4752   21.4683 C   0  0  1  0  0  0  0  0  0  0  0  0
  -22.8046  -29.4562   24.0240 C   0  0  1  0  0  0  0  0  0  0  0  0
  -28.2306  -12.7568   20.7686 C   0  0  1  0  0  0  0  0  0  0  0  0
  -29.3698  -33.1799   25.7664 C   0  0  0  0  0  0  0  0  0  0  0  0
  -25.5304  -31.2233   20.7364 C   0  0  0  0  0  0  0  0  0  0  0  0
  -27.7121  -32.1590   21.5319 C   0  0  0  0  0  0  0  0  0  0  0  0
  -25.5928  -33.4029   21.9610 C   0  0  0  0  0  0  0  0  0  0  0  0
  -27.4215  -30.8277   28.0352 C   0  0  0  0  0  0  0  0  0  0  0  0
  -25.3097  -22.5859   24.5671 C   0  0  0  0  0  0  0  0  0  1  0  0
  -26.0731  -31.2876   23.2597 C   0  0  1  0  0  0  0  0  0  0  0  0
  -28.1561  -32.3889   26.2292 C   0  0  2  0  0  0  0  0  0  0  0  0
  -26.2178  -31.9930   21.8818 C   0  0  0  0  0  0  0  0  0  0  0  0
  -26.2949  -11.2473   21.0041 N   0  0  0  0  0  0  0  0  0  0  0  0
  -25.7481  -21.1354   22.6706 N   0  0  0  0  0  0  0  0  0  0  0  0
  -26.9613  -12.3161   21.4730 N   0  0  0  0  0  0  0  0  0  0  0  0
  -24.2291  -29.7446   23.8450 N   0  0  0  0  0  0  0  0  0  0  0  0
  -29.2139  -14.2205   19.0536 N   0  0  0  0  0  0  0  0  0  0  0  0
  -26.9236  -13.9717   23.1665 N   0  0  0  0  0  0  0  0  0  0  0  0
  -23.2359  -11.5124   24.0315 N   0  0  0  0  0  0  0  0  0  0  0  0
  -29.0383  -16.4772   19.7468 N   0  0  0  0  0  0  0  0  0  0  0  0
  -20.8990  -28.8450   22.6628 N   0  0  0  0  0  0  0  0  0  0  0  0
  -26.6914  -32.0079   24.3676 N   0  0  0  0  0  0  0  0  0  0  0  0
  -28.5287  -31.6326   27.4581 N   0  3  0  0  0  0  0  0  0  0  0  0
  -30.4672  -18.2977   19.4719 O   0  0  0  0  0  0  0  0  0  0  0  0
  -24.4661  -13.3251   24.7090 O   0  0  0  0  0  0  0  0  0  0  0  0
  -23.0177  -29.0218   21.7129 O   0  0  0  0  0  0  0  0  0  0  0  0
  -23.8878  -32.0501   23.7786 O   0  0  0  0  0  0  0  0  0  0  0  0
  -28.1237  -30.3020   25.0123 O   0  0  0  0  0  0  0  0  0  0  0  0
  -30.8617  -15.7665   18.5269 O   0  0  0  0  0  0  0  0  0  0  0  0
  -21.4919   -7.0693   21.1586 O   0  0  0  0  0  0  0  0  0  0  0  0
  -25.9367  -23.8670   24.6133 O   0  0  0  0  0  0  0  0  0  1  0  0
  -19.8773   -4.3051   25.6482 F   0  0  0  0  0  0  0  0  0  0  0  0
  -27.6813  -16.8239   21.8964 F   0  0  0  0  0  0  0  0  0  0  0  0
  -21.8744   -4.3386   21.3568 F   0  0  0  0  0  0  0  0  0  0  0  0
  1  2  1  0  0  0  0
  1  6  2  0  0  0  0
  2  7  2  0  0  0  0
  3 10  2  0  0  0  0
  3 18  1  0  0  0  0
  4 11  1  0  0  0  0
  4 18  2  0  0  0  0
  5  9  2  0  0  0  0
  5 19  1  0  0  0  0
  6 21  1  0  0  0  0
  7 23  1  0  0  0  0
  8 12  2  0  0  0  0
  8 22  1  0  0  0  0
  9 25  1  0  0  0  0
 10 26  1  0  0  0  0
 11 26  2  0  0  0  0
 12 27  1  0  0  0  0
 13 14  2  0  0  0  0
 13 28  1  0  0  0  0
 14 29  1  0  0  0  0
 15 24  1  0  0  0  0
 15 27  2  0  0  0  0
 16 25  2  0  0  0  0
 16 30  1  0  0  0  0
 17 29  2  0  0  0  0
 17 31  1  0  0  0  0
 18 32  1  0  0  0  0
 19 30  2  0  0  0  0
 19 35  1  0  0  0  0
 20 32  1  0  0  0  0
 20 33  2  0  0  0  0
 20 36  1  0  0  0  0
 21 23  2  0  0  0  0
 21 41  1  0  0  0  0
 22 24  2  0  0  0  0
 22 42  1  0  0  0  0
 23 50  1  0  0  0  0
 24 43  1  0  0  0  0
 25 63  1  0  0  0  0
 26 79  1  0  0  0  0
 27 80  1  0  0  0  0
 28 31  2  0  0  0  0
 28 79  1  0  0  0  0
 29 81  1  0  0  0  0
 30 82  1  0  0  0  0
 31 83  1  0  0  0  0
 32 62  2  0  0  0  0
 33 64  1  0  0  0  0
 33 67  1  0  0  0  0
 34 58  1  0  0  0  0
 34 63  2  0  0  0  0
 35 69  1  0  0  0  0
 35 73  2  0  0  0  0
 36 68  1  0  0  0  0
 36 74  2  0  0  0  0
 37 51  1  0  0  0  0
 37 70  1  0  0  0  0
 37 75  2  0  0  0  0
 38 59  1  0  0  0  0
 38 65  1  0  0  0  0
 38 76  2  0  0  0  0
 39 60  1  0  0  0  0
 39 71  1  0  0  0  0
 39 77  2  0  0  0  0
 40 66  1  0  0  0  0
 40 69  1  0  0  0  0
 40 78  2  0  0  0  0
 41 44  1  0  0  0  0
 42 51  1  0  0  0  0
 43 65  1  0  0  0  0
 44 46  1  0  0  0  0
 45 47  1  0  0  0  0
 45 48  1  0  0  0  0
 46 50  1  0  0  0  0
 47 52  1  0  0  0  0
 48 66  1  0  0  0  0
 49 52  1  0  0  0  0
 49 66  1  0  0  0  0
 50 70  1  0  0  0  0
 51 65  1  0  0  0  0
 52 64  1  0  0  0  0
 53 60  1  0  0  0  0
 54 61  1  0  0  0  0
 55 61  1  0  0  0  0
 56 61  1  0  0  0  0
 57 72  1  0  0  0  0
 58 80  1  0  0  0  0
 59 61  1  0  0  0  0
 59 71  1  0  0  0  0
 60 72  1  0  0  0  0
 62 64  1  0  0  0  0
M  CHG  1  72   1
M  ISO  4  40 100  58 101  69 100  80 101
M  END
> <Batch ID>
0095

> <Smiles>
CNC(C)C(=O)NC(C(=O)N1Cc2cc([101O:1][101CH:1]=CNc3ccc(C(=O)[100NH:0][100C:0](=O)N4CCCC(n5nc(-c6ccc(Oc7ccc(F)cc7F)cc6)c(C(N)=O)c5N)C4)c(F)c3)ccc2CC1C(=O)NC1CCCc2ccccc21)C(C)(C)C

> <Shape>
0.293

> <Color>
0.116

> <Negative vol penalty>
0.000

$$$$

  -OEChem-04052300433D

 90 98  0     1  0  0  0  0  0999 V2000
  -27.1321  -37.8014   18.5755 C   0  0  0  0  0  0  0  0  0  0  0  0
  -27.5088  -36.4940   18.2854 C   0  0  0  0  0  0  0  0  0  0  0  0
  -24.2906  -12.6764   24.2356 C   0  0  0  0  0  0  0  0  0  0  0  0
  -23.9428  -14.8827   23.3147 C   0  0  0  0  0  0  0  0  0  0  0  0
  -28.9954  -20.1448   17.9946 C   0  0  0  0  0  0  0  0  0  0  0  0
  -26.7772  -38.1507   19.8778 C   0  0  0  0  0  0  0  0  0  0  0  0
  -27.5318  -35.5353   19.2977 C   0  0  0  0  0  0  0  0  0  0  0  0
  -26.1729  -29.5874   18.7667 C   0  0  0  0  0  0  0  0  0  0  0  0
  -28.7796  -21.5057   18.2109 C   0  0  0  0  0  0  0  0  0  0  0  0
  -23.7570  -13.1002   25.4526 C   0  0  0  0  0  0  0  0  0  0  0  0
  -23.4092  -15.3066   24.5317 C   0  0  0  0  0  0  0  0  0  0  0  0
  -26.9696  -28.4527   18.6203 C   0  0  0  0  0  0  0  0  0  0  0  0
  -21.6229  -16.8711   27.2848 C   0  0  0  0  0  0  0  0  0  0  0  0
  -20.4528  -17.6297   27.2517 C   0  0  0  0  0  0  0  0  0  0  0  0
  -26.8630  -28.0780   21.0009 C   0  0  0  0  0  0  0  0  0  0  0  0
  -28.3127  -21.8053   15.8594 C   0  0  0  0  0  0  0  0  0  0  0  0
  -19.3031  -15.8086   26.1568 C   0  0  0  0  0  0  0  0  0  0  0  0
  -24.3836  -13.5677   23.1666 C   0  0  0  0  0  0  0  0  0  0  0  0
  -28.8700  -19.6140   16.7108 C   0  0  0  0  0  0  0  0  0  0  0  0
  -24.2367  -12.5678   20.8243 C   0  0  0  0  0  0  0  0  0  0  0  0
  -26.7866  -37.1936   20.9046 C   0  0  0  0  0  0  0  0  0  0  0  0
  -25.7236  -29.9828   20.0349 C   0  0  0  0  0  0  0  0  0  0  0  0
  -27.1780  -35.8724   20.6152 C   0  0  0  0  0  0  0  0  0  0  0  0
  -26.0586  -29.2167   21.1604 C   0  0  0  0  0  0  0  0  0  0  0  0
  -28.5286  -20.4443   15.6432 C   0  0  0  0  0  0  0  0  0  0  0  0
  -28.4382  -22.3360   17.1432 C   0  0  0  0  0  0  0  0  0  0  0  0
  -23.3163  -14.4153   25.6007 C   0  0  0  0  0  0  0  0  0  0  0  0
  -27.3172  -27.6994   19.7378 C   0  0  0  0  0  0  0  0  0  0  0  0
  -21.6331  -15.5813   26.7538 C   0  0  0  0  0  0  0  0  0  0  0  0
  -19.2929  -17.0984   26.6877 C   0  0  0  0  0  0  0  0  0  0  0  0
  -20.4732  -15.0500   26.1898 C   0  0  0  0  0  0  0  0  0  0  0  0
  -24.9352  -13.1306   21.9093 C   0  0  0  0  0  0  0  0  0  0  0  0
  -25.2050  -12.3274   19.8802 C   0  0  0  0  0  0  0  0  0  0  0  0
  -29.1017  -18.1893   16.5134 C   0  0  0  0  0  0  0  0  0  0  0  0
  -22.8378  -12.2876   20.6824 C   0  0  0  0  0  0  0  0  0  0  0  0
  -30.6047  -14.8127   18.9842 C   0  0  0  0  0  0  0  0  0  0  0  0
  -29.8177  -16.0539   18.8018 C   0  0  0  0  0  0  0  0  0  0  0  0
  -26.1331  -32.5536   21.8589 C   0  0  0  0  0  0  0  0  0  0  0  0
  -23.9491  -31.0793   23.7506 C   0  0  0  0  0  0  0  0  0  0  0  0
  -28.3023  -24.4056   18.5687 C   0  0  0  0  0  0  0  0  0  0  0  0
  -22.4552  -28.1703   24.7266 C   0  0  0  0  0  0  0  0  0  0  0  0
  -26.4404  -37.6293   22.3064 C   0  0  0  0  0  0  0  0  0  0  0  0
  -24.8428  -31.1943   20.1727 C   0  0  0  0  0  0  0  0  0  0  0  0
  -25.5851  -29.5871   22.5414 C   0  0  0  0  0  0  0  0  0  0  0  0
  -26.1303  -36.4672   23.2464 C   0  0  0  0  0  0  0  0  0  0  0  0
  -29.8558  -11.3357   19.4389 C   0  0  0  0  0  0  0  0  0  0  0  0
  -27.1808  -35.3704   23.1039 C   0  0  0  0  0  0  0  0  0  0  0  0
  -28.4601  -11.3536   20.0614 C   0  0  0  0  0  0  0  0  0  0  0  0
  -30.6883  -12.5275   19.9005 C   0  0  0  0  0  0  0  0  0  0  0  0
  -28.6390  -13.8735   20.2708 C   0  0  0  0  0  0  0  0  0  0  0  0
  -27.1916  -34.7984   21.6812 C   0  0  1  0  0  0  0  0  0  0  0  0
  -24.8677  -31.7947   21.5749 C   0  0  1  0  0  0  0  0  0  0  0  0
  -27.7591  -12.6998   19.8064 C   0  0  2  0  0  0  0  0  0  0  0  0
  -28.3891  -19.9018   14.2582 C   0  0  0  0  0  0  0  0  0  0  0  0
  -20.7330  -27.2779   26.3189 C   0  0  0  0  0  0  0  0  0  0  0  0
  -27.3687  -16.0952   15.0833 C   0  0  0  0  0  0  0  0  0  0  0  0
  -26.1188  -15.7577   17.2290 C   0  0  0  0  0  0  0  0  0  0  0  0
  -25.9271  -31.3794   26.0544 C   0  0  0  0  0  0  0  0  0  0  0  0
  -24.6009  -29.6765   27.3230 C   0  0  0  0  0  0  0  0  0  0  0  0
  -23.5438  -31.8363   26.6594 C   0  0  0  0  0  0  0  0  0  0  0  0
  -20.7778  -27.1395   22.5169 C   0  0  0  0  0  0  0  0  0  0  0  0
  -27.9924  -25.8773   18.3667 C   0  0  0  0  0  0  0  0  0  1  0  0
  -28.2251  -17.1623   17.2618 C   0  0  1  0  0  0  0  0  0  0  0  0
  -24.0152  -30.0922   24.8908 C   0  0  1  0  0  0  0  0  0  0  0  0
  -20.9946  -27.8020   24.9154 C   0  0  2  0  0  0  0  0  0  0  0  0
  -27.0005  -16.7239   16.4315 C   0  0  0  0  0  0  0  0  0  0  0  0
  -24.5324  -30.7399   26.2063 C   0  0  0  0  0  0  0  0  0  0  0  0
  -26.2459  -13.2409   21.6773 N   0  0  0  0  0  0  0  0  0  0  0  0
  -26.3788  -12.7441   20.4357 N   0  0  0  0  0  0  0  0  0  0  0  0
  -29.9791  -13.7858   19.6773 N   0  0  0  0  0  0  0  0  0  0  0  0
  -24.7314  -30.7836   22.6253 N   0  0  0  0  0  0  0  0  0  0  0  0
  -25.1583  -11.8021   18.6375 N   0  0  0  0  0  0  0  0  0  0  0  0
  -21.9828  -12.5972   21.7489 N   0  0  0  0  0  0  0  0  0  0  0  0
  -28.2194  -23.7166   17.3636 N   0  0  0  0  0  0  0  0  0  0  0  0
  -29.0694  -16.0560   17.6475 N   0  0  0  0  0  0  0  0  0  0  0  0
  -26.0839  -33.8858   21.4950 N   0  0  0  0  0  0  0  0  0  0  0  0
  -22.6851  -29.5025   24.9980 N   0  0  0  0  0  0  0  0  0  0  0  0
  -20.5954  -26.7495   23.9388 N   0  3  0  0  0  0  0  0  0  0  0  0
  -29.9773  -17.7563   15.7431 O   0  0  0  0  0  0  0  0  0  0  0  0
  -22.3625  -11.7627   19.6470 O   0  0  0  0  0  0  0  0  0  0  0  0
  -31.7295  -14.8257   18.5015 O   0  0  0  0  0  0  0  0  0  0  0  0
  -29.9106  -16.9159   19.6613 O   0  0  0  0  0  0  0  0  0  0  0  0
  -27.0832  -31.9738   22.3716 O   0  0  0  0  0  0  0  0  0  0  0  0
  -23.2243  -32.0723   23.8517 O   0  0  0  0  0  0  0  0  0  0  0  0
  -28.5804  -23.9535   19.6745 O   0  0  0  0  0  0  0  0  0  0  0  0
  -23.3075  -27.3567   24.3773 O   0  0  0  0  0  0  0  0  0  0  0  0
  -22.7953  -14.8292   26.7881 O   0  0  0  0  0  0  0  0  0  0  0  0
  -28.0952  -26.5918   19.5977 O   0  0  0  0  0  0  0  0  0  1  0  0
  -18.1689  -17.8264   26.6574 F   0  0  0  0  0  0  0  0  0  0  0  0
  -20.4766  -13.8110   25.6792 F   0  0  0  0  0  0  0  0  0  0  0  0
  1  2  1  0  0  0  0
  1  6  2  0  0  0  0
  2  7  2  0  0  0  0
  3 10  2  0  0  0  0
  3 18  1  0  0  0  0
  4 11  1  0  0  0  0
  4 18  2  0  0  0  0
  5  9  2  0  0  0  0
  5 19  1  0  0  0  0
  6 21  1  0  0  0  0
  7 23  1  0  0  0  0
  8 12  2  0  0  0  0
  8 22  1  0  0  0  0
  9 26  1  0  0  0  0
 10 27  1  0  0  0  0
 11 27  2  0  0  0  0
 12 28  1  0  0  0  0
 13 14  2  0  0  0  0
 13 29  1  0  0  0  0
 14 30  1  0  0  0  0
 15 24  1  0  0  0  0
 15 28  2  0  0  0  0
 16 25  1  0  0  0  0
 16 26  2  0  0  0  0
 17 30  2  0  0  0  0
 17 31  1  0  0  0  0
 18 32  1  0  0  0  0
 19 25  2  0  0  0  0
 19 34  1  0  0  0  0
 20 32  1  0  0  0  0
 20 33  2  0  0  0  0
 20 35  1  0  0  0  0
 21 23  2  0  0  0  0
 21 42  1  0  0  0  0
 22 24  2  0  0  0  0
 22 43  1  0  0  0  0
 23 51  1  0  0  0  0
 24 44  1  0  0  0  0
 25 54  1  0  0  0  0
 26 74  1  0  0  0  0
 27 87  1  0  0  0  0
 28 88  1  0  0  0  0
 29 31  2  0  0  0  0
 29 87  1  0  0  0  0
 30 89  1  0  0  0  0
 31 90  1  0  0  0  0
 32 68  2  0  0  0  0
 33 69  1  0  0  0  0
 33 72  1  0  0  0  0
 34 63  1  0  0  0  0
 34 79  2  0  0  0  0
 35 73  1  0  0  0  0
 35 80  2  0  0  0  0
 36 37  1  0  0  0  0
 36 70  1  0  0  0  0
 36 81  2  0  0  0  0
 37 75  1  0  0  0  0
 37 82  2  0  0  0  0
 38 52  1  0  0  0  0
 38 76  1  0  0  0  0
 38 83  2  0  0  0  0
 39 64  1  0  0  0  0
 39 71  1  0  0  0  0
 39 84  2  0  0  0  0
 40 62  1  0  0  0  0
 40 74  1  0  0  0  0
 40 85  2  0  0  0  0
 41 65  1  0  0  0  0
 41 77  1  0  0  0  0
 41 86  2  0  0  0  0
 42 45  1  0  0  0  0
 43 52  1  0  0  0  0
 44 71  1  0  0  0  0
 45 47  1  0  0  0  0
 46 48  1  0  0  0  0
 46 49  1  0  0  0  0
 47 51  1  0  0  0  0
 48 53  1  0  0  0  0
 49 70  1  0  0  0  0
 50 53  1  0  0  0  0
 50 70  1  0  0  0  0
 51 76  1  0  0  0  0
 52 71  1  0  0  0  0
 53 69  1  0  0  0  0
 55 65  1  0  0  0  0
 56 66  1  0  0  0  0
 57 66  1  0  0  0  0
 58 67  1  0  0  0  0
 59 67  1  0  0  0  0
 60 67  1  0  0  0  0
 61 78  1  0  0  0  0
 62 88  1  0  0  0  0
 63 66  1  0  0  0  0
 63 75  1  0  0  0  0
 64 67  1  0  0  0  0
 64 77  1  0  0  0  0
 65 78  1  0  0  0  0
 68 69  1  0  0  0  0
M  CHG  1  78   1
M  ISO  4  36 100  37 100  62 101  88 101
M  END
> <Batch ID>
0095

> <Smiles>
CNC(C)C(=O)NC(C(=O)N1Cc2cc([101O:1][101CH2:1]C(=O)Nc3ccc(C(=O)C(N[100C:0](=O)[100C:0](=O)N4CCCC(n5nc(-c6ccc(Oc7ccc(F)cc7F)cc6)c(C(N)=O)c5N)C4)C(C)C)c(C)c3)ccc2CC1C(=O)NC1CCCc2ccccc21)C(C)(C)C

> <Shape>
0.216

> <Color>
0.117

> <Negative vol penalty>
0.000

$$$$

  -OEChem-04052300433D

 86 94  0     1  0  0  0  0  0999 V2000
  -24.9682  -37.8238   21.0960 C   0  0  0  0  0  0  0  0  0  0  0  0
  -25.8224  -36.8709   20.5503 C   0  0  0  0  0  0  0  0  0  0  0  0
  -24.5314  -13.9968   24.1237 C   0  0  0  0  0  0  0  0  0  0  0  0
  -23.7892  -15.7851   22.6787 C   0  0  0  0  0  0  0  0  0  0  0  0
  -24.1553  -37.4911   22.1788 C   0  0  0  0  0  0  0  0  0  0  0  0
  -25.8649  -35.5849   21.0878 C   0  0  0  0  0  0  0  0  0  0  0  0
  -26.8729  -28.7593   19.1614 C   0  0  0  0  0  0  0  0  0  0  0  0
  -24.0645  -14.7002   25.2340 C   0  0  0  0  0  0  0  0  0  0  0  0
  -23.3222  -16.4885   23.7890 C   0  0  0  0  0  0  0  0  0  0  0  0
  -27.6433  -27.6474   19.4991 C   0  0  0  0  0  0  0  0  0  0  0  0
  -20.6287  -16.4168   25.8287 C   0  0  0  0  0  0  0  0  0  0  0  0
  -19.3649  -17.0002   25.7398 C   0  0  0  0  0  0  0  0  0  0  0  0
  -30.1687  -18.0346   18.3822 C   0  0  0  0  0  0  0  0  0  0  0  0
  -26.1360  -27.1632   21.3192 C   0  0  0  0  0  0  0  0  0  0  0  0
  -27.8135  -19.5121   18.6122 C   0  0  0  0  0  0  0  0  0  0  0  0
  -20.3430  -19.1766   26.1186 C   0  0  0  0  0  0  0  0  0  0  0  0
  -24.3938  -14.5393   22.8460 C   0  0  0  0  0  0  0  0  0  0  0  0
  -28.9692  -17.5150   17.8957 C   0  0  0  0  0  0  0  0  0  0  0  0
  -24.1619  -12.8857   20.9174 C   0  0  0  0  0  0  0  0  0  0  0  0
  -24.1808  -36.1976   22.7237 C   0  0  0  0  0  0  0  0  0  0  0  0
  -25.7325  -29.0883   19.9081 C   0  0  0  0  0  0  0  0  0  0  0  0
  -25.0525  -35.2350   22.1798 C   0  0  0  0  0  0  0  0  0  0  0  0
  -25.3514  -28.2783   20.9874 C   0  0  0  0  0  0  0  0  0  0  0  0
  -27.7916  -18.2538   18.0106 C   0  0  0  0  0  0  0  0  0  0  0  0
  -29.0131  -20.0317   19.0988 C   0  0  0  0  0  0  0  0  0  0  0  0
  -23.4599  -15.9460   25.0667 C   0  0  0  0  0  0  0  0  0  0  0  0
  -27.2765  -26.8508   20.5798 C   0  0  0  0  0  0  0  0  0  0  0  0
  -21.7497  -17.2132   26.0626 C   0  0  0  0  0  0  0  0  0  0  0  0
  -19.2220  -18.3801   25.8847 C   0  0  0  0  0  0  0  0  0  0  0  0
  -30.1907  -19.2929   18.9838 C   0  0  0  0  0  0  0  0  0  0  0  0
  -21.6069  -18.5932   26.2076 C   0  0  0  0  0  0  0  0  0  0  0  0
  -24.8765  -13.8134   21.6987 C   0  0  0  0  0  0  0  0  0  0  0  0
  -25.0579  -12.4830   19.9574 C   0  0  0  0  0  0  0  0  0  0  0  0
  -27.7137  -24.5660   20.3364 C   0  0  0  0  0  0  0  0  0  1  0  0
  -28.9744  -16.1971   17.2753 C   0  0  0  0  0  0  0  0  0  0  0  0
  -22.8091  -12.4290   21.0476 C   0  0  0  0  0  0  0  0  0  0  0  0
  -28.3839  -23.4355   20.5904 C   0  0  0  0  0  0  0  0  0  0  0  0
  -29.9419  -15.1554   17.6901 C   0  0  0  0  0  0  0  0  0  0  0  0
  -27.9614  -22.1700   19.9060 C   0  0  0  0  0  0  0  0  0  0  0  0
  -24.8477  -31.5810   21.6710 C   0  0  0  0  0  0  0  0  0  0  0  0
  -22.0291  -29.9820   21.8172 C   0  0  0  0  0  0  0  0  0  0  0  0
  -20.3736  -27.0044   21.6171 C   0  0  0  0  0  0  0  0  0  0  0  0
  -23.3183  -35.8985   23.9242 C   0  0  0  0  0  0  0  0  0  0  0  0
  -24.8971  -30.2757   19.5147 C   0  0  0  0  0  0  0  0  0  0  0  0
  -24.1246  -28.5769   21.8086 C   0  0  0  0  0  0  0  0  0  0  0  0
  -23.1498  -34.4060   24.1965 C   0  0  0  0  0  0  0  0  0  0  0  0
  -29.7367  -11.9065   19.1931 C   0  0  0  0  0  0  0  0  0  0  0  0
  -24.4966  -33.6939   24.1193 C   0  0  0  0  0  0  0  0  0  0  0  0
  -28.4196  -11.9578   19.9665 C   0  0  0  0  0  0  0  0  0  0  0  0
  -30.4344  -13.2627   19.1880 C   0  0  0  0  0  0  0  0  0  0  0  0
  -28.2621  -14.4320   19.4384 C   0  0  0  0  0  0  0  0  0  0  0  0
  -25.1091  -33.8223   22.7193 C   0  0  1  0  0  0  0  0  0  0  0  0
  -24.0444  -30.8123   20.6602 C   0  0  1  0  0  0  0  0  0  0  0  0
  -27.5149  -13.0870   19.4419 C   0  0  2  0  0  0  0  0  0  0  0  0
  -26.4933  -17.7217   17.4972 C   0  0  0  0  0  0  0  0  0  0  0  0
  -18.0790  -26.0088   21.8191 C   0  0  0  0  0  0  0  0  0  0  0  0
  -22.1984  -30.2141   24.8548 C   0  0  0  0  0  0  0  0  0  0  0  0
  -20.4487  -28.4310   25.0189 C   0  0  0  0  0  0  0  0  0  0  0  0
  -19.9172  -30.5987   23.9047 C   0  0  0  0  0  0  0  0  0  0  0  0
  -20.4176  -26.0438   18.8181 C   0  0  0  0  0  0  0  0  0  0  0  0
  -21.4346  -28.9455   22.7399 C   0  0  1  0  0  0  0  0  0  0  0  0
  -19.1129  -26.6007   20.8739 C   0  0  2  0  0  0  0  0  0  0  0  0
  -21.0240  -29.5425   24.1155 C   0  0  0  0  0  0  0  0  0  0  0  0
  -26.1299  -13.9896   21.2722 N   0  0  0  0  0  0  0  0  0  0  0  0
  -28.1435  -15.8482   16.3322 N   0  0  0  0  0  0  0  0  0  0  0  0
  -26.2099  -13.1671   20.2124 N   0  0  0  0  0  0  0  0  0  0  0  0
  -29.5372  -14.3170   18.7193 N   0  0  0  0  0  0  0  0  0  0  0  0
  -23.3440  -29.7522   21.3882 N   0  0  0  0  0  0  0  0  0  0  0  0
  -24.9648  -11.6140   18.9286 N   0  0  0  0  0  0  0  0  0  0  0  0
  -22.0269  -12.9454   22.0897 N   0  0  0  0  0  0  0  0  0  0  0  0
  -29.0323  -21.3090   19.7090 N   0  0  0  0  0  0  0  0  0  0  0  0
  -24.4697  -32.9036   21.8018 N   0  0  0  0  0  0  0  0  0  0  0  0
  -20.3364  -28.3270   22.0052 N   0  0  0  0  0  0  0  0  0  0  0  0
  -19.4298  -25.5864   19.8291 N   0  3  0  0  0  0  0  0  0  0  0  0
  -22.3138  -11.5755   20.2731 O   0  0  0  0  0  0  0  0  0  0  0  0
  -31.0014  -15.1457   17.0771 O   0  0  0  0  0  0  0  0  0  0  0  0
  -26.7915  -21.9864   19.5875 O   0  0  0  0  0  0  0  0  0  0  0  0
  -25.7430  -31.0155   22.2876 O   0  0  0  0  0  0  0  0  0  0  0  0
  -21.3493  -30.9557   21.4835 O   0  0  0  0  0  0  0  0  0  0  0  0
  -21.2973  -26.2234   21.8349 O   0  0  0  0  0  0  0  0  0  0  0  0
  -29.4545  -23.3868   21.4599 O   0  0  0  0  0  0  0  0  0  0  0  0
  -23.0039  -16.6326   26.1499 O   0  0  0  0  0  0  0  0  0  0  0  0
  -28.0271  -25.7653   20.9119 O   0  0  0  0  0  0  0  0  0  1  0  0
  -18.0085  -18.9405   25.7977 F   0  0  0  0  0  0  0  0  0  0  0  0
  -31.3490  -19.7822   19.4490 F   0  0  0  0  0  0  0  0  0  0  0  0
  -22.6803  -19.3636   26.4313 F   0  0  0  0  0  0  0  0  0  0  0  0
  1  2  1  0  0  0  0
  1  5  2  0  0  0  0
  2  6  2  0  0  0  0
  3  8  2  0  0  0  0
  3 17  1  0  0  0  0
  4  9  1  0  0  0  0
  4 17  2  0  0  0  0
  5 20  1  0  0  0  0
  6 22  1  0  0  0  0
  7 10  2  0  0  0  0
  7 21  1  0  0  0  0
  8 26  1  0  0  0  0
  9 26  2  0  0  0  0
 10 27  1  0  0  0  0
 11 12  2  0  0  0  0
 11 28  1  0  0  0  0
 12 29  1  0  0  0  0
 13 18  2  0  0  0  0
 13 30  1  0  0  0  0
 14 23  1  0  0  0  0
 14 27  2  0  0  0  0
 15 24  2  0  0  0  0
 15 25  1  0  0  0  0
 16 29  2  0  0  0  0
 16 31  1  0  0  0  0
 17 32  1  0  0  0  0
 18 24  1  0  0  0  0
 18 35  1  0  0  0  0
 19 32  1  0  0  0  0
 19 33  2  0  0  0  0
 19 36  1  0  0  0  0
 20 22  2  0  0  0  0
 20 43  1  0  0  0  0
 21 23  2  0  0  0  0
 21 44  1  0  0  0  0
 22 52  1  0  0  0  0
 23 45  1  0  0  0  0
 24 55  1  0  0  0  0
 25 30  2  0  0  0  0
 25 71  1  0  0  0  0
 26 82  1  0  0  0  0
 27 83  1  0  0  0  0
 28 31  2  0  0  0  0
 28 82  1  0  0  0  0
 29 84  1  0  0  0  0
 30 85  1  0  0  0  0
 31 86  1  0  0  0  0
 32 64  2  0  0  0  0
 33 66  1  0  0  0  0
 33 69  1  0  0  0  0
 34 37  2  0  0  0  0
 34 83  1  0  0  0  0
 35 38  1  0  0  0  0
 35 65  2  0  0  0  0
 36 70  1  0  0  0  0
 36 75  2  0  0  0  0
 37 39  1  0  0  0  0
 37 81  1  0  0  0  0
 38 67  1  0  0  0  0
 38 76  2  0  0  0  0
 39 71  1  0  0  0  0
 39 77  2  0  0  0  0
 40 53  1  0  0  0  0
 40 72  1  0  0  0  0
 40 78  2  0  0  0  0
 41 61  1  0  0  0  0
 41 68  1  0  0  0  0
 41 79  2  0  0  0  0
 42 62  1  0  0  0  0
 42 73  1  0  0  0  0
 42 80  2  0  0  0  0
 43 46  1  0  0  0  0
 44 53  1  0  0  0  0
 45 68  1  0  0  0  0
 46 48  1  0  0  0  0
 47 49  1  0  0  0  0
 47 50  1  0  0  0  0
 48 52  1  0  0  0  0
 49 54  1  0  0  0  0
 50 67  1  0  0  0  0
 51 54  1  0  0  0  0
 51 67  1  0  0  0  0
 52 72  1  0  0  0  0
 53 68  1  0  0  0  0
 54 66  1  0  0  0  0
 56 62  1  0  0  0  0
 57 63  1  0  0  0  0
 58 63  1  0  0  0  0
 59 63  1  0  0  0  0
 60 74  1  0  0  0  0
 61 63  1  0  0  0  0
 61 73  1  0  0  0  0
 62 74  1  0  0  0  0
 64 66  1  0  0  0  0
M  CHG  1  74   1
M  ISO  4  34 101  35 100  38 100  83 101
M  END
> <Batch ID>
0095

> <Smiles>
CNC(C)C(=O)NC(C(=O)N1Cc2cc([101O:1][101CH2:1]C(=O)C(=O)Nc3cc(C)c([100C:0](=N)[100C:0](=O)N4CCCC(n5nc(-c6ccc(Oc7ccc(F)cc7F)cc6)c(C(N)=O)c5N)C4)cc3F)ccc2CC1C(=O)NC1CCCc2ccccc21)C(C)(C)C

> <Shape>
0.282

> <Color>
0.076

> <Negative vol penalty>
0.000

$$$$

  -OEChem-04052300433D

 87 96  0     1  0  0  0  0  0999 V2000
  -17.0456  -30.7888   23.2278 C   0  0  0  0  0  0  0  0  0  0  0  0
  -18.3463  -31.2452   23.0398 C   0  0  0  0  0  0  0  0  0  0  0  0
  -25.5154  -16.2735   20.6232 C   0  0  0  0  0  0  0  0  0  0  0  0
  -24.0199  -17.0233   18.8800 C   0  0  0  0  0  0  0  0  0  0  0  0
  -31.3308  -22.5395   16.8876 C   0  0  0  0  0  0  0  0  0  0  0  0
  -16.7972  -29.4214   23.3400 C   0  0  0  0  0  0  0  0  0  0  0  0
  -19.3996  -30.3344   22.9652 C   0  0  0  0  0  0  0  0  0  0  0  0
  -25.7428  -29.3842   19.7750 C   0  0  0  0  0  0  0  0  0  0  0  0
  -31.1537  -23.7737   17.5128 C   0  0  0  0  0  0  0  0  0  0  0  0
  -24.6113  -15.2684   20.9665 C   0  0  0  0  0  0  0  0  0  0  0  0
  -23.1158  -16.0181   19.2234 C   0  0  0  0  0  0  0  0  0  0  0  0
  -27.0699  -29.0886   20.0834 C   0  0  0  0  0  0  0  0  0  0  0  0
  -23.7138  -12.2223   19.8054 C   0  0  0  0  0  0  0  0  0  0  0  0
  -24.2212  -10.9422   20.0277 C   0  0  0  0  0  0  0  0  0  0  0  0
  -26.5119  -26.7452   20.2112 C   0  0  0  0  0  0  0  0  0  0  0  0
  -32.5220  -23.0335   19.3613 C   0  0  0  0  0  0  0  0  0  0  0  0
  -23.3671  -10.9961   22.2871 C   0  0  0  0  0  0  0  0  0  0  0  0
  -25.2197  -17.1510   19.5799 C   0  0  0  0  0  0  0  0  0  0  0  0
  -32.1034  -21.5522   17.4992 C   0  0  0  0  0  0  0  0  0  0  0  0
  -26.6196  -19.2312   20.0495 C   0  0  0  0  0  0  0  0  0  0  0  0
  -17.8468  -28.4929   23.2570 C   0  0  0  0  0  0  0  0  0  0  0  0
  -24.7864  -28.3619   19.6931 C   0  0  0  0  0  0  0  0  0  0  0  0
  -19.1652  -28.9534   23.0778 C   0  0  0  0  0  0  0  0  0  0  0  0
  -25.1738  -27.0302   19.8992 C   0  0  0  0  0  0  0  0  0  0  0  0
  -31.7493  -24.0207   18.7497 C   0  0  0  0  0  0  0  0  0  0  0  0
  -23.4115  -15.1407   20.2666 C   0  0  0  0  0  0  0  0  0  0  0  0
  -27.4541  -27.7692   20.3044 C   0  0  0  0  0  0  0  0  0  0  0  0
  -23.0330  -12.8893   20.8239 C   0  0  0  0  0  0  0  0  0  0  0  0
  -24.0479  -10.3291   21.2686 C   0  0  0  0  0  0  0  0  0  0  0  0
  -32.6990  -21.7993   18.7361 C   0  0  0  0  0  0  0  0  0  0  0  0
  -22.8597  -12.2762   22.0647 C   0  0  0  0  0  0  0  0  0  0  0  0
  -26.1529  -18.1899   19.2251 C   0  0  0  0  0  0  0  0  0  0  0  0
  -27.4802  -19.9428   19.2498 C   0  0  0  0  0  0  0  0  0  0  0  0
  -30.8200  -26.3754   18.9006 C   0  0  0  0  0  0  0  0  0  0  0  0
  -32.2831  -20.2658   16.8448 C   0  0  0  0  0  0  0  0  0  0  0  0
  -26.3035  -19.5287   21.4160 C   0  0  0  0  0  0  0  0  0  0  0  0
  -31.6606  -19.9746   15.5330 C   0  0  0  0  0  0  0  0  0  0  0  0
  -22.1122  -27.6610   21.2619 C   0  0  0  0  0  0  0  0  0  0  0  0
  -21.8597  -25.3414   19.0085 C   0  0  0  0  0  0  0  0  0  0  0  0
  -24.0706  -23.0027   17.3775 C   0  0  0  0  0  0  0  0  0  0  0  0
  -17.5351  -27.0276   23.4314 C   0  0  0  0  0  0  0  0  0  0  0  0
  -23.3643  -28.6946   19.3332 C   0  0  0  0  0  0  0  0  0  0  0  0
  -24.1897  -25.8941   19.8030 C   0  0  0  0  0  0  0  0  0  0  0  0
  -18.6599  -26.1062   22.9664 C   0  0  0  0  0  0  0  0  0  0  0  0
  -28.3129  -19.7208   14.2740 C   0  0  0  0  0  0  0  0  0  0  0  0
  -20.0039  -26.5942   23.4977 C   0  0  0  0  0  0  0  0  0  0  0  0
  -27.4977  -19.3469   15.5115 C   0  0  0  0  0  0  0  0  0  0  0  0
  -31.4764  -26.8361   21.1451 C   0  0  0  0  0  0  0  0  0  0  0  0
  -29.7058  -19.1008   14.3148 C   0  0  0  0  0  0  0  0  0  0  0  0
  -32.2105  -25.6047   20.6500 C   0  0  0  0  0  0  0  0  0  0  0  0
  -29.6656  -19.0624   16.7938 C   0  0  0  0  0  0  0  0  0  0  0  0
  -20.3311  -27.9951   22.9669 C   0  0  1  0  0  0  0  0  0  0  0  0
  -22.3694  -27.6286   19.7819 C   0  0  1  0  0  0  0  0  0  0  0  0
  -28.2622  -19.6930   16.8016 C   0  0  2  0  0  0  0  0  0  0  0  0
  -31.0351  -27.5437   19.8615 C   0  0  1  0  0  0  0  0  0  0  0  0
  -32.1416  -28.4479   19.3058 C   0  0  0  0  0  0  0  0  0  0  0  0
  -23.9218  -21.9207   15.1182 C   0  0  0  0  0  0  0  0  0  0  0  0
  -20.5089  -23.0560   20.5126 C   0  0  0  0  0  0  0  0  0  0  0  0
  -21.7240  -21.4509   19.0242 C   0  0  0  0  0  0  0  0  0  0  0  0
  -20.0969  -23.0689   18.0459 C   0  0  0  0  0  0  0  0  0  0  0  0
  -26.7533  -23.9834   16.6028 C   0  0  0  0  0  0  0  0  0  0  0  0
  -29.7505  -28.3418   20.0709 C   0  0  0  0  0  0  0  0  0  1  0  0
  -22.3264  -23.9106   18.8902 C   0  0  1  0  0  0  0  0  0  0  0  0
  -24.5362  -23.0480   15.9334 C   0  0  2  0  0  0  0  0  0  0  0  0
  -21.1784  -22.8907   19.1337 C   0  0  0  0  0  0  0  0  0  0  0  0
  -26.6738  -18.2325   17.9959 N   0  0  0  0  0  0  0  0  0  0  0  0
  -32.9927  -19.2956   17.3545 N   0  0  0  0  0  0  0  0  0  0  0  0
  -27.4766  -19.3092   18.0420 N   0  0  0  0  0  0  0  0  0  0  0  0
  -31.5679  -25.2842   19.3896 N   0  0  0  0  0  0  0  0  0  0  0  0
  -30.3894  -19.4186   15.5669 N   0  0  0  0  0  0  0  0  0  0  0  0
  -22.8098  -26.2710   19.4547 N   0  0  0  0  0  0  0  0  0  0  0  0
  -28.2321  -21.0424   19.4689 N   0  0  0  0  0  0  0  0  0  0  0  0
  -25.4001  -18.6952   22.0895 N   0  0  0  0  0  0  0  0  0  0  0  0
  -20.7976  -27.9210   21.5989 N   0  0  0  0  0  0  0  0  0  0  0  0
  -22.9607  -23.7950   17.5814 N   0  0  0  0  0  0  0  0  0  0  0  0
  -26.0197  -22.9243   15.8633 N   0  3  0  0  0  0  0  0  0  0  0  0
  -30.1549  -26.4677   17.8781 O   0  0  0  0  0  0  0  0  0  0  0  0
  -26.7946  -20.5143   22.0168 O   0  0  0  0  0  0  0  0  0  0  0  0
  -32.3383  -20.2566   14.5534 O   0  0  0  0  0  0  0  0  0  0  0  0
  -23.0376  -27.4633   22.0405 O   0  0  0  0  0  0  0  0  0  0  0  0
  -20.6972  -25.6250   18.7092 O   0  0  0  0  0  0  0  0  0  0  0  0
  -24.6329  -22.3287   18.2378 O   0  0  0  0  0  0  0  0  0  0  0  0
  -22.5291  -14.1598   20.6013 O   0  0  0  0  0  0  0  0  0  0  0  0
  -28.7487  -27.4780   20.6061 O   0  0  0  0  0  0  0  0  0  1  0  0
  -24.5339   -9.0992   21.4815 F   0  0  0  0  0  0  0  0  0  0  0  0
  -33.4434  -20.8577   19.3334 F   0  0  0  0  0  0  0  0  0  0  0  0
  -22.2055  -12.9116   23.0466 F   0  0  0  0  0  0  0  0  0  0  0  0
  1  2  1  0  0  0  0
  1  6  2  0  0  0  0
  2  7  2  0  0  0  0
  3 10  2  0  0  0  0
  3 18  1  0  0  0  0
  4 11  1  0  0  0  0
  4 18  2  0  0  0  0
  5  9  2  0  0  0  0
  5 19  1  0  0  0  0
  6 21  1  0  0  0  0
  7 23  1  0  0  0  0
  8 12  2  0  0  0  0
  8 22  1  0  0  0  0
  9 25  1  0  0  0  0
 10 26  1  0  0  0  0
 11 26  2  0  0  0  0
 12 27  1  0  0  0  0
 13 14  2  0  0  0  0
 13 28  1  0  0  0  0
 14 29  1  0  0  0  0
 15 24  1  0  0  0  0
 15 27  2  0  0  0  0
 16 25  2  0  0  0  0
 16 30  1  0  0  0  0
 17 29  2  0  0  0  0
 17 31  1  0  0  0  0
 18 32  1  0  0  0  0
 19 30  2  0  0  0  0
 19 35  1  0  0  0  0
 20 32  1  0  0  0  0
 20 33  2  0  0  0  0
 20 36  1  0  0  0  0
 21 23  2  0  0  0  0
 21 41  1  0  0  0  0
 22 24  2  0  0  0  0
 22 42  1  0  0  0  0
 23 52  1  0  0  0  0
 24 43  1  0  0  0  0
 25 69  1  0  0  0  0
 26 83  1  0  0  0  0
 27 84  1  0  0  0  0
 28 31  2  0  0  0  0
 28 83  1  0  0  0  0
 29 85  1  0  0  0  0
 30 86  1  0  0  0  0
 31 87  1  0  0  0  0
 32 66  2  0  0  0  0
 33 68  1  0  0  0  0
 33 72  1  0  0  0  0
 34 55  1  0  0  0  0
 34 69  1  0  0  0  0
 34 77  2  0  0  0  0
 35 37  1  0  0  0  0
 35 67  2  0  0  0  0
 36 73  1  0  0  0  0
 36 78  2  0  0  0  0
 37 70  1  0  0  0  0
 37 79  2  0  0  0  0
 38 53  1  0  0  0  0
 38 74  1  0  0  0  0
 38 80  2  0  0  0  0
 39 63  1  0  0  0  0
 39 71  1  0  0  0  0
 39 81  2  0  0  0  0
 40 64  1  0  0  0  0
 40 75  1  0  0  0  0
 40 82  2  0  0  0  0
 41 44  1  0  0  0  0
 42 53  1  0  0  0  0
 43 71  1  0  0  0  0
 44 46  1  0  0  0  0
 45 47  1  0  0  0  0
 45 49  1  0  0  0  0
 46 52  1  0  0  0  0
 47 54  1  0  0  0  0
 48 50  1  0  0  0  0
 48 55  1  0  0  0  0
 49 70  1  0  0  0  0
 50 69  1  0  0  0  0
 51 54  1  0  0  0  0
 51 70  1  0  0  0  0
 52 74  1  0  0  0  0
 53 71  1  0  0  0  0
 54 68  1  0  0  0  0
 55 56  1  0  0  0  0
 55 62  1  0  0  0  0
 57 64  1  0  0  0  0
 58 65  1  0  0  0  0
 59 65  1  0  0  0  0
 60 65  1  0  0  0  0
 61 76  1  0  0  0  0
 62 84  1  0  0  0  0
 63 65  1  0  0  0  0
 63 75  1  0  0  0  0
 64 76  1  0  0  0  0
 66 68  1  0  0  0  0
M  CHG  1  76   1
M  ISO  4  35 100  37 100  62 101  84 101
M  END
> <Batch ID>
0095

> <Smiles>
CNC(C)C(=O)NC(C(=O)N1Cc2cc([101O:1][101CH2:1]C3(C)CCN(c4ccc([100C:0](=N)[100C:0](=O)N5CCCC(n6nc(-c7ccc(Oc8ccc(F)cc8F)cc7)c(C(N)=O)c6N)C5)c(F)c4)C3=O)ccc2CC1C(=O)NC1CCCc2ccccc21)C(C)(C)C

> <Shape>
0.217

> <Color>
0.069

> <Negative vol penalty>
0.000

$$$$

  -OEChem-04052300433D

 86 95  0     1  0  0  0  0  0999 V2000
  -19.5418  -29.6976   21.0767 C   0  0  0  0  0  0  0  0  0  0  0  0
  -19.7569  -28.4990   20.4040 C   0  0  0  0  0  0  0  0  0  0  0  0
  -30.7281  -17.0390   14.1989 C   0  0  0  0  0  0  0  0  0  0  0  0
  -23.1836   -9.8220   19.9286 C   0  0  0  0  0  0  0  0  0  0  0  0
  -23.5575   -9.9943   22.3093 C   0  0  0  0  0  0  0  0  0  0  0  0
  -20.2983  -30.8230   20.7527 C   0  0  0  0  0  0  0  0  0  0  0  0
  -20.7280  -28.4255   19.4060 C   0  0  0  0  0  0  0  0  0  0  0  0
  -24.2846  -23.6204   18.0767 C   0  0  0  0  0  0  0  0  0  0  0  0
  -29.7029  -17.9077   13.8252 C   0  0  0  0  0  0  0  0  0  0  0  0
  -30.6043  -16.2713   15.3570 C   0  0  0  0  0  0  0  0  0  0  0  0
  -22.4137   -8.6769   20.1324 C   0  0  0  0  0  0  0  0  0  0  0  0
  -22.7876   -8.8491   22.5131 C   0  0  0  0  0  0  0  0  0  0  0  0
  -24.1942  -22.6276   17.1020 C   0  0  0  0  0  0  0  0  0  0  0  0
  -23.1801   -5.5021   22.2398 C   0  0  0  0  0  0  0  0  0  0  0  0
  -23.6740   -4.5368   23.1171 C   0  0  0  0  0  0  0  0  0  0  0  0
  -25.6834  -23.8908   15.6858 C   0  0  0  0  0  0  0  0  0  0  0  0
  -21.7153   -4.7980   24.5073 C   0  0  0  0  0  0  0  0  0  0  0  0
  -23.7555  -10.4807   21.0171 C   0  0  0  0  0  0  0  0  0  0  0  0
  -24.1016  -12.9972   20.7815 C   0  0  0  0  0  0  0  0  0  0  0  0
  -21.2858  -30.7607   19.7568 C   0  0  0  0  0  0  0  0  0  0  0  0
  -25.0678  -24.7629   17.8584 C   0  0  0  0  0  0  0  0  0  0  0  0
  -21.4974  -29.5515   19.0673 C   0  0  0  0  0  0  0  0  0  0  0  0
  -25.7841  -24.8954   16.6603 C   0  0  0  0  0  0  0  0  0  0  0  0
  -28.5538  -18.0089   14.6094 C   0  0  0  0  0  0  0  0  0  0  0  0
  -29.4553  -16.3725   16.1413 C   0  0  0  0  0  0  0  0  0  0  0  0
  -22.2157   -8.1904   21.4246 C   0  0  0  0  0  0  0  0  0  0  0  0
  -24.8913  -22.7641   15.9052 C   0  0  0  0  0  0  0  0  0  0  0  0
  -21.9538   -6.1155   22.4962 C   0  0  0  0  0  0  0  0  0  0  0  0
  -22.9417   -4.1847   24.2509 C   0  0  0  0  0  0  0  0  0  0  0  0
  -21.2214   -5.7634   23.6299 C   0  0  0  0  0  0  0  0  0  0  0  0
  -28.4300  -17.2413   15.7675 C   0  0  0  0  0  0  0  0  0  0  0  0
  -24.5513  -11.6634   20.8072 C   0  0  0  0  0  0  0  0  0  0  0  0
  -25.2353  -13.7374   20.5508 C   0  0  0  0  0  0  0  0  0  0  0  0
  -27.4068  -19.7114   13.1832 C   0  0  0  0  0  0  0  0  0  0  0  0
  -22.7774  -13.5202   20.9512 C   0  0  0  0  0  0  0  0  0  0  0  0
  -24.4820  -27.8813   17.6687 C   0  0  0  0  0  0  0  0  0  0  0  0
  -27.7158  -28.0838   17.5156 C   0  0  0  0  0  0  0  0  0  0  0  0
  -30.6809  -26.5715   16.7619 C   0  0  0  0  0  0  0  0  0  0  0  0
  -29.9506  -14.3125   17.4476 C   0  0  0  0  0  0  0  0  0  0  0  0
  -22.0458  -32.0160   19.4086 C   0  0  0  0  0  0  0  0  0  0  0  0
  -25.1761  -25.8121   18.9307 C   0  0  0  0  0  0  0  0  0  0  0  0
  -26.6549  -26.0931   16.3854 C   0  0  0  0  0  0  0  0  0  0  0  0
  -23.3128  -31.7558   18.5979 C   0  0  0  0  0  0  0  0  0  0  0  0
  -30.1118  -12.4302   20.6163 C   0  0  0  0  0  0  0  0  0  0  0  0
  -23.0269  -30.7831   17.4581 C   0  0  0  0  0  0  0  0  0  0  0  0
  -28.6436  -12.1203   20.9033 C   0  0  0  0  0  0  0  0  0  0  0  0
  -30.3864  -12.5371   19.1193 C   0  0  0  0  0  0  0  0  0  0  0  0
  -28.0392  -13.2061   18.7031 C   0  0  0  0  0  0  0  0  0  0  0  0
  -26.2600  -19.1604   14.8625 C   0  0  0  0  0  0  0  0  0  0  0  0
  -22.5586  -29.4255   17.9958 C   0  0  1  0  0  0  0  0  0  0  0  0
  -25.5948  -27.1765   18.3916 C   0  0  1  0  0  0  0  0  0  0  0  0
  -27.7220  -13.1347   20.2045 C   0  0  1  0  0  0  0  0  0  0  0  0
  -26.0057  -20.1571   13.6920 C   0  0  2  0  0  0  0  0  0  0  0  0
  -24.8601  -19.7688   12.7638 C   0  0  0  0  0  0  0  0  0  0  0  0
  -33.1525  -27.0016   16.7025 C   0  0  0  0  0  0  0  0  0  0  0  0
  -27.3676  -29.7178   14.9624 C   0  0  0  0  0  0  0  0  0  0  0  0
  -29.7834  -29.3044   14.4513 C   0  0  0  0  0  0  0  0  0  0  0  0
  -29.1430  -30.5628   16.5077 C   0  0  0  0  0  0  0  0  0  0  0  0
  -28.7560  -16.1985   18.5366 C   0  0  0  0  0  0  0  0  0  0  0  0
  -31.2185  -24.4297   18.7324 C   0  0  0  0  0  0  0  0  0  0  0  0
  -25.9392  -21.6143   14.1063 C   0  0  0  0  0  0  0  0  0  1  0  0
  -28.7364  -28.0697   16.4033 C   0  0  1  0  0  0  0  0  0  0  0  0
  -31.9878  -26.4786   17.5286 C   0  0  2  0  0  0  0  0  0  0  0  0
  -28.7397  -29.3919   15.5852 C   0  0  0  0  0  0  0  0  0  0  0  0
  -25.8680  -11.5593   20.6084 N   0  0  0  0  0  0  0  0  0  0  0  0
  -26.2553  -12.8371   20.4556 N   0  0  0  0  0  0  0  0  0  0  0  0
  -27.5448  -18.8664   14.2378 N   0  0  0  0  0  0  0  0  0  0  0  0
  -26.7233  -27.0948   17.4621 N   0  0  0  0  0  0  0  0  0  0  0  0
  -29.4671  -13.4734   18.4715 N   0  0  0  0  0  0  0  0  0  0  0  0
  -25.4491  -15.0641   20.4219 N   0  0  0  0  0  0  0  0  0  0  0  0
  -21.7278  -12.6201   21.1805 N   0  0  0  0  0  0  0  0  0  0  0  0
  -23.6849  -28.6602   18.4858 N   0  0  0  0  0  0  0  0  0  0  0  0
  -30.0158  -27.7498   17.0272 N   0  0  0  0  0  0  0  0  0  0  0  0
  -29.3308  -15.5763   17.3393 N   0  0  0  0  0  0  0  0  0  0  0  0
  -32.2720  -25.0631   17.8983 N   0  3  0  0  0  0  0  0  0  0  0  0
  -28.1203  -19.9780   12.2430 O   0  0  0  0  0  0  0  0  0  0  0  0
  -22.5297  -14.7481   20.8847 O   0  0  0  0  0  0  0  0  0  0  0  0
  -24.3567  -27.7309   16.4590 O   0  0  0  0  0  0  0  0  0  0  0  0
  -27.8004  -28.9362   18.4031 O   0  0  0  0  0  0  0  0  0  0  0  0
  -30.2910  -25.6888   16.0007 O   0  0  0  0  0  0  0  0  0  0  0  0
  -30.8819  -13.9706   16.7091 O   0  0  0  0  0  0  0  0  0  0  0  0
  -21.4644   -7.0731   21.6238 O   0  0  0  0  0  0  0  0  0  0  0  0
  -24.8043  -21.7968   14.9519 O   0  0  0  0  0  0  0  0  0  1  0  0
  -23.4154   -3.2566   25.0925 F   0  0  0  0  0  0  0  0  0  0  0  0
  -20.0421   -6.3483   23.8809 F   0  0  0  0  0  0  0  0  0  0  0  0
  -27.3249  -17.3394   16.5224 F   0  0  0  0  0  0  0  0  0  0  0  0
  1  2  1  0  0  0  0
  1  6  2  0  0  0  0
  2  7  2  0  0  0  0
  3  9  2  0  0  0  0
  3 10  1  0  0  0  0
  4 11  2  0  0  0  0
  4 18  1  0  0  0  0
  5 12  1  0  0  0  0
  5 18  2  0  0  0  0
  6 20  1  0  0  0  0
  7 22  1  0  0  0  0
  8 13  2  0  0  0  0
  8 21  1  0  0  0  0
  9 24  1  0  0  0  0
 10 25  2  0  0  0  0
 11 26  1  0  0  0  0
 12 26  2  0  0  0  0
 13 27  1  0  0  0  0
 14 15  2  0  0  0  0
 14 28  1  0  0  0  0
 15 29  1  0  0  0  0
 16 23  1  0  0  0  0
 16 27  2  0  0  0  0
 17 29  2  0  0  0  0
 17 30  1  0  0  0  0
 18 32  1  0  0  0  0
 19 32  1  0  0  0  0
 19 33  2  0  0  0  0
 19 35  1  0  0  0  0
 20 22  2  0  0  0  0
 20 40  1  0  0  0  0
 21 23  2  0  0  0  0
 21 41  1  0  0  0  0
 22 50  1  0  0  0  0
 23 42  1  0  0  0  0
 24 31  2  0  0  0  0
 24 67  1  0  0  0  0
 25 31  1  0  0  0  0
 25 74  1  0  0  0  0
 26 82  1  0  0  0  0
 27 83  1  0  0  0  0
 28 30  2  0  0  0  0
 28 82  1  0  0  0  0
 29 84  1  0  0  0  0
 30 85  1  0  0  0  0
 31 86  1  0  0  0  0
 32 65  2  0  0  0  0
 33 66  1  0  0  0  0
 33 70  1  0  0  0  0
 34 53  1  0  0  0  0
 34 67  1  0  0  0  0
 34 76  2  0  0  0  0
 35 71  1  0  0  0  0
 35 77  2  0  0  0  0
 36 51  1  0  0  0  0
 36 72  1  0  0  0  0
 36 78  2  0  0  0  0
 37 62  1  0  0  0  0
 37 68  1  0  0  0  0
 37 79  2  0  0  0  0
 38 63  1  0  0  0  0
 38 73  1  0  0  0  0
 38 80  2  0  0  0  0
 39 69  1  0  0  0  0
 39 74  1  0  0  0  0
 39 81  2  0  0  0  0
 40 43  1  0  0  0  0
 41 51  1  0  0  0  0
 42 68  1  0  0  0  0
 43 45  1  0  0  0  0
 44 46  1  0  0  0  0
 44 47  1  0  0  0  0
 45 50  1  0  0  0  0
 46 52  1  0  0  0  0
 47 69  1  0  0  0  0
 48 52  1  0  0  0  0
 48 69  1  0  0  0  0
 49 53  1  0  0  0  0
 49 67  1  0  0  0  0
 50 72  1  0  0  0  0
 51 68  1  0  0  0  0
 52 66  1  0  0  0  0
 53 54  1  0  0  0  0
 53 61  1  0  0  0  0
 55 63  1  0  0  0  0
 56 64  1  0  0  0  0
 57 64  1  0  0  0  0
 58 64  1  0  0  0  0
 59 74  1  0  0  0  0
 60 75  1  0  0  0  0
 61 83  1  0  0  0  0
 62 64  1  0  0  0  0
 62 73  1  0  0  0  0
 63 75  1  0  0  0  0
 65 66  1  0  0  0  0
M  CHG  1  75   1
M  ISO  4  39 100  61 101  74 100  83 101
M  END
> <Batch ID>
0095

> <Smiles>
CNC(C)C(=O)NC(C(=O)N1Cc2cc([101O:1][101CH2:1]C3(C)CN(c4cccc([100N:0](C)[100C:0](=O)N5CCCC(n6nc(-c7ccc(Oc8ccc(F)cc8F)cc7)c(C(N)=O)c6N)C5)c4F)C3=O)ccc2CC1C(=O)NC1CCCc2ccccc21)C(C)(C)C

> <Shape>
0.181

> <Color>
0.186

> <Negative vol penalty>
0.000

$$$$

  -OEChem-04052300433D

 87 95  0     1  0  0  0  0  0999 V2000
  -21.3334   -7.7185   22.1396 C   0  0  0  0  0  0  0  0  0  0  0  0
  -22.3158   -8.3919   21.4206 C   0  0  0  0  0  0  0  0  0  0  0  0
  -22.6690  -29.1574   21.1081 C   0  0  0  0  0  0  0  0  0  0  0  0
  -23.8916  -28.4772   23.0778 C   0  0  0  0  0  0  0  0  0  0  0  0
  -20.1992   -8.4017   22.5763 C   0  0  0  0  0  0  0  0  0  0  0  0
  -22.1639   -9.7487   21.1369 C   0  0  0  0  0  0  0  0  0  0  0  0
  -26.4050  -12.3915   21.9579 C   0  0  0  0  0  0  0  0  0  0  0  0
  -31.1233  -18.9543   19.0431 C   0  0  0  0  0  0  0  0  0  0  0  0
  -31.1534  -17.5599   19.0595 C   0  0  0  0  0  0  0  0  0  0  0  0
  -21.6403  -29.6440   21.9147 C   0  0  0  0  0  0  0  0  0  0  0  0
  -22.8629  -28.9639   23.8844 C   0  0  0  0  0  0  0  0  0  0  0  0
  -27.4046  -12.3083   20.9895 C   0  0  0  0  0  0  0  0  0  0  0  0
  -18.5294  -30.7408   23.4454 C   0  0  0  0  0  0  0  0  0  0  0  0
  -17.2181  -30.4341   23.0821 C   0  0  0  0  0  0  0  0  0  0  0  0
  -26.6972  -14.4301   20.0858 C   0  0  0  0  0  0  0  0  0  0  0  0
  -29.6099  -17.5048   17.2016 C   0  0  0  0  0  0  0  0  0  0  0  0
  -17.7127  -28.0781   23.2859 C   0  0  0  0  0  0  0  0  0  0  0  0
  -23.7947  -28.5740   21.6897 C   0  0  0  0  0  0  0  0  0  0  0  0
  -25.9864  -28.7766   20.4002 C   0  0  0  0  0  0  0  0  0  0  0  0
  -20.0379   -9.7698   22.3062 C   0  0  0  0  0  0  0  0  0  0  0  0
  -25.5356  -13.4913   21.9908 C   0  0  0  0  0  0  0  0  0  0  0  0
  -21.0259  -10.4505   21.5693 C   0  0  0  0  0  0  0  0  0  0  0  0
  -25.6891  -14.5261   21.0572 C   0  0  0  0  0  0  0  0  0  0  0  0
  -30.3365  -19.6240   18.1060 C   0  0  0  0  0  0  0  0  0  0  0  0
  -30.3967  -16.8351   18.1388 C   0  0  0  0  0  0  0  0  0  0  0  0
  -21.7372  -29.5473   23.3028 C   0  0  0  0  0  0  0  0  0  0  0  0
  -27.5490  -13.3263   20.0515 C   0  0  0  0  0  0  0  0  0  0  0  0
  -19.4324  -29.7161   23.7289 C   0  0  0  0  0  0  0  0  0  0  0  0
  -16.8097  -29.1028   23.0024 C   0  0  0  0  0  0  0  0  0  0  0  0
  -29.5798  -18.8992   17.1853 C   0  0  0  0  0  0  0  0  0  0  0  0
  -19.0240  -28.3848   23.6491 C   0  0  0  0  0  0  0  0  0  0  0  0
  -24.8574  -28.0706   20.8570 C   0  0  0  0  0  0  0  0  0  0  0  0
  -26.6844  -27.8606   19.6517 C   0  0  0  0  0  0  0  0  0  0  0  0
  -26.3700  -30.1385   20.6319 C   0  0  0  0  0  0  0  0  0  0  0  0
  -22.3973  -13.8801   21.6694 C   0  0  0  0  0  0  0  0  0  0  0  0
  -30.8505  -21.7055   16.7805 C   0  0  0  0  0  0  0  0  0  0  0  0
  -23.0879  -16.9456   22.4743 C   0  0  0  0  0  0  0  0  0  0  0  0
  -31.1473  -14.5968   19.0166 C   0  0  0  0  0  0  0  0  0  0  0  0
  -25.3958  -19.4561   22.6088 C   0  0  0  0  0  0  0  0  0  0  0  0
  -28.8118  -22.8572   19.0299 C   0  0  0  0  0  0  0  0  0  0  0  0
  -18.7725  -10.4547   22.7581 C   0  0  0  0  0  0  0  0  0  0  0  0
  -24.4796  -13.5788   23.0583 C   0  0  0  0  0  0  0  0  0  0  0  0
  -24.7945  -15.7378   21.0622 C   0  0  0  0  0  0  0  0  0  0  0  0
  -18.8646  -11.9783   22.7395 C   0  0  0  0  0  0  0  0  0  0  0  0
  -25.3658  -23.2639   18.0018 C   0  0  0  0  0  0  0  0  0  0  0  0
  -19.4804  -12.4600   21.4297 C   0  0  0  0  0  0  0  0  0  0  0  0
  -25.0215  -24.6194   18.6215 C   0  0  0  0  0  0  0  0  0  0  0  0
  -26.2787  -22.4534   18.9172 C   0  0  0  0  0  0  0  0  0  0  0  0
  -27.1941  -24.5062   19.9279 C   0  0  0  0  0  0  0  0  0  0  0  0
  -20.9090  -11.9279   21.2633 C   0  0  1  0  0  0  0  0  0  0  0  0
  -23.3221  -14.4977   22.6798 C   0  0  1  0  0  0  0  0  0  0  0  0
  -26.2918  -25.3829   19.0405 C   0  0  2  0  0  0  0  0  0  0  0  0
  -29.9527  -22.5538   15.9152 C   0  0  0  0  0  0  0  0  0  0  0  0
  -25.6550  -21.8596   23.2818 C   0  0  0  0  0  0  0  0  0  0  0  0
  -21.6108  -17.8098   19.9482 C   0  0  0  0  0  0  0  0  0  0  0  0
  -22.6975  -20.0549   20.1645 C   0  0  0  0  0  0  0  0  0  0  0  0
  -21.1668  -19.2344   21.9552 C   0  0  0  0  0  0  0  0  0  0  0  0
  -27.4540  -18.7893   24.6283 C   0  0  0  0  0  0  0  0  0  0  0  0
  -30.8913  -13.1298   18.6904 C   0  0  0  0  0  0  0  0  0  0  0  0
  -29.7144  -12.5441   19.4557 C   0  0  0  0  0  0  0  0  0  1  0  0
  -30.3087  -21.1153   18.0907 C   0  0  1  0  0  0  0  0  0  0  0  0
  -23.4581  -18.1940   21.7104 C   0  0  1  0  0  0  0  0  0  0  0  0
  -25.7824  -20.4102   23.7243 C   0  0  2  0  0  0  0  0  0  0  0  0
  -22.2491  -18.7996   20.9430 C   0  0  0  0  0  0  0  0  0  0  0  0
  -24.8353  -26.8039   20.4339 N   0  0  0  0  0  0  0  0  0  0  0  0
  -25.9591  -26.7068   19.7033 N   0  0  0  0  0  0  0  0  0  0  0  0
  -23.7730  -15.7742   22.1218 N   0  0  0  0  0  0  0  0  0  0  0  0
  -27.4776  -23.2297   19.2635 N   0  0  0  0  0  0  0  0  0  0  0  0
  -27.8417  -27.9378   18.9609 N   0  0  0  0  0  0  0  0  0  0  0  0
  -25.5383  -30.9413   21.4245 N   0  0  0  0  0  0  0  0  0  0  0  0
  -30.4256  -15.4203   18.1567 N   0  0  0  0  0  0  0  0  0  0  0  0
  -21.8301  -12.6889   22.0801 N   0  0  0  0  0  0  0  0  0  0  0  0
  -24.0655  -19.1002   22.6791 N   0  0  0  0  0  0  0  0  0  0  0  0
  -28.9942  -21.6308   18.4027 N   0  0  0  0  0  0  0  0  0  0  0  0
  -27.1912  -20.1699   24.1466 N   0  3  0  0  0  0  0  0  0  0  0  0
  -27.4108  -30.6337   20.1369 O   0  0  0  0  0  0  0  0  0  0  0  0
  -22.2109  -14.4434   20.5972 O   0  0  0  0  0  0  0  0  0  0  0  0
  -32.0243  -21.5143   16.4504 O   0  0  0  0  0  0  0  0  0  0  0  0
  -22.2278  -17.0090   23.3562 O   0  0  0  0  0  0  0  0  0  0  0  0
  -31.8971  -14.9427   19.9236 O   0  0  0  0  0  0  0  0  0  0  0  0
  -26.1932  -19.0683   21.7577 O   0  0  0  0  0  0  0  0  0  0  0  0
  -29.7703  -23.5678   19.3518 O   0  0  0  0  0  0  0  0  0  0  0  0
  -20.7337  -30.0222   24.0902 O   0  0  0  0  0  0  0  0  0  0  0  0
  -28.5233  -13.2473   19.1048 O   0  0  0  0  0  0  0  0  0  1  0  0
  -15.5500  -28.8084   22.6550 F   0  0  0  0  0  0  0  0  0  0  0  0
  -28.8209  -19.5338   16.2810 F   0  0  0  0  0  0  0  0  0  0  0  0
  -19.8867  -27.3961   23.9214 F   0  0  0  0  0  0  0  0  0  0  0  0
  1  2  1  0  0  0  0
  1  5  2  0  0  0  0
  2  6  2  0  0  0  0
  3 10  2  0  0  0  0
  3 18  1  0  0  0  0
  4 11  1  0  0  0  0
  4 18  2  0  0  0  0
  5 20  1  0  0  0  0
  6 22  1  0  0  0  0
  7 12  2  0  0  0  0
  7 21  1  0  0  0  0
  8  9  2  0  0  0  0
  8 24  1  0  0  0  0
  9 25  1  0  0  0  0
 10 26  1  0  0  0  0
 11 26  2  0  0  0  0
 12 27  1  0  0  0  0
 13 14  2  0  0  0  0
 13 28  1  0  0  0  0
 14 29  1  0  0  0  0
 15 23  1  0  0  0  0
 15 27  2  0  0  0  0
 16 25  2  0  0  0  0
 16 30  1  0  0  0  0
 17 29  2  0  0  0  0
 17 31  1  0  0  0  0
 18 32  1  0  0  0  0
 19 32  1  0  0  0  0
 19 33  2  0  0  0  0
 19 34  1  0  0  0  0
 20 22  2  0  0  0  0
 20 41  1  0  0  0  0
 21 23  2  0  0  0  0
 21 42  1  0  0  0  0
 22 50  1  0  0  0  0
 23 43  1  0  0  0  0
 24 30  2  0  0  0  0
 24 61  1  0  0  0  0
 25 71  1  0  0  0  0
 26 83  1  0  0  0  0
 27 84  1  0  0  0  0
 28 31  2  0  0  0  0
 28 83  1  0  0  0  0
 29 85  1  0  0  0  0
 30 86  1  0  0  0  0
 31 87  1  0  0  0  0
 32 65  2  0  0  0  0
 33 66  1  0  0  0  0
 33 69  1  0  0  0  0
 34 70  1  0  0  0  0
 34 76  2  0  0  0  0
 35 51  1  0  0  0  0
 35 72  1  0  0  0  0
 35 77  2  0  0  0  0
 36 53  1  0  0  0  0
 36 61  1  0  0  0  0
 36 78  2  0  0  0  0
 37 62  1  0  0  0  0
 37 67  1  0  0  0  0
 37 79  2  0  0  0  0
 38 59  1  0  0  0  0
 38 71  1  0  0  0  0
 38 80  2  0  0  0  0
 39 63  1  0  0  0  0
 39 73  1  0  0  0  0
 39 81  2  0  0  0  0
 40 68  1  0  0  0  0
 40 74  1  0  0  0  0
 40 82  2  0  0  0  0
 41 44  1  0  0  0  0
 42 51  1  0  0  0  0
 43 67  1  0  0  0  0
 44 46  1  0  0  0  0
 45 47  1  0  0  0  0
 45 48  1  0  0  0  0
 46 50  1  0  0  0  0
 47 52  1  0  0  0  0
 48 68  1  0  0  0  0
 49 52  1  0  0  0  0
 49 68  1  0  0  0  0
 50 72  1  0  0  0  0
 51 67  1  0  0  0  0
 52 66  1  0  0  0  0
 54 63  1  0  0  0  0
 55 64  1  0  0  0  0
 56 64  1  0  0  0  0
 57 64  1  0  0  0  0
 58 75  1  0  0  0  0
 59 60  1  0  0  0  0
 60 84  1  0  0  0  0
 61 74  1  0  0  0  0
 62 64  1  0  0  0  0
 62 73  1  0  0  0  0
 63 75  1  0  0  0  0
 65 66  1  0  0  0  0
M  CHG  1  75   1
M  ISO  4  40 100  60 101  74 100  84 101
M  END
> <Batch ID>
0095

> <Smiles>
CNC(C)C(=O)NC(C(=O)N1Cc2cc([101O:1][101CH2:1]CC(=O)Nc3ccc(C([100NH:0][100C:0](=O)N4CCCC(n5nc(-c6ccc(Oc7ccc(F)cc7F)cc6)c(C(N)=O)c5N)C4)C(C)=O)c(F)c3)ccc2CC1C(=O)NC1CCCc2ccccc21)C(C)(C)C

> <Shape>
0.246

> <Color>
0.092

> <Negative vol penalty>
0.000

$$$$

  -OEChem-04052300433D

 86 95  0     1  0  0  0  0  0999 V2000
  -23.1737  -10.9222   18.4612 C   0  0  0  0  0  0  0  0  0  0  0  0
  -22.5212  -12.1462   18.5680 C   0  0  0  0  0  0  0  0  0  0  0  0
  -30.3197  -27.0851   24.7783 C   0  0  0  0  0  0  0  0  0  0  0  0
  -28.7882  -25.3957   23.9799 C   0  0  0  0  0  0  0  0  0  0  0  0
  -24.3515  -10.6970   19.1725 C   0  0  0  0  0  0  0  0  0  0  0  0
  -23.0457  -13.1455   19.3871 C   0  0  0  0  0  0  0  0  0  0  0  0
  -22.8508  -19.1878   18.4081 C   0  0  0  0  0  0  0  0  0  0  0  0
  -31.0590  -26.1032   25.4377 C   0  0  0  0  0  0  0  0  0  0  0  0
  -29.5275  -24.4138   24.6393 C   0  0  0  0  0  0  0  0  0  0  0  0
  -22.0113  -20.1899   18.8926 C   0  0  0  0  0  0  0  0  0  0  0  0
  -30.8337  -24.3168   28.2983 C   0  0  0  0  0  0  0  0  0  0  0  0
  -31.2377  -24.5804   29.6070 C   0  0  0  0  0  0  0  0  0  0  0  0
  -23.6258  -20.7038   20.6098 C   0  0  0  0  0  0  0  0  0  0  0  0
  -20.1059  -27.0729   22.2274 C   0  0  0  0  0  0  0  0  0  0  0  0
  -18.5210  -28.8725   22.5213 C   0  0  0  0  0  0  0  0  0  0  0  0
  -33.5484  -24.3502   28.9401 C   0  0  0  0  0  0  0  0  0  0  0  0
  -29.1842  -26.7313   24.0494 C   0  0  0  0  0  0  0  0  0  0  0  0
  -28.6006  -28.2042   22.0500 C   0  0  0  0  0  0  0  0  0  0  0  0
  -24.8959  -11.6974   19.9932 C   0  0  0  0  0  0  0  0  0  0  0  0
  -24.0814  -18.9284   19.0286 C   0  0  0  0  0  0  0  0  0  0  0  0
  -24.2312  -12.9329   20.1111 C   0  0  0  0  0  0  0  0  0  0  0  0
  -24.4802  -19.6995   20.1296 C   0  0  0  0  0  0  0  0  0  0  0  0
  -19.7781  -28.4241   22.1159 C   0  0  0  0  0  0  0  0  0  0  0  0
  -19.1766  -26.1701   22.7441 C   0  0  0  0  0  0  0  0  0  0  0  0
  -17.5917  -27.9697   23.0380 C   0  0  0  0  0  0  0  0  0  0  0  0
  -17.9195  -26.6185   23.1494 C   0  0  0  0  0  0  0  0  0  0  0  0
  -30.6630  -24.7675   25.3682 C   0  0  0  0  0  0  0  0  0  0  0  0
  -22.3975  -20.9461   19.9954 C   0  0  0  0  0  0  0  0  0  0  0  0
  -31.7870  -24.0698   27.3104 C   0  0  0  0  0  0  0  0  0  0  0  0
  -32.5951  -24.5971   29.9279 C   0  0  0  0  0  0  0  0  0  0  0  0
  -33.1444  -24.0866   27.6313 C   0  0  0  0  0  0  0  0  0  0  0  0
  -28.4197  -27.7452   23.3685 C   0  0  0  0  0  0  0  0  0  0  0  0
  -27.6299  -29.1616   21.8835 C   0  0  0  0  0  0  0  0  0  0  0  0
  -20.3317  -22.7254   22.3304 C   0  0  0  0  0  0  0  0  0  0  0  0
  -21.1376  -21.8235   21.7600 C   0  0  0  0  0  0  0  0  0  1  0  0
  -29.5601  -27.8010   21.0638 C   0  0  0  0  0  0  0  0  0  0  0  0
  -25.3600  -16.4278   20.5171 C   0  0  0  0  0  0  0  0  0  0  0  0
  -28.0131  -18.2939   20.5441 C   0  0  0  0  0  0  0  0  0  0  0  0
  -29.3491  -21.4322   20.4295 C   0  0  0  0  0  0  0  0  0  0  0  0
  -22.1621  -30.2955   23.4105 C   0  0  0  0  0  0  0  0  0  0  0  0
  -26.1458  -11.3908   20.7795 C   0  0  0  0  0  0  0  0  0  0  0  0
  -24.9874  -17.8617   18.4773 C   0  0  0  0  0  0  0  0  0  0  0  0
  -25.8003  -19.4743   20.8190 C   0  0  0  0  0  0  0  0  0  0  0  0
  -19.8229  -22.6578   23.7355 C   0  0  0  0  0  0  0  0  0  0  0  0
  -19.8992  -24.0140   21.6979 C   0  0  0  0  0  0  0  0  0  0  0  0
  -26.8371  -12.6339   21.3336 C   0  0  0  0  0  0  0  0  0  0  0  0
  -24.9207  -31.9451   24.9420 C   0  0  0  0  0  0  0  0  0  0  0  0
  -25.8199  -13.5632   21.9884 C   0  0  0  0  0  0  0  0  0  0  0  0
  -26.1210  -31.0729   24.5698 C   0  0  0  0  0  0  0  0  0  0  0  0
  -19.6732  -24.1287   24.1137 C   0  0  0  0  0  0  0  0  0  0  0  0
  -23.6714  -31.1056   25.1999 C   0  0  0  0  0  0  0  0  0  0  0  0
  -24.5108  -29.3088   23.7368 C   0  0  0  0  0  0  0  0  0  0  0  0
  -24.7821  -14.0504   20.9701 C   0  0  1  0  0  0  0  0  0  0  0  0
  -25.9893  -17.3403   19.5028 C   0  0  1  0  0  0  0  0  0  0  0  0
  -25.7804  -30.1146   23.4127 C   0  0  2  0  0  0  0  0  0  0  0  0
  -31.5461  -22.6420   20.5107 C   0  0  0  0  0  0  0  0  0  0  0  0
  -28.1465  -17.8440   23.5590 C   0  0  0  0  0  0  0  0  0  0  0  0
  -29.7243  -19.7822   23.7082 C   0  0  0  0  0  0  0  0  0  0  0  0
  -30.3572  -17.7594   22.3928 C   0  0  0  0  0  0  0  0  0  0  0  0
  -28.9561  -22.5674   17.7247 C   0  0  0  0  0  0  0  0  0  0  0  0
  -20.7724  -29.3895   21.5647 C   0  0  0  0  0  0  0  0  0  0  0  0
  -28.5874  -19.3221   21.4886 C   0  0  1  0  0  0  0  0  0  0  0  0
  -30.4915  -22.0115   19.6147 C   0  0  2  0  0  0  0  0  0  0  0  0
  -29.1781  -18.6801   22.7756 C   0  0  0  0  0  0  0  0  0  0  0  0
  -27.4134  -28.3606   23.9952 N   0  0  0  0  0  0  0  0  0  0  0  0
  -26.9533  -29.2160   23.0665 N   0  0  0  0  0  0  0  0  0  0  0  0
  -19.5230  -24.8369   22.8447 N   0  0  3  0  0  0  0  0  0  0  0  0
  -26.6483  -18.4157   20.2466 N   0  0  0  0  0  0  0  0  0  0  0  0
  -23.4029  -30.2199   24.0645 N   0  0  0  0  0  0  0  0  0  0  0  0
  -16.3252  -28.4473   23.4444 N   0  0  0  0  0  0  0  0  0  0  0  0
  -16.9768  -25.7026   23.6751 N   0  0  0  0  0  0  0  0  0  0  0  0
  -27.2978  -29.9538   20.8421 N   0  0  0  0  0  0  0  0  0  0  0  0
  -30.4856  -26.8039   21.4006 N   0  0  0  0  0  0  0  0  0  0  0  0
  -25.3399  -15.0980   20.1419 N   0  0  0  0  0  0  0  0  0  0  0  0
  -29.5489  -20.0975   20.7122 N   0  0  0  0  0  0  0  0  0  0  0  0
  -21.9921  -29.4255   22.3405 N   0  0  0  0  0  0  0  0  0  0  0  0
  -29.9839  -23.0553   18.6800 N   0  3  0  0  0  0  0  0  0  0  0  0
  -29.6062  -28.3216   19.9235 O   0  0  0  0  0  0  0  0  0  0  0  0
  -24.9261  -16.8953   21.5635 O   0  0  0  0  0  0  0  0  0  0  0  0
  -28.7498  -17.4194   20.0816 O   0  0  0  0  0  0  0  0  0  0  0  0
  -28.3785  -22.0981   20.7831 O   0  0  0  0  0  0  0  0  0  0  0  0
  -21.2738  -31.0839   23.7514 O   0  0  0  0  0  0  0  0  0  0  0  0
  -31.3844  -23.8091   26.0113 O   0  0  0  0  0  0  0  0  0  0  0  0
  -21.5797  -21.9245   20.4707 O   0  0  0  0  0  0  0  0  0  1  0  0
  -32.9830  -24.8518   31.1845 F   0  0  0  0  0  0  0  0  0  0  0  0
  -34.0649  -23.8512   26.6863 F   0  0  0  0  0  0  0  0  0  0  0  0
  1  2  1  0  0  0  0
  1  5  2  0  0  0  0
  2  6  2  0  0  0  0
  3  8  2  0  0  0  0
  3 17  1  0  0  0  0
  4  9  1  0  0  0  0
  4 17  2  0  0  0  0
  5 19  1  0  0  0  0
  6 21  1  0  0  0  0
  7 10  2  0  0  0  0
  7 20  1  0  0  0  0
  8 27  1  0  0  0  0
  9 27  2  0  0  0  0
 10 28  1  0  0  0  0
 11 12  2  0  0  0  0
 11 29  1  0  0  0  0
 12 30  1  0  0  0  0
 13 22  1  0  0  0  0
 13 28  2  0  0  0  0
 14 23  2  0  0  0  0
 14 24  1  0  0  0  0
 15 23  1  0  0  0  0
 15 25  2  0  0  0  0
 16 30  2  0  0  0  0
 16 31  1  0  0  0  0
 17 32  1  0  0  0  0
 18 32  1  0  0  0  0
 18 33  2  0  0  0  0
 18 36  1  0  0  0  0
 19 21  2  0  0  0  0
 19 41  1  0  0  0  0
 20 22  2  0  0  0  0
 20 42  1  0  0  0  0
 21 53  1  0  0  0  0
 22 43  1  0  0  0  0
 23 61  1  0  0  0  0
 24 26  2  0  0  0  0
 24 67  1  0  0  0  0
 25 26  1  0  0  0  0
 25 70  1  0  0  0  0
 26 71  1  0  0  0  0
 27 83  1  0  0  0  0
 28 84  1  0  0  0  0
 29 31  2  0  0  0  0
 29 83  1  0  0  0  0
 30 85  1  0  0  0  0
 31 86  1  0  0  0  0
 32 65  2  0  0  0  0
 33 66  1  0  0  0  0
 33 72  1  0  0  0  0
 34 35  2  0  0  0  0
 34 44  1  0  0  0  0
 34 45  1  0  0  0  0
 35 84  1  0  0  0  0
 36 73  1  0  0  0  0
 36 78  2  0  0  0  0
 37 54  1  0  0  0  0
 37 74  1  0  0  0  0
 37 79  2  0  0  0  0
 38 62  1  0  0  0  0
 38 68  1  0  0  0  0
 38 80  2  0  0  0  0
 39 63  1  0  0  0  0
 39 75  1  0  0  0  0
 39 81  2  0  0  0  0
 40 69  1  0  0  0  0
 40 76  1  0  0  0  0
 40 82  2  0  0  0  0
 41 46  1  0  0  0  0
 42 54  1  0  0  0  0
 43 68  1  0  0  0  0
 44 50  1  0  0  0  0
 45 67  1  0  0  0  0
 46 48  1  0  0  0  0
 47 49  1  0  0  0  0
 47 51  1  0  0  0  0
 48 53  1  0  0  0  0
 49 55  1  0  0  0  0
 50 67  1  0  0  0  0
 51 69  1  0  0  0  0
 52 55  1  0  0  0  0
 52 69  1  0  0  0  0
 53 74  1  0  0  0  0
 54 68  1  0  0  0  0
 55 66  1  0  0  0  0
 56 63  1  0  0  0  0
 57 64  1  0  0  0  0
 58 64  1  0  0  0  0
 59 64  1  0  0  0  0
 60 77  1  0  0  0  0
 61 76  1  0  0  0  0
 62 64  1  0  0  0  0
 62 75  1  0  0  0  0
 63 77  1  0  0  0  0
 65 66  1  0  0  0  0
M  CHG  1  77   1
M  ISO  4  35 101  40 100  76 100  84 101
M  END
> <Batch ID>
0095

> <Smiles>
CNC(C)C(=O)NC(C(=O)N1Cc2cc([101O:1][101CH:1]=C3CCN(c4cc(C[100NH:0][100C:0](=O)N5CCCC(n6nc(-c7ccc(Oc8ccc(F)cc8F)cc7)c(C(N)=O)c6N)C5)cc(N)c4N)C3)ccc2CC1C(=O)NC1CCCc2ccccc21)C(C)(C)C

> <Shape>
0.213

> <Color>
0.062

> <Negative vol penalty>
0.000

$$$$

  -OEChem-04052300433D

 87 96  0     1  0  0  0  0  0999 V2000
  -18.8836  -26.3994   23.8035 C   0  0  0  0  0  0  0  0  0  0  0  0
  -19.8573  -26.1743   22.8356 C   0  0  0  0  0  0  0  0  0  0  0  0
  -26.5239  -12.6650   21.5684 C   0  0  0  0  0  0  0  0  0  0  0  0
  -25.7007  -14.0246   19.7488 C   0  0  0  0  0  0  0  0  0  0  0  0
  -18.3664  -27.6813   23.9853 C   0  0  0  0  0  0  0  0  0  0  0  0
  -20.3134  -27.2309   22.0482 C   0  0  0  0  0  0  0  0  0  0  0  0
  -25.3555  -27.2677   21.5784 C   0  0  0  0  0  0  0  0  0  0  0  0
  -31.3715  -23.7302   20.5765 C   0  0  0  0  0  0  0  0  0  0  0  0
  -31.7909  -22.9384   21.6454 C   0  0  0  0  0  0  0  0  0  0  0  0
  -25.3019  -11.9947   21.6205 C   0  0  0  0  0  0  0  0  0  0  0  0
  -24.4786  -13.3542   19.8008 C   0  0  0  0  0  0  0  0  0  0  0  0
  -25.9178  -26.3637   20.6782 C   0  0  0  0  0  0  0  0  0  0  0  0
  -22.5233   -9.6804   21.9932 C   0  0  0  0  0  0  0  0  0  0  0  0
  -22.5504   -8.2902   22.1032 C   0  0  0  0  0  0  0  0  0  0  0  0
  -26.1227  -28.1269   19.0447 C   0  0  0  0  0  0  0  0  0  0  0  0
  -31.7034  -20.9820   20.2305 C   0  0  0  0  0  0  0  0  0  0  0  0
  -23.7583   -8.1486   20.0156 C   0  0  0  0  0  0  0  0  0  0  0  0
  -26.7234  -13.6800   20.6326 C   0  0  0  0  0  0  0  0  0  0  0  0
  -29.2530  -13.8132   20.3313 C   0  0  0  0  0  0  0  0  0  0  0  0
  -18.8234  -28.7560   23.2064 C   0  0  0  0  0  0  0  0  0  0  0  0
  -25.1623  -28.6080   21.2140 C   0  0  0  0  0  0  0  0  0  0  0  0
  -19.8008  -28.5281   22.2189 C   0  0  0  0  0  0  0  0  0  0  0  0
  -25.5602  -29.0465   19.9430 C   0  0  0  0  0  0  0  0  0  0  0  0
  -31.1180  -23.1480   19.3345 C   0  0  0  0  0  0  0  0  0  0  0  0
  -31.9569  -21.5643   21.4724 C   0  0  0  0  0  0  0  0  0  0  0  0
  -31.2839  -21.7739   19.1615 C   0  0  0  0  0  0  0  0  0  0  0  0
  -24.2792  -12.3392   20.7367 C   0  0  0  0  0  0  0  0  0  0  0  0
  -26.2988  -26.7925   19.4101 C   0  0  0  0  0  0  0  0  0  0  0  0
  -23.1137  -10.3048   20.8944 C   0  0  0  0  0  0  0  0  0  0  0  0
  -23.1679   -7.5243   21.1144 C   0  0  0  0  0  0  0  0  0  0  0  0
  -23.7312   -9.5389   19.9056 C   0  0  0  0  0  0  0  0  0  0  0  0
  -27.9854  -14.3732   20.5786 C   0  0  0  0  0  0  0  0  0  0  0  0
  -30.1163  -14.8801   20.3854 C   0  0  0  0  0  0  0  0  0  0  0  0
  -31.4376  -24.0814   17.0593 C   0  0  0  0  0  0  0  0  0  0  0  0
  -29.6176  -12.4504   20.0755 C   0  0  0  0  0  0  0  0  0  0  0  0
  -22.6311  -30.5053   20.9026 C   0  0  0  0  0  0  0  0  0  0  0  0
  -24.8870  -32.7829   20.4064 C   0  0  0  0  0  0  0  0  0  0  0  0
  -28.0081  -33.0521   18.6165 C   0  0  0  0  0  0  0  0  0  0  0  0
  -31.9990  -19.3933   22.6876 C   0  0  0  0  0  0  0  0  0  0  0  0
  -18.2003  -30.1147   23.4072 C   0  0  0  0  0  0  0  0  0  0  0  0
  -24.5791  -29.5767   22.2060 C   0  0  0  0  0  0  0  0  0  0  0  0
  -25.3928  -30.4794   19.5101 C   0  0  0  0  0  0  0  0  0  0  0  0
  -30.7533  -24.7279   15.8696 C   0  0  0  0  0  0  0  0  0  0  0  0
  -19.0073  -31.2525   22.7870 C   0  0  0  0  0  0  0  0  0  0  0  0
  -29.8138  -25.8582   16.2280 C   0  0  0  0  0  0  0  0  0  0  0  0
  -29.2206  -19.8485   20.5158 C   0  0  0  0  0  0  0  0  0  0  0  0
  -19.4349  -30.8919   21.3679 C   0  0  0  0  0  0  0  0  0  0  0  0
  -28.7452  -18.4086   20.3255 C   0  0  0  0  0  0  0  0  0  0  0  0
  -29.6707  -20.1177   21.9521 C   0  0  0  0  0  0  0  0  0  0  0  0
  -29.5469  -24.8956   18.4963 C   0  0  0  0  0  0  0  0  0  0  0  0
  -30.2116  -17.7227   22.2620 C   0  0  0  0  0  0  0  0  0  0  0  0
  -20.3390  -29.6533   21.3620 C   0  0  1  0  0  0  0  0  0  0  0  0
  -23.9552  -30.8032   21.5475 C   0  0  1  0  0  0  0  0  0  0  0  0
  -28.8019  -25.3526   17.2430 C   0  0  1  0  0  0  0  0  0  0  0  0
  -29.8070  -17.4074   20.8135 C   0  0  1  0  0  0  0  0  0  0  0  0
  -30.0018  -34.5202   19.0251 C   0  0  0  0  0  0  0  0  0  0  0  0
  -23.5492  -34.6622   18.4092 C   0  0  0  0  0  0  0  0  0  0  0  0
  -25.8179  -35.1875   17.4899 C   0  0  0  0  0  0  0  0  0  0  0  0
  -25.2762  -35.7409   19.8612 C   0  0  0  0  0  0  0  0  0  0  0  0
  -33.4434  -21.2615   23.4616 C   0  0  0  0  0  0  0  0  0  0  0  0
  -29.8407  -30.7308   18.7248 C   0  0  0  0  0  0  0  0  0  0  0  0
  -27.7795  -26.4347   17.5838 C   0  0  0  0  0  0  0  0  0  1  0  0
  -25.6118  -33.3244   19.1979 C   0  0  1  0  0  0  0  0  0  0  0  0
  -29.3979  -33.1383   19.2211 C   0  0  2  0  0  0  0  0  0  0  0  0
  -25.0544  -34.7019   18.7405 C   0  0  0  0  0  0  0  0  0  0  0  0
  -28.0344  -15.6934   20.7754 N   0  0  0  0  0  0  0  0  0  0  0  0
  -29.3433  -15.9718   20.6518 N   0  0  0  0  0  0  0  0  0  0  0  0
  -30.6820  -23.9900   18.2409 N   0  0  0  0  0  0  0  0  0  0  0  0
  -24.8120  -31.3869   20.5134 N   0  0  0  0  0  0  0  0  0  0  0  0
  -30.6524  -19.1141   22.3872 N   0  0  0  0  0  0  0  0  0  0  0  0
  -31.0315  -21.1631   17.9124 N   0  0  0  0  0  0  0  0  0  0  0  0
  -31.4535  -14.9816   20.2307 N   0  0  0  0  0  0  0  0  0  0  0  0
  -29.6339  -12.0010   18.7480 N   0  0  0  0  0  0  0  0  0  0  0  0
  -21.6813  -30.0055   21.7729 N   0  0  0  0  0  0  0  0  0  0  0  0
  -27.0289  -33.3384   19.5442 N   0  0  0  0  0  0  0  0  0  0  0  0
  -32.3918  -20.7448   22.5791 N   0  0  0  0  0  0  0  0  0  0  0  0
  -30.3013  -32.1365   18.5877 N   0  3  0  0  0  0  0  0  0  0  0  0
  -32.5750  -23.6303   16.8992 O   0  0  0  0  0  0  0  0  0  0  0  0
  -29.9042  -11.6502   20.9981 O   0  0  0  0  0  0  0  0  0  0  0  0
  -22.4819  -30.7149   19.7045 O   0  0  0  0  0  0  0  0  0  0  0  0
  -24.4112  -33.5695   21.2289 O   0  0  0  0  0  0  0  0  0  0  0  0
  -27.8110  -32.7635   17.4382 O   0  0  0  0  0  0  0  0  0  0  0  0
  -32.7834  -18.5083   23.0501 O   0  0  0  0  0  0  0  0  0  0  0  0
  -23.0866  -11.6852   20.7871 O   0  0  0  0  0  0  0  0  0  0  0  0
  -26.8472  -25.9120   18.5293 O   0  0  0  0  0  0  0  0  0  1  0  0
  -23.1952   -6.1893   21.2209 F   0  0  0  0  0  0  0  0  0  0  0  0
  -24.3011  -10.1331   18.8483 F   0  0  0  0  0  0  0  0  0  0  0  0
  1  2  1  0  0  0  0
  1  5  2  0  0  0  0
  2  6  2  0  0  0  0
  3 10  2  0  0  0  0
  3 18  1  0  0  0  0
  4 11  1  0  0  0  0
  4 18  2  0  0  0  0
  5 20  1  0  0  0  0
  6 22  1  0  0  0  0
  7 12  2  0  0  0  0
  7 21  1  0  0  0  0
  8  9  2  0  0  0  0
  8 24  1  0  0  0  0
  9 25  1  0  0  0  0
 10 27  1  0  0  0  0
 11 27  2  0  0  0  0
 12 28  1  0  0  0  0
 13 14  2  0  0  0  0
 13 29  1  0  0  0  0
 14 30  1  0  0  0  0
 15 23  1  0  0  0  0
 15 28  2  0  0  0  0
 16 25  2  0  0  0  0
 16 26  1  0  0  0  0
 17 30  2  0  0  0  0
 17 31  1  0  0  0  0
 18 32  1  0  0  0  0
 19 32  1  0  0  0  0
 19 33  2  0  0  0  0
 19 35  1  0  0  0  0
 20 22  2  0  0  0  0
 20 40  1  0  0  0  0
 21 23  2  0  0  0  0
 21 41  1  0  0  0  0
 22 52  1  0  0  0  0
 23 42  1  0  0  0  0
 24 26  2  0  0  0  0
 24 68  1  0  0  0  0
 25 76  1  0  0  0  0
 26 71  1  0  0  0  0
 27 84  1  0  0  0  0
 28 85  1  0  0  0  0
 29 31  2  0  0  0  0
 29 84  1  0  0  0  0
 30 86  1  0  0  0  0
 31 87  1  0  0  0  0
 32 66  2  0  0  0  0
 33 67  1  0  0  0  0
 33 72  1  0  0  0  0
 34 43  1  0  0  0  0
 34 68  1  0  0  0  0
 34 78  2  0  0  0  0
 35 73  1  0  0  0  0
 35 79  2  0  0  0  0
 36 53  1  0  0  0  0
 36 74  1  0  0  0  0
 36 80  2  0  0  0  0
 37 63  1  0  0  0  0
 37 69  1  0  0  0  0
 37 81  2  0  0  0  0
 38 64  1  0  0  0  0
 38 75  1  0  0  0  0
 38 82  2  0  0  0  0
 39 70  1  0  0  0  0
 39 76  1  0  0  0  0
 39 83  2  0  0  0  0
 40 44  1  0  0  0  0
 41 53  1  0  0  0  0
 42 69  1  0  0  0  0
 43 45  1  0  0  0  0
 44 47  1  0  0  0  0
 45 54  1  0  0  0  0
 46 48  1  0  0  0  0
 46 49  1  0  0  0  0
 47 52  1  0  0  0  0
 48 55  1  0  0  0  0
 49 70  1  0  0  0  0
 50 54  1  0  0  0  0
 50 68  1  0  0  0  0
 51 55  1  0  0  0  0
 51 70  1  0  0  0  0
 52 74  1  0  0  0  0
 53 69  1  0  0  0  0
 54 62  1  0  0  0  0
 55 67  1  0  0  0  0
 56 64  1  0  0  0  0
 57 65  1  0  0  0  0
 58 65  1  0  0  0  0
 59 65  1  0  0  0  0
 60 76  1  0  0  0  0
 61 77  1  0  0  0  0
 62 85  1  0  0  0  0
 63 65  1  0  0  0  0
 63 75  1  0  0  0  0
 64 77  1  0  0  0  0
 66 67  1  0  0  0  0
M  CHG  1  77   1
M  ISO  4  39 100  62 101  76 100  85 101
M  END
> <Batch ID>
0095

> <Smiles>
CNC(C)C(=O)NC(C(=O)N1Cc2cc([101O:1][101CH2:1]C3CCC(=O)N(c4ccc([100N:0](C)[100C:0](=O)N5CCCC(n6nc(-c7ccc(Oc8ccc(F)cc8F)cc7)c(C(N)=O)c6N)C5)cc4N)C3)ccc2CC1C(=O)NC1CCCc2ccccc21)C(C)(C)C

> <Shape>
0.282

> <Color>
0.103

> <Negative vol penalty>
0.000

$$$$

  -OEChem-04052300433D

 83 91  0     1  0  0  0  0  0999 V2000
  -16.7942  -29.5041   23.0384 C   0  0  0  0  0  0  0  0  0  0  0  0
  -17.7803  -29.6357   22.0660 C   0  0  0  0  0  0  0  0  0  0  0  0
  -26.6330  -12.6035   22.0124 C   0  0  0  0  0  0  0  0  0  0  0  0
  -25.8346  -14.2827   20.4697 C   0  0  0  0  0  0  0  0  0  0  0  0
  -17.1473  -29.1855   24.3490 C   0  0  0  0  0  0  0  0  0  0  0  0
  -19.1204  -29.4499   22.4039 C   0  0  0  0  0  0  0  0  0  0  0  0
  -25.2831  -27.0277   19.6707 C   0  0  0  0  0  0  0  0  0  0  0  0
  -30.7256  -22.5597   22.0759 C   0  0  0  0  0  0  0  0  0  0  0  0
  -25.3880  -11.9758   21.9735 C   0  0  0  0  0  0  0  0  0  0  0  0
  -24.5896  -13.6550   20.4308 C   0  0  0  0  0  0  0  0  0  0  0  0
  -26.6093  -27.4186   19.4918 C   0  0  0  0  0  0  0  0  0  0  0  0
  -31.0351  -23.6347   21.2428 C   0  0  0  0  0  0  0  0  0  0  0  0
  -22.5319   -9.7270   22.0002 C   0  0  0  0  0  0  0  0  0  0  0  0
  -22.5095   -8.3385   21.8697 C   0  0  0  0  0  0  0  0  0  0  0  0
  -27.0948  -26.7931   21.7704 C   0  0  0  0  0  0  0  0  0  0  0  0
  -23.6817   -8.5174   19.7648 C   0  0  0  0  0  0  0  0  0  0  0  0
  -26.8563  -13.7570   21.2605 C   0  0  0  0  0  0  0  0  0  0  0  0
  -29.2452  -14.1600   20.4615 C   0  0  0  0  0  0  0  0  0  0  0  0
  -18.4915  -28.9861   24.7011 C   0  0  0  0  0  0  0  0  0  0  0  0
  -24.8495  -26.5259   20.9063 C   0  0  0  0  0  0  0  0  0  0  0  0
  -19.4919  -29.1296   23.7208 C   0  0  0  0  0  0  0  0  0  0  0  0
  -25.7632  -26.3941   21.9617 C   0  0  0  0  0  0  0  0  0  0  0  0
  -29.6559  -21.7206   21.7635 C   0  0  0  0  0  0  0  0  0  0  0  0
  -29.2054  -23.0317   19.7848 C   0  0  0  0  0  0  0  0  0  0  0  0
  -24.3663  -12.5015   21.1827 C   0  0  0  0  0  0  0  0  0  0  0  0
  -27.5148  -27.3041   20.5426 C   0  0  0  0  0  0  0  0  0  0  0  0
  -30.2750  -23.8707   20.0973 C   0  0  0  0  0  0  0  0  0  0  0  0
  -23.1292  -10.5108   21.0130 C   0  0  0  0  0  0  0  0  0  0  0  0
  -23.0844   -7.7336   20.7520 C   0  0  0  0  0  0  0  0  0  0  0  0
  -23.7041   -9.9059   19.8953 C   0  0  0  0  0  0  0  0  0  0  0  0
  -28.8959  -21.9566   20.6180 C   0  0  0  0  0  0  0  0  0  0  0  0
  -28.1420  -14.4062   21.3007 C   0  0  0  0  0  0  0  0  0  0  0  0
  -30.2135  -15.0279   20.9038 C   0  0  0  0  0  0  0  0  0  0  0  0
  -29.3824  -13.2300   19.3789 C   0  0  0  0  0  0  0  0  0  0  0  0
  -22.7166  -27.4445   23.0766 C   0  0  0  0  0  0  0  0  0  0  0  0
  -23.4789  -24.6098   24.4570 C   0  0  0  0  0  0  0  0  0  0  0  0
  -25.7559  -22.0984   24.8504 C   0  0  0  0  0  0  0  0  0  0  0  0
  -29.9994  -20.2581   23.7857 C   0  0  0  0  0  0  0  0  0  0  0  0
  -18.8285  -28.6897   26.1409 C   0  0  0  0  0  0  0  0  0  0  0  0
  -23.4218  -26.0836   21.0750 C   0  0  0  0  0  0  0  0  0  0  0  0
  -25.3527  -25.8425   23.3017 C   0  0  0  0  0  0  0  0  0  0  0  0
  -20.2394  -28.1405   26.3357 C   0  0  0  0  0  0  0  0  0  0  0  0
  -31.6795  -17.3059   24.8530 C   0  0  0  0  0  0  0  0  0  0  0  0
  -21.2484  -28.9691   25.5469 C   0  0  0  0  0  0  0  0  0  0  0  0
  -31.0678  -16.2058   23.9826 C   0  0  0  0  0  0  0  0  0  0  0  0
  -30.6440  -18.3566   25.2499 C   0  0  0  0  0  0  0  0  0  0  0  0
  -29.2837  -17.8439   23.2610 C   0  0  0  0  0  0  0  0  0  0  0  0
  -20.9543  -28.9113   24.0430 C   0  0  1  0  0  0  0  0  0  0  0  0
  -22.9696  -26.0672   22.5319 C   0  0  1  0  0  0  0  0  0  0  0  0
  -30.3027  -16.7970   22.7822 C   0  0  2  0  0  0  0  0  0  0  0  0
  -26.6854  -19.8970   25.6168 C   0  0  0  0  0  0  0  0  0  0  0  0
  -24.0467  -26.1559   27.0255 C   0  0  0  0  0  0  0  0  0  0  0  0
  -25.2741  -24.1481   27.8803 C   0  0  0  0  0  0  0  0  0  0  0  0
  -22.8403  -23.9903   27.3565 C   0  0  0  0  0  0  0  0  0  0  0  0
  -24.7036  -20.6928   22.4680 C   0  0  0  0  0  0  0  0  0  0  0  0
  -30.8532  -27.3220   19.1405 C   0  0  0  0  0  0  0  0  0  0  0  0
  -29.3541  -27.5630   19.0574 C   0  0  0  0  0  0  0  0  0  1  0  0
  -31.1842  -26.0614   19.9238 C   0  0  0  0  0  0  0  0  0  0  0  0
  -24.5077  -24.1529   25.4629 C   0  0  1  0  0  0  0  0  0  0  0  0
  -25.6102  -20.5885   24.7930 C   0  0  2  0  0  0  0  0  0  0  0  0
  -24.1748  -24.6241   26.9068 C   0  0  0  0  0  0  0  0  0  0  0  0
  -28.3858  -15.3560   22.2076 N   0  0  0  0  0  0  0  0  0  0  0  0
  -29.6533  -15.7142   21.9409 N   0  0  0  0  0  0  0  0  0  0  0  0
  -23.9444  -25.4296   23.4192 N   0  0  0  0  0  0  0  0  0  0  0  0
  -29.9625  -18.8749   24.0617 N   0  0  0  0  0  0  0  0  0  0  0  0
  -28.4294  -23.2614   18.6277 N   0  0  0  0  0  0  0  0  0  0  0  0
  -31.4809  -15.2633   20.5030 N   0  0  0  0  0  0  0  0  0  0  0  0
  -28.2897  -12.4136   19.0569 N   0  0  0  0  0  0  0  0  0  0  0  0
  -29.3443  -20.6294   22.6120 N   0  0  0  0  0  0  0  0  0  0  0  0
  -21.4140  -27.6571   23.4860 N   0  0  0  0  0  0  0  0  0  0  0  0
  -24.6082  -22.7050   25.3151 N   0  0  0  0  0  0  0  0  0  0  0  0
  -25.7168  -20.1109   23.3854 N   0  3  0  0  0  0  0  0  0  0  0  0
  -30.4481  -13.1146   18.7274 O   0  0  0  0  0  0  0  0  0  0  0  0
  -23.6355  -28.2539   23.1235 O   0  0  0  0  0  0  0  0  0  0  0  0
  -22.3068  -24.2467   24.5833 O   0  0  0  0  0  0  0  0  0  0  0  0
  -26.7863  -22.6812   24.5198 O   0  0  0  0  0  0  0  0  0  0  0  0
  -30.5933  -21.0509   24.5209 O   0  0  0  0  0  0  0  0  0  0  0  0
  -23.1513  -11.8891   21.1444 O   0  0  0  0  0  0  0  0  0  0  0  0
  -28.8097  -27.6855   20.3708 O   0  0  0  0  0  0  0  0  0  1  0  0
  -30.5958  -24.9325   19.2920 O   0  0  0  0  0  0  0  0  0  0  0  0
  -23.0641   -6.4001   20.6276 F   0  0  0  0  0  0  0  0  0  0  0  0
  -24.2804  -10.6536   18.9441 F   0  0  0  0  0  0  0  0  0  0  0  0
  -27.8668  -21.1493   20.3177 F   0  0  0  0  0  0  0  0  0  0  0  0
  1  2  1  0  0  0  0
  1  5  2  0  0  0  0
  2  6  2  0  0  0  0
  3  9  2  0  0  0  0
  3 17  1  0  0  0  0
  4 10  1  0  0  0  0
  4 17  2  0  0  0  0
  5 19  1  0  0  0  0
  6 21  1  0  0  0  0
  7 11  2  0  0  0  0
  7 20  1  0  0  0  0
  8 12  2  0  0  0  0
  8 23  1  0  0  0  0
  9 25  1  0  0  0  0
 10 25  2  0  0  0  0
 11 26  1  0  0  0  0
 12 27  1  0  0  0  0
 13 14  2  0  0  0  0
 13 28  1  0  0  0  0
 14 29  1  0  0  0  0
 15 22  1  0  0  0  0
 15 26  2  0  0  0  0
 16 29  2  0  0  0  0
 16 30  1  0  0  0  0
 17 32  1  0  0  0  0
 18 32  1  0  0  0  0
 18 33  2  0  0  0  0
 18 34  1  0  0  0  0
 19 21  2  0  0  0  0
 19 39  1  0  0  0  0
 20 22  2  0  0  0  0
 20 40  1  0  0  0  0
 21 48  1  0  0  0  0
 22 41  1  0  0  0  0
 23 31  2  0  0  0  0
 23 69  1  0  0  0  0
 24 27  2  0  0  0  0
 24 31  1  0  0  0  0
 24 66  1  0  0  0  0
 25 78  1  0  0  0  0
 26 79  1  0  0  0  0
 27 80  1  0  0  0  0
 28 30  2  0  0  0  0
 28 78  1  0  0  0  0
 29 81  1  0  0  0  0
 30 82  1  0  0  0  0
 31 83  1  0  0  0  0
 32 62  2  0  0  0  0
 33 63  1  0  0  0  0
 33 67  1  0  0  0  0
 34 68  1  0  0  0  0
 34 73  2  0  0  0  0
 35 49  1  0  0  0  0
 35 70  1  0  0  0  0
 35 74  2  0  0  0  0
 36 59  1  0  0  0  0
 36 64  1  0  0  0  0
 36 75  2  0  0  0  0
 37 60  1  0  0  0  0
 37 71  1  0  0  0  0
 37 76  2  0  0  0  0
 38 65  1  0  0  0  0
 38 69  1  0  0  0  0
 38 77  2  0  0  0  0
 39 42  1  0  0  0  0
 40 49  1  0  0  0  0
 41 64  1  0  0  0  0
 42 44  1  0  0  0  0
 43 45  1  0  0  0  0
 43 46  1  0  0  0  0
 44 48  1  0  0  0  0
 45 50  1  0  0  0  0
 46 65  1  0  0  0  0
 47 50  1  0  0  0  0
 47 65  1  0  0  0  0
 48 70  1  0  0  0  0
 49 64  1  0  0  0  0
 50 63  1  0  0  0  0
 51 60  1  0  0  0  0
 52 61  1  0  0  0  0
 53 61  1  0  0  0  0
 54 61  1  0  0  0  0
 55 72  1  0  0  0  0
 56 57  1  0  0  0  0
 56 58  1  0  0  0  0
 57 79  1  0  0  0  0
 58 80  1  0  0  0  0
 59 61  1  0  0  0  0
 59 71  1  0  0  0  0
 60 72  1  0  0  0  0
 62 63  1  0  0  0  0
M  CHG  1  72   1
M  ISO  4  38 100  57 101  69 100  79 101
M  END
> <Batch ID>
0095

> <Smiles>
CNC(C)C(=O)NC(C(=O)N1Cc2cc([101O:1][101CH2:1]CCOc3ccc([100NH:0][100C:0](=O)N4CCCC(n5nc(-c6ccc(Oc7ccc(F)cc7F)cc6)c(C(N)=O)c5N)C4)c(F)c3N)ccc2CC1C(=O)NC1CCCc2ccccc21)C(C)(C)C

> <Shape>
0.247

> <Color>
0.105

> <Negative vol penalty>
0.000

$$$$

  -OEChem-04052300433D

 85 94  0     1  0  0  0  0  0999 V2000
  -21.6935  -11.9912   19.7152 C   0  0  0  0  0  0  0  0  0  0  0  0
  -21.5541  -13.2643   20.2583 C   0  0  0  0  0  0  0  0  0  0  0  0
  -18.3864  -28.0839   23.6052 C   0  0  0  0  0  0  0  0  0  0  0  0
  -29.8679  -27.4528   22.0373 C   0  0  0  0  0  0  0  0  0  0  0  0
  -28.3150  -25.6038   21.9547 C   0  0  0  0  0  0  0  0  0  0  0  0
  -22.9474  -11.3825   19.6812 C   0  0  0  0  0  0  0  0  0  0  0  0
  -22.6684  -13.9291   20.7689 C   0  0  0  0  0  0  0  0  0  0  0  0
  -22.8719  -18.7768   19.3183 C   0  0  0  0  0  0  0  0  0  0  0  0
  -18.2461  -26.7247   23.3251 C   0  0  0  0  0  0  0  0  0  0  0  0
  -19.4657  -28.7960   23.0821 C   0  0  0  0  0  0  0  0  0  0  0  0
  -30.7205  -26.7007   22.8453 C   0  0  0  0  0  0  0  0  0  0  0  0
  -29.1676  -24.8517   22.7628 C   0  0  0  0  0  0  0  0  0  0  0  0
  -22.0397  -19.6759   19.9835 C   0  0  0  0  0  0  0  0  0  0  0  0
  -33.1382  -25.3937   25.2265 C   0  0  0  0  0  0  0  0  0  0  0  0
  -33.6943  -26.0180   26.3429 C   0  0  0  0  0  0  0  0  0  0  0  0
  -23.9033  -20.3883   21.3395 C   0  0  0  0  0  0  0  0  0  0  0  0
  -31.4795  -26.4284   27.2166 C   0  0  0  0  0  0  0  0  0  0  0  0
  -28.6651  -26.9044   21.5920 C   0  0  0  0  0  0  0  0  0  0  0  0
  -27.7817  -27.7453   19.3514 C   0  0  0  0  0  0  0  0  0  0  0  0
  -24.0793  -12.0441   20.1828 C   0  0  0  0  0  0  0  0  0  0  0  0
  -24.2260  -18.6687   19.6666 C   0  0  0  0  0  0  0  0  0  0  0  0
  -23.9384  -13.3282   20.7428 C   0  0  0  0  0  0  0  0  0  0  0  0
  -24.7512  -19.4888   20.6753 C   0  0  0  0  0  0  0  0  0  0  0  0
  -19.1853  -26.0775   22.5222 C   0  0  0  0  0  0  0  0  0  0  0  0
  -20.4049  -28.1489   22.2792 C   0  0  0  0  0  0  0  0  0  0  0  0
  -30.3704  -25.4001   23.2081 C   0  0  0  0  0  0  0  0  0  0  0  0
  -22.5547  -20.4798   20.9963 C   0  0  0  0  0  0  0  0  0  0  0  0
  -31.7528  -25.2867   25.1050 C   0  0  0  0  0  0  0  0  0  0  0  0
  -32.8650  -26.5354   27.3380 C   0  0  0  0  0  0  0  0  0  0  0  0
  -30.9234  -25.8040   26.1001 C   0  0  0  0  0  0  0  0  0  0  0  0
  -20.2647  -26.7896   21.9992 C   0  0  0  0  0  0  0  0  0  0  0  0
  -27.7837  -27.6811   20.7577 C   0  0  0  0  0  0  0  0  0  0  0  0
  -26.7619  -28.6142   19.0488 C   0  0  0  0  0  0  0  0  0  0  0  0
  -17.8297  -23.9716   22.1495 C   0  0  0  0  0  0  0  0  0  0  0  0
  -28.6261  -27.0790   18.4034 C   0  0  0  0  0  0  0  0  0  0  0  0
  -26.0685  -16.3466   20.8140 C   0  0  0  0  0  0  0  0  0  0  0  0
  -28.4329  -18.5132   20.3264 C   0  0  0  0  0  0  0  0  0  0  0  0
  -29.3399  -21.7864   19.9949 C   0  0  0  0  0  0  0  0  0  0  0  0
  -21.7837  -30.2286   21.9326 C   0  0  0  0  0  0  0  0  0  0  0  0
  -25.4058  -11.3266   20.1673 C   0  0  0  0  0  0  0  0  0  0  0  0
  -25.1166  -17.7129   18.9212 C   0  0  0  0  0  0  0  0  0  0  0  0
  -26.2025  -19.4257   21.0733 C   0  0  0  0  0  0  0  0  0  0  0  0
  -18.1701  -22.5594   21.7314 C   0  0  0  0  0  0  0  0  0  0  0  0
  -26.6007  -12.2506   20.3883 C   0  0  0  0  0  0  0  0  0  0  0  0
  -24.3980  -32.3793   20.8293 C   0  0  0  0  0  0  0  0  0  0  0  0
  -26.3384  -13.1917   21.5597 C   0  0  0  0  0  0  0  0  0  0  0  0
  -25.5608  -31.4237   20.5519 C   0  0  0  0  0  0  0  0  0  0  0  0
  -23.5810  -31.9410   22.0435 C   0  0  0  0  0  0  0  0  0  0  0  0
  -20.1730  -23.8401   21.9201 C   0  0  0  0  0  0  0  0  0  0  0  0
  -24.2684  -29.5967   21.7260 C   0  0  0  0  0  0  0  0  0  0  0  0
  -25.1277  -14.0916   21.2840 C   0  0  1  0  0  0  0  0  0  0  0  0
  -26.3631  -17.3202   19.7082 C   0  0  1  0  0  0  0  0  0  0  0  0
  -19.6425  -22.4251   22.0928 C   0  0  2  0  0  0  0  0  0  0  0  0
  -25.0816  -29.9609   20.4732 C   0  0  2  0  0  0  0  0  0  0  0  0
  -30.2335  -21.7398   17.6504 C   0  0  0  0  0  0  0  0  0  0  0  0
  -29.2394  -18.1022   23.2403 C   0  0  0  0  0  0  0  0  0  0  0  0
  -30.5762  -20.2141   23.0954 C   0  0  0  0  0  0  0  0  0  0  0  0
  -31.1551  -18.2715   21.6415 C   0  0  0  0  0  0  0  0  0  0  0  0
  -31.7434  -23.3363   20.7565 C   0  0  0  0  0  0  0  0  0  0  0  0
  -20.3769  -21.4033   21.2423 C   0  0  0  0  0  0  0  0  0  1  0  0
  -29.0661  -19.6082   21.1503 C   0  0  1  0  0  0  0  0  0  0  0  0
  -30.2131  -22.4911   18.9725 C   0  0  2  0  0  0  0  0  0  0  0  0
  -29.9814  -19.0491   22.2759 C   0  0  0  0  0  0  0  0  0  0  0  0
  -26.8401  -28.4482   21.3102 N   0  0  0  0  0  0  0  0  0  0  0  0
  -26.2358  -29.0027   20.2456 N   0  0  0  0  0  0  0  0  0  0  0  0
  -19.0386  -24.6869   22.2377 N   0  0  0  0  0  0  0  0  0  0  0  0
  -27.0315  -18.4709   20.3192 N   0  0  0  0  0  0  0  0  0  0  0  0
  -23.1579  -30.5466   21.8967 N   0  0  0  0  0  0  0  0  0  0  0  0
  -26.2730  -29.0762   17.8784 N   0  0  0  0  0  0  0  0  0  0  0  0
  -29.6238  -26.2205   18.8849 N   0  0  0  0  0  0  0  0  0  0  0  0
  -21.5001  -28.8755   21.7497 N   0  0  0  0  0  0  0  0  0  0  0  0
  -25.4911  -15.1665   20.3857 N   0  0  0  0  0  0  0  0  0  0  0  0
  -29.7486  -20.4866   20.2063 N   0  0  0  0  0  0  0  0  0  0  0  0
  -31.6126  -22.5993   19.4732 N   0  3  0  0  0  0  0  0  0  0  0  0
  -16.6773  -24.3507   22.3019 O   0  0  0  0  0  0  0  0  0  0  0  0
  -28.5103  -27.2529   17.1665 O   0  0  0  0  0  0  0  0  0  0  0  0
  -26.3459  -16.6433   21.9702 O   0  0  0  0  0  0  0  0  0  0  0  0
  -29.1550  -17.7287   19.7061 O   0  0  0  0  0  0  0  0  0  0  0  0
  -28.3925  -22.3354   20.5531 O   0  0  0  0  0  0  0  0  0  0  0  0
  -20.9204  -31.0966   22.0850 O   0  0  0  0  0  0  0  0  0  0  0  0
  -31.2022  -24.6659   23.9964 O   0  0  0  0  0  0  0  0  0  0  0  0
  -21.7444  -21.3579   21.6477 O   0  0  0  0  0  0  0  0  0  1  0  0
  -33.3992  -27.1335   28.4109 F   0  0  0  0  0  0  0  0  0  0  0  0
  -29.5917  -25.7032   25.9896 F   0  0  0  0  0  0  0  0  0  0  0  0
  -21.1687  -26.1666   21.2274 F   0  0  0  0  0  0  0  0  0  0  0  0
  1  2  1  0  0  0  0
  1  6  2  0  0  0  0
  2  7  2  0  0  0  0
  3  9  2  0  0  0  0
  3 10  1  0  0  0  0
  4 11  2  0  0  0  0
  4 18  1  0  0  0  0
  5 12  1  0  0  0  0
  5 18  2  0  0  0  0
  6 20  1  0  0  0  0
  7 22  1  0  0  0  0
  8 13  2  0  0  0  0
  8 21  1  0  0  0  0
  9 24  1  0  0  0  0
 10 25  2  0  0  0  0
 11 26  1  0  0  0  0
 12 26  2  0  0  0  0
 13 27  1  0  0  0  0
 14 15  2  0  0  0  0
 14 28  1  0  0  0  0
 15 29  1  0  0  0  0
 16 23  1  0  0  0  0
 16 27  2  0  0  0  0
 17 29  2  0  0  0  0
 17 30  1  0  0  0  0
 18 32  1  0  0  0  0
 19 32  1  0  0  0  0
 19 33  2  0  0  0  0
 19 35  1  0  0  0  0
 20 22  2  0  0  0  0
 20 40  1  0  0  0  0
 21 23  2  0  0  0  0
 21 41  1  0  0  0  0
 22 51  1  0  0  0  0
 23 42  1  0  0  0  0
 24 31  2  0  0  0  0
 24 66  1  0  0  0  0
 25 31  1  0  0  0  0
 25 71  1  0  0  0  0
 26 81  1  0  0  0  0
 27 82  1  0  0  0  0
 28 30  2  0  0  0  0
 28 81  1  0  0  0  0
 29 83  1  0  0  0  0
 30 84  1  0  0  0  0
 31 85  1  0  0  0  0
 32 64  2  0  0  0  0
 33 65  1  0  0  0  0
 33 69  1  0  0  0  0
 34 43  1  0  0  0  0
 34 66  1  0  0  0  0
 34 75  2  0  0  0  0
 35 70  1  0  0  0  0
 35 76  2  0  0  0  0
 36 52  1  0  0  0  0
 36 72  1  0  0  0  0
 36 77  2  0  0  0  0
 37 61  1  0  0  0  0
 37 67  1  0  0  0  0
 37 78  2  0  0  0  0
 38 62  1  0  0  0  0
 38 73  1  0  0  0  0
 38 79  2  0  0  0  0
 39 68  1  0  0  0  0
 39 71  1  0  0  0  0
 39 80  2  0  0  0  0
 40 44  1  0  0  0  0
 41 52  1  0  0  0  0
 42 67  1  0  0  0  0
 43 53  1  0  0  0  0
 44 46  1  0  0  0  0
 45 47  1  0  0  0  0
 45 48  1  0  0  0  0
 46 51  1  0  0  0  0
 47 54  1  0  0  0  0
 48 68  1  0  0  0  0
 49 53  1  0  0  0  0
 49 66  1  0  0  0  0
 50 54  1  0  0  0  0
 50 68  1  0  0  0  0
 51 72  1  0  0  0  0
 52 67  1  0  0  0  0
 53 60  1  0  0  0  0
 54 65  1  0  0  0  0
 55 62  1  0  0  0  0
 56 63  1  0  0  0  0
 57 63  1  0  0  0  0
 58 63  1  0  0  0  0
 59 74  1  0  0  0  0
 60 82  1  0  0  0  0
 61 63  1  0  0  0  0
 61 73  1  0  0  0  0
 62 74  1  0  0  0  0
 64 65  1  0  0  0  0
M  CHG  1  74   1
M  ISO  4  39 100  60 101  71 100  82 101
M  END
> <Batch ID>
0095

> <Smiles>
CNC(C)C(=O)NC(C(=O)N1Cc2cc([101O:1][101CH2:1]C3CC(=O)N(c4cccc([100NH:0][100C:0](=O)N5CCCC(n6nc(-c7ccc(Oc8ccc(F)cc8F)cc7)c(C(N)=O)c6N)C5)c4F)C3)ccc2CC1C(=O)NC1CCCc2ccccc21)C(C)(C)C

> <Shape>
0.239

> <Color>
0.086

> <Negative vol penalty>
0.000

$$$$

  -OEChem-04052300433D

 89 98  0     1  0  0  0  0  0999 V2000
  -25.0049  -13.4682   21.3756 C   0  0  0  0  0  0  0  0  0  0  0  0
  -25.8423  -14.2230   22.1908 C   0  0  0  0  0  0  0  0  0  0  0  0
  -20.7383  -20.8499   21.2908 C   0  0  0  0  0  0  0  0  0  0  0  0
  -18.4255  -21.3250   20.7786 C   0  0  0  0  0  0  0  0  0  0  0  0
  -24.9409  -28.8409   21.9357 C   0  0  0  0  0  0  0  0  0  0  0  0
  -25.2485  -13.3957   20.0047 C   0  0  0  0  0  0  0  0  0  0  0  0
  -26.9245  -14.9049   21.6356 C   0  0  0  0  0  0  0  0  0  0  0  0
  -28.7508  -22.4937   21.9539 C   0  0  0  0  0  0  0  0  0  0  0  0
  -26.1734  -28.5032   21.3767 C   0  0  0  0  0  0  0  0  0  0  0  0
  -20.4107  -19.5159   21.5328 C   0  0  0  0  0  0  0  0  0  0  0  0
  -18.0979  -19.9909   21.0206 C   0  0  0  0  0  0  0  0  0  0  0  0
  -29.0937  -23.8379   21.8066 C   0  0  0  0  0  0  0  0  0  0  0  0
  -19.7749  -16.7375   19.7137 C   0  0  0  0  0  0  0  0  0  0  0  0
  -20.6047  -15.7572   19.1697 C   0  0  0  0  0  0  0  0  0  0  0  0
  -30.2041  -23.3366   19.7176 C   0  0  0  0  0  0  0  0  0  0  0  0
  -26.3277  -30.7026   20.3886 C   0  0  0  0  0  0  0  0  0  0  0  0
  -21.0755  -14.9245   21.3882 C   0  0  0  0  0  0  0  0  0  0  0  0
  -19.7456  -21.7545   20.9137 C   0  0  0  0  0  0  0  0  0  0  0  0
  -24.4017  -30.1093   21.7211 C   0  0  0  0  0  0  0  0  0  0  0  0
  -20.9838  -23.6265   19.7012 C   0  0  0  0  0  0  0  0  0  0  0  0
  -26.3286  -14.0849   19.4311 C   0  0  0  0  0  0  0  0  0  0  0  0
  -29.1204  -21.5673   20.9749 C   0  0  0  0  0  0  0  0  0  0  0  0
  -27.1836  -14.8404   20.2560 C   0  0  0  0  0  0  0  0  0  0  0  0
  -29.8526  -21.9910   19.8536 C   0  0  0  0  0  0  0  0  0  0  0  0
  -26.8669  -29.4341   20.6032 C   0  0  0  0  0  0  0  0  0  0  0  0
  -19.0905  -19.0864   21.3977 C   0  0  0  0  0  0  0  0  0  0  0  0
  -29.8188  -24.2582   20.6913 C   0  0  0  0  0  0  0  0  0  0  0  0
  -19.5954  -16.8113   21.0951 C   0  0  0  0  0  0  0  0  0  0  0  0
  -21.2550  -14.8507   20.0069 C   0  0  0  0  0  0  0  0  0  0  0  0
  -25.0952  -31.0402   20.9476 C   0  0  0  0  0  0  0  0  0  0  0  0
  -20.2456  -15.9048   21.9323 C   0  0  0  0  0  0  0  0  0  0  0  0
  -20.0833  -23.1328   20.6641 C   0  0  0  0  0  0  0  0  0  0  0  0
  -20.9498  -24.9896   19.8663 C   0  0  0  0  0  0  0  0  0  0  0  0
  -30.4799  -29.8138   19.9234 C   0  0  0  0  0  0  0  0  0  0  0  0
  -28.4329  -27.7507   19.6676 C   0  0  0  0  0  0  0  0  0  0  0  0
  -23.0874  -30.4634   22.3162 C   0  0  0  0  0  0  0  0  0  0  0  0
  -21.7797  -22.9164   18.7431 C   0  0  0  0  0  0  0  0  0  0  0  0
  -29.0467  -18.0005   19.8136 C   0  0  0  0  0  0  0  0  0  0  0  0
  -28.6002  -19.7536   17.3361 C   0  0  0  0  0  0  0  0  0  0  0  0
  -27.6623  -21.0359   14.3173 C   0  0  0  0  0  0  0  0  0  0  0  0
  -20.9290  -29.5131   23.0656 C   0  0  0  0  0  0  0  0  0  0  0  0
  -26.5797  -13.9381   17.9512 C   0  0  0  0  0  0  0  0  0  0  0  0
  -28.8258  -20.0992   21.1225 C   0  0  0  0  0  0  0  0  0  0  0  0
  -30.2587  -20.9534   18.8429 C   0  0  0  0  0  0  0  0  0  0  0  0
  -30.8061  -28.3553   20.1098 C   0  0  0  0  0  0  0  0  0  0  0  0
  -29.0418  -30.1648   19.6063 C   0  0  0  0  0  0  0  0  0  0  0  0
  -27.5274  -14.9933   17.3866 C   0  0  0  0  0  0  0  0  0  0  0  0
  -17.8187  -27.9055   22.5770 C   0  0  0  0  0  0  0  0  0  0  0  0
  -28.7522  -15.1452   18.2830 C   0  0  0  0  0  0  0  0  0  0  0  0
  -18.2011  -26.5626   21.9486 C   0  0  0  0  0  0  0  0  0  0  0  0
  -18.8232  -28.3394   23.6435 C   0  0  0  0  0  0  0  0  0  0  0  0
  -20.6047  -27.0107   22.5858 C   0  0  0  0  0  0  0  0  0  0  0  0
  -28.3533  -15.6143   19.6874 C   0  0  1  0  0  0  0  0  0  0  0  0
  -29.8776  -27.5485   19.2066 C   0  0  1  0  0  0  0  0  0  0  0  0
  -28.5237  -19.4065   19.7816 C   0  0  1  0  0  0  0  0  0  0  0  0
  -19.6623  -26.5641   21.4564 C   0  0  1  0  0  0  0  0  0  0  0  0
  -27.7281  -20.5365   11.8589 C   0  0  0  0  0  0  0  0  0  0  0  0
  -31.5544  -20.5098   17.2654 C   0  0  0  0  0  0  0  0  0  0  0  0
  -31.3175  -20.9199   14.8069 C   0  0  0  0  0  0  0  0  0  0  0  0
  -30.9192  -18.6381   15.7330 C   0  0  0  0  0  0  0  0  0  0  0  0
  -24.7093  -21.0281   14.1219 C   0  0  0  0  0  0  0  0  0  0  0  0
  -30.2672  -26.0729   19.2204 C   0  0  0  0  0  0  0  0  0  1  0  0
  -29.2218  -20.4626   16.1596 C   0  0  1  0  0  0  0  0  0  0  0  0
  -26.9247  -20.4155   13.1445 C   0  0  2  0  0  0  0  0  0  0  0  0
  -30.7367  -20.1464   16.0098 C   0  0  0  0  0  0  0  0  0  0  0  0
  -19.5186  -24.1034   21.3874 N   0  0  0  0  0  0  0  0  0  0  0  0
  -20.0658  -25.2205   20.8789 N   0  0  0  0  0  0  0  0  0  0  0  0
  -28.1403  -29.0851   20.0257 N   0  0  0  0  0  0  0  0  0  0  0  0
  -29.1424  -20.0269   18.5978 N   0  0  0  0  0  0  0  0  0  0  0  0
  -20.1807  -28.3234   23.0955 N   0  0  0  0  0  0  0  0  0  0  0  0
  -21.5903  -26.0012   19.2427 N   0  0  0  0  0  0  0  0  0  0  0  0
  -21.2332  -22.6620   17.4778 N   0  0  0  0  0  0  0  0  0  0  0  0
  -22.1970  -29.4026   22.4841 N   0  0  0  0  0  0  0  0  0  0  0  0
  -28.0684  -17.0332   19.6844 N   0  0  0  0  0  0  0  0  0  0  0  0
  -28.4185  -20.1036   14.9958 N   0  0  0  0  0  0  0  0  0  0  0  0
  -25.6113  -21.0904   12.9431 N   0  3  0  0  0  0  0  0  0  0  0  0
  -31.3575  -30.6761   19.9552 O   0  0  0  0  0  0  0  0  0  0  0  0
  -27.6341  -26.8140   19.6674 O   0  0  0  0  0  0  0  0  0  0  0  0
  -22.8774  -31.6252   22.6539 O   0  0  0  0  0  0  0  0  0  0  0  0
  -22.9350  -22.5050   19.0068 O   0  0  0  0  0  0  0  0  0  0  0  0
  -30.2496  -17.8062   19.9443 O   0  0  0  0  0  0  0  0  0  0  0  0
  -27.6631  -18.9737   17.1440 O   0  0  0  0  0  0  0  0  0  0  0  0
  -27.5792  -22.2289   14.6008 O   0  0  0  0  0  0  0  0  0  0  0  0
  -20.4917  -30.5892   23.4853 O   0  0  0  0  0  0  0  0  0  0  0  0
  -18.7705  -17.7846   21.6336 O   0  0  0  0  0  0  0  0  0  0  0  0
  -30.1463  -25.5727   20.5514 O   0  0  0  0  0  0  0  0  0  1  0  0
  -22.0507  -13.9084   19.4842 F   0  0  0  0  0  0  0  0  0  0  0  0
  -24.5864  -32.2622   20.7344 F   0  0  0  0  0  0  0  0  0  0  0  0
  -20.0761  -15.9700   23.2600 F   0  0  0  0  0  0  0  0  0  0  0  0
  1  2  1  0  0  0  0
  1  6  2  0  0  0  0
  2  7  2  0  0  0  0
  3 10  2  0  0  0  0
  3 18  1  0  0  0  0
  4 11  1  0  0  0  0
  4 18  2  0  0  0  0
  5  9  2  0  0  0  0
  5 19  1  0  0  0  0
  6 21  1  0  0  0  0
  7 23  1  0  0  0  0
  8 12  2  0  0  0  0
  8 22  1  0  0  0  0
  9 25  1  0  0  0  0
 10 26  1  0  0  0  0
 11 26  2  0  0  0  0
 12 27  1  0  0  0  0
 13 14  2  0  0  0  0
 13 28  1  0  0  0  0
 14 29  1  0  0  0  0
 15 24  1  0  0  0  0
 15 27  2  0  0  0  0
 16 25  2  0  0  0  0
 16 30  1  0  0  0  0
 17 29  2  0  0  0  0
 17 31  1  0  0  0  0
 18 32  1  0  0  0  0
 19 30  2  0  0  0  0
 19 36  1  0  0  0  0
 20 32  1  0  0  0  0
 20 33  2  0  0  0  0
 20 37  1  0  0  0  0
 21 23  2  0  0  0  0
 21 42  1  0  0  0  0
 22 24  2  0  0  0  0
 22 43  1  0  0  0  0
 23 53  1  0  0  0  0
 24 44  1  0  0  0  0
 25 68  1  0  0  0  0
 26 85  1  0  0  0  0
 27 86  1  0  0  0  0
 28 31  2  0  0  0  0
 28 85  1  0  0  0  0
 29 87  1  0  0  0  0
 30 88  1  0  0  0  0
 31 89  1  0  0  0  0
 32 66  2  0  0  0  0
 33 67  1  0  0  0  0
 33 71  1  0  0  0  0
 34 45  1  0  0  0  0
 34 46  1  0  0  0  0
 34 77  2  0  0  0  0
 35 54  1  0  0  0  0
 35 68  1  0  0  0  0
 35 78  2  0  0  0  0
 36 73  1  0  0  0  0
 36 79  2  0  0  0  0
 37 72  1  0  0  0  0
 37 80  2  0  0  0  0
 38 55  1  0  0  0  0
 38 74  1  0  0  0  0
 38 81  2  0  0  0  0
 39 63  1  0  0  0  0
 39 69  1  0  0  0  0
 39 82  2  0  0  0  0
 40 64  1  0  0  0  0
 40 75  1  0  0  0  0
 40 83  2  0  0  0  0
 41 70  1  0  0  0  0
 41 73  1  0  0  0  0
 41 84  2  0  0  0  0
 42 47  1  0  0  0  0
 43 55  1  0  0  0  0
 44 69  1  0  0  0  0
 45 54  1  0  0  0  0
 46 68  1  0  0  0  0
 47 49  1  0  0  0  0
 48 50  1  0  0  0  0
 48 51  1  0  0  0  0
 49 53  1  0  0  0  0
 50 56  1  0  0  0  0
 51 70  1  0  0  0  0
 52 56  1  0  0  0  0
 52 70  1  0  0  0  0
 53 74  1  0  0  0  0
 54 62  1  0  0  0  0
 55 69  1  0  0  0  0
 56 67  1  0  0  0  0
 57 64  1  0  0  0  0
 58 65  1  0  0  0  0
 59 65  1  0  0  0  0
 60 65  1  0  0  0  0
 61 76  1  0  0  0  0
 62 86  1  0  0  0  0
 63 65  1  0  0  0  0
 63 75  1  0  0  0  0
 64 76  1  0  0  0  0
 66 67  1  0  0  0  0
M  CHG  1  76   1
M  ISO  4  41 100  62 101  73 100  86 101
M  END
> <Batch ID>
0095

> <Smiles>
CNC(C)C(=O)NC(C(=O)N1Cc2cc([101O:1][101CH2:1]C3CC(=O)CN(c4ccc(C(=O)[100NH:0][100C:0](=O)N5CCCC(n6nc(-c7ccc(Oc8ccc(F)cc8F)cc7)c(C(N)=O)c6N)C5)c(F)c4)C3=O)ccc2CC1C(=O)NC1CCCc2ccccc21)C(C)(C)C

> <Shape>
0.229

> <Color>
0.069

> <Negative vol penalty>
0.000

$$$$

  -OEChem-04052300433D

 86 95  0     1  0  0  0  0  0999 V2000
  -29.7089  -34.7803   15.7041 C   0  0  0  0  0  0  0  0  0  0  0  0
  -29.3167  -33.4456   15.7206 C   0  0  0  0  0  0  0  0  0  0  0  0
  -23.8347   -9.8700   22.3412 C   0  0  0  0  0  0  0  0  0  0  0  0
  -24.6051  -11.4889   23.9608 C   0  0  0  0  0  0  0  0  0  0  0  0
  -29.9381  -35.4532   16.9035 C   0  0  0  0  0  0  0  0  0  0  0  0
  -29.1545  -32.7828   16.9366 C   0  0  0  0  0  0  0  0  0  0  0  0
  -25.0255  -28.4539   18.2477 C   0  0  0  0  0  0  0  0  0  0  0  0
  -23.4052   -9.0392   23.3759 C   0  0  0  0  0  0  0  0  0  0  0  0
  -24.1754  -10.6580   24.9956 C   0  0  0  0  0  0  0  0  0  0  0  0
  -25.1056  -27.0626   18.2878 C   0  0  0  0  0  0  0  0  0  0  0  0
  -20.7710   -8.8489   25.4874 C   0  0  0  0  0  0  0  0  0  0  0  0
  -19.5093   -8.2662   25.3695 C   0  0  0  0  0  0  0  0  0  0  0  0
  -25.4911  -27.1594   20.6671 C   0  0  0  0  0  0  0  0  0  0  0  0
  -30.2954  -20.5101   18.8211 C   0  0  0  0  0  0  0  0  0  0  0  0
  -30.9031  -18.1815   18.6078 C   0  0  0  0  0  0  0  0  0  0  0  0
  -20.5138   -6.0711   25.4676 C   0  0  0  0  0  0  0  0  0  0  0  0
  -24.4347  -11.0949   22.6336 C   0  0  0  0  0  0  0  0  0  0  0  0
  -24.1357  -12.9570   20.9158 C   0  0  0  0  0  0  0  0  0  0  0  0
  -29.7692  -34.8010   18.1350 C   0  0  0  0  0  0  0  0  0  0  0  0
  -25.1887  -29.2103   19.4173 C   0  0  0  0  0  0  0  0  0  0  0  0
  -29.3829  -33.4472   18.1536 C   0  0  0  0  0  0  0  0  0  0  0  0
  -25.4101  -28.5600   20.6397 C   0  0  0  0  0  0  0  0  0  0  0  0
  -28.9545  -20.1483   18.9499 C   0  0  0  0  0  0  0  0  0  0  0  0
  -31.2697  -19.5266   18.6500 C   0  0  0  0  0  0  0  0  0  0  0  0
  -29.5621  -17.8197   18.7367 C   0  0  0  0  0  0  0  0  0  0  0  0
  -23.5755   -9.4332   24.7031 C   0  0  0  0  0  0  0  0  0  0  0  0
  -25.3414  -26.4153   19.4971 C   0  0  0  0  0  0  0  0  0  0  0  0
  -21.9043   -8.0428   25.5953 C   0  0  0  0  0  0  0  0  0  0  0  0
  -19.3806   -6.8773   25.3596 C   0  0  0  0  0  0  0  0  0  0  0  0
  -21.7756   -6.6539   25.5855 C   0  0  0  0  0  0  0  0  0  0  0  0
  -28.5878  -18.8032   18.9077 C   0  0  0  0  0  0  0  0  0  0  0  0
  -24.8792  -11.9533   21.5651 C   0  0  0  0  0  0  0  0  0  0  0  0
  -25.0012  -13.4776   19.9851 C   0  0  0  0  0  0  0  0  0  0  0  0
  -26.8406  -23.1579   19.3824 C   0  0  0  0  0  0  0  0  0  0  0  0
  -28.1793  -22.5401   19.1874 C   0  0  0  0  0  0  0  0  0  0  0  0
  -26.6459  -24.4787   19.3610 C   0  0  0  0  0  0  0  0  0  1  0  0
  -22.7836  -13.3809   21.1346 C   0  0  0  0  0  0  0  0  0  0  0  0
  -27.2631  -31.4120   20.3935 C   0  0  0  0  0  0  0  0  0  0  0  0
  -25.2555  -31.6168   22.9332 C   0  0  0  0  0  0  0  0  0  0  0  0
  -22.8842  -30.1219   24.8797 C   0  0  0  0  0  0  0  0  0  0  0  0
  -30.0375  -15.3544   18.5302 C   0  0  0  0  0  0  0  0  0  0  0  0
  -30.0745  -35.5563   19.4043 C   0  0  0  0  0  0  0  0  0  0  0  0
  -25.0729  -30.7089   19.3617 C   0  0  0  0  0  0  0  0  0  0  0  0
  -25.5721  -29.3250   21.9269 C   0  0  0  0  0  0  0  0  0  0  0  0
  -25.8076  -22.1026   19.5698 C   0  0  0  0  0  0  0  0  0  0  0  0
  -29.5173  -34.8890   20.6591 C   0  0  0  0  0  0  0  0  0  0  0  0
  -29.5214  -11.8336   18.4080 C   0  0  0  0  0  0  0  0  0  0  0  0
  -29.8282  -33.3957   20.6525 C   0  0  0  0  0  0  0  0  0  0  0  0
  -28.2065  -11.6335   19.1651 C   0  0  0  0  0  0  0  0  0  0  0  0
  -26.5428  -20.8279   19.1898 C   0  0  0  0  0  0  0  0  0  0  0  0
  -30.3696  -12.9426   19.0280 C   0  0  0  0  0  0  0  0  0  0  0  0
  -28.3644  -14.0263   19.9629 C   0  0  0  0  0  0  0  0  0  0  0  0
  -29.1723  -32.7009   19.4531 C   0  0  1  0  0  0  0  0  0  0  0  0
  -25.7666  -31.4055   20.5283 C   0  0  1  0  0  0  0  0  0  0  0  0
  -27.4469  -12.9636   19.3366 C   0  0  2  0  0  0  0  0  0  0  0  0
  -21.4582  -30.5240   26.9051 C   0  0  0  0  0  0  0  0  0  0  0  0
  -27.6809  -31.1629   24.7279 C   0  0  0  0  0  0  0  0  0  0  0  0
  -26.1078  -30.6302   26.6013 C   0  0  0  0  0  0  0  0  0  0  0  0
  -26.0794  -32.8955   25.5570 C   0  0  0  0  0  0  0  0  0  0  0  0
  -20.3850  -29.8203   23.3234 C   0  0  0  0  0  0  0  0  0  0  0  0
  -25.1508  -30.9264   24.2716 C   0  0  1  0  0  0  0  0  0  0  0  0
  -21.5420  -30.6151   25.3894 C   0  0  2  0  0  0  0  0  0  0  0  0
  -26.2536  -31.3891   25.2651 C   0  0  0  0  0  0  0  0  0  0  0  0
  -26.1214  -11.8411   21.0872 N   0  0  0  0  0  0  0  0  0  0  0  0
  -26.1651  -12.7810   20.1276 N   0  0  0  0  0  0  0  0  0  0  0  0
  -27.9579  -21.1581   19.1258 N   0  0  0  0  0  0  0  0  0  0  0  0
  -25.4569  -30.7888   21.8198 N   0  0  0  0  0  0  0  0  0  0  0  0
  -29.5857  -14.1731   19.1556 N   0  0  0  0  0  0  0  0  0  0  0  0
  -32.6260  -19.8917   18.5202 N   0  0  0  0  0  0  0  0  0  0  0  0
  -24.8726  -14.4587   19.0667 N   0  0  0  0  0  0  0  0  0  0  0  0
  -22.0351  -12.7393   22.1308 N   0  0  0  0  0  0  0  0  0  0  0  0
  -29.1933  -16.4523   18.6935 N   0  0  0  0  0  0  0  0  0  0  0  0
  -27.7605  -32.4970   19.6972 N   0  0  0  0  0  0  0  0  0  0  0  0
  -23.7888  -31.1535   24.7426 N   0  0  0  0  0  0  0  0  0  0  0  0
  -20.4366  -29.8021   24.8079 N   0  3  0  0  0  0  0  0  0  0  0  0
  -29.2095  -23.1875   19.1016 O   0  0  0  0  0  0  0  0  0  0  0  0
  -22.2496  -14.2903   20.4553 O   0  0  0  0  0  0  0  0  0  0  0  0
  -27.9181  -30.5010   20.8862 O   0  0  0  0  0  0  0  0  0  0  0  0
  -25.1549  -32.8450   22.8768 O   0  0  0  0  0  0  0  0  0  0  0  0
  -23.1089  -28.9393   24.6318 O   0  0  0  0  0  0  0  0  0  0  0  0
  -31.0816  -15.3827   17.8737 O   0  0  0  0  0  0  0  0  0  0  0  0
  -23.1562   -8.6228   25.7131 O   0  0  0  0  0  0  0  0  0  0  0  0
  -25.4207  -25.0574   19.5389 O   0  0  0  0  0  0  0  0  0  1  0  0
  -18.1687   -6.3179   25.2480 F   0  0  0  0  0  0  0  0  0  0  0  0
  -22.8605   -5.8742   25.6900 F   0  0  0  0  0  0  0  0  0  0  0  0
  -27.2980  -18.4548   19.0332 F   0  0  0  0  0  0  0  0  0  0  0  0
  1  2  1  0  0  0  0
  1  5  2  0  0  0  0
  2  6  2  0  0  0  0
  3  8  2  0  0  0  0
  3 17  1  0  0  0  0
  4  9  1  0  0  0  0
  4 17  2  0  0  0  0
  5 19  1  0  0  0  0
  6 21  1  0  0  0  0
  7 10  2  0  0  0  0
  7 20  1  0  0  0  0
  8 26  1  0  0  0  0
  9 26  2  0  0  0  0
 10 27  1  0  0  0  0
 11 12  2  0  0  0  0
 11 28  1  0  0  0  0
 12 29  1  0  0  0  0
 13 22  1  0  0  0  0
 13 27  2  0  0  0  0
 14 23  1  0  0  0  0
 14 24  2  0  0  0  0
 15 24  1  0  0  0  0
 15 25  2  0  0  0  0
 16 29  2  0  0  0  0
 16 30  1  0  0  0  0
 17 32  1  0  0  0  0
 18 32  1  0  0  0  0
 18 33  2  0  0  0  0
 18 37  1  0  0  0  0
 19 21  2  0  0  0  0
 19 42  1  0  0  0  0
 20 22  2  0  0  0  0
 20 43  1  0  0  0  0
 21 53  1  0  0  0  0
 22 44  1  0  0  0  0
 23 31  2  0  0  0  0
 23 66  1  0  0  0  0
 24 69  1  0  0  0  0
 25 31  1  0  0  0  0
 25 72  1  0  0  0  0
 26 82  1  0  0  0  0
 27 83  1  0  0  0  0
 28 30  2  0  0  0  0
 28 82  1  0  0  0  0
 29 84  1  0  0  0  0
 30 85  1  0  0  0  0
 31 86  1  0  0  0  0
 32 64  2  0  0  0  0
 33 65  1  0  0  0  0
 33 70  1  0  0  0  0
 34 35  1  0  0  0  0
 34 36  2  0  0  0  0
 34 45  1  0  0  0  0
 35 66  1  0  0  0  0
 35 76  2  0  0  0  0
 36 83  1  0  0  0  0
 37 71  1  0  0  0  0
 37 77  2  0  0  0  0
 38 54  1  0  0  0  0
 38 73  1  0  0  0  0
 38 78  2  0  0  0  0
 39 61  1  0  0  0  0
 39 67  1  0  0  0  0
 39 79  2  0  0  0  0
 40 62  1  0  0  0  0
 40 74  1  0  0  0  0
 40 80  2  0  0  0  0
 41 68  1  0  0  0  0
 41 72  1  0  0  0  0
 41 81  2  0  0  0  0
 42 46  1  0  0  0  0
 43 54  1  0  0  0  0
 44 67  1  0  0  0  0
 45 50  1  0  0  0  0
 46 48  1  0  0  0  0
 47 49  1  0  0  0  0
 47 51  1  0  0  0  0
 48 53  1  0  0  0  0
 49 55  1  0  0  0  0
 50 66  1  0  0  0  0
 51 68  1  0  0  0  0
 52 55  1  0  0  0  0
 52 68  1  0  0  0  0
 53 73  1  0  0  0  0
 54 67  1  0  0  0  0
 55 65  1  0  0  0  0
 56 62  1  0  0  0  0
 57 63  1  0  0  0  0
 58 63  1  0  0  0  0
 59 63  1  0  0  0  0
 60 75  1  0  0  0  0
 61 63  1  0  0  0  0
 61 74  1  0  0  0  0
 62 75  1  0  0  0  0
 64 65  1  0  0  0  0
M  CHG  1  75   1
M  ISO  4  36 101  41 100  72 100  83 101
M  END
> <Batch ID>
0095

> <Smiles>
CNC(C)C(=O)NC(C(=O)N1Cc2cc([101O:1][101CH:1]=C3CCN(c4cc(N)cc([100NH:0][100C:0](=O)N5CCCC(n6nc(-c7ccc(Oc8ccc(F)cc8F)cc7)c(C(N)=O)c6N)C5)c4F)C3=O)ccc2CC1C(=O)NC1CCCc2ccccc21)C(C)(C)C

> <Shape>
0.260

> <Color>
0.145

> <Negative vol penalty>
0.000

$$$$
